# generated using pymatgen
data_Na8Mg3Si3Sn(SO8)3
_symmetry_space_group_name_H-M   'P 1'
_cell_length_a   9.11780820
_cell_length_b   9.12250126
_cell_length_c   22.22755349
_cell_angle_alpha   89.83613947
_cell_angle_beta   89.60206223
_cell_angle_gamma   119.89661696
_symmetry_Int_Tables_number   1
_chemical_formula_structural   Na8Mg3Si3Sn(SO8)3
_chemical_formula_sum   'Na24 Mg9 Si9 Sn3 S9 O72'
_cell_volume   1602.71442142
_cell_formula_units_Z   3
loop_
 _symmetry_equiv_pos_site_id
 _symmetry_equiv_pos_as_xyz
  1  'x, y, z'
loop_
 _atom_site_type_symbol
 _atom_site_label
 _atom_site_symmetry_multiplicity
 _atom_site_fract_x
 _atom_site_fract_y
 _atom_site_fract_z
 _atom_site_occupancy
  Na  Na0  1  0.63015949  0.99575134  0.25885517  1
  Na  Na1  1  0.36919202  0.36753526  0.24451294  1
  Na  Na2  1  0.00123034  0.62744245  0.25210890  1
  Na  Na3  1  0.64396424  0.64749953  0.73466501  1
  Na  Na4  1  0.98352199  0.34776303  0.75095929  1
  Na  Na5  1  0.38574435  0.01142323  0.74114246  1
  Na  Na6  1  0.31443516  0.33192487  0.58339231  1
  Na  Na7  1  0.03952852  0.71569388  0.57436946  1
  Na  Na8  1  0.65259021  0.94661477  0.58378909  1
  Na  Na9  1  0.28371246  0.95962737  0.07622584  1
  Na  Na10  1  0.66632459  0.68449259  0.08506627  1
  Na  Na11  1  0.05266681  0.34942164  0.08082119  1
  Na  Na12  1  0.98594520  0.67514867  0.92162436  1
  Na  Na13  1  0.70702653  0.04088932  0.90716383  1
  Na  Na14  1  0.31281391  0.28507845  0.92283059  1
  Na  Na15  1  0.96518613  0.30268175  0.41442024  1
  Na  Na16  1  0.32749361  0.00802533  0.42339782  1
  Na  Na17  1  0.71150234  0.68760528  0.42607409  1
  Na  Na18  1  0.99073980  0.97848314  0.50148845  1
  Na  Na19  1  0.02057069  0.00955024  0.00082945  1
  Na  Na20  1  0.66801300  0.31513481  0.83105399  1
  Na  Na21  1  0.67686647  0.33278141  0.33862701  1
  Na  Na22  1  0.32095904  0.65380886  0.15940718  1
  Na  Na23  1  0.35379487  0.68422862  0.65734787  1
  Mg  Mg0  1  0.99536110  0.99161976  0.35502768  1
  Mg  Mg1  1  0.00073185  0.01047343  0.85226130  1
  Mg  Mg2  1  0.98255032  0.98400837  0.64483777  1
  Mg  Mg3  1  0.00889228  0.99978322  0.14503101  1
  Mg  Mg4  1  0.65914517  0.32216288  0.67937277  1
  Mg  Mg5  1  0.66612746  0.34090958  0.17773104  1
  Mg  Mg6  1  0.31433682  0.65777627  0.01900584  1
  Mg  Mg7  1  0.34477654  0.68856667  0.51736757  1
  Mg  Mg8  1  0.33159521  0.67939069  0.32886654  1
  Si  Si0  1  0.70692537  0.00145525  0.75176013  1
  Si  Si1  1  0.36451448  0.03487632  0.58677785  1
  Si  Si2  1  0.66218175  0.62560662  0.58589445  1
  Si  Si3  1  0.96327749  0.63032048  0.08668385  1
  Si  Si4  1  0.36985274  0.33750150  0.08606205  1
  Si  Si5  1  0.03879225  0.36943103  0.91867588  1
  Si  Si6  1  0.33337716  0.96649998  0.92010493  1
  Si  Si7  1  0.63410271  0.96599473  0.41565277  1
  Si  Si8  1  0.03621098  0.66346172  0.41633297  1
  Sn  Sn0  1  0.66699153  0.33308145  0.98468223  1
  Sn  Sn1  1  0.66496007  0.33177963  0.48478393  1
  Sn  Sn2  1  0.33372716  0.67935251  0.81931278  1
  S  S0  1  0.29495350  0.00089667  0.24927399  1
  S  S1  1  0.70539966  0.70617882  0.25000430  1
  S  S2  1  0.00010535  0.28983138  0.24917003  1
  S  S3  1  0.29375939  0.29550481  0.75147713  1
  S  S4  1  -0.00004708  0.70742840  0.75129055  1
  S  S5  1  0.96426471  0.33369898  0.58542817  1
  S  S6  1  0.66796216  0.03819709  0.08628315  1
  S  S7  1  0.62724431  0.66738516  0.91744270  1
  S  S8  1  0.33148071  0.37432875  0.41425310  1
  O  O0  1  0.21538793  0.02741064  0.30327760  1
  O  O1  1  0.80959116  0.78939212  0.30318124  1
  O  O2  1  0.98241892  0.18829593  0.30352986  1
  O  O3  1  0.21389124  0.19201084  0.80603374  1
  O  O4  1  0.98119558  0.78596111  0.80658790  1
  O  O5  1  0.81278958  0.02081196  0.81218956  1
  O  O6  1  0.78744989  0.96400891  0.69278959  1
  O  O7  1  0.19204993  0.21967116  0.69755935  1
  O  O8  1  0.02891199  0.81305620  0.69763413  1
  O  O9  1  0.78481628  0.81077876  0.19526991  1
  O  O10  1  0.01756086  0.20575722  0.19472712  1
  O  O11  1  0.19179240  0.98032131  0.19548130  1
  O  O12  1  0.88308475  0.36272257  0.63828599  1
  O  O13  1  0.48740236  0.11936228  0.64358595  1
  O  O14  1  0.64194722  0.51186803  0.64511422  1
  O  O15  1  0.87734025  0.50522941  0.14375778  1
  O  O16  1  0.63806110  0.11949862  0.13848525  1
  O  O17  1  0.48345401  0.36153094  0.14486828  1
  O  O18  1  0.45275122  0.29246980  0.02491607  1
  O  O19  1  0.84150275  0.54565701  0.02435151  1
  O  O20  1  0.70364542  0.14528959  0.02975408  1
  O  O21  1  0.45000029  0.15682426  0.52426298  1
  O  O22  1  0.70233771  0.54207406  0.52450788  1
  O  O23  1  0.85665880  0.29942596  0.52977109  1
  O  O24  1  0.54649327  0.69231980  0.97061081  1
  O  O25  1  0.16000114  0.45738796  0.97430759  1
  O  O26  1  0.31195237  0.84974567  0.97700336  1
  O  O27  1  0.55052673  0.84354746  0.47301804  1
  O  O28  1  0.30508702  0.44887692  0.46890887  1
  O  O29  1  0.15081379  0.68582232  0.47434897  1
  O  O30  1  0.10479925  0.61827727  0.35446781  1
  O  O31  1  0.52065417  0.89363696  0.35448915  1
  O  O32  1  0.35877860  0.48004022  0.35958443  1
  O  O33  1  0.11966791  0.49102219  0.85541706  1
  O  O34  1  0.38117148  0.89509544  0.85749446  1
  O  O35  1  0.51941738  0.63397105  0.86187223  1
  O  O36  1  0.01969256  0.83445572  0.41030292  1
  O  O37  1  0.82839268  0.00303192  0.40883546  1
  O  O38  1  0.18374139  0.20248523  0.40694902  1
  O  O39  1  0.01032160  0.18043370  0.91223669  1
  O  O40  1  0.16361811  0.98031694  0.91056354  1
  O  O41  1  0.79687134  0.81265470  0.90960142  1
  O  O42  1  0.98140365  0.18194505  0.59162838  1
  O  O43  1  0.18187002  0.02855389  0.59059061  1
  O  O44  1  0.83008232  0.81426363  0.58508966  1
  O  O45  1  0.96986612  0.81331380  0.08873849  1
  O  O46  1  0.82098982  0.02255061  0.09255371  1
  O  O47  1  0.17964310  0.17141640  0.08804244  1
  O  O48  1  0.68331864  0.16953036  0.74754636  1
  O  O49  1  0.46749707  0.32094811  0.74783142  1
  O  O50  1  0.85056594  0.53529358  0.74666519  1
  O  O51  1  0.68977132  0.53430225  0.24653439  1
  O  O52  1  0.84349711  0.30580875  0.24669099  1
  O  O53  1  0.46991470  0.15243935  0.24411849  1
  O  O54  1  0.64038810  0.50942408  0.92000077  1
  O  O55  1  0.84923548  0.35959615  0.92148824  1
  O  O56  1  0.50815664  0.15966988  0.92158717  1
  O  O57  1  0.64408112  0.15620252  0.42240995  1
  O  O58  1  0.48828972  0.35829736  0.41732346  1
  O  O59  1  0.83913935  0.49222655  0.42138542  1
  O  O60  1  0.36665752  0.51394854  0.07811658  1
  O  O61  1  0.15293536  0.65665834  0.08111922  1
  O  O62  1  0.51837579  0.87020635  0.07859299  1
  O  O63  1  0.34085174  0.84652962  0.58017952  1
  O  O64  1  0.48630616  0.63078483  0.57861305  1
  O  O65  1  0.13212307  0.48411784  0.57707767  1
  O  O66  1  0.31059174  0.84516454  0.25312519  1
  O  O67  1  0.53085697  0.68302121  0.25512511  1
  O  O68  1  0.15475430  0.46151483  0.25132549  1
  O  O69  1  0.30848627  0.46949513  0.75692454  1
  O  O70  1  0.15716349  0.68731063  0.75374882  1
  O  O71  1  0.50761003  0.81680769  0.75487114  1
loop_
_geom_bond_atom_site_label_1
_geom_bond_atom_site_label_2
_geom_bond_distance
_geom_bond_site_symmetry_2
Na0 O31 2.327082 1_555
Na0 O52 2.522065 1_565
Na0 O53 2.524102 1_565
Na0 O67 2.528439 1_555
Na0 O66 2.531658 1_555
Na1 O17 2.453468 1_555
Na1 O68 2.499679 1_555
Na1 O67 2.508206 1_555
Na1 O51 2.535662 1_555
Na1 O53 2.547577 1_555
Na1 O32 2.777277 1_555
Na2 O30 2.486499 1_555
Na2 O66 2.513562 1_555
Na2 O68 2.522497 1_555
Na2 O51 2.530219 1_455
Na2 O52 2.547485 1_455
Na2 O15 2.667767 1_455
Na3 O14 2.342056 1_555
Na3 O71 2.458321 1_555
Na3 O50 2.568079 1_555
Na3 O49 2.599821 1_555
Na3 O6 2.667742 1_555
Na3 O69 2.694612 1_555
Na4 O48 2.389281 1_555
Na4 O50 2.544294 1_555
Na4 O69 2.599260 1_655
Na4 O33 2.660828 1_655
Na4 O70 2.686786 1_655
Na4 O12 2.698892 1_555
Na4 O5 2.913837 1_555
Na4 O7 2.929276 1_655
Na5 O48 2.359572 1_555
Na5 O13 2.362392 1_555
Na5 O71 2.539271 1_545
Na5 O49 2.540954 1_555
Na5 O70 2.647368 1_545
Na5 O34 2.784801 1_545
Na6 O64 2.374236 1_555
Na6 O43 2.409519 1_555
Na6 O42 2.641060 1_455
Na6 O65 2.648263 1_555
Na6 O7 2.745943 1_555
Na6 O28 2.774725 1_555
Na6 O21 2.786478 1_555
Na6 O14 2.945733 1_555
Na7 O63 2.392986 1_555
Na7 O44 2.493791 1_455
Na7 O43 2.505979 1_565
Na7 O29 2.508837 1_555
Na7 O65 2.637654 1_555
Na7 O22 2.896937 1_455
Na7 O8 2.898463 1_555
Na8 O44 2.454768 1_555
Na8 O64 2.502545 1_555
Na8 O63 2.517076 1_555
Na8 O27 2.642944 1_555
Na8 O42 2.687146 1_565
Na8 O6 2.693745 1_555
Na9 O61 2.404916 1_555
Na9 O26 2.489430 1_554
Na9 O45 2.495370 1_455
Na9 O47 2.555223 1_565
Na9 O62 2.643368 1_555
Na9 O11 2.809681 1_555
Na9 O18 2.861163 1_565
Na10 O60 2.383166 1_555
Na10 O45 2.410166 1_555
Na10 O62 2.643897 1_555
Na10 O46 2.682880 1_565
Na10 O9 2.703130 1_555
Na10 O24 2.790427 1_554
Na10 O19 2.823648 1_555
Na10 O17 2.876974 1_555
Na11 O47 2.424512 1_555
Na11 O61 2.477336 1_555
Na11 O60 2.483172 1_555
Na11 O25 2.554733 1_554
Na11 O46 2.670302 1_455
Na11 O10 2.789608 1_555
Na11 O15 2.962791 1_455
Na11 O20 3.006331 1_455
Na12 O40 2.435091 1_655
Na12 O55 2.502676 1_555
Na12 O19 2.595309 1_556
Na12 O41 2.603292 1_555
Na12 O54 2.732658 1_555
Na12 O4 2.755413 1_555
Na12 O26 2.868813 1_655
Na12 O33 2.916237 1_655
Na13 O5 2.360083 1_555
Na13 O39 2.403420 1_655
Na13 O55 2.547275 1_555
Na13 O56 2.552918 1_555
Na13 O41 2.590225 1_545
Na13 O34 2.816007 1_545
Na13 O20 2.894119 1_556
Na14 O40 2.427679 1_545
Na14 O39 2.441171 1_555
Na14 O56 2.551994 1_555
Na14 O18 2.595518 1_556
Na14 O54 2.648833 1_555
Na14 O3 2.748796 1_555
Na14 O25 2.809419 1_555
Na15 O37 2.376698 1_555
Na15 O59 2.512913 1_555
Na15 O57 2.545658 1_555
Na15 O38 2.578006 1_655
Na15 O2 2.713240 1_555
Na15 O23 2.736605 1_555
Na15 O30 2.825964 1_655
Na15 O28 2.965022 1_655
Na16 O36 2.460135 1_545
Na16 O57 2.503855 1_555
Na16 O21 2.580206 1_555
Na16 O38 2.705434 1_555
Na16 O58 2.775374 1_555
Na16 O29 2.784347 1_545
Na16 O31 2.887993 1_545
Na16 O0 2.901770 1_555
Na17 O36 2.458601 1_655
Na17 O22 2.535128 1_555
Na17 O37 2.548224 1_565
Na17 O59 2.570816 1_555
Na17 O58 2.668063 1_555
Na17 O27 2.708409 1_555
Na17 O1 2.871838 1_555
Na18 O44 2.366812 1_555
Na18 O36 2.501520 1_655
Na18 O43 2.535285 1_665
Na18 O37 2.617783 1_565
Na18 O42 2.764609 1_565
Na18 O38 2.833300 1_665
Na19 O47 2.441803 1_555
Na19 O40 2.472107 1_544
Na19 O45 2.525663 1_445
Na19 O39 2.539059 1_554
Na19 O46 2.765363 1_455
Na19 O41 2.815043 1_444
Na20 O48 2.329046 1_555
Na20 O56 2.463239 1_555
Na20 O55 2.513585 1_555
Na20 O49 2.628750 1_555
Na20 O50 2.631582 1_555
Na20 O54 2.751695 1_555
Na21 O59 2.365668 1_555
Na21 O57 2.376421 1_555
Na21 O58 2.535719 1_555
Na21 O52 2.622441 1_555
Na21 O51 2.709823 1_555
Na21 O53 2.767716 1_555
Na22 O61 2.335020 1_555
Na22 O60 2.366224 1_555
Na22 O62 2.599286 1_555
Na22 O68 2.614291 1_555
Na22 O66 2.752846 1_555
Na22 O67 2.794932 1_555
Na23 O63 2.304490 1_555
Na23 O64 2.307159 1_555
Na23 O71 2.548514 1_555
Na23 O65 2.644162 1_555
Na23 O70 2.793516 1_555
Na23 O69 2.839481 1_555
Mg0 O37 1.972908 1_565
Mg0 O36 1.981193 1_655
Mg0 O1 2.127136 1_555
Mg0 O38 2.174616 1_665
Mg0 O2 2.178178 1_565
Mg0 O0 2.183405 1_665
Mg1 O5 1.980042 1_455
Mg1 O39 2.016693 1_555
Mg1 O3 2.080793 1_555
Mg1 O40 2.095898 1_545
Mg1 O4 2.215371 1_445
Mg1 O41 2.223985 1_445
Mg2 O6 1.995692 1_555
Mg2 O44 1.996400 1_555
Mg2 O43 2.037741 1_665
Mg2 O8 2.154423 1_655
Mg2 O42 2.160132 1_565
Mg2 O7 2.365508 1_665
Mg3 O45 2.000204 1_455
Mg3 O47 2.002790 1_565
Mg3 O11 2.095249 1_555
Mg3 O10 2.149909 1_565
Mg3 O46 2.172574 1_465
Mg3 O9 2.199923 1_455
Mg4 O13 1.909261 1_555
Mg4 O14 1.965709 1_555
Mg4 O12 2.087842 1_555
Mg4 O48 2.140577 1_555
Mg4 O49 2.304931 1_555
Mg4 O50 2.394531 1_555
Mg5 O15 1.903031 1_555
Mg5 O17 1.916137 1_555
Mg5 O16 2.098584 1_555
Mg5 O51 2.266867 1_555
Mg5 O53 2.284009 1_555
Mg5 O52 2.369663 1_555
Mg6 O25 1.942805 1_554
Mg6 O26 1.991942 1_554
Mg6 O61 2.007153 1_555
Mg6 O60 2.073213 1_555
Mg6 O24 2.244679 1_554
Mg6 O62 2.329305 1_555
Mg7 O27 1.952513 1_555
Mg7 O29 2.005512 1_555
Mg7 O63 2.022197 1_555
Mg7 O64 2.120072 1_555
Mg7 O28 2.302675 1_555
Mg7 O65 2.311843 1_555
Mg8 O30 1.934776 1_555
Mg8 O31 1.943505 1_555
Mg8 O32 2.068675 1_555
Mg8 O66 2.331648 1_555
Mg8 O67 2.426300 1_555
Mg8 O68 2.526728 1_555
O0 S0 1.479922 1_555
O1 S1 1.475699 1_555
O2 S2 1.478480 1_655
O3 S3 1.479197 1_555
O4 S4 1.475638 1_655
O5 Si0 1.617567 1_555
O6 Si0 1.616506 1_565
O7 S3 1.468174 1_555
O8 S4 1.468352 1_555
O9 S1 1.485708 1_555
O10 S2 1.484018 1_555
O11 S0 1.480042 1_565
O12 S5 1.477642 1_555
O13 Si1 1.615003 1_555
O14 Si2 1.625199 1_555
O15 Si3 1.616202 1_555
O16 S6 1.474063 1_555
O17 Si4 1.619748 1_555
O18 Si4 1.698750 1_555
O18 Sn0 2.001303 1_554
O19 Si3 1.709252 1_555
O19 Sn0 2.005781 1_554
O20 S6 1.519713 1_555
O20 Sn0 2.148433 1_554
O21 Si1 1.699322 1_555
O21 Sn1 2.002132 1_555
O22 Si2 1.689279 1_555
O22 Sn1 1.984488 1_555
O23 S5 1.517931 1_555
O23 Sn1 2.163084 1_555
O24 S7 1.465226 1_555
O25 Si5 1.592150 1_555
O26 Si6 1.597977 1_555
O27 Si7 1.607514 1_555
O28 S8 1.469731 1_555
O29 Si8 1.613744 1_555
O30 Si8 1.643227 1_555
O31 Si7 1.642558 1_555
O32 S8 1.489409 1_555
O33 Si5 1.706606 1_555
O33 Sn2 2.008153 1_555
O34 Si6 1.682472 1_555
O34 Sn2 1.986658 1_555
O35 S7 1.518379 1_555
O35 Sn2 2.156752 1_555
O36 Si8 1.645358 1_555
O37 Si7 1.635432 1_545
O38 S8 1.482504 1_555
O39 Si5 1.617483 1_555
O40 Si6 1.629582 1_555
O41 S7 1.459577 1_555
O42 S5 1.474712 1_555
O43 Si1 1.638918 1_555
O44 Si2 1.636718 1_555
O45 Si3 1.641021 1_555
O46 S6 1.479093 1_555
O47 Si4 1.638415 1_555
O48 Si0 1.653618 1_555
O49 S3 1.483716 1_555
O50 S4 1.484035 1_655
O51 S1 1.504267 1_555
O52 S2 1.507239 1_655
O53 S0 1.505736 1_555
O54 S7 1.505276 1_555
O54 Sn0 2.257061 1_555
O55 Si5 1.686123 1_655
O55 Sn0 2.087496 1_555
O56 Si6 1.687480 1_545
O56 Sn0 2.079382 1_555
O57 Si7 1.698811 1_545
O57 Sn1 2.058217 1_555
O58 S8 1.509962 1_555
O58 Sn1 2.306886 1_555
O59 Si8 1.696928 1_655
O59 Sn1 2.071283 1_555
O60 Si4 1.633453 1_555
O61 Si3 1.626670 1_455
O62 S6 1.469383 1_565
O63 Si1 1.628675 1_565
O64 Si2 1.636776 1_555
O65 S5 1.469974 1_455
O66 S0 1.499120 1_565
O67 S1 1.500828 1_555
O68 S2 1.497783 1_555
O69 S3 1.529982 1_555
O69 Sn2 2.285046 1_555
O70 S4 1.534478 1_555
O70 Sn2 2.206639 1_555
O71 Si0 1.758060 1_565
O71 Sn2 2.028306 1_555
