# generated using pymatgen
data_Rb4SnO3
_symmetry_space_group_name_H-M   'P 1'
_cell_length_a   10.27267432
_cell_length_b   10.27267432
_cell_length_c   6.94535893
_cell_angle_alpha   82.40735131
_cell_angle_beta   82.40735131
_cell_angle_gamma   142.10278705
_symmetry_Int_Tables_number   1
_chemical_formula_structural   Rb4SnO3
_chemical_formula_sum   'Rb8 Sn2 O6'
_cell_volume   411.24419391
_cell_formula_units_Z   2
loop_
 _symmetry_equiv_pos_site_id
 _symmetry_equiv_pos_as_xyz
  1  'x, y, z'
loop_
 _atom_site_type_symbol
 _atom_site_label
 _atom_site_symmetry_multiplicity
 _atom_site_fract_x
 _atom_site_fract_y
 _atom_site_fract_z
 _atom_site_occupancy
  Rb  Rb0  1  0.40442955  0.71913343  0.80740037  1
  Rb  Rb1  1  0.54350323  0.48628803  0.72213757  1
  Rb  Rb2  1  0.96532762  0.06336365  0.74356352  1
  Rb  Rb3  1  0.66456156  0.23436435  0.86845117  1
  Rb  Rb4  1  0.71913343  0.40442955  0.30740037  1
  Rb  Rb5  1  0.48628803  0.54350323  0.22213757  1
  Rb  Rb6  1  0.06336365  0.96532762  0.24356352  1
  Rb  Rb7  1  0.23436435  0.66456156  0.36845117  1
  Sn  Sn0  1  0.11815868  0.84320166  0.72500446  1
  Sn  Sn1  1  0.84320166  0.11815868  0.22500446  1
  O  O0  1  0.83609399  0.68897412  0.94586990  1
  O  O1  1  0.96190305  0.64874691  0.54539543  1
  O  O2  1  0.68897412  0.83609399  0.44586990  1
  O  O3  1  0.64874691  0.96190305  0.04539543  1
  O  O4  1  0.28829931  0.14527587  0.53486358  1
  O  O5  1  0.14527587  0.28829931  0.03486358  1
loop_
_geom_bond_atom_site_label_1
_geom_bond_atom_site_label_2
_geom_bond_distance
_geom_bond_site_symmetry_2
O0 Sn0 2.048682 1_655
O0 Rb5 2.787991 1_556
O0 Rb1 2.827780 1_555
O0 Rb4 2.830737 1_556
O0 Rb2 2.923896 1_565
O0 Rb6 3.186115 1_656
O1 Sn0 2.061585 1_655
O1 Rb4 2.749204 1_555
O1 Rb3 2.762052 1_555
O1 Rb7 2.773303 1_655
O1 Rb6 2.885955 1_655
O1 Rb1 3.083715 1_555
O2 Sn1 2.048682 1_565
O2 Rb1 2.787991 1_555
O2 Rb5 2.827780 1_555
O2 Rb0 2.830737 1_555
O2 Rb6 2.923896 1_655
O2 Rb2 3.186115 1_565
O3 Sn1 2.061585 1_565
O3 Rb0 2.749204 1_554
O3 Rb7 2.762052 1_555
O3 Rb3 2.773303 1_564
O3 Rb2 2.885955 1_564
O3 Rb5 3.083715 1_555
O4 Sn0 2.043406 1_545
O4 Rb4 2.759810 1_555
O4 Rb2 2.795989 1_455
O4 Rb6 2.886542 1_545
O4 Rb1 2.906450 1_555
O4 Rb5 2.990421 1_555
O5 Sn1 2.043406 1_455
O5 Rb0 2.759810 1_554
O5 Rb6 2.795989 1_545
O5 Rb2 2.886542 1_454
O5 Rb5 2.906450 1_555
O5 Rb1 2.990421 1_554
