# generated using pymatgen
data_Nb4Zn2P6(SO12)3
_symmetry_space_group_name_H-M   'P 1'
_cell_length_a   8.78798797
_cell_length_b   8.78798768
_cell_length_c   22.63056016
_cell_angle_alpha   90.00000000
_cell_angle_beta   90.00000000
_cell_angle_gamma   120.00000105
_symmetry_Int_Tables_number   1
_chemical_formula_structural   Nb4Zn2P6(SO12)3
_chemical_formula_sum   'Nb8 Zn4 P12 S6 O72'
_cell_volume   1513.57806149
_cell_formula_units_Z   2
loop_
 _symmetry_equiv_pos_site_id
 _symmetry_equiv_pos_as_xyz
  1  'x, y, z'
loop_
 _atom_site_type_symbol
 _atom_site_label
 _atom_site_symmetry_multiplicity
 _atom_site_fract_x
 _atom_site_fract_y
 _atom_site_fract_z
 _atom_site_occupancy
  Nb  Nb0  1  0.00000000  -0.00000000  0.64132538  1
  Nb  Nb1  1  0.00000000  -0.00000000  0.14132538  1
  Nb  Nb2  1  0.66666700  0.33333300  0.97553234  1
  Nb  Nb3  1  0.66666700  0.33333300  0.47553234  1
  Nb  Nb4  1  0.33333300  0.66666700  0.02270141  1
  Nb  Nb5  1  0.33333300  0.66666700  0.52270141  1
  Nb  Nb6  1  0.33333300  0.66666700  0.31157998  1
  Nb  Nb7  1  0.33333300  0.66666700  0.81157998  1
  Zn  Zn0  1  0.00000000  0.00000000  0.35839211  1
  Zn  Zn1  1  0.00000000  0.00000000  0.85839211  1
  Zn  Zn2  1  0.66666700  0.33333300  0.68379962  1
  Zn  Zn3  1  0.66666700  0.33333300  0.18379962  1
  P  P0  1  0.95114514  0.33568584  0.58458713  1
  P  P1  1  0.38454170  0.04885486  0.58458713  1
  P  P2  1  0.66431416  0.61545830  0.58458713  1
  P  P3  1  0.95114514  0.61545830  0.08458713  1
  P  P4  1  0.66431416  0.04885486  0.08458713  1
  P  P5  1  0.38454170  0.33568584  0.08458713  1
  P  P6  1  0.62356155  0.67092424  0.91638280  1
  P  P7  1  0.04736169  0.37643845  0.91638280  1
  P  P8  1  0.32907576  0.95263831  0.91638280  1
  P  P9  1  0.62356155  0.95263831  0.41638280  1
  P  P10  1  0.32907576  0.37643845  0.41638280  1
  P  P11  1  0.04736169  0.67092424  0.41638280  1
  S  S0  1  0.29067889  0.00501027  0.25100874  1
  S  S1  1  0.71433139  0.70932111  0.25100874  1
  S  S2  1  0.99498973  0.28566861  0.25100874  1
  S  S3  1  0.29067889  0.28566861  0.75100874  1
  S  S4  1  0.99498973  0.70932111  0.75100874  1
  S  S5  1  0.71433139  0.00501027  0.75100874  1
  O  O0  1  0.20753051  0.02717583  0.30299812  1
  O  O1  1  0.81964532  0.79246949  0.30299812  1
  O  O2  1  0.97282417  0.18035468  0.30299812  1
  O  O3  1  0.20753051  0.18035468  0.80299812  1
  O  O4  1  0.97282417  0.79246949  0.80299812  1
  O  O5  1  0.81964532  0.02717583  0.80299812  1
  O  O6  1  0.79533480  0.96933720  0.69680655  1
  O  O7  1  0.17400241  0.20466520  0.69680655  1
  O  O8  1  0.03066280  0.82599759  0.69680655  1
  O  O9  1  0.79533480  0.82599759  0.19680655  1
  O  O10  1  0.03066280  0.20466520  0.19680655  1
  O  O11  1  0.17400241  0.96933720  0.19680655  1
  O  O12  1  0.88045222  0.37038121  0.63951349  1
  O  O13  1  0.48992999  0.11954778  0.63951349  1
  O  O14  1  0.62961879  0.51007001  0.63951349  1
  O  O15  1  0.88045222  0.51007001  0.13951349  1
  O  O16  1  0.62961879  0.11954778  0.13951349  1
  O  O17  1  0.48992999  0.37038121  0.13951349  1
  O  O18  1  0.46470871  0.30081095  0.02859426  1
  O  O19  1  0.83610324  0.53529129  0.02859426  1
  O  O20  1  0.69918905  0.16389676  0.02859426  1
  O  O21  1  0.46470871  0.16389676  0.52859426  1
  O  O22  1  0.69918905  0.53529129  0.52859426  1
  O  O23  1  0.83610324  0.30081095  0.52859426  1
  O  O24  1  0.52752027  0.68989305  0.97103070  1
  O  O25  1  0.16237179  0.47247973  0.97103070  1
  O  O26  1  0.31010695  0.83762821  0.97103070  1
  O  O27  1  0.52752027  0.83762821  0.47103070  1
  O  O28  1  0.31010695  0.47247973  0.47103070  1
  O  O29  1  0.16237179  0.68989305  0.47103070  1
  O  O30  1  0.13503962  0.63348413  0.36165717  1
  O  O31  1  0.49844351  0.86496038  0.36165717  1
  O  O32  1  0.36651587  0.50155649  0.36165717  1
  O  O33  1  0.13503962  0.50155649  0.86165717  1
  O  O34  1  0.36651587  0.86496038  0.86165717  1
  O  O35  1  0.49844351  0.63348413  0.86165717  1
  O  O36  1  0.02653448  0.82658344  0.40833506  1
  O  O37  1  0.80004895  0.97346552  0.40833506  1
  O  O38  1  0.17341656  0.19995105  0.40833506  1
  O  O39  1  0.02653448  0.19995105  0.90833506  1
  O  O40  1  0.17341656  0.97346552  0.90833506  1
  O  O41  1  0.80004895  0.82658344  0.90833506  1
  O  O42  1  0.97539380  0.17014906  0.59378257  1
  O  O43  1  0.19475526  0.02460620  0.59378257  1
  O  O44  1  0.82985094  0.80524474  0.59378257  1
  O  O45  1  0.97539380  0.80524474  0.09378257  1
  O  O46  1  0.82985094  0.02460620  0.09378257  1
  O  O47  1  0.19475526  0.17014906  0.09378257  1
  O  O48  1  0.68685641  0.15192812  0.74128828  1
  O  O49  1  0.46507271  0.31314359  0.74128828  1
  O  O50  1  0.84807188  0.53492729  0.74128828  1
  O  O51  1  0.68685641  0.53492729  0.24128828  1
  O  O52  1  0.84807188  0.31314359  0.24128828  1
  O  O53  1  0.46507271  0.15192812  0.24128828  1
  O  O54  1  0.63249017  0.49904966  0.92686315  1
  O  O55  1  0.86656049  0.36750983  0.92686315  1
  O  O56  1  0.50095034  0.13343951  0.92686315  1
  O  O57  1  0.63249017  0.13343951  0.42686315  1
  O  O58  1  0.50095034  0.36750983  0.42686315  1
  O  O59  1  0.86656049  0.49904966  0.42686315  1
  O  O60  1  0.35228607  0.49087784  0.07131607  1
  O  O61  1  0.13859076  0.64771393  0.07131607  1
  O  O62  1  0.50912216  0.86140924  0.07131607  1
  O  O63  1  0.35228607  0.86140924  0.57131607  1
  O  O64  1  0.50912216  0.64771393  0.57131607  1
  O  O65  1  0.13859076  0.49087784  0.57131607  1
  O  O66  1  0.30278564  0.83725471  0.25805895  1
  O  O67  1  0.53446807  0.69721436  0.25805895  1
  O  O68  1  0.16274529  0.46553193  0.25805895  1
  O  O69  1  0.30278564  0.46553193  0.75805895  1
  O  O70  1  0.16274529  0.69721436  0.75805895  1
  O  O71  1  0.53446807  0.83725471  0.75805895  1
loop_
_geom_bond_atom_site_label_1
_geom_bond_atom_site_label_2
_geom_bond_distance
_geom_bond_site_symmetry_2
Nb0 O44 1.939981 1_445
Nb0 O42 1.939981 1_455
Nb0 O43 1.939981 1_555
Nb0 O7 2.097464 1_555
Nb0 O6 2.097464 1_445
Nb0 O8 2.097464 1_545
Nb1 O45 1.939981 1_445
Nb1 O47 1.939981 1_555
Nb1 O46 1.939981 1_455
Nb1 O10 2.097464 1_555
Nb1 O9 2.097464 1_445
Nb1 O11 2.097464 1_545
Nb2 O56 1.965087 1_555
Nb2 O54 1.965087 1_555
Nb2 O55 1.965087 1_555
Nb2 O19 2.041164 1_556
Nb2 O20 2.041164 1_556
Nb2 O18 2.041164 1_556
Nb3 O57 1.965087 1_555
Nb3 O59 1.965087 1_555
Nb3 O58 1.965087 1_555
Nb3 O22 2.041164 1_555
Nb3 O21 2.041164 1_555
Nb3 O23 2.041164 1_555
Nb4 O60 1.970266 1_555
Nb4 O62 1.970266 1_555
Nb4 O61 1.970266 1_555
Nb4 O26 1.993210 1_554
Nb4 O25 1.993210 1_554
Nb4 O24 1.993210 1_554
Nb5 O64 1.970266 1_555
Nb5 O65 1.970266 1_555
Nb5 O63 1.970266 1_555
Nb5 O29 1.993210 1_555
Nb5 O27 1.993210 1_555
Nb5 O28 1.993210 1_555
Nb6 O31 1.974295 1_555
Nb6 O32 1.974295 1_555
Nb6 O30 1.974295 1_555
Nb6 O68 2.046682 1_555
Nb6 O66 2.046682 1_555
Nb6 O67 2.046682 1_555
Nb7 O34 1.974295 1_555
Nb7 O33 1.974295 1_555
Nb7 O35 1.974295 1_555
Nb7 O69 2.046682 1_555
Nb7 O71 2.046682 1_555
Nb7 O70 2.046682 1_555
O0 S0 1.448612 1_555
O0 Zn0 2.125828 1_555
O1 S1 1.448612 1_555
O1 Zn0 2.125827 1_665
O2 S2 1.448612 1_555
O2 Zn0 2.125828 1_655
O3 S3 1.448612 1_555
O3 Zn1 2.125828 1_555
O4 S4 1.448612 1_555
O4 Zn1 2.125827 1_665
O5 S5 1.448612 1_555
O5 Zn1 2.125828 1_655
O6 S5 1.527349 1_565
O7 S3 1.527349 1_555
O8 S4 1.527349 1_455
O9 S1 1.527349 1_555
O10 S2 1.527349 1_455
O11 S0 1.527349 1_565
O12 P0 1.487757 1_555
O12 Zn2 2.007097 1_555
O13 P1 1.487757 1_555
O13 Zn2 2.007097 1_555
O14 P2 1.487757 1_555
O14 Zn2 2.007097 1_555
O15 P3 1.487757 1_555
O15 Zn3 2.007097 1_555
O16 P4 1.487757 1_555
O16 Zn3 2.007097 1_555
O17 P5 1.487757 1_555
O17 Zn3 2.007097 1_555
O18 P5 1.553012 1_555
O19 P3 1.553012 1_555
O20 P4 1.553012 1_555
O21 P1 1.553012 1_555
O22 P2 1.553012 1_555
O23 P0 1.553012 1_555
O24 P6 1.552512 1_555
O25 P7 1.552512 1_555
O26 P8 1.552512 1_555
O27 P9 1.552512 1_555
O28 P10 1.552512 1_555
O29 P11 1.552512 1_555
O30 P11 1.577743 1_555
O31 P9 1.577743 1_555
O32 P10 1.577743 1_555
O33 P7 1.577743 1_555
O34 P8 1.577743 1_555
O35 P6 1.577743 1_555
O36 P11 1.479282 1_555
O36 Zn0 2.002424 1_565
O37 P9 1.479291 1_555
O37 Zn0 2.002424 1_665
O38 P10 1.479287 1_555
O38 Zn0 2.002424 1_555
O39 P7 1.479291 1_555
O39 Zn1 2.002424 1_555
O40 P8 1.479282 1_555
O40 Zn1 2.002424 1_565
O41 P6 1.479287 1_555
O41 Zn1 2.002424 1_665
O42 P0 1.585865 1_555
O43 P1 1.585874 1_555
O44 P2 1.585871 1_555
O45 P3 1.585874 1_555
O46 P4 1.585865 1_555
O47 P5 1.585871 1_555
O48 S5 1.444091 1_555
O48 Zn2 2.132686 1_555
O49 S3 1.444099 1_555
O49 Zn2 2.132686 1_555
O50 S4 1.444096 1_555
O50 Zn2 2.132686 1_555
O51 S1 1.444099 1_555
O51 Zn3 2.132686 1_555
O52 S2 1.444091 1_555
O52 Zn3 2.132686 1_555
O53 S0 1.444096 1_555
O53 Zn3 2.132686 1_555
O54 P6 1.569181 1_555
O55 P7 1.569164 1_655
O56 P8 1.569172 1_545
O57 P9 1.569163 1_545
O58 P10 1.569181 1_555
O59 P11 1.569172 1_655
O60 P5 1.554723 1_555
O61 P3 1.554705 1_455
O62 P4 1.554712 1_565
O63 P1 1.554705 1_565
O64 P2 1.554723 1_555
O65 P0 1.554712 1_455
O66 S0 1.538503 1_565
O67 S1 1.538512 1_555
O68 S2 1.538508 1_455
O69 S3 1.538512 1_555
O70 S4 1.538503 1_455
O71 S5 1.538508 1_565
