# generated using pymatgen
data_CuHgSCl
_symmetry_space_group_name_H-M   'P 1'
_cell_length_a   4.05619700
_cell_length_b   9.98551700
_cell_length_c   18.39898100
_cell_angle_alpha   90.00000000
_cell_angle_beta   90.00000000
_cell_angle_gamma   90.00000000
_symmetry_Int_Tables_number   1
_chemical_formula_structural   CuHgSCl
_chemical_formula_sum   'Cu8 Hg8 S8 Cl8'
_cell_volume   745.21805063
_cell_formula_units_Z   8
loop_
 _symmetry_equiv_pos_site_id
 _symmetry_equiv_pos_as_xyz
  1  'x, y, z'
loop_
 _atom_site_type_symbol
 _atom_site_label
 _atom_site_symmetry_multiplicity
 _atom_site_fract_x
 _atom_site_fract_y
 _atom_site_fract_z
 _atom_site_occupancy
  Cu  Cu0  1  0.00000000  0.90126600  0.62273000  1
  Cu  Cu1  1  0.00000000  0.09873400  0.37727000  1
  Cu  Cu2  1  0.00000000  0.40126600  0.87727000  1
  Cu  Cu3  1  0.00000000  0.43618200  0.42773000  1
  Cu  Cu4  1  0.00000000  0.93618200  0.07227000  1
  Cu  Cu5  1  0.00000000  0.06381800  0.92773000  1
  Cu  Cu6  1  0.00000000  0.56381800  0.57227000  1
  Cu  Cu7  1  0.00000000  0.59873400  0.12273000  1
  Hg  Hg0  1  0.50000000  0.25761300  0.10789100  1
  Hg  Hg1  1  0.50000000  0.97542100  0.23539500  1
  Hg  Hg2  1  0.50000000  0.02457900  0.76460500  1
  Hg  Hg3  1  0.50000000  0.75761300  0.39210900  1
  Hg  Hg4  1  0.50000000  0.52457900  0.73539500  1
  Hg  Hg5  1  0.50000000  0.24238700  0.60789100  1
  Hg  Hg6  1  0.50000000  0.74238700  0.89210900  1
  Hg  Hg7  1  0.50000000  0.47542100  0.26460500  1
  S  S0  1  0.50000000  0.48710800  0.60414600  1
  S  S1  1  0.50000000  0.50372600  0.86699600  1
  S  S2  1  0.50000000  0.49627400  0.13300400  1
  S  S3  1  0.50000000  0.00372600  0.63300400  1
  S  S4  1  0.50000000  0.99627400  0.36699600  1
  S  S5  1  0.50000000  0.01289200  0.10414600  1
  S  S6  1  0.50000000  0.51289200  0.39585400  1
  S  S7  1  0.50000000  0.98710800  0.89585400  1
  Cl  Cl0  1  0.00000000  0.26774300  0.98354900  1
  Cl  Cl1  1  0.00000000  0.76774300  0.51645100  1
  Cl  Cl2  1  0.00000000  0.74972300  0.22530500  1
  Cl  Cl3  1  0.00000000  0.24972300  0.27469500  1
  Cl  Cl4  1  0.00000000  0.73225700  0.01645100  1
  Cl  Cl5  1  0.00000000  0.23225700  0.48354900  1
  Cl  Cl6  1  0.00000000  0.75027700  0.72530500  1
  Cl  Cl7  1  0.00000000  0.25027700  0.77469500  1
loop_
_geom_bond_atom_site_label_1
_geom_bond_atom_site_label_2
_geom_bond_distance
_geom_bond_site_symmetry_2
Cu0 S3 2.279404 1_565
Cu0 S3 2.279404 1_465
Cu1 S4 2.279404 1_445
Cu1 S4 2.279404 1_545
Cu2 S1 2.279404 1_455
Cu2 S1 2.279404 1_555
Cu3 S6 2.245860 1_555
Cu3 S6 2.245860 1_455
Cu4 S5 2.245860 1_565
Cu4 S5 2.245860 1_465
Cu5 S7 2.245860 1_445
Cu5 S7 2.245860 1_545
Cu6 S0 2.245860 1_555
Cu6 S0 2.245860 1_455
Cu7 S2 2.279404 1_555
Cu7 S2 2.279404 1_455
Hg0 S2 2.427532 1_555
Hg0 S5 2.444637 1_555
Hg1 S4 2.430261 1_555
Hg1 S5 2.443664 1_565
Hg2 S3 2.430261 1_555
Hg2 S7 2.443664 1_545
Hg3 S4 2.427532 1_555
Hg3 S6 2.444637 1_555
Hg4 S1 2.430261 1_555
Hg4 S0 2.443664 1_555
Hg5 S3 2.427532 1_555
Hg5 S0 2.444637 1_555
Hg6 S1 2.427532 1_555
Hg6 S7 2.444637 1_555
Hg7 S2 2.430261 1_555
Hg7 S6 2.443664 1_555
Cl0 Cu5 2.280627 1_555
Cl0 Cu2 2.366721 1_555
Cl0 Hg0 3.058969 1_456
Cl0 Hg0 3.058969 1_556
Cl1 Cu6 2.280627 1_555
Cl1 Cu0 2.366721 1_555
Cl1 Hg3 3.058969 1_555
Cl1 Hg3 3.058969 1_455
Cl2 Cu7 2.415570 1_555
Cl2 Hg1 3.037575 1_455
Cl2 Hg1 3.037575 1_555
Cl3 Cu1 2.415570 1_555
Cl3 Hg7 3.037575 1_555
Cl3 Hg7 3.037575 1_455
Cl4 Cu4 2.280627 1_555
Cl4 Cu7 2.366721 1_555
Cl4 Hg6 3.058969 1_554
Cl4 Hg6 3.058969 1_454
Cl5 Cu3 2.280627 1_555
Cl5 Cu1 2.366721 1_555
Cl5 Hg5 3.058969 1_455
Cl5 Hg5 3.058969 1_555
Cl6 Cu0 2.415570 1_555
Cl6 Hg4 3.037575 1_455
Cl6 Hg4 3.037575 1_555
Cl7 Cu2 2.415570 1_555
Cl7 Hg2 3.037575 1_455
Cl7 Hg2 3.037575 1_555
