# generated using pymatgen
data_Nd2MgCr2O8
_symmetry_space_group_name_H-M   'P 1'
_cell_length_a   6.35199608
_cell_length_b   6.19679893
_cell_length_c   6.33587933
_cell_angle_alpha   105.49460800
_cell_angle_beta   107.48980768
_cell_angle_gamma   117.37655321
_symmetry_Int_Tables_number   1
_chemical_formula_structural   Nd2MgCr2O8
_chemical_formula_sum   'Nd2 Mg1 Cr2 O8'
_cell_volume   185.46239240
_cell_formula_units_Z   1
loop_
 _symmetry_equiv_pos_site_id
 _symmetry_equiv_pos_as_xyz
  1  'x, y, z'
loop_
 _atom_site_type_symbol
 _atom_site_label
 _atom_site_symmetry_multiplicity
 _atom_site_fract_x
 _atom_site_fract_y
 _atom_site_fract_z
 _atom_site_occupancy
  Nd  Nd0  1  0.10775900  0.85947100  0.20793500  1
  Nd  Nd1  1  0.85277100  0.13488500  0.74785300  1
  Mg  Mg0  1  0.28423600  0.01961700  0.76956400  1
  Cr  Cr0  1  0.37944600  0.60571600  0.74355700  1
  Cr  Cr1  1  0.64346900  0.39679000  0.28239900  1
  O  O0  1  0.85993000  0.76075400  0.48606100  1
  O  O1  1  0.35584200  0.78810900  0.55766900  1
  O  O2  1  0.73707400  0.82505300  0.93383200  1
  O  O3  1  0.72925100  0.34501900  0.02943700  1
  O  O4  1  0.61101400  0.17768300  0.41756000  1
  O  O5  1  0.22232200  0.24230600  0.59215300  1
  O  O6  1  0.18439200  0.64472100  0.89119200  1
  O  O7  1  0.27207700  0.21029400  0.06995400  1
loop_
_geom_bond_atom_site_label_1
_geom_bond_atom_site_label_2
_geom_bond_distance
_geom_bond_site_symmetry_2
Nd0 O2 2.342649 1_454
Nd0 O6 2.406515 1_554
Nd0 O7 2.461094 1_565
Nd0 O4 2.474400 1_565
Nd0 O5 2.519043 1_565
Nd0 O3 2.571553 1_455
Nd0 O1 2.579623 1_555
Nd0 O0 2.704683 1_455
Nd1 O4 2.355286 1_555
Nd1 O3 2.456397 1_556
Nd1 O2 2.458959 1_545
Nd1 O1 2.474950 1_545
Nd1 O0 2.493190 1_545
Nd1 O6 2.537732 1_655
Nd1 O7 2.560423 1_656
Nd1 O5 2.689276 1_655
Mg0 O7 1.998788 1_556
Mg0 O1 2.001369 1_545
Mg0 O5 2.093949 1_555
Mg0 O0 2.153644 1_445
Mg0 O3 2.225744 1_556
Mg0 O6 2.507670 1_545
Cr0 O2 1.760680 1_555
Cr0 O5 1.786333 1_555
Cr0 O6 1.822001 1_555
Cr0 O1 1.856886 1_555
Cr1 O4 1.757644 1_555
Cr1 O0 1.780186 1_555
Cr1 O3 1.838356 1_555
Cr1 O7 1.861593 1_555
