# generated using pymatgen
data_Na14Ca5Zr3Si6(SO8)6
_symmetry_space_group_name_H-M   'P 1'
_cell_length_a   18.87242983
_cell_length_b   9.43978119
_cell_length_c   22.95633474
_cell_angle_alpha   90.03253523
_cell_angle_beta   89.98573257
_cell_angle_gamma   119.94678668
_symmetry_Int_Tables_number   1
_chemical_formula_structural   Na14Ca5Zr3Si6(SO8)6
_chemical_formula_sum   'Na42 Ca15 Zr9 Si18 S18 O144'
_cell_volume   3543.68802751
_cell_formula_units_Z   3
loop_
 _symmetry_equiv_pos_site_id
 _symmetry_equiv_pos_as_xyz
  1  'x, y, z'
loop_
 _atom_site_type_symbol
 _atom_site_label
 _atom_site_symmetry_multiplicity
 _atom_site_fract_x
 _atom_site_fract_y
 _atom_site_fract_z
 _atom_site_occupancy
  Na  Na0  1  0.19545770  0.35481681  0.24394093  1
  Na  Na1  1  0.69089205  0.35217744  0.24239040  1
  Na  Na2  1  0.99376868  0.64892918  0.25410962  1
  Na  Na3  1  0.49236281  0.63746338  0.23870148  1
  Na  Na4  1  0.31659601  0.63347775  0.74767520  1
  Na  Na5  1  0.81408444  0.62498462  0.73287399  1
  Na  Na6  1  0.18921585  0.03420576  0.74401975  1
  Na  Na7  1  0.69148825  0.03294338  0.74395423  1
  Na  Na8  1  0.15462449  0.31975478  0.57417921  1
  Na  Na9  1  0.67360339  0.35400291  0.57517406  1
  Na  Na10  1  0.00923660  0.70285844  0.57916153  1
  Na  Na11  1  0.51855292  0.70291094  0.58205707  1
  Na  Na12  1  0.31927406  0.97474746  0.59615693  1
  Na  Na13  1  0.81892499  0.95535132  0.59284511  1
  Na  Na14  1  0.15804443  0.98251207  0.07505057  1
  Na  Na15  1  0.64662224  0.96305801  0.06976286  1
  Na  Na16  1  0.81519164  0.65945659  0.09444956  1
  Na  Na17  1  0.01828816  0.33278530  0.07969226  1
  Na  Na18  1  0.52320602  0.35695673  0.08952585  1
  Na  Na19  1  0.49814333  0.68751736  0.92463278  1
  Na  Na20  1  0.99532023  0.68777218  0.91736128  1
  Na  Na21  1  0.84360214  0.03309096  0.90199329  1
  Na  Na22  1  0.16351812  0.27796994  0.90318179  1
  Na  Na23  1  0.66253017  0.27112325  0.91306906  1
  Na  Na24  1  0.49754647  0.30970880  0.41786946  1
  Na  Na25  1  0.99199730  0.30071103  0.42179043  1
  Na  Na26  1  0.16318698  0.05648419  0.41326538  1
  Na  Na27  1  0.66579800  0.05802453  0.41319517  1
  Na  Na28  1  0.34743541  0.65263131  0.40172071  1
  Na  Na29  1  0.84675906  0.65248036  0.41584815  1
  Na  Na30  1  0.00789700  0.00059971  0.50314561  1
  Na  Na31  1  0.52401544  0.02962626  0.49799359  1
  Na  Na32  1  0.01507900  0.01034544  0.99656210  1
  Na  Na33  1  0.50723235  0.99807138  0.00177515  1
  Na  Na34  1  0.32967403  0.28982106  0.82809373  1
  Na  Na35  1  0.82208387  0.30141934  0.82419458  1
  Na  Na36  1  0.31994797  0.32516167  0.32333059  1
  Na  Na37  1  0.81367775  0.32125446  0.32655405  1
  Na  Na38  1  0.19098526  0.67536489  0.16375078  1
  Na  Na39  1  0.66136137  0.66491230  0.16054561  1
  Na  Na40  1  0.16175259  0.67074307  0.66626374  1
  Na  Na41  1  0.67521017  0.67358454  0.66010183  1
  Ca  Ca0  1  0.00140439  0.00025039  0.34686463  1
  Ca  Ca1  1  0.50146386  0.99883655  0.34466716  1
  Ca  Ca2  1  0.00327939  0.01074061  0.84471393  1
  Ca  Ca3  1  0.50018640  0.00888508  0.84975358  1
  Ca  Ca4  1  0.33106581  0.32221769  0.68400468  1
  Ca  Ca5  1  0.83019976  0.32643212  0.68148803  1
  Ca  Ca6  1  0.33085701  0.33558765  0.18232396  1
  Ca  Ca7  1  0.82744576  0.32351702  0.18324769  1
  Ca  Ca8  1  0.81982436  0.31524586  0.98414530  1
  Ca  Ca9  1  0.32155460  0.32441303  0.48348907  1
  Ca  Ca10  1  0.82297943  0.33705687  0.48775792  1
  Ca  Ca11  1  0.17226244  0.67112211  0.01635493  1
  Ca  Ca12  1  0.66473564  0.66709860  0.01594710  1
  Ca  Ca13  1  0.16692939  0.66652581  0.51546278  1
  Ca  Ca14  1  0.67025077  0.66686124  0.51652246  1
  Zr  Zr0  1  0.00006133  0.01070245  0.65395118  1
  Zr  Zr1  1  0.50539058  0.02313077  0.65679770  1
  Zr  Zr2  1  0.00500023  0.99388611  0.15518547  1
  Zr  Zr3  1  0.49997898  0.97458113  0.15008972  1
  Zr  Zr4  1  0.32515430  0.32898692  0.98644420  1
  Zr  Zr5  1  0.17689384  0.67268036  0.31117820  1
  Zr  Zr6  1  0.67540986  0.66900733  0.30968810  1
  Zr  Zr7  1  0.17282628  0.68282220  0.81227798  1
  Zr  Zr8  1  0.66984963  0.67641067  0.81092743  1
  Si  Si0  1  0.15272217  0.99266601  0.25533072  1
  Si  Si1  1  0.65021470  0.99092840  0.25381572  1
  Si  Si2  1  0.35090944  0.70025942  0.25507666  1
  Si  Si3  1  0.85127866  0.69861109  0.25212503  1
  Si  Si4  1  0.15245380  0.31167394  0.75280718  1
  Si  Si5  1  0.65334689  0.30897944  0.75689408  1
  Si  Si6  1  0.34942644  0.99764470  0.75004279  1
  Si  Si7  1  0.84928785  0.00175553  0.75585749  1
  Si  Si8  1  0.17614830  0.02074461  0.58470737  1
  Si  Si9  1  0.67273789  0.02196633  0.58497977  1
  Si  Si10  1  0.83944426  0.65158175  0.58516727  1
  Si  Si11  1  0.48146761  0.63029617  0.08387080  1
  Si  Si12  1  0.17582443  0.32658300  0.08802169  1
  Si  Si13  1  0.67548092  0.32722298  0.08536110  1
  Si  Si14  1  0.16715886  0.96825827  0.92095774  1
  Si  Si15  1  0.66683760  0.96805566  0.91685405  1
  Si  Si16  1  0.16539327  0.36752116  0.41797356  1
  Si  Si17  1  0.66449451  0.36527038  0.41667986  1
  S  S0  1  0.00465373  0.30453570  0.24991033  1
  S  S1  1  0.50283885  0.30390994  0.25147997  1
  S  S2  1  0.00359351  0.70547265  0.75190342  1
  S  S3  1  0.50279685  0.70823467  0.75083342  1
  S  S4  1  0.48230793  0.32666583  0.58185980  1
  S  S5  1  0.98466854  0.33027533  0.58235743  1
  S  S6  1  0.33886735  0.64604180  0.58472389  1
  S  S7  1  0.98410537  0.63887089  0.08390410  1
  S  S8  1  0.33557629  0.04187304  0.08371047  1
  S  S9  1  0.84209899  0.03455915  0.08257413  1
  S  S10  1  0.31417693  0.65573133  0.91529215  1
  S  S11  1  0.81576421  0.66662552  0.91627930  1
  S  S12  1  0.01955318  0.37724292  0.91772452  1
  S  S13  1  0.51546100  0.37471240  0.91738650  1
  S  S14  1  0.31550233  0.96535586  0.41690976  1
  S  S15  1  0.81495028  0.96665416  0.41544325  1
  S  S16  1  0.01792807  0.66118415  0.41478767  1
  S  S17  1  0.51801792  0.66268842  0.41673908  1
  O  O0  1  0.11146721  0.01775000  0.31270774  1
  O  O1  1  0.61291276  0.02050208  0.31248291  1
  O  O2  1  0.39140787  0.77558410  0.31689426  1
  O  O3  1  0.89821065  0.78038020  0.31155686  1
  O  O4  1  0.49496346  0.21695818  0.30637282  1
  O  O5  1  0.99196300  0.21301348  0.30371183  1
  O  O6  1  0.11871921  0.20081364  0.81070350  1
  O  O7  1  0.61467536  0.19649834  0.81318536  1
  O  O8  1  0.49206649  0.77599693  0.80510959  1
  O  O9  1  0.99283970  0.77400298  0.80642483  1
  O  O10  1  0.39693106  0.98621743  0.80476992  1
  O  O11  1  0.89079885  0.00244149  0.81675242  1
  O  O12  1  0.39202375  0.97221900  0.68866511  1
  O  O13  1  0.89983807  0.97585527  0.70044105  1
  O  O14  1  0.09235765  0.20940339  0.69611058  1
  O  O15  1  0.59248717  0.20792928  0.69844679  1
  O  O16  1  0.01580777  0.81823985  0.70154241  1
  O  O17  1  0.51440032  0.82158357  0.70011589  1
  O  O18  1  0.40272841  0.82592973  0.20068620  1
  O  O19  1  0.90083751  0.81897595  0.19380462  1
  O  O20  1  0.01401602  0.21177713  0.19880288  1
  O  O21  1  0.51163244  0.21636055  0.20045470  1
  O  O22  1  0.08785332  0.96964750  0.19808688  1
  O  O23  1  0.58661016  0.96484220  0.19674241  1
  O  O24  1  0.44049116  0.35011749  0.63153424  1
  O  O25  1  0.94195171  0.34950590  0.63177000  1
  O  O26  1  0.23848965  0.10749550  0.63881603  1
  O  O27  1  0.73090568  0.10456226  0.64101147  1
  O  O28  1  0.33100231  0.54796735  0.63674021  1
  O  O29  1  0.83001251  0.54061968  0.64152759  1
  O  O30  1  0.44558850  0.52272040  0.14170634  1
  O  O31  1  0.94457201  0.53808684  0.13549287  1
  O  O32  1  0.32324146  0.11439936  0.13573250  1
  O  O33  1  0.83307917  0.12049503  0.13248275  1
  O  O34  1  0.22176609  0.33732918  0.14727756  1
  O  O35  1  0.73637638  0.36072665  0.14008347  1
  O  O36  1  0.22847138  0.30259663  0.03106552  1
  O  O37  1  0.70908836  0.28396281  0.02557168  1
  O  O38  1  0.42123994  0.52736133  0.02546692  1
  O  O39  1  0.93659842  0.56286520  0.03015458  1
  O  O40  1  0.34187936  0.14639843  0.03108558  1
  O  O41  1  0.85528547  0.13063630  0.02828534  1
  O  O42  1  0.21115130  0.12745638  0.52434680  1
  O  O43  1  0.70661483  0.13382808  0.52573511  1
  O  O44  1  0.34973315  0.56874483  0.53176717  1
  O  O45  1  0.86058037  0.58232619  0.52566458  1
  O  O46  1  0.43576884  0.30208179  0.52718264  1
  O  O47  1  0.93994851  0.30877976  0.52681435  1
  O  O48  1  0.27518247  0.67459036  0.96682703  1
  O  O49  1  0.77774322  0.68079974  0.97023140  1
  O  O50  1  0.06375782  0.44718056  0.97298630  1
  O  O51  1  0.56047770  0.44591800  0.97180003  1
  O  O52  1  0.15484985  0.86615199  0.98008559  1
  O  O53  1  0.66475453  0.87578044  0.97644087  1
  O  O54  1  0.27764771  0.87629784  0.47095757  1
  O  O55  1  0.77718330  0.87871253  0.46977398  1
  O  O56  1  0.16037188  0.44943114  0.47875066  1
  O  O57  1  0.65513915  0.44525940  0.47644836  1
  O  O58  1  0.06503392  0.67950798  0.46826298  1
  O  O59  1  0.56396220  0.67978904  0.47080596  1
  O  O60  1  0.06535389  0.65820167  0.36243457  1
  O  O61  1  0.56469722  0.65584460  0.36495861  1
  O  O62  1  0.26040056  0.87019990  0.36621238  1
  O  O63  1  0.76061700  0.87058546  0.36483567  1
  O  O64  1  0.16854196  0.49179097  0.36262871  1
  O  O65  1  0.66776088  0.48835921  0.36095797  1
  O  O66  1  0.06940924  0.48278875  0.86798718  1
  O  O67  1  0.56197902  0.48254047  0.86700727  1
  O  O68  1  0.17375788  0.86135495  0.86373832  1
  O  O69  1  0.66901331  0.85141257  0.86080815  1
  O  O70  1  0.26374938  0.64025100  0.86191290  1
  O  O71  1  0.76206511  0.65241309  0.86507854  1
  O  O72  1  0.00368954  0.80228316  0.41275945  1
  O  O73  1  0.50420904  0.80465837  0.41406898  1
  O  O74  1  0.39724742  0.98215102  0.41154676  1
  O  O75  1  0.89681369  0.98224961  0.41075050  1
  O  O76  1  0.08170363  0.18713185  0.41598372  1
  O  O77  1  0.58167271  0.18351254  0.41420308  1
  O  O78  1  0.00717200  0.20894749  0.91317400  1
  O  O79  1  0.50457056  0.20969856  0.91199264  1
  O  O80  1  0.08512345  0.98709329  0.91577786  1
  O  O81  1  0.58256166  0.97922453  0.91703762  1
  O  O82  1  0.39932280  0.78725052  0.91065986  1
  O  O83  1  0.89870026  0.81291612  0.91178360  1
  O  O84  1  0.48704811  0.17085011  0.58960713  1
  O  O85  1  0.99134346  0.17707113  0.58901888  1
  O  O86  1  0.08563438  0.01177263  0.59437285  1
  O  O87  1  0.57783892  0.00426405  0.59382685  1
  O  O88  1  0.41361514  0.81332589  0.58922436  1
  O  O89  1  0.92059472  0.84109343  0.59335676  1
  O  O90  1  0.48711575  0.81456286  0.08519941  1
  O  O91  1  0.98776395  0.80396036  0.08903512  1
  O  O92  1  0.41332089  0.03773638  0.08528225  1
  O  O93  1  0.91823912  0.02026764  0.08960679  1
  O  O94  1  0.08430855  0.14735568  0.08629170  1
  O  O95  1  0.58107581  0.16451783  0.09532950  1
  O  O96  1  0.33136361  0.14746360  0.74918493  1
  O  O97  1  0.83161070  0.15041587  0.74933723  1
  O  O98  1  0.24649352  0.35113248  0.74432166  1
  O  O99  1  0.74547370  0.34122336  0.74852985  1
  O  O100  1  0.43184601  0.54768007  0.73999640  1
  O  O101  1  0.93438636  0.54250921  0.74261636  1
  O  O102  1  0.34099701  0.51987471  0.24964032  1
  O  O103  1  0.84457049  0.52065647  0.24656254  1
  O  O104  1  0.43476356  0.33663719  0.24620745  1
  O  O105  1  0.93894756  0.34013531  0.23979031  1
  O  O106  1  0.24165775  0.14850148  0.24681090  1
  O  O107  1  0.73971257  0.14832578  0.24524827  1
  O  O108  1  0.31403073  0.49376651  0.91835661  1
  O  O109  1  0.82372832  0.51731862  0.91613506  1
  O  O110  1  0.43387490  0.36914241  0.91896099  1
  O  O111  1  0.93931156  0.37188615  0.91748500  1
  O  O112  1  0.25103927  0.15649068  0.92199149  1
  O  O113  1  0.75192255  0.14568614  0.90903744  1
  O  O114  1  0.32257406  0.12931264  0.41567332  1
  O  O115  1  0.82299203  0.13140219  0.41452785  1
  O  O116  1  0.25055110  0.35984052  0.41020956  1
  O  O117  1  0.75003493  0.35901203  0.41064528  1
  O  O118  1  0.43743216  0.50685444  0.41770176  1
  O  O119  1  0.93874856  0.50378466  0.41494499  1
  O  O120  1  0.15658887  0.47508394  0.08014253  1
  O  O121  1  0.66756122  0.49288740  0.08232114  1
  O  O122  1  0.06904105  0.66928456  0.08085111  1
  O  O123  1  0.57535653  0.66853402  0.07811525  1
  O  O124  1  0.26355685  0.87624980  0.07708017  1
  O  O125  1  0.77021536  0.86710543  0.07932888  1
  O  O126  1  0.15962787  0.83170561  0.58340749  1
  O  O127  1  0.65611104  0.83425966  0.58140744  1
  O  O128  1  0.26484621  0.66462709  0.58130506  1
  O  O129  1  0.75701534  0.66925032  0.58324054  1
  O  O130  1  0.06931277  0.47243945  0.58078197  1
  O  O131  1  0.56643508  0.46695650  0.57955847  1
  O  O132  1  0.14551794  0.80808955  0.25552846  1
  O  O133  1  0.64647998  0.80971964  0.25579612  1
  O  O134  1  0.25555938  0.67647392  0.25233203  1
  O  O135  1  0.75640276  0.67406334  0.25156155  1
  O  O136  1  0.08467778  0.46512855  0.25188285  1
  O  O137  1  0.58194361  0.46980241  0.25291033  1
  O  O138  1  0.15575833  0.49168267  0.75908261  1
  O  O139  1  0.65589300  0.48755055  0.75823283  1
  O  O140  1  0.08282462  0.70089964  0.75426569  1
  O  O141  1  0.58039771  0.69917729  0.75218770  1
  O  O142  1  0.25486355  0.82304315  0.75179412  1
  O  O143  1  0.75639893  0.82322860  0.75367778  1
loop_
_geom_bond_atom_site_label_1
_geom_bond_atom_site_label_2
_geom_bond_distance
_geom_bond_site_symmetry_2
Na0 O34 2.297554 1_555
Na0 O102 2.390875 1_555
Na0 O106 2.500628 1_555
Na0 O134 2.665363 1_555
Na0 O136 2.767980 1_555
Na1 O35 2.487830 1_555
Na1 O107 2.515256 1_555
Na1 O103 2.518924 1_555
Na1 O135 2.655998 1_555
Na1 O137 2.792426 1_555
Na2 O103 2.453687 1_555
Na2 O132 2.482799 1_655
Na2 O105 2.581374 1_555
Na2 O60 2.810709 1_655
Na2 O31 2.898226 1_555
Na2 O22 2.934086 1_655
Na2 O3 2.960132 1_555
Na2 O136 2.988033 1_655
Na3 O30 2.440096 1_555
Na3 O104 2.488767 1_555
Na3 O102 2.507935 1_555
Na3 O133 2.556517 1_555
Na3 O137 2.853364 1_555
Na3 O23 2.855967 1_555
Na4 O98 2.310690 1_555
Na4 O142 2.578683 1_555
Na4 O138 2.649048 1_555
Na4 O100 2.678856 1_555
Na4 O28 2.725326 1_555
Na4 O70 2.817508 1_555
Na5 O29 2.314889 1_555
Na5 O99 2.349243 1_555
Na5 O143 2.635923 1_555
Na5 O139 2.658572 1_555
Na5 O101 2.752462 1_555
Na5 O13 2.965519 1_555
Na6 O96 2.343147 1_555
Na6 O26 2.556270 1_555
Na6 O98 2.624910 1_555
Na6 O140 2.771214 1_545
Na6 O142 2.829541 1_545
Na6 O6 2.944880 1_555
Na6 O16 3.025791 1_545
Na7 O97 2.304417 1_555
Na7 O27 2.468590 1_555
Na7 O99 2.560719 1_555
Na7 O141 2.786319 1_545
Na7 O143 2.809169 1_545
Na8 O56 2.485903 1_555
Na8 O86 2.566016 1_555
Na8 O130 2.647459 1_555
Na8 O85 2.698534 1_455
Na8 O42 2.769892 1_555
Na8 O128 2.861937 1_555
Na8 O14 3.013389 1_555
Na9 O57 2.510438 1_555
Na9 O129 2.586624 1_555
Na9 O43 2.699207 1_555
Na9 O131 2.718545 1_555
Na9 O87 2.897139 1_555
Na10 O126 2.469401 1_555
Na10 O86 2.550630 1_565
Na10 O89 2.605039 1_455
Na10 O45 2.736206 1_455
Na10 O58 2.805075 1_555
Na10 O130 2.912073 1_555
Na10 O16 2.992715 1_555
Na11 O127 2.250203 1_555
Na11 O87 2.497754 1_565
Na11 O59 2.736710 1_555
Na11 O131 2.791120 1_555
Na12 O12 2.535687 1_555
Na12 O128 2.595814 1_555
Na12 O26 2.599806 1_565
Na12 O126 2.631504 1_555
Na12 O84 2.760989 1_565
Na12 O88 2.868007 1_555
Na12 O54 3.001761 1_555
Na13 O129 2.357270 1_555
Na13 O89 2.628931 1_555
Na13 O127 2.703776 1_555
Na13 O13 2.859452 1_555
Na13 O85 2.859558 1_565
Na13 O27 2.880837 1_565
Na13 O55 2.925040 1_555
Na14 O52 2.427753 1_554
Na14 O94 2.566277 1_565
Na14 O122 2.573632 1_555
Na14 O124 2.639671 1_555
Na14 O91 2.804197 1_455
Na14 O36 2.812302 1_565
Na15 O53 2.380036 1_554
Na15 O123 2.417149 1_555
Na15 O90 2.634274 1_555
Na15 O95 2.799708 1_565
Na15 O37 2.834233 1_565
Na15 O125 2.901553 1_555
Na16 O121 2.436916 1_555
Na16 O125 2.518977 1_555
Na16 O35 2.660232 1_555
Na16 O19 2.765896 1_555
Na16 O91 2.836867 1_555
Na16 O93 2.963495 1_565
Na16 O49 2.969088 1_554
Na17 O120 2.261981 1_555
Na17 O93 2.599864 1_455
Na17 O94 2.610972 1_555
Na17 O50 2.641914 1_554
Na17 O122 2.823199 1_555
Na17 O41 2.938685 1_455
Na17 O20 2.949483 1_555
Na18 O121 2.367643 1_555
Na18 O95 2.547865 1_555
Na18 O123 2.607431 1_555
Na18 O92 2.674179 1_555
Na18 O51 2.813481 1_554
Na18 O21 2.829852 1_555
Na18 O30 2.883501 1_555
Na19 O81 2.402420 1_555
Na19 O82 2.494198 1_555
Na19 O110 2.623111 1_555
Na19 O38 2.749894 1_556
Na19 O8 2.887502 1_555
Na20 O80 2.465027 1_655
Na20 O111 2.619571 1_555
Na20 O83 2.624471 1_555
Na20 O9 2.681585 1_555
Na20 O109 2.806152 1_555
Na20 O39 2.832039 1_556
Na21 O11 2.227555 1_555
Na21 O113 2.446469 1_555
Na21 O78 2.689724 1_655
Na21 O83 2.758603 1_545
Na21 O111 2.801582 1_555
Na21 O69 3.008257 1_545
Na21 O41 3.016034 1_556
Na22 O6 2.266407 1_555
Na22 O80 2.399336 1_545
Na22 O112 2.474201 1_555
Na22 O108 2.561697 1_555
Na22 O78 2.695142 1_555
Na23 O81 2.393097 1_545
Na23 O7 2.435896 1_555
Na23 O113 2.500203 1_555
Na23 O37 2.711321 1_556
Na23 O79 2.738235 1_555
Na23 O109 2.757206 1_555
Na24 O77 2.415572 1_555
Na24 O118 2.618857 1_555
Na24 O4 2.697254 1_555
Na24 O74 2.705754 1_545
Na24 O46 2.752576 1_555
Na24 O114 2.862242 1_555
Na24 O57 2.914069 1_555
Na25 O76 2.417731 1_655
Na25 O119 2.575483 1_555
Na25 O47 2.618539 1_555
Na25 O75 2.633672 1_545
Na25 O115 2.768727 1_555
Na25 O5 2.833704 1_555
Na26 O76 2.404792 1_555
Na26 O0 2.461531 1_555
Na26 O116 2.491985 1_555
Na26 O42 2.676675 1_555
Na26 O114 2.731169 1_555
Na26 O72 2.758171 1_545
Na27 O77 2.408737 1_555
Na27 O117 2.468602 1_555
Na27 O1 2.472680 1_555
Na27 O43 2.688584 1_555
Na27 O115 2.688879 1_555
Na27 O73 2.781847 1_545
Na28 O2 2.206333 1_555
Na28 O116 2.444419 1_555
Na28 O73 2.579637 1_555
Na28 O118 2.692095 1_555
Na28 O74 2.773128 1_555
Na29 O117 2.443728 1_555
Na29 O72 2.568034 1_655
Na29 O3 2.638968 1_555
Na29 O45 2.652666 1_555
Na29 O119 2.723502 1_555
Na29 O75 2.767843 1_555
Na30 O86 2.529058 1_555
Na30 O76 2.568708 1_555
Na30 O89 2.606813 1_445
Na30 O85 2.697104 1_455
Na30 O72 2.768311 1_545
Na30 O75 2.926270 1_445
Na31 O77 2.327696 1_555
Na31 O87 2.484664 1_555
Na31 O73 2.750377 1_545
Na31 O84 2.758928 1_555
Na31 O88 2.941369 1_545
Na31 O74 2.965413 1_545
Na32 O80 2.350071 1_545
Na32 O94 2.435988 1_556
Na32 O78 2.735874 1_555
Na32 O91 2.751227 1_446
Na32 O83 2.827770 1_445
Na32 O93 2.842532 1_456
Na33 O81 2.467292 1_554
Na33 O90 2.481814 1_555
Na33 O95 2.614355 1_565
Na33 O92 2.759777 1_565
Na33 O79 2.889004 1_564
Na33 O82 2.904142 1_554
Na34 O96 2.264562 1_555
Na34 O112 2.563105 1_555
Na34 O110 2.703580 1_555
Na34 O98 2.721668 1_555
Na34 O108 2.941054 1_555
Na34 O100 3.008451 1_555
Na35 O97 2.295695 1_555
Na35 O113 2.401340 1_555
Na35 O99 2.406879 1_555
Na35 O101 2.892350 1_555
Na35 O111 2.907749 1_555
Na35 O109 2.922547 1_555
Na36 O106 2.363838 1_555
Na36 O102 2.381627 1_555
Na36 O116 2.495231 1_555
Na36 O104 2.757802 1_555
Na36 O114 2.830223 1_555
Na36 O118 2.958472 1_555
Na37 O117 2.392004 1_555
Na37 O107 2.412443 1_555
Na37 O103 2.482495 1_555
Na37 O115 2.764086 1_555
Na37 O119 2.931826 1_555
Na37 O105 3.027458 1_555
Na38 O134 2.368304 1_555
Na38 O120 2.539852 1_555
Na38 O124 2.615413 1_555
Na38 O132 2.795430 1_555
Na38 O136 2.843298 1_555
Na38 O122 2.965050 1_555
Na39 O121 2.462043 1_555
Na39 O123 2.504693 1_555
Na39 O133 2.666129 1_555
Na39 O137 2.716861 1_555
Na39 O125 2.725221 1_555
Na39 O135 2.727125 1_555
Na40 O126 2.447934 1_555
Na40 O142 2.546805 1_555
Na40 O140 2.608113 1_555
Na40 O130 2.671245 1_555
Na40 O138 2.687596 1_555
Na40 O128 2.775383 1_555
Na41 O129 2.357988 1_555
Na41 O127 2.498648 1_555
Na41 O143 2.606726 1_555
Na41 O131 2.727191 1_555
Na41 O139 2.767047 1_555
Na41 O141 2.856228 1_555
Ca0 O0 2.147894 1_555
Ca0 O3 2.172754 1_445
Ca0 O76 2.292437 1_555
Ca0 O5 2.325200 1_455
Ca0 O75 2.395814 1_445
Ca0 O72 2.422009 1_545
Ca1 O1 2.140454 1_565
Ca1 O2 2.188795 1_555
Ca1 O77 2.289548 1_565
Ca1 O4 2.298201 1_565
Ca1 O74 2.437178 1_555
Ca1 O73 2.449299 1_555
Ca2 O6 2.161796 1_555
Ca2 O11 2.181502 1_455
Ca2 O9 2.315988 1_445
Ca2 O80 2.332997 1_545
Ca2 O78 2.415686 1_555
Ca2 O83 2.464796 1_445
Ca3 O10 2.119899 1_545
Ca3 O7 2.165669 1_555
Ca3 O81 2.305922 1_545
Ca3 O79 2.341385 1_555
Ca3 O8 2.359665 1_545
Ca3 O82 2.445703 1_545
Ca4 O26 2.167937 1_555
Ca4 O96 2.229870 1_555
Ca4 O98 2.229951 1_555
Ca4 O24 2.289343 1_555
Ca4 O28 2.392430 1_555
Ca4 O100 2.399168 1_555
Ca5 O27 2.200393 1_555
Ca5 O29 2.222339 1_555
Ca5 O99 2.272952 1_555
Ca5 O97 2.287931 1_555
Ca5 O25 2.310535 1_555
Ca5 O101 2.447404 1_555
Ca6 O30 2.204628 1_555
Ca6 O34 2.218306 1_555
Ca6 O102 2.261796 1_555
Ca6 O106 2.275492 1_555
Ca6 O32 2.285209 1_555
Ca6 O104 2.445042 1_555
Ca7 O35 2.159431 1_555
Ca7 O107 2.184014 1_555
Ca7 O103 2.253195 1_555
Ca7 O33 2.289791 1_555
Ca7 O31 2.392031 1_555
Ca7 O105 2.410210 1_555
Ca8 O37 2.177678 1_556
Ca8 O113 2.264314 1_555
Ca8 O41 2.382915 1_556
Ca8 O109 2.438162 1_555
Ca8 O39 2.508271 1_556
Ca8 O111 2.551110 1_555
Ca9 O42 2.193435 1_555
Ca9 O116 2.277397 1_555
Ca9 O44 2.367187 1_555
Ca9 O114 2.418260 1_555
Ca9 O46 2.480259 1_555
Ca9 O118 2.504075 1_555
Ca10 O45 2.231379 1_555
Ca10 O43 2.248982 1_555
Ca10 O117 2.314793 1_555
Ca10 O47 2.517479 1_555
Ca10 O115 2.567414 1_555
Ca10 O119 2.571503 1_555
Ca11 O52 2.190105 1_554
Ca11 O48 2.236509 1_554
Ca11 O120 2.261122 1_555
Ca11 O124 2.308378 1_555
Ca11 O50 2.308683 1_554
Ca11 O122 2.439708 1_555
Ca12 O53 2.168958 1_554
Ca12 O123 2.214463 1_555
Ca12 O121 2.262607 1_555
Ca12 O51 2.270442 1_554
Ca12 O49 2.321697 1_554
Ca12 O125 2.427009 1_555
Ca13 O56 2.161066 1_555
Ca13 O126 2.257163 1_555
Ca13 O58 2.263520 1_555
Ca13 O54 2.280646 1_555
Ca13 O130 2.372976 1_555
Ca13 O128 2.394635 1_555
Ca14 O57 2.169309 1_555
Ca14 O129 2.234262 1_555
Ca14 O55 2.279407 1_555
Ca14 O127 2.281460 1_555
Ca14 O59 2.320696 1_555
Ca14 O131 2.409171 1_555
O0 Si0 1.606356 1_545
O1 Si1 1.607066 1_545
O2 Si2 1.600132 1_555
O3 Si3 1.599548 1_555
O4 S1 1.470729 1_555
O5 S0 1.457287 1_655
O6 Si4 1.613360 1_555
O7 Si5 1.599173 1_555
O8 S3 1.459775 1_555
O9 S2 1.468417 1_655
O10 Si6 1.578304 1_555
O11 Si7 1.601075 1_555
O12 Si6 1.697314 1_555
O12 Zr1 2.077662 1_565
O13 Si7 1.679346 1_565
O13 Zr0 2.050125 1_665
O14 Si4 1.678839 1_555
O14 Zr0 2.055680 1_555
O15 Si5 1.713138 1_555
O15 Zr1 1.948128 1_555
O16 S2 1.509685 1_555
O16 Zr0 2.263658 1_565
O17 S3 1.521759 1_555
O17 Zr1 2.227724 1_565
O18 Si2 1.662982 1_555
O18 Zr3 2.028842 1_555
O19 Si3 1.702448 1_555
O19 Zr2 2.033910 1_655
O20 S0 1.525653 1_555
O20 Zr2 2.215962 1_545
O21 S1 1.489417 1_555
O21 Zr3 2.467841 1_545
O22 Si0 1.734282 1_555
O22 Zr2 1.955885 1_555
O23 Si1 1.709808 1_555
O23 Zr3 1.994873 1_555
O24 S4 1.464887 1_555
O25 S5 1.454302 1_555
O26 Si8 1.623390 1_555
O27 Si9 1.616340 1_555
O28 S6 1.472751 1_555
O29 Si10 1.618059 1_555
O30 Si11 1.602206 1_555
O31 S7 1.468496 1_555
O32 S8 1.451606 1_555
O33 S9 1.461655 1_555
O34 Si12 1.589044 1_555
O35 Si13 1.623661 1_555
O36 Si12 1.723850 1_555
O36 Zr4 1.996545 1_554
O37 Si13 1.646343 1_555
O38 Si11 1.711813 1_555
O38 Zr4 2.050879 1_554
O39 S7 1.482705 1_555
O40 S8 1.526848 1_555
O40 Zr4 2.160084 1_554
O41 S9 1.487772 1_555
O42 Si8 1.645575 1_555
O43 Si9 1.643371 1_555
O44 S6 1.483451 1_555
O45 Si10 1.646645 1_555
O46 S4 1.482394 1_555
O47 S5 1.486111 1_555
O48 S10 1.450177 1_555
O49 S11 1.470371 1_555
O50 S12 1.480166 1_555
O51 S13 1.470837 1_555
O52 Si14 1.613443 1_555
O53 Si15 1.612006 1_555
O54 S14 1.468906 1_555
O55 S15 1.470630 1_555
O56 Si16 1.620290 1_555
O57 Si17 1.617308 1_555
O58 S16 1.474454 1_555
O59 S17 1.476134 1_555
O60 S16 1.506945 1_555
O60 Zr5 2.355008 1_555
O61 S17 1.499815 1_555
O61 Zr6 2.393874 1_555
O62 S14 1.519727 1_555
O62 Zr5 2.149633 1_555
O63 S15 1.514775 1_555
O63 Zr6 2.180077 1_555
O64 Si16 1.710530 1_555
O64 Zr5 2.017204 1_555
O65 Si17 1.708888 1_555
O65 Zr6 2.017546 1_555
O66 S12 1.498822 1_555
O66 Zr7 2.309196 1_555
O67 S13 1.501001 1_555
O67 Zr8 2.330817 1_555
O68 Si14 1.697993 1_555
O68 Zr7 2.050442 1_555
O69 Si15 1.706734 1_555
O69 Zr8 2.016027 1_555
O70 S10 1.513335 1_555
O70 Zr7 2.257037 1_555
O71 S11 1.513683 1_555
O71 Zr8 2.240624 1_555
O72 S16 1.485216 1_555
O73 S17 1.488796 1_555
O74 S14 1.475140 1_555
O75 S15 1.480892 1_555
O76 Si16 1.646541 1_555
O77 Si17 1.647000 1_555
O78 S12 1.489496 1_555
O79 S13 1.471103 1_555
O80 Si14 1.648527 1_555
O81 Si15 1.645665 1_555
O82 S10 1.463932 1_555
O83 S11 1.486483 1_555
O84 S4 1.527991 1_555
O84 Zr1 2.219928 1_555
O85 S5 1.520835 1_555
O85 Zr0 2.230729 1_655
O86 Si8 1.682202 1_555
O86 Zr0 2.112218 1_555
O87 Si9 1.725636 1_555
O87 Zr1 2.057354 1_555
O88 S6 1.506702 1_555
O88 Zr1 2.429351 1_565
O89 Si10 1.686884 1_555
O89 Zr0 2.085370 1_665
O90 Si11 1.689012 1_555
O90 Zr3 2.047245 1_555
O91 S7 1.529590 1_555
O91 Zr2 2.245239 1_655
O92 S8 1.487555 1_555
O92 Zr3 2.493822 1_545
O93 S9 1.517489 1_555
O93 Zr2 2.327705 1_645
O94 Si12 1.711592 1_555
O94 Zr2 2.162607 1_545
O95 Si13 1.689321 1_555
O95 Zr3 2.097453 1_545
O96 Si6 1.611857 1_545
O97 Si7 1.603335 1_555
O98 Si4 1.632901 1_555
O99 Si5 1.619873 1_555
O100 S3 1.457905 1_555
O101 S2 1.453141 1_655
O102 Si2 1.622286 1_555
O103 Si3 1.625323 1_555
O104 S1 1.468691 1_555
O105 S0 1.456320 1_655
O106 Si0 1.598266 1_545
O107 Si1 1.610518 1_545
O108 S10 1.529196 1_555
O108 Zr4 2.288151 1_555
O109 S11 1.490158 1_555
O110 S13 1.514589 1_555
O110 Zr4 2.444617 1_555
O111 S12 1.489768 1_655
O112 Si14 1.689815 1_545
O112 Zr4 2.126376 1_555
O113 Si15 1.653572 1_545
O114 S14 1.485888 1_545
O115 S15 1.485418 1_545
O116 Si16 1.654112 1_555
O117 Si17 1.650431 1_555
O118 S17 1.497938 1_555
O119 S16 1.491285 1_655
O120 Si12 1.624187 1_555
O121 Si13 1.645078 1_555
O122 S7 1.482318 1_455
O123 Si11 1.627514 1_555
O124 S8 1.480930 1_565
O125 S9 1.484448 1_565
O126 Si8 1.651351 1_565
O127 Si9 1.639997 1_565
O128 S6 1.494387 1_555
O129 Si10 1.645861 1_555
O130 S5 1.487884 1_455
O131 S4 1.475861 1_555
O132 Si0 1.678638 1_555
O132 Zr5 2.091520 1_555
O133 Si1 1.677141 1_555
O133 Zr6 2.078287 1_555
O134 Si2 1.699762 1_555
O134 Zr5 1.994050 1_555
O135 Si3 1.686907 1_555
O135 Zr6 2.011333 1_555
O136 S0 1.514992 1_555
O136 Zr5 2.305251 1_555
O137 S1 1.532322 1_555
O137 Zr6 2.243467 1_555
O138 Si4 1.675110 1_555
O138 Zr7 2.065915 1_555
O139 Si5 1.662473 1_555
O139 Zr8 2.059112 1_555
O140 S2 1.518277 1_555
O140 Zr7 2.231260 1_555
O141 S3 1.509346 1_555
O141 Zr8 2.253469 1_555
O142 Si6 1.722334 1_555
O142 Zr7 2.007982 1_555
O143 Si7 1.722243 1_565
O143 Zr8 2.014171 1_555
