# generated using pymatgen
data_MgCo3BiO8
_symmetry_space_group_name_H-M   'P 1'
_cell_length_a   5.77331443
_cell_length_b   5.81766575
_cell_length_c   6.52435468
_cell_angle_alpha   63.83043273
_cell_angle_beta   116.29329069
_cell_angle_gamma   120.17675698
_symmetry_Int_Tables_number   1
_chemical_formula_structural   MgCo3BiO8
_chemical_formula_sum   'Mg1 Co3 Bi1 O8'
_cell_volume   162.95766324
_cell_formula_units_Z   1
loop_
 _symmetry_equiv_pos_site_id
 _symmetry_equiv_pos_as_xyz
  1  'x, y, z'
loop_
 _atom_site_type_symbol
 _atom_site_label
 _atom_site_symmetry_multiplicity
 _atom_site_fract_x
 _atom_site_fract_y
 _atom_site_fract_z
 _atom_site_occupancy
  Mg  Mg0  1  0.00000000  0.00000000  0.00000000  1
  Co  Co0  1  0.50000000  0.50000000  0.00000000  1
  Co  Co1  1  0.50000000  0.00000000  0.00000000  1
  Co  Co2  1  0.00000000  0.50000000  0.00000000  1
  Bi  Bi0  1  0.50000000  0.50000000  0.50000000  1
  O  O0  1  0.76741600  0.70763000  0.81695800  1
  O  O1  1  0.76143100  0.23613500  0.81788100  1
  O  O2  1  0.27248000  0.72113600  0.83059000  1
  O  O3  1  0.29493000  0.23237700  0.81999600  1
  O  O4  1  0.70507000  0.76762300  0.18000400  1
  O  O5  1  0.72752000  0.27886400  0.16941000  1
  O  O6  1  0.23856900  0.76386500  0.18211900  1
  O  O7  1  0.23258400  0.29237000  0.18304200  1
loop_
_geom_bond_atom_site_label_1
_geom_bond_atom_site_label_2
_geom_bond_distance
_geom_bond_site_symmetry_2
Mg0 O4 2.040369 1_445
Mg0 O3 2.040369 1_554
Mg0 O0 2.048716 1_444
Mg0 O7 2.048716 1_555
Mg0 O1 2.051497 1_454
Mg0 O6 2.051497 1_545
Co0 O3 1.932061 1_554
Co0 O4 1.932061 1_555
Co0 O0 1.937785 1_554
Co0 O7 1.937785 1_555
Co0 O5 1.939212 1_555
Co0 O2 1.939212 1_554
Co1 O4 1.893515 1_545
Co1 O3 1.893515 1_554
Co1 O6 1.908304 1_545
Co1 O1 1.908304 1_554
Co1 O2 1.931860 1_544
Co1 O5 1.931860 1_555
Co2 O2 1.898153 1_554
Co2 O5 1.898153 1_455
Co2 O0 1.904175 1_454
Co2 O7 1.904175 1_555
Co2 O6 1.923211 1_555
Co2 O1 1.923211 1_454
Bi0 O0 2.370449 1_555
Bi0 O7 2.370449 1_555
Bi0 O3 2.377825 1_555
Bi0 O4 2.377825 1_555
Bi0 O1 2.384057 1_555
Bi0 O6 2.384057 1_555
