# generated using pymatgen
data_LiNb(PO3)4
_symmetry_space_group_name_H-M   'P 1'
_cell_length_a   7.40469329
_cell_length_b   7.40469329
_cell_length_c   10.22509347
_cell_angle_alpha   66.33694650
_cell_angle_beta   66.33694650
_cell_angle_gamma   69.78342031
_symmetry_Int_Tables_number   1
_chemical_formula_structural   LiNb(PO3)4
_chemical_formula_sum   'Li2 Nb2 P8 O24'
_cell_volume   458.81187925
_cell_formula_units_Z   2
loop_
 _symmetry_equiv_pos_site_id
 _symmetry_equiv_pos_as_xyz
  1  'x, y, z'
loop_
 _atom_site_type_symbol
 _atom_site_label
 _atom_site_symmetry_multiplicity
 _atom_site_fract_x
 _atom_site_fract_y
 _atom_site_fract_z
 _atom_site_occupancy
  Li  Li0  1  0.00000000  0.50000000  0.50000000  1
  Li  Li1  1  0.50000000  0.00000000  0.00000000  1
  Nb  Nb0  1  0.94341300  0.05658700  0.75000000  1
  Nb  Nb1  1  0.05658700  0.94341300  0.25000000  1
  P  P0  1  0.25852300  0.72356600  0.97726600  1
  P  P1  1  0.74147700  0.27643400  0.02273400  1
  P  P2  1  0.31054700  0.29521800  0.69868000  1
  P  P3  1  0.29521800  0.31054700  0.19868000  1
  P  P4  1  0.70478200  0.68945300  0.80132000  1
  P  P5  1  0.72356600  0.25852300  0.47726600  1
  P  P6  1  0.27643400  0.74147700  0.52273400  1
  P  P7  1  0.68945300  0.70478200  0.30132000  1
  O  O0  1  0.77416900  0.50112600  0.93732500  1
  O  O1  1  0.87390400  0.71895000  0.32429000  1
  O  O2  1  0.50112600  0.77416900  0.43732500  1
  O  O3  1  0.80886600  0.28183900  0.58159200  1
  O  O4  1  0.16197100  0.90564300  0.59433800  1
  O  O5  1  0.71816100  0.19113400  0.91840800  1
  O  O6  1  0.19113400  0.71816100  0.41840800  1
  O  O7  1  0.09435700  0.83802900  0.90566200  1
  O  O8  1  0.46654100  0.69377900  0.84753500  1
  O  O9  1  0.28105000  0.12609600  0.17571000  1
  O  O10  1  0.71895000  0.87390400  0.82429000  1
  O  O11  1  0.22583100  0.49887400  0.06267500  1
  O  O12  1  0.19267400  0.34959600  0.34429000  1
  O  O13  1  0.83802900  0.09435700  0.40566200  1
  O  O14  1  0.69377900  0.46654100  0.34753500  1
  O  O15  1  0.30622100  0.53345900  0.65246500  1
  O  O16  1  0.34959600  0.19267400  0.84429000  1
  O  O17  1  0.65040400  0.80732600  0.15571000  1
  O  O18  1  0.49887400  0.22583100  0.56267500  1
  O  O19  1  0.80732600  0.65040400  0.65571000  1
  O  O20  1  0.28183900  0.80886600  0.08159200  1
  O  O21  1  0.12609600  0.28105000  0.67571000  1
  O  O22  1  0.53345900  0.30622100  0.15246500  1
  O  O23  1  0.90564300  0.16197100  0.09433800  1
loop_
_geom_bond_atom_site_label_1
_geom_bond_atom_site_label_2
_geom_bond_distance
_geom_bond_site_symmetry_2
Li0 O19 2.076664 1_455
Li0 O12 2.076664 1_555
Li0 O1 2.165736 1_455
Li0 O21 2.165736 1_555
Li0 O3 2.204345 1_455
Li0 O6 2.204345 1_555
Li1 O16 2.076664 1_554
Li1 O17 2.076664 1_545
Li1 O9 2.165736 1_555
Li1 O10 2.165736 1_544
Li1 O5 2.204345 1_554
Li1 O20 2.204345 1_545
Nb0 O7 2.124116 1_645
Nb0 O4 2.124116 1_645
Nb0 O5 2.159378 1_555
Nb0 O3 2.159378 1_555
Nb0 O10 2.210195 1_545
Nb0 O21 2.210195 1_655
Nb1 O13 2.124116 1_465
Nb1 O23 2.124116 1_465
Nb1 O20 2.159378 1_555
Nb1 O6 2.159378 1_555
Nb1 O1 2.210195 1_455
Nb1 O9 2.210195 1_565
O0 P1 1.591146 1_556
O0 P4 1.632247 1_555
O1 P7 1.519177 1_555
O2 P6 1.591146 1_555
O2 P7 1.632247 1_555
O3 P5 1.526678 1_555
O4 P6 1.495433 1_555
O5 P1 1.526678 1_556
O6 P6 1.526678 1_555
O7 P0 1.495433 1_555
O8 P0 1.593973 1_555
O8 P4 1.624904 1_555
O9 P3 1.519177 1_555
O10 P4 1.519177 1_555
O11 P0 1.591146 1_554
O11 P3 1.632247 1_555
O12 P3 1.470801 1_555
O13 P5 1.495433 1_555
O14 P5 1.593973 1_555
O14 P7 1.624904 1_555
O15 P6 1.593973 1_555
O15 P2 1.624904 1_555
O16 P2 1.470801 1_555
O17 P7 1.470801 1_555
O18 P5 1.591146 1_555
O18 P2 1.632247 1_555
O19 P4 1.470801 1_555
O20 P0 1.526678 1_554
O21 P2 1.519177 1_555
O22 P1 1.593973 1_555
O22 P3 1.624904 1_555
O23 P1 1.495433 1_555
