# generated using pymatgen
data_Na2TaGa3P4(SO12)2
_symmetry_space_group_name_H-M   'P 1'
_cell_length_a   8.57128869
_cell_length_b   8.56620046
_cell_length_c   22.29747626
_cell_angle_alpha   89.93981567
_cell_angle_beta   89.85078699
_cell_angle_gamma   119.94830547
_symmetry_Int_Tables_number   1
_chemical_formula_structural   Na2TaGa3P4(SO12)2
_chemical_formula_sum   'Na6 Ta3 Ga9 P12 S6 O72'
_cell_volume   1418.54663927
_cell_formula_units_Z   3
loop_
 _symmetry_equiv_pos_site_id
 _symmetry_equiv_pos_as_xyz
  1  'x, y, z'
loop_
 _atom_site_type_symbol
 _atom_site_label
 _atom_site_symmetry_multiplicity
 _atom_site_fract_x
 _atom_site_fract_y
 _atom_site_fract_z
 _atom_site_occupancy
  Na  Na0  1  0.99575977  0.99472540  0.49957449  1
  Na  Na1  1  0.00405800  0.00016912  0.99840341  1
  Na  Na2  1  0.66657188  0.33224486  0.82908616  1
  Na  Na3  1  0.67618783  0.33766388  0.33207603  1
  Na  Na4  1  0.32981586  0.65788872  0.16029839  1
  Na  Na5  1  0.33375823  0.66652145  0.66546333  1
  Ta  Ta0  1  0.66441370  0.33969411  0.97858939  1
  Ta  Ta1  1  0.33102308  0.66626843  0.31160037  1
  Ta  Ta2  1  0.33255925  0.66707275  0.81080381  1
  Ga  Ga0  1  0.97921170  0.98790606  0.35153462  1
  Ga  Ga1  1  0.00048999  0.99985513  0.85161407  1
  Ga  Ga2  1  0.00070610  0.00044252  0.65430458  1
  Ga  Ga3  1  0.99864388  0.00193168  0.14550385  1
  Ga  Ga4  1  0.66682460  0.33418485  0.68975861  1
  Ga  Ga5  1  0.67931245  0.35189120  0.18416794  1
  Ga  Ga6  1  0.67562667  0.33303583  0.48008566  1
  Ga  Ga7  1  0.32472200  0.65654931  0.01767916  1
  Ga  Ga8  1  0.33449500  0.67690267  0.51655797  1
  P  P0  1  0.71806995  0.71109695  0.24848932  1
  P  P1  1  0.99048485  0.27763167  0.24907235  1
  P  P2  1  0.28784921  0.28149752  0.74896216  1
  P  P3  1  0.99333608  0.71223378  0.74896661  1
  P  P4  1  0.71893795  0.00666490  0.74897204  1
  P  P5  1  0.96427649  0.63009383  0.08499523  1
  P  P6  1  0.37309948  0.33375565  0.08662168  1
  P  P7  1  0.62460026  0.67792599  0.91814363  1
  P  P8  1  0.04645019  0.37117878  0.91762507  1
  P  P9  1  0.32584954  0.95057736  0.91867888  1
  P  P10  1  0.62521452  0.95948154  0.41923675  1
  P  P11  1  0.04027787  0.67050561  0.41888200  1
  S  S0  1  0.28955318  0.00770968  0.24983424  1
  S  S1  1  0.95957623  0.33298056  0.58326359  1
  S  S2  1  0.37666138  0.04534376  0.58306517  1
  S  S3  1  0.66581586  0.62296020  0.58251104  1
  S  S4  1  0.66456799  0.04189176  0.08499273  1
  S  S5  1  0.33228796  0.37294516  0.41872433  1
  O  O0  1  0.21084266  0.03227877  0.30498526  1
  O  O1  1  0.82614734  0.78602234  0.30608363  1
  O  O2  1  0.96863968  0.17318993  0.30721646  1
  O  O3  1  0.20839497  0.17204822  0.80562526  1
  O  O4  1  0.96343455  0.79134812  0.80568599  1
  O  O5  1  0.82763607  0.03592564  0.80551513  1
  O  O6  1  0.78785364  0.96271532  0.69147545  1
  O  O7  1  0.17538991  0.21283116  0.69166497  1
  O  O8  1  0.03779677  0.82501854  0.69147421  1
  O  O9  1  0.79307687  0.82848967  0.19304725  1
  O  O10  1  0.03705776  0.20675815  0.19341851  1
  O  O11  1  0.17930772  0.96641127  0.19620189  1
  O  O12  1  0.87827871  0.36525687  0.63682145  1
  O  O13  1  0.48836758  0.12581254  0.63680576  1
  O  O14  1  0.63538983  0.51167346  0.63666260  1
  O  O15  1  0.88366663  0.51076843  0.14034872  1
  O  O16  1  0.63601246  0.12367237  0.13895066  1
  O  O17  1  0.49033564  0.36122622  0.14155955  1
  O  O18  1  0.46587966  0.30507955  0.02916733  1
  O  O19  1  0.84063874  0.53362198  0.02871798  1
  O  O20  1  0.69218166  0.15569558  0.03002460  1
  O  O21  1  0.45783026  0.15479053  0.52804091  1
  O  O22  1  0.69471536  0.54122180  0.52766121  1
  O  O23  1  0.84961257  0.30209943  0.52839552  1
  O  O24  1  0.53956390  0.70167176  0.97438213  1
  O  O25  1  0.15673230  0.45316201  0.97356721  1
  O  O26  1  0.30092185  0.83964401  0.97441484  1
  O  O27  1  0.54308899  0.83984558  0.47450892  1
  O  O28  1  0.30063421  0.45445070  0.47212664  1
  O  O29  1  0.15571858  0.69922964  0.47436003  1
  O  O30  1  0.13210997  0.63776234  0.36231584  1
  O  O31  1  0.50493770  0.86523374  0.36252067  1
  O  O32  1  0.36226032  0.48868051  0.36351847  1
  O  O33  1  0.12988281  0.49364282  0.86130657  1
  O  O34  1  0.36303215  0.86821281  0.86162757  1
  O  O35  1  0.50489062  0.63792419  0.86155379  1
  O  O36  1  0.02918962  0.84139553  0.40923792  1
  O  O37  1  0.81215118  0.98025335  0.41167793  1
  O  O38  1  0.17315529  0.19594269  0.41016335  1
  O  O39  1  0.02214442  0.18563386  0.90931919  1
  O  O40  1  0.16522314  0.97629969  0.91023731  1
  O  O41  1  0.81192916  0.83609977  0.91011344  1
  O  O42  1  0.97749256  0.17033208  0.58890282  1
  O  O43  1  0.19514157  0.02562761  0.58836060  1
  O  O44  1  0.82803252  0.80403859  0.58786422  1
  O  O45  1  0.97168195  0.81202285  0.08926857  1
  O  O46  1  0.83021117  0.03017772  0.08777854  1
  O  O47  1  0.18831151  0.16193943  0.08955955  1
  O  O48  1  0.69008982  0.16867041  0.74188363  1
  O  O49  1  0.47842636  0.30995167  0.74196670  1
  O  O50  1  0.83160880  0.52164739  0.74205205  1
  O  O51  1  0.68544419  0.51871016  0.24384083  1
  O  O52  1  0.82676726  0.30361463  0.24301611  1
  O  O53  1  0.47215554  0.16025446  0.24378208  1
  O  O54  1  0.63842029  0.50089092  0.92349066  1
  O  O55  1  0.85765017  0.35762705  0.92435994  1
  O  O56  1  0.50181753  0.13963665  0.92464836  1
  O  O57  1  0.63439971  0.14301775  0.42355639  1
  O  O58  1  0.49768848  0.36220436  0.42314620  1
  O  O59  1  0.85416063  0.49926753  0.42332427  1
  O  O60  1  0.36081398  0.50434741  0.07779414  1
  O  O61  1  0.14982095  0.64864916  0.07656157  1
  O  O62  1  0.50480152  0.86407279  0.07815314  1
  O  O63  1  0.35917500  0.86256707  0.57786587  1
  O  O64  1  0.50018480  0.63891062  0.57652290  1
  O  O65  1  0.14155809  0.49715639  0.57646352  1
  O  O66  1  0.30804971  0.83847229  0.25708003  1
  O  O67  1  0.52514486  0.69199225  0.25862347  1
  O  O68  1  0.16347149  0.47309309  0.25890573  1
  O  O69  1  0.30921271  0.47458852  0.75693568  1
  O  O70  1  0.16518449  0.69122310  0.75675801  1
  O  O71  1  0.52594013  0.83483251  0.75689363  1
loop_
_geom_bond_atom_site_label_1
_geom_bond_atom_site_label_2
_geom_bond_distance
_geom_bond_site_symmetry_2
Na0 O37 2.480922 1_555
Na0 O36 2.498579 1_655
Na0 O44 2.498877 1_555
Na0 O43 2.544974 1_665
Na0 O42 2.548424 1_565
Na0 O38 2.572513 1_665
Na1 O40 2.466467 1_545
Na1 O39 2.497909 1_555
Na1 O41 2.504916 1_445
Na1 O45 2.514592 1_446
Na1 O47 2.526518 1_556
Na1 O46 2.574085 1_456
Na2 O48 2.463818 1_555
Na2 O50 2.467200 1_555
Na2 O49 2.473903 1_555
Na2 O55 2.627945 1_555
Na2 O56 2.628184 1_555
Na2 O54 2.632108 1_555
Na3 O52 2.461311 1_555
Na3 O51 2.480362 1_555
Na3 O59 2.509313 1_555
Na3 O57 2.542029 1_555
Na3 O53 2.571865 1_555
Na3 O58 2.610425 1_555
Na4 O60 2.352919 1_555
Na4 O61 2.401248 1_555
Na4 O62 2.461284 1_555
Na4 O68 2.663808 1_555
Na4 O67 2.688328 1_555
Na4 O66 2.716196 1_555
Na5 O63 2.511640 1_555
Na5 O64 2.519287 1_555
Na5 O65 2.528569 1_555
Na5 O69 2.559840 1_555
Na5 O70 2.562650 1_555
Na5 O71 2.569188 1_555
Ga0 O1 1.866635 1_555
Ga0 O2 1.909090 1_565
Ga0 O37 1.936283 1_555
Ga0 O36 1.987544 1_655
Ga0 O0 2.097253 1_665
Ga0 O38 2.169466 1_665
Ga1 O3 1.940542 1_565
Ga1 O4 1.943952 1_455
Ga1 O5 1.952294 1_465
Ga1 O39 1.983238 1_565
Ga1 O41 2.000716 1_455
Ga1 O40 2.009118 1_555
Ga2 O8 1.876663 1_545
Ga2 O6 1.876901 1_445
Ga2 O7 1.880350 1_555
Ga2 O42 2.137825 1_455
Ga2 O43 2.147927 1_555
Ga2 O44 2.178596 1_445
Ga3 O10 1.938393 1_655
Ga3 O9 1.951666 1_545
Ga3 O47 1.959259 1_655
Ga3 O45 1.975496 1_545
Ga3 O46 2.038938 1_555
Ga3 O11 2.060881 1_645
Ga4 O49 1.913343 1_555
Ga4 O48 1.918563 1_555
Ga4 O50 1.918637 1_555
Ga4 O14 2.047620 1_555
Ga4 O13 2.051263 1_555
Ga4 O12 2.062902 1_555
Ga5 O15 1.866303 1_555
Ga5 O17 1.915687 1_555
Ga5 O51 1.935088 1_555
Ga5 O52 2.004879 1_555
Ga5 O16 2.063453 1_555
Ga5 O53 2.165030 1_555
Ga6 O59 1.944665 1_555
Ga6 O57 1.948200 1_555
Ga6 O23 1.963884 1_555
Ga6 O22 2.011475 1_555
Ga6 O21 2.024824 1_555
Ga6 O58 2.095316 1_555
Ga7 O25 1.892728 1_554
Ga7 O26 1.936361 1_554
Ga7 O24 1.936940 1_554
Ga7 O61 1.965709 1_555
Ga7 O60 1.998367 1_555
Ga7 O62 2.153397 1_555
Ga8 O27 1.876387 1_555
Ga8 O29 1.889368 1_555
Ga8 O63 2.028084 1_555
Ga8 O28 2.037203 1_555
Ga8 O65 2.081262 1_555
Ga8 O64 2.093085 1_555
O0 S0 1.466176 1_555
O1 P0 1.527603 1_555
O2 P1 1.531457 1_555
O3 P2 1.514806 1_555
O4 P3 1.515907 1_555
O5 P4 1.514600 1_555
O6 P4 1.534068 1_565
O7 P2 1.532724 1_555
O8 P3 1.532727 1_455
O9 P0 1.516760 1_555
O10 P1 1.519492 1_455
O11 S0 1.456425 1_565
O12 S1 1.475417 1_555
O13 S2 1.475302 1_555
O14 S3 1.477308 1_555
O15 P5 1.527524 1_555
O16 S4 1.472963 1_555
O17 P6 1.528600 1_555
O18 P6 1.588817 1_555
O18 Ta0 1.934176 1_554
O19 P5 1.585972 1_555
O19 Ta0 1.948827 1_554
O20 S4 1.508047 1_555
O20 Ta0 2.056321 1_554
O21 S2 1.486672 1_555
O22 S3 1.490225 1_555
O23 S1 1.487562 1_555
O24 P7 1.512908 1_555
O25 P8 1.512556 1_555
O26 P9 1.512142 1_555
O27 P10 1.528795 1_555
O28 S5 1.472459 1_555
O29 P11 1.527663 1_555
O30 P11 1.582740 1_555
O30 Ta1 1.954207 1_555
O31 P10 1.578549 1_555
O31 Ta1 1.972894 1_555
O32 S5 1.518430 1_555
O32 Ta1 2.032393 1_555
O33 P8 1.559606 1_555
O33 Ta2 1.975481 1_555
O34 P9 1.562657 1_555
O34 Ta2 1.969142 1_555
O35 P7 1.555314 1_555
O35 Ta2 1.975106 1_555
O36 P11 1.528583 1_555
O37 P10 1.530120 1_555
O38 S5 1.460455 1_555
O39 P8 1.508029 1_555
O40 P9 1.511172 1_555
O41 P7 1.507275 1_555
O42 S1 1.481209 1_555
O43 S2 1.483173 1_555
O44 S3 1.483727 1_555
O45 P5 1.530824 1_555
O46 S4 1.473900 1_555
O47 P6 1.533268 1_555
O48 P4 1.534401 1_555
O49 P2 1.533981 1_555
O50 P3 1.533880 1_555
O51 P0 1.531436 1_555
O52 P1 1.532877 1_555
O53 S0 1.460111 1_555
O54 P7 1.583391 1_555
O54 Ta0 1.941846 1_555
O55 P8 1.570326 1_655
O55 Ta0 1.991014 1_555
O56 P9 1.574194 1_545
O56 Ta0 1.988518 1_555
O57 P10 1.537558 1_545
O58 S5 1.469351 1_555
O59 P11 1.539109 1_655
O60 P6 1.529196 1_555
O61 P5 1.528348 1_455
O62 S4 1.462081 1_565
O63 S2 1.501165 1_565
O64 S3 1.498862 1_555
O65 S1 1.497318 1_455
O66 S0 1.543389 1_565
O66 Ta1 1.995026 1_555
O67 P0 1.593759 1_555
O67 Ta1 1.958452 1_555
O68 P1 1.604292 1_455
O68 Ta1 1.954841 1_555
O69 P2 1.580956 1_555
O69 Ta2 1.969124 1_555
O70 P3 1.580554 1_455
O70 Ta2 1.964169 1_555
O71 P4 1.581495 1_565
O71 Ta2 1.966020 1_555
