# generated using pymatgen
data_Na4Br2O
_symmetry_space_group_name_H-M   'P 1'
_cell_length_a   4.47320198
_cell_length_b   4.47320186
_cell_length_c   8.06620875
_cell_angle_alpha   106.09794144
_cell_angle_beta   106.09793867
_cell_angle_gamma   90.00001039
_symmetry_Int_Tables_number   1
_chemical_formula_structural   Na4Br2O
_chemical_formula_sum   'Na4 Br2 O1'
_cell_volume   148.47421690
_cell_formula_units_Z   1
loop_
 _symmetry_equiv_pos_site_id
 _symmetry_equiv_pos_as_xyz
  1  'x, y, z'
loop_
 _atom_site_type_symbol
 _atom_site_label
 _atom_site_symmetry_multiplicity
 _atom_site_fract_x
 _atom_site_fract_y
 _atom_site_fract_z
 _atom_site_occupancy
  Na  Na0  1  0.15221753  0.15221753  0.30443406  1
  Na  Na1  1  0.00000000  0.50000000  0.00000000  1
  Na  Na2  1  0.84778247  0.84778247  0.69556594  1
  Na  Na3  1  0.50000000  -0.00000000  0.00000000  1
  Br  Br0  1  0.34981911  0.34981911  0.69963823  1
  Br  Br1  1  0.65018089  0.65018089  0.30036177  1
  O  O0  1  0.00000000  -0.00000000  0.00000000  1
loop_
_geom_bond_atom_site_label_1
_geom_bond_atom_site_label_2
_geom_bond_distance
_geom_bond_site_symmetry_2
Na0 O0 2.258953 1_555
Na1 O0 2.236601 1_555
Na1 O0 2.236601 1_565
Na2 O0 2.258953 1_666
Na3 O0 2.236601 1_555
Na3 O0 2.236601 1_655
Br0 Na0 2.932483 1_555
Br0 Na1 3.157475 1_556
Br0 Na3 3.157475 1_556
Br0 Na3 3.157475 1_566
Br0 Na1 3.157476 1_656
Br0 Na2 3.163172 1_555
Br0 Na2 3.163176 1_545
Br0 Na2 3.163176 1_455
Br0 Na2 3.163179 1_445
Br1 Na2 2.932483 1_555
Br1 Na1 3.157475 1_655
Br1 Na3 3.157475 1_565
Br1 Na3 3.157475 1_555
Br1 Na1 3.157476 1_555
Br1 Na0 3.163172 1_555
Br1 Na0 3.163176 1_565
Br1 Na0 3.163176 1_655
Br1 Na0 3.163179 1_665
