# generated using pymatgen
data_CsCu2Br3
_symmetry_space_group_name_H-M   'P 1'
_cell_length_a   5.53673147
_cell_length_b   8.10078333
_cell_length_c   8.10078385
_cell_angle_alpha   102.59448816
_cell_angle_beta   90.00000000
_cell_angle_gamma   90.00000000
_symmetry_Int_Tables_number   1
_chemical_formula_structural   CsCu2Br3
_chemical_formula_sum   'Cs2 Cu4 Br6'
_cell_volume   354.59257340
_cell_formula_units_Z   2
loop_
 _symmetry_equiv_pos_site_id
 _symmetry_equiv_pos_as_xyz
  1  'x, y, z'
loop_
 _atom_site_type_symbol
 _atom_site_label
 _atom_site_symmetry_multiplicity
 _atom_site_fract_x
 _atom_site_fract_y
 _atom_site_fract_z
 _atom_site_occupancy
  Cs  Cs0  1  0.25000000  0.32055012  0.67944988  1
  Cs  Cs1  1  0.75000000  0.67944988  0.32055012  1
  Cu  Cu0  1  -0.00000000  0.15029537  0.15029537  1
  Cu  Cu1  1  0.50000000  0.84970463  0.84970463  1
  Cu  Cu2  1  -0.00000000  0.84970463  0.84970463  1
  Cu  Cu3  1  0.50000000  0.15029537  0.15029537  1
  Br  Br0  1  0.25000000  0.88219837  0.11780163  1
  Br  Br1  1  0.75000000  0.11780163  0.88219837  1
  Br  Br2  1  0.25000000  0.39891833  0.15982700  1
  Br  Br3  1  0.75000000  0.60108167  0.84017300  1
  Br  Br4  1  0.75000000  0.15982700  0.39891833  1
  Br  Br5  1  0.25000000  0.84017300  0.60108167  1
loop_
_geom_bond_atom_site_label_1
_geom_bond_atom_site_label_2
_geom_bond_distance
_geom_bond_site_symmetry_2
Br0 Cu3 2.540205 1_565
Br0 Cu0 2.540205 1_565
Br0 Cu1 2.540205 1_554
Br0 Cu2 2.540205 1_554
Br0 Cs1 3.772975 1_455
Br0 Cs1 3.772975 1_555
Br1 Cu2 2.540205 1_645
Br1 Cu1 2.540205 1_545
Br1 Cu3 2.540205 1_556
Br1 Cu0 2.540205 1_656
Br1 Cs0 3.772975 1_555
Br1 Cs0 3.772975 1_655
Br2 Cu3 2.431145 1_555
Br2 Cu0 2.431145 1_555
Br2 Cs1 3.637727 1_555
Br2 Cs1 3.637727 1_455
Br2 Cs0 3.803801 1_554
Br3 Cu2 2.431145 1_655
Br3 Cu1 2.431145 1_555
Br3 Cs0 3.637727 1_555
Br3 Cs0 3.637727 1_655
Br3 Cs1 3.803801 1_556
Br4 Cu3 2.431145 1_555
Br4 Cu0 2.431145 1_655
Br4 Cs0 3.637727 1_555
Br4 Cs0 3.637727 1_655
Br4 Cs1 3.803801 1_545
Br5 Cu2 2.431145 1_555
Br5 Cu1 2.431145 1_555
Br5 Cs1 3.637727 1_455
Br5 Cs1 3.637727 1_555
Br5 Cs0 3.803801 1_565
