# generated using pymatgen
data_MgTi8(NiO3)8
_symmetry_space_group_name_H-M   'P 1'
_cell_length_a   5.66222325
_cell_length_b   11.20016579
_cell_length_c   11.14339012
_cell_angle_alpha   54.32146194
_cell_angle_beta   53.91458782
_cell_angle_gamma   53.94337067
_symmetry_Int_Tables_number   1
_chemical_formula_structural   MgTi8(NiO3)8
_chemical_formula_sum   'Mg1 Ti8 Ni8 O24'
_cell_volume   430.37075008
_cell_formula_units_Z   1
loop_
 _symmetry_equiv_pos_site_id
 _symmetry_equiv_pos_as_xyz
  1  'x, y, z'
loop_
 _atom_site_type_symbol
 _atom_site_label
 _atom_site_symmetry_multiplicity
 _atom_site_fract_x
 _atom_site_fract_y
 _atom_site_fract_z
 _atom_site_occupancy
  Mg  Mg0  1  0.20572800  0.08722400  0.09116500  1
  Ti  Ti0  1  0.48855800  0.23281800  0.23509900  1
  Ti  Ti1  1  0.12431800  0.07387800  0.59419900  1
  Ti  Ti2  1  0.16058800  0.58289400  0.06118200  1
  Ti  Ti3  1  0.14177200  0.58297300  0.56692200  1
  Ti  Ti4  1  0.84973900  0.43964500  0.43014500  1
  Ti  Ti5  1  0.88973100  0.42520800  0.91250300  1
  Ti  Ti6  1  0.85264700  0.92028700  0.42970600  1
  Ti  Ti7  1  0.82050000  0.89940900  0.93335200  1
  Ni  Ni0  1  0.00472100  0.00189500  0.00652300  1
  Ni  Ni1  1  0.34348300  0.67274100  0.18322700  1
  Ni  Ni2  1  0.36164400  0.17643400  0.67376300  1
  Ni  Ni3  1  0.68706300  0.32735300  0.33093800  1
  Ni  Ni4  1  0.35037900  0.67696200  0.67139300  1
  Ni  Ni5  1  0.64373700  0.33193000  0.82676200  1
  Ni  Ni6  1  0.64596800  0.82908300  0.32838500  1
  Ni  Ni7  1  0.64067200  0.82226700  0.81925700  1
  O  O0  1  0.07409500  0.38126200  0.22428900  1
  O  O1  1  0.41618200  0.03988500  0.38573800  1
  O  O2  1  0.76508500  0.21727100  0.03270000  1
  O  O3  1  0.24904000  0.28352500  0.45578800  1
  O  O4  1  0.56575700  0.44622900  0.12534600  1
  O  O5  1  0.05004700  0.38689000  0.71790100  1
  O  O6  1  0.04886800  0.88619600  0.22119300  1
  O  O7  1  0.86571000  0.13233700  0.29081300  1
  O  O8  1  0.42979600  0.02078500  0.88614100  1
  O  O9  1  0.45669500  0.52731800  0.38394400  1
  O  O10  1  0.77117500  0.22161300  0.53520300  1
  O  O11  1  0.75521000  0.70553900  0.03218200  1
  O  O12  1  0.23719800  0.29879800  0.95487800  1
  O  O13  1  0.22988300  0.78507800  0.47082700  1
  O  O14  1  0.56462400  0.47818200  0.61607100  1
  O  O15  1  0.61601100  0.95358800  0.11226000  1
  O  O16  1  0.05523300  0.88392200  0.71542500  1
  O  O17  1  0.94535700  0.11408000  0.78805000  1
  O  O18  1  0.95252200  0.61781000  0.28470300  1
  O  O19  1  0.43550200  0.53353700  0.87996100  1
  O  O20  1  0.76060000  0.72260600  0.52839900  1
  O  O21  1  0.23365800  0.78062100  0.97371700  1
  O  O22  1  0.55241400  0.97690400  0.61590900  1
  O  O23  1  0.94859500  0.61826700  0.77524500  1
loop_
_geom_bond_atom_site_label_1
_geom_bond_atom_site_label_2
_geom_bond_distance
_geom_bond_site_symmetry_2
Mg0 O15 1.957573 1_545
Mg0 O12 1.983399 1_554
Mg0 O7 2.007987 1_455
Mg0 O8 2.200070 1_554
Mg0 O6 2.233918 1_545
Mg0 O2 2.302397 1_455
Ni0 O8 2.025415 1_554
Ni0 O15 2.031889 1_445
Ni0 O6 2.042368 1_545
Ni0 O2 2.060745 1_455
Ni0 O17 2.125390 1_454
Ni0 O21 2.161671 1_544
Ni1 O11 2.016790 1_555
Ni1 O9 2.068066 1_555
Ni1 O6 2.081133 1_555
Ni1 O18 2.097778 1_455
Ni1 O21 2.198281 1_554
Ni1 O4 2.372778 1_555
Ni2 O8 2.064026 1_555
Ni2 O10 2.066262 1_555
Ni2 O5 2.084571 1_555
Ni2 O22 2.143648 1_545
Ni2 O17 2.242714 1_455
Ni2 O3 2.295820 1_555
Ni3 O7 1.999870 1_555
Ni3 O0 2.057204 1_655
Ni3 O9 2.064676 1_555
Ni3 O10 2.068590 1_555
Ni3 O4 2.170754 1_555
Ni3 O3 2.213528 1_555
Ni4 O16 2.051179 1_555
Ni4 O19 2.065822 1_555
Ni4 O20 2.069617 1_555
Ni4 O14 2.085449 1_555
Ni4 O13 2.143310 1_555
Ni4 O23 2.172272 1_455
Ni5 O12 1.997758 1_555
Ni5 O14 2.070061 1_555
Ni5 O19 2.108160 1_555
Ni5 O17 2.123861 1_555
Ni5 O5 2.156805 1_655
Ni5 O2 2.183730 1_556
Ni6 O15 2.014657 1_555
Ni6 O13 2.088574 1_555
Ni6 O18 2.088644 1_555
Ni6 O20 2.122179 1_555
Ni6 O6 2.157991 1_655
Ni6 O1 2.200035 1_565
Ni7 O23 2.027627 1_555
Ni7 O22 2.030086 1_555
Ni7 O21 2.036552 1_555
Ni7 O8 2.164342 1_565
Ni7 O11 2.226144 1_556
Ni7 O16 2.258840 1_655
O0 Ti0 1.947432 1_555
O0 Ti2 2.027016 1_555
O0 Ti4 2.154671 1_455
O1 Ti0 1.912083 1_555
O1 Ti1 2.010222 1_555
O1 Ti6 2.214916 1_545
O2 Ti0 1.883084 1_555
O2 Ti5 2.213301 1_554
O3 Ti4 1.943028 1_455
O3 Ti1 2.198982 1_555
O3 Ti0 2.236801 1_555
O4 Ti5 2.015850 1_554
O4 Ti0 2.142498 1_555
O4 Ti2 2.153891 1_555
O5 Ti3 1.981622 1_555
O5 Ti5 2.004712 1_455
O6 Ti6 2.067250 1_455
O7 Ti6 1.955939 1_545
O7 Ti0 2.032261 1_555
O8 Ti7 2.003848 1_545
O9 Ti3 1.901812 1_555
O9 Ti4 2.090365 1_555
O10 Ti1 1.884998 1_655
O10 Ti4 2.205062 1_555
O11 Ti7 1.933991 1_554
O11 Ti2 1.975930 1_655
O12 Ti5 1.770255 1_455
O13 Ti6 1.897766 1_455
O13 Ti3 2.095741 1_555
O14 Ti4 1.835180 1_555
O14 Ti3 2.212911 1_555
O15 Ti7 1.883705 1_554
O16 Ti1 1.873238 1_565
O16 Ti7 2.027757 1_455
O17 Ti1 1.978584 1_655
O17 Ti7 2.239150 1_545
O18 Ti4 1.852251 1_555
O18 Ti2 2.209535 1_655
O19 Ti2 1.842006 1_556
O19 Ti5 2.265067 1_555
O20 Ti3 1.903468 1_655
O20 Ti6 2.055739 1_555
O21 Ti2 2.027626 1_556
O21 Ti7 2.079132 1_455
O22 Ti6 1.925632 1_555
O22 Ti1 2.097369 1_565
O23 Ti5 1.875111 1_555
O23 Ti3 2.076536 1_655
