# generated using pymatgen
data_Na2Zr2Ti2Si3(SO8)3
_symmetry_space_group_name_H-M   'P 1'
_cell_length_a   8.87890181
_cell_length_b   8.86444325
_cell_length_c   22.96257721
_cell_angle_alpha   90.07564375
_cell_angle_beta   90.20006306
_cell_angle_gamma   119.99008514
_symmetry_Int_Tables_number   1
_chemical_formula_structural   Na2Zr2Ti2Si3(SO8)3
_chemical_formula_sum   'Na6 Zr6 Ti6 Si9 S9 O72'
_cell_volume   1565.30867345
_cell_formula_units_Z   3
loop_
 _symmetry_equiv_pos_site_id
 _symmetry_equiv_pos_as_xyz
  1  'x, y, z'
loop_
 _atom_site_type_symbol
 _atom_site_label
 _atom_site_symmetry_multiplicity
 _atom_site_fract_x
 _atom_site_fract_y
 _atom_site_fract_z
 _atom_site_occupancy
  Na  Na0  1  0.97413269  0.96875740  0.49145342  1
  Na  Na1  1  0.00098430  0.98440920  0.99692916  1
  Na  Na2  1  0.65454146  0.31642408  0.83460040  1
  Na  Na3  1  0.67583133  0.32015133  0.33431371  1
  Na  Na4  1  0.31614331  0.66003458  0.17278637  1
  Na  Na5  1  0.35026951  0.65721073  0.66659038  1
  Zr  Zr0  1  0.98815321  0.99906786  0.64927732  1
  Zr  Zr1  1  0.00630950  0.99598582  0.14417321  1
  Zr  Zr2  1  0.65606820  0.33612391  0.69279132  1
  Zr  Zr3  1  0.67790403  0.34731097  0.47553174  1
  Zr  Zr4  1  0.35008624  0.68118735  0.51542534  1
  Zr  Zr5  1  0.32527934  0.67773512  0.31077516  1
  Ti  Ti0  1  0.00797941  0.00748667  0.35166786  1
  Ti  Ti1  1  0.01710944  0.01829042  0.85335742  1
  Ti  Ti2  1  0.68729599  0.33647215  0.19369252  1
  Ti  Ti3  1  0.65839409  0.33354568  0.97910809  1
  Ti  Ti4  1  0.31307015  0.67465172  0.02050575  1
  Ti  Ti5  1  0.35215631  0.68428327  0.81309235  1
  Si  Si0  1  0.29840651  0.01424524  0.24848727  1
  Si  Si1  1  0.00649717  0.28465046  0.24848092  1
  Si  Si2  1  0.28616389  0.30002579  0.75345892  1
  Si  Si3  1  0.71654135  0.00447365  0.75630059  1
  Si  Si4  1  0.66290464  0.62821657  0.58474736  1
  Si  Si5  1  0.94249566  0.61022047  0.08147325  1
  Si  Si6  1  0.33009823  0.95688508  0.91655781  1
  Si  Si7  1  0.64068635  0.96379753  0.41291277  1
  Si  Si8  1  0.04543114  0.68153226  0.41542560  1
  S  S0  1  0.71561486  0.70631660  0.24903977  1
  S  S1  1  0.01065311  0.71687227  0.75489885  1
  S  S2  1  0.95925323  0.33614269  0.58495821  1
  S  S3  1  0.37416568  0.04138576  0.58468747  1
  S  S4  1  0.65582901  0.04341593  0.08021960  1
  S  S5  1  0.38437820  0.34314677  0.07974634  1
  S  S6  1  0.61762200  0.66508015  0.91917215  1
  S  S7  1  0.04290513  0.37963772  0.91809005  1
  S  S8  1  0.32655483  0.37032397  0.41466253  1
  O  O0  1  0.19862317  0.03338986  0.30497325  1
  O  O1  1  0.82095786  0.78885605  0.30130629  1
  O  O2  1  0.97449489  0.16326805  0.30526068  1
  O  O3  1  0.19138185  0.17186506  0.81088830  1
  O  O4  1  0.98604428  0.80162885  0.80643434  1
  O  O5  1  0.83684086  0.01421635  0.81224132  1
  O  O6  1  0.78908631  0.96252257  0.69704249  1
  O  O7  1  0.17450921  0.20980940  0.69527889  1
  O  O8  1  0.03415471  0.81724800  0.70075544  1
  O  O9  1  0.79434159  0.80858883  0.19515339  1
  O  O10  1  0.00849258  0.18795956  0.18852361  1
  O  O11  1  0.17960422  0.97786364  0.18942890  1
  O  O12  1  0.86932485  0.34506021  0.63758091  1
  O  O13  1  0.47908132  0.12587173  0.63827037  1
  O  O14  1  0.65272995  0.51564979  0.64315814  1
  O  O15  1  0.85232165  0.49360448  0.13931268  1
  O  O16  1  0.63141486  0.11850380  0.13427240  1
  O  O17  1  0.48433295  0.36125580  0.13234973  1
  O  O18  1  0.46684840  0.31621332  0.02619336  1
  O  O19  1  0.82403104  0.50346708  0.02403972  1
  O  O20  1  0.66998052  0.14858356  0.02802048  1
  O  O21  1  0.46025903  0.13999943  0.53206127  1
  O  O22  1  0.67460464  0.52525645  0.52800593  1
  O  O23  1  0.85539486  0.31358447  0.53159060  1
  O  O24  1  0.52812111  0.68334525  0.97035497  1
  O  O25  1  0.15093919  0.46274993  0.97131774  1
  O  O26  1  0.30195921  0.83053111  0.97460676  1
  O  O27  1  0.55494799  0.84490943  0.47219647  1
  O  O28  1  0.30990472  0.45586017  0.46822148  1
  O  O29  1  0.15740899  0.69786530  0.47431794  1
  O  O30  1  0.12936173  0.64038551  0.35924412  1
  O  O31  1  0.51813953  0.86216176  0.35804110  1
  O  O32  1  0.35379764  0.47565366  0.36282560  1
  O  O33  1  0.12258080  0.48397995  0.86618888  1
  O  O34  1  0.35949105  0.85609996  0.86206824  1
  O  O35  1  0.51372233  0.63691234  0.86504609  1
  O  O36  1  0.03305771  0.85586610  0.40605801  1
  O  O37  1  0.83302890  0.98810515  0.40480412  1
  O  O38  1  0.16756365  0.19891698  0.41159681  1
  O  O39  1  0.02601718  0.20251493  0.91467674  1
  O  O40  1  0.15541400  0.97323660  0.90944004  1
  O  O41  1  0.79372090  0.81828251  0.91491824  1
  O  O42  1  0.98002125  0.17928274  0.58748113  1
  O  O43  1  0.20197219  0.02688586  0.58957948  1
  O  O44  1  0.83987553  0.81990760  0.58786367  1
  O  O45  1  0.96371577  0.80253226  0.08140753  1
  O  O46  1  0.81270588  0.02593296  0.08161222  1
  O  O47  1  0.20663151  0.18490837  0.08082887  1
  O  O48  1  0.70160567  0.17802532  0.75087880  1
  O  O49  1  0.47961183  0.32034950  0.75099241  1
  O  O50  1  0.85436181  0.54100766  0.74987847  1
  O  O51  1  0.70339092  0.53239821  0.24309436  1
  O  O52  1  0.82956712  0.30809997  0.24214326  1
  O  O53  1  0.48795525  0.19166585  0.23697218  1
  O  O54  1  0.63375174  0.50321758  0.92422983  1
  O  O55  1  0.86444631  0.35554781  0.92455031  1
  O  O56  1  0.50346745  0.14878325  0.92694954  1
  O  O57  1  0.64890172  0.14982031  0.42215116  1
  O  O58  1  0.47806633  0.34322785  0.42085902  1
  O  O59  1  0.84739607  0.51368606  0.41984852  1
  O  O60  1  0.36925960  0.50106396  0.07166714  1
  O  O61  1  0.14002684  0.63046854  0.07174417  1
  O  O62  1  0.49907050  0.86399627  0.07350107  1
  O  O63  1  0.35359337  0.86453990  0.58279106  1
  O  O64  1  0.48823723  0.64508368  0.58236741  1
  O  O65  1  0.13126434  0.49408190  0.58143764  1
  O  O66  1  0.33037603  0.84872335  0.25141880  1
  O  O67  1  0.53913003  0.67961694  0.25260946  1
  O  O68  1  0.17802956  0.47438552  0.25157651  1
  O  O69  1  0.30143381  0.48771654  0.76649143  1
  O  O70  1  0.16558615  0.69662447  0.76062438  1
  O  O71  1  0.52060649  0.83127961  0.76499334  1
loop_
_geom_bond_atom_site_label_1
_geom_bond_atom_site_label_2
_geom_bond_distance
_geom_bond_site_symmetry_2
Na0 O36 2.376064 1_655
Na0 O37 2.399211 1_555
Na0 O44 2.552796 1_555
Na0 O38 2.646437 1_665
Na0 O42 2.870262 1_565
Na0 O43 2.891013 1_665
Na1 O45 2.439507 1_456
Na1 O40 2.465838 1_555
Na1 O41 2.522073 1_455
Na1 O47 2.631838 1_566
Na1 O39 2.633943 1_565
Na1 O46 2.710587 1_466
Na2 O48 2.426415 1_555
Na2 O49 2.476452 1_555
Na2 O56 2.557319 1_555
Na2 O55 2.680489 1_555
Na2 O54 2.703867 1_555
Na2 O50 2.720127 1_555
Na3 O57 2.460817 1_555
Na3 O59 2.545388 1_555
Na3 O52 2.553323 1_555
Na3 O53 2.672815 1_555
Na3 O58 2.730735 1_555
Na3 O51 2.746079 1_555
Na4 O68 2.343335 1_555
Na4 O66 2.419289 1_555
Na4 O67 2.634382 1_555
Na4 O61 2.731399 1_555
Na4 O62 2.864553 1_555
Na4 O60 2.874564 1_555
Na5 O64 2.323810 1_555
Na5 O65 2.617342 1_555
Na5 O63 2.652703 1_555
Na5 O69 2.659430 1_555
Na5 O71 2.721759 1_555
Na5 O70 2.840573 1_555
O0 Si0 1.629068 1_555
O0 Ti0 1.921568 1_555
O1 S0 1.468432 1_555
O1 Ti0 2.148063 1_665
O2 Si1 1.624516 1_655
O2 Ti0 1.882282 1_655
O3 Si2 1.671480 1_555
O3 Ti1 1.762604 1_555
O4 S1 1.475195 1_655
O4 Ti1 2.094887 1_665
O5 Si3 1.642045 1_555
O5 Ti1 1.840146 1_655
O6 Si3 1.627568 1_565
O6 Zr0 1.968259 1_555
O7 Si2 1.613231 1_555
O7 Zr0 2.058134 1_445
O8 S1 1.483269 1_555
O8 Zr0 2.195804 1_455
O9 S0 1.488985 1_555
O9 Zr1 2.137060 1_655
O10 Si1 1.625637 1_555
O10 Zr1 1.973764 1_545
O11 Si0 1.644551 1_565
O11 Zr1 1.926029 1_555
O12 S2 1.474278 1_555
O12 Zr2 2.250753 1_555
O13 S3 1.494876 1_555
O13 Zr2 2.136025 1_555
O14 Si4 1.648361 1_555
O14 Zr2 1.970802 1_555
O15 Si5 1.630107 1_555
O15 Ti2 1.903523 1_555
O16 S4 1.474627 1_555
O16 Ti2 2.207051 1_555
O17 S5 1.456718 1_555
O17 Ti2 2.378821 1_555
O18 S5 1.511842 1_555
O18 Ti3 1.958849 1_554
O19 Si5 1.653210 1_555
O19 Ti3 1.807469 1_554
O20 S4 1.486098 1_555
O20 Ti3 2.032973 1_554
O21 S3 1.466292 1_555
O21 Zr3 2.295668 1_555
O22 Si4 1.622960 1_555
O22 Zr3 1.995575 1_555
O23 S2 1.482973 1_555
O23 Zr3 2.165133 1_555
O24 S6 1.474336 1_555
O24 Ti4 2.201468 1_556
O25 S7 1.496572 1_555
O25 Ti4 2.038676 1_556
O26 Si6 1.679354 1_555
O26 Ti4 1.780249 1_556
O27 Si7 1.659012 1_555
O27 Zr4 1.943594 1_555
O28 S8 1.490024 1_555
O28 Zr4 2.137982 1_555
O29 Si8 1.638424 1_555
O29 Zr4 2.020274 1_555
O30 Si8 1.621685 1_555
O30 Zr5 1.952699 1_555
O31 Si7 1.609544 1_555
O31 Zr5 1.991644 1_555
O32 S8 1.458179 1_555
O32 Zr5 2.271241 1_555
O33 S7 1.459789 1_555
O33 Ti5 2.280142 1_555
O34 Si6 1.632253 1_555
O34 Ti5 1.866685 1_555
O35 S6 1.489635 1_555
O35 Ti5 2.061312 1_555
O36 Si8 1.617701 1_555
O36 Ti0 1.928088 1_565
O37 Si7 1.622375 1_555
O37 Ti0 1.917868 1_665
O38 S8 1.470089 1_555
O38 Ti0 2.087456 1_555
O39 S7 1.502684 1_555
O39 Ti1 2.125967 1_555
O40 Si6 1.635963 1_555
O40 Ti1 1.951025 1_565
O41 S6 1.475546 1_555
O41 Ti1 2.363551 1_665
O42 S2 1.492395 1_555
O42 Zr0 2.165958 1_545
O43 S3 1.473575 1_555
O43 Zr0 2.257260 1_445
O44 Si4 1.640487 1_555
O44 Zr0 2.033496 1_555
O45 Si5 1.618809 1_555
O45 Zr1 2.121868 1_655
O46 S4 1.476719 1_555
O46 Zr1 2.351394 1_645
O47 S5 1.498724 1_555
O47 Zr1 2.265080 1_545
O48 Si3 1.613761 1_555
O48 Zr2 2.115259 1_555
O49 Si2 1.636212 1_555
O49 Zr2 2.014055 1_555
O50 S1 1.484927 1_655
O50 Zr2 2.213060 1_555
O51 S0 1.496425 1_555
O51 Ti2 2.017227 1_555
O52 Si1 1.690322 1_655
O52 Ti2 1.790325 1_555
O53 Si0 1.653469 1_555
O53 Ti2 1.874143 1_555
O54 S6 1.516067 1_555
O54 Ti3 2.056711 1_555
O55 S7 1.497253 1_655
O55 Ti3 2.148158 1_555
O56 Si6 1.642789 1_545
O56 Ti3 1.933953 1_555
O57 Si7 1.627331 1_545
O57 Zr3 2.043282 1_555
O58 S8 1.486414 1_555
O58 Zr3 2.155414 1_555
O59 Si8 1.643794 1_655
O59 Zr3 1.968336 1_555
O60 S5 1.483367 1_555
O60 Ti4 2.182880 1_555
O61 Si5 1.687095 1_455
O61 Ti4 1.819505 1_555
O62 S4 1.508452 1_565
O62 Ti4 2.057886 1_555
O63 S3 1.485349 1_565
O63 Zr4 2.231127 1_555
O64 Si4 1.631482 1_555
O64 Zr4 2.085784 1_555
O65 S2 1.470635 1_455
O65 Zr4 2.372584 1_555
O66 Si0 1.629247 1_565
O66 Zr5 2.023477 1_555
O67 S0 1.465737 1_555
O67 Zr5 2.318532 1_555
O68 Si1 1.609829 1_555
O68 Zr5 2.105132 1_555
O69 Si2 1.627568 1_555
O69 Ti5 1.895060 1_555
O70 S1 1.479021 1_555
O70 Ti5 2.091700 1_555
O71 Si3 1.660286 1_565
O71 Ti5 1.794933 1_555
