# generated using pymatgen
data_Sr4V3O10
_symmetry_space_group_name_H-M   'P 1'
_cell_length_a   14.36597661
_cell_length_b   14.36597661
_cell_length_c   14.36597661
_cell_angle_alpha   164.40131023
_cell_angle_beta   164.40131023
_cell_angle_gamma   22.12909973
_symmetry_Int_Tables_number   1
_chemical_formula_structural   Sr4V3O10
_chemical_formula_sum   'Sr4 V3 O10'
_cell_volume   214.34013628
_cell_formula_units_Z   1
loop_
 _symmetry_equiv_pos_site_id
 _symmetry_equiv_pos_as_xyz
  1  'x, y, z'
loop_
 _atom_site_type_symbol
 _atom_site_label
 _atom_site_symmetry_multiplicity
 _atom_site_fract_x
 _atom_site_fract_y
 _atom_site_fract_z
 _atom_site_occupancy
  Sr  Sr0  1  0.70245400  0.70245400  0.00000000  1
  Sr  Sr1  1  0.29754600  0.29754600  0.00000000  1
  Sr  Sr2  1  0.56851400  0.56851400  0.00000000  1
  Sr  Sr3  1  0.43148600  0.43148600  0.00000000  1
  V  V0  1  0.86082600  0.86082600  0.00000000  1
  V  V1  1  0.13917400  0.13917400  0.00000000  1
  V  V2  1  0.00000000  0.00000000  0.00000000  1
  O  O0  1  0.79092600  0.79092600  0.00000000  1
  O  O1  1  0.20907400  0.20907400  0.00000000  1
  O  O2  1  0.36161300  0.86161300  0.50000000  1
  O  O3  1  0.86161300  0.36161300  0.50000000  1
  O  O4  1  0.63838700  0.13838700  0.50000000  1
  O  O5  1  0.13838700  0.63838700  0.50000000  1
  O  O6  1  0.93132300  0.93132300  0.00000000  1
  O  O7  1  0.00000000  0.50000000  0.50000000  1
  O  O8  1  0.06867700  0.06867700  0.00000000  1
  O  O9  1  0.50000000  0.00000000  0.50000000  1
loop_
_geom_bond_atom_site_label_1
_geom_bond_atom_site_label_2
_geom_bond_distance
_geom_bond_site_symmetry_2
O0 V0 1.971031 1_555
O0 Sr0 2.494722 1_555
O0 Sr1 2.763355 1_655
O0 Sr1 2.763355 1_565
O0 Sr1 2.763355 1_666
O0 Sr1 2.763355 1_554
O1 V1 1.971031 1_555
O1 Sr1 2.494722 1_555
O1 Sr0 2.763355 1_545
O1 Sr0 2.763355 1_455
O1 Sr0 2.763355 1_556
O1 Sr0 2.763355 1_444
O2 V0 1.949650 1_556
O2 V0 1.949650 1_455
O2 Sr1 2.657871 1_566
O2 Sr1 2.657871 1_555
O2 Sr3 2.771752 1_555
O2 Sr3 2.771752 1_566
O3 V0 1.949650 1_556
O3 V0 1.949650 1_545
O3 Sr1 2.657871 1_656
O3 Sr1 2.657871 1_555
O3 Sr3 2.771752 1_555
O3 Sr3 2.771752 1_656
O4 V1 1.949650 1_656
O4 V1 1.949650 1_555
O4 Sr0 2.657871 1_556
O4 Sr0 2.657871 1_545
O4 Sr2 2.771752 1_545
O4 Sr2 2.771752 1_556
O5 V1 1.949650 1_566
O5 V1 1.949650 1_555
O5 Sr0 2.657871 1_556
O5 Sr0 2.657871 1_455
O5 Sr2 2.771752 1_455
O5 Sr2 2.771752 1_556
O6 V2 1.936545 1_665
O6 V0 1.987865 1_555
O6 Sr3 2.757047 1_655
O6 Sr3 2.757047 1_554
O6 Sr3 2.757047 1_666
O6 Sr3 2.757047 1_565
O7 V2 1.949524 1_555
O7 V2 1.949524 1_566
O7 Sr2 2.744644 1_455
O7 Sr2 2.744644 1_556
O7 Sr3 2.744644 1_455
O7 Sr3 2.744644 1_556
O8 V2 1.936545 1_555
O8 V1 1.987865 1_555
O8 Sr2 2.757047 1_455
O8 Sr2 2.757047 1_444
O8 Sr2 2.757047 1_545
O8 Sr2 2.757047 1_556
O9 V2 1.949524 1_555
O9 V2 1.949524 1_656
O9 Sr2 2.744644 1_545
O9 Sr3 2.744644 1_545
O9 Sr2 2.744644 1_556
O9 Sr3 2.744644 1_556
