# generated using pymatgen
data_V5Te4
_symmetry_space_group_name_H-M   'P 1'
_cell_length_a   4.09554120
_cell_length_b   7.50266153
_cell_length_c   7.16348126
_cell_angle_alpha   88.39671853
_cell_angle_beta   73.40874023
_cell_angle_gamma   74.12067670
_symmetry_Int_Tables_number   1
_chemical_formula_structural   V5Te4
_chemical_formula_sum   'V5 Te4'
_cell_volume   202.60094970
_cell_formula_units_Z   1
loop_
 _symmetry_equiv_pos_site_id
 _symmetry_equiv_pos_as_xyz
  1  'x, y, z'
loop_
 _atom_site_type_symbol
 _atom_site_label
 _atom_site_symmetry_multiplicity
 _atom_site_fract_x
 _atom_site_fract_y
 _atom_site_fract_z
 _atom_site_occupancy
  V  V0  1  0.00000751  -0.00000143  0.00000345  1
  V  V1  1  0.34463104  0.07257189  0.23856902  1
  V  V2  1  0.60120678  0.71954373  0.07972358  1
  V  V3  1  0.39877619  0.28047810  0.92028668  1
  V  V4  1  0.65533664  0.92745715  0.76143833  1
  Te  Te0  1  0.08058918  0.18392487  0.65311223  1
  Te  Te1  1  0.72433089  0.34582372  0.20548483  1
  Te  Te2  1  0.27569948  0.65416137  0.79450847  1
  Te  Te3  1  0.91942229  0.81604260  0.34687440  1
loop_
_geom_bond_atom_site_label_1
_geom_bond_atom_site_label_2
_geom_bond_distance
_geom_bond_site_symmetry_2
V0 V4 2.655844 1_544
V0 V1 2.655982 1_455
V0 V1 2.656921 1_555
V0 V4 2.656980 1_444
V0 V2 2.949922 1_445
V0 V3 2.949990 1_554
V0 V2 2.952432 1_545
V0 V3 2.952601 1_454
V1 V2 2.716080 1_545
V1 V3 2.717036 1_554
V2 V4 2.717084 1_554
V3 V4 2.716039 1_545
Te0 V0 2.788745 1_556
Te0 V3 2.811369 1_455
Te0 V3 2.811490 1_555
Te0 V4 2.883833 1_445
Te0 V4 2.885576 1_545
Te0 V1 2.914836 1_555
Te1 V0 2.799103 1_655
Te1 V3 2.852424 1_654
Te1 V3 2.856816 1_554
Te1 V1 2.860014 1_655
Te1 V1 2.860829 1_555
Te1 V2 2.876121 1_555
Te2 V0 2.799220 1_566
Te2 V2 2.852597 1_456
Te2 V2 2.856868 1_556
Te2 V4 2.860321 1_455
Te2 V4 2.860939 1_555
Te2 V3 2.875909 1_555
Te3 V0 2.788734 1_665
Te3 V2 2.811214 1_655
Te3 V2 2.811271 1_555
Te3 V1 2.884075 1_665
Te3 V1 2.885833 1_565
Te3 V4 2.915072 1_555
