# generated using pymatgen
data_LiSnP2O7
_symmetry_space_group_name_H-M   'P 1'
_cell_length_a   5.12009615
_cell_length_b   6.66481309
_cell_length_c   9.67812801
_cell_angle_alpha   109.67932017
_cell_angle_beta   91.52698011
_cell_angle_gamma   109.33056050
_symmetry_Int_Tables_number   1
_chemical_formula_structural   LiSnP2O7
_chemical_formula_sum   'Li2 Sn2 P4 O14'
_cell_volume   289.87295295
_cell_formula_units_Z   2
loop_
 _symmetry_equiv_pos_site_id
 _symmetry_equiv_pos_as_xyz
  1  'x, y, z'
loop_
 _atom_site_type_symbol
 _atom_site_label
 _atom_site_symmetry_multiplicity
 _atom_site_fract_x
 _atom_site_fract_y
 _atom_site_fract_z
 _atom_site_occupancy
  Li  Li0  1  0.05968500  0.32933500  0.04090300  1
  Li  Li1  1  0.94031500  0.67066500  0.95909700  1
  Sn  Sn0  1  0.14752100  0.12115600  0.33630200  1
  Sn  Sn1  1  0.85247900  0.87884400  0.66369800  1
  P  P0  1  0.28941000  0.67158500  0.37869000  1
  P  P1  1  0.50257600  0.83639400  0.14057100  1
  P  P2  1  0.49742400  0.16360600  0.85942900  1
  P  P3  1  0.71059000  0.32841500  0.62131000  1
  O  O0  1  0.08427700  0.80464400  0.40572400  1
  O  O1  1  0.14668100  0.41711300  0.27531100  1
  O  O2  1  0.29107900  0.62643900  0.02417200  1
  O  O3  1  0.43990100  0.69990100  0.52536600  1
  O  O4  1  0.18757300  0.09711800  0.88239800  1
  O  O5  1  0.59100300  0.95582900  0.82223500  1
  O  O6  1  0.52530400  0.78927000  0.29581400  1
  O  O7  1  0.47469600  0.21073000  0.70418600  1
  O  O8  1  0.40899700  0.04417100  0.17776500  1
  O  O9  1  0.81242700  0.90288200  0.11760200  1
  O  O10  1  0.56009900  0.30009900  0.47463400  1
  O  O11  1  0.70892100  0.37356100  0.97582800  1
  O  O12  1  0.85331900  0.58288700  0.72468900  1
  O  O13  1  0.91572300  0.19535600  0.59427600  1
loop_
_geom_bond_atom_site_label_1
_geom_bond_atom_site_label_2
_geom_bond_distance
_geom_bond_site_symmetry_2
Li0 O2 2.005962 1_555
Li0 O11 2.030804 1_454
Li0 O4 2.074306 1_554
Li0 O1 2.137074 1_555
Li1 O11 2.005962 1_555
Li1 O2 2.030804 1_656
Li1 O9 2.074306 1_556
Li1 O12 2.137074 1_555
O0 P0 1.559818 1_555
O0 Sn0 2.349506 1_565
O1 P0 1.552143 1_555
O1 Sn0 2.242512 1_555
O2 P1 1.506613 1_555
O3 P0 1.519688 1_555
O3 Sn1 2.187034 1_555
O4 P2 1.543496 1_555
O4 Sn1 2.370702 1_445
O5 P2 1.545808 1_565
O5 Sn1 2.108036 1_555
O6 P0 1.601717 1_555
O6 P1 1.643858 1_555
O7 P3 1.601717 1_555
O7 P2 1.643858 1_555
O8 P1 1.545808 1_545
O8 Sn0 2.108036 1_555
O9 P1 1.543496 1_555
O9 Sn0 2.370702 1_665
O10 P3 1.519688 1_555
O10 Sn0 2.187034 1_555
O11 P2 1.506613 1_555
O12 P3 1.552143 1_555
O12 Sn1 2.242512 1_555
O13 P3 1.559818 1_555
O13 Sn1 2.349506 1_545
