# generated using pymatgen
data_Nb3I8
_symmetry_space_group_name_H-M   'P 1'
_cell_length_a   15.08258044
_cell_length_b   15.08258044
_cell_length_c   15.08257981
_cell_angle_alpha   29.57353376
_cell_angle_beta   29.57353376
_cell_angle_gamma   29.57353020
_symmetry_Int_Tables_number   1
_chemical_formula_structural   Nb3I8
_chemical_formula_sum   'Nb6 I16'
_cell_volume   739.81992104
_cell_formula_units_Z   2
loop_
 _symmetry_equiv_pos_site_id
 _symmetry_equiv_pos_as_xyz
  1  'x, y, z'
loop_
 _atom_site_type_symbol
 _atom_site_label
 _atom_site_symmetry_multiplicity
 _atom_site_fract_x
 _atom_site_fract_y
 _atom_site_fract_z
 _atom_site_occupancy
  Nb  Nb0  1  0.15699467  0.54551144  0.54551144  1
  Nb  Nb1  1  0.84300533  0.45448856  0.45448856  1
  Nb  Nb2  1  0.54551144  0.15699467  0.54551144  1
  Nb  Nb3  1  0.45448856  0.45448856  0.84300533  1
  Nb  Nb4  1  0.45448856  0.84300533  0.45448856  1
  Nb  Nb5  1  0.54551144  0.54551144  0.15699467  1
  I  I0  1  0.20881969  0.70577091  0.70577091  1
  I  I1  1  0.11691687  0.11691687  0.62497092  1
  I  I2  1  0.37502908  0.88308313  0.88308313  1
  I  I3  1  0.88308313  0.37502908  0.88308313  1
  I  I4  1  0.36617834  0.36617834  0.36617834  1
  I  I5  1  0.79118031  0.29422909  0.29422909  1
  I  I6  1  0.29422909  0.29422909  0.79118031  1
  I  I7  1  0.63382166  0.63382166  0.63382166  1
  I  I8  1  0.62497092  0.11691687  0.11691687  1
  I  I9  1  0.11691687  0.62497092  0.11691687  1
  I  I10  1  0.29422909  0.79118031  0.29422909  1
  I  I11  1  0.88308313  0.88308313  0.37502908  1
  I  I12  1  0.70577091  0.20881969  0.70577091  1
  I  I13  1  0.70577091  0.70577091  0.20881969  1
  I  I14  1  0.78357504  0.78357504  0.78357504  1
  I  I15  1  0.21642496  0.21642496  0.21642496  1
loop_
_geom_bond_atom_site_label_1
_geom_bond_atom_site_label_2
_geom_bond_distance
_geom_bond_site_symmetry_2
I0 Nb3 2.765068 1_555
I0 Nb4 2.765069 1_555
I1 Nb4 2.952907 1_545
I1 Nb1 2.952907 1_455
I2 Nb5 2.952907 1_556
I2 Nb2 2.952907 1_565
I3 Nb5 2.952907 1_556
I3 Nb0 2.952907 1_655
I4 Nb0 2.761147 1_555
I4 Nb2 2.761147 1_555
I4 Nb5 2.761148 1_555
I5 Nb5 2.765068 1_555
I5 Nb2 2.765069 1_555
I6 Nb2 2.765068 1_555
I6 Nb0 2.765068 1_555
I7 Nb4 2.761147 1_555
I7 Nb1 2.761147 1_555
I7 Nb3 2.761148 1_555
I8 Nb3 2.952907 1_554
I8 Nb4 2.952907 1_545
I9 Nb3 2.952907 1_554
I9 Nb1 2.952907 1_455
I10 Nb5 2.765068 1_555
I10 Nb0 2.765069 1_555
I11 Nb0 2.952907 1_655
I11 Nb2 2.952907 1_565
I12 Nb3 2.765068 1_555
I12 Nb1 2.765069 1_555
I13 Nb4 2.765068 1_555
I13 Nb1 2.765068 1_555
I14 Nb0 3.094958 1_655
I14 Nb2 3.094958 1_565
I14 Nb5 3.094959 1_556
I15 Nb4 3.094958 1_545
I15 Nb1 3.094958 1_455
I15 Nb3 3.094959 1_554
