# generated using pymatgen
data_ZnH8(NO5)2
_symmetry_space_group_name_H-M   'P 1'
_cell_length_a   27.32356800
_cell_length_b   5.38794600
_cell_length_c   6.23831550
_cell_angle_alpha   58.95612298
_cell_angle_beta   90.00000000
_cell_angle_gamma   90.00000000
_symmetry_Int_Tables_number   1
_chemical_formula_structural   ZnH8(NO5)2
_chemical_formula_sum   'Zn4 H32 N8 O40'
_cell_volume   786.85292947
_cell_formula_units_Z   4
loop_
 _symmetry_equiv_pos_site_id
 _symmetry_equiv_pos_as_xyz
  1  'x, y, z'
loop_
 _atom_site_type_symbol
 _atom_site_label
 _atom_site_symmetry_multiplicity
 _atom_site_fract_x
 _atom_site_fract_y
 _atom_site_fract_z
 _atom_site_occupancy
  Zn  Zn0  1  0.37490200  0.68959600  0.78315200  1
  Zn  Zn1  1  0.87490200  0.31040400  0.71684800  1
  Zn  Zn2  1  0.62509800  0.31040400  0.21684800  1
  Zn  Zn3  1  0.12509800  0.68959600  0.28315200  1
  H  H0  1  0.33116700  0.17431900  0.92375800  1
  H  H1  1  0.83116700  0.82568100  0.57624200  1
  H  H2  1  0.66883300  0.82568100  0.07624200  1
  H  H3  1  0.16883300  0.17431900  0.42375800  1
  H  H4  1  0.28753800  0.40345300  0.83123300  1
  H  H5  1  0.78753800  0.59654700  0.66876700  1
  H  H6  1  0.71246200  0.59654700  0.16876700  1
  H  H7  1  0.21246200  0.40345300  0.33123300  1
  H  H8  1  0.44091700  0.70665300  0.43316500  1
  H  H9  1  0.94091700  0.29334700  0.06683500  1
  H  H10  1  0.55908300  0.29334700  0.56683500  1
  H  H11  1  0.05908300  0.70665300  0.93316500  1
  H  H12  1  0.41378900  0.40863500  0.58144500  1
  H  H13  1  0.91378900  0.59136500  0.91855500  1
  H  H14  1  0.58621100  0.59136500  0.41855500  1
  H  H15  1  0.08621100  0.40863500  0.08144500  1
  H  H16  1  0.39117400  0.24813700  0.22969200  1
  H  H17  1  0.89117400  0.75186300  0.27030800  1
  H  H18  1  0.60882600  0.75186300  0.77030800  1
  H  H19  1  0.10882600  0.24813700  0.72969200  1
  H  H20  1  0.44622100  0.31476600  0.11901600  1
  H  H21  1  0.94622100  0.68523400  0.38098400  1
  H  H22  1  0.55377900  0.68523400  0.88098400  1
  H  H23  1  0.05377900  0.31476600  0.61901600  1
  H  H24  1  0.31929900  0.64899500  0.15242400  1
  H  H25  1  0.81929900  0.35100500  0.34757600  1
  H  H26  1  0.68070100  0.35100500  0.84757600  1
  H  H27  1  0.18070100  0.64899500  0.65242400  1
  H  H28  1  0.37067700  0.74064300  0.20117400  1
  H  H29  1  0.87067700  0.25935700  0.29882600  1
  H  H30  1  0.62932300  0.25935700  0.79882600  1
  H  H31  1  0.12932300  0.74064300  0.70117400  1
  N  N0  1  0.29535500  0.11808200  0.49199100  1
  N  N1  1  0.79535500  0.88191800  0.00800900  1
  N  N2  1  0.70464500  0.88191800  0.50800900  1
  N  N3  1  0.20464500  0.11808200  0.99199100  1
  N  N4  1  0.47473600  0.99758400  0.73759500  1
  N  N5  1  0.97473600  0.00241600  0.76240500  1
  N  N6  1  0.52526400  0.00241600  0.26240500  1
  N  N7  1  0.02526400  0.99758400  0.23759500  1
  O  O0  1  0.32341700  0.38378000  0.82385300  1
  O  O1  1  0.82341700  0.61622000  0.67614700  1
  O  O2  1  0.67658300  0.61622000  0.17614700  1
  O  O3  1  0.17658300  0.38378000  0.32385300  1
  O  O4  1  0.40798600  0.62184700  0.49572200  1
  O  O5  1  0.90798600  0.37815300  0.00427800  1
  O  O6  1  0.59201400  0.37815300  0.50427800  1
  O  O7  1  0.09201400  0.62184700  0.99572200  1
  O  O8  1  0.41085800  0.33502300  0.07576700  1
  O  O9  1  0.91085800  0.66497700  0.42423300  1
  O  O10  1  0.58914200  0.66497700  0.92423300  1
  O  O11  1  0.08914200  0.33502300  0.57576700  1
  O  O12  1  0.34691500  0.78655100  0.06496800  1
  O  O13  1  0.84691500  0.21344900  0.43503200  1
  O  O14  1  0.65308500  0.21344900  0.93503200  1
  O  O15  1  0.15308500  0.78655100  0.56496800  1
  O  O16  1  0.26900800  0.93187900  0.65860300  1
  O  O17  1  0.76900800  0.06812100  0.84139700  1
  O  O18  1  0.73099200  0.06812100  0.34139700  1
  O  O19  1  0.23099200  0.93187900  0.15860300  1
  O  O20  1  0.27899900  0.36341700  0.32613500  1
  O  O21  1  0.77899900  0.63658300  0.17386500  1
  O  O22  1  0.72100100  0.63658300  0.67386500  1
  O  O23  1  0.22100100  0.36341700  0.82613500  1
  O  O24  1  0.34173200  0.06651600  0.48290000  1
  O  O25  1  0.84173200  0.93348400  0.01710000  1
  O  O26  1  0.65826800  0.93348400  0.51710000  1
  O  O27  1  0.15826800  0.06651600  0.98290000  1
  O  O28  1  0.50014500  0.19940600  0.72130200  1
  O  O29  1  0.00014500  0.80059400  0.77869800  1
  O  O30  1  0.49985500  0.80059400  0.27869800  1
  O  O31  1  0.99985500  0.19940600  0.22130200  1
  O  O32  1  0.49241200  0.76246000  0.77774900  1
  O  O33  1  0.99241200  0.23754000  0.72225100  1
  O  O34  1  0.50758800  0.23754000  0.22225100  1
  O  O35  1  0.00758800  0.76246000  0.27774900  1
  O  O36  1  0.42762700  0.03533600  0.70899300  1
  O  O37  1  0.92762700  0.96466400  0.79100700  1
  O  O38  1  0.57237300  0.96466400  0.29100700  1
  O  O39  1  0.07237300  0.03533600  0.20899300  1
loop_
_geom_bond_atom_site_label_1
_geom_bond_atom_site_label_2
_geom_bond_distance
_geom_bond_site_symmetry_2
H0 O0 0.990698 1_555
H1 O1 0.990698 1_555
H2 O2 0.990698 1_555
H3 O3 0.990698 1_555
H4 O0 0.989676 1_555
H5 O1 0.989676 1_555
H6 O2 0.989676 1_555
H7 O3 0.989676 1_555
H8 O4 0.993374 1_555
H9 O5 0.993374 1_555
H10 O6 0.993374 1_555
H11 O7 0.993374 1_555
H12 O4 0.998594 1_555
H13 O5 0.998594 1_556
H14 O6 0.998594 1_555
H15 O7 0.998594 1_554
H16 O8 0.983279 1_555
H17 O9 0.983279 1_555
H18 O10 0.983279 1_555
H19 O11 0.983279 1_555
H20 O8 0.993962 1_555
H21 O9 0.993962 1_555
H22 O10 0.993962 1_555
H23 O11 0.993962 1_555
H24 O12 0.999639 1_555
H25 O13 0.999639 1_555
H26 O14 0.999639 1_555
H27 O15 0.999639 1_555
H28 O12 0.993951 1_555
H29 O13 0.993951 1_555
H30 O14 0.993951 1_555
H31 O15 0.993951 1_555
N0 O16 1.236762 1_545
N0 O20 1.267652 1_555
N0 O24 1.304767 1_555
N1 O17 1.236762 1_564
N1 O21 1.267652 1_555
N1 O25 1.304767 1_555
N2 O18 1.236762 1_565
N2 O22 1.267652 1_555
N2 O26 1.304767 1_555
N3 O19 1.236762 1_546
N3 O23 1.267652 1_555
N3 O27 1.304767 1_555
N4 O28 1.249317 1_565
N4 O32 1.254426 1_555
N4 O36 1.301010 1_565
N5 O29 1.249317 1_645
N5 O33 1.254426 1_555
N5 O37 1.301010 1_545
N6 O30 1.249317 1_545
N6 O34 1.254426 1_555
N6 O38 1.301010 1_545
N7 O31 1.249317 1_465
N7 O35 1.254426 1_555
N7 O39 1.301010 1_565
O0 Zn0 2.080122 1_555
O1 Zn1 2.080122 1_555
O2 Zn2 2.080122 1_555
O3 Zn3 2.080122 1_555
O4 Zn0 2.200139 1_555
O5 Zn1 2.200139 1_554
O6 Zn2 2.200139 1_555
O7 Zn3 2.200139 1_556
O8 Zn0 2.085735 1_554
O9 Zn1 2.085735 1_555
O10 Zn2 2.085735 1_556
O11 Zn3 2.085735 1_555
O12 Zn0 2.212610 1_554
O13 Zn1 2.212610 1_555
O14 Zn2 2.212610 1_556
O15 Zn3 2.212610 1_555
O24 Zn0 2.128563 1_545
O25 Zn1 2.128563 1_564
O26 Zn2 2.128563 1_565
O27 Zn3 2.128563 1_546
O36 Zn0 2.206975 1_545
O37 Zn1 2.206975 1_565
O38 Zn2 2.206975 1_565
O39 Zn3 2.206975 1_545
