# generated using pymatgen
data_Li4(CuO2)3
_symmetry_space_group_name_H-M   'P 1'
_cell_length_a   6.55128048
_cell_length_b   6.55128048
_cell_length_c   7.35346211
_cell_angle_alpha   69.29765743
_cell_angle_beta   69.29765743
_cell_angle_gamma   78.93554997
_symmetry_Int_Tables_number   1
_chemical_formula_structural   Li4(CuO2)3
_chemical_formula_sum   'Li8 Cu6 O12'
_cell_volume   275.35428347
_cell_formula_units_Z   2
loop_
 _symmetry_equiv_pos_site_id
 _symmetry_equiv_pos_as_xyz
  1  'x, y, z'
loop_
 _atom_site_type_symbol
 _atom_site_label
 _atom_site_symmetry_multiplicity
 _atom_site_fract_x
 _atom_site_fract_y
 _atom_site_fract_z
 _atom_site_occupancy
  Li  Li0  1  0.69945700  0.02260000  0.86723800  1
  Li  Li1  1  0.97740000  0.30054300  0.13276200  1
  Li  Li2  1  0.36283200  0.36283200  0.85918000  1
  Li  Li3  1  0.31466200  0.68533800  0.50000000  1
  Li  Li4  1  0.02260000  0.69945700  0.86723800  1
  Li  Li5  1  0.63716800  0.63716800  0.14082000  1
  Li  Li6  1  0.30054300  0.97740000  0.13276200  1
  Li  Li7  1  0.68533800  0.31466200  0.50000000  1
  Cu  Cu0  1  0.51158200  0.18203600  0.25721400  1
  Cu  Cu1  1  0.15479600  0.15479600  0.73088900  1
  Cu  Cu2  1  0.18203600  0.51158200  0.25721400  1
  Cu  Cu3  1  0.81796400  0.48841800  0.74278600  1
  Cu  Cu4  1  0.84520400  0.84520400  0.26911100  1
  Cu  Cu5  1  0.48841800  0.81796400  0.74278600  1
  O  O0  1  0.07053200  0.40706000  0.82547700  1
  O  O1  1  0.43402500  0.43402500  0.34200300  1
  O  O2  1  0.27342200  0.27342200  0.15375100  1
  O  O3  1  0.89052400  0.23897700  0.66432500  1
  O  O4  1  0.76102300  0.10947600  0.33567500  1
  O  O5  1  0.40706000  0.07053200  0.82547700  1
  O  O6  1  0.59294000  0.92946800  0.17452300  1
  O  O7  1  0.23897700  0.89052400  0.66432500  1
  O  O8  1  0.10947600  0.76102300  0.33567500  1
  O  O9  1  0.72657800  0.72657800  0.84624900  1
  O  O10  1  0.92946800  0.59294000  0.17452300  1
  O  O11  1  0.56597500  0.56597500  0.65799700  1
loop_
_geom_bond_atom_site_label_1
_geom_bond_atom_site_label_2
_geom_bond_distance
_geom_bond_site_symmetry_2
Li0 O3 1.915135 1_555
Li0 O9 1.968844 1_545
Li0 O5 1.994790 1_555
Li0 O6 2.009696 1_546
Li1 O4 1.915135 1_555
Li1 O2 1.968844 1_655
Li1 O10 1.994790 1_555
Li1 O0 2.009696 1_654
Li2 O11 1.904383 1_555
Li2 O2 1.927643 1_556
Li2 O5 1.970831 1_555
Li2 O0 1.970831 1_555
Li3 O7 1.995478 1_555
Li3 O8 1.995478 1_555
Li3 O11 2.210873 1_555
Li3 O1 2.210873 1_555
Li4 O7 1.915135 1_555
Li4 O9 1.968844 1_455
Li4 O0 1.994790 1_555
Li4 O10 2.009696 1_456
Li5 O1 1.904383 1_555
Li5 O9 1.927643 1_554
Li5 O10 1.970831 1_555
Li5 O6 1.970831 1_555
Li6 O8 1.915135 1_555
Li6 O2 1.968844 1_565
Li6 O6 1.994790 1_555
Li6 O5 2.009696 1_564
Li7 O3 1.995478 1_555
Li7 O4 1.995478 1_555
Li7 O11 2.210873 1_555
Li7 O1 2.210873 1_555
Cu0 O4 1.844956 1_555
Cu0 O2 1.878924 1_555
Cu0 O6 1.880263 1_545
Cu0 O1 1.885210 1_555
Cu1 O3 1.892888 1_455
Cu1 O7 1.892888 1_545
Cu1 O0 1.926362 1_555
Cu1 O5 1.926362 1_555
Cu2 O8 1.844956 1_555
Cu2 O2 1.878924 1_555
Cu2 O10 1.880263 1_455
Cu2 O1 1.885210 1_555
Cu3 O3 1.844956 1_555
Cu3 O9 1.878924 1_555
Cu3 O0 1.880263 1_655
Cu3 O11 1.885210 1_555
Cu4 O8 1.892888 1_655
Cu4 O4 1.892888 1_565
Cu4 O10 1.926362 1_555
Cu4 O6 1.926362 1_555
Cu5 O7 1.844956 1_555
Cu5 O9 1.878924 1_555
Cu5 O5 1.880263 1_565
Cu5 O11 1.885210 1_555
