# generated using pymatgen
data_BaHgS2
_symmetry_space_group_name_H-M   'P 1'
_cell_length_a   4.26464444
_cell_length_b   7.42236288
_cell_length_c   14.53650438
_cell_angle_alpha   90.00000000
_cell_angle_beta   90.00000000
_cell_angle_gamma   90.00000000
_symmetry_Int_Tables_number   1
_chemical_formula_structural   BaHgS2
_chemical_formula_sum   'Ba4 Hg4 S8'
_cell_volume   460.13470963
_cell_formula_units_Z   4
loop_
 _symmetry_equiv_pos_site_id
 _symmetry_equiv_pos_as_xyz
  1  'x, y, z'
loop_
 _atom_site_type_symbol
 _atom_site_label
 _atom_site_symmetry_multiplicity
 _atom_site_fract_x
 _atom_site_fract_y
 _atom_site_fract_z
 _atom_site_occupancy
  Ba  Ba0  1  0.00000000  0.00401948  0.10117750  1
  Ba  Ba1  1  -0.00000000  0.68201807  0.39072685  1
  Ba  Ba2  1  0.00000000  0.50401948  0.89882250  1
  Ba  Ba3  1  -0.00000000  0.18201807  0.60927315  1
  Hg  Hg0  1  0.50000000  0.66480431  0.64730581  1
  Hg  Hg1  1  0.50000000  0.16480431  0.35269419  1
  Hg  Hg2  1  0.50000000  0.99927846  0.85774810  1
  Hg  Hg3  1  0.50000000  0.49927846  0.14225190  1
  S  S0  1  0.50000000  0.38880264  0.46785492  1
  S  S1  1  0.50000000  0.88880264  0.53214508  1
  S  S2  1  0.00000000  0.89010641  0.77785301  1
  S  S3  1  -0.00000000  0.39010641  0.22214699  1
  S  S4  1  0.50000000  0.40045195  0.73710765  1
  S  S5  1  0.50000000  0.72692068  0.01746072  1
  S  S6  1  0.50000000  0.22692068  0.98253928  1
  S  S7  1  0.50000000  0.90045195  0.26289235  1
loop_
_geom_bond_atom_site_label_1
_geom_bond_atom_site_label_2
_geom_bond_distance
_geom_bond_site_symmetry_2
Ba0 S5 3.202795 1_545
Ba0 S5 3.202795 1_445
Ba0 S6 3.202844 1_554
Ba0 S6 3.202844 1_454
Ba0 S7 3.265553 1_445
Ba0 S7 3.265553 1_545
Ba0 S3 3.362192 1_555
Ba1 S0 3.246588 1_455
Ba1 S0 3.246588 1_555
Ba1 S7 3.260146 1_455
Ba1 S7 3.260146 1_555
Ba1 S3 3.271044 1_555
Ba1 S1 3.335943 1_555
Ba1 S1 3.335943 1_455
Ba2 S6 3.202795 1_455
Ba2 S6 3.202795 1_555
Ba2 S5 3.202844 1_556
Ba2 S5 3.202844 1_456
Ba2 S4 3.265553 1_455
Ba2 S4 3.265553 1_555
Ba2 S2 3.362192 1_555
Ba3 S1 3.246588 1_445
Ba3 S1 3.246588 1_545
Ba3 S4 3.260146 1_455
Ba3 S4 3.260146 1_555
Ba3 S2 3.271044 1_545
Ba3 S0 3.335943 1_455
Ba3 S0 3.335943 1_555
Hg0 S4 2.356691 1_555
Hg0 S1 2.359369 1_555
Hg1 S7 2.356691 1_545
Hg1 S0 2.359369 1_555
Hg2 S6 2.479030 1_565
Hg2 S2 2.559736 1_555
Hg2 S2 2.559736 1_655
Hg2 S5 3.078431 1_556
Hg3 S5 2.479030 1_555
Hg3 S3 2.559736 1_555
Hg3 S3 2.559736 1_655
Hg3 S6 3.078431 1_554
