# generated using pymatgen
data_Nb2GeTe4
_symmetry_space_group_name_H-M   'P 1'
_cell_length_a   8.00186558
_cell_length_b   6.52179749
_cell_length_c   15.54213711
_cell_angle_alpha   73.19890228
_cell_angle_beta   90.00000000
_cell_angle_gamma   90.00000000
_symmetry_Int_Tables_number   1
_chemical_formula_structural   Nb2GeTe4
_chemical_formula_sum   'Nb8 Ge4 Te16'
_cell_volume   776.46822567
_cell_formula_units_Z   4
loop_
 _symmetry_equiv_pos_site_id
 _symmetry_equiv_pos_as_xyz
  1  'x, y, z'
loop_
 _atom_site_type_symbol
 _atom_site_label
 _atom_site_symmetry_multiplicity
 _atom_site_fract_x
 _atom_site_fract_y
 _atom_site_fract_z
 _atom_site_occupancy
  Nb  Nb0  1  0.03525226  0.64440564  0.25016289  1
  Nb  Nb1  1  0.53525226  0.35559436  0.24983711  1
  Nb  Nb2  1  0.96474774  0.35559436  0.74983711  1
  Nb  Nb3  1  0.46474774  0.64440564  0.75016289  1
  Nb  Nb4  1  0.78487434  0.85576798  0.74997078  1
  Nb  Nb5  1  0.28487434  0.14423202  0.75002922  1
  Nb  Nb6  1  0.21512566  0.14423202  0.25002922  1
  Nb  Nb7  1  0.71512566  0.85576798  0.24997078  1
  Ge  Ge0  1  0.62483371  0.24972762  0.75061310  1
  Ge  Ge1  1  0.12483371  0.75027238  0.74938690  1
  Ge  Ge2  1  0.37516629  0.75027238  0.24938690  1
  Ge  Ge3  1  0.87516629  0.24972762  0.25061310  1
  Te  Te0  1  0.98932438  0.87617400  0.37764518  1
  Te  Te1  1  0.48932438  0.12382600  0.12235482  1
  Te  Te2  1  0.01067562  0.12382600  0.62235482  1
  Te  Te3  1  0.51067562  0.87617400  0.87764518  1
  Te  Te4  1  0.76199903  0.62340938  0.12280759  1
  Te  Te5  1  0.26199903  0.37659062  0.37719241  1
  Te  Te6  1  0.23800097  0.37659062  0.87719241  1
  Te  Te7  1  0.73800097  0.62340938  0.62280759  1
  Te  Te8  1  0.48921038  0.94789595  0.37705737  1
  Te  Te9  1  0.98921038  0.05210405  0.12294263  1
  Te  Te10  1  0.51078962  0.05210405  0.62294263  1
  Te  Te11  1  0.01078962  0.94789595  0.87705737  1
  Te  Te12  1  0.26036786  0.55114407  0.12240181  1
  Te  Te13  1  0.76036786  0.44885593  0.37759819  1
  Te  Te14  1  0.73963214  0.44885593  0.87759819  1
  Te  Te15  1  0.23963214  0.55114407  0.62240181  1
loop_
_geom_bond_atom_site_label_1
_geom_bond_atom_site_label_2
_geom_bond_distance
_geom_bond_site_symmetry_2
Nb0 Te9 2.841816 1_465
Nb0 Te0 2.841993 1_455
Nb0 Te5 2.871785 1_555
Nb0 Te12 2.873312 1_555
Nb0 Te4 2.978976 1_455
Nb0 Te13 2.987852 1_455
Nb1 Te8 2.841816 1_545
Nb1 Te1 2.841993 1_555
Nb1 Te4 2.871785 1_555
Nb1 Te13 2.873312 1_555
Nb1 Te5 2.978976 1_555
Nb1 Te12 2.987852 1_555
Nb2 Te11 2.841816 1_645
Nb2 Te2 2.841993 1_655
Nb2 Te7 2.871785 1_555
Nb2 Te14 2.873312 1_555
Nb2 Te6 2.978976 1_655
Nb2 Te15 2.987852 1_655
Nb3 Te10 2.841816 1_565
Nb3 Te3 2.841993 1_555
Nb3 Te6 2.871785 1_555
Nb3 Te15 2.873312 1_555
Nb3 Te7 2.978976 1_555
Nb3 Te14 2.987852 1_555
Nb4 Te14 2.839933 1_555
Nb4 Te7 2.841589 1_555
Nb4 Te11 2.866431 1_655
Nb4 Te2 2.872342 1_665
Nb4 Te10 2.980947 1_565
Nb4 Te3 2.986978 1_555
Nb5 Te15 2.839933 1_555
Nb5 Te6 2.841589 1_555
Nb5 Te10 2.866431 1_555
Nb5 Te3 2.872342 1_545
Nb5 Te11 2.980947 1_545
Nb5 Te2 2.986978 1_555
Nb6 Te12 2.839933 1_555
Nb6 Te5 2.841589 1_555
Nb6 Te9 2.866431 1_455
Nb6 Te0 2.872342 1_445
Nb6 Te8 2.980947 1_545
Nb6 Te1 2.986978 1_555
Nb7 Te13 2.839933 1_555
Nb7 Te4 2.841589 1_555
Nb7 Te8 2.866431 1_555
Nb7 Te1 2.872342 1_565
Nb7 Te9 2.980947 1_565
Nb7 Te0 2.986978 1_555
Ge0 Nb2 2.805379 1_555
Ge0 Nb5 2.806625 1_555
Ge0 Te3 2.808400 1_545
Ge0 Te7 2.811847 1_555
Ge0 Te14 2.811989 1_555
Ge0 Te10 2.812425 1_555
Ge0 Nb3 2.873341 1_555
Ge0 Nb4 2.873387 1_545
Ge1 Nb3 2.805379 1_555
Ge1 Nb4 2.806625 1_455
Ge1 Te2 2.808400 1_565
Ge1 Te6 2.811847 1_555
Ge1 Te15 2.811989 1_555
Ge1 Te11 2.812425 1_555
Ge1 Nb2 2.873341 1_455
Ge1 Nb5 2.873387 1_565
Ge2 Nb0 2.805379 1_555
Ge2 Nb7 2.806625 1_555
Ge2 Te1 2.808400 1_565
Ge2 Te5 2.811847 1_555
Ge2 Te12 2.811989 1_555
Ge2 Te8 2.812425 1_555
Ge2 Nb1 2.873341 1_555
Ge2 Nb6 2.873387 1_565
Ge3 Nb1 2.805379 1_555
Ge3 Nb6 2.806625 1_655
Ge3 Te0 2.808400 1_545
Ge3 Te4 2.811847 1_555
Ge3 Te13 2.811989 1_555
Ge3 Te9 2.812425 1_555
Ge3 Nb0 2.873341 1_655
Ge3 Nb7 2.873387 1_545
