# generated using pymatgen
data_Sc2PbS4
_symmetry_space_group_name_H-M   'P 1'
_cell_length_a   3.77411907
_cell_length_b   11.73800347
_cell_length_c   13.74193391
_cell_angle_alpha   90.00000000
_cell_angle_beta   90.00000000
_cell_angle_gamma   90.00000000
_symmetry_Int_Tables_number   1
_chemical_formula_structural   Sc2PbS4
_chemical_formula_sum   'Sc8 Pb4 S16'
_cell_volume   608.77622986
_cell_formula_units_Z   4
loop_
 _symmetry_equiv_pos_site_id
 _symmetry_equiv_pos_as_xyz
  1  'x, y, z'
loop_
 _atom_site_type_symbol
 _atom_site_label
 _atom_site_symmetry_multiplicity
 _atom_site_fract_x
 _atom_site_fract_y
 _atom_site_fract_z
 _atom_site_occupancy
  Sc  Sc0  1  0.75000000  0.05733369  0.11086015  1
  Sc  Sc1  1  0.25000000  0.94266631  0.88913985  1
  Sc  Sc2  1  0.75000000  0.55733369  0.38913985  1
  Sc  Sc3  1  0.25000000  0.44266631  0.61086015  1
  Sc  Sc4  1  0.25000000  0.41767078  0.09679500  1
  Sc  Sc5  1  0.75000000  0.58232922  0.90320500  1
  Sc  Sc6  1  0.25000000  0.91767078  0.40320500  1
  Sc  Sc7  1  0.75000000  0.08232922  0.59679500  1
  Pb  Pb0  1  0.75000000  0.74032243  0.17036270  1
  Pb  Pb1  1  0.25000000  0.25967757  0.82963730  1
  Pb  Pb2  1  0.75000000  0.24032243  0.32963730  1
  Pb  Pb3  1  0.25000000  0.75967757  0.67036270  1
  S  S0  1  0.25000000  0.41244733  0.42702338  1
  S  S1  1  0.75000000  0.58755267  0.57297662  1
  S  S2  1  0.25000000  0.91244733  0.07297662  1
  S  S3  1  0.75000000  0.08755267  0.92702338  1
  S  S4  1  0.25000000  0.53113077  0.78433019  1
  S  S5  1  0.75000000  0.46886923  0.21566981  1
  S  S6  1  0.25000000  0.03113077  0.71566981  1
  S  S7  1  0.75000000  0.96886923  0.28433019  1
  S  S8  1  0.25000000  0.12160463  0.47132477  1
  S  S9  1  0.75000000  0.87839537  0.52867523  1
  S  S10  1  0.25000000  0.62160463  0.02867523  1
  S  S11  1  0.75000000  0.37839537  0.97132477  1
  S  S12  1  0.75000000  0.29695653  0.65815305  1
  S  S13  1  0.25000000  0.70304347  0.34184695  1
  S  S14  1  0.75000000  0.79695653  0.84184695  1
  S  S15  1  0.25000000  0.20304347  0.15815305  1
loop_
_geom_bond_atom_site_label_1
_geom_bond_atom_site_label_2
_geom_bond_distance
_geom_bond_site_symmetry_2
Pb0 S10 3.048591 1_555
Pb0 S10 3.048591 1_655
Pb0 S13 3.050522 1_555
Pb0 S13 3.050522 1_655
Pb0 S2 3.071481 1_655
Pb0 S2 3.071481 1_555
Pb0 S7 3.106375 1_555
Pb1 S11 3.048591 1_555
Pb1 S11 3.048591 1_455
Pb1 S12 3.050522 1_455
Pb1 S12 3.050522 1_555
Pb1 S3 3.071481 1_555
Pb1 S3 3.071481 1_455
Pb1 S6 3.106375 1_555
Pb2 S8 3.048591 1_655
Pb2 S8 3.048591 1_555
Pb2 S15 3.050522 1_555
Pb2 S15 3.050522 1_655
Pb2 S0 3.071481 1_555
Pb2 S0 3.071481 1_655
Pb2 S5 3.106375 1_555
Pb3 S9 3.048591 1_455
Pb3 S9 3.048591 1_555
Pb3 S14 3.050522 1_555
Pb3 S14 3.050522 1_455
Pb3 S1 3.071481 1_555
Pb3 S1 3.071481 1_455
Pb3 S4 3.106375 1_555
S0 Sc3 2.551053 1_555
S0 Sc2 2.593128 1_455
S0 Sc2 2.593128 1_555
S1 Sc2 2.551053 1_555
S1 Sc3 2.593128 1_555
S1 Sc3 2.593128 1_655
S2 Sc1 2.551053 1_554
S2 Sc0 2.593128 1_565
S2 Sc0 2.593128 1_465
S3 Sc0 2.551053 1_556
S3 Sc1 2.593128 1_545
S3 Sc1 2.593128 1_645
S4 Sc5 2.567237 1_455
S4 Sc5 2.567237 1_555
S4 Sc3 2.600161 1_555
S5 Sc4 2.567237 1_555
S5 Sc4 2.567237 1_655
S5 Sc2 2.600161 1_555
S6 Sc7 2.567237 1_455
S6 Sc7 2.567237 1_555
S6 Sc1 2.600161 1_545
S7 Sc6 2.567237 1_555
S7 Sc6 2.567237 1_655
S7 Sc0 2.600161 1_565
S8 Sc6 2.570300 1_545
S8 Sc7 2.597385 1_555
S8 Sc7 2.597385 1_455
S9 Sc7 2.570300 1_565
S9 Sc6 2.597385 1_555
S9 Sc6 2.597385 1_655
S10 Sc4 2.570300 1_555
S10 Sc5 2.597385 1_454
S10 Sc5 2.597385 1_554
S11 Sc5 2.570300 1_555
S11 Sc4 2.597385 1_656
S11 Sc4 2.597385 1_556
S12 Sc3 2.628427 1_555
S12 Sc3 2.628427 1_655
S12 Sc7 2.656652 1_555
S13 Sc2 2.628427 1_455
S13 Sc2 2.628427 1_555
S13 Sc6 2.656652 1_555
S14 Sc1 2.628427 1_555
S14 Sc1 2.628427 1_655
S14 Sc5 2.656652 1_555
S15 Sc0 2.628427 1_455
S15 Sc0 2.628427 1_555
S15 Sc4 2.656652 1_555
