# generated using pymatgen
data_LiTiO2
_symmetry_space_group_name_H-M   'P 1'
_cell_length_a   5.28708044
_cell_length_b   5.28708044
_cell_length_c   5.28708034
_cell_angle_alpha   32.02027334
_cell_angle_beta   32.02027334
_cell_angle_gamma   32.02027346
_symmetry_Int_Tables_number   1
_chemical_formula_structural   LiTiO2
_chemical_formula_sum   'Li1 Ti1 O2'
_cell_volume   36.91705928
_cell_formula_units_Z   1
loop_
 _symmetry_equiv_pos_site_id
 _symmetry_equiv_pos_as_xyz
  1  'x, y, z'
loop_
 _atom_site_type_symbol
 _atom_site_label
 _atom_site_symmetry_multiplicity
 _atom_site_fract_x
 _atom_site_fract_y
 _atom_site_fract_z
 _atom_site_occupancy
  Li  Li0  1  0.50000000  0.50000000  0.50000000  1
  Ti  Ti0  1  0.00000000  0.00000000  0.00000000  1
  O  O0  1  0.25401000  0.25401000  0.25401000  1
  O  O1  1  0.74599000  0.74599000  0.74599000  1
loop_
_geom_bond_atom_site_label_1
_geom_bond_atom_site_label_2
_geom_bond_distance
_geom_bond_site_symmetry_2
Li0 O1 2.135366 1_554
Li0 O0 2.135366 1_556
Li0 O1 2.135366 1_455
Li0 O1 2.135366 1_545
Li0 O0 2.135366 1_565
Li0 O0 2.135366 1_655
O0 Ti0 2.063400 1_556
O0 Ti0 2.063400 1_655
O0 Ti0 2.063400 1_565
O1 Ti0 2.063400 1_665
O1 Ti0 2.063400 1_566
O1 Ti0 2.063400 1_656
