# generated using pymatgen
data_Na14Nb4Ga4Si11SO48
_symmetry_space_group_name_H-M   'P 1'
_cell_length_a   18.09339935
_cell_length_b   9.03317278
_cell_length_c   22.16921111
_cell_angle_alpha   90.06115968
_cell_angle_beta   90.13901464
_cell_angle_gamma   119.99192104
_symmetry_Int_Tables_number   1
_chemical_formula_structural   Na14Nb4Ga4Si11SO48
_chemical_formula_sum   'Na42 Nb12 Ga12 Si33 S3 O144'
_cell_volume   3138.15162367
_cell_formula_units_Z   3
loop_
 _symmetry_equiv_pos_site_id
 _symmetry_equiv_pos_as_xyz
  1  'x, y, z'
loop_
 _atom_site_type_symbol
 _atom_site_label
 _atom_site_symmetry_multiplicity
 _atom_site_fract_x
 _atom_site_fract_y
 _atom_site_fract_z
 _atom_site_occupancy
  Na  Na0  1  0.32169589  0.99986803  0.24997759  1
  Na  Na1  1  0.82233275  0.00029251  0.24997314  1
  Na  Na2  1  0.31801233  0.62745958  0.74871114  1
  Na  Na3  1  0.82257643  0.64501706  0.74896185  1
  Na  Na4  1  0.49380104  0.36281703  0.74786360  1
  Na  Na5  1  0.68214893  0.00275443  0.75096108  1
  Na  Na6  1  0.14829187  0.32381145  0.58533049  1
  Na  Na7  1  0.65230266  0.33157019  0.58194146  1
  Na  Na8  1  0.01678354  0.71045491  0.58557900  1
  Na  Na9  1  0.51150780  0.69013087  0.58284556  1
  Na  Na10  1  0.33123024  0.97759960  0.58302602  1
  Na  Na11  1  0.84014327  0.97018921  0.58611672  1
  Na  Na12  1  0.14710918  0.95871594  0.08175971  1
  Na  Na13  1  0.64679890  0.95853318  0.08167530  1
  Na  Na14  1  0.33186556  0.70837477  0.08299537  1
  Na  Na15  1  0.83198154  0.70821831  0.08357872  1
  Na  Na16  1  0.02241107  0.33567800  0.08328952  1
  Na  Na17  1  0.52186357  0.33494265  0.08328660  1
  Na  Na18  1  0.48367702  0.67848496  0.91400151  1
  Na  Na19  1  0.98554262  0.67666783  0.91410440  1
  Na  Na20  1  0.35465774  0.03044710  0.91426222  1
  Na  Na21  1  0.85396873  0.03079893  0.91424681  1
  Na  Na22  1  0.16200913  0.29698451  0.91592050  1
  Na  Na23  1  0.65985919  0.28972580  0.91469830  1
  Na  Na24  1  0.47709521  0.29210891  0.41643035  1
  Na  Na25  1  0.97861956  0.29246362  0.41665362  1
  Na  Na26  1  0.16750752  0.04156965  0.41961648  1
  Na  Na27  1  0.66794631  0.04119411  0.41755687  1
  Na  Na28  1  0.35357827  0.66309939  0.41668663  1
  Na  Na29  1  0.85484232  0.66509452  0.41638633  1
  Na  Na30  1  0.00142789  -0.00002547  0.50011484  1
  Na  Na31  1  0.49912056  0.99872519  0.49450178  1
  Na  Na32  1  0.00027369  0.00171724  0.00040204  1
  Na  Na33  1  0.49946379  0.00006008  0.99926130  1
  Na  Na34  1  0.33054676  0.32332255  0.82710711  1
  Na  Na35  1  0.83955430  0.33502732  0.83266286  1
  Na  Na36  1  0.33660111  0.34571675  0.33755933  1
  Na  Na37  1  0.83731785  0.34650153  0.33710248  1
  Na  Na38  1  0.16421235  0.65388402  0.16256926  1
  Na  Na39  1  0.66408223  0.65373138  0.16249069  1
  Na  Na40  1  0.16310822  0.67443797  0.66842215  1
  Na  Na41  1  0.66693006  0.66678777  0.66640068  1
  Nb  Nb0  1  0.49744464  0.99709056  0.64676288  1
  Nb  Nb1  1  0.83917475  0.33834021  0.68822700  1
  Nb  Nb2  1  0.33928798  0.34778501  0.18729906  1
  Nb  Nb3  1  0.83955596  0.34832259  0.18732871  1
  Nb  Nb4  1  0.33320132  0.33555623  0.97975281  1
  Nb  Nb5  1  0.83284932  0.33326519  0.98046733  1
  Nb  Nb6  1  0.16614207  0.66890197  0.52018058  1
  Nb  Nb7  1  0.66642219  0.66604423  0.51876445  1
  Nb  Nb8  1  0.16529430  0.65177641  0.31249512  1
  Nb  Nb9  1  0.66535492  0.65259526  0.31223823  1
  Nb  Nb10  1  0.16459324  0.67356834  0.81410706  1
  Nb  Nb11  1  0.66735217  0.66911231  0.81355178  1
  Ga  Ga0  1  0.99134725  0.99539046  0.35531159  1
  Ga  Ga1  1  0.49078608  0.99471143  0.35459430  1
  Ga  Ga2  1  0.99337237  0.99043351  0.85459371  1
  Ga  Ga3  1  0.49798027  0.99880753  0.85228652  1
  Ga  Ga4  1  0.99641660  0.98671075  0.64513484  1
  Ga  Ga5  1  0.99368737  0.00489861  0.14489953  1
  Ga  Ga6  1  0.49329062  0.00464404  0.14466485  1
  Ga  Ga7  1  0.33733273  0.32747272  0.68074865  1
  Ga  Ga8  1  0.33178304  0.33038607  0.48173295  1
  Ga  Ga9  1  0.83438843  0.33256027  0.48048618  1
  Ga  Ga10  1  0.16688780  0.66640438  0.01880275  1
  Ga  Ga11  1  0.66667849  0.66627465  0.01930785  1
  Si  Si0  1  0.35908999  0.71694714  0.25037423  1
  Si  Si1  1  0.85925741  0.71733130  0.25043872  1
  Si  Si2  1  0.00058455  0.28249559  0.24953370  1
  Si  Si3  1  0.50046910  0.28243845  0.24947712  1
  Si  Si4  1  0.64473191  0.28831443  0.75252238  1
  Si  Si5  1  0.00319270  0.72150076  0.74974279  1
  Si  Si6  1  0.49559277  0.70341064  0.75212535  1
  Si  Si7  1  0.35247148  0.00452932  0.75226806  1
  Si  Si8  1  0.86062160  0.00406788  0.75015937  1
  Si  Si9  1  0.47653103  0.33362020  0.58213985  1
  Si  Si10  1  0.97868055  0.32776882  0.58079257  1
  Si  Si11  1  0.18910880  0.05220863  0.58362659  1
  Si  Si12  1  0.68991116  0.04707360  0.58153666  1
  Si  Si13  1  0.33192504  0.61235027  0.58394757  1
  Si  Si14  1  0.83498900  0.62281443  0.58083915  1
  Si  Si15  1  0.48356356  0.63480156  0.08292345  1
  Si  Si16  1  0.98365506  0.63488211  0.08270194  1
  Si  Si17  1  0.33149718  0.03768461  0.08436342  1
  Si  Si18  1  0.83152618  0.03692728  0.08486819  1
  Si  Si19  1  0.18463107  0.33077616  0.08431068  1
  Si  Si20  1  0.68454216  0.33074105  0.08443548  1
  Si  Si21  1  0.31178794  0.67132244  0.91784170  1
  Si  Si22  1  0.81235969  0.66940461  0.91967030  1
  Si  Si23  1  0.02303894  0.37330113  0.91903351  1
  Si  Si24  1  0.52266466  0.37428459  0.91898466  1
  Si  Si25  1  0.16399481  0.95764661  0.91956108  1
  Si  Si26  1  0.66377704  0.95542183  0.91970751  1
  Si  Si27  1  0.31283448  0.96273018  0.41522706  1
  Si  Si28  1  0.81328856  0.96332307  0.41525209  1
  Si  Si29  1  0.16609292  0.36601685  0.41789162  1
  Si  Si30  1  0.66639753  0.36515784  0.41672557  1
  Si  Si31  1  0.01915916  0.66888648  0.41500781  1
  Si  Si32  1  0.51888644  0.66876257  0.41513604  1
  S  S0  1  0.14444431  0.00018067  0.24991549  1
  S  S1  1  0.64457089  0.00036680  0.25006805  1
  S  S2  1  0.14444873  0.28827489  0.75065975  1
  O  O0  1  0.10627601  0.02215734  0.30527804  1
  O  O1  1  0.60639466  0.02205936  0.30545563  1
  O  O2  1  0.41283932  0.79277870  0.31226591  1
  O  O3  1  0.91288086  0.79364657  0.31229762  1
  O  O4  1  0.48143825  0.16730832  0.31010152  1
  O  O5  1  0.98096414  0.16674341  0.31004355  1
  O  O6  1  0.10417563  0.19003571  0.80598662  1
  O  O7  1  0.60308608  0.16885851  0.81083218  1
  O  O8  1  0.48253647  0.79411259  0.81081024  1
  O  O9  1  0.98260171  0.79620511  0.81010348  1
  O  O10  1  0.41349354  0.03708081  0.81059722  1
  O  O11  1  0.91208689  0.02906038  0.81236142  1
  O  O12  1  0.40080856  0.97287138  0.69240720  1
  O  O13  1  0.89825033  0.96352126  0.68992342  1
  O  O14  1  0.09450951  0.21106845  0.69505310  1
  O  O15  1  0.58476589  0.19908647  0.69187626  1
  O  O16  1  0.01527338  0.82431841  0.68761374  1
  O  O17  1  0.51460870  0.83035119  0.69229919  1
  O  O18  1  0.39764755  0.83269222  0.18997730  1
  O  O19  1  0.89745675  0.83246235  0.18986931  1
  O  O20  1  0.01628192  0.20650043  0.18782245  1
  O  O21  1  0.51657884  0.20664088  0.18785375  1
  O  O22  1  0.09497094  0.97796034  0.19444102  1
  O  O23  1  0.59500260  0.97798700  0.19459733  1
  O  O24  1  0.44282175  0.37920756  0.64322809  1
  O  O25  1  0.93104316  0.36510793  0.63869373  1
  O  O26  1  0.25501227  0.13004624  0.63988064  1
  O  O27  1  0.74908348  0.13424934  0.64203159  1
  O  O28  1  0.31391089  0.49871636  0.64463996  1
  O  O29  1  0.81644221  0.50013933  0.64123291  1
  O  O30  1  0.43247324  0.50046679  0.13953057  1
  O  O31  1  0.93244451  0.50066262  0.13932256  1
  O  O32  1  0.31807744  0.13478669  0.14280693  1
  O  O33  1  0.81804206  0.13485297  0.14292107  1
  O  O34  1  0.25244361  0.35996387  0.13955230  1
  O  O35  1  0.75254771  0.36014348  0.13950604  1
  O  O36  1  0.23309282  0.30258702  0.02426372  1
  O  O37  1  0.73338234  0.30284808  0.02437177  1
  O  O38  1  0.41841094  0.53745673  0.02463001  1
  O  O39  1  0.91831305  0.53708375  0.02439550  1
  O  O40  1  0.34659787  0.16721413  0.02569186  1
  O  O41  1  0.84651635  0.16610886  0.02595419  1
  O  O42  1  0.22734300  0.16367446  0.52187599  1
  O  O43  1  0.72880849  0.16503912  0.52244822  1
  O  O44  1  0.35505904  0.54045155  0.52411342  1
  O  O45  1  0.85073955  0.53546799  0.52218451  1
  O  O46  1  0.41720939  0.29144995  0.52270268  1
  O  O47  1  0.91793511  0.28949445  0.52212103  1
  O  O48  1  0.26891568  0.70460054  0.97670114  1
  O  O49  1  0.76891164  0.70307092  0.97760375  1
  O  O50  1  0.08178429  0.45697874  0.97855470  1
  O  O51  1  0.58284726  0.46101495  0.97737840  1
  O  O52  1  0.14465978  0.83562277  0.97770326  1
  O  O53  1  0.64804209  0.83554721  0.97774098  1
  O  O54  1  0.26392648  0.83493186  0.47421679  1
  O  O55  1  0.76351381  0.83430017  0.47409796  1
  O  O56  1  0.14984101  0.46344758  0.47588264  1
  O  O57  1  0.65044783  0.46256997  0.47520005  1
  O  O58  1  0.08136197  0.69610957  0.47511591  1
  O  O59  1  0.58118968  0.69649151  0.47577491  1
  O  O60  1  0.07212972  0.63932357  0.36002830  1
  O  O61  1  0.57262749  0.64035736  0.36050293  1
  O  O62  1  0.25078806  0.86488542  0.35697031  1
  O  O63  1  0.75052618  0.86533925  0.35733054  1
  O  O64  1  0.18181078  0.49928588  0.36073528  1
  O  O65  1  0.68185094  0.49934152  0.36034725  1
  O  O66  1  0.06972803  0.50519938  0.86121500  1
  O  O67  1  0.56827041  0.50089491  0.85887295  1
  O  O68  1  0.18368196  0.86399789  0.86114185  1
  O  O69  1  0.68210345  0.86636374  0.85904879  1
  O  O70  1  0.24916430  0.63187334  0.85770322  1
  O  O71  1  0.75096232  0.63583299  0.85859631  1
  O  O72  1  0.01606362  0.84483662  0.41109649  1
  O  O73  1  0.51637716  0.84538602  0.41149993  1
  O  O74  1  0.40503596  0.97207046  0.41521970  1
  O  O75  1  0.90508738  0.97214618  0.41543154  1
  O  O76  1  0.08014495  0.18311832  0.41023300  1
  O  O77  1  0.58002244  0.18270175  0.41031282  1
  O  O78  1  0.01219646  0.18505817  0.91025982  1
  O  O79  1  0.51052225  0.18516150  0.91134310  1
  O  O80  1  0.08304088  0.98476641  0.90840500  1
  O  O81  1  0.58150502  0.97937667  0.91223336  1
  O  O82  1  0.40690189  0.83569098  0.91150008  1
  O  O83  1  0.90742529  0.83424539  0.91400534  1
  O  O84  1  0.48951393  0.16420464  0.58873379  1
  O  O85  1  0.99226811  0.16575681  0.59168244  1
  O  O86  1  0.09300355  0.02547152  0.58984016  1
  O  O87  1  0.59313133  0.02071154  0.58940084  1
  O  O88  1  0.41647650  0.81050538  0.59033270  1
  O  O89  1  0.91726956  0.81372504  0.58600208  1
  O  O90  1  0.48855470  0.81723617  0.09009650  1
  O  O91  1  0.98833459  0.81702676  0.08989075  1
  O  O92  1  0.41888038  0.02823321  0.08476537  1
  O  O93  1  0.91901916  0.02816963  0.08481523  1
  O  O94  1  0.09359139  0.15523471  0.08854797  1
  O  O95  1  0.59363770  0.15519028  0.08852541  1
  O  O96  1  0.34579726  0.17556482  0.74400096  1
  O  O97  1  0.84188918  0.16582507  0.74468600  1
  O  O98  1  0.23255408  0.31394085  0.74780501  1
  O  O99  1  0.74061453  0.31300489  0.74514929  1
  O  O100  1  0.41164554  0.51557835  0.74511086  1
  O  O101  1  0.91514114  0.52685434  0.74384246  1
  O  O102  1  0.34325024  0.51950945  0.24381589  1
  O  O103  1  0.84318200  0.51965885  0.24383853  1
  O  O104  1  0.41222181  0.29938166  0.24382046  1
  O  O105  1  0.91227028  0.29984059  0.24372715  1
  O  O106  1  0.23378504  0.15351996  0.24611669  1
  O  O107  1  0.73383821  0.15343234  0.24629190  1
  O  O108  1  0.31867334  0.49407317  0.92148373  1
  O  O109  1  0.81878953  0.49279174  0.92074796  1
  O  O110  1  0.42815935  0.36278551  0.92161691  1
  O  O111  1  0.92794693  0.35964962  0.92180003  1
  O  O112  1  0.25297465  0.14479589  0.92140965  1
  O  O113  1  0.75319971  0.14420989  0.92134545  1
  O  O114  1  0.31921972  0.14756442  0.41985208  1
  O  O115  1  0.81880156  0.14731560  0.42030600  1
  O  O116  1  0.25405298  0.36162054  0.42091700  1
  O  O117  1  0.75388372  0.35967384  0.42009197  1
  O  O118  1  0.42759503  0.49561454  0.41987395  1
  O  O119  1  0.92770629  0.49539608  0.41972535  1
  O  O120  1  0.18037490  0.50485922  0.08021893  1
  O  O121  1  0.68026296  0.50468373  0.08013128  1
  O  O122  1  0.07379267  0.63989389  0.07947101  1
  O  O123  1  0.57375415  0.63985536  0.07967401  1
  O  O124  1  0.24546091  0.85297614  0.07947731  1
  O  O125  1  0.74555285  0.85250592  0.08007868  1
  O  O126  1  0.17791110  0.85479416  0.57680059  1
  O  O127  1  0.67949969  0.85407517  0.57907453  1
  O  O128  1  0.24875570  0.64274844  0.57779933  1
  O  O129  1  0.74714551  0.63881086  0.57813797  1
  O  O130  1  0.07227146  0.50559480  0.57893717  1
  O  O131  1  0.57420036  0.50190031  0.57669960  1
  O  O132  1  0.15723175  0.84673166  0.25359206  1
  O  O133  1  0.65722967  0.84665569  0.25374700  1
  O  O134  1  0.26236764  0.70012649  0.25630174  1
  O  O135  1  0.76236976  0.70040530  0.25642830  1
  O  O136  1  0.08327181  0.48002834  0.25612110  1
  O  O137  1  0.58318981  0.48013545  0.25632371  1
  O  O138  1  0.15476835  0.46603922  0.75418611  1
  O  O139  1  0.65389565  0.47959990  0.75393600  1
  O  O140  1  0.08486882  0.68797013  0.75606073  1
  O  O141  1  0.58461187  0.69107131  0.75422958  1
  O  O142  1  0.26135656  0.82033152  0.75443737  1
  O  O143  1  0.76120450  0.83140239  0.75557744  1
loop_
_geom_bond_atom_site_label_1
_geom_bond_atom_site_label_2
_geom_bond_distance
_geom_bond_site_symmetry_2
Na0 O104 2.364937 1_565
Na0 O134 2.366200 1_555
Na0 O132 2.580874 1_555
Na0 O106 2.582742 1_565
Na0 O62 2.686231 1_555
Na0 O32 2.686944 1_565
Na0 O18 2.831542 1_555
Na0 O4 2.832760 1_565
Na1 O105 2.364044 1_555
Na1 O135 2.366255 1_545
Na1 O107 2.588058 1_555
Na1 O133 2.591048 1_545
Na1 O33 2.686160 1_555
Na1 O63 2.697476 1_545
Na1 O5 2.816884 1_555
Na1 O19 2.825953 1_545
Na2 O100 2.368571 1_555
Na2 O142 2.426530 1_555
Na2 O98 2.456341 1_555
Na2 O138 2.561491 1_555
Na2 O28 2.566750 1_555
Na2 O70 2.730522 1_555
Na2 O8 2.918621 1_555
Na2 O12 2.980266 1_555
Na3 O101 2.396888 1_555
Na3 O143 2.441028 1_555
Na3 O99 2.598733 1_555
Na3 O139 2.646193 1_555
Na3 O29 2.697344 1_555
Na3 O71 2.738878 1_555
Na3 O13 2.818484 1_555
Na3 O9 2.847715 1_555
Na4 O96 2.347259 1_555
Na4 O100 2.483536 1_555
Na4 O24 2.525976 1_555
Na4 O139 2.542519 1_555
Na4 O141 2.576636 1_555
Na4 O67 2.779362 1_555
Na4 O10 2.906466 1_555
Na4 O15 2.979351 1_555
Na5 O99 2.455076 1_555
Na5 O141 2.465810 1_545
Na5 O97 2.507727 1_555
Na5 O143 2.581749 1_545
Na5 O69 2.695383 1_545
Na5 O27 2.700257 1_555
Na5 O7 2.865358 1_555
Na5 O17 2.926195 1_545
Na6 O86 2.362054 1_555
Na6 O85 2.449578 1_455
Na6 O128 2.529650 1_555
Na6 O130 2.620316 1_555
Na6 O14 2.631917 1_555
Na6 O56 2.729580 1_555
Na6 O42 2.862006 1_555
Na6 O28 2.906517 1_555
Na7 O129 2.427807 1_555
Na7 O87 2.460673 1_555
Na7 O84 2.556262 1_555
Na7 O131 2.559521 1_555
Na7 O57 2.654514 1_555
Na7 O15 2.724674 1_555
Na7 O43 2.829324 1_555
Na7 O29 2.884797 1_555
Na8 O89 2.406571 1_455
Na8 O86 2.466509 1_565
Na8 O16 2.489752 1_555
Na8 O130 2.512304 1_555
Na8 O126 2.537753 1_555
Na8 O58 2.746570 1_555
Na8 O25 2.950139 1_455
Na8 O45 2.954087 1_455
Na9 O88 2.456945 1_555
Na9 O131 2.474839 1_555
Na9 O87 2.590077 1_565
Na9 O127 2.634429 1_555
Na9 O59 2.677607 1_555
Na9 O17 2.723444 1_555
Na9 O44 2.772764 1_555
Na9 O24 2.784109 1_555
Na10 O126 2.422047 1_555
Na10 O84 2.496144 1_565
Na10 O128 2.622073 1_555
Na10 O88 2.647697 1_555
Na10 O26 2.700014 1_565
Na10 O54 2.715268 1_555
Na10 O12 2.739699 1_555
Na10 O46 2.802671 1_565
Na11 O85 2.418407 1_565
Na11 O89 2.432452 1_555
Na11 O13 2.541039 1_555
Na11 O127 2.553882 1_555
Na11 O129 2.604773 1_555
Na11 O55 2.805622 1_555
Na11 O47 2.876280 1_565
Na11 O27 2.982358 1_565
Na12 O124 2.404420 1_555
Na12 O94 2.414590 1_565
Na12 O122 2.497284 1_555
Na12 O91 2.500100 1_455
Na12 O52 2.550422 1_554
Na12 O22 2.708299 1_555
Na13 O95 2.410890 1_565
Na13 O125 2.412952 1_555
Na13 O90 2.492243 1_555
Na13 O123 2.496249 1_555
Na13 O53 2.561945 1_554
Na13 O23 2.711317 1_555
Na14 O120 2.420253 1_555
Na14 O124 2.489485 1_555
Na14 O90 2.497908 1_555
Na14 O92 2.506020 1_565
Na14 O48 2.607549 1_554
Na14 O18 2.635724 1_555
Na15 O121 2.423762 1_555
Na15 O125 2.487484 1_555
Na15 O91 2.491299 1_555
Na15 O93 2.506621 1_565
Na15 O49 2.599555 1_554
Na15 O19 2.620518 1_555
Na16 O122 2.422785 1_555
Na16 O93 2.453998 1_455
Na16 O120 2.478562 1_555
Na16 O94 2.535248 1_555
Na16 O50 2.566428 1_554
Na16 O20 2.573318 1_555
Na17 O123 2.426875 1_555
Na17 O92 2.447109 1_555
Na17 O121 2.485483 1_555
Na17 O95 2.538555 1_555
Na17 O21 2.573382 1_555
Na17 O51 2.605585 1_554
Na18 O81 2.390167 1_555
Na18 O82 2.433372 1_555
Na18 O110 2.511583 1_555
Na18 O8 2.520164 1_555
Na18 O108 2.597400 1_555
Na18 O38 2.747563 1_556
Na18 O53 2.934432 1_555
Na18 O67 2.978165 1_555
Na19 O80 2.442751 1_655
Na19 O83 2.456674 1_555
Na19 O111 2.516771 1_555
Na19 O9 2.558679 1_555
Na19 O109 2.622238 1_555
Na19 O39 2.745082 1_556
Na19 O52 2.860293 1_655
Na19 O66 2.908185 1_655
Na20 O82 2.378012 1_545
Na20 O79 2.443601 1_555
Na20 O10 2.523255 1_555
Na20 O112 2.525446 1_555
Na20 O110 2.610378 1_555
Na20 O40 2.797383 1_556
Na20 O48 2.905250 1_545
Na20 O68 2.923326 1_545
Na21 O83 2.409316 1_545
Na21 O78 2.481687 1_655
Na21 O11 2.497155 1_555
Na21 O113 2.503395 1_555
Na21 O111 2.581975 1_555
Na21 O41 2.793734 1_556
Na21 O49 2.927429 1_545
Na21 O69 2.955228 1_545
Na22 O78 2.375628 1_555
Na22 O80 2.447976 1_545
Na22 O108 2.484400 1_555
Na22 O112 2.622048 1_555
Na22 O6 2.634369 1_555
Na22 O36 2.710250 1_556
Na22 O50 2.868211 1_555
Na22 O70 2.924502 1_555
Na23 O79 2.376109 1_555
Na23 O81 2.428570 1_545
Na23 O109 2.525051 1_555
Na23 O7 2.532042 1_555
Na23 O113 2.611581 1_555
Na23 O37 2.742504 1_556
Na23 O51 2.902904 1_555
Na23 O71 2.984064 1_555
Na24 O118 2.415241 1_555
Na24 O114 2.478439 1_555
Na24 O74 2.507913 1_545
Na24 O77 2.510833 1_555
Na24 O46 2.594354 1_555
Na24 O4 2.630093 1_555
Na25 O119 2.429376 1_555
Na25 O76 2.486999 1_655
Na25 O75 2.508792 1_545
Na25 O115 2.509625 1_555
Na25 O47 2.579980 1_555
Na25 O5 2.630661 1_555
Na26 O114 2.413309 1_555
Na26 O72 2.414661 1_545
Na26 O76 2.489245 1_555
Na26 O116 2.506943 1_555
Na26 O42 2.513352 1_555
Na26 O0 2.733960 1_555
Na27 O115 2.399151 1_555
Na27 O73 2.411546 1_545
Na27 O77 2.494542 1_555
Na27 O117 2.494872 1_555
Na27 O43 2.573296 1_555
Na27 O1 2.690643 1_555
Na28 O116 2.401349 1_555
Na28 O74 2.461699 1_555
Na28 O118 2.472410 1_555
Na28 O73 2.560083 1_555
Na28 O2 2.577380 1_555
Na28 O44 2.633443 1_555
Na29 O117 2.432678 1_555
Na29 O75 2.449358 1_555
Na29 O119 2.472565 1_555
Na29 O72 2.534973 1_655
Na29 O3 2.564060 1_555
Na29 O45 2.607222 1_555
Na30 O75 2.484191 1_445
Na30 O89 2.496858 1_445
Na30 O72 2.509228 1_545
Na30 O86 2.521229 1_555
Na30 O76 2.530035 1_555
Na30 O85 2.575692 1_455
Na31 O74 2.370626 1_555
Na31 O73 2.414899 1_555
Na31 O77 2.444553 1_565
Na31 O84 2.623668 1_565
Na31 O87 2.646298 1_565
Na31 O88 2.668629 1_555
Na32 O93 2.466606 1_455
Na32 O83 2.493337 1_444
Na32 O94 2.495963 1_555
Na32 O91 2.532726 1_445
Na32 O78 2.536706 1_554
Na32 O80 2.582448 1_544
Na33 O92 2.483365 1_556
Na33 O81 2.500225 1_545
Na33 O82 2.507331 1_545
Na33 O79 2.511787 1_555
Na33 O95 2.524623 1_556
Na33 O90 2.550421 1_546
Na34 O96 2.370120 1_555
Na34 O100 2.438346 1_555
Na34 O98 2.464937 1_555
Na34 O112 2.588402 1_555
Na34 O110 2.643340 1_555
Na34 O108 2.670077 1_555
Na35 O111 2.477978 1_555
Na35 O97 2.490071 1_555
Na35 O101 2.530096 1_555
Na35 O109 2.553106 1_555
Na35 O113 2.570450 1_555
Na35 O99 2.575760 1_555
Na36 O118 2.371819 1_555
Na36 O116 2.427707 1_555
Na36 O114 2.465378 1_555
Na36 O102 2.572432 1_555
Na36 O104 2.636343 1_555
Na36 O106 2.707344 1_555
Na37 O119 2.370613 1_555
Na37 O117 2.422926 1_555
Na37 O115 2.481828 1_555
Na37 O103 2.564142 1_555
Na37 O105 2.623958 1_555
Na37 O107 2.703659 1_555
Na38 O120 2.370984 1_555
Na38 O122 2.421658 1_555
Na38 O124 2.483096 1_555
Na38 O136 2.575805 1_555
Na38 O134 2.623944 1_555
Na38 O132 2.708550 1_555
Na39 O121 2.371404 1_555
Na39 O123 2.416144 1_555
Na39 O125 2.471607 1_555
Na39 O137 2.579845 1_555
Na39 O135 2.628263 1_555
Na39 O133 2.712011 1_555
Na40 O140 2.445307 1_555
Na40 O142 2.483767 1_555
Na40 O126 2.534784 1_555
Na40 O130 2.536645 1_555
Na40 O138 2.628048 1_555
Na40 O128 2.641395 1_555
Na41 O127 2.507245 1_555
Na41 O139 2.508226 1_555
Na41 O129 2.525569 1_555
Na41 O141 2.529320 1_555
Na41 O131 2.543051 1_555
Na41 O143 2.543758 1_555
Nb0 O12 1.937936 1_555
Nb0 O17 1.963034 1_555
Nb0 O15 1.982963 1_565
Nb0 O88 2.017429 1_555
Nb0 O84 2.043081 1_565
Nb0 O87 2.074128 1_565
Nb1 O25 1.906534 1_555
Nb1 O101 1.989087 1_555
Nb1 O29 1.998224 1_555
Nb1 O97 2.019384 1_555
Nb1 O27 2.021921 1_555
Nb1 O99 2.104391 1_555
Nb2 O30 1.885032 1_555
Nb2 O34 1.940762 1_555
Nb2 O102 1.966085 1_555
Nb2 O104 2.018084 1_555
Nb2 O32 2.019417 1_555
Nb2 O106 2.256455 1_555
Nb3 O31 1.884294 1_555
Nb3 O35 1.942666 1_555
Nb3 O103 1.965479 1_555
Nb3 O105 2.013761 1_555
Nb3 O33 2.020584 1_555
Nb3 O107 2.262119 1_555
Nb4 O40 1.943961 1_556
Nb4 O36 1.952749 1_556
Nb4 O38 1.967373 1_556
Nb4 O108 2.041265 1_555
Nb4 O112 2.057852 1_555
Nb4 O110 2.064562 1_555
Nb5 O41 1.932181 1_556
Nb5 O37 1.943313 1_556
Nb5 O39 1.967701 1_556
Nb5 O113 2.058341 1_555
Nb5 O109 2.064706 1_555
Nb5 O111 2.076178 1_555
Nb6 O54 1.943472 1_555
Nb6 O58 1.944616 1_555
Nb6 O56 1.985762 1_555
Nb6 O126 2.019243 1_555
Nb6 O128 2.065480 1_555
Nb6 O130 2.065801 1_555
Nb7 O55 1.928456 1_555
Nb7 O59 1.944125 1_555
Nb7 O57 1.964265 1_555
Nb7 O131 2.042878 1_555
Nb7 O129 2.068062 1_555
Nb7 O127 2.078558 1_555
Nb8 O64 1.882442 1_555
Nb8 O60 1.945213 1_555
Nb8 O136 1.963747 1_555
Nb8 O134 2.018026 1_555
Nb8 O62 2.020460 1_555
Nb8 O132 2.255805 1_555
Nb9 O65 1.886203 1_555
Nb9 O61 1.948204 1_555
Nb9 O137 1.960897 1_555
Nb9 O135 2.013031 1_555
Nb9 O63 2.023588 1_555
Nb9 O133 2.244454 1_555
Nb10 O68 1.888397 1_555
Nb10 O66 1.937047 1_555
Nb10 O140 1.983082 1_555
Nb10 O70 1.996795 1_555
Nb10 O142 2.065710 1_555
Nb10 O138 2.229556 1_555
Nb11 O69 1.944947 1_555
Nb11 O67 1.954713 1_555
Nb11 O71 1.955527 1_555
Nb11 O143 2.051919 1_555
Nb11 O141 2.073152 1_555
Nb11 O139 2.076897 1_555
Ga0 O3 1.910263 1_555
Ga0 O5 1.931687 1_565
Ga0 O75 1.984800 1_555
Ga0 O72 2.046442 1_655
Ga0 O76 2.049804 1_665
Ga0 O0 2.263187 1_665
Ga1 O2 1.901286 1_555
Ga1 O4 1.923128 1_565
Ga1 O74 1.987175 1_555
Ga1 O73 2.061702 1_555
Ga1 O77 2.064247 1_565
Ga1 O1 2.262341 1_565
Ga2 O11 1.915316 1_565
Ga2 O9 1.934580 1_555
Ga2 O83 1.990986 1_555
Ga2 O78 2.030879 1_665
Ga2 O80 2.032668 1_655
Ga2 O6 2.198216 1_665
Ga3 O8 1.954761 1_555
Ga3 O10 1.957724 1_565
Ga3 O7 1.977802 1_565
Ga3 O82 2.048664 1_555
Ga3 O79 2.052138 1_565
Ga3 O81 2.082497 1_555
Ga4 O16 1.912290 1_655
Ga4 O13 1.954883 1_555
Ga4 O89 1.990065 1_555
Ga4 O86 2.019630 1_665
Ga4 O85 2.037331 1_565
Ga4 O14 2.207178 1_665
Ga5 O20 1.907651 1_655
Ga5 O19 1.937020 1_545
Ga5 O93 1.979764 1_555
Ga5 O91 2.051177 1_545
Ga5 O94 2.057361 1_655
Ga5 O22 2.249530 1_645
Ga6 O21 1.910331 1_555
Ga6 O18 1.934137 1_545
Ga6 O92 1.974879 1_555
Ga6 O90 2.046161 1_545
Ga6 O95 2.059340 1_555
Ga6 O23 2.259166 1_545
Ga7 O26 1.885254 1_555
Ga7 O24 1.915733 1_555
Ga7 O28 1.967125 1_555
Ga7 O96 2.021362 1_555
Ga7 O100 2.105336 1_555
Ga7 O98 2.366713 1_555
Ga8 O42 1.948511 1_555
Ga8 O44 1.963709 1_555
Ga8 O46 1.968519 1_555
Ga8 O116 2.064861 1_555
Ga8 O114 2.068648 1_555
Ga8 O118 2.131357 1_555
Ga9 O45 1.937661 1_555
Ga9 O47 1.967300 1_555
Ga9 O43 1.981448 1_555
Ga9 O115 2.044794 1_555
Ga9 O117 2.078994 1_555
Ga9 O119 2.088351 1_555
Ga10 O48 1.941726 1_554
Ga10 O50 1.955363 1_554
Ga10 O52 1.986025 1_554
Ga10 O124 2.064285 1_555
Ga10 O122 2.076517 1_555
Ga10 O120 2.097966 1_555
Ga11 O51 1.944319 1_554
Ga11 O49 1.944505 1_554
Ga11 O53 1.953943 1_554
Ga11 O125 2.065755 1_555
Ga11 O123 2.070073 1_555
Ga11 O121 2.090588 1_555
O0 S0 1.470836 1_555
O1 S1 1.470433 1_555
O2 Si0 1.619611 1_555
O3 Si1 1.618658 1_555
O4 Si3 1.629013 1_555
O5 Si2 1.628813 1_655
O6 S2 1.477526 1_555
O7 Si4 1.611833 1_555
O8 Si6 1.616297 1_555
O9 Si5 1.623780 1_655
O10 Si7 1.626442 1_555
O11 Si8 1.613245 1_555
O12 Si7 1.691937 1_565
O13 Si8 1.622838 1_565
O14 S2 1.478264 1_555
O15 Si4 1.658548 1_555
O16 Si5 1.615153 1_555
O17 Si6 1.674318 1_555
O18 Si0 1.628172 1_555
O19 Si1 1.628251 1_555
O20 Si2 1.618145 1_555
O21 Si3 1.618508 1_555
O22 S0 1.472596 1_565
O23 S1 1.473208 1_565
O24 Si9 1.621593 1_555
O25 Si10 1.673157 1_555
O26 Si11 1.619944 1_555
O27 Si12 1.647079 1_555
O28 Si13 1.625071 1_555
O29 Si14 1.663362 1_555
O30 Si15 1.670122 1_555
O31 Si16 1.670298 1_555
O32 Si17 1.648956 1_555
O33 Si18 1.647177 1_555
O34 Si19 1.656305 1_555
O35 Si20 1.655407 1_555
O36 Si19 1.683426 1_555
O37 Si20 1.686726 1_555
O38 Si15 1.669374 1_555
O39 Si16 1.671819 1_555
O40 Si17 1.679550 1_555
O41 Si18 1.682158 1_555
O42 Si11 1.636340 1_555
O43 Si12 1.613833 1_555
O44 Si13 1.621480 1_555
O45 Si14 1.618338 1_555
O46 Si9 1.617626 1_555
O47 Si10 1.622208 1_555
O48 Si21 1.622332 1_555
O49 Si22 1.613406 1_555
O50 Si23 1.621767 1_555
O51 Si24 1.616618 1_555
O52 Si25 1.618180 1_555
O53 Si26 1.614120 1_555
O54 Si27 1.677353 1_555
O55 Si28 1.682526 1_555
O56 Si29 1.664938 1_555
O57 Si30 1.670722 1_555
O58 Si31 1.678734 1_555
O59 Si32 1.688288 1_555
O60 Si31 1.654186 1_555
O61 Si32 1.653102 1_555
O62 Si27 1.645603 1_555
O63 Si28 1.645431 1_555
O64 Si29 1.672846 1_555
O65 Si30 1.666024 1_555
O66 Si23 1.666868 1_555
O67 Si24 1.682235 1_555
O68 Si25 1.679574 1_555
O69 Si26 1.682868 1_555
O70 Si21 1.666226 1_555
O71 Si22 1.677579 1_555
O72 Si31 1.620518 1_555
O73 Si32 1.620728 1_555
O74 Si27 1.627704 1_555
O75 Si28 1.622576 1_555
O76 Si29 1.614387 1_555
O77 Si30 1.613170 1_555
O78 Si23 1.622772 1_555
O79 Si24 1.618487 1_555
O80 Si25 1.619794 1_555
O81 Si26 1.615878 1_555
O82 Si21 1.622644 1_555
O83 Si22 1.622482 1_555
O84 Si9 1.666812 1_555
O85 Si10 1.618849 1_555
O86 Si11 1.637785 1_555
O87 Si12 1.654706 1_555
O88 Si13 1.680811 1_555
O89 Si14 1.623405 1_555
O90 Si15 1.612393 1_555
O91 Si16 1.612397 1_555
O92 Si17 1.625423 1_555
O93 Si18 1.624040 1_555
O94 Si19 1.620587 1_555
O95 Si20 1.619140 1_555
O96 Si7 1.619321 1_555
O97 Si8 1.661309 1_555
O98 S2 1.493323 1_555
O99 Si4 1.643399 1_555
O100 Si6 1.622301 1_555
O101 Si5 1.686641 1_655
O102 Si0 1.665034 1_555
O103 Si1 1.665657 1_555
O104 Si3 1.682845 1_555
O105 Si2 1.686347 1_655
O106 S0 1.516942 1_555
O107 S1 1.515163 1_555
O108 Si21 1.668916 1_555
O109 Si22 1.656789 1_555
O110 Si24 1.661612 1_555
O111 Si23 1.663619 1_655
O112 Si25 1.652293 1_545
O113 Si26 1.663854 1_545
O114 Si27 1.618112 1_545
O115 Si28 1.618231 1_545
O116 Si29 1.612951 1_555
O117 Si30 1.609813 1_555
O118 Si32 1.613705 1_555
O119 Si31 1.616665 1_655
O120 Si19 1.615031 1_555
O121 Si20 1.614264 1_555
O122 Si16 1.610515 1_455
O123 Si15 1.611310 1_555
O124 Si17 1.618952 1_565
O125 Si18 1.616884 1_565
O126 Si11 1.697674 1_565
O127 Si12 1.658095 1_565
O128 Si13 1.664525 1_555
O129 Si14 1.667268 1_555
O130 Si10 1.652435 1_455
O131 Si9 1.662513 1_555
O132 S0 1.517338 1_565
O133 S1 1.518268 1_565
O134 Si0 1.684725 1_555
O135 Si1 1.687401 1_555
O136 Si2 1.665234 1_555
O137 Si3 1.666871 1_555
O138 S2 1.522958 1_555
O139 Si4 1.651544 1_555
O140 Si5 1.655848 1_555
O141 Si6 1.669716 1_555
O142 Si7 1.657355 1_565
O143 Si8 1.696858 1_565
