# generated using pymatgen
data_MgVSnO4
_symmetry_space_group_name_H-M   'P 1'
_cell_length_a   3.14207197
_cell_length_b   6.33040872
_cell_length_c   6.32304031
_cell_angle_alpha   92.61781731
_cell_angle_beta   60.23660803
_cell_angle_gamma   119.77722527
_symmetry_Int_Tables_number   1
_chemical_formula_structural   MgVSnO4
_chemical_formula_sum   'Mg1 V1 Sn1 O4'
_cell_volume   91.33308791
_cell_formula_units_Z   1
loop_
 _symmetry_equiv_pos_site_id
 _symmetry_equiv_pos_as_xyz
  1  'x, y, z'
loop_
 _atom_site_type_symbol
 _atom_site_label
 _atom_site_symmetry_multiplicity
 _atom_site_fract_x
 _atom_site_fract_y
 _atom_site_fract_z
 _atom_site_occupancy
  Mg  Mg0  1  0.00076229  0.69622639  0.69496593  1
  V  V0  1  0.50260530  0.42959318  0.42602734  1
  Sn  Sn0  1  0.00117195  0.03181489  0.02936272  1
  O  O0  1  0.50159841  0.18615294  0.18358564  1
  O  O1  1  0.38126709  0.70189460  0.31990828  1
  O  O2  1  0.50114047  0.84285899  0.84133469  1
  O  O3  1  0.62200149  0.32198601  0.69905040  1
loop_
_geom_bond_atom_site_label_1
_geom_bond_atom_site_label_2
_geom_bond_distance
_geom_bond_site_symmetry_2
Mg0 O2 2.026497 1_555
Mg0 O2 2.027072 1_455
Mg0 O3 2.050424 1_455
Mg0 O1 2.050580 1_555
O0 Sn0 2.070259 1_655
O0 Sn0 2.070576 1_555
O0 V0 2.123462 1_555
O1 Sn0 2.070767 1_665
O1 V0 2.139956 1_555
O1 V0 2.140850 1_455
O2 Sn0 2.273932 1_666
O2 Sn0 2.279115 1_566
O3 Sn0 2.070737 1_556
O3 V0 2.142255 1_555
O3 V0 2.143128 1_655
