# generated using pymatgen
data_Na6TiZn7(SO4)12
_symmetry_space_group_name_H-M   'P 1'
_cell_length_a   17.47510422
_cell_length_b   8.73514240
_cell_length_c   22.48594924
_cell_angle_alpha   89.96753281
_cell_angle_beta   90.03066225
_cell_angle_gamma   120.04599756
_symmetry_Int_Tables_number   1
_chemical_formula_structural   Na6TiZn7(SO4)12
_chemical_formula_sum   'Na18 Ti3 Zn21 S36 O144'
_cell_volume   2971.18744017
_cell_formula_units_Z   3
loop_
 _symmetry_equiv_pos_site_id
 _symmetry_equiv_pos_as_xyz
  1  'x, y, z'
loop_
 _atom_site_type_symbol
 _atom_site_label
 _atom_site_symmetry_multiplicity
 _atom_site_fract_x
 _atom_site_fract_y
 _atom_site_fract_z
 _atom_site_occupancy
  Na  Na0  1  0.31920227  0.63777741  0.74946914  1
  Na  Na1  1  0.65052556  0.33264273  0.58435571  1
  Na  Na2  1  0.98580163  0.66687763  0.91731797  1
  Na  Na3  1  0.66610137  0.30239932  0.91544433  1
  Na  Na4  1  0.16696783  0.03011895  0.41709668  1
  Na  Na5  1  0.66645596  0.02999334  0.41697770  1
  Na  Na6  1  0.99422512  0.00127115  0.49672519  1
  Na  Na7  1  0.48554993  0.98237030  0.50096520  1
  Na  Na8  1  0.00258141  0.01628213  0.99833803  1
  Na  Na9  1  0.49146999  0.98529648  0.99638179  1
  Na  Na10  1  0.33705815  0.32453914  0.83618705  1
  Na  Na11  1  0.83142348  0.31776439  0.82939217  1
  Na  Na12  1  0.33996837  0.34525751  0.33276449  1
  Na  Na13  1  0.84027035  0.34592948  0.33234006  1
  Na  Na14  1  0.16718937  0.66690103  0.16616010  1
  Na  Na15  1  0.66613121  0.66645475  0.16634956  1
  Na  Na16  1  0.16458582  0.67154127  0.66385566  1
  Na  Na17  1  0.66330647  0.67514945  0.66923226  1
  Ti  Ti0  1  0.00053153  0.00170224  0.64898131  1
  Ti  Ti1  1  0.00079280  0.00100708  0.14915800  1
  Ti  Ti2  1  0.49917764  0.99946104  0.14868093  1
  Zn  Zn0  1  0.99618091  0.99913280  0.34961505  1
  Zn  Zn1  1  0.49557846  0.99916911  0.34973438  1
  Zn  Zn2  1  0.00112935  0.00815113  0.84966993  1
  Zn  Zn3  1  0.49649064  0.99556600  0.84820420  1
  Zn  Zn4  1  0.49698035  0.99309453  0.65169371  1
  Zn  Zn5  1  0.33754137  0.33162158  0.68007715  1
  Zn  Zn6  1  0.83096200  0.32919041  0.68381792  1
  Zn  Zn7  1  0.33335922  0.33305215  0.18201828  1
  Zn  Zn8  1  0.83306936  0.33322108  0.18259653  1
  Zn  Zn9  1  0.33358893  0.33704741  0.98469104  1
  Zn  Zn10  1  0.83307858  0.32079453  0.98769871  1
  Zn  Zn11  1  0.33709028  0.34281363  0.48542055  1
  Zn  Zn12  1  0.84080773  0.34056430  0.48519175  1
  Zn  Zn13  1  0.16976854  0.66761555  0.01594576  1
  Zn  Zn14  1  0.66462658  0.66843720  0.01603378  1
  Zn  Zn15  1  0.16874557  0.66206986  0.51615434  1
  Zn  Zn16  1  0.66521607  0.67096613  0.51421570  1
  Zn  Zn17  1  0.16673741  0.66330365  0.31650512  1
  Zn  Zn18  1  0.66660981  0.66340051  0.31547381  1
  Zn  Zn19  1  0.16736772  0.67374660  0.81926066  1
  Zn  Zn20  1  0.66437754  0.66431775  0.81645266  1
  S  S0  1  0.14681505  0.00100359  0.25057648  1
  S  S1  1  0.64638119  0.00115378  0.25044625  1
  S  S2  1  0.35399943  0.70673097  0.24957866  1
  S  S3  1  0.85437807  0.70761704  0.24949822  1
  S  S4  1  0.99956632  0.29207376  0.24953145  1
  S  S5  1  0.49944619  0.29150479  0.24952117  1
  S  S6  1  0.14635098  0.29184697  0.74941020  1
  S  S7  1  0.64927758  0.29808964  0.75005265  1
  S  S8  1  0.99957139  0.70754184  0.75045987  1
  S  S9  1  0.50106698  0.70392418  0.74965678  1
  S  S10  1  0.35082259  0.00133177  0.75037011  1
  S  S11  1  0.85499845  0.00126701  0.74971464  1
  S  S12  1  0.48204768  0.33367367  0.58260621  1
  S  S13  1  0.98112413  0.33251738  0.58555124  1
  S  S14  1  0.18365344  0.03532190  0.58418338  1
  S  S15  1  0.68606382  0.03621536  0.58227898  1
  S  S16  1  0.33251672  0.63006788  0.58479177  1
  S  S17  1  0.83537533  0.63114431  0.58440819  1
  S  S18  1  0.48119654  0.63016152  0.08517589  1
  S  S19  1  0.98204841  0.63131974  0.08392629  1
  S  S20  1  0.33370221  0.03833882  0.08482525  1
  S  S21  1  0.83391884  0.03563789  0.08557677  1
  S  S22  1  0.18518837  0.33250516  0.08503212  1
  S  S23  1  0.68415976  0.33252960  0.08405227  1
  S  S24  1  0.31495732  0.66480456  0.91559635  1
  S  S25  1  0.81412668  0.66927787  0.91742206  1
  S  S26  1  0.01948825  0.37154851  0.91707206  1
  S  S27  1  0.51782646  0.37152376  0.91706538  1
  S  S28  1  0.16768045  0.96510315  0.91722178  1
  S  S29  1  0.66727582  0.96136207  0.91655157  1
  S  S30  1  0.31439886  0.96176897  0.41683365  1
  S  S31  1  0.81440627  0.96042787  0.41665003  1
  S  S32  1  0.16675873  0.37139934  0.41616244  1
  S  S33  1  0.66729103  0.37161437  0.41746175  1
  S  S34  1  0.01926797  0.66409663  0.41642176  1
  S  S35  1  0.51794218  0.66488441  0.41503763  1
  O  O0  1  0.10765984  0.02370934  0.30580633  1
  O  O1  1  0.60765692  0.02389140  0.30583690  1
  O  O2  1  0.40621346  0.78560370  0.30354421  1
  O  O3  1  0.90642165  0.78617466  0.30359794  1
  O  O4  1  0.48793713  0.18851356  0.30362036  1
  O  O5  1  0.98751659  0.18822727  0.30360080  1
  O  O6  1  0.10665762  0.18759052  0.80336934  1
  O  O7  1  0.60766602  0.19253967  0.80470402  1
  O  O8  1  0.48516947  0.78409769  0.80296040  1
  O  O9  1  0.98812397  0.78505351  0.80594445  1
  O  O10  1  0.40370371  0.02699999  0.80450151  1
  O  O11  1  0.90655813  0.02466002  0.80373711  1
  O  O12  1  0.39076926  0.96889803  0.69702367  1
  O  O13  1  0.90440133  0.98486202  0.69608045  1
  O  O14  1  0.08948295  0.19624446  0.69569171  1
  O  O15  1  0.59708582  0.21539668  0.69513464  1
  O  O16  1  0.00802191  0.82590639  0.69773224  1
  O  O17  1  0.51309270  0.80910623  0.69545118  1
  O  O18  1  0.40285075  0.82332369  0.19584863  1
  O  O19  1  0.90299280  0.82363436  0.19594767  1
  O  O20  1  0.00807747  0.19385797  0.19575777  1
  O  O21  1  0.50804009  0.19365945  0.19578272  1
  O  O22  1  0.08752700  0.98392666  0.19778316  1
  O  O23  1  0.58754942  0.98403271  0.19774892  1
  O  O24  1  0.44364583  0.35997271  0.63727479  1
  O  O25  1  0.93964259  0.35843593  0.63832183  1
  O  O26  1  0.23893892  0.12220002  0.63620538  1
  O  O27  1  0.74058812  0.12208064  0.63531772  1
  O  O28  1  0.32103847  0.52820946  0.64067317  1
  O  O29  1  0.81994979  0.51930881  0.63725865  1
  O  O30  1  0.44099617  0.52319785  0.13845178  1
  O  O31  1  0.93866306  0.52004930  0.13592816  1
  O  O32  1  0.32053530  0.11786968  0.13836074  1
  O  O33  1  0.82076232  0.11839172  0.13822233  1
  O  O34  1  0.23837123  0.35867460  0.13837774  1
  O  O35  1  0.73984573  0.35710505  0.13598241  1
  O  O36  1  0.22028902  0.29464318  0.03109608  1
  O  O37  1  0.71872191  0.29795560  0.02825914  1
  O  O38  1  0.42738247  0.55979340  0.03110016  1
  O  O39  1  0.92963670  0.56223798  0.02822335  1
  O  O40  1  0.35215386  0.14697615  0.03108388  1
  O  O41  1  0.85359472  0.14332166  0.03107347  1
  O  O42  1  0.21687036  0.13749330  0.52842126  1
  O  O43  1  0.72562979  0.14644657  0.52743119  1
  O  O44  1  0.34377455  0.54389327  0.53183232  1
  O  O45  1  0.85335446  0.55996093  0.53039200  1
  O  O46  1  0.42870879  0.30783769  0.52900560  1
  O  O47  1  0.92783095  0.29311393  0.53111035  1
  O  O48  1  0.27211806  0.69021665  0.96816076  1
  O  O49  1  0.77410088  0.69254105  0.97153529  1
  O  O50  1  0.07179130  0.45299314  0.97115239  1
  O  O51  1  0.57481404  0.45119208  0.97030778  1
  O  O52  1  0.15048185  0.84947043  0.96985182  1
  O  O53  1  0.65593714  0.85977340  0.97115510  1
  O  O54  1  0.27360363  0.85604807  0.47088793  1
  O  O55  1  0.77414771  0.85491877  0.47075172  1
  O  O56  1  0.15377972  0.45002224  0.47012091  1
  O  O57  1  0.65619851  0.44895457  0.47330571  1
  O  O58  1  0.07522436  0.69513405  0.46972316  1
  O  O59  1  0.57361623  0.69841002  0.46875857  1
  O  O60  1  0.05923840  0.64022808  0.36175489  1
  O  O61  1  0.55946748  0.64111413  0.36111585  1
  O  O62  1  0.25852445  0.88233052  0.36296871  1
  O  O63  1  0.75827029  0.88010732  0.36302697  1
  O  O64  1  0.17888921  0.47487258  0.36161376  1
  O  O65  1  0.67864438  0.47975682  0.36427029  1
  O  O66  1  0.05919884  0.48248463  0.86314077  1
  O  O67  1  0.55855630  0.47705453  0.86284609  1
  O  O68  1  0.17898191  0.88534065  0.86229885  1
  O  O69  1  0.68037479  0.88217432  0.86248535  1
  O  O70  1  0.26416042  0.64008607  0.85928419  1
  O  O71  1  0.75966200  0.63961987  0.86368638  1
  O  O72  1  0.01225123  0.82841859  0.41168125  1
  O  O73  1  0.51127635  0.82925222  0.41005560  1
  O  O74  1  0.40332998  0.98217105  0.41112975  1
  O  O75  1  0.90352732  0.98138681  0.41113238  1
  O  O76  1  0.08754341  0.18811449  0.41163338  1
  O  O77  1  0.58795878  0.19011917  0.41255959  1
  O  O78  1  0.00823864  0.19266580  0.91128921  1
  O  O79  1  0.51155476  0.19392443  0.91184940  1
  O  O80  1  0.08483369  0.97749515  0.91230069  1
  O  O81  1  0.58847800  0.98577436  0.91162182  1
  O  O82  1  0.40414904  0.82594000  0.91137590  1
  O  O83  1  0.90543654  0.82384920  0.91187502  1
  O  O84  1  0.49386143  0.17551250  0.58752591  1
  O  O85  1  0.99053336  0.16777317  0.59458300  1
  O  O86  1  0.09241854  0.01796955  0.59407614  1
  O  O87  1  0.59791834  0.02441911  0.58756778  1
  O  O88  1  0.41309710  0.80845636  0.58853887  1
  O  O89  1  0.91525123  0.81331041  0.59336313  1
  O  O90  1  0.49069399  0.81358467  0.09397113  1
  O  O91  1  0.99068631  0.81292605  0.09297784  1
  O  O92  1  0.41594499  0.01878554  0.09355205  1
  O  O93  1  0.91596012  0.01753922  0.09404357  1
  O  O94  1  0.09327867  0.16736945  0.09396947  1
  O  O95  1  0.59367524  0.16792870  0.09308251  1
  O  O96  1  0.33944719  0.15712148  0.74395988  1
  O  O97  1  0.84725657  0.16073879  0.74258569  1
  O  O98  1  0.23540959  0.31465887  0.74232606  1
  O  O99  1  0.73833701  0.31436392  0.74614273  1
  O  O100  1  0.41864013  0.52611042  0.74487184  1
  O  O101  1  0.92024389  0.53300079  0.74255239  1
  O  O102  1  0.34536434  0.53160764  0.24193397  1
  O  O103  1  0.84582143  0.53229028  0.24185659  1
  O  O104  1  0.42062492  0.30914305  0.24236770  1
  O  O105  1  0.92057799  0.30956403  0.24220232  1
  O  O106  1  0.23395299  0.15945207  0.24280422  1
  O  O107  1  0.73393206  0.16003815  0.24283848  1
  O  O108  1  0.32357322  0.50473897  0.92148170  1
  O  O109  1  0.82334125  0.50630971  0.92219088  1
  O  O110  1  0.42925076  0.35104981  0.92365191  1
  O  O111  1  0.93049808  0.35880932  0.92197395  1
  O  O112  1  0.24607984  0.14186619  0.92369579  1
  O  O113  1  0.74672474  0.14531961  0.92131880  1
  O  O114  1  0.32111977  0.13943358  0.42223404  1
  O  O115  1  0.82126047  0.13816974  0.42168365  1
  O  O116  1  0.24567558  0.34708688  0.42109391  1
  O  O117  1  0.74643403  0.34808130  0.42129084  1
  O  O118  1  0.42917741  0.50760527  0.42103581  1
  O  O119  1  0.92983482  0.50684040  0.42229062  1
  O  O120  1  0.17103833  0.48461355  0.07890800  1
  O  O121  1  0.67108340  0.48582278  0.07886068  1
  O  O122  1  0.07165804  0.65752947  0.07862090  1
  O  O123  1  0.57135328  0.65773641  0.07929685  1
  O  O124  1  0.25717778  0.85794148  0.07879277  1
  O  O125  1  0.75699712  0.85667896  0.07925412  1
  O  O126  1  0.16942858  0.85501307  0.57945561  1
  O  O127  1  0.67593140  0.85877697  0.57712376  1
  O  O128  1  0.25253314  0.64822185  0.57987052  1
  O  O129  1  0.75579983  0.64932452  0.57848658  1
  O  O130  1  0.07059156  0.48544971  0.57947242  1
  O  O131  1  0.57332548  0.49170967  0.57760833  1
  O  O132  1  0.15072720  0.83627145  0.25070364  1
  O  O133  1  0.65107628  0.83692922  0.25074575  1
  O  O134  1  0.26757369  0.69847911  0.25065710  1
  O  O135  1  0.76769470  0.69861367  0.25064000  1
  O  O136  1  0.08183228  0.46488877  0.25034453  1
  O  O137  1  0.58219761  0.46476590  0.25020711  1
  O  O138  1  0.15301399  0.46756499  0.75058229  1
  O  O139  1  0.65873652  0.47653670  0.75434945  1
  O  O140  1  0.08138656  0.69864332  0.75078099  1
  O  O141  1  0.58010878  0.68436333  0.75538092  1
  O  O142  1  0.26224295  0.83471868  0.75538118  1
  O  O143  1  0.76847220  0.83805497  0.75015979  1
loop_
_geom_bond_atom_site_label_1
_geom_bond_atom_site_label_2
_geom_bond_distance
_geom_bond_site_symmetry_2
Na0 O100 2.383139 1_555
Na0 O142 2.383910 1_555
Na0 O98 2.449071 1_555
Na0 O138 2.514252 1_555
Na0 O28 2.633500 1_555
Na0 O70 2.654247 1_555
Na0 O12 2.774178 1_555
Na0 O8 2.788899 1_555
Na1 O87 2.370763 1_555
Na1 O84 2.370930 1_555
Na1 O131 2.377041 1_555
Na1 O129 2.440855 1_555
Na1 O15 2.677271 1_555
Na1 O57 2.678422 1_555
Na1 O29 2.829081 1_555
Na1 O43 2.854478 1_555
Na2 O111 2.362631 1_555
Na2 O80 2.380620 1_655
Na2 O83 2.407353 1_555
Na2 O109 2.460063 1_555
Na2 O39 2.668251 1_556
Na2 O9 2.700777 1_555
Na2 O52 2.761014 1_655
Na2 O66 2.792175 1_655
Na3 O79 2.373921 1_555
Na3 O81 2.395851 1_545
Na3 O113 2.412593 1_555
Na3 O109 2.417580 1_555
Na3 O7 2.680105 1_555
Na3 O37 2.704682 1_556
Na3 O51 2.799328 1_555
Na3 O71 2.807128 1_555
Na4 O114 2.367647 1_555
Na4 O72 2.378797 1_545
Na4 O116 2.398445 1_555
Na4 O76 2.400839 1_555
Na4 O42 2.662265 1_555
Na4 O0 2.697946 1_555
Na4 O62 2.789270 1_545
Na4 O58 2.798801 1_545
Na5 O115 2.379566 1_555
Na5 O73 2.385557 1_545
Na5 O77 2.401882 1_555
Na5 O117 2.407170 1_555
Na5 O43 2.686885 1_555
Na5 O1 2.691975 1_555
Na5 O59 2.769416 1_545
Na5 O63 2.804941 1_545
Na6 O75 2.442930 1_545
Na6 O76 2.513689 1_655
Na6 O72 2.552661 1_645
Na6 O89 2.655628 1_545
Na6 O85 2.656898 1_555
Na6 O86 2.739211 1_655
Na7 O88 2.421102 1_555
Na7 O74 2.477769 1_555
Na7 O84 2.532586 1_565
Na7 O73 2.603070 1_555
Na7 O87 2.656583 1_565
Na7 O77 2.682376 1_565
Na8 O78 2.461548 1_555
Na8 O80 2.532786 1_545
Na8 O83 2.574875 1_445
Na8 O94 2.604381 1_556
Na8 O93 2.634928 1_456
Na8 O91 2.711771 1_446
Na9 O82 2.406780 1_555
Na9 O79 2.532506 1_565
Na9 O81 2.550030 1_555
Na9 O92 2.644234 1_566
Na9 O90 2.653534 1_556
Na9 O95 2.758542 1_566
Na10 O110 2.478052 1_555
Na10 O112 2.530830 1_555
Na10 O96 2.550644 1_555
Na10 O108 2.566523 1_555
Na10 O100 2.614219 1_555
Na10 O98 2.731276 1_555
Na11 O99 2.469739 1_555
Na11 O97 2.480246 1_555
Na11 O113 2.549433 1_555
Na11 O101 2.614145 1_555
Na11 O111 2.614442 1_555
Na11 O109 2.706250 1_555
Na12 O118 2.483364 1_555
Na12 O104 2.582035 1_555
Na12 O102 2.583172 1_555
Na12 O116 2.586543 1_555
Na12 O114 2.606128 1_555
Na12 O106 2.673391 1_555
Na13 O119 2.512605 1_555
Na13 O105 2.574613 1_555
Na13 O103 2.576311 1_555
Na13 O117 2.593123 1_555
Na13 O115 2.613951 1_555
Na13 O107 2.667995 1_555
Na14 O134 2.505165 1_555
Na14 O136 2.507100 1_555
Na14 O132 2.513074 1_555
Na14 O124 2.547319 1_555
Na14 O120 2.549535 1_555
Na14 O122 2.555012 1_555
Na15 O137 2.494451 1_555
Na15 O133 2.506813 1_555
Na15 O135 2.513769 1_555
Na15 O123 2.539887 1_555
Na15 O125 2.544667 1_555
Na15 O121 2.551015 1_555
Na16 O126 2.457288 1_555
Na16 O130 2.503407 1_555
Na16 O128 2.507376 1_555
Na16 O140 2.517661 1_555
Na16 O138 2.579584 1_555
Na16 O142 2.596782 1_555
Na17 O141 2.448087 1_555
Na17 O143 2.468675 1_555
Na17 O139 2.556779 1_555
Na17 O127 2.559987 1_555
Na17 O131 2.600369 1_555
Na17 O129 2.682582 1_555
O0 S0 1.478823 1_555
O0 Zn0 2.096331 1_445
O1 S1 1.477992 1_555
O1 Zn1 2.106011 1_545
O2 S2 1.466280 1_555
O2 Zn1 2.020102 1_555
O3 S3 1.467193 1_555
O3 Zn0 2.017422 1_555
O4 S5 1.465416 1_555
O4 Zn1 2.011878 1_545
O5 S4 1.467349 1_555
O5 Zn0 2.017461 1_545
O6 S6 1.466196 1_555
O6 Zn2 2.011761 1_555
O7 S7 1.489062 1_555
O7 Zn3 2.084320 1_545
O8 S9 1.483365 1_555
O8 Zn3 2.030337 1_555
O9 S8 1.480497 1_555
O9 Zn2 2.091542 1_665
O10 S10 1.475610 1_555
O10 Zn3 2.028313 1_545
O11 S11 1.464215 1_555
O11 Zn2 2.013814 1_655
O12 S10 1.485197 1_565
O12 Zn4 2.034080 1_555
O13 S11 1.531511 1_565
O13 Ti0 1.928614 1_665
O14 S6 1.520801 1_555
O14 Ti0 1.939672 1_555
O15 S7 1.489507 1_555
O15 Zn4 2.093747 1_545
O16 S8 1.530504 1_455
O16 Ti0 1.943220 1_565
O17 S9 1.476349 1_555
O17 Zn4 2.020255 1_555
O18 S2 1.534524 1_555
O18 Ti2 1.931900 1_555
O19 S3 1.528485 1_555
O19 Ti1 1.943403 1_665
O20 S4 1.532762 1_455
O20 Ti1 1.933674 1_555
O21 S5 1.530715 1_555
O21 Ti2 1.939619 1_545
O22 S0 1.532654 1_565
O22 Ti1 1.933793 1_565
O23 S1 1.525900 1_565
O23 Ti2 1.956227 1_555
O24 S12 1.473029 1_555
O24 Zn5 1.991849 1_555
O25 S13 1.466394 1_555
O25 Zn6 2.057850 1_555
O26 S14 1.463984 1_555
O26 Zn5 2.032831 1_555
O27 S15 1.475444 1_555
O27 Zn6 2.023796 1_555
O28 S16 1.493680 1_555
O28 Zn5 2.076296 1_555
O29 S17 1.474652 1_555
O29 Zn6 2.051561 1_555
O30 S18 1.464225 1_555
O30 Zn7 2.031765 1_555
O31 S19 1.465791 1_555
O31 Zn8 2.038150 1_555
O32 S20 1.464927 1_555
O32 Zn7 2.031512 1_555
O33 S21 1.464387 1_555
O33 Zn8 2.039875 1_555
O34 S22 1.463295 1_555
O34 Zn7 2.034314 1_555
O35 S23 1.465073 1_555
O35 Zn8 2.033320 1_555
O36 S22 1.470005 1_555
O36 Zn9 2.100834 1_554
O37 S23 1.487892 1_555
O37 Zn10 2.113695 1_554
O38 S18 1.470199 1_555
O38 Zn9 2.090028 1_554
O39 S19 1.489303 1_555
O39 Zn10 2.135994 1_554
O40 S20 1.468842 1_555
O40 Zn9 2.118289 1_554
O41 S21 1.476576 1_555
O41 Zn10 2.009366 1_554
O42 S14 1.478640 1_555
O42 Zn11 2.189120 1_555
O43 S15 1.503041 1_555
O43 Zn12 2.100248 1_555
O44 S16 1.474111 1_555
O44 Zn11 1.996100 1_555
O45 S17 1.468846 1_555
O45 Zn12 2.082089 1_555
O46 S12 1.469985 1_555
O46 Zn11 2.026078 1_555
O47 S13 1.470583 1_555
O47 Zn12 2.044404 1_555
O48 S24 1.474582 1_555
O48 Zn13 2.010150 1_556
O49 S25 1.467864 1_555
O49 Zn14 2.074565 1_556
O50 S26 1.472733 1_555
O50 Zn13 2.060741 1_556
O51 S27 1.488292 1_555
O51 Zn14 2.034597 1_556
O52 S28 1.485301 1_555
O52 Zn13 2.060382 1_556
O53 S29 1.468740 1_555
O53 Zn14 2.021608 1_556
O54 S30 1.476072 1_555
O54 Zn15 2.038548 1_555
O55 S31 1.474670 1_555
O55 Zn16 2.024346 1_555
O56 S32 1.467124 1_555
O56 Zn15 2.021761 1_555
O57 S33 1.484296 1_555
O57 Zn16 2.080333 1_555
O58 S34 1.483172 1_555
O58 Zn15 2.077228 1_555
O59 S35 1.485034 1_555
O59 Zn16 2.011662 1_555
O60 S34 1.479669 1_555
O60 Zn17 2.056090 1_555
O61 S35 1.480513 1_555
O61 Zn18 2.057577 1_555
O62 S30 1.491009 1_555
O62 Zn17 2.062086 1_555
O63 S31 1.489605 1_555
O63 Zn18 2.063128 1_555
O64 S32 1.474292 1_555
O64 Zn17 2.032495 1_555
O65 S33 1.474301 1_555
O65 Zn18 2.038885 1_555
O66 S26 1.489096 1_555
O66 Zn19 2.043418 1_555
O67 S27 1.478300 1_555
O67 Zn20 2.038305 1_555
O68 S28 1.479421 1_555
O68 Zn19 2.005027 1_555
O69 S29 1.472643 1_555
O69 Zn20 2.059172 1_555
O70 S24 1.498371 1_555
O70 Zn19 2.062412 1_555
O71 S25 1.478237 1_555
O71 Zn20 2.074787 1_555
O72 S34 1.504248 1_555
O72 Zn0 2.160304 1_455
O73 S35 1.501618 1_555
O73 Zn1 2.126749 1_555
O74 S30 1.478587 1_555
O74 Zn1 2.071011 1_555
O75 S31 1.479548 1_555
O75 Zn0 2.076026 1_555
O76 S32 1.506844 1_555
O76 Zn0 2.140055 1_445
O77 S33 1.498877 1_555
O77 Zn1 2.165120 1_545
O78 S26 1.479784 1_555
O78 Zn2 2.082028 1_555
O79 S27 1.504128 1_555
O79 Zn3 2.159924 1_545
O80 S28 1.508875 1_555
O80 Zn2 2.141093 1_565
O81 S29 1.499249 1_555
O81 Zn3 2.181723 1_555
O82 S24 1.490850 1_555
O82 Zn3 2.103072 1_555
O83 S25 1.492407 1_555
O83 Zn2 2.156089 1_665
O84 S12 1.499661 1_555
O84 Zn4 2.169841 1_545
O85 S13 1.541353 1_555
O85 Ti0 1.970458 1_655
O86 S14 1.540363 1_555
O86 Ti0 1.973889 1_555
O87 S15 1.496223 1_555
O87 Zn4 2.187315 1_545
O88 S16 1.490251 1_555
O88 Zn4 2.097515 1_555
O89 S17 1.515530 1_555
O89 Ti0 2.009374 1_665
O90 S18 1.538774 1_555
O90 Ti2 1.983093 1_555
O91 S19 1.530125 1_555
O91 Ti1 2.009415 1_665
O92 S20 1.542304 1_555
O92 Ti2 1.981017 1_545
O93 S21 1.530792 1_555
O93 Ti1 1.991637 1_655
O94 S22 1.542978 1_555
O94 Ti1 1.977894 1_555
O95 S23 1.527140 1_555
O95 Ti2 2.005527 1_545
O96 S10 1.477441 1_555
O96 Zn5 2.106248 1_555
O97 S11 1.474083 1_555
O97 Zn6 2.099867 1_555
O98 S6 1.475418 1_555
O98 Zn5 2.214540 1_555
O99 S7 1.492870 1_555
O99 Zn6 2.095961 1_555
O100 S9 1.502835 1_555
O100 Zn5 2.146400 1_555
O101 S8 1.470175 1_555
O101 Zn6 2.137043 1_555
O102 S2 1.470204 1_555
O102 Zn7 2.122565 1_555
O103 S3 1.472528 1_555
O103 Zn8 2.112652 1_555
O104 S5 1.469395 1_555
O104 Zn7 2.127688 1_555
O105 S4 1.471978 1_555
O105 Zn8 2.119328 1_555
O106 S0 1.467801 1_555
O106 Zn7 2.132533 1_555
O107 S1 1.473061 1_555
O107 Zn8 2.121442 1_555
O108 S24 1.485164 1_555
O108 Zn9 2.109637 1_555
O109 S25 1.514357 1_555
O109 Zn10 2.257849 1_555
O110 S27 1.474051 1_555
O110 Zn9 2.119168 1_555
O111 S26 1.506581 1_655
O111 Zn10 2.151433 1_555
O112 S28 1.471047 1_545
O112 Zn9 2.125089 1_555
O113 S29 1.512334 1_545
O113 Zn10 2.130373 1_555
O114 S30 1.501561 1_545
O114 Zn11 2.181436 1_555
O115 S31 1.500562 1_545
O115 Zn12 2.163146 1_555
O116 S32 1.500785 1_555
O116 Zn11 2.168576 1_555
O117 S33 1.498999 1_555
O117 Zn12 2.212361 1_555
O118 S35 1.475728 1_555
O118 Zn11 2.106696 1_555
O119 S34 1.482250 1_655
O119 Zn12 2.065845 1_555
O120 S22 1.474545 1_555
O120 Zn13 2.143167 1_555
O121 S23 1.471418 1_555
O121 Zn14 2.174988 1_555
O122 S19 1.469682 1_455
O122 Zn13 2.187368 1_555
O123 S18 1.475757 1_555
O123 Zn14 2.130461 1_555
O124 S20 1.476374 1_565
O124 Zn13 2.133448 1_555
O125 S21 1.471947 1_565
O125 Zn14 2.161598 1_555
O126 S14 1.470336 1_565
O126 Zn15 2.202104 1_555
O127 S15 1.473937 1_565
O127 Zn16 2.102891 1_555
O128 S16 1.487544 1_555
O128 Zn15 2.094303 1_555
O129 S17 1.482434 1_555
O129 Zn16 2.219681 1_555
O130 S13 1.468395 1_455
O130 Zn15 2.167854 1_555
O131 S12 1.502536 1_555
O131 Zn16 2.131741 1_555
O132 S0 1.474378 1_565
O132 Zn17 2.229498 1_555
O133 S1 1.477325 1_565
O133 Zn18 2.213332 1_555
O134 S2 1.475740 1_555
O134 Zn17 2.202708 1_555
O135 S3 1.477230 1_555
O135 Zn18 2.190546 1_555
O136 S4 1.473993 1_455
O136 Zn17 2.200905 1_555
O137 S5 1.479978 1_555
O137 Zn18 2.185835 1_555
O138 S6 1.480307 1_555
O138 Zn19 2.289502 1_555
O139 S7 1.486113 1_555
O139 Zn20 2.119170 1_555
O140 S8 1.470202 1_455
O140 Zn19 2.236142 1_555
O141 S9 1.479789 1_555
O141 Zn20 2.083467 1_555
O142 S10 1.506978 1_565
O142 Zn19 2.110672 1_555
O143 S11 1.469786 1_565
O143 Zn20 2.251684 1_555
