# generated using pymatgen
data_Na3LaNbSi2PO12
_symmetry_space_group_name_H-M   'P 1'
_cell_length_a   16.47639973
_cell_length_b   28.34242736
_cell_length_c   9.25315567
_cell_angle_alpha   90.00000000
_cell_angle_beta   125.79977385
_cell_angle_gamma   90.00000000
_symmetry_Int_Tables_number   1
_chemical_formula_structural   Na3LaNbSi2PO12
_chemical_formula_sum   'Na36 La12 Nb12 Si24 P12 O144'
_cell_volume   3504.65679814
_cell_formula_units_Z   12
loop_
 _symmetry_equiv_pos_site_id
 _symmetry_equiv_pos_as_xyz
  1  'x, y, z'
loop_
 _atom_site_type_symbol
 _atom_site_label
 _atom_site_symmetry_multiplicity
 _atom_site_fract_x
 _atom_site_fract_y
 _atom_site_fract_z
 _atom_site_occupancy
  Na  Na0  1  0.24576984  0.25662694  0.99592915  1
  Na  Na1  1  0.23993712  0.58741504  0.00103358  1
  Na  Na2  1  0.23922261  0.92007709  0.99952497  1
  Na  Na3  1  0.74576984  0.24337306  0.49592915  1
  Na  Na4  1  0.73922261  0.57992291  0.49952497  1
  Na  Na5  1  0.73993712  0.91258496  0.50103358  1
  Na  Na6  1  0.73993712  0.08741504  0.00103358  1
  Na  Na7  1  0.73922261  0.42007709  0.99952497  1
  Na  Na8  1  0.74576984  0.75662694  0.99592915  1
  Na  Na9  1  0.23922261  0.07992291  0.49952497  1
  Na  Na10  1  0.23993712  0.41258496  0.50103358  1
  Na  Na11  1  0.24576984  0.74337306  0.49592915  1
  Na  Na12  1  0.49350306  0.02846907  0.75552935  1
  Na  Na13  1  0.49562801  0.36233001  0.76289927  1
  Na  Na14  1  0.49294855  0.69504638  0.75543252  1
  Na  Na15  1  0.49294855  0.30495362  0.25543252  1
  Na  Na16  1  0.49562801  0.63766999  0.26289927  1
  Na  Na17  1  0.49350306  0.97153093  0.25552935  1
  Na  Na18  1  0.99294855  0.19504638  0.75543252  1
  Na  Na19  1  0.99350306  0.52846907  0.75552935  1
  Na  Na20  1  0.99562801  0.86233001  0.76289927  1
  Na  Na21  1  0.99562801  0.13766999  0.26289927  1
  Na  Na22  1  0.99350306  0.47153093  0.25552935  1
  Na  Na23  1  0.99294855  0.80495362  0.25543252  1
  Na  Na24  1  0.82519060  0.64230637  0.20442590  1
  Na  Na25  1  0.82298957  0.97551065  0.20686334  1
  Na  Na26  1  0.18611332  0.30442371  0.29167092  1
  Na  Na27  1  0.18611332  0.69557629  0.79167092  1
  Na  Na28  1  0.82298957  0.02448935  0.70686334  1
  Na  Na29  1  0.82519060  0.35769363  0.70442590  1
  Na  Na30  1  0.32519060  0.14230637  0.20442590  1
  Na  Na31  1  0.32298957  0.47551065  0.20686334  1
  Na  Na32  1  0.68611332  0.80442371  0.29167092  1
  Na  Na33  1  0.68611332  0.19557629  0.79167092  1
  Na  Na34  1  0.32298957  0.52448935  0.70686334  1
  Na  Na35  1  0.32519060  0.85769363  0.70442590  1
  La  La0  1  0.90058484  0.25192725  0.95223355  1
  La  La1  1  0.89046094  0.58420444  0.92543191  1
  La  La2  1  0.88962384  0.91515706  0.93131354  1
  La  La3  1  0.88962384  0.08484294  0.43131354  1
  La  La4  1  0.89046094  0.41579556  0.42543191  1
  La  La5  1  0.90058484  0.74807275  0.45223355  1
  La  La6  1  0.39046094  0.08420444  0.92543191  1
  La  La7  1  0.38962384  0.41515706  0.93131354  1
  La  La8  1  0.40058484  0.75192725  0.95223355  1
  La  La9  1  0.40058484  0.24807275  0.45223355  1
  La  La10  1  0.38962384  0.58484294  0.43131354  1
  La  La11  1  0.39046094  0.91579556  0.42543191  1
  Nb  Nb0  1  0.10521310  0.24779705  0.56163952  1
  Nb  Nb1  1  0.10576471  0.58212470  0.56307618  1
  Nb  Nb2  1  0.10582875  0.91650257  0.56355435  1
  Nb  Nb3  1  0.10582875  0.08349743  0.06355435  1
  Nb  Nb4  1  0.10576471  0.41787530  0.06307618  1
  Nb  Nb5  1  0.10521310  0.75220295  0.06163952  1
  Nb  Nb6  1  0.60576471  0.08212470  0.56307618  1
  Nb  Nb7  1  0.60582875  0.41650257  0.56355435  1
  Nb  Nb8  1  0.60521310  0.74779705  0.56163952  1
  Nb  Nb9  1  0.60521310  0.25220295  0.06163952  1
  Nb  Nb10  1  0.60582875  0.58349743  0.06355435  1
  Nb  Nb11  1  0.60576471  0.91787530  0.06307618  1
  Si  Si0  1  0.34237676  0.29288174  0.74372845  1
  Si  Si1  1  0.34813631  0.62707287  0.76312028  1
  Si  Si2  1  0.34726787  0.95915882  0.75470454  1
  Si  Si3  1  0.64495295  0.30665935  0.74409412  1
  Si  Si4  1  0.64086831  0.63805691  0.74013030  1
  Si  Si5  1  0.64271155  0.97293485  0.74101683  1
  Si  Si6  1  0.64271155  0.02706515  0.24101683  1
  Si  Si7  1  0.64086831  0.36194309  0.24013030  1
  Si  Si8  1  0.64495295  0.69334065  0.24409412  1
  Si  Si9  1  0.34726787  0.04084118  0.25470454  1
  Si  Si10  1  0.34813631  0.37292713  0.26312028  1
  Si  Si11  1  0.34237676  0.70711826  0.24372845  1
  Si  Si12  1  0.84813631  0.12707287  0.76312028  1
  Si  Si13  1  0.84726787  0.45915882  0.75470454  1
  Si  Si14  1  0.84237676  0.79288174  0.74372845  1
  Si  Si15  1  0.14086831  0.13805691  0.74013030  1
  Si  Si16  1  0.14271155  0.47293485  0.74101683  1
  Si  Si17  1  0.14495295  0.80665935  0.74409412  1
  Si  Si18  1  0.14495295  0.19334065  0.24409412  1
  Si  Si19  1  0.14271155  0.52706515  0.24101683  1
  Si  Si20  1  0.14086831  0.86194309  0.24013030  1
  Si  Si21  1  0.84237676  0.20711826  0.24372845  1
  Si  Si22  1  0.84726787  0.54084118  0.25470454  1
  Si  Si23  1  0.84813631  0.87292713  0.26312028  1
  P  P0  1  0.01706929  0.31864524  0.75862804  1
  P  P1  1  0.01449083  0.64987667  0.74907254  1
  P  P2  1  0.01462462  0.98607935  0.75190317  1
  P  P3  1  0.01462462  0.01392065  0.25190317  1
  P  P4  1  0.01449083  0.35012333  0.24907254  1
  P  P5  1  0.01706929  0.68135476  0.25862804  1
  P  P6  1  0.51449083  0.14987667  0.74907254  1
  P  P7  1  0.51462462  0.48607935  0.75190317  1
  P  P8  1  0.51706929  0.81864524  0.75862804  1
  P  P9  1  0.51706929  0.18135476  0.25862804  1
  P  P10  1  0.51462462  0.51392065  0.25190317  1
  P  P11  1  0.51449083  0.85012333  0.24907254  1
  O  O0  1  0.13977378  0.19816906  0.74369220  1
  O  O1  1  0.14214128  0.53245899  0.75244545  1
  O  O2  1  0.14429289  0.86537869  0.75265444  1
  O  O3  1  0.83716870  0.18415046  0.75051419  1
  O  O4  1  0.84273011  0.51563853  0.74100685  1
  O  O5  1  0.83903393  0.85007724  0.74409707  1
  O  O6  1  0.83903393  0.14992276  0.24409707  1
  O  O7  1  0.84273011  0.48436147  0.24100685  1
  O  O8  1  0.83716870  0.81584954  0.25051419  1
  O  O9  1  0.14429289  0.13462131  0.25265444  1
  O  O10  1  0.14214128  0.46754101  0.25244545  1
  O  O11  1  0.13977378  0.80183094  0.24369220  1
  O  O12  1  0.64214128  0.03245899  0.75244545  1
  O  O13  1  0.64429289  0.36537869  0.75265444  1
  O  O14  1  0.63977378  0.69816906  0.74369220  1
  O  O15  1  0.34273011  0.01563853  0.74100685  1
  O  O16  1  0.33903393  0.35007724  0.74409707  1
  O  O17  1  0.33716870  0.68415046  0.75051419  1
  O  O18  1  0.33716870  0.31584954  0.25051419  1
  O  O19  1  0.33903393  0.64992276  0.24409707  1
  O  O20  1  0.34273011  0.98436147  0.24100685  1
  O  O21  1  0.63977378  0.30183094  0.24369220  1
  O  O22  1  0.64429289  0.63462131  0.25265444  1
  O  O23  1  0.64214128  0.96754101  0.25244545  1
  O  O24  1  0.44960233  0.17326932  0.56694065  1
  O  O25  1  0.44724091  0.51204946  0.57652898  1
  O  O26  1  0.45228684  0.84794895  0.59323270  1
  O  O27  1  0.56649797  0.18861105  0.90154586  1
  O  O28  1  0.56826131  0.52402821  0.91105852  1
  O  O29  1  0.57570665  0.85327028  0.92816827  1
  O  O30  1  0.57570665  0.14672972  0.42816827  1
  O  O31  1  0.56826131  0.47597179  0.41105852  1
  O  O32  1  0.56649797  0.81138895  0.40154586  1
  O  O33  1  0.45228684  0.15205105  0.09323270  1
  O  O34  1  0.44724091  0.48795054  0.07652898  1
  O  O35  1  0.44960233  0.82673068  0.06694065  1
  O  O36  1  0.94724091  0.01204946  0.57652898  1
  O  O37  1  0.95228684  0.34794895  0.59323270  1
  O  O38  1  0.94960233  0.67326932  0.56694065  1
  O  O39  1  0.06826131  0.02402821  0.91105852  1
  O  O40  1  0.07570665  0.35327028  0.92816827  1
  O  O41  1  0.06649797  0.68861105  0.90154586  1
  O  O42  1  0.06649797  0.31138895  0.40154586  1
  O  O43  1  0.07570665  0.64672972  0.42816827  1
  O  O44  1  0.06826131  0.97597179  0.41105852  1
  O  O45  1  0.94960233  0.32673068  0.06694065  1
  O  O46  1  0.95228684  0.65205105  0.09323270  1
  O  O47  1  0.94724091  0.98795054  0.07652898  1
  O  O48  1  0.24837064  0.26900399  0.73959022  1
  O  O49  1  0.25547714  0.60099243  0.75767809  1
  O  O50  1  0.25324517  0.93461634  0.75031038  1
  O  O51  1  0.73941483  0.28791542  0.74941055  1
  O  O52  1  0.73299799  0.61944034  0.74304325  1
  O  O53  1  0.73869832  0.95909196  0.74419040  1
  O  O54  1  0.73869832  0.04090804  0.24419040  1
  O  O55  1  0.73299799  0.38055966  0.24304325  1
  O  O56  1  0.73941483  0.71208458  0.24941055  1
  O  O57  1  0.25324517  0.06538366  0.25031038  1
  O  O58  1  0.25547714  0.39900757  0.25767809  1
  O  O59  1  0.24837064  0.73099601  0.23959022  1
  O  O60  1  0.75547714  0.10099243  0.75767809  1
  O  O61  1  0.75324517  0.43461634  0.75031038  1
  O  O62  1  0.74837064  0.76900399  0.73959022  1
  O  O63  1  0.23299799  0.11944034  0.74304325  1
  O  O64  1  0.23869832  0.45909196  0.74419040  1
  O  O65  1  0.23941483  0.78791542  0.74941055  1
  O  O66  1  0.23941483  0.21208458  0.24941055  1
  O  O67  1  0.23869832  0.54090804  0.24419040  1
  O  O68  1  0.23299799  0.88055966  0.24304325  1
  O  O69  1  0.74837064  0.23099601  0.23959022  1
  O  O70  1  0.75324517  0.56538366  0.25031038  1
  O  O71  1  0.75547714  0.89900757  0.25767809  1
  O  O72  1  0.32150663  0.27970344  0.55617510  1
  O  O73  1  0.33958671  0.60481488  0.59649945  1
  O  O74  1  0.34111437  0.93374526  0.59553596  1
  O  O75  1  0.63377968  0.28580026  0.91001698  1
  O  O76  1  0.63609939  0.62043136  0.91803305  1
  O  O77  1  0.63911734  0.95296825  0.91890321  1
  O  O78  1  0.63911734  0.04703175  0.41890321  1
  O  O79  1  0.63609939  0.37956864  0.41803305  1
  O  O80  1  0.63377968  0.71419974  0.41001698  1
  O  O81  1  0.34111437  0.06625474  0.09553596  1
  O  O82  1  0.33958671  0.39518512  0.09649945  1
  O  O83  1  0.32150663  0.72029656  0.05617510  1
  O  O84  1  0.83958671  0.10481488  0.59649945  1
  O  O85  1  0.84111437  0.43374526  0.59553596  1
  O  O86  1  0.82150663  0.77970344  0.55617510  1
  O  O87  1  0.13609939  0.12043136  0.91803305  1
  O  O88  1  0.13911734  0.45296825  0.91890321  1
  O  O89  1  0.13377968  0.78580026  0.91001698  1
  O  O90  1  0.13377968  0.21419974  0.41001698  1
  O  O91  1  0.13911734  0.54703175  0.41890321  1
  O  O92  1  0.13609939  0.87956864  0.41803305  1
  O  O93  1  0.82150663  0.22029656  0.05617510  1
  O  O94  1  0.84111437  0.56625474  0.09553596  1
  O  O95  1  0.83958671  0.89518512  0.09649945  1
  O  O96  1  0.45808162  0.27141260  0.91321589  1
  O  O97  1  0.46356157  0.60666323  0.94143116  1
  O  O98  1  0.46481458  0.93819174  0.93678275  1
  O  O99  1  0.54291044  0.29057961  0.56133521  1
  O  O100  1  0.53480297  0.62597987  0.56039220  1
  O  O101  1  0.53873750  0.95835839  0.56253299  1
  O  O102  1  0.53873750  0.04164161  0.06253299  1
  O  O103  1  0.53480297  0.37402013  0.06039220  1
  O  O104  1  0.54291044  0.70942039  0.06133521  1
  O  O105  1  0.46481458  0.06180826  0.43678275  1
  O  O106  1  0.46356157  0.39333677  0.44143116  1
  O  O107  1  0.45808162  0.72858740  0.41321589  1
  O  O108  1  0.96356157  0.10666323  0.94143116  1
  O  O109  1  0.96481458  0.43819174  0.93678275  1
  O  O110  1  0.95808162  0.77141260  0.91321589  1
  O  O111  1  0.03480297  0.12597987  0.56039220  1
  O  O112  1  0.03873750  0.45835839  0.56253299  1
  O  O113  1  0.04291044  0.79057961  0.56133521  1
  O  O114  1  0.04291044  0.20942039  0.06133521  1
  O  O115  1  0.03873750  0.54164161  0.06253299  1
  O  O116  1  0.03480297  0.87402013  0.06039220  1
  O  O117  1  0.95808162  0.22858740  0.41321589  1
  O  O118  1  0.96481458  0.56180826  0.43678275  1
  O  O119  1  0.96356157  0.89333677  0.44143116  1
  O  O120  1  0.09440791  0.28887142  0.75219481  1
  O  O121  1  0.10312652  0.62493812  0.75795104  1
  O  O122  1  0.09567004  0.95720743  0.75367627  1
  O  O123  1  0.94703056  0.28445700  0.76836546  1
  O  O124  1  0.95371654  0.61222276  0.76341354  1
  O  O125  1  0.94771753  0.95270345  0.77048057  1
  O  O126  1  0.94771753  0.04729655  0.27048057  1
  O  O127  1  0.95371654  0.38777724  0.26341354  1
  O  O128  1  0.94703056  0.71554300  0.26836546  1
  O  O129  1  0.09567004  0.04279257  0.25367627  1
  O  O130  1  0.10312652  0.37506188  0.25795104  1
  O  O131  1  0.09440791  0.71112858  0.25219481  1
  O  O132  1  0.60312652  0.12493812  0.75795104  1
  O  O133  1  0.59567004  0.45720743  0.75367627  1
  O  O134  1  0.59440791  0.78887142  0.75219481  1
  O  O135  1  0.45371654  0.11222276  0.76341354  1
  O  O136  1  0.44771753  0.45270345  0.77048057  1
  O  O137  1  0.44703056  0.78445700  0.76836546  1
  O  O138  1  0.44703056  0.21554300  0.26836546  1
  O  O139  1  0.44771753  0.54729655  0.27048057  1
  O  O140  1  0.45371654  0.88777724  0.26341354  1
  O  O141  1  0.59440791  0.21112858  0.25219481  1
  O  O142  1  0.59567004  0.54279257  0.25367627  1
  O  O143  1  0.60312652  0.87506188  0.25795104  1
loop_
_geom_bond_atom_site_label_1
_geom_bond_atom_site_label_2
_geom_bond_distance
_geom_bond_site_symmetry_2
Na0 O120 2.358173 1_555
Na0 O48 2.422793 1_555
Na0 O0 2.544388 1_555
Na0 O18 2.546433 1_556
Na0 O66 2.719084 1_556
Na0 O138 2.987846 1_556
Na1 O121 2.310796 1_554
Na1 O49 2.441065 1_554
Na1 O1 2.444856 1_554
Na1 O19 2.562580 1_555
Na1 O67 2.618004 1_555
Na2 O122 2.362631 1_555
Na2 O2 2.426514 1_555
Na2 O50 2.482788 1_555
Na2 O68 2.571526 1_556
Na2 O20 2.600525 1_556
Na3 O141 2.358173 1_555
Na3 O69 2.422793 1_555
Na3 O21 2.544388 1_555
Na3 O3 2.546433 1_555
Na3 O51 2.719084 1_555
Na3 O123 2.987846 1_555
Na4 O142 2.362631 1_555
Na4 O22 2.426514 1_555
Na4 O70 2.482788 1_555
Na4 O52 2.571526 1_555
Na4 O4 2.600525 1_555
Na5 O143 2.310796 1_555
Na5 O71 2.441065 1_555
Na5 O23 2.444856 1_555
Na5 O5 2.562580 1_555
Na5 O53 2.618004 1_555
Na6 O132 2.310796 1_554
Na6 O60 2.441065 1_554
Na6 O12 2.444856 1_554
Na6 O6 2.562580 1_555
Na6 O54 2.618004 1_555
Na7 O133 2.362631 1_555
Na7 O13 2.426514 1_555
Na7 O61 2.482788 1_555
Na7 O55 2.571526 1_556
Na7 O7 2.600525 1_556
Na8 O134 2.358173 1_555
Na8 O62 2.422793 1_555
Na8 O14 2.544388 1_555
Na8 O8 2.546433 1_556
Na8 O56 2.719084 1_556
Na8 O128 2.987846 1_556
Na9 O129 2.362631 1_555
Na9 O9 2.426514 1_555
Na9 O57 2.482788 1_555
Na9 O63 2.571526 1_555
Na9 O15 2.600525 1_555
Na10 O130 2.310796 1_555
Na10 O58 2.441065 1_555
Na10 O10 2.444856 1_555
Na10 O16 2.562580 1_555
Na10 O64 2.618004 1_555
Na11 O131 2.358173 1_555
Na11 O59 2.422793 1_555
Na11 O11 2.544388 1_555
Na11 O17 2.546433 1_555
Na11 O65 2.719084 1_555
Na11 O137 2.987846 1_555
Na12 O15 2.435361 1_555
Na12 O12 2.468415 1_555
Na12 O135 2.475045 1_555
Na12 O102 2.507545 1_556
Na12 O105 2.860823 1_555
Na12 O77 2.894367 1_545
Na13 O103 2.454656 1_556
Na13 O16 2.506524 1_555
Na13 O13 2.507583 1_555
Na13 O136 2.693256 1_555
Na13 O106 2.839196 1_555
Na13 O75 2.848510 1_555
Na14 O104 2.475825 1_556
Na14 O14 2.485837 1_555
Na14 O17 2.559040 1_555
Na14 O137 2.667277 1_555
Na14 O76 2.854362 1_555
Na14 O100 3.003419 1_555
Na14 O107 3.022045 1_555
Na15 O99 2.475825 1_555
Na15 O21 2.485837 1_555
Na15 O18 2.559040 1_555
Na15 O138 2.667277 1_555
Na15 O79 2.854362 1_555
Na15 O103 3.003419 1_555
Na15 O96 3.022045 1_554
Na16 O100 2.454656 1_555
Na16 O19 2.506524 1_555
Na16 O22 2.507583 1_555
Na16 O139 2.693256 1_555
Na16 O97 2.839196 1_554
Na16 O80 2.848510 1_555
Na17 O20 2.435361 1_555
Na17 O23 2.468415 1_555
Na17 O140 2.475045 1_555
Na17 O101 2.507545 1_555
Na17 O98 2.860823 1_554
Na17 O78 2.894367 1_565
Na18 O114 2.475825 1_656
Na18 O0 2.485837 1_655
Na18 O3 2.559040 1_555
Na18 O123 2.667277 1_555
Na18 O87 2.854362 1_655
Na18 O111 3.003419 1_655
Na18 O117 3.022045 1_555
Na19 O4 2.435361 1_555
Na19 O1 2.468415 1_655
Na19 O124 2.475045 1_555
Na19 O115 2.507545 1_656
Na19 O118 2.860823 1_555
Na19 O88 2.894367 1_655
Na20 O116 2.454656 1_656
Na20 O5 2.506524 1_555
Na20 O2 2.507583 1_655
Na20 O125 2.693256 1_555
Na20 O119 2.839196 1_555
Na20 O89 2.848510 1_655
Na21 O111 2.454656 1_655
Na21 O6 2.506524 1_555
Na21 O9 2.507583 1_655
Na21 O126 2.693256 1_555
Na21 O108 2.839196 1_554
Na21 O90 2.848510 1_655
Na22 O7 2.435361 1_555
Na22 O10 2.468415 1_655
Na22 O127 2.475045 1_555
Na22 O112 2.507545 1_655
Na22 O109 2.860823 1_554
Na22 O91 2.894367 1_655
Na23 O113 2.475825 1_655
Na23 O11 2.485837 1_655
Na23 O8 2.559040 1_555
Na23 O128 2.667277 1_555
Na23 O92 2.854362 1_655
Na23 O116 3.003419 1_655
Na23 O110 3.022045 1_554
Na24 O94 2.457528 1_555
Na24 O56 2.601937 1_555
Na24 O70 2.631999 1_555
Na24 O128 2.701678 1_555
Na24 O76 2.730305 1_554
Na24 O46 2.835624 1_555
Na24 O38 2.860020 1_555
Na25 O54 2.458625 1_565
Na25 O95 2.574368 1_555
Na25 O71 2.602265 1_555
Na25 O77 2.691140 1_554
Na25 O126 2.700756 1_565
Na25 O47 2.942497 1_555
Na25 O36 2.961658 1_565
Na26 O72 2.251673 1_555
Na26 O130 2.340096 1_555
Na26 O42 2.702032 1_555
Na26 O18 2.748298 1_555
Na26 O66 2.859238 1_555
Na27 O83 2.251673 1_556
Na27 O121 2.340096 1_555
Na27 O41 2.702032 1_555
Na27 O17 2.748298 1_555
Na27 O65 2.859238 1_555
Na28 O53 2.458625 1_545
Na28 O84 2.574368 1_555
Na28 O60 2.602265 1_555
Na28 O78 2.691140 1_555
Na28 O125 2.700756 1_545
Na28 O36 2.942497 1_555
Na28 O47 2.961658 1_546
Na29 O85 2.457528 1_555
Na29 O51 2.601937 1_555
Na29 O61 2.631999 1_555
Na29 O123 2.701678 1_555
Na29 O79 2.730305 1_555
Na29 O37 2.835624 1_555
Na29 O45 2.860020 1_556
Na30 O81 2.457528 1_555
Na30 O66 2.601937 1_555
Na30 O57 2.631999 1_555
Na30 O138 2.701678 1_555
Na30 O87 2.730305 1_554
Na30 O33 2.835624 1_555
Na30 O24 2.860020 1_555
Na31 O67 2.458625 1_555
Na31 O82 2.574368 1_555
Na31 O58 2.602265 1_555
Na31 O88 2.691140 1_554
Na31 O139 2.700756 1_555
Na31 O34 2.942497 1_555
Na31 O25 2.961658 1_555
Na32 O86 2.251673 1_555
Na32 O143 2.340096 1_555
Na32 O32 2.702032 1_555
Na32 O8 2.748298 1_555
Na32 O56 2.859238 1_555
Na33 O93 2.251673 1_556
Na33 O132 2.340096 1_555
Na33 O27 2.702032 1_555
Na33 O3 2.748298 1_555
Na33 O51 2.859238 1_555
Na34 O64 2.458625 1_555
Na34 O73 2.574368 1_555
Na34 O49 2.602265 1_555
Na34 O91 2.691140 1_555
Na34 O136 2.700756 1_555
Na34 O25 2.942497 1_555
Na34 O34 2.961658 1_556
Na35 O74 2.457528 1_555
Na35 O65 2.601937 1_555
Na35 O50 2.631999 1_555
Na35 O137 2.701678 1_555
Na35 O92 2.730305 1_555
Na35 O26 2.835624 1_555
Na35 O35 2.860020 1_556
La0 O93 2.211876 1_556
La0 O114 2.280363 1_656
La0 O45 2.295831 1_556
La0 O51 2.404948 1_555
La0 O123 2.419396 1_555
La0 O3 2.446251 1_555
La1 O94 2.212359 1_556
La1 O46 2.301260 1_556
La1 O115 2.325356 1_656
La1 O52 2.335406 1_555
La1 O4 2.395222 1_555
La1 O124 2.406729 1_555
La2 O95 2.193316 1_556
La2 O116 2.272729 1_656
La2 O5 2.325669 1_555
La2 O47 2.339010 1_556
La2 O53 2.386433 1_555
La2 O125 2.435138 1_555
La3 O84 2.193316 1_555
La3 O111 2.272729 1_655
La3 O6 2.325669 1_555
La3 O36 2.339010 1_555
La3 O54 2.386433 1_555
La3 O126 2.435138 1_555
La4 O85 2.212359 1_555
La4 O37 2.301260 1_555
La4 O112 2.325356 1_655
La4 O55 2.335406 1_555
La4 O7 2.395222 1_555
La4 O127 2.406729 1_555
La5 O86 2.211876 1_555
La5 O113 2.280363 1_655
La5 O38 2.295831 1_555
La5 O56 2.404948 1_555
La5 O128 2.419396 1_555
La5 O8 2.446251 1_555
La6 O81 2.212359 1_556
La6 O33 2.301260 1_556
La6 O102 2.325356 1_556
La6 O63 2.335406 1_555
La6 O15 2.395222 1_555
La6 O135 2.406729 1_555
La7 O82 2.193316 1_556
La7 O103 2.272729 1_556
La7 O16 2.325669 1_555
La7 O34 2.339010 1_556
La7 O64 2.386433 1_555
La7 O136 2.435138 1_555
La8 O83 2.211876 1_556
La8 O104 2.280363 1_556
La8 O35 2.295831 1_556
La8 O65 2.404948 1_555
La8 O137 2.419396 1_555
La8 O17 2.446251 1_555
La9 O72 2.211876 1_555
La9 O99 2.280363 1_555
La9 O24 2.295831 1_555
La9 O66 2.404948 1_555
La9 O138 2.419396 1_555
La9 O18 2.446251 1_555
La10 O73 2.193316 1_555
La10 O100 2.272729 1_555
La10 O19 2.325669 1_555
La10 O25 2.339010 1_555
La10 O67 2.386433 1_555
La10 O139 2.435138 1_555
La11 O74 2.212359 1_555
La11 O26 2.301260 1_555
La11 O101 2.325356 1_555
La11 O68 2.335406 1_555
La11 O20 2.395222 1_555
La11 O140 2.406729 1_555
Nb0 O90 1.967027 1_555
Nb0 O0 2.004553 1_555
Nb0 O48 2.022957 1_555
Nb0 O117 2.040661 1_455
Nb0 O42 2.178146 1_555
Nb0 O120 2.205264 1_555
Nb1 O118 1.978758 1_455
Nb1 O91 1.982075 1_555
Nb1 O1 2.045104 1_555
Nb1 O49 2.101585 1_555
Nb1 O43 2.105493 1_555
Nb1 O121 2.194897 1_555
Nb2 O92 1.985793 1_555
Nb2 O119 2.025765 1_455
Nb2 O44 2.047765 1_555
Nb2 O50 2.058850 1_555
Nb2 O2 2.065318 1_555
Nb2 O122 2.190514 1_555
Nb3 O87 1.985793 1_554
Nb3 O108 2.025765 1_454
Nb3 O39 2.047765 1_554
Nb3 O57 2.058850 1_555
Nb3 O9 2.065318 1_555
Nb3 O129 2.190514 1_555
Nb4 O109 1.978758 1_454
Nb4 O88 1.982075 1_554
Nb4 O10 2.045104 1_555
Nb4 O58 2.101585 1_555
Nb4 O40 2.105493 1_554
Nb4 O130 2.194897 1_555
Nb5 O89 1.967027 1_554
Nb5 O11 2.004553 1_555
Nb5 O59 2.022957 1_555
Nb5 O110 2.040661 1_454
Nb5 O41 2.178146 1_554
Nb5 O131 2.205264 1_555
Nb6 O105 1.978758 1_555
Nb6 O78 1.982075 1_555
Nb6 O12 2.045104 1_555
Nb6 O60 2.101585 1_555
Nb6 O30 2.105493 1_555
Nb6 O132 2.194897 1_555
Nb7 O79 1.985793 1_555
Nb7 O106 2.025765 1_555
Nb7 O31 2.047765 1_555
Nb7 O61 2.058850 1_555
Nb7 O13 2.065318 1_555
Nb7 O133 2.190514 1_555
Nb8 O80 1.967027 1_555
Nb8 O14 2.004553 1_555
Nb8 O62 2.022957 1_555
Nb8 O107 2.040661 1_555
Nb8 O32 2.178146 1_555
Nb8 O134 2.205264 1_555
Nb9 O75 1.967027 1_554
Nb9 O21 2.004553 1_555
Nb9 O69 2.022957 1_555
Nb9 O96 2.040661 1_554
Nb9 O27 2.178146 1_554
Nb9 O141 2.205264 1_555
Nb10 O76 1.985793 1_554
Nb10 O97 2.025765 1_554
Nb10 O28 2.047765 1_554
Nb10 O70 2.058850 1_555
Nb10 O22 2.065318 1_555
Nb10 O142 2.190514 1_555
Nb11 O98 1.978758 1_554
Nb11 O77 1.982075 1_554
Nb11 O23 2.045104 1_555
Nb11 O71 2.101585 1_555
Nb11 O29 2.105493 1_554
Nb11 O143 2.194897 1_555
O0 Si15 1.704342 1_555
O1 Si16 1.690740 1_555
O2 Si17 1.666470 1_555
O3 Si12 1.624380 1_555
O4 Si13 1.604070 1_555
O5 Si14 1.622066 1_555
O6 Si21 1.622066 1_555
O7 Si22 1.604070 1_555
O8 Si23 1.624380 1_555
O9 Si18 1.666470 1_555
O10 Si19 1.690740 1_555
O11 Si20 1.704342 1_555
O12 Si5 1.690740 1_545
O13 Si3 1.666470 1_555
O14 Si4 1.704342 1_555
O15 Si2 1.604070 1_545
O16 Si0 1.622066 1_555
O17 Si1 1.624380 1_555
O18 Si10 1.624380 1_555
O19 Si11 1.622066 1_555
O20 Si9 1.604070 1_565
O21 Si7 1.704342 1_555
O22 Si8 1.666470 1_555
O23 Si6 1.690740 1_565
O24 P6 1.521477 1_555
O25 P7 1.516575 1_555
O26 P8 1.503397 1_555
O27 P6 1.586078 1_555
O28 P7 1.607495 1_555
O29 P8 1.607600 1_555
O30 P9 1.607600 1_555
O31 P10 1.607495 1_555
O32 P11 1.586078 1_555
O33 P9 1.503397 1_555
O34 P10 1.516575 1_555
O35 P11 1.521477 1_555
O36 P2 1.516575 1_645
O37 P0 1.503397 1_655
O38 P1 1.521477 1_655
O39 P2 1.607495 1_545
O40 P0 1.607600 1_555
O41 P1 1.586078 1_555
O42 P4 1.586078 1_555
O43 P5 1.607600 1_555
O44 P3 1.607495 1_565
O45 P4 1.521477 1_655
O46 P5 1.503397 1_655
O47 P3 1.516575 1_665
O48 Si0 1.670063 1_555
O49 Si1 1.670259 1_555
O50 Si2 1.676811 1_555
O51 Si3 1.617846 1_555
O52 Si4 1.592319 1_555
O53 Si5 1.612965 1_555
O54 Si6 1.612965 1_555
O55 Si7 1.592319 1_555
O56 Si8 1.617846 1_555
O57 Si9 1.676811 1_555
O58 Si10 1.670259 1_555
O59 Si11 1.670063 1_555
O60 Si12 1.670259 1_555
O61 Si13 1.676811 1_555
O62 Si14 1.670063 1_555
O63 Si15 1.592319 1_555
O64 Si16 1.612965 1_555
O65 Si17 1.617846 1_555
O66 Si18 1.617846 1_555
O67 Si19 1.612965 1_555
O68 Si20 1.592319 1_555
O69 Si21 1.670063 1_555
O70 Si22 1.676811 1_555
O71 Si23 1.670259 1_555
O72 Si0 1.603562 1_555
O73 Si1 1.593981 1_555
O74 Si2 1.588573 1_555
O75 Si3 1.752498 1_555
O76 Si4 1.765474 1_555
O77 Si5 1.774018 1_555
O78 Si6 1.774018 1_555
O79 Si7 1.765474 1_555
O80 Si8 1.752498 1_555
O81 Si9 1.588573 1_555
O82 Si10 1.593981 1_555
O83 Si11 1.603562 1_555
O84 Si12 1.593981 1_555
O85 Si13 1.588573 1_555
O86 Si14 1.603562 1_555
O87 Si15 1.765474 1_555
O88 Si16 1.774018 1_555
O89 Si17 1.752498 1_555
O90 Si18 1.752498 1_555
O91 Si19 1.774018 1_555
O92 Si20 1.765474 1_555
O93 Si21 1.603562 1_555
O94 Si22 1.588573 1_555
O95 Si23 1.593981 1_555
O96 Si0 1.722317 1_555
O97 Si1 1.732841 1_555
O98 Si2 1.767832 1_555
O99 Si3 1.602477 1_555
O100 Si4 1.592773 1_555
O101 Si5 1.588405 1_555
O102 Si6 1.588405 1_555
O103 Si7 1.592773 1_555
O104 Si8 1.602477 1_555
O105 Si9 1.767832 1_555
O106 Si10 1.732841 1_555
O107 Si11 1.722317 1_555
O108 Si12 1.732841 1_555
O109 Si13 1.767832 1_555
O110 Si14 1.722317 1_555
O111 Si15 1.592773 1_555
O112 Si16 1.588405 1_555
O113 Si17 1.602477 1_555
O114 Si18 1.602477 1_555
O115 Si19 1.588405 1_555
O116 Si20 1.592773 1_555
O117 Si21 1.722317 1_555
O118 Si22 1.767832 1_555
O119 Si23 1.732841 1_555
O120 P0 1.558247 1_555
O121 P1 1.580740 1_555
O122 P2 1.558004 1_555
O123 P0 1.549310 1_655
O124 P1 1.521404 1_655
O125 P2 1.536664 1_655
O126 P3 1.536664 1_655
O127 P4 1.521404 1_655
O128 P5 1.549310 1_655
O129 P3 1.558004 1_555
O130 P4 1.580740 1_555
O131 P5 1.558247 1_555
O132 P6 1.580740 1_555
O133 P7 1.558004 1_555
O134 P8 1.558247 1_555
O135 P6 1.521404 1_555
O136 P7 1.536664 1_555
O137 P8 1.549310 1_555
O138 P9 1.549310 1_555
O139 P10 1.536664 1_555
O140 P11 1.521404 1_555
O141 P9 1.558247 1_555
O142 P10 1.558004 1_555
O143 P11 1.580740 1_555
