# generated using pymatgen
data_SrMg(RuO3)2
_symmetry_space_group_name_H-M   'P 1'
_cell_length_a   5.16014953
_cell_length_b   5.20635515
_cell_length_c   6.05772659
_cell_angle_alpha   90.71601160
_cell_angle_beta   89.63880211
_cell_angle_gamma   120.29664879
_symmetry_Int_Tables_number   1
_chemical_formula_structural   SrMg(RuO3)2
_chemical_formula_sum   'Sr1 Mg1 Ru2 O6'
_cell_volume   140.50652098
_cell_formula_units_Z   1
loop_
 _symmetry_equiv_pos_site_id
 _symmetry_equiv_pos_as_xyz
  1  'x, y, z'
loop_
 _atom_site_type_symbol
 _atom_site_label
 _atom_site_symmetry_multiplicity
 _atom_site_fract_x
 _atom_site_fract_y
 _atom_site_fract_z
 _atom_site_occupancy
  Sr  Sr0  1  0.00000000  0.00000000  0.00000000  1
  Mg  Mg0  1  0.00000000  0.00000000  0.50000000  1
  Ru  Ru0  1  0.67285300  0.33642700  0.50000000  1
  Ru  Ru1  1  0.32714700  0.66357300  0.50000000  1
  O  O0  1  0.33526500  0.33663000  0.31917900  1
  O  O1  1  0.66473500  0.00136500  0.31917900  1
  O  O2  1  0.00000000  0.66723200  0.31307200  1
  O  O3  1  0.66473500  0.66337000  0.68082100  1
  O  O4  1  0.33526500  0.99863500  0.68082100  1
  O  O5  1  0.00000000  0.33276800  0.68692800  1
loop_
_geom_bond_atom_site_label_1
_geom_bond_atom_site_label_2
_geom_bond_distance
_geom_bond_site_symmetry_2
Mg0 O1 2.056532 1_455
Mg0 O4 2.056532 1_545
Mg0 O0 2.056533 1_555
Mg0 O3 2.056533 1_445
Mg0 O5 2.057861 1_555
Mg0 O2 2.057861 1_545
O0 Ru1 2.030705 1_555
O0 Ru0 2.064061 1_555
O0 Sr0 2.588690 1_555
O1 Ru0 2.030710 1_555
O1 Ru1 2.064064 1_545
O1 Sr0 2.588690 1_655
O2 Ru0 2.046815 1_455
O2 Ru1 2.046817 1_555
O2 Sr0 2.584654 1_565
O3 Ru0 2.030705 1_555
O3 Ru1 2.064061 1_555
O3 Sr0 2.588690 1_666
O4 Ru1 2.030710 1_555
O4 Ru0 2.064064 1_565
O4 Sr0 2.588690 1_566
O5 Ru1 2.046815 1_555
O5 Ru0 2.046817 1_455
O5 Sr0 2.584654 1_556
