# generated using pymatgen
data_NaYTa3SiP5O24
_symmetry_space_group_name_H-M   'P 1'
_cell_length_a   8.86612579
_cell_length_b   8.86619849
_cell_length_c   23.07369725
_cell_angle_alpha   89.80578395
_cell_angle_beta   90.12633109
_cell_angle_gamma   120.03521106
_symmetry_Int_Tables_number   1
_chemical_formula_structural   NaYTa3SiP5O24
_chemical_formula_sum   'Na3 Y3 Ta9 Si3 P15 O72'
_cell_volume   1570.22681190
_cell_formula_units_Z   3
loop_
 _symmetry_equiv_pos_site_id
 _symmetry_equiv_pos_as_xyz
  1  'x, y, z'
loop_
 _atom_site_type_symbol
 _atom_site_label
 _atom_site_symmetry_multiplicity
 _atom_site_fract_x
 _atom_site_fract_y
 _atom_site_fract_z
 _atom_site_occupancy
  Na  Na0  1  0.00082550  0.99991332  0.99410724  1
  Na  Na1  1  0.66050655  0.33113526  0.83785277  1
  Na  Na2  1  0.66723094  0.33381623  0.33664668  1
  Y  Y0  1  0.00460631  0.00177952  0.85486095  1
  Y  Y1  1  0.66707067  0.33421442  0.97740224  1
  Y  Y2  1  0.66620064  0.33443114  0.47859631  1
  Ta  Ta0  1  0.99459460  0.99775531  0.35755251  1
  Ta  Ta1  1  0.00314467  0.00382614  0.64962338  1
  Ta  Ta2  1  0.99739202  0.00078816  0.14994808  1
  Ta  Ta3  1  0.66506152  0.33347085  0.68263622  1
  Ta  Ta4  1  0.66833922  0.33519308  0.18736638  1
  Ta  Ta5  1  0.33334367  0.66609746  0.02444219  1
  Ta  Ta6  1  0.33308422  0.66561420  0.52241418  1
  Ta  Ta7  1  0.33240566  0.66580171  0.30649314  1
  Ta  Ta8  1  0.33368762  0.66613259  0.80759089  1
  Si  Si0  1  0.71718246  0.71131738  0.25225134  1
  Si  Si1  1  0.99356272  0.28159867  0.25168771  1
  Si  Si2  1  0.29741013  0.29236942  0.75081361  1
  P  P0  1  0.28569546  0.00575835  0.25175588  1
  P  P1  1  0.99503857  0.70344239  0.74909200  1
  P  P2  1  0.70895288  0.00460757  0.74878906  1
  P  P3  1  0.96052654  0.33075936  0.58300470  1
  P  P4  1  0.36965730  0.03761741  0.58321132  1
  P  P5  1  0.66971820  0.63092348  0.58307309  1
  P  P6  1  0.95977568  0.62860404  0.08485926  1
  P  P7  1  0.66828769  0.04089651  0.08481364  1
  P  P8  1  0.37215025  0.33022432  0.08460011  1
  P  P9  1  0.61068799  0.66852353  0.91664396  1
  P  P10  1  0.05664565  0.39024343  0.91659712  1
  P  P11  1  0.33222726  0.94285200  0.91666185  1
  P  P12  1  0.61496734  0.94249883  0.41420978  1
  P  P13  1  0.32615374  0.38434214  0.41387674  1
  P  P14  1  0.05909720  0.67515510  0.41403656  1
  O  O0  1  0.20380873  0.03957885  0.30535772  1
  O  O1  1  0.84321466  0.80152343  0.30850061  1
  O  O2  1  0.96380138  0.15736107  0.30792965  1
  O  O3  1  0.23394568  0.17713606  0.80778145  1
  O  O4  1  0.94468333  0.76278533  0.80317323  1
  O  O5  1  0.81710208  0.04901852  0.80319667  1
  O  O6  1  0.80039140  0.97246454  0.69712199  1
  O  O7  1  0.16704490  0.19055011  0.69585912  1
  O  O8  1  0.02230447  0.82574978  0.69734308  1
  O  O9  1  0.81000109  0.83183911  0.19575924  1
  O  O10  1  0.02827549  0.19375458  0.19532614  1
  O  O11  1  0.17209041  0.97329264  0.19775496  1
  O  O12  1  0.87098013  0.36560201  0.63451529  1
  O  O13  1  0.49655006  0.13064281  0.63460281  1
  O  O14  1  0.63550311  0.50278173  0.63426843  1
  O  O15  1  0.86298579  0.50522120  0.13784360  1
  O  O16  1  0.64137478  0.13459276  0.13763470  1
  O  O17  1  0.49330982  0.35676279  0.13766207  1
  O  O18  1  0.43981766  0.28946386  0.03064627  1
  O  O19  1  0.84937231  0.56314412  0.03114455  1
  O  O20  1  0.71199582  0.15041072  0.03078776  1
  O  O21  1  0.43619147  0.14821547  0.52946556  1
  O  O22  1  0.71108175  0.56336050  0.52918219  1
  O  O23  1  0.85229243  0.29147289  0.52884603  1
  O  O24  1  0.50895266  0.66545832  0.97319935  1
  O  O25  1  0.15642152  0.49008857  0.97331012  1
  O  O26  1  0.33463737  0.84303210  0.97344902  1
  O  O27  1  0.52692892  0.83597206  0.47024918  1
  O  O28  1  0.30842047  0.47261597  0.46990144  1
  O  O29  1  0.16482852  0.69063040  0.47017699  1
  O  O30  1  0.15432707  0.66048194  0.36062157  1
  O  O31  1  0.50496692  0.84853993  0.36069987  1
  O  O32  1  0.34153401  0.49648554  0.36044110  1
  O  O33  1  0.15677442  0.49148803  0.86102909  1
  O  O34  1  0.33250926  0.84457849  0.86108887  1
  O  O35  1  0.51058277  0.66940376  0.86091399  1
  O  O36  1  0.05304071  0.84659280  0.40670808  1
  O  O37  1  0.79449402  0.95015384  0.40741537  1
  O  O38  1  0.15790172  0.20483495  0.40628244  1
  O  O39  1  0.04766608  0.21465220  0.91924774  1
  O  O40  1  0.16358213  0.94808248  0.92023928  1
  O  O41  1  0.78559129  0.83558849  0.91930428  1
  O  O42  1  0.98858112  0.17712993  0.59897168  1
  O  O43  1  0.18700762  0.00388187  0.60031138  1
  O  O44  1  0.81805633  0.81128679  0.60073981  1
  O  O45  1  0.99403217  0.81410743  0.09885706  1
  O  O46  1  0.82378126  0.00991097  0.09774231  1
  O  O47  1  0.18777351  0.17465431  0.09776468  1
  O  O48  1  0.68131337  0.15966378  0.73257315  1
  O  O49  1  0.49169706  0.32576134  0.73261315  1
  O  O50  1  0.84589587  0.51769454  0.73260218  1
  O  O51  1  0.69022813  0.51708662  0.23971118  1
  O  O52  1  0.82095212  0.29966550  0.23952232  1
  O  O53  1  0.46861135  0.16600647  0.24047038  1
  O  O54  1  0.61723257  0.49998380  0.91507867  1
  O  O55  1  0.88123540  0.38317483  0.91508431  1
  O  O56  1  0.49945140  0.11936336  0.91572988  1
  O  O57  1  0.63766678  0.12386744  0.41593483  1
  O  O58  1  0.48748844  0.36601718  0.41537041  1
  O  O59  1  0.87813899  0.51536097  0.41575454  1
  O  O60  1  0.35386622  0.49453718  0.07684704  1
  O  O61  1  0.14044693  0.64297066  0.07708578  1
  O  O62  1  0.50471763  0.85797429  0.07693561  1
  O  O63  1  0.35494555  0.85599825  0.57301658  1
  O  O64  1  0.50185327  0.64448261  0.57286191  1
  O  O65  1  0.14449458  0.49556736  0.57276880  1
  O  O66  1  0.30722349  0.84507731  0.26138952  1
  O  O67  1  0.52750013  0.69404491  0.26226066  1
  O  O68  1  0.15998070  0.47555736  0.26205805  1
  O  O69  1  0.31578091  0.48496105  0.75860674  1
  O  O70  1  0.16218256  0.69064086  0.75745177  1
  O  O71  1  0.52468907  0.84312900  0.75705985  1
loop_
_geom_bond_atom_site_label_1
_geom_bond_atom_site_label_2
_geom_bond_distance
_geom_bond_site_symmetry_2
Na0 O40 2.424558 1_555
Na0 O41 2.441835 1_455
Na0 O39 2.443405 1_565
Na0 O47 2.881855 1_566
Na0 O46 2.889140 1_466
Na0 O45 2.904061 1_456
Na1 O56 2.469373 1_555
Na1 O54 2.481845 1_555
Na1 O55 2.510904 1_555
Na1 O49 2.837638 1_555
Na1 O48 2.924736 1_555
Na1 O50 2.933269 1_555
Na2 O57 2.524132 1_555
Na2 O58 2.528311 1_555
Na2 O59 2.532008 1_555
Na2 O51 2.707447 1_555
Na2 O52 2.720763 1_555
Na2 O53 2.760729 1_555
O0 P0 1.539832 1_555
O0 Ta0 2.084920 1_445
O1 Si0 1.636693 1_555
O1 Ta0 1.943817 1_555
O2 Si1 1.633361 1_555
O2 Ta0 1.939694 1_545
O3 Si2 1.583322 1_555
O3 Y0 2.136675 1_555
O4 P1 1.508427 1_555
O4 Y0 2.254334 1_665
O5 P2 1.506830 1_555
O5 Y0 2.246125 1_655
O6 P2 1.548397 1_565
O6 Ta1 2.004046 1_665
O7 Si2 1.647878 1_555
O7 Ta1 1.894046 1_555
O8 P1 1.546016 1_455
O8 Ta1 1.997472 1_565
O9 Si0 1.622689 1_555
O9 Ta2 1.904502 1_565
O10 Si1 1.625155 1_455
O10 Ta2 1.907954 1_455
O11 P0 1.535109 1_565
O11 Ta2 2.010955 1_465
O12 P3 1.546143 1_555
O12 Ta3 2.033052 1_555
O13 P4 1.556901 1_555
O13 Ta3 2.002757 1_555
O14 P5 1.557456 1_555
O14 Ta3 1.987158 1_555
O15 P6 1.575923 1_555
O15 Ta4 1.987254 1_555
O16 P7 1.561745 1_555
O16 Ta4 2.030801 1_555
O17 P8 1.565704 1_555
O17 Ta4 2.011916 1_555
O18 P8 1.504574 1_555
O18 Y1 2.221192 1_554
O19 P6 1.503965 1_555
O19 Y1 2.234731 1_554
O20 P7 1.504716 1_555
O20 Y1 2.228393 1_554
O21 P4 1.504436 1_555
O21 Y2 2.211147 1_555
O22 P5 1.505491 1_555
O22 Y2 2.201363 1_555
O23 P3 1.505605 1_555
O23 Y2 2.197555 1_555
O24 P9 1.580387 1_555
O24 Ta5 1.959379 1_556
O25 P10 1.580318 1_555
O25 Ta5 1.959998 1_556
O26 P11 1.584780 1_555
O26 Ta5 1.953201 1_556
O27 P12 1.559304 1_555
O27 Ta6 2.020405 1_555
O28 P13 1.561816 1_555
O28 Ta6 2.020476 1_555
O29 P14 1.562902 1_555
O29 Ta6 2.012172 1_555
O30 P14 1.537675 1_555
O30 Ta7 1.997161 1_555
O31 P12 1.535546 1_555
O31 Ta7 2.013453 1_555
O32 P13 1.544049 1_555
O32 Ta7 1.979422 1_555
O33 P10 1.561185 1_555
O33 Ta8 1.985575 1_555
O34 P11 1.553444 1_555
O34 Ta8 2.014161 1_555
O35 P9 1.563061 1_555
O35 Ta8 1.980057 1_555
O36 P14 1.556214 1_555
O36 Ta0 2.008359 1_455
O37 P12 1.567034 1_555
O37 Ta0 1.976225 1_555
O38 P13 1.553401 1_555
O38 Ta0 2.019209 1_445
O39 P10 1.519568 1_555
O39 Y0 2.282596 1_555
O40 P11 1.521400 1_555
O40 Y0 2.268589 1_565
O41 P9 1.517668 1_555
O41 Y0 2.299219 1_665
O42 P3 1.545413 1_555
O42 Ta1 1.982254 1_655
O43 P4 1.544252 1_555
O43 Ta1 1.989818 1_555
O44 P5 1.532897 1_555
O44 Ta1 2.019865 1_665
O45 P6 1.550721 1_555
O45 Ta2 2.023321 1_565
O46 P7 1.562641 1_555
O46 Ta2 1.985613 1_555
O47 P8 1.552166 1_555
O47 Ta2 2.016641 1_455
O48 P2 1.556718 1_555
O48 Ta3 1.983082 1_555
O49 Si2 1.650178 1_555
O49 Ta3 1.897136 1_555
O50 P1 1.558047 1_555
O50 Ta3 1.987632 1_555
O51 Si0 1.642410 1_555
O51 Ta4 1.948356 1_555
O52 Si1 1.640043 1_555
O52 Ta4 1.948133 1_555
O53 P0 1.552183 1_555
O53 Ta4 2.055545 1_555
O54 P9 1.524729 1_555
O54 Y1 2.248631 1_555
O55 P10 1.525132 1_655
O55 Y1 2.245921 1_555
O56 P11 1.524789 1_545
O56 Y1 2.244398 1_555
O57 P12 1.518005 1_545
O57 Y2 2.276759 1_555
O58 P13 1.518573 1_555
O58 Y2 2.269035 1_555
O59 P14 1.518985 1_655
O59 Y2 2.277152 1_555
O60 P8 1.554078 1_555
O60 Ta5 2.018054 1_555
O61 P6 1.552800 1_455
O61 Ta5 2.024564 1_555
O62 P7 1.553333 1_565
O62 Ta5 2.021898 1_555
O63 P4 1.567639 1_565
O63 Ta6 1.983671 1_555
O64 P5 1.569207 1_555
O64 Ta6 1.974973 1_555
O65 P3 1.569978 1_455
O65 Ta6 1.972785 1_555
O66 P0 1.544437 1_565
O66 Ta7 2.000608 1_555
O67 Si0 1.627489 1_555
O67 Ta7 1.915402 1_555
O68 Si1 1.628733 1_455
O68 Ta7 1.912284 1_555
O69 Si2 1.642603 1_555
O69 Ta8 1.907641 1_555
O70 P1 1.553430 1_455
O70 Ta8 2.004772 1_555
O71 P2 1.553460 1_565
O71 Ta8 2.006439 1_555
