# generated using pymatgen
data_Na4Sc3TaSi3(SO8)3
_symmetry_space_group_name_H-M   'P 1'
_cell_length_a   9.01300464
_cell_length_b   9.01619071
_cell_length_c   23.02407858
_cell_angle_alpha   89.92793964
_cell_angle_beta   90.14559558
_cell_angle_gamma   119.91178642
_symmetry_Int_Tables_number   1
_chemical_formula_structural   Na4Sc3TaSi3(SO8)3
_chemical_formula_sum   'Na12 Sc9 Ta3 Si9 S9 O72'
_cell_volume   1621.77100096
_cell_formula_units_Z   3
loop_
 _symmetry_equiv_pos_site_id
 _symmetry_equiv_pos_as_xyz
  1  'x, y, z'
loop_
 _atom_site_type_symbol
 _atom_site_label
 _atom_site_symmetry_multiplicity
 _atom_site_fract_x
 _atom_site_fract_y
 _atom_site_fract_z
 _atom_site_occupancy
  Na  Na0  1  0.64131850  0.00098737  0.25179772  1
  Na  Na1  1  0.35956210  0.35830260  0.25152642  1
  Na  Na2  1  0.99907756  0.63942549  0.25201518  1
  Na  Na3  1  0.30374715  0.34001581  0.58676472  1
  Na  Na4  1  0.66498459  0.96571627  0.58661018  1
  Na  Na5  1  0.29270326  0.95962176  0.08276987  1
  Na  Na6  1  0.00079193  0.98960730  0.50242720  1
  Na  Na7  1  0.98851186  0.00064013  0.98962933  1
  Na  Na8  1  0.66642945  0.33329394  0.82748332  1
  Na  Na9  1  0.66725887  0.33334012  0.33025118  1
  Na  Na10  1  0.33360190  0.65515891  0.17156604  1
  Na  Na11  1  0.31969218  0.66755000  0.66255555  1
  Sc  Sc0  1  0.00053717  0.00006068  0.34639622  1
  Sc  Sc1  1  0.00106190  0.99973053  0.85733585  1
  Sc  Sc2  1  0.00156024  0.99296757  0.64225833  1
  Sc  Sc3  1  0.99400087  0.00110743  0.15348208  1
  Sc  Sc4  1  0.66868090  0.33507173  0.68145651  1
  Sc  Sc5  1  0.66870502  0.33582139  0.18931757  1
  Sc  Sc6  1  0.33421734  0.66171000  0.01344512  1
  Sc  Sc7  1  0.32708653  0.66679128  0.52220752  1
  Sc  Sc8  1  0.33317766  0.66745614  0.31258560  1
  Ta  Ta0  1  0.66899237  0.33484870  0.97183259  1
  Ta  Ta1  1  0.66865923  0.33498146  0.48549628  1
  Ta  Ta2  1  0.33348813  0.66705532  0.81991076  1
  Si  Si0  1  0.29023573  0.99926816  0.24763261  1
  Si  Si1  1  0.70859087  0.70976043  0.25058099  1
  Si  Si2  1  0.00117493  0.29106126  0.25041537  1
  Si  Si3  1  0.95960857  0.33540889  0.58559182  1
  Si  Si4  1  0.37668335  0.04246566  0.58454666  1
  Si  Si5  1  0.66756143  0.62472838  0.58407244  1
  Si  Si6  1  0.62572608  0.67147870  0.91821636  1
  Si  Si7  1  0.04599141  0.37460003  0.91786890  1
  Si  Si8  1  0.32928210  0.95400936  0.92056922  1
  S  S0  1  0.29358125  0.29885340  0.75064323  1
  S  S1  1  0.00474528  0.70739274  0.75143935  1
  S  S2  1  0.70119403  0.99487668  0.75069615  1
  S  S3  1  0.95561961  0.62268705  0.08196593  1
  S  S4  1  0.66808037  0.04608867  0.08205025  1
  S  S5  1  0.37902353  0.33405596  0.08199972  1
  S  S6  1  0.63031256  0.96689639  0.41800496  1
  S  S7  1  0.33692724  0.36990118  0.41785204  1
  S  S8  1  0.03317490  0.66292012  0.41698008  1
  O  O0  1  0.20642612  0.04386420  0.30249380  1
  O  O1  1  0.83423151  0.78855087  0.30632238  1
  O  O2  1  0.95373193  0.16528252  0.30614688  1
  O  O3  1  0.20333501  0.19186244  0.80103451  1
  O  O4  1  0.98809851  0.79378980  0.80281548  1
  O  O5  1  0.80806097  0.01059564  0.80108804  1
  O  O6  1  0.77466004  0.97142063  0.69607141  1
  O  O7  1  0.19650091  0.22457846  0.69594293  1
  O  O8  1  0.02781411  0.80884390  0.69799271  1
  O  O9  1  0.78737326  0.83447789  0.19400256  1
  O  O10  1  0.04719554  0.21271352  0.19373307  1
  O  O11  1  0.17510491  0.95738066  0.18788760  1
  O  O12  1  0.87295305  0.36771866  0.64105287  1
  O  O13  1  0.50093463  0.12591850  0.63967782  1
  O  O14  1  0.62174212  0.49765709  0.63858385  1
  O  O15  1  0.87467129  0.52711218  0.13590801  1
  O  O16  1  0.64830578  0.12732211  0.13535479  1
  O  O17  1  0.47488373  0.34906551  0.13614900  1
  O  O18  1  0.47666006  0.31859345  0.03136120  1
  O  O19  1  0.84776047  0.52553547  0.03070502  1
  O  O20  1  0.68031966  0.15500940  0.03062982  1
  O  O21  1  0.47578055  0.17095586  0.52639418  1
  O  O22  1  0.69446670  0.52660873  0.52574772  1
  O  O23  1  0.83186682  0.30568285  0.52713641  1
  O  O24  1  0.53978191  0.69672533  0.97489087  1
  O  O25  1  0.15631825  0.46153354  0.97468459  1
  O  O26  1  0.30659737  0.85233491  0.98016749  1
  O  O27  1  0.54205885  0.86405351  0.46985220  1
  O  O28  1  0.32237750  0.45772492  0.46980801  1
  O  O29  1  0.13986156  0.67711661  0.46779762  1
  O  O30  1  0.10889466  0.64001051  0.36295054  1
  O  O31  1  0.52819239  0.88790498  0.36453503  1
  O  O32  1  0.35848927  0.47158897  0.36451242  1
  O  O33  1  0.13778271  0.50284820  0.86033665  1
  O  O34  1  0.36440058  0.85814632  0.86368401  1
  O  O35  1  0.49662677  0.63374766  0.86060118  1
  O  O36  1  0.01340866  0.81557093  0.41479774  1
  O  O37  1  0.80275497  0.98683945  0.41495355  1
  O  O38  1  0.18513695  0.19693808  0.41459209  1
  O  O39  1  0.01078399  0.18551985  0.90677365  1
  O  O40  1  0.17487952  0.98786021  0.90772883  1
  O  O41  1  0.81426317  0.82549034  0.90684277  1
  O  O42  1  0.96680845  0.15791331  0.58926407  1
  O  O43  1  0.19621282  0.04116068  0.58789742  1
  O  O44  1  0.83379367  0.81447461  0.58835478  1
  O  O45  1  0.97199442  0.79523421  0.08180469  1
  O  O46  1  0.82349570  0.03085813  0.08319703  1
  O  O47  1  0.21081870  0.17234749  0.08223878  1
  O  O48  1  0.67870631  0.14715751  0.74825968  1
  O  O49  1  0.46824252  0.32094986  0.74821345  1
  O  O50  1  0.85308967  0.53336522  0.74770720  1
  O  O51  1  0.68350432  0.51833448  0.24167889  1
  O  O52  1  0.83524514  0.31705780  0.24131895  1
  O  O53  1  0.48282745  0.16547933  0.24072940  1
  O  O54  1  0.63607732  0.49131529  0.92706854  1
  O  O55  1  0.85550018  0.36454701  0.92639959  1
  O  O56  1  0.50986172  0.14540318  0.92749904  1
  O  O57  1  0.64508840  0.14254909  0.42270585  1
  O  O58  1  0.49784695  0.35506500  0.42242092  1
  O  O59  1  0.85833644  0.50272469  0.42275944  1
  O  O60  1  0.35922260  0.48660320  0.07798187  1
  O  O61  1  0.13039224  0.64340857  0.07923057  1
  O  O62  1  0.50872352  0.87596721  0.07855537  1
  O  O63  1  0.36345996  0.85940971  0.57327910  1
  O  O64  1  0.50050878  0.64520344  0.57201363  1
  O  O65  1  0.15166466  0.49210561  0.57472364  1
  O  O66  1  0.31265640  0.83141297  0.25839334  1
  O  O67  1  0.51717174  0.68538837  0.25945849  1
  O  O68  1  0.16828828  0.48203115  0.25951199  1
  O  O69  1  0.30933114  0.47512501  0.75699132  1
  O  O70  1  0.16566813  0.69143305  0.75705971  1
  O  O71  1  0.52401671  0.83516416  0.75729373  1
loop_
_geom_bond_atom_site_label_1
_geom_bond_atom_site_label_2
_geom_bond_distance
_geom_bond_site_symmetry_2
Na0 O67 2.490844 1_545
Na0 O52 2.503406 1_555
Na0 O53 2.532819 1_555
Na0 O66 2.572984 1_545
Na0 O2 2.741460 1_555
Na0 O9 2.782512 1_545
Na0 O31 2.790456 1_545
Na0 O16 2.900132 1_555
Na1 O68 2.484040 1_555
Na1 O53 2.499484 1_555
Na1 O51 2.541442 1_555
Na1 O67 2.563246 1_555
Na1 O0 2.723383 1_555
Na1 O10 2.778405 1_555
Na1 O32 2.797733 1_555
Na1 O17 2.871406 1_555
Na2 O66 2.474895 1_655
Na2 O51 2.497727 1_555
Na2 O52 2.531507 1_555
Na2 O68 2.554620 1_655
Na2 O30 2.735970 1_655
Na2 O1 2.754036 1_555
Na2 O15 2.878919 1_555
Na2 O11 2.894911 1_655
Na3 O43 2.365569 1_555
Na3 O65 2.389109 1_555
Na3 O64 2.442491 1_555
Na3 O42 2.636145 1_455
Na3 O7 2.709029 1_555
Na3 O14 2.753580 1_555
Na3 O28 2.867610 1_555
Na4 O42 2.388480 1_565
Na4 O63 2.407721 1_555
Na4 O44 2.498943 1_555
Na4 O64 2.527631 1_555
Na4 O6 2.695993 1_555
Na4 O13 2.812299 1_565
Na4 O27 2.876208 1_555
Na4 O23 2.989095 1_565
Na5 O47 2.373836 1_565
Na5 O62 2.415536 1_555
Na5 O61 2.472945 1_555
Na5 O45 2.505893 1_455
Na5 O26 2.580704 1_554
Na5 O11 2.640632 1_555
Na6 O44 2.511940 1_455
Na6 O43 2.521713 1_565
Na6 O36 2.594782 1_555
Na6 O42 2.620727 1_465
Na6 O37 2.679580 1_455
Na6 O38 2.693462 1_565
Na7 O41 2.472311 1_545
Na7 O39 2.473528 1_655
Na7 O40 2.569097 1_645
Na7 O46 2.710943 1_556
Na7 O45 2.769963 1_546
Na7 O47 2.801924 1_656
Na8 O49 2.513926 1_555
Na8 O48 2.519887 1_555
Na8 O50 2.537470 1_555
Na8 O55 2.770042 1_555
Na8 O54 2.786050 1_555
Na8 O56 2.790418 1_555
Na9 O51 2.590675 1_555
Na9 O52 2.597059 1_555
Na9 O53 2.604508 1_555
Na9 O57 2.679640 1_555
Na9 O58 2.681237 1_555
Na9 O59 2.683514 1_555
Na10 O67 2.538004 1_555
Na10 O68 2.538606 1_555
Na10 O66 2.620418 1_555
Na10 O60 2.714103 1_555
Na10 O61 2.769946 1_555
Na10 O62 2.813047 1_555
Na11 O65 2.547253 1_555
Na11 O63 2.586058 1_555
Na11 O70 2.650019 1_555
Na11 O64 2.718099 1_555
Na11 O69 2.752501 1_555
Na11 O71 2.765029 1_555
O0 Si0 1.623824 1_545
O0 Sc0 1.974554 1_555
O1 Si1 1.620707 1_555
O1 Sc0 1.970107 1_665
O2 Si2 1.622011 1_655
O2 Sc0 1.969049 1_655
O3 S0 1.468906 1_555
O3 Sc1 2.204886 1_545
O4 S1 1.465714 1_655
O4 Sc1 2.196780 1_655
O5 S2 1.467154 1_545
O5 Sc1 2.207005 1_645
O6 S2 1.486438 1_555
O6 Sc2 2.317570 1_655
O7 S0 1.487394 1_555
O7 Sc2 2.304737 1_545
O8 S1 1.484244 1_555
O8 Sc2 2.200787 1_555
O9 Si1 1.634097 1_555
O9 Sc3 1.952087 1_565
O10 Si2 1.634476 1_555
O10 Sc3 1.954133 1_455
O11 Si0 1.647667 1_555
O11 Sc3 2.020340 1_465
O12 Si3 1.599487 1_555
O12 Sc4 1.951722 1_555
O13 Si4 1.608200 1_555
O13 Sc4 1.980132 1_555
O14 Si5 1.607956 1_555
O14 Sc4 1.978627 1_555
O15 S3 1.480619 1_555
O15 Sc5 2.178540 1_555
O16 S4 1.485933 1_555
O16 Sc5 2.184350 1_555
O17 S5 1.482391 1_555
O17 Sc5 2.182048 1_555
O18 S5 1.510347 1_555
O18 Ta0 2.159440 1_554
O19 S3 1.500926 1_555
O19 Ta0 2.149723 1_554
O20 S4 1.505963 1_555
O20 Ta0 2.151997 1_554
O21 Si4 1.703740 1_555
O21 Ta1 1.880593 1_555
O22 Si5 1.692142 1_555
O22 Ta1 1.870885 1_555
O23 Si3 1.701201 1_555
O23 Ta1 1.879492 1_555
O24 Si6 1.592573 1_555
O24 Sc6 1.935104 1_556
O25 Si7 1.591537 1_555
O25 Sc6 1.932710 1_556
O26 Si8 1.605124 1_555
O26 Sc6 2.006342 1_556
O27 S6 1.477820 1_555
O27 Sc7 2.222622 1_555
O28 S7 1.477135 1_555
O28 Sc7 2.221745 1_555
O29 S8 1.477114 1_555
O29 Sc7 2.138031 1_555
O30 S8 1.483732 1_555
O30 Sc8 2.237083 1_555
O31 S6 1.487501 1_555
O31 Sc8 2.231966 1_555
O32 S7 1.485683 1_555
O32 Sc8 2.234995 1_555
O33 Si7 1.680410 1_555
O33 Ta2 1.889434 1_555
O34 Si8 1.685357 1_555
O34 Ta2 1.893670 1_555
O35 Si6 1.681618 1_555
O35 Ta2 1.887473 1_555
O36 S8 1.474065 1_555
O36 Sc0 2.333567 1_565
O37 S6 1.474681 1_555
O37 Sc0 2.342088 1_665
O38 S7 1.476893 1_555
O38 Sc0 2.330824 1_555
O39 Si7 1.591664 1_555
O39 Sc1 1.991786 1_545
O40 Si8 1.593258 1_555
O40 Sc1 1.992387 1_555
O41 Si6 1.591342 1_555
O41 Sc1 1.992282 1_655
O42 Si3 1.635736 1_555
O42 Sc2 2.063160 1_645
O43 Si4 1.622777 1_555
O43 Sc2 2.020587 1_545
O44 Si5 1.620061 1_555
O44 Sc2 1.996283 1_655
O45 S3 1.487633 1_555
O45 Sc3 2.418090 1_565
O46 S4 1.474220 1_555
O46 Sc3 2.334462 1_555
O47 S5 1.489860 1_555
O47 Sc3 2.427760 1_455
O48 S2 1.485471 1_545
O48 Sc4 2.321602 1_555
O49 S0 1.486146 1_555
O49 Sc4 2.329480 1_555
O50 S1 1.482715 1_655
O50 Sc4 2.305644 1_555
O51 Si1 1.638118 1_555
O51 Sc5 1.991071 1_555
O52 Si2 1.638074 1_655
O52 Sc5 1.989675 1_555
O53 Si0 1.640301 1_545
O53 Sc5 2.001501 1_555
O54 Si6 1.684961 1_555
O54 Ta0 1.884835 1_555
O55 Si7 1.685526 1_655
O55 Ta0 1.884408 1_555
O56 Si8 1.688354 1_545
O56 Ta0 1.889491 1_555
O57 S6 1.525655 1_545
O57 Ta1 2.186903 1_555
O58 S7 1.524865 1_555
O58 Ta1 2.185861 1_555
O59 S8 1.522394 1_655
O59 Ta1 2.173668 1_555
O60 S5 1.475304 1_555
O60 Sc6 2.257997 1_555
O61 S3 1.492371 1_455
O61 Sc6 2.325388 1_555
O62 S4 1.491521 1_565
O62 Sc6 2.327644 1_555
O63 Si4 1.615638 1_565
O63 Sc7 1.985343 1_555
O64 Si5 1.628832 1_555
O64 Sc7 2.022323 1_555
O65 Si3 1.617799 1_455
O65 Sc7 1.990932 1_555
O66 Si0 1.642089 1_555
O66 Sc8 2.010766 1_555
O67 Si1 1.640173 1_555
O67 Sc8 2.003712 1_555
O68 Si2 1.640116 1_555
O68 Sc8 2.003699 1_555
O69 S0 1.530639 1_555
O69 Ta2 2.183924 1_555
O70 S1 1.532402 1_555
O70 Ta2 2.179417 1_555
O71 S2 1.534289 1_555
O71 Ta2 2.176226 1_555
