# generated using pymatgen
data_LaInPd2
_symmetry_space_group_name_H-M   'P 1'
_cell_length_a   4.66289950
_cell_length_b   4.66290029
_cell_length_c   9.39565806
_cell_angle_alpha   90.00000000
_cell_angle_beta   90.00000000
_cell_angle_gamma   119.99999436
_symmetry_Int_Tables_number   1
_chemical_formula_structural   LaInPd2
_chemical_formula_sum   'La2 In2 Pd4'
_cell_volume   176.91719442
_cell_formula_units_Z   2
loop_
 _symmetry_equiv_pos_site_id
 _symmetry_equiv_pos_as_xyz
  1  'x, y, z'
loop_
 _atom_site_type_symbol
 _atom_site_label
 _atom_site_symmetry_multiplicity
 _atom_site_fract_x
 _atom_site_fract_y
 _atom_site_fract_z
 _atom_site_occupancy
  La  La0  1  0.66666700  0.33333300  0.75000000  1
  La  La1  1  0.33333300  0.66666700  0.25000000  1
  In  In0  1  -0.00000000  -0.00000000  0.00000000  1
  In  In1  1  -0.00000000  -0.00000000  0.50000000  1
  Pd  Pd0  1  0.33333300  0.66666700  0.92296169  1
  Pd  Pd1  1  0.66666700  0.33333300  0.42296169  1
  Pd  Pd2  1  0.33333300  0.66666700  0.57703831  1
  Pd  Pd3  1  0.66666700  0.33333300  0.07703831  1
loop_
_geom_bond_atom_site_label_1
_geom_bond_atom_site_label_2
_geom_bond_distance
_geom_bond_site_symmetry_2
La0 Pd1 3.072740 1_555
La0 Pd3 3.072740 1_556
La0 Pd2 3.144590 1_655
La0 Pd0 3.144590 1_655
La0 Pd0 3.144590 1_545
La0 Pd2 3.144590 1_545
La0 Pd0 3.144597 1_555
La0 Pd2 3.144597 1_555
La1 Pd0 3.072740 1_554
La1 Pd2 3.072740 1_555
La1 Pd3 3.144590 1_455
La1 Pd1 3.144590 1_455
La1 Pd3 3.144590 1_565
La1 Pd1 3.144590 1_565
La1 Pd1 3.144597 1_555
La1 Pd3 3.144597 1_555
In0 Pd0 2.787733 1_544
In0 Pd3 2.787733 1_455
In0 Pd3 2.787737 1_555
In0 Pd0 2.787737 1_444
In0 Pd0 2.787737 1_554
In0 Pd3 2.787737 1_445
In1 Pd2 2.787733 1_545
In1 Pd1 2.787733 1_455
In1 Pd2 2.787737 1_445
In1 Pd1 2.787737 1_555
In1 Pd1 2.787737 1_445
In1 Pd2 2.787737 1_555
