# generated using pymatgen
data_Na14Hf3Zn5Si6(SO8)6
_symmetry_space_group_name_H-M   'P 1'
_cell_length_a   18.42881247
_cell_length_b   9.15628846
_cell_length_c   22.22788622
_cell_angle_alpha   89.94369787
_cell_angle_beta   90.53559926
_cell_angle_gamma   119.81645947
_symmetry_Int_Tables_number   1
_chemical_formula_structural   Na14Hf3Zn5Si6(SO8)6
_chemical_formula_sum   'Na42 Hf9 Zn15 Si18 S18 O144'
_cell_volume   3254.04093873
_cell_formula_units_Z   3
loop_
 _symmetry_equiv_pos_site_id
 _symmetry_equiv_pos_as_xyz
  1  'x, y, z'
loop_
 _atom_site_type_symbol
 _atom_site_label
 _atom_site_symmetry_multiplicity
 _atom_site_fract_x
 _atom_site_fract_y
 _atom_site_fract_z
 _atom_site_occupancy
  Na  Na0  1  0.19539327  0.36276179  0.24737674  1
  Na  Na1  1  0.68853064  0.35770654  0.24771519  1
  Na  Na2  1  0.99575412  0.64406943  0.24955376  1
  Na  Na3  1  0.49265455  0.63105046  0.23759688  1
  Na  Na4  1  0.32021905  0.63339338  0.74408820  1
  Na  Na5  1  0.81782736  0.62647257  0.73280579  1
  Na  Na6  1  0.18943749  0.02262219  0.74786462  1
  Na  Na7  1  0.69344819  0.02672077  0.74584279  1
  Na  Na8  1  0.15381131  0.32851725  0.57345578  1
  Na  Na9  1  0.66400015  0.34705340  0.57627295  1
  Na  Na10  1  0.00947613  0.68811189  0.57319291  1
  Na  Na11  1  0.51953781  0.69102770  0.57540320  1
  Na  Na12  1  0.32020140  0.96774498  0.59148420  1
  Na  Na13  1  0.82023227  0.95631249  0.58942187  1
  Na  Na14  1  0.15674759  0.97744975  0.07647480  1
  Na  Na15  1  0.64653685  0.96094429  0.07214848  1
  Na  Na16  1  0.81927353  0.67292995  0.09017707  1
  Na  Na17  1  0.01912028  0.34834731  0.07568446  1
  Na  Na18  1  0.52148302  0.35562397  0.08829808  1
  Na  Na19  1  0.49369989  0.68526768  0.92360480  1
  Na  Na20  1  0.98482205  0.67847843  0.91905405  1
  Na  Na21  1  0.84938452  0.03625348  0.90503507  1
  Na  Na22  1  0.15992624  0.27700364  0.90578592  1
  Na  Na23  1  0.66539010  0.28117502  0.91462569  1
  Na  Na24  1  0.48814860  0.29880450  0.41917159  1
  Na  Na25  1  0.98311240  0.29115001  0.42327627  1
  Na  Na26  1  0.16486914  0.05221322  0.41381138  1
  Na  Na27  1  0.66740087  0.05145819  0.41440514  1
  Na  Na28  1  0.35260793  0.65992271  0.40385119  1
  Na  Na29  1  0.85237861  0.65773278  0.41480886  1
  Na  Na30  1  0.00352029  0.99521441  0.49653925  1
  Na  Na31  1  0.51413788  0.01343945  0.49348721  1
  Na  Na32  1  0.00779461  0.00842824  0.99295447  1
  Na  Na33  1  0.50007751  0.99644150  0.99595791  1
  Na  Na34  1  0.33341069  0.30123955  0.82856681  1
  Na  Na35  1  0.83002028  0.31776883  0.82628799  1
  Na  Na36  1  0.32532937  0.31886093  0.32484920  1
  Na  Na37  1  0.82051068  0.31933197  0.33018988  1
  Na  Na38  1  0.19557893  0.68328520  0.16010896  1
  Na  Na39  1  0.66800557  0.67625126  0.16079833  1
  Na  Na40  1  0.16089200  0.66214428  0.66232621  1
  Na  Na41  1  0.67115981  0.66610036  0.65955656  1
  Hf  Hf0  1  0.00041756  0.00576261  0.64966217  1
  Hf  Hf1  1  0.50365981  0.01380063  0.65270383  1
  Hf  Hf2  1  0.00364791  0.99893444  0.15152256  1
  Hf  Hf3  1  0.49917472  0.98426381  0.14772071  1
  Hf  Hf4  1  0.32573167  0.32679297  0.98463371  1
  Hf  Hf5  1  0.17592937  0.67498636  0.31146172  1
  Hf  Hf6  1  0.67377634  0.67066806  0.31098785  1
  Hf  Hf7  1  0.17226332  0.67745892  0.81188547  1
  Hf  Hf8  1  0.67131942  0.67606244  0.81128478  1
  Zn  Zn0  1  0.01189535  0.00537886  0.34249480  1
  Zn  Zn1  1  0.51168291  0.00507365  0.34194366  1
  Zn  Zn2  1  0.00912583  0.02176866  0.83915577  1
  Zn  Zn3  1  0.50988007  0.02267245  0.84428114  1
  Zn  Zn4  1  0.32041355  0.28968924  0.68580305  1
  Zn  Zn5  1  0.81863852  0.30932253  0.68008016  1
  Zn  Zn6  1  0.32496117  0.35573668  0.18202858  1
  Zn  Zn7  1  0.81583864  0.33387798  0.18607687  1
  Zn  Zn8  1  0.80651609  0.28832768  0.98712266  1
  Zn  Zn9  1  0.31013215  0.32158420  0.48534277  1
  Zn  Zn10  1  0.80292833  0.34227145  0.49423548  1
  Zn  Zn11  1  0.17250188  0.67393137  0.01419084  1
  Zn  Zn12  1  0.65331091  0.66286438  0.01967564  1
  Zn  Zn13  1  0.16460601  0.66310799  0.51307060  1
  Zn  Zn14  1  0.67565779  0.66316712  0.51797877  1
  Si  Si0  1  0.15674190  0.00634776  0.25161633  1
  Si  Si1  1  0.65225119  -0.00041337  0.25159221  1
  Si  Si2  1  0.35729991  0.71309552  0.25651848  1
  Si  Si3  1  0.85594411  0.70814611  0.25326607  1
  Si  Si4  1  0.15399357  0.30405033  0.75010090  1
  Si  Si5  1  0.65338906  0.30477379  0.75473200  1
  Si  Si6  1  0.35684183  0.00146445  0.75303501  1
  Si  Si7  1  0.85647814  0.01103923  0.75435605  1
  Si  Si8  1  0.17930017  0.01675628  0.58118280  1
  Si  Si9  1  0.67665233  0.01802722  0.58193016  1
  Si  Si10  1  0.83705799  0.63384841  0.58418314  1
  Si  Si11  1  0.47712768  0.62416601  0.08520433  1
  Si  Si12  1  0.17977878  0.34347167  0.08498672  1
  Si  Si13  1  0.67889378  0.33792548  0.08188874  1
  Si  Si14  1  0.16413244  0.95925416  0.92042361  1
  Si  Si15  1  0.66430704  0.96206377  0.91857506  1
  Si  Si16  1  0.16354508  0.36978629  0.42003103  1
  Si  Si17  1  0.66178358  0.36525189  0.41835236  1
  S  S0  1  0.00185053  0.30044507  0.25190214  1
  S  S1  1  0.50051348  0.29682904  0.25298024  1
  S  S2  1  0.00255360  0.70589234  0.75316911  1
  S  S3  1  0.50126948  0.70292920  0.75165411  1
  S  S4  1  0.47444292  0.32581595  0.58336130  1
  S  S5  1  0.98001854  0.33086959  0.58310756  1
  S  S6  1  0.33816675  0.63349534  0.58452784  1
  S  S7  1  0.97880397  0.63082776  0.08422643  1
  S  S8  1  0.33402460  0.04300327  0.08604873  1
  S  S9  1  0.84033961  0.05040572  0.08381661  1
  S  S10  1  0.31408125  0.66144077  0.91792431  1
  S  S11  1  0.81416033  0.66568652  0.91979077  1
  S  S12  1  0.01963159  0.37789270  0.91859661  1
  S  S13  1  0.51588771  0.37169296  0.91758960  1
  S  S14  1  0.31526683  0.96598369  0.42061302  1
  S  S15  1  0.81573733  0.96447363  0.41827419  1
  S  S16  1  0.01910917  0.66268402  0.41530929  1
  S  S17  1  0.51887986  0.65901935  0.41926935  1
  O  O0  1  0.11823911  0.04292263  0.31178697  1
  O  O1  1  0.61691158  0.03755801  0.31270105  1
  O  O2  1  0.40698271  0.80624869  0.31794663  1
  O  O3  1  0.91132616  0.80382121  0.31246250  1
  O  O4  1  0.49563858  0.20647563  0.30903725  1
  O  O5  1  0.99083133  0.20530764  0.30731983  1
  O  O6  1  0.11732231  0.18812081  0.81008012  1
  O  O7  1  0.61616919  0.19290847  0.81456985  1
  O  O8  1  0.49108106  0.77350390  0.80803295  1
  O  O9  1  0.99403038  0.78252893  0.80910190  1
  O  O10  1  0.40763105  0.98943352  0.80960750  1
  O  O11  1  0.90474775  0.01242353  0.81625734  1
  O  O12  1  0.39511107  0.96709092  0.68973070  1
  O  O13  1  0.90142845  0.97289287  0.69693301  1
  O  O14  1  0.09515171  0.20479485  0.69118292  1
  O  O15  1  0.59195296  0.20113141  0.69554053  1
  O  O16  1  0.01474297  0.81919619  0.70020281  1
  O  O17  1  0.51343070  0.82092372  0.69933173  1
  O  O18  1  0.40341289  0.83087985  0.19776513  1
  O  O19  1  0.90083444  0.82059003  0.19140506  1
  O  O20  1  0.01301941  0.20857503  0.19866981  1
  O  O21  1  0.51042845  0.21080807  0.19897366  1
  O  O22  1  0.08940460  0.97756311  0.19441224  1
  O  O23  1  0.58906749  0.97901599  0.19395385  1
  O  O24  1  0.42996828  0.34277220  0.63476761  1
  O  O25  1  0.93447725  0.34350299  0.63443291  1
  O  O26  1  0.24085104  0.09371930  0.63969544  1
  O  O27  1  0.73501869  0.09583966  0.64145857  1
  O  O28  1  0.33365942  0.53555313  0.63821774  1
  O  O29  1  0.82834620  0.51669522  0.64162563  1
  O  O30  1  0.43352757  0.50640751  0.14320787  1
  O  O31  1  0.93718184  0.53312591  0.13832224  1
  O  O32  1  0.32264611  0.12323915  0.13877535  1
  O  O33  1  0.83628755  0.14755071  0.13432619  1
  O  O34  1  0.22636392  0.36091070  0.14764282  1
  O  O35  1  0.74127571  0.38180208  0.13980386  1
  O  O36  1  0.23018213  0.30830988  0.02893082  1
  O  O37  1  0.71275196  0.28327823  0.02284920  1
  O  O38  1  0.42344490  0.52833591  0.02254676  1
  O  O39  1  0.93226720  0.54990203  0.02810472  1
  O  O40  1  0.34029660  0.14452113  0.03005605  1
  O  O41  1  0.85394014  0.14425036  0.02529583  1
  O  O42  1  0.21637919  0.13652779  0.52189212  1
  O  O43  1  0.71191122  0.13572902  0.52160264  1
  O  O44  1  0.35002476  0.55786179  0.52853129  1
  O  O45  1  0.86117907  0.56905864  0.52192825  1
  O  O46  1  0.42924651  0.30676597  0.52563054  1
  O  O47  1  0.93721551  0.31282243  0.52494564  1
  O  O48  1  0.27212885  0.67496504  0.97113436  1
  O  O49  1  0.77290257  0.67713549  0.97435995  1
  O  O50  1  0.06461370  0.45308476  0.97583464  1
  O  O51  1  0.55991473  0.44514815  0.97522248  1
  O  O52  1  0.15391182  0.85023118  0.98132429  1
  O  O53  1  0.65607181  0.85385860  0.97904469  1
  O  O54  1  0.27426629  0.87350861  0.47601374  1
  O  O55  1  0.77589437  0.87433438  0.47418664  1
  O  O56  1  0.15481267  0.45713756  0.48191799  1
  O  O57  1  0.64912280  0.44789698  0.47984859  1
  O  O58  1  0.06602603  0.67778439  0.47174949  1
  O  O59  1  0.56691876  0.67098701  0.47442946  1
  O  O60  1  0.06998001  0.66611247  0.36207778  1
  O  O61  1  0.56588924  0.65499559  0.36463399  1
  O  O62  1  0.25996747  0.86860857  0.36734799  1
  O  O63  1  0.75919557  0.86439093  0.36572750  1
  O  O64  1  0.17016863  0.49191809  0.36254947  1
  O  O65  1  0.66911011  0.48748591  0.36062814  1
  O  O66  1  0.07157851  0.48251345  0.86706371  1
  O  O67  1  0.56435181  0.48294401  0.86653124  1
  O  O68  1  0.17200813  0.85771149  0.86144085  1
  O  O69  1  0.67027443  0.85587218  0.86004569  1
  O  O70  1  0.26296332  0.64544121  0.86230847  1
  O  O71  1  0.76062502  0.65337006  0.86524609  1
  O  O72  1  0.00648083  0.81106840  0.41449837  1
  O  O73  1  0.50726443  0.80863899  0.41819855  1
  O  O74  1  0.39830599  0.98093765  0.41710479  1
  O  O75  1  0.89846291  0.97625051  0.41393145  1
  O  O76  1  0.07872948  0.18192826  0.41546059  1
  O  O77  1  0.57746650  0.17750324  0.41307963  1
  O  O78  1  0.00786283  0.20474035  0.91553528  1
  O  O79  1  0.50528775  0.20226922  0.91280470  1
  O  O80  1  0.07979104  0.97805740  0.91523332  1
  O  O81  1  0.57944785  0.97971843  0.91529127  1
  O  O82  1  0.40044380  0.79791453  0.91462440  1
  O  O83  1  0.89842801  0.81723585  0.91600570  1
  O  O84  1  0.48093198  0.16432524  0.58797413  1
  O  O85  1  0.98881674  0.17274669  0.58780946  1
  O  O86  1  0.08684189  0.00362888  0.58987752  1
  O  O87  1  0.58099020  0.00030302  0.58953666  1
  O  O88  1  0.41474120  0.80767671  0.58732828  1
  O  O89  1  0.91850818  0.82691791  0.59070977  1
  O  O90  1  0.48648009  0.81530330  0.08502183  1
  O  O91  1  0.98303991  0.80405832  0.08588930  1
  O  O92  1  0.41448155  0.04094387  0.08692096  1
  O  O93  1  0.91701316  0.02986131  0.08845118  1
  O  O94  1  0.08536675  0.16293097  0.08509386  1
  O  O95  1  0.58338780  0.17422668  0.09129064  1
  O  O96  1  0.34109900  0.16004935  0.74999288  1
  O  O97  1  0.83993581  0.16723378  0.74733414  1
  O  O98  1  0.25026659  0.33938215  0.74389898  1
  O  O99  1  0.74713181  0.33365418  0.74733723  1
  O  O100  1  0.42864118  0.53843891  0.73992657  1
  O  O101  1  0.93074319  0.53902760  0.74517924  1
  O  O102  1  0.34701360  0.52584969  0.25379186  1
  O  O103  1  0.84752927  0.52142578  0.25025986  1
  O  O104  1  0.42991221  0.32624113  0.24847980  1
  O  O105  1  0.93326132  0.33339497  0.24132049  1
  O  O106  1  0.24773541  0.16624028  0.24120060  1
  O  O107  1  0.74537009  0.15841145  0.24315126  1
  O  O108  1  0.31501815  0.49514011  0.91825710  1
  O  O109  1  0.82255641  0.51200818  0.91720146  1
  O  O110  1  0.43205006  0.36544630  0.91676129  1
  O  O111  1  0.93779184  0.37214487  0.91574156  1
  O  O112  1  0.24883256  0.15176971  0.92165437  1
  O  O113  1  0.75374846  0.14401008  0.91543255  1
  O  O114  1  0.32240345  0.13472839  0.41717440  1
  O  O115  1  0.82396102  0.13292638  0.41487584  1
  O  O116  1  0.25219741  0.36384051  0.41683521  1
  O  O117  1  0.74993968  0.35885946  0.41541298  1
  O  O118  1  0.43588938  0.50178059  0.41793385  1
  O  O119  1  0.93870511  0.50360641  0.41189939  1
  O  O120  1  0.16374060  0.50215186  0.07419816  1
  O  O121  1  0.67263343  0.51003520  0.07423258  1
  O  O122  1  0.06598421  0.66319943  0.08437620  1
  O  O123  1  0.57324194  0.65787600  0.08454150  1
  O  O124  1  0.26137619  0.87156301  0.07942584  1
  O  O125  1  0.76564507  0.88038769  0.08205678  1
  O  O126  1  0.16591149  0.82455232  0.57452649  1
  O  O127  1  0.66332602  0.82799141  0.57476824  1
  O  O128  1  0.26259473  0.65231233  0.58230065  1
  O  O129  1  0.75217859  0.65010306  0.58217031  1
  O  O130  1  0.06685130  0.47833020  0.58456279  1
  O  O131  1  0.56078737  0.46999809  0.58405586  1
  O  O132  1  0.14952395  0.81837216  0.25462607  1
  O  O133  1  0.64649161  0.81331040  0.25446180  1
  O  O134  1  0.25941550  0.68173525  0.25554916  1
  O  O135  1  0.75863997  0.67821828  0.25454635  1
  O  O136  1  0.08292175  0.46697786  0.25335999  1
  O  O137  1  0.58106563  0.46844697  0.25333245  1
  O  O138  1  0.15919765  0.48868957  0.75648335  1
  O  O139  1  0.65723537  0.48822049  0.75581628  1
  O  O140  1  0.08308061  0.69919888  0.75385485  1
  O  O141  1  0.58108127  0.69569985  0.75191314  1
  O  O142  1  0.25912370  0.82997232  0.75471578  1
  O  O143  1  0.76013398  0.83325635  0.75574789  1
loop_
_geom_bond_atom_site_label_1
_geom_bond_atom_site_label_2
_geom_bond_distance
_geom_bond_site_symmetry_2
Na0 O34 2.296503 1_555
Na0 O102 2.429263 1_555
Na0 O106 2.432326 1_555
Na0 O134 2.554469 1_555
Na0 O136 2.682662 1_555
Na0 O0 2.921776 1_555
Na0 O64 2.956914 1_555
Na1 O107 2.518056 1_555
Na1 O103 2.542671 1_555
Na1 O135 2.555660 1_555
Na1 O35 2.564426 1_555
Na1 O137 2.639652 1_555
Na1 O65 2.878350 1_555
Na1 O1 2.932807 1_555
Na2 O103 2.381865 1_555
Na2 O132 2.467199 1_655
Na2 O105 2.488159 1_555
Na2 O31 2.678553 1_555
Na2 O136 2.793641 1_655
Na2 O60 2.798250 1_655
Na2 O22 2.931992 1_655
Na2 O3 2.970470 1_555
Na3 O30 2.370020 1_555
Na3 O102 2.389064 1_555
Na3 O104 2.445300 1_555
Na3 O133 2.497876 1_555
Na3 O137 2.719245 1_555
Na4 O98 2.336194 1_555
Na4 O100 2.547156 1_555
Na4 O142 2.566003 1_555
Na4 O28 2.576338 1_555
Na4 O138 2.596491 1_555
Na4 O70 2.863380 1_555
Na4 O12 2.920741 1_555
Na5 O29 2.315321 1_555
Na5 O99 2.350034 1_555
Na5 O101 2.587010 1_555
Na5 O139 2.631398 1_555
Na5 O143 2.643724 1_555
Na5 O13 2.868593 1_555
Na6 O96 2.428487 1_555
Na6 O98 2.538607 1_555
Na6 O26 2.555125 1_555
Na6 O140 2.619365 1_545
Na6 O142 2.651898 1_545
Na6 O6 2.831287 1_555
Na6 O68 2.877835 1_545
Na6 O16 2.988849 1_545
Na7 O97 2.342786 1_555
Na7 O27 2.432929 1_555
Na7 O99 2.472386 1_555
Na7 O143 2.618345 1_545
Na7 O141 2.693648 1_545
Na7 O69 2.901994 1_545
Na8 O56 2.345556 1_555
Na8 O130 2.589397 1_555
Na8 O86 2.619349 1_555
Na8 O128 2.632615 1_555
Na8 O85 2.661982 1_455
Na8 O42 2.788873 1_555
Na8 O14 2.851131 1_555
Na9 O57 2.399667 1_555
Na9 O129 2.422829 1_555
Na9 O131 2.655366 1_555
Na9 O87 2.772008 1_555
Na9 O43 2.779204 1_555
Na9 O84 2.941304 1_555
Na9 O15 2.978410 1_555
Na9 O29 2.989950 1_555
Na10 O126 2.507927 1_555
Na10 O58 2.514322 1_555
Na10 O86 2.532306 1_565
Na10 O89 2.590238 1_455
Na10 O130 2.623965 1_555
Na10 O45 2.633883 1_455
Na11 O127 2.300130 1_555
Na11 O59 2.455681 1_555
Na11 O87 2.491245 1_565
Na11 O131 2.497418 1_555
Na11 O88 2.646183 1_555
Na12 O126 2.493903 1_555
Na12 O26 2.515229 1_565
Na12 O128 2.541325 1_555
Na12 O12 2.574233 1_555
Na12 O84 2.592654 1_565
Na12 O54 2.699306 1_555
Na12 O88 2.781127 1_555
Na13 O129 2.441345 1_555
Na13 O127 2.540169 1_555
Na13 O89 2.611020 1_555
Na13 O55 2.673341 1_555
Na13 O85 2.731317 1_565
Na13 O27 2.732781 1_565
Na13 O13 2.771452 1_555
Na14 O52 2.403133 1_554
Na14 O122 2.515203 1_555
Na14 O124 2.553180 1_555
Na14 O94 2.622682 1_565
Na14 O91 2.787462 1_455
Na14 O36 2.840648 1_565
Na14 O22 2.911114 1_555
Na14 O32 2.985424 1_565
Na15 O53 2.336071 1_554
Na15 O123 2.424643 1_555
Na15 O90 2.581487 1_555
Na15 O125 2.647902 1_555
Na15 O95 2.760445 1_565
Na15 O37 2.799589 1_565
Na15 O23 2.950974 1_555
Na16 O121 2.372351 1_555
Na16 O125 2.545682 1_555
Na16 O35 2.569470 1_555
Na16 O91 2.638329 1_555
Na16 O19 2.659306 1_555
Na16 O49 2.711188 1_554
Na16 O93 2.841449 1_565
Na17 O120 2.314435 1_555
Na17 O50 2.404080 1_554
Na17 O94 2.544042 1_555
Na17 O122 2.572199 1_555
Na17 O93 2.583946 1_455
Na17 O41 2.880356 1_455
Na17 O20 2.996571 1_555
Na18 O95 2.438703 1_555
Na18 O123 2.439631 1_555
Na18 O121 2.440252 1_555
Na18 O92 2.557381 1_555
Na18 O51 2.634915 1_554
Na18 O21 2.754280 1_555
Na18 O30 2.879044 1_555
Na19 O81 2.359623 1_555
Na19 O82 2.411061 1_555
Na19 O110 2.564844 1_555
Na19 O38 2.602837 1_556
Na19 O8 2.699403 1_555
Na19 O108 2.860126 1_555
Na19 O53 2.863004 1_555
Na20 O80 2.413035 1_655
Na20 O83 2.482554 1_555
Na20 O111 2.491114 1_555
Na20 O109 2.594683 1_555
Na20 O9 2.598465 1_555
Na20 O39 2.665339 1_556
Na21 O11 2.289655 1_555
Na21 O113 2.422910 1_555
Na21 O78 2.543922 1_655
Na21 O83 2.587523 1_545
Na21 O111 2.679763 1_555
Na21 O41 2.837077 1_556
Na22 O6 2.267397 1_555
Na22 O80 2.387943 1_545
Na22 O112 2.445504 1_555
Na22 O78 2.550505 1_555
Na22 O108 2.558228 1_555
Na23 O7 2.378881 1_555
Na23 O81 2.404262 1_545
Na23 O113 2.502453 1_555
Na23 O37 2.548161 1_556
Na23 O109 2.601719 1_555
Na23 O79 2.665901 1_555
Na24 O77 2.404955 1_555
Na24 O118 2.482271 1_555
Na24 O74 2.533982 1_545
Na24 O4 2.617848 1_555
Na24 O46 2.628748 1_555
Na24 O114 2.650111 1_555
Na24 O57 2.895633 1_555
Na25 O76 2.427724 1_655
Na25 O47 2.462814 1_555
Na25 O119 2.469056 1_555
Na25 O75 2.512441 1_545
Na25 O115 2.549669 1_555
Na25 O5 2.720916 1_555
Na26 O0 2.404122 1_555
Na26 O76 2.410006 1_555
Na26 O116 2.483536 1_555
Na26 O42 2.549686 1_555
Na26 O114 2.611438 1_555
Na26 O72 2.643316 1_545
Na27 O1 2.415790 1_555
Na27 O117 2.445081 1_555
Na27 O77 2.445596 1_555
Na27 O43 2.506690 1_555
Na27 O115 2.596192 1_555
Na27 O73 2.671859 1_545
Na28 O2 2.267363 1_555
Na28 O116 2.424204 1_555
Na28 O73 2.490701 1_555
Na28 O118 2.598145 1_555
Na28 O74 2.640262 1_555
Na28 O44 2.917055 1_555
Na29 O117 2.432244 1_555
Na29 O72 2.464073 1_655
Na29 O45 2.544562 1_555
Na29 O3 2.596135 1_555
Na29 O119 2.600275 1_555
Na29 O75 2.600838 1_555
Na30 O76 2.403332 1_565
Na30 O72 2.504151 1_555
Na30 O86 2.547801 1_565
Na30 O75 2.598083 1_455
Na30 O89 2.620071 1_455
Na30 O85 2.699329 1_465
Na31 O77 2.259066 1_555
Na31 O73 2.469633 1_545
Na31 O87 2.487593 1_555
Na31 O74 2.613305 1_545
Na31 O84 2.750394 1_555
Na31 O88 2.808491 1_545
Na32 O80 2.287572 1_545
Na32 O94 2.485827 1_556
Na32 O78 2.486778 1_555
Na32 O83 2.546575 1_445
Na32 O91 2.671734 1_446
Na32 O93 2.781536 1_456
Na33 O81 2.377028 1_555
Na33 O90 2.514426 1_556
Na33 O82 2.563072 1_555
Na33 O79 2.606494 1_565
Na33 O95 2.637804 1_566
Na33 O92 2.728171 1_566
Na34 O96 2.221023 1_555
Na34 O110 2.523096 1_555
Na34 O98 2.547269 1_555
Na34 O112 2.552887 1_555
Na34 O108 2.803487 1_555
Na34 O100 2.818654 1_555
Na35 O97 2.296602 1_555
Na35 O99 2.367394 1_555
Na35 O113 2.501054 1_555
Na35 O111 2.662863 1_555
Na35 O101 2.667571 1_555
Na35 O109 2.742490 1_555
Na36 O106 2.328724 1_555
Na36 O102 2.345014 1_555
Na36 O104 2.555823 1_555
Na36 O116 2.602262 1_555
Na36 O114 2.638516 1_555
Na36 O118 2.787837 1_555
Na37 O107 2.399595 1_555
Na37 O103 2.433602 1_555
Na37 O117 2.434413 1_555
Na37 O115 2.561233 1_555
Na37 O119 2.677189 1_555
Na37 O105 2.836613 1_555
Na38 O124 2.369470 1_555
Na38 O120 2.399815 1_555
Na38 O134 2.419620 1_555
Na38 O132 2.783258 1_555
Na38 O122 2.839033 1_555
Na38 O136 2.917651 1_555
Na39 O123 2.367340 1_555
Na39 O121 2.482713 1_555
Na39 O125 2.550035 1_555
Na39 O133 2.565530 1_555
Na39 O135 2.652841 1_555
Na39 O137 2.727686 1_555
Na40 O130 2.423430 1_555
Na40 O126 2.426833 1_555
Na40 O138 2.617064 1_555
Na40 O140 2.617298 1_555
Na40 O128 2.629738 1_555
Na40 O142 2.650704 1_555
Na41 O129 2.339999 1_555
Na41 O127 2.443832 1_555
Na41 O131 2.547140 1_555
Na41 O139 2.623827 1_555
Na41 O143 2.654794 1_555
Na41 O141 2.748775 1_555
Hf0 O13 2.002932 1_445
Hf0 O14 2.007511 1_555
Hf0 O89 2.046058 1_445
Hf0 O86 2.091309 1_555
Hf0 O85 2.142211 1_455
Hf0 O16 2.165421 1_545
Hf1 O15 1.922262 1_555
Hf1 O12 2.010292 1_545
Hf1 O87 2.056824 1_555
Hf1 O17 2.129476 1_545
Hf1 O84 2.168884 1_555
Hf1 O88 2.290034 1_545
Hf2 O22 1.929717 1_555
Hf2 O19 1.998547 1_455
Hf2 O20 2.117449 1_565
Hf2 O94 2.119300 1_565
Hf2 O91 2.185710 1_455
Hf2 O93 2.236439 1_465
Hf3 O23 1.962146 1_555
Hf3 O18 1.973105 1_555
Hf3 O90 2.007142 1_555
Hf3 O95 2.086846 1_565
Hf3 O21 2.283867 1_565
Hf3 O92 2.301422 1_565
Hf4 O36 1.958194 1_556
Hf4 O38 2.007082 1_556
Hf4 O112 2.060366 1_555
Hf4 O40 2.076984 1_556
Hf4 O108 2.210107 1_555
Hf4 O110 2.367462 1_555
Hf5 O134 1.963824 1_555
Hf5 O64 1.982946 1_555
Hf5 O132 2.043783 1_555
Hf5 O62 2.079101 1_555
Hf5 O136 2.224929 1_555
Hf5 O60 2.228876 1_555
Hf6 O65 1.973022 1_555
Hf6 O135 1.988373 1_555
Hf6 O133 2.043376 1_555
Hf6 O63 2.072800 1_555
Hf6 O137 2.192644 1_555
Hf6 O61 2.270645 1_555
Hf7 O142 1.984660 1_555
Hf7 O68 1.987135 1_555
Hf7 O138 2.036352 1_555
Hf7 O70 2.141880 1_555
Hf7 O140 2.165608 1_555
Hf7 O66 2.208604 1_555
Hf8 O69 1.980185 1_555
Hf8 O143 1.991494 1_555
Hf8 O139 2.024834 1_555
Hf8 O71 2.119706 1_555
Hf8 O141 2.189822 1_555
Hf8 O67 2.257279 1_555
O0 Si0 1.630758 1_555
O0 Zn0 1.944077 1_555
O1 Si1 1.622560 1_555
O1 Zn1 1.929044 1_555
O2 Si2 1.622495 1_555
O2 Zn1 1.952237 1_565
O3 Si3 1.621261 1_555
O3 Zn0 1.965810 1_665
O4 S1 1.473514 1_555
O4 Zn1 2.135100 1_555
O5 S0 1.464272 1_655
O5 Zn0 2.193467 1_655
O6 Si4 1.631443 1_555
O6 Zn2 1.927545 1_555
O7 Si5 1.613819 1_555
O7 Zn3 1.920554 1_555
O8 S3 1.466269 1_555
O8 Zn3 2.277422 1_565
O9 S2 1.475721 1_655
O9 Zn2 2.171533 1_665
O10 Si6 1.596789 1_565
O10 Zn3 1.907967 1_565
O11 Si7 1.628066 1_555
O11 Zn2 1.945402 1_655
O12 Si6 1.678271 1_565
O13 Si7 1.657034 1_565
O14 Si4 1.647028 1_555
O15 Si5 1.679178 1_555
O16 S2 1.511173 1_555
O17 S3 1.526989 1_555
O18 Si2 1.642372 1_555
O19 Si3 1.675293 1_555
O20 S0 1.526013 1_555
O21 S1 1.497970 1_555
O22 Si0 1.694728 1_565
O23 Si1 1.669494 1_565
O24 S4 1.464900 1_555
O24 Zn4 2.159912 1_555
O25 S5 1.460825 1_555
O25 Zn5 2.249480 1_555
O26 Si8 1.629160 1_555
O26 Zn4 1.943996 1_555
O27 Si9 1.621285 1_555
O27 Zn5 1.978802 1_555
O28 S6 1.470045 1_555
O28 Zn4 2.387453 1_555
O29 Si10 1.623760 1_555
O29 Zn5 2.007435 1_555
O30 Si11 1.620360 1_555
O30 Zn6 1.983915 1_555
O31 S7 1.472157 1_555
O31 Zn7 2.332224 1_555
O32 S8 1.454913 1_555
O32 Zn6 2.317531 1_555
O33 S9 1.458373 1_555
O33 Zn7 2.242143 1_555
O34 Si12 1.594974 1_555
O34 Zn6 1.986857 1_555
O35 Si13 1.629206 1_555
O35 Zn7 1.926381 1_555
O36 Si12 1.684875 1_555
O37 Si13 1.639808 1_555
O37 Zn8 1.888057 1_554
O38 Si11 1.673853 1_555
O39 S7 1.480067 1_555
O39 Zn8 2.526239 1_554
O40 S8 1.523148 1_555
O41 S9 1.510944 1_555
O41 Zn8 2.086767 1_554
O42 Si8 1.635622 1_555
O42 Zn9 1.904858 1_555
O43 Si9 1.642831 1_555
O43 Zn10 1.903238 1_555
O44 S6 1.494610 1_555
O44 Zn9 2.133471 1_555
O45 Si10 1.655225 1_555
O45 Zn10 1.901752 1_555
O46 S4 1.485544 1_555
O46 Zn9 2.428614 1_555
O47 S5 1.473985 1_555
O48 S10 1.457584 1_555
O48 Zn11 2.074251 1_556
O49 S11 1.468712 1_555
O49 Zn12 2.375678 1_556
O50 S12 1.481329 1_555
O50 Zn11 2.177745 1_556
O51 S13 1.480327 1_555
O51 Zn12 2.114886 1_556
O52 Si14 1.636945 1_555
O52 Zn11 1.949321 1_556
O53 Si15 1.631852 1_555
O53 Zn12 1.945717 1_556
O54 S14 1.477644 1_555
O54 Zn13 2.151807 1_555
O55 S15 1.475571 1_555
O55 Zn14 2.139246 1_555
O56 Si16 1.640798 1_555
O56 Zn13 1.931458 1_555
O57 Si17 1.636809 1_555
O57 Zn14 1.969678 1_555
O58 S16 1.483831 1_555
O58 Zn13 2.091279 1_555
O59 S17 1.477351 1_555
O59 Zn14 2.250376 1_555
O60 S16 1.507080 1_555
O61 S17 1.509376 1_555
O62 S14 1.520273 1_555
O63 S15 1.523001 1_555
O64 Si16 1.662017 1_555
O65 Si17 1.663525 1_555
O66 S12 1.500862 1_555
O67 S13 1.495097 1_555
O68 Si14 1.656665 1_555
O69 Si15 1.661793 1_555
O70 S10 1.509469 1_555
O71 S11 1.524234 1_555
O72 S16 1.488196 1_555
O72 Zn0 2.357495 1_565
O73 S17 1.488168 1_555
O73 Zn1 2.442449 1_565
O74 S14 1.469873 1_555
O75 S15 1.477972 1_555
O75 Zn0 2.543458 1_665
O76 Si16 1.654044 1_555
O76 Zn0 2.179107 1_555
O77 Si17 1.650478 1_555
O77 Zn1 2.127966 1_555
O78 S12 1.491059 1_555
O78 Zn2 2.394742 1_555
O79 S13 1.467843 1_555
O79 Zn3 2.275305 1_555
O80 Si14 1.649716 1_555
O80 Zn2 2.278498 1_565
O81 Si15 1.651162 1_555
O81 Zn3 2.179927 1_565
O82 S10 1.457453 1_555
O83 S11 1.484424 1_555
O84 S4 1.544847 1_555
O85 S5 1.538254 1_555
O86 Si8 1.660574 1_555
O87 Si9 1.698200 1_555
O88 S6 1.516340 1_555
O89 Si10 1.660392 1_555
O90 Si11 1.671119 1_555
O91 S7 1.549276 1_555
O92 S8 1.492137 1_555
O93 S9 1.517939 1_555
O94 Si12 1.702876 1_555
O95 Si13 1.664607 1_555
O96 Si6 1.617270 1_555
O96 Zn4 2.006639 1_555
O97 Si7 1.610871 1_555
O97 Zn5 2.138790 1_555
O98 Si4 1.644732 1_555
O98 Zn4 2.040353 1_555
O99 Si5 1.622455 1_555
O99 Zn5 2.085810 1_555
O100 S3 1.455122 1_555
O100 Zn4 2.460890 1_555
O101 S2 1.450057 1_655
O101 Zn5 2.532722 1_555
O102 Si2 1.629671 1_555
O102 Zn6 2.121096 1_555
O103 Si3 1.639465 1_555
O103 Zn7 2.077797 1_555
O104 S1 1.456485 1_555
O104 Zn6 2.541802 1_555
O105 S0 1.455205 1_655
O105 Zn7 2.480006 1_555
O106 Si0 1.604421 1_555
O106 Zn6 2.083453 1_555
O107 Si1 1.618236 1_555
O107 Zn7 1.956815 1_555
O108 S10 1.531365 1_555
O109 S11 1.491338 1_555
O109 Zn8 2.469380 1_555
O110 S13 1.517338 1_555
O111 S12 1.483501 1_655
O112 Si14 1.675569 1_545
O113 Si15 1.663837 1_545
O113 Zn8 1.982016 1_555
O114 S14 1.486026 1_545
O114 Zn9 2.381293 1_555
O115 S15 1.474858 1_545
O116 Si16 1.663671 1_555
O116 Zn9 1.996926 1_555
O117 Si17 1.656386 1_555
O117 Zn10 2.039938 1_555
O118 S17 1.490747 1_555
O118 Zn9 2.568249 1_555
O119 S16 1.474701 1_655
O120 Si12 1.637341 1_555
O120 Zn11 2.006600 1_555
O121 Si13 1.644870 1_555
O121 Zn12 2.009901 1_555
O122 S7 1.481707 1_455
O122 Zn11 2.482329 1_555
O123 Si11 1.640027 1_555
O123 Zn12 2.056918 1_555
O124 S8 1.478198 1_565
O124 Zn11 2.252357 1_555
O125 S9 1.479159 1_565
O125 Zn12 2.454930 1_555
O126 Si8 1.657692 1_565
O126 Zn13 2.004940 1_555
O127 Si9 1.639571 1_565
O127 Zn14 2.067093 1_555
O128 S6 1.486295 1_555
O128 Zn13 2.400838 1_555
O129 Si10 1.643518 1_555
O129 Zn14 2.041717 1_555
O130 S5 1.495089 1_455
O130 Zn13 2.377059 1_555
O131 S4 1.478394 1_555
O131 Zn14 2.469117 1_555
O132 Si0 1.660368 1_565
O133 Si1 1.656588 1_565
O134 Si2 1.679623 1_555
O135 Si3 1.674439 1_555
O136 S0 1.513934 1_555
O137 S1 1.533970 1_555
O138 Si4 1.651202 1_555
O139 Si5 1.645787 1_555
O140 S2 1.515360 1_555
O141 S3 1.504804 1_555
O142 Si6 1.702685 1_565
O143 Si7 1.711716 1_565
