# generated using pymatgen
data_Na5Ca2La2P3(SO8)3
_symmetry_space_group_name_H-M   'P 1'
_cell_length_a   9.55603948
_cell_length_b   9.50036031
_cell_length_c   24.14155606
_cell_angle_alpha   89.93183487
_cell_angle_beta   90.32960429
_cell_angle_gamma   120.07060894
_symmetry_Int_Tables_number   1
_chemical_formula_structural   Na5Ca2La2P3(SO8)3
_chemical_formula_sum   'Na15 Ca6 La6 P9 S9 O72'
_cell_volume   1896.69039461
_cell_formula_units_Z   3
loop_
 _symmetry_equiv_pos_site_id
 _symmetry_equiv_pos_as_xyz
  1  'x, y, z'
loop_
 _atom_site_type_symbol
 _atom_site_label
 _atom_site_symmetry_multiplicity
 _atom_site_fract_x
 _atom_site_fract_y
 _atom_site_fract_z
 _atom_site_occupancy
  Na  Na0  1  0.64295523  0.02220269  0.25401537  1
  Na  Na1  1  0.00220549  0.63183622  0.23900200  1
  Na  Na2  1  0.62644722  0.63171570  0.74086853  1
  Na  Na3  1  0.99278760  0.34365588  0.74441282  1
  Na  Na4  1  0.30613052  0.35284604  0.58753278  1
  Na  Na5  1  0.67020797  0.96613483  0.57506288  1
  Na  Na6  1  0.29783677  0.95312326  0.07805221  1
  Na  Na7  1  0.69082199  0.02788084  0.90886089  1
  Na  Na8  1  0.96149389  0.28517775  0.41063958  1
  Na  Na9  1  0.96677890  0.96155970  0.49225017  1
  Na  Na10  1  0.01498990  0.97971325  0.99200557  1
  Na  Na11  1  0.61559166  0.29584610  0.82414494  1
  Na  Na12  1  0.63014994  0.30444719  0.32699529  1
  Na  Na13  1  0.30093910  0.62883526  0.15960300  1
  Na  Na14  1  0.32470426  0.66256762  0.65865692  1
  Ca  Ca0  1  0.00868370  0.00394496  0.34749583  1
  Ca  Ca1  1  0.02448249  0.00963219  0.84898532  1
  Ca  Ca2  1  0.66587597  0.33083813  0.68125409  1
  Ca  Ca3  1  0.66927857  0.33875338  0.18087897  1
  Ca  Ca4  1  0.32047077  0.65906106  0.01539751  1
  Ca  Ca5  1  0.33678976  0.67272110  0.51393533  1
  La  La0  1  0.00008519  0.99865543  0.65274833  1
  La  La1  1  0.00541581  0.00918164  0.15186352  1
  La  La2  1  0.67974807  0.35383943  0.98504429  1
  La  La3  1  0.67252267  0.34062217  0.48529482  1
  La  La4  1  0.34104815  0.67288868  0.31903256  1
  La  La5  1  0.33322340  0.67809640  0.81903905  1
  P  P0  1  0.30651186  0.00103260  0.24870625  1
  P  P1  1  0.98982516  0.30378949  0.25451840  1
  P  P2  1  0.30879802  0.31034217  0.74764780  1
  P  P3  1  0.70414861  0.00477305  0.75384283  1
  P  P4  1  0.97592735  0.33591888  0.58555817  1
  P  P5  1  0.65617636  0.63660660  0.58717800  1
  P  P6  1  0.98264701  0.64405564  0.08916506  1
  P  P7  1  0.33710920  0.97464721  0.92373549  1
  P  P8  1  0.65053149  0.97704742  0.41849103  1
  S  S0  1  0.70496508  0.69914856  0.25112463  1
  S  S1  1  0.98805627  0.68697544  0.75139126  1
  S  S2  1  0.36938497  0.03063012  0.58384591  1
  S  S3  1  0.65773227  0.02719749  0.08331246  1
  S  S4  1  0.36889410  0.33835083  0.08385862  1
  S  S5  1  0.63928499  0.67964738  0.91600997  1
  S  S6  1  0.02719111  0.35313281  0.91521268  1
  S  S7  1  0.32382765  0.35812818  0.42007197  1
  S  S8  1  0.03435322  0.67072947  0.41579962  1
  O  O0  1  0.21160827  0.00838543  0.29802676  1
  O  O1  1  0.80304228  0.78286600  0.30029423  1
  O  O2  1  0.97729944  0.20976695  0.30798929  1
  O  O3  1  0.21230396  0.20122724  0.79559669  1
  O  O4  1  0.98401402  0.77676769  0.80007906  1
  O  O5  1  0.80304581  0.01481473  0.80575007  1
  O  O6  1  0.78726911  0.98417902  0.70092235  1
  O  O7  1  0.21973149  0.23590341  0.69126625  1
  O  O8  1  0.01025455  0.78075161  0.70007465  1
  O  O9  1  0.78125776  0.79695620  0.20064371  1
  O  O10  1  0.00261657  0.21173007  0.20333789  1
  O  O11  1  0.21135593  0.98125986  0.19367527  1
  O  O12  1  0.89118954  0.34351856  0.63857105  1
  O  O13  1  0.46731066  0.11347187  0.63314477  1
  O  O14  1  0.64609626  0.54543778  0.64111626  1
  O  O15  1  0.90030209  0.55996146  0.14371754  1
  O  O16  1  0.64649922  0.11336824  0.13280290  1
  O  O17  1  0.46124178  0.34877811  0.13400408  1
  O  O18  1  0.45154466  0.32379146  0.03383434  1
  O  O19  1  0.87679246  0.54693397  0.03853615  1
  O  O20  1  0.67332715  0.12342626  0.03247565  1
  O  O21  1  0.44665961  0.12845802  0.53354063  1
  O  O22  1  0.66446975  0.54097317  0.53641634  1
  O  O23  1  0.87047243  0.31715644  0.53322805  1
  O  O24  1  0.54283558  0.68336978  0.96266311  1
  O  O25  1  0.12659031  0.44528636  0.96287274  1
  O  O26  1  0.32665467  0.88228523  0.97747327  1
  O  O27  1  0.55895077  0.88384252  0.47081767  1
  O  O28  1  0.31628759  0.44186646  0.47065417  1
  O  O29  1  0.13297931  0.67899622  0.46390017  1
  O  O30  1  0.10992312  0.65633348  0.36367078  1
  O  O31  1  0.55394977  0.89093087  0.36435897  1
  O  O32  1  0.33700185  0.45659306  0.37039137  1
  O  O33  1  0.10018672  0.43920045  0.86252760  1
  O  O34  1  0.35423263  0.88075560  0.87288701  1
  O  O35  1  0.55185680  0.66218456  0.86263788  1
  O  O36  1  0.01211849  0.81301993  0.41444734  1
  O  O37  1  0.82253187  0.99757374  0.41736076  1
  O  O38  1  0.17063118  0.19902608  0.41668039  1
  O  O39  1  0.00388659  0.18615138  0.91510543  1
  O  O40  1  0.18885809  0.99622548  0.91774744  1
  O  O41  1  0.79704355  0.83539897  0.91563583  1
  O  O42  1  0.98971197  0.17641927  0.58545239  1
  O  O43  1  0.20610725  0.01389493  0.58714768  1
  O  O44  1  0.80591326  0.81311736  0.58531399  1
  O  O45  1  0.00774270  0.82090247  0.08492601  1
  O  O46  1  0.80061489  0.00491200  0.08651383  1
  O  O47  1  0.20715313  0.18381181  0.08458470  1
  O  O48  1  0.69589222  0.16333129  0.74919245  1
  O  O49  1  0.48547405  0.34385761  0.74750346  1
  O  O50  1  0.83447350  0.52817688  0.74870988  1
  O  O51  1  0.69140186  0.53729726  0.24698098  1
  O  O52  1  0.83344579  0.31716864  0.24934027  1
  O  O53  1  0.48198782  0.14805386  0.24683358  1
  O  O54  1  0.66686748  0.53903889  0.91943783  1
  O  O55  1  0.86041280  0.33297615  0.91836614  1
  O  O56  1  0.50123505  0.14203500  0.92228340  1
  O  O57  1  0.67376246  0.15392114  0.41756577  1
  O  O58  1  0.46595516  0.33440324  0.42060558  1
  O  O59  1  0.87310120  0.51611701  0.41827735  1
  O  O60  1  0.34651199  0.48059478  0.08026075  1
  O  O61  1  0.15402374  0.66258617  0.08565468  1
  O  O62  1  0.50580431  0.86657514  0.08022899  1
  O  O63  1  0.35795449  0.86921224  0.57980308  1
  O  O64  1  0.50102905  0.65271102  0.58305236  1
  O  O65  1  0.14976617  0.48326680  0.58104012  1
  O  O66  1  0.32285005  0.84254806  0.25179985  1
  O  O67  1  0.54130244  0.68334127  0.25446720  1
  O  O68  1  0.13896542  0.48083833  0.25433919  1
  O  O69  1  0.31562960  0.48028665  0.75139495  1
  O  O70  1  0.12454538  0.65150646  0.75410262  1
  O  O71  1  0.53257837  0.84767727  0.75473531  1
loop_
_geom_bond_atom_site_label_1
_geom_bond_atom_site_label_2
_geom_bond_distance
_geom_bond_site_symmetry_2
Na0 O53 2.380165 1_555
Na0 O52 2.463489 1_555
Na0 O66 2.653172 1_545
Na0 O67 2.858986 1_545
Na0 O31 2.886191 1_545
Na1 O68 2.403095 1_555
Na1 O15 2.453078 1_455
Na1 O52 2.602192 1_455
Na1 O51 2.645356 1_455
Na1 O66 2.708348 1_555
Na2 O49 2.372512 1_555
Na2 O14 2.582743 1_555
Na2 O69 2.584944 1_555
Na2 O50 2.628689 1_555
Na2 O71 2.641148 1_555
Na3 O48 2.475895 1_555
Na3 O70 2.549860 1_655
Na3 O69 2.685615 1_655
Na3 O12 2.727960 1_555
Na3 O50 2.834170 1_555
Na3 O33 3.007834 1_655
Na4 O65 2.375859 1_555
Na4 O64 2.506133 1_555
Na4 O42 2.621880 1_455
Na4 O7 2.699143 1_555
Na4 O43 2.863319 1_555
Na4 O28 2.932829 1_555
Na5 O44 2.396022 1_555
Na5 O64 2.587518 1_555
Na5 O63 2.648566 1_555
Na5 O27 2.686257 1_555
Na5 O42 2.693655 1_565
Na6 O61 2.396117 1_555
Na6 O45 2.409440 1_555
Na6 O62 2.502925 1_555
Na6 O26 2.573302 1_554
Na6 O47 2.735818 1_565
Na6 O11 2.965734 1_555
Na7 O41 2.501712 1_545
Na7 O55 2.523954 1_555
Na7 O56 2.557341 1_555
Na7 O39 2.592499 1_655
Na7 O5 2.743489 1_555
Na7 O34 2.918717 1_545
Na8 O37 2.370810 1_545
Na8 O57 2.389955 1_555
Na8 O38 2.514130 1_655
Na8 O2 2.606573 1_555
Na8 O59 2.724170 1_555
Na9 O37 2.393385 1_555
Na9 O36 2.517039 1_655
Na9 O44 2.694305 1_555
Na9 O38 2.799943 1_665
Na9 O42 2.972268 1_565
Na9 O43 3.086934 1_665
Na10 O40 2.402366 1_555
Na10 O41 2.591689 1_455
Na10 O45 2.683714 1_556
Na10 O39 2.738954 1_565
Na10 O47 2.919234 1_566
Na11 O49 2.391110 1_555
Na11 O48 2.537213 1_555
Na11 O56 2.713660 1_555
Na11 O50 2.823292 1_555
Na12 O53 2.413396 1_555
Na12 O52 2.666331 1_555
Na12 O57 2.752983 1_555
Na12 O51 2.769991 1_555
Na12 O58 2.853047 1_555
Na13 O61 2.383651 1_555
Na13 O60 2.544141 1_555
Na13 O68 2.730486 1_555
Na13 O62 2.864880 1_555
Na13 O66 2.949508 1_555
Na14 O65 2.514997 1_555
Na14 O64 2.524517 1_555
Na14 O63 2.636656 1_555
Na14 O69 2.803809 1_555
Na14 O70 2.971135 1_555
Na14 O71 2.979017 1_555
Ca0 O0 2.265592 1_555
Ca0 O2 2.324450 1_455
Ca0 O1 2.327081 1_445
Ca0 O38 2.392244 1_555
Ca0 O37 2.437050 1_445
Ca0 O36 2.440430 1_545
Ca1 O3 2.223268 1_555
Ca1 O40 2.325778 1_545
Ca1 O4 2.362498 1_445
Ca1 O5 2.376646 1_455
Ca1 O39 2.395785 1_555
Ca1 O41 2.545845 1_445
Ca2 O13 2.295090 1_555
Ca2 O12 2.340399 1_555
Ca2 O14 2.347476 1_555
Ca2 O50 2.390114 1_555
Ca2 O48 2.398045 1_555
Ca2 O49 2.406464 1_555
Ca3 O17 2.324960 1_555
Ca3 O15 2.337532 1_555
Ca3 O16 2.348460 1_555
Ca3 O52 2.350855 1_555
Ca3 O51 2.398508 1_555
Ca3 O53 2.407751 1_555
Ca4 O26 2.282444 1_554
Ca4 O25 2.318082 1_554
Ca4 O61 2.343591 1_555
Ca4 O24 2.393335 1_554
Ca4 O60 2.408463 1_555
Ca4 O62 2.439132 1_555
Ca5 O29 2.311922 1_555
Ca5 O27 2.316629 1_555
Ca5 O28 2.347929 1_555
Ca5 O64 2.356207 1_555
Ca5 O63 2.383106 1_555
Ca5 O65 2.420925 1_555
La0 O6 2.292131 1_455
La0 O7 2.364751 1_565
La0 O42 2.379232 1_465
La0 O8 2.407302 1_555
La0 O44 2.427895 1_455
La0 O43 2.480877 1_565
La1 O10 2.303360 1_555
La1 O11 2.337056 1_545
La1 O9 2.394927 1_445
La1 O45 2.420442 1_545
La1 O47 2.435452 1_555
La1 O46 2.491157 1_455
La2 O19 2.257107 1_556
La2 O18 2.372616 1_556
La2 O56 2.406720 1_555
La2 O54 2.414035 1_555
La2 O20 2.442733 1_556
La2 O55 2.446777 1_555
La3 O22 2.303363 1_555
La3 O23 2.315985 1_555
La3 O21 2.396138 1_555
La3 O57 2.418250 1_555
La3 O59 2.428581 1_555
La3 O58 2.487331 1_555
La4 O31 2.320335 1_555
La4 O66 2.352469 1_555
La4 O32 2.382483 1_555
La4 O30 2.396454 1_555
La4 O68 2.436911 1_555
La4 O67 2.438228 1_555
La5 O34 2.247831 1_555
La5 O71 2.363692 1_555
La5 O35 2.405530 1_555
La5 O69 2.431916 1_555
La5 O70 2.440926 1_555
La5 O33 2.483687 1_555
O0 P0 1.523537 1_555
O1 S0 1.470527 1_555
O2 P1 1.539628 1_555
O3 P2 1.521949 1_555
O4 S1 1.465160 1_555
O5 P3 1.539114 1_555
O6 P3 1.571439 1_565
O7 P2 1.569395 1_555
O8 S1 1.478007 1_455
O9 S0 1.486199 1_555
O10 P1 1.554978 1_455
O11 P0 1.562900 1_565
O12 P4 1.539342 1_555
O13 S2 1.470686 1_555
O14 P5 1.539554 1_555
O15 P6 1.539913 1_555
O16 S3 1.483601 1_555
O17 S4 1.467820 1_555
O18 S4 1.490717 1_555
O19 P6 1.556159 1_555
O20 S3 1.492348 1_555
O21 S2 1.484528 1_555
O22 P5 1.552236 1_555
O23 P4 1.564985 1_555
O24 S5 1.471034 1_555
O25 S6 1.465957 1_555
O26 P7 1.540744 1_555
O27 P8 1.542475 1_555
O28 S7 1.479870 1_555
O29 S8 1.468439 1_555
O30 S8 1.494589 1_555
O31 P8 1.568739 1_555
O32 S7 1.486758 1_555
O33 S6 1.486285 1_555
O34 P7 1.574974 1_555
O35 S5 1.494973 1_555
O36 S8 1.470122 1_555
O37 P8 1.555516 1_555
O38 S7 1.488611 1_555
O39 S6 1.487339 1_555
O40 P7 1.535761 1_555
O41 S5 1.492292 1_555
O42 P4 1.585417 1_555
O43 S2 1.489608 1_555
O44 P5 1.567635 1_555
O45 P6 1.576974 1_455
O46 S3 1.484432 1_555
O47 S4 1.506960 1_555
O48 P3 1.551306 1_555
O49 P2 1.553439 1_555
O50 S1 1.488098 1_555
O51 S0 1.480424 1_555
O52 P1 1.566231 1_555
O53 P0 1.555114 1_555
O54 S5 1.487650 1_555
O55 S6 1.509301 1_655
O56 P7 1.578294 1_545
O57 P8 1.580994 1_545
O58 S7 1.483975 1_555
O59 S8 1.506063 1_655
O60 S4 1.472633 1_555
O61 P6 1.559749 1_455
O62 S3 1.490230 1_565
O63 S2 1.485104 1_565
O64 P5 1.567481 1_555
O65 P4 1.549974 1_455
O66 P0 1.591271 1_565
O67 S0 1.497033 1_555
O68 P1 1.567843 1_455
O69 P2 1.585502 1_555
O70 S1 1.502806 1_455
O71 P3 1.569760 1_565
