# generated using pymatgen
data_TlPO3
_symmetry_space_group_name_H-M   'P 1'
_cell_length_a   7.58522238
_cell_length_b   7.58522238
_cell_length_c   11.10122861
_cell_angle_alpha   90.00000000
_cell_angle_beta   90.00000000
_cell_angle_gamma   90.00000000
_symmetry_Int_Tables_number   1
_chemical_formula_structural   TlPO3
_chemical_formula_sum   'Tl8 P8 O24'
_cell_volume   638.71583276
_cell_formula_units_Z   8
loop_
 _symmetry_equiv_pos_site_id
 _symmetry_equiv_pos_as_xyz
  1  'x, y, z'
loop_
 _atom_site_type_symbol
 _atom_site_label
 _atom_site_symmetry_multiplicity
 _atom_site_fract_x
 _atom_site_fract_y
 _atom_site_fract_z
 _atom_site_occupancy
  Tl  Tl0  1  0.50000000  0.50000000  0.33313979  1
  Tl  Tl1  1  0.50000000  0.50000000  0.66686021  1
  Tl  Tl2  1  0.00000000  -0.00000000  0.16686021  1
  Tl  Tl3  1  0.00000000  -0.00000000  0.83313979  1
  Tl  Tl4  1  0.00000000  0.50000000  0.27306490  1
  Tl  Tl5  1  0.50000000  -0.00000000  0.72693510  1
  Tl  Tl6  1  0.50000000  -0.00000000  0.22693510  1
  Tl  Tl7  1  0.00000000  0.50000000  0.77306490  1
  P  P0  1  0.77963819  0.84577833  0.46728281  1
  P  P1  1  0.22036181  0.15422167  0.46728281  1
  P  P2  1  0.65422167  0.72036181  0.96728281  1
  P  P3  1  0.15422167  0.77963819  0.53271719  1
  P  P4  1  0.84577833  0.22036181  0.53271719  1
  P  P5  1  0.72036181  0.34577833  0.03271719  1
  P  P6  1  0.27963819  0.65422167  0.03271719  1
  P  P7  1  0.34577833  0.27963819  0.96728281  1
  O  O0  1  0.61768159  0.80577110  0.53713802  1
  O  O1  1  0.38231841  0.19422890  0.53713802  1
  O  O2  1  0.69422890  0.88231841  0.03713802  1
  O  O3  1  0.19422890  0.61768159  0.46286198  1
  O  O4  1  0.80577110  0.38231841  0.46286198  1
  O  O5  1  0.88231841  0.30577110  0.96286198  1
  O  O6  1  0.11768159  0.69422890  0.96286198  1
  O  O7  1  0.30577110  0.11768159  0.03713802  1
  O  O8  1  0.80094961  0.76977071  0.34437406  1
  O  O9  1  0.19905039  0.23022929  0.34437406  1
  O  O10  1  0.73022929  0.69905039  0.84437406  1
  O  O11  1  0.23022929  0.80094961  0.65562594  1
  O  O12  1  0.76977071  0.19905039  0.65562594  1
  O  O13  1  0.69905039  0.26977071  0.15562594  1
  O  O14  1  0.30094961  0.73022929  0.15562594  1
  O  O15  1  0.26977071  0.30094961  0.84437406  1
  O  O16  1  0.30114929  0.44439325  0.05240587  1
  O  O17  1  0.44439325  0.69885071  0.94759413  1
  O  O18  1  0.55560675  0.30114929  0.94759413  1
  O  O19  1  0.80114929  0.05560675  0.44759413  1
  O  O20  1  0.19885071  0.94439325  0.44759413  1
  O  O21  1  0.69885071  0.55560675  0.05240587  1
  O  O22  1  0.05560675  0.19885071  0.55240587  1
  O  O23  1  0.94439325  0.80114929  0.55240587  1
loop_
_geom_bond_atom_site_label_1
_geom_bond_atom_site_label_2
_geom_bond_distance
_geom_bond_site_symmetry_2
O0 P0 1.484120 1_555
O0 Tl5 2.721525 1_565
O0 Tl1 2.872277 1_555
O1 P1 1.484120 1_555
O1 Tl5 2.721525 1_555
O1 Tl1 2.872277 1_555
O2 P2 1.484120 1_554
O2 Tl6 2.721525 1_565
O2 Tl2 2.872277 1_665
O3 P3 1.484120 1_555
O3 Tl4 2.721525 1_555
O3 Tl0 2.872277 1_555
O4 P4 1.484120 1_555
O4 Tl4 2.721525 1_655
O4 Tl0 2.872277 1_555
O5 P5 1.484120 1_556
O5 Tl7 2.721525 1_655
O5 Tl3 2.872277 1_655
O6 P6 1.484120 1_556
O6 Tl7 2.721525 1_555
O6 Tl3 2.872277 1_565
O7 P7 1.484120 1_554
O7 Tl6 2.721525 1_555
O7 Tl2 2.872277 1_555
O8 P0 1.490039 1_555
O8 Tl4 2.663364 1_655
O9 P1 1.490039 1_555
O9 Tl4 2.663364 1_555
O10 P2 1.490039 1_555
O10 Tl7 2.663364 1_655
O11 P3 1.490039 1_555
O11 Tl5 2.663364 1_565
O12 P4 1.490039 1_555
O12 Tl5 2.663364 1_555
O13 P5 1.490039 1_555
O13 Tl6 2.663364 1_555
O14 P6 1.490039 1_555
O14 Tl6 2.663364 1_565
O15 P7 1.490039 1_555
O15 Tl7 2.663364 1_555
O16 P7 1.602912 1_554
O16 P6 1.614797 1_555
O17 P6 1.602912 1_556
O17 P2 1.614797 1_555
O18 P5 1.602912 1_556
O18 P7 1.614797 1_555
O19 P4 1.602912 1_555
O19 P0 1.614797 1_545
O20 P3 1.602912 1_555
O20 P1 1.614797 1_565
O21 P2 1.602912 1_554
O21 P5 1.614797 1_555
O22 P1 1.602912 1_555
O22 P4 1.614797 1_455
O23 P0 1.602912 1_555
O23 P3 1.614797 1_655
