# generated using pymatgen
data_MgMn5CuO12
_symmetry_space_group_name_H-M   'P 1'
_cell_length_a   5.07031023
_cell_length_b   5.11203744
_cell_length_c   9.86599049
_cell_angle_alpha   93.69084965
_cell_angle_beta   97.45834190
_cell_angle_gamma   60.26965008
_symmetry_Int_Tables_number   1
_chemical_formula_structural   MgMn5CuO12
_chemical_formula_sum   'Mg1 Mn5 Cu1 O12'
_cell_volume   220.18288341
_cell_formula_units_Z   1
loop_
 _symmetry_equiv_pos_site_id
 _symmetry_equiv_pos_as_xyz
  1  'x, y, z'
loop_
 _atom_site_type_symbol
 _atom_site_label
 _atom_site_symmetry_multiplicity
 _atom_site_fract_x
 _atom_site_fract_y
 _atom_site_fract_z
 _atom_site_occupancy
  Mg  Mg0  1  0.07824077  0.00000000  0.24519396  1
  Mn  Mn0  1  0.15828317  0.66420467  0.50535669  1
  Mn  Mn1  1  0.68098213  0.66692945  0.00559062  1
  Mn  Mn2  1  0.34790959  0.33307055  0.00559062  1
  Mn  Mn3  1  0.82248784  0.33579533  0.50535669  1
  Mn  Mn4  1  0.49045654  1.00000000  0.50240442  1
  Cu  Cu0  1  0.00714234  0.00000000  0.97619442  1
  O  O0  1  0.04029794  0.67607723  0.10585615  1
  O  O1  1  0.34942804  0.63773098  0.90201986  1
  O  O2  1  0.13012263  0.30672486  0.39410866  1
  O  O3  1  0.43684750  0.69327514  0.39410866  1
  O  O4  1  0.51392161  0.32935904  0.59871739  1
  O  O5  1  0.19746306  0.00000000  0.60409153  1
  O  O6  1  0.84328065  0.67064096  0.59871739  1
  O  O7  1  0.71637417  0.32392277  0.10585615  1
  O  O8  1  0.36398718  1.00000000  0.10535128  1
  O  O9  1  0.98715802  0.36226902  0.90201986  1
  O  O10  1  0.62594183  0.00000000  0.90195329  1
  O  O11  1  0.80967399  0.00000000  0.39776236  1
loop_
_geom_bond_atom_site_label_1
_geom_bond_atom_site_label_2
_geom_bond_distance
_geom_bond_site_symmetry_2
Mg0 O8 2.126397 1_545
Mg0 O0 2.150135 1_545
Mg0 O7 2.150137 1_455
Mg0 O11 2.156882 1_455
Mg0 O2 2.167600 1_555
Mg0 O3 2.167600 1_545
Mn0 O6 1.930368 1_455
Mn0 O4 1.934008 1_555
Mn0 O3 1.962978 1_555
Mn0 O11 1.983904 1_465
Mn0 O5 2.001944 1_565
Mn0 O2 2.127089 1_555
Mn1 O1 1.917221 1_554
Mn1 O9 1.920572 1_554
Mn1 O10 1.923854 1_564
Mn1 O0 1.977505 1_655
Mn1 O8 1.982859 1_555
Mn1 O7 1.987595 1_555
Mn2 O9 1.917217 1_454
Mn2 O1 1.920579 1_554
Mn2 O10 1.923857 1_554
Mn2 O7 1.977509 1_555
Mn2 O8 1.982855 1_545
Mn2 O0 1.987588 1_555
Mn3 O4 1.930368 1_555
Mn3 O6 1.934008 1_555
Mn3 O2 1.962977 1_655
Mn3 O11 1.983904 1_555
Mn3 O5 2.001944 1_655
Mn3 O3 2.127089 1_555
Mn4 O5 1.897454 1_565
Mn4 O4 1.927502 1_565
Mn4 O6 1.927502 1_555
Mn4 O3 1.950817 1_555
Mn4 O2 1.950817 1_565
Mn4 O11 2.029603 1_565
Cu0 O10 1.976032 1_455
Cu0 O9 1.986096 1_455
Cu0 O1 1.986098 1_545
Cu0 O8 2.073358 1_546
Cu0 O0 2.085074 1_546
Cu0 O7 2.085076 1_456
