# generated using pymatgen
data_Mg(VS2)2
_symmetry_space_group_name_H-M   'P 1'
_cell_length_a   3.25398300
_cell_length_b   3.25398193
_cell_length_c   14.14992100
_cell_angle_alpha   90.00000000
_cell_angle_beta   90.00000000
_cell_angle_gamma   120.00000066
_symmetry_Int_Tables_number   1
_chemical_formula_structural   Mg(VS2)2
_chemical_formula_sum   'Mg1 V2 S4'
_cell_volume   129.75229887
_cell_formula_units_Z   1
loop_
 _symmetry_equiv_pos_site_id
 _symmetry_equiv_pos_as_xyz
  1  'x, y, z'
loop_
 _atom_site_type_symbol
 _atom_site_label
 _atom_site_symmetry_multiplicity
 _atom_site_fract_x
 _atom_site_fract_y
 _atom_site_fract_z
 _atom_site_occupancy
  Mg  Mg0  1  0.66666700  0.33333300  0.97620300  1
  V  V0  1  0.66666700  0.33333300  0.74883100  1
  V  V1  1  0.33333300  0.66666700  0.25031200  1
  S  S0  1  0.33333300  0.66666700  0.85568500  1
  S  S1  1  0.66666700  0.33333300  0.35189600  1
  S  S2  1  0.33333300  0.66666700  0.64607000  1
  S  S3  1  0.66666700  0.33333300  0.14785400  1
loop_
_geom_bond_atom_site_label_1
_geom_bond_atom_site_label_2
_geom_bond_distance
_geom_bond_site_symmetry_2
Mg0 S3 2.428848 1_556
Mg0 S0 2.537238 1_545
Mg0 S0 2.537238 1_655
Mg0 S0 2.537242 1_555
S0 V0 2.411541 1_565
S0 V0 2.411541 1_455
S0 V0 2.411546 1_555
S1 V1 2.365501 1_545
S1 V1 2.365501 1_655
S1 V1 2.365505 1_555
S2 V0 2.375658 1_565
S2 V0 2.375658 1_455
S2 V0 2.375662 1_555
S3 V1 2.373036 1_545
S3 V1 2.373036 1_655
S3 V1 2.373041 1_555
