# generated using pymatgen
data_MgMo3(SeS2)2
_symmetry_space_group_name_H-M   'P 1'
_cell_length_a   3.23284500
_cell_length_b   3.23280117
_cell_length_c   36.61266600
_cell_angle_alpha   89.99965493
_cell_angle_beta   90.00000000
_cell_angle_gamma   120.00045870
_symmetry_Int_Tables_number   1
_chemical_formula_structural   MgMo3(SeS2)2
_chemical_formula_sum   'Mg1 Mo3 Se2 S4'
_cell_volume   331.37813980
_cell_formula_units_Z   1
loop_
 _symmetry_equiv_pos_site_id
 _symmetry_equiv_pos_as_xyz
  1  'x, y, z'
loop_
 _atom_site_type_symbol
 _atom_site_label
 _atom_site_symmetry_multiplicity
 _atom_site_fract_x
 _atom_site_fract_y
 _atom_site_fract_z
 _atom_site_occupancy
  Mg  Mg0  1  0.33333900  0.66667900  0.22601100  1
  Mo  Mo0  1  0.33331400  0.66662900  0.10515400  1
  Mo  Mo1  1  0.33327800  0.66655800  0.57835000  1
  Mo  Mo2  1  0.66671400  0.33342700  0.35268000  1
  Se  Se0  1  0.33335800  0.66671900  0.39936000  1
  Se  Se1  1  0.33340500  0.66681300  0.30583400  1
  S  S0  1  0.66664900  0.33329600  0.06291900  1
  S  S1  1  0.66661300  0.33322400  0.53603400  1
  S  S2  1  0.66664100  0.33328200  0.14788600  1
  S  S3  1  0.66662100  0.33324000  0.62066700  1
loop_
_geom_bond_atom_site_label_1
_geom_bond_atom_site_label_2
_geom_bond_distance
_geom_bond_site_symmetry_2
Mg0 Se1 2.922533 1_555
Mo0 S0 2.423789 1_565
Mo0 S0 2.423817 1_455
Mo0 S0 2.423823 1_555
Mo0 S2 2.435425 1_565
Mo0 S2 2.435475 1_455
Mo0 S2 2.435477 1_555
Mo1 S1 2.425680 1_565
Mo1 S3 2.425708 1_455
Mo1 S1 2.425710 1_455
Mo1 S3 2.425717 1_555
Mo1 S1 2.425719 1_555
Mo1 S3 2.425754 1_565
Mo2 Se0 2.530705 1_655
Mo2 Se0 2.530713 1_555
Mo2 Se0 2.530805 1_545
Mo2 Se1 2.534737 1_545
Mo2 Se1 2.534901 1_655
Mo2 Se1 2.534910 1_555
