# generated using pymatgen
data_RbDy2Cl7
_symmetry_space_group_name_H-M   'P 1'
_cell_length_a   6.94803929
_cell_length_b   12.61533087
_cell_length_c   13.10375092
_cell_angle_alpha   90.00000000
_cell_angle_beta   90.00000000
_cell_angle_gamma   90.00000000
_symmetry_Int_Tables_number   1
_chemical_formula_structural   RbDy2Cl7
_chemical_formula_sum   'Rb4 Dy8 Cl28'
_cell_volume   1148.56754543
_cell_formula_units_Z   4
loop_
 _symmetry_equiv_pos_site_id
 _symmetry_equiv_pos_as_xyz
  1  'x, y, z'
loop_
 _atom_site_type_symbol
 _atom_site_label
 _atom_site_symmetry_multiplicity
 _atom_site_fract_x
 _atom_site_fract_y
 _atom_site_fract_z
 _atom_site_occupancy
  Rb  Rb0  1  0.25000000  0.19614746  0.04020970  1
  Rb  Rb1  1  0.75000000  0.80385254  0.95979030  1
  Rb  Rb2  1  0.75000000  0.69614746  0.45979030  1
  Rb  Rb3  1  0.25000000  0.30385254  0.54020970  1
  Dy  Dy0  1  0.25000000  0.65714179  0.74817849  1
  Dy  Dy1  1  0.75000000  0.34285821  0.25182151  1
  Dy  Dy2  1  0.75000000  0.15714179  0.75182151  1
  Dy  Dy3  1  0.25000000  0.84285821  0.24817849  1
  Dy  Dy4  1  0.25000000  0.53983315  0.23800399  1
  Dy  Dy5  1  0.75000000  0.46016685  0.76199601  1
  Dy  Dy6  1  0.75000000  0.03983315  0.26199601  1
  Dy  Dy7  1  0.25000000  0.96016685  0.73800399  1
  Cl  Cl0  1  0.99015560  0.46045340  0.37027386  1
  Cl  Cl1  1  0.49015560  0.53954660  0.62972614  1
  Cl  Cl2  1  0.00984440  0.96045340  0.12972614  1
  Cl  Cl3  1  0.50984440  0.03954660  0.87027386  1
  Cl  Cl4  1  0.00984440  0.53954660  0.62972614  1
  Cl  Cl5  1  0.50984440  0.46045340  0.37027386  1
  Cl  Cl6  1  0.99015560  0.03954660  0.87027386  1
  Cl  Cl7  1  0.49015560  0.96045340  0.12972614  1
  Cl  Cl8  1  0.01047174  0.42171568  0.12161336  1
  Cl  Cl9  1  0.51047174  0.57828432  0.87838664  1
  Cl  Cl10  1  0.98952826  0.92171568  0.37838664  1
  Cl  Cl11  1  0.48952826  0.07828432  0.62161336  1
  Cl  Cl12  1  0.25000000  0.68882984  0.39365597  1
  Cl  Cl13  1  0.75000000  0.31117016  0.60634403  1
  Cl  Cl14  1  0.75000000  0.18882984  0.10634403  1
  Cl  Cl15  1  0.25000000  0.81117016  0.89365597  1
  Cl  Cl16  1  0.49216156  0.69287001  0.17413089  1
  Cl  Cl17  1  0.99216156  0.30712999  0.82586911  1
  Cl  Cl18  1  0.50783844  0.19287001  0.32586911  1
  Cl  Cl19  1  0.00783844  0.80712999  0.67413089  1
  Cl  Cl20  1  0.50783844  0.30712999  0.82586911  1
  Cl  Cl21  1  0.00783844  0.69287001  0.17413089  1
  Cl  Cl22  1  0.49216156  0.80712999  0.67413089  1
  Cl  Cl23  1  0.99216156  0.19287001  0.32586911  1
  Cl  Cl24  1  0.51047174  0.92171568  0.37838664  1
  Cl  Cl25  1  0.01047174  0.07828432  0.62161336  1
  Cl  Cl26  1  0.48952826  0.42171568  0.12161336  1
  Cl  Cl27  1  0.98952826  0.57828432  0.87838664  1
loop_
_geom_bond_atom_site_label_1
_geom_bond_atom_site_label_2
_geom_bond_distance
_geom_bond_site_symmetry_2
Cl0 Dy4 2.695626 1_655
Cl0 Dy1 2.719241 1_555
Cl0 Rb3 3.481524 1_655
Cl0 Rb2 3.605697 1_555
Cl1 Dy5 2.695626 1_555
Cl1 Dy0 2.719241 1_555
Cl1 Rb2 3.481524 1_555
Cl1 Rb3 3.605697 1_555
Cl2 Dy6 2.695626 1_465
Cl2 Dy3 2.719241 1_555
Cl2 Rb1 3.481524 1_454
Cl2 Rb0 3.605697 1_565
Cl3 Dy7 2.695626 1_545
Cl3 Dy2 2.719241 1_555
Cl3 Rb0 3.481524 1_556
Cl3 Rb1 3.605697 1_545
Cl4 Dy5 2.695626 1_455
Cl4 Dy0 2.719241 1_555
Cl4 Rb2 3.481524 1_455
Cl4 Rb3 3.605697 1_555
Cl5 Dy4 2.695626 1_555
Cl5 Dy1 2.719241 1_555
Cl5 Rb3 3.481524 1_555
Cl5 Rb2 3.605697 1_555
Cl6 Dy7 2.695626 1_645
Cl6 Dy2 2.719241 1_555
Cl6 Rb0 3.481524 1_656
Cl6 Rb1 3.605697 1_545
Cl7 Dy6 2.695626 1_565
Cl7 Dy3 2.719241 1_555
Cl7 Rb1 3.481524 1_554
Cl7 Rb0 3.605697 1_565
Cl8 Dy1 2.678821 1_455
Cl8 Dy4 2.704847 1_555
Cl8 Rb0 3.464839 1_555
Cl9 Dy0 2.678821 1_555
Cl9 Dy5 2.704847 1_555
Cl9 Rb1 3.464839 1_555
Cl10 Dy3 2.678821 1_655
Cl10 Dy6 2.704847 1_565
Cl10 Rb2 3.464839 1_555
Cl11 Dy2 2.678821 1_555
Cl11 Dy7 2.704847 1_545
Cl11 Rb3 3.464839 1_555
Cl12 Dy3 2.722075 1_555
Cl12 Dy4 2.773648 1_555
Cl12 Rb2 3.581668 1_555
Cl12 Rb2 3.581668 1_455
Cl13 Dy2 2.722075 1_555
Cl13 Dy5 2.773648 1_555
Cl13 Rb3 3.581668 1_655
Cl13 Rb3 3.581668 1_555
Cl14 Dy1 2.722075 1_555
Cl14 Dy6 2.773648 1_555
Cl14 Rb0 3.581668 1_555
Cl14 Rb0 3.581668 1_655
Cl15 Dy0 2.722075 1_555
Cl15 Dy7 2.773648 1_555
Cl15 Rb1 3.581668 1_455
Cl15 Rb1 3.581668 1_555
Cl16 Dy4 2.694208 1_555
Cl16 Dy3 2.711584 1_555
Cl16 Rb1 3.613613 1_554
Cl17 Dy5 2.694208 1_555
Cl17 Dy2 2.711584 1_555
Cl17 Rb0 3.613613 1_656
Cl18 Dy6 2.694208 1_555
Cl18 Dy1 2.711584 1_555
Cl18 Rb3 3.613613 1_555
Cl19 Dy7 2.694208 1_555
Cl19 Dy0 2.711584 1_555
Cl19 Rb2 3.613613 1_455
Cl20 Dy5 2.694208 1_555
Cl20 Dy2 2.711584 1_555
Cl20 Rb0 3.613613 1_556
Cl21 Dy4 2.694208 1_555
Cl21 Dy3 2.711584 1_555
Cl21 Rb1 3.613613 1_454
Cl22 Dy7 2.694208 1_555
Cl22 Dy0 2.711584 1_555
Cl22 Rb2 3.613613 1_555
Cl23 Dy6 2.694208 1_555
Cl23 Dy1 2.711584 1_555
Cl23 Rb3 3.613613 1_655
Cl24 Dy3 2.678821 1_555
Cl24 Dy6 2.704847 1_565
Cl24 Rb2 3.464839 1_555
Cl25 Dy2 2.678821 1_455
Cl25 Dy7 2.704847 1_545
Cl25 Rb3 3.464839 1_555
Cl26 Dy1 2.678821 1_555
Cl26 Dy4 2.704847 1_555
Cl26 Rb0 3.464839 1_555
Cl27 Dy0 2.678821 1_655
Cl27 Dy5 2.704847 1_555
Cl27 Rb1 3.464839 1_555
