# generated using pymatgen
data_Na2La4Ti4Si3(S3O16)3
_symmetry_space_group_name_H-M   'P 1'
_cell_length_a   18.25682552
_cell_length_b   9.13198709
_cell_length_c   23.83543289
_cell_angle_alpha   89.60984244
_cell_angle_beta   89.81001142
_cell_angle_gamma   120.12627214
_symmetry_Int_Tables_number   1
_chemical_formula_structural   Na2La4Ti4Si3(S3O16)3
_chemical_formula_sum   'Na6 La12 Ti12 Si9 S27 O144'
_cell_volume   3436.90076771
_cell_formula_units_Z   3
loop_
 _symmetry_equiv_pos_site_id
 _symmetry_equiv_pos_as_xyz
  1  'x, y, z'
loop_
 _atom_site_type_symbol
 _atom_site_label
 _atom_site_symmetry_multiplicity
 _atom_site_fract_x
 _atom_site_fract_y
 _atom_site_fract_z
 _atom_site_occupancy
  Na  Na0  1  0.99579860  0.01711530  0.50056495  1
  Na  Na1  1  0.49646427  0.97432485  0.00387446  1
  Na  Na2  1  0.31857879  0.31276574  0.83669967  1
  Na  Na3  1  0.83096371  0.33211067  0.82588847  1
  Na  Na4  1  0.33184038  0.32566211  0.32547578  1
  Na  Na5  1  0.81854579  0.32570095  0.33287329  1
  La  La0  1  0.00760299  0.00360153  0.34879383  1
  La  La1  1  0.50825823  0.01240700  0.85096336  1
  La  La2  1  0.00054171  0.00706929  0.64705447  1
  La  La3  1  0.50320833  0.99490593  0.14776535  1
  La  La4  1  0.32155150  0.33154091  0.98567373  1
  La  La5  1  0.84628284  0.34947296  0.98540691  1
  La  La6  1  0.34496858  0.33912455  0.48260284  1
  La  La7  1  0.82287495  0.31370673  0.48490112  1
  La  La8  1  0.16377935  0.67960194  0.30100247  1
  La  La9  1  0.67366942  0.66967097  0.30201990  1
  La  La10  1  0.17328591  0.68250245  0.80536307  1
  La  La11  1  0.66209219  0.64818821  0.80171433  1
  Ti  Ti0  1  0.51834500  0.01821487  0.35555445  1
  Ti  Ti1  1  0.00644284  0.99903498  0.86046136  1
  Ti  Ti2  1  0.50934527  0.02453705  0.64778258  1
  Ti  Ti3  1  0.00869822  0.99279522  0.14676558  1
  Ti  Ti4  1  0.34394680  0.34389946  0.67436466  1
  Ti  Ti5  1  0.83462043  0.32622975  0.68067576  1
  Ti  Ti6  1  0.33934897  0.34855998  0.18518548  1
  Ti  Ti7  1  0.83589053  0.32944934  0.18272317  1
  Ti  Ti8  1  0.15952899  0.69455645  0.02462586  1
  Ti  Ti9  1  0.66395341  0.67570538  0.03032798  1
  Ti  Ti10  1  0.16558156  0.66060863  0.52466193  1
  Ti  Ti11  1  0.66002217  0.62791328  0.51740457  1
  Si  Si0  1  0.15499993  0.03032487  0.24221296  1
  Si  Si1  1  0.65821786  0.03870133  0.25117839  1
  Si  Si2  1  0.65570058  0.28215409  0.74283286  1
  Si  Si3  1  0.48720770  0.33427747  0.58402181  1
  Si  Si4  1  0.98415946  0.34974921  0.58193213  1
  Si  Si5  1  0.48151300  0.62052333  0.08196469  1
  Si  Si6  1  0.98090930  0.63071890  0.08797540  1
  Si  Si7  1  0.16200792  0.95350023  0.91576173  1
  Si  Si8  1  0.66235663  0.36804495  0.41332931  1
  S  S0  1  0.35930640  0.68673319  0.25278837  1
  S  S1  1  0.86324254  0.69768650  0.23934513  1
  S  S2  1  0.98771652  0.27642404  0.24086402  1
  S  S3  1  0.48366439  0.27560779  0.25177196  1
  S  S4  1  0.15313339  0.27275000  0.75591595  1
  S  S5  1  0.98468322  0.69436563  0.75389052  1
  S  S6  1  0.48464912  0.69403104  0.74067964  1
  S  S7  1  0.36152409  0.02967319  0.73880192  1
  S  S8  1  0.86041626  0.03346104  0.75317376  1
  S  S9  1  0.19196002  0.02631718  0.58242418  1
  S  S10  1  0.68029575  0.02699113  0.59152676  1
  S  S11  1  0.33293664  0.63416969  0.58821441  1
  S  S12  1  0.82207908  0.61958782  0.58283730  1
  S  S13  1  0.32311909  0.02481226  0.08321575  1
  S  S14  1  0.83198843  0.02837771  0.08911469  1
  S  S15  1  0.18042249  0.33644486  0.09123517  1
  S  S16  1  0.69008125  0.35788746  0.08065237  1
  S  S17  1  0.31115770  0.68032500  0.92206793  1
  S  S18  1  0.81965671  0.68543287  0.91376337  1
  S  S19  1  0.02472014  0.35926421  0.91396824  1
  S  S20  1  0.52760915  0.38162248  0.92493411  1
  S  S21  1  0.66487466  0.94311174  0.92354599  1
  S  S22  1  0.31614499  0.94653950  0.41606356  1
  S  S23  1  0.81161046  0.94027200  0.42299258  1
  S  S24  1  0.16295554  0.38481073  0.42368195  1
  S  S25  1  0.02855433  0.67574010  0.42423775  1
  S  S26  1  0.52848642  0.69024254  0.41553341  1
  O  O0  1  0.12242139  0.06740716  0.30153702  1
  O  O1  1  0.60148825  0.05497902  0.30691843  1
  O  O2  1  0.41382420  0.77183513  0.30060694  1
  O  O3  1  0.90627273  0.75908214  0.29430003  1
  O  O4  1  0.47395534  0.16607712  0.30088909  1
  O  O5  1  0.97298315  0.18694314  0.29583533  1
  O  O6  1  0.10266736  0.16069212  0.80465571  1
  O  O7  1  0.62227950  0.17598816  0.80171252  1
  O  O8  1  0.46834879  0.74987618  0.79516970  1
  O  O9  1  0.97749662  0.78883593  0.80267101  1
  O  O10  1  0.40502067  0.05978524  0.79358708  1
  O  O11  1  0.91415763  0.05500811  0.80143538  1
  O  O12  1  0.41206021  0.01288103  0.69386848  1
  O  O13  1  0.89275164  0.00141775  0.70078819  1
  O  O14  1  0.10629107  0.20470641  0.70347951  1
  O  O15  1  0.58594109  0.16044430  0.69545328  1
  O  O16  1  0.99867449  0.79048695  0.70140479  1
  O  O17  1  0.49190499  0.80740008  0.69479299  1
  O  O18  1  0.38782041  0.78121118  0.19986609  1
  O  O19  1  0.91349568  0.81712837  0.19420727  1
  O  O20  1  0.99342384  0.17839191  0.19497261  1
  O  O21  1  0.49537675  0.20901088  0.19917085  1
  O  O22  1  0.08585287  0.01265501  0.19489555  1
  O  O23  1  0.60211006  0.00325721  0.19706400  1
  O  O24  1  0.43107725  0.37077631  0.63447645  1
  O  O25  1  0.92831684  0.36537940  0.63620857  1
  O  O26  1  0.24610474  0.11892193  0.63169069  1
  O  O27  1  0.74554123  0.13166663  0.63605229  1
  O  O28  1  0.31488757  0.50024745  0.63495653  1
  O  O29  1  0.81227305  0.50991471  0.63207903  1
  O  O30  1  0.42782465  0.49617593  0.13735849  1
  O  O31  1  0.92474947  0.48486617  0.13627132  1
  O  O32  1  0.31275796  0.11151598  0.13160937  1
  O  O33  1  0.81182484  0.11496972  0.13531561  1
  O  O34  1  0.24388539  0.36336525  0.13571046  1
  O  O35  1  0.74028410  0.37435031  0.13066820  1
  O  O36  1  0.20299453  0.27801553  0.03981555  1
  O  O37  1  0.72483516  0.32180605  0.02991495  1
  O  O38  1  0.43302023  0.53501477  0.02582039  1
  O  O39  1  0.92899817  0.57535844  0.03084128  1
  O  O40  1  0.33807153  0.12060398  0.03045385  1
  O  O41  1  0.85410181  0.13221659  0.03747290  1
  O  O42  1  0.22344163  0.13176638  0.53130440  1
  O  O43  1  0.70267051  0.13196632  0.54037482  1
  O  O44  1  0.35550260  0.57424221  0.53759239  1
  O  O45  1  0.83994742  0.55640243  0.53112340  1
  O  O46  1  0.42663270  0.27899630  0.53148858  1
  O  O47  1  0.93283330  0.32307573  0.52590357  1
  O  O48  1  0.25923112  0.67279000  0.97114236  1
  O  O49  1  0.78379979  0.70848481  0.96506740  1
  O  O50  1  0.07063389  0.43521385  0.96607955  1
  O  O51  1  0.58152139  0.48533309  0.97226856  1
  O  O52  1  0.15142525  0.83522407  0.97412834  1
  O  O53  1  0.66613538  0.84398920  0.97406427  1
  O  O54  1  0.27146130  0.84883453  0.46812849  1
  O  O55  1  0.75816458  0.84114556  0.47271048  1
  O  O56  1  0.16456357  0.48677528  0.47444409  1
  O  O57  1  0.65163142  0.46789076  0.47185812  1
  O  O58  1  0.08278514  0.67847975  0.47251313  1
  O  O59  1  0.57469741  0.69874263  0.46812827  1
  O  O60  1  0.06690059  0.67012435  0.37045050  1
  O  O61  1  0.56632284  0.66101316  0.36605278  1
  O  O62  1  0.26153889  0.86896877  0.36632977  1
  O  O63  1  0.77207422  0.86341574  0.36973756  1
  O  O64  1  0.16409645  0.47098271  0.37156416  1
  O  O65  1  0.67595652  0.48525843  0.36097206  1
  O  O66  1  0.06456154  0.46423582  0.86408714  1
  O  O67  1  0.56624732  0.46404561  0.87019402  1
  O  O68  1  0.17085779  0.86093560  0.86230422  1
  O  O69  1  0.66619222  0.86025696  0.87121462  1
  O  O70  1  0.27130097  0.67941177  0.86816550  1
  O  O71  1  0.76637034  0.65882259  0.86389974  1
  O  O72  1  0.02463746  0.83423826  0.42739328  1
  O  O73  1  0.52501326  0.85045243  0.40844371  1
  O  O74  1  0.39777953  0.95493038  0.40836996  1
  O  O75  1  0.89608366  0.95288142  0.42709017  1
  O  O76  1  0.08414036  0.21687411  0.42778492  1
  O  O77  1  0.57149361  0.18509310  0.40396411  1
  O  O78  1  0.02051614  0.18985313  0.90501528  1
  O  O79  1  0.52267022  0.21267916  0.92667738  1
  O  O80  1  0.07147501  0.95835567  0.90380720  1
  O  O81  1  0.58538288  0.95241995  0.92673465  1
  O  O82  1  0.39632886  0.83743298  0.92438165  1
  O  O83  1  0.90435331  0.84550593  0.90195182  1
  O  O84  1  0.50421504  0.18474375  0.60553130  1
  O  O85  1  0.00715345  0.20224101  0.58923804  1
  O  O86  1  0.10379463  0.98486806  0.59116830  1
  O  O87  1  0.59385004  0.99574580  0.60746434  1
  O  O88  1  0.40126248  0.79927640  0.60541536  1
  O  O89  1  0.89287672  0.79412415  0.59080046  1
  O  O90  1  0.50272344  0.81280495  0.08429166  1
  O  O91  1  0.00257545  0.82129801  0.10577533  1
  O  O92  1  0.39184122  0.98713838  0.08938018  1
  O  O93  1  0.89996981  0.99562069  0.10444187  1
  O  O94  1  0.09313439  0.19402099  0.10610984  1
  O  O95  1  0.60040599  0.22436630  0.08567911  1
  O  O96  1  0.35058149  0.18091088  0.72775865  1
  O  O97  1  0.85513491  0.19328512  0.74424926  1
  O  O98  1  0.23648673  0.28095033  0.75193469  1
  O  O99  1  0.74808337  0.30438422  0.72584149  1
  O  O100  1  0.40725122  0.51884384  0.73038429  1
  O  O101  1  0.90444726  0.52719578  0.74883520  1
  O  O102  1  0.35536046  0.51646398  0.24473511  1
  O  O103  1  0.85525103  0.52894050  0.23096318  1
  O  O104  1  0.40271680  0.28445733  0.24639061  1
  O  O105  1  0.91080835  0.29594761  0.23291592  1
  O  O106  1  0.24749491  0.19318382  0.22552666  1
  O  O107  1  0.75076224  0.21435376  0.23745554  1
  O  O108  1  0.32317671  0.53111826  0.92006913  1
  O  O109  1  0.83550088  0.54037390  0.91675599  1
  O  O110  1  0.44152938  0.35748905  0.92604294  1
  O  O111  1  0.93541925  0.32176243  0.91690198  1
  O  O112  1  0.23755384  0.14536494  0.91774217  1
  O  O113  1  0.73932777  0.11565815  0.92490328  1
  O  O114  1  0.32806038  0.12246745  0.41945893  1
  O  O115  1  0.82347773  0.11343343  0.42256956  1
  O  O116  1  0.23800989  0.36396612  0.42600857  1
  O  O117  1  0.73830149  0.32913171  0.41908847  1
  O  O118  1  0.43867356  0.54902091  0.41980275  1
  O  O119  1  0.94296707  0.52681861  0.42670627  1
  O  O120  1  0.17605291  0.49043727  0.08172996  1
  O  O121  1  0.69163660  0.52322943  0.07036546  1
  O  O122  1  0.07364598  0.64308549  0.07180344  1
  O  O123  1  0.57882125  0.63582379  0.07352561  1
  O  O124  1  0.24182544  0.85480559  0.07575226  1
  O  O125  1  0.75251407  0.86221519  0.07760491  1
  O  O126  1  0.19275207  0.86497584  0.57408829  1
  O  O127  1  0.67727495  0.86700838  0.58473308  1
  O  O128  1  0.25290047  0.63710268  0.57957374  1
  O  O129  1  0.74268639  0.62790302  0.57477207  1
  O  O130  1  0.08109230  0.52746749  0.56979231  1
  O  O131  1  0.57605187  0.50845302  0.56873066  1
  O  O132  1  0.16081348  0.86139103  0.24312288  1
  O  O133  1  0.67883141  0.89463285  0.26657975  1
  O  O134  1  0.27085363  0.64348178  0.26283660  1
  O  O135  1  0.77917647  0.67960355  0.23862877  1
  O  O136  1  0.06277616  0.44610353  0.24358205  1
  O  O137  1  0.55370078  0.44975040  0.25851430  1
  O  O138  1  0.16585424  0.44292318  0.76298310  1
  O  O139  1  0.66083379  0.46200317  0.74367746  1
  O  O140  1  0.05558799  0.66314303  0.76049648  1
  O  O141  1  0.55916346  0.67361649  0.74289369  1
  O  O142  1  0.27779308  0.87878824  0.73912815  1
  O  O143  1  0.77288127  0.89375779  0.76155488  1
loop_
_geom_bond_atom_site_label_1
_geom_bond_atom_site_label_2
_geom_bond_distance
_geom_bond_site_symmetry_2
Na0 O75 2.385054 1_545
Na0 O76 2.433776 1_655
Na0 O72 2.650327 1_645
Na0 O85 2.658552 1_655
Na0 O89 2.894135 1_545
Na0 O86 3.039792 1_645
Na1 O90 2.448440 1_555
Na1 O82 2.501218 1_554
Na1 O81 2.523333 1_554
Na1 O79 2.691960 1_564
Na1 O92 2.831540 1_555
Na1 O95 2.890049 1_565
Na2 O112 2.434624 1_555
Na2 O98 2.450238 1_555
Na2 O108 2.796221 1_555
Na2 O110 2.977186 1_555
Na2 O96 3.045088 1_555
Na2 O100 3.071401 1_555
Na3 O101 2.426244 1_555
Na3 O97 2.485552 1_555
Na3 O99 2.772700 1_555
Na3 O109 2.866016 1_555
Na3 O111 2.925285 1_555
Na3 O113 2.977692 1_555
Na4 O104 2.418997 1_555
Na4 O102 2.474229 1_555
Na4 O106 2.775584 1_555
Na4 O114 2.877483 1_555
Na4 O118 3.019539 1_555
Na4 O116 3.063421 1_555
Na5 O117 2.529256 1_555
Na5 O107 2.554396 1_555
Na5 O115 2.908000 1_555
Na5 O103 2.910918 1_555
Na5 O105 3.004855 1_555
Na5 O119 3.071963 1_555
La0 O0 2.179845 1_555
La0 O5 2.415536 1_455
La0 O3 2.450374 1_445
La0 O72 2.538861 1_545
La0 O76 2.574128 1_555
La0 O75 2.618969 1_445
La1 O7 2.186624 1_555
La1 O79 2.497189 1_555
La1 O81 2.514388 1_545
La1 O8 2.518623 1_545
La1 O10 2.537231 1_555
La1 O82 2.540050 1_545
La2 O85 2.199948 1_555
La2 O14 2.312160 1_555
La2 O13 2.322953 1_455
La2 O16 2.342716 1_445
La2 O89 2.378880 1_445
La2 O86 2.395761 1_545
La3 O23 2.126955 1_565
La3 O90 2.252548 1_555
La3 O18 2.368795 1_555
La3 O21 2.378370 1_565
La3 O95 2.436698 1_565
La3 O92 2.439459 1_555
La4 O38 2.179700 1_556
La4 O112 2.302337 1_555
La4 O40 2.344794 1_556
La4 O36 2.345231 1_556
La4 O108 2.382084 1_555
La4 O110 2.515549 1_555
La5 O39 2.150034 1_556
La5 O37 2.350295 1_556
La5 O41 2.397628 1_556
La5 O111 2.404134 1_555
La5 O109 2.462351 1_555
La5 O113 2.515367 1_555
La6 O46 2.169486 1_555
La6 O118 2.343846 1_555
La6 O42 2.364628 1_555
La6 O114 2.388632 1_555
La6 O44 2.447534 1_555
La6 O116 2.478354 1_555
La7 O47 2.198685 1_555
La7 O117 2.257437 1_555
La7 O45 2.359029 1_555
La7 O115 2.368412 1_555
La7 O43 2.369304 1_555
La7 O119 2.485645 1_555
La8 O132 2.172934 1_555
La8 O134 2.323208 1_555
La8 O62 2.357412 1_555
La8 O60 2.387646 1_555
La8 O136 2.435107 1_555
La8 O64 2.534887 1_555
La9 O133 2.173545 1_555
La9 O65 2.202492 1_555
La9 O137 2.352394 1_555
La9 O135 2.409357 1_555
La9 O63 2.414664 1_555
La9 O61 2.449392 1_555
La10 O68 2.145072 1_555
La10 O140 2.329953 1_555
La10 O70 2.347674 1_555
La10 O138 2.357638 1_555
La10 O66 2.417477 1_555
La10 O142 2.419542 1_555
La11 O139 2.190431 1_555
La11 O143 2.332621 1_555
La11 O67 2.354529 1_555
La11 O71 2.380313 1_555
La11 O141 2.449866 1_555
La11 O69 2.529680 1_555
O0 Si0 1.634320 1_555
O1 Si1 1.734367 1_555
O1 Ti0 1.797828 1_555
O2 S0 1.461793 1_555
O2 Ti0 2.483098 1_565
O3 S1 1.490625 1_555
O4 S3 1.485662 1_555
O4 Ti0 2.293306 1_555
O5 S2 1.489734 1_555
O6 S4 1.508629 1_555
O6 Ti1 2.095057 1_545
O7 Si2 1.632119 1_555
O8 S6 1.481319 1_555
O9 S5 1.496536 1_555
O9 Ti1 2.209941 1_655
O10 S7 1.484581 1_555
O11 S8 1.463357 1_555
O11 Ti1 2.439209 1_645
O12 S7 1.469531 1_555
O12 Ti2 2.041633 1_555
O13 S8 1.471973 1_555
O14 S4 1.470991 1_555
O15 Si2 1.654811 1_555
O15 Ti2 1.753421 1_555
O16 S5 1.469234 1_555
O17 S6 1.459985 1_555
O17 Ti2 2.149976 1_565
O18 S0 1.461691 1_555
O19 S1 1.470345 1_555
O19 Ti3 2.009100 1_655
O20 S2 1.454303 1_555
O20 Ti3 2.183908 1_645
O21 S3 1.458311 1_555
O22 Si0 1.642909 1_555
O22 Ti3 1.757902 1_545
O23 Si1 1.580940 1_555
O24 Si3 1.716872 1_555
O24 Ti4 1.757685 1_555
O25 Si4 1.695075 1_555
O25 Ti5 1.883152 1_555
O26 S9 1.501113 1_555
O26 Ti4 2.191564 1_555
O27 S10 1.529110 1_555
O27 Ti5 2.017334 1_555
O28 S11 1.555632 1_555
O28 Ti4 1.986879 1_555
O29 S12 1.488388 1_555
O29 Ti5 2.232829 1_555
O30 Si5 1.687366 1_555
O30 Ti6 1.872692 1_555
O31 Si6 1.658578 1_555
O31 Ti7 1.878153 1_555
O32 S13 1.467839 1_555
O32 Ti6 2.353540 1_555
O33 S14 1.508268 1_555
O33 Ti7 2.115587 1_555
O34 S15 1.500807 1_555
O34 Ti6 2.166678 1_555
O35 S16 1.468075 1_555
O35 Ti7 2.340968 1_555
O36 S15 1.477471 1_555
O37 S16 1.477794 1_555
O38 Si5 1.585094 1_555
O39 Si6 1.595401 1_555
O40 S13 1.471169 1_555
O41 S14 1.474389 1_555
O42 S9 1.471762 1_555
O43 S10 1.469711 1_555
O44 S11 1.468712 1_555
O45 S12 1.467885 1_555
O46 Si3 1.582131 1_555
O47 Si4 1.582554 1_555
O48 S17 1.482483 1_555
O48 Ti8 2.308501 1_556
O49 S18 1.450779 1_555
O49 Ti9 2.571043 1_556
O50 S19 1.470214 1_555
O50 Ti8 2.528228 1_556
O51 S20 1.491592 1_555
O51 Ti9 2.150011 1_556
O52 Si7 1.705178 1_555
O52 Ti8 1.814290 1_556
O53 S21 1.508662 1_555
O53 Ti9 2.017878 1_556
O54 S22 1.499735 1_555
O54 Ti10 2.263351 1_555
O55 S23 1.505635 1_555
O55 Ti11 2.143319 1_555
O56 S24 1.523145 1_555
O56 Ti10 1.987324 1_555
O57 Si8 1.735115 1_555
O57 Ti11 1.770734 1_555
O58 S25 1.512614 1_555
O58 Ti10 2.028280 1_555
O59 S26 1.493976 1_555
O59 Ti11 2.288600 1_555
O60 S25 1.472195 1_555
O61 S26 1.457172 1_555
O62 S22 1.487039 1_555
O63 S23 1.461007 1_555
O64 S24 1.460454 1_555
O65 Si8 1.574089 1_555
O66 S19 1.463005 1_555
O67 S20 1.487974 1_555
O68 Si7 1.585742 1_555
O69 S21 1.469642 1_555
O70 S17 1.476648 1_555
O71 S18 1.480657 1_555
O72 S25 1.486974 1_555
O73 S26 1.504285 1_555
O73 Ti0 2.028054 1_565
O74 S22 1.464279 1_555
O74 Ti0 2.336362 1_565
O75 S23 1.491344 1_555
O76 S24 1.487900 1_555
O77 Si8 1.678818 1_555
O77 Ti0 1.772660 1_555
O78 S19 1.526511 1_555
O78 Ti1 1.951368 1_545
O79 S20 1.499837 1_555
O80 Si7 1.700461 1_555
O80 Ti1 1.749490 1_555
O81 S21 1.497454 1_555
O82 S17 1.497178 1_555
O83 S18 1.526314 1_555
O83 Ti1 1.939932 1_655
O84 Si3 1.625145 1_555
O84 Ti2 1.811484 1_555
O85 Si4 1.608108 1_455
O86 S9 1.470613 1_565
O87 S10 1.503006 1_565
O87 Ti2 1.942586 1_565
O88 S11 1.456467 1_555
O88 Ti2 2.260963 1_565
O89 S12 1.478121 1_555
O90 Si5 1.598494 1_555
O91 Si6 1.638742 1_455
O91 Ti3 1.807096 1_555
O92 S13 1.465578 1_565
O93 S14 1.462032 1_565
O93 Ti3 2.241218 1_655
O94 S15 1.505415 1_555
O94 Ti3 1.953062 1_545
O95 S16 1.474554 1_555
O96 S7 1.512943 1_555
O96 Ti4 2.001480 1_555
O97 S8 1.523776 1_555
O97 Ti5 2.084578 1_555
O98 S4 1.488268 1_555
O98 Ti4 2.535210 1_555
O99 Si2 1.643338 1_555
O99 Ti5 1.834181 1_555
O100 S6 1.534508 1_555
O100 Ti4 1.963866 1_555
O101 S5 1.499904 1_555
O101 Ti5 2.310496 1_555
O102 S0 1.533444 1_555
O102 Ti6 2.008380 1_555
O103 S1 1.488133 1_555
O103 Ti7 2.037314 1_555
O104 S3 1.525783 1_555
O104 Ti6 2.118656 1_555
O105 S2 1.513858 1_555
O105 Ti7 1.954885 1_555
O106 Si0 1.639542 1_555
O106 Ti6 1.825447 1_555
O107 Si1 1.674309 1_555
O107 Ti7 1.884196 1_555
O108 S17 1.485904 1_555
O109 S18 1.492321 1_555
O110 S20 1.473430 1_555
O111 S19 1.489518 1_655
O112 Si7 1.596922 1_545
O113 S21 1.477328 1_545
O114 S22 1.511956 1_545
O115 S23 1.484397 1_545
O116 S24 1.476175 1_555
O117 Si8 1.600849 1_555
O118 S26 1.495510 1_555
O119 S25 1.469590 1_655
O120 S15 1.464119 1_555
O120 Ti8 2.439424 1_555
O121 S16 1.514133 1_555
O121 Ti9 1.948452 1_555
O122 Si6 1.682556 1_455
O122 Ti8 1.784715 1_555
O123 Si5 1.721672 1_555
O123 Ti9 1.739117 1_555
O124 S13 1.528791 1_565
O124 Ti8 1.926995 1_555
O125 S14 1.510381 1_565
O125 Ti9 2.014648 1_555
O126 S9 1.495276 1_565
O126 Ti10 2.054629 1_555
O127 S10 1.444323 1_565
O127 Ti11 2.608183 1_555
O128 S11 1.489787 1_555
O128 Ti10 2.157322 1_555
O129 S12 1.501927 1_555
O129 Ti11 2.039901 1_555
O130 Si4 1.719471 1_455
O130 Ti10 1.761624 1_555
O131 Si3 1.640760 1_555
O131 Ti11 1.824153 1_555
O132 Si0 1.598620 1_565
O133 Si1 1.580705 1_565
O134 S0 1.475482 1_555
O135 S1 1.459079 1_555
O136 S2 1.467489 1_455
O137 S3 1.467449 1_555
O138 S4 1.462473 1_555
O139 Si2 1.597672 1_555
O140 S5 1.467327 1_455
O141 S6 1.463946 1_555
O142 S7 1.456313 1_565
O143 S8 1.472843 1_565
