# generated using pymatgen
data_NaSO2
_symmetry_space_group_name_H-M   'P 1'
_cell_length_a   6.75846300
_cell_length_b   6.49752100
_cell_length_c   6.66391191
_cell_angle_alpha   61.40479225
_cell_angle_beta   90.00000000
_cell_angle_gamma   90.00000000
_symmetry_Int_Tables_number   1
_chemical_formula_structural   NaSO2
_chemical_formula_sum   'Na4 S4 O8'
_cell_volume   256.93944269
_cell_formula_units_Z   4
loop_
 _symmetry_equiv_pos_site_id
 _symmetry_equiv_pos_as_xyz
  1  'x, y, z'
loop_
 _atom_site_type_symbol
 _atom_site_label
 _atom_site_symmetry_multiplicity
 _atom_site_fract_x
 _atom_site_fract_y
 _atom_site_fract_z
 _atom_site_occupancy
  Na  Na0  1  0.14849000  0.26364400  0.02285100  1
  Na  Na1  1  0.85151000  0.73635600  0.97714900  1
  Na  Na2  1  0.14849000  0.73635600  0.47714900  1
  Na  Na3  1  0.85151000  0.26364400  0.52285100  1
  S  S0  1  0.33713900  0.19105600  0.57173900  1
  S  S1  1  0.33713900  0.80894400  0.92826100  1
  S  S2  1  0.66286100  0.80894400  0.42826100  1
  S  S3  1  0.66286100  0.19105600  0.07173900  1
  O  O0  1  0.23781600  0.11440000  0.41361300  1
  O  O1  1  0.23781600  0.88560000  0.08638700  1
  O  O2  1  0.76218400  0.88560000  0.58638700  1
  O  O3  1  0.76218400  0.11440000  0.91361300  1
  O  O4  1  0.18538400  0.31981800  0.64224900  1
  O  O5  1  0.81461600  0.31981800  0.14224900  1
  O  O6  1  0.81461600  0.68018200  0.35775100  1
  O  O7  1  0.18538400  0.68018200  0.85775100  1
loop_
_geom_bond_atom_site_label_1
_geom_bond_atom_site_label_2
_geom_bond_distance
_geom_bond_site_symmetry_2
Na0 O1 2.362591 1_545
Na0 O0 2.380858 1_555
Na0 O4 2.396260 1_554
Na0 O7 2.397340 1_554
Na0 O5 2.477087 1_455
Na1 O3 2.362591 1_565
Na1 O2 2.380858 1_555
Na1 O6 2.396260 1_556
Na1 O5 2.397340 1_556
Na1 O7 2.477087 1_655
Na2 O0 2.362591 1_565
Na2 O1 2.380858 1_555
Na2 O7 2.396260 1_555
Na2 O4 2.397340 1_555
Na2 O6 2.477087 1_455
Na3 O2 2.362591 1_545
Na3 O3 2.380858 1_555
Na3 O5 2.396260 1_555
Na3 O6 2.397340 1_555
Na3 O4 2.477087 1_655
O0 S0 1.520342 1_555
O1 S1 1.520342 1_554
O2 S2 1.520342 1_555
O3 S3 1.520342 1_556
O4 S0 1.532630 1_555
O5 S3 1.532630 1_555
O6 S2 1.532630 1_555
O7 S1 1.532630 1_555
