# generated using pymatgen
data_Na3BiO4
_symmetry_space_group_name_H-M   'P 1'
_cell_length_a   5.65128477
_cell_length_b   5.82008627
_cell_length_c   6.66812247
_cell_angle_alpha   90.00000000
_cell_angle_beta   90.00000000
_cell_angle_gamma   109.80328916
_symmetry_Int_Tables_number   1
_chemical_formula_structural   Na3BiO4
_chemical_formula_sum   'Na6 Bi2 O8'
_cell_volume   206.35062910
_cell_formula_units_Z   2
loop_
 _symmetry_equiv_pos_site_id
 _symmetry_equiv_pos_as_xyz
  1  'x, y, z'
loop_
 _atom_site_type_symbol
 _atom_site_label
 _atom_site_symmetry_multiplicity
 _atom_site_fract_x
 _atom_site_fract_y
 _atom_site_fract_z
 _atom_site_occupancy
  Na  Na0  1  0.75000000  0.00000000  0.38206741  1
  Na  Na1  1  0.25000000  0.50000000  0.39824073  1
  Na  Na2  1  0.75000000  0.50000000  0.12984054  1
  Na  Na3  1  0.25000000  0.50000000  0.87015946  1
  Na  Na4  1  0.25000000  0.00000000  0.61793259  1
  Na  Na5  1  0.75000000  0.50000000  0.60175927  1
  Bi  Bi0  1  0.75000000  0.00000000  0.86253343  1
  Bi  Bi1  1  0.25000000  0.00000000  0.13746657  1
  O  O0  1  0.97112807  0.23702224  0.65145221  1
  O  O1  1  0.52887193  0.76297776  0.65145221  1
  O  O2  1  0.02887293  0.76297776  0.34854779  1
  O  O3  1  0.47112807  0.23702224  0.34854779  1
  O  O4  1  0.49840214  0.21088843  0.89810971  1
  O  O5  1  0.00159786  0.78911157  0.89810971  1
  O  O6  1  0.99840214  0.21088843  0.10189029  1
  O  O7  1  0.50159786  0.78911157  0.10189029  1
loop_
_geom_bond_atom_site_label_1
_geom_bond_atom_site_label_2
_geom_bond_distance
_geom_bond_site_symmetry_2
Na0 O1 2.350153 1_545
Na0 O0 2.350153 1_555
Na0 O7 2.408322 1_545
Na0 O6 2.408322 1_555
Na0 O3 2.431004 1_555
Na0 O2 2.431009 1_645
Na1 O2 2.304346 1_555
Na1 O3 2.304350 1_555
Na1 O0 2.458200 1_455
Na1 O1 2.458200 1_555
Na1 O6 2.671489 1_455
Na1 O7 2.671489 1_555
Na2 O3 2.306238 1_555
Na2 O2 2.306241 1_655
Na2 O5 2.370559 1_654
Na2 O4 2.370559 1_554
Na2 O7 2.537166 1_555
Na2 O6 2.537166 1_555
Na3 O0 2.306238 1_455
Na3 O1 2.306238 1_555
Na3 O6 2.370559 1_456
Na3 O7 2.370559 1_556
Na3 O5 2.537166 1_555
Na3 O4 2.537166 1_555
Na4 O2 2.350151 1_545
Na4 O3 2.350153 1_555
Na4 O5 2.408322 1_545
Na4 O4 2.408322 1_555
Na4 O1 2.431004 1_545
Na4 O0 2.431004 1_455
Na5 O0 2.304350 1_555
Na5 O1 2.304350 1_555
Na5 O3 2.458200 1_555
Na5 O2 2.458203 1_655
Na5 O5 2.671489 1_655
Na5 O4 2.671489 1_555
Bi0 O1 2.068250 1_545
Bi0 O0 2.068250 1_555
Bi0 O5 2.183327 1_645
Bi0 O4 2.183327 1_555
Bi0 O6 2.203871 1_556
Bi0 O7 2.203871 1_546
Bi1 O2 2.068247 1_545
Bi1 O3 2.068250 1_555
Bi1 O6 2.183327 1_455
Bi1 O7 2.183327 1_545
Bi1 O5 2.203871 1_544
Bi1 O4 2.203871 1_554
