# generated using pymatgen
data_K2Na2Pr2MgNb2O10
_symmetry_space_group_name_H-M   'P 1'
_cell_length_a   5.69604907
_cell_length_b   5.69604907
_cell_length_c   9.43918854
_cell_angle_alpha   90.00000000
_cell_angle_beta   90.00000000
_cell_angle_gamma   90.00000000
_symmetry_Int_Tables_number   1
_chemical_formula_structural   K2Na2Pr2MgNb2O10
_chemical_formula_sum   'K2 Na2 Pr2 Mg1 Nb2 O10'
_cell_volume   306.25423627
_cell_formula_units_Z   1
loop_
 _symmetry_equiv_pos_site_id
 _symmetry_equiv_pos_as_xyz
  1  'x, y, z'
loop_
 _atom_site_type_symbol
 _atom_site_label
 _atom_site_symmetry_multiplicity
 _atom_site_fract_x
 _atom_site_fract_y
 _atom_site_fract_z
 _atom_site_occupancy
  K  K0  1  0.75000000  0.25000000  0.05479749  1
  K  K1  1  0.25000000  0.75000000  0.05479749  1
  Na  Na0  1  0.25000000  0.25000000  0.84477657  1
  Na  Na1  1  0.75000000  0.75000000  0.23028286  1
  Pr  Pr0  1  0.25000000  0.75000000  0.47153584  1
  Pr  Pr1  1  0.75000000  0.25000000  0.47153584  1
  Mg  Mg0  1  0.25000000  0.25000000  0.59585301  1
  Nb  Nb0  1  0.75000000  0.75000000  0.71729210  1
  Nb  Nb1  1  0.25000000  0.25000000  0.27556094  1
  O  O0  1  0.49362031  0.49362031  0.31387122  1
  O  O1  1  0.51074832  0.98925168  0.65032868  1
  O  O2  1  0.49362031  0.00637969  0.31387122  1
  O  O3  1  0.51074832  0.51074832  0.65032868  1
  O  O4  1  0.00637969  0.49362031  0.31387122  1
  O  O5  1  0.25000000  0.25000000  0.06570295  1
  O  O6  1  0.75000000  0.75000000  0.91575327  1
  O  O7  1  0.00637969  0.00637969  0.31387122  1
  O  O8  1  0.98925168  0.51074832  0.65032868  1
  O  O9  1  0.98925168  0.98925168  0.65032868  1
loop_
_geom_bond_atom_site_label_1
_geom_bond_atom_site_label_2
_geom_bond_distance
_geom_bond_site_symmetry_2
K0 O5 2.849884 1_655
K0 O5 2.849884 1_555
K0 O6 3.135890 1_544
K0 O6 3.135890 1_554
K0 O0 3.168354 1_555
K0 O4 3.168354 1_655
K0 O7 3.168354 1_655
K0 O2 3.168354 1_555
K1 O5 2.849884 1_565
K1 O5 2.849884 1_555
K1 O6 3.135890 1_454
K1 O6 3.135890 1_554
K1 O7 3.168354 1_565
K1 O2 3.168354 1_565
K1 O0 3.168354 1_555
K1 O4 3.168354 1_555
Na0 O5 2.085366 1_556
Na0 O9 2.789382 1_445
Na0 O1 2.789382 1_545
Na0 O3 2.789382 1_555
Na0 O8 2.789382 1_455
Na1 O4 2.210833 1_655
Na1 O0 2.210833 1_555
Na1 O7 2.210833 1_665
Na1 O2 2.210833 1_565
Mg0 O3 2.162465 1_555
Mg0 O9 2.162465 1_445
Mg0 O8 2.162465 1_455
Mg0 O1 2.162465 1_545
Nb0 O6 1.873312 1_555
Nb0 O9 2.028279 1_555
Nb0 O1 2.028279 1_555
Nb0 O8 2.028279 1_555
Nb0 O3 2.028279 1_555
Nb1 O5 1.980889 1_555
Nb1 O0 1.995505 1_555
Nb1 O7 1.995505 1_555
Nb1 O4 1.995505 1_555
Nb1 O2 1.995505 1_555
O0 Pr0 2.504612 1_555
O0 Pr1 2.504612 1_555
O1 Pr0 2.628938 1_555
O1 Pr1 2.628938 1_565
O2 Pr0 2.504612 1_545
O2 Pr1 2.504612 1_555
O3 Pr0 2.628938 1_555
O3 Pr1 2.628938 1_555
O4 Pr0 2.504612 1_555
O4 Pr1 2.504612 1_455
O7 Pr0 2.504612 1_545
O7 Pr1 2.504612 1_455
O8 Pr0 2.628938 1_655
O8 Pr1 2.628938 1_555
O9 Pr0 2.628938 1_655
O9 Pr1 2.628938 1_565
