# generated using pymatgen
data_MnGaCo2
_symmetry_space_group_name_H-M   'P 1'
_cell_length_a   4.01557441
_cell_length_b   4.01557476
_cell_length_c   4.01557501
_cell_angle_alpha   60.00000628
_cell_angle_beta   60.00000339
_cell_angle_gamma   60.00000520
_symmetry_Int_Tables_number   1
_chemical_formula_structural   MnGaCo2
_chemical_formula_sum   'Mn1 Ga1 Co2'
_cell_volume   45.78552390
_cell_formula_units_Z   1
loop_
 _symmetry_equiv_pos_site_id
 _symmetry_equiv_pos_as_xyz
  1  'x, y, z'
loop_
 _atom_site_type_symbol
 _atom_site_label
 _atom_site_symmetry_multiplicity
 _atom_site_fract_x
 _atom_site_fract_y
 _atom_site_fract_z
 _atom_site_occupancy
  Mn  Mn0  1  0.50000000  0.50000000  0.50000000  1
  Ga  Ga0  1  0.00000000  0.00000000  -0.00000000  1
  Co  Co0  1  0.75000000  0.75000000  0.75000000  1
  Co  Co1  1  0.25000000  0.25000000  0.25000000  1
loop_
_geom_bond_atom_site_label_1
_geom_bond_atom_site_label_2
_geom_bond_distance
_geom_bond_site_symmetry_2
Ga0 Mn0 2.839440 1_445
Ga0 Mn0 2.839440 1_554
Ga0 Mn0 2.839440 1_544
Ga0 Mn0 2.839440 1_545
Ga0 Mn0 2.839440 1_455
Ga0 Mn0 2.839440 1_454
Co0 Mn0 2.459027 1_555
Co0 Ga0 2.459027 1_666
Co0 Mn0 2.459027 1_655
Co0 Ga0 2.459027 1_566
Co0 Mn0 2.459027 1_565
Co0 Ga0 2.459027 1_656
Co0 Mn0 2.459028 1_556
Co0 Ga0 2.459028 1_665
Co1 Mn0 2.459027 1_555
Co1 Ga0 2.459027 1_555
Co1 Ga0 2.459027 1_655
Co1 Mn0 2.459027 1_455
Co1 Ga0 2.459027 1_565
Co1 Mn0 2.459027 1_545
Co1 Mn0 2.459028 1_554
Co1 Ga0 2.459028 1_556
