# generated using pymatgen
data_Na2Y4Ga4SiS11O48
_symmetry_space_group_name_H-M   'P 1'
_cell_length_a   17.66889226
_cell_length_b   8.85177177
_cell_length_c   23.14796110
_cell_angle_alpha   89.99735065
_cell_angle_beta   90.07442403
_cell_angle_gamma   119.93860832
_symmetry_Int_Tables_number   1
_chemical_formula_structural   Na2Y4Ga4SiS11O48
_chemical_formula_sum   'Na6 Y12 Ga12 Si3 S33 O144'
_cell_volume   3137.26184239
_cell_formula_units_Z   3
loop_
 _symmetry_equiv_pos_site_id
 _symmetry_equiv_pos_as_xyz
  1  'x, y, z'
loop_
 _atom_site_type_symbol
 _atom_site_label
 _atom_site_symmetry_multiplicity
 _atom_site_fract_x
 _atom_site_fract_y
 _atom_site_fract_z
 _atom_site_occupancy
  Na  Na0  1  0.00176627  0.97410481  0.48775965  1
  Na  Na1  1  0.50212990  0.03191548  0.00679919  1
  Na  Na2  1  0.34602760  0.33427790  0.83473150  1
  Na  Na3  1  0.84252234  0.35597812  0.83350054  1
  Na  Na4  1  0.33296200  0.33191455  0.33042328  1
  Na  Na5  1  0.84562196  0.35384507  0.32446124  1
  Y  Y0  1  0.99777769  0.98922595  0.85944748  1
  Y  Y1  1  0.50048820  0.00709371  0.86261236  1
  Y  Y2  1  0.99933581  0.99183260  0.64574369  1
  Y  Y3  1  0.50029615  0.99961895  0.63836077  1
  Y  Y4  1  0.33946170  0.33869007  0.68285457  1
  Y  Y5  1  0.83675727  0.34744461  0.68200537  1
  Y  Y6  1  0.34030308  0.33541860  0.98747569  1
  Y  Y7  1  0.83767792  0.34310834  0.46870699  1
  Y  Y8  1  0.65989838  0.65368455  0.03223664  1
  Y  Y9  1  0.16095271  0.67186004  0.50991082  1
  Y  Y10  1  0.15731345  0.66131764  0.81098495  1
  Y  Y11  1  0.66770965  0.66275858  0.81767870  1
  Ga  Ga0  1  0.00450127  0.99670423  0.34199899  1
  Ga  Ga1  1  0.49964949  0.00086891  0.34963136  1
  Ga  Ga2  1  0.99897623  0.99925861  0.15034781  1
  Ga  Ga3  1  0.49850088  0.99905875  0.16116365  1
  Ga  Ga4  1  0.32051405  0.32179776  0.17945711  1
  Ga  Ga5  1  0.84815732  0.35115105  0.18352768  1
  Ga  Ga6  1  0.83684583  0.33659337  0.99134874  1
  Ga  Ga7  1  0.33633832  0.33598955  0.47549408  1
  Ga  Ga8  1  0.16277828  0.65994362  0.02447875  1
  Ga  Ga9  1  0.66427166  0.66849776  0.50914919  1
  Ga  Ga10  1  0.17320940  0.66852245  0.31797742  1
  Ga  Ga11  1  0.65774517  0.65857158  0.31231599  1
  Si  Si0  1  0.99199954  0.69294670  0.74871390  1
  Si  Si1  1  0.51334517  0.37148430  0.92165100  1
  Si  Si2  1  0.02176016  0.67799774  0.40079621  1
  S  S0  1  0.14880444  0.00990918  0.24416632  1
  S  S1  1  0.64391417  0.99790613  0.25567698  1
  S  S2  1  0.35185452  0.70956639  0.25608872  1
  S  S3  1  0.85384335  0.70536797  0.24522036  1
  S  S4  1  0.00031463  0.28333340  0.25181865  1
  S  S5  1  0.49913450  0.29040635  0.24977800  1
  S  S6  1  0.15462315  0.29155178  0.75285448  1
  S  S7  1  0.64496142  0.29125205  0.74889486  1
  S  S8  1  0.50155258  0.70846559  0.75230906  1
  S  S9  1  0.35370083  0.00094723  0.74953522  1
  S  S10  1  0.85285369  0.00841464  0.75182581  1
  S  S11  1  0.48351140  0.34748692  0.56846047  1
  S  S12  1  0.98425062  0.32985228  0.57665929  1
  S  S13  1  0.19112561  0.05527360  0.57129354  1
  S  S14  1  0.68905890  0.02143765  0.57472386  1
  S  S15  1  0.33433227  0.61849137  0.57138775  1
  S  S16  1  0.82121534  0.63119323  0.57279175  1
  S  S17  1  0.47236842  0.63551639  0.09966613  1
  S  S18  1  0.98095073  0.63552605  0.08762089  1
  S  S19  1  0.33389422  0.02846488  0.09275926  1
  S  S20  1  0.84582826  0.06571679  0.09208448  1
  S  S21  1  0.17900471  0.33196199  0.08920225  1
  S  S22  1  0.68966475  0.30825029  0.09315194  1
  S  S23  1  0.30607317  0.66413257  0.92806629  1
  S  S24  1  0.81245650  0.64419964  0.92727461  1
  S  S25  1  0.01645921  0.37872597  0.93023793  1
  S  S26  1  0.16437145  0.94677800  0.92914204  1
  S  S27  1  0.68100880  0.97953809  0.92651366  1
  S  S28  1  0.32208561  0.97561465  0.40841354  1
  S  S29  1  0.80547829  0.93576137  0.40732927  1
  S  S30  1  0.17289788  0.37068921  0.40845289  1
  S  S31  1  0.65497677  0.37410901  0.40685306  1
  S  S32  1  0.51942964  0.67072318  0.41062267  1
  O  O0  1  0.11176990  0.05447074  0.29504463  1
  O  O1  1  0.60442390  0.03629318  0.30709269  1
  O  O2  1  0.41048069  0.78588885  0.30755580  1
  O  O3  1  0.91330211  0.78448571  0.29547288  1
  O  O4  1  0.48183385  0.17240038  0.29996820  1
  O  O5  1  0.97747082  0.16430887  0.30380834  1
  O  O6  1  0.10909678  0.19920809  0.80611468  1
  O  O7  1  0.59892008  0.19037311  0.80089603  1
  O  O8  1  0.49245495  0.78835411  0.80586261  1
  O  O9  1  0.99094522  0.80193881  0.80515373  1
  O  O10  1  0.40665099  0.01393215  0.80061248  1
  O  O11  1  0.90484996  0.03618903  0.80544711  1
  O  O12  1  0.39758025  0.00450310  0.69451830  1
  O  O13  1  0.90259434  0.01383914  0.69972872  1
  O  O14  1  0.10590857  0.20244457  0.69990186  1
  O  O15  1  0.59479861  0.20596169  0.69559515  1
  O  O16  1  0.98843091  0.77840450  0.68694549  1
  O  O17  1  0.49570367  0.79838530  0.69985648  1
  O  O18  1  0.39070870  0.82495913  0.20486513  1
  O  O19  1  0.89177876  0.81349038  0.19215001  1
  O  O20  1  0.00888743  0.19572944  0.19974020  1
  O  O21  1  0.51941487  0.21673718  0.19708534  1
  O  O22  1  0.09271457  0.97859870  0.19221153  1
  O  O23  1  0.58659800  0.96480537  0.20387003  1
  O  O24  1  0.44519314  0.37793515  0.62093842  1
  O  O25  1  0.94042468  0.33162710  0.63063476  1
  O  O26  1  0.23767200  0.14813946  0.62422540  1
  O  O27  1  0.74070537  0.09714867  0.62761977  1
  O  O28  1  0.32461174  0.51920854  0.62498808  1
  O  O29  1  0.81182466  0.53300552  0.62629254  1
  O  O30  1  0.42684637  0.51290888  0.14925314  1
  O  O31  1  0.94755493  0.52148218  0.14074551  1
  O  O32  1  0.31457396  0.11460826  0.14235442  1
  O  O33  1  0.82957422  0.14059157  0.14623390  1
  O  O34  1  0.23920554  0.37641882  0.14125665  1
  O  O35  1  0.74425777  0.33513089  0.14569660  1
  O  O36  1  0.21774142  0.29372858  0.03941714  1
  O  O37  1  0.72871602  0.27575038  0.04055327  1
  O  O38  1  0.42193441  0.56699379  0.04602354  1
  O  O39  1  0.91877035  0.55417390  0.03863163  1
  O  O40  1  0.35543493  0.13840162  0.04059968  1
  O  O41  1  0.86412514  0.18537917  0.04198778  1
  O  O42  1  0.23496523  0.15784131  0.51753768  1
  O  O43  1  0.73019088  0.13463904  0.52420924  1
  O  O44  1  0.34849802  0.53275982  0.51956089  1
  O  O45  1  0.83819105  0.54785811  0.52273712  1
  O  O46  1  0.42473204  0.30904514  0.51718199  1
  O  O47  1  0.93206980  0.32577861  0.52555964  1
  O  O48  1  0.26364992  0.68404151  0.98165604  1
  O  O49  1  0.76447210  0.65589711  0.97735384  1
  O  O50  1  0.07116890  0.46214938  0.98270790  1
  O  O51  1  0.55879960  0.47404561  0.98189297  1
  O  O52  1  0.16019444  0.84813163  0.98315397  1
  O  O53  1  0.67255344  0.87426651  0.97773147  1
  O  O54  1  0.28309450  0.87249897  0.46057347  1
  O  O55  1  0.76544813  0.82696435  0.45997961  1
  O  O56  1  0.16114541  0.44739558  0.46135447  1
  O  O57  1  0.64164481  0.45780102  0.45825680  1
  O  O58  1  0.06851892  0.70111779  0.46307093  1
  O  O59  1  0.57566095  0.70311467  0.46187840  1
  O  O60  1  0.07711323  0.65068360  0.34879246  1
  O  O61  1  0.55489162  0.62655242  0.35830419  1
  O  O62  1  0.26579497  0.89784732  0.35639306  1
  O  O63  1  0.75103178  0.85157303  0.35462009  1
  O  O64  1  0.19578094  0.49184952  0.35795253  1
  O  O65  1  0.67304780  0.48396368  0.35356356  1
  O  O66  1  0.05489203  0.48285319  0.87764715  1
  O  O67  1  0.56453383  0.47056550  0.86340764  1
  O  O68  1  0.17668084  0.86655636  0.87705267  1
  O  O69  1  0.69172624  0.90340078  0.87251415  1
  O  O70  1  0.26196919  0.66518356  0.87480655  1
  O  O71  1  0.76530533  0.62172071  0.87221990  1
  O  O72  1  0.01433449  0.85677249  0.39448363  1
  O  O73  1  0.51314790  0.82973128  0.40108075  1
  O  O74  1  0.40828107  0.98708894  0.40022796  1
  O  O75  1  0.89415530  0.96018453  0.40171471  1
  O  O76  1  0.09149217  0.20342683  0.39790985  1
  O  O77  1  0.57431529  0.20205341  0.39996073  1
  O  O78  1  0.00496584  0.20426416  0.92437496  1
  O  O79  1  0.50429403  0.17865980  0.92667947  1
  O  O80  1  0.08411014  0.95671663  0.92643828  1
  O  O81  1  0.60229390  0.99848044  0.92306937  1
  O  O82  1  0.39783498  0.81105218  0.92895405  1
  O  O83  1  0.89903258  0.80078227  0.92504887  1
  O  O84  1  0.49457925  0.19516263  0.57714062  1
  O  O85  1  0.99374846  0.17340122  0.57315395  1
  O  O86  1  0.10150523  0.02899738  0.57116087  1
  O  O87  1  0.60065180  0.99881547  0.58195511  1
  O  O88  1  0.41209788  0.79338771  0.57587938  1
  O  O89  1  0.89573658  0.81215679  0.57634185  1
  O  O90  1  0.47891391  0.80894692  0.10882406  1
  O  O91  1  0.98768364  0.80699785  0.09857824  1
  O  O92  1  0.41461740  0.01720075  0.10512047  1
  O  O93  1  0.92475717  0.04812620  0.09874985  1
  O  O94  1  0.09336160  0.17642997  0.10139869  1
  O  O95  1  0.60023152  0.15070583  0.09994489  1
  O  O96  1  0.34241588  0.15731204  0.75058817  1
  O  O97  1  0.83206313  0.15069837  0.74872848  1
  O  O98  1  0.24128332  0.29916793  0.75176898  1
  O  O99  1  0.72973620  0.29696005  0.74694303  1
  O  O100  1  0.42660737  0.52468242  0.75118969  1
  O  O101  1  0.90528192  0.50025985  0.75258244  1
  O  O102  1  0.33909074  0.53197819  0.24741036  1
  O  O103  1  0.84643939  0.52640166  0.23765281  1
  O  O104  1  0.42044369  0.30747604  0.24121448  1
  O  O105  1  0.92240395  0.31230024  0.24548001  1
  O  O106  1  0.23792592  0.17731029  0.23724868  1
  O  O107  1  0.73249375  0.14859360  0.24817718  1
  O  O108  1  0.30582413  0.49713319  0.93076091  1
  O  O109  1  0.82076294  0.48294185  0.93344580  1
  O  O110  1  0.41655845  0.35233451  0.91683072  1
  O  O111  1  0.92929467  0.36785739  0.93756278  1
  O  O112  1  0.24036181  0.12444583  0.93316087  1
  O  O113  1  0.76139768  0.15582049  0.93259862  1
  O  O114  1  0.33470908  0.15684973  0.41447565  1
  O  O115  1  0.80979903  0.10636035  0.41267626  1
  O  O116  1  0.24980823  0.34066464  0.41456121  1
  O  O117  1  0.73036349  0.34761405  0.41338632  1
  O  O118  1  0.42957762  0.51657369  0.41851364  1
  O  O119  1  0.92427335  0.50445619  0.40126734  1
  O  O120  1  0.16810865  0.48644361  0.08015221  1
  O  O121  1  0.68114542  0.46368780  0.08637401  1
  O  O122  1  0.06855288  0.65972143  0.07645067  1
  O  O123  1  0.55988480  0.65749523  0.09609764  1
  O  O124  1  0.25762790  0.85376271  0.08416878  1
  O  O125  1  0.76902528  0.89500501  0.08301892  1
  O  O126  1  0.18958436  0.88830065  0.57074037  1
  O  O127  1  0.68080874  0.84693529  0.56486503  1
  O  O128  1  0.25627710  0.63198752  0.56424867  1
  O  O129  1  0.73756500  0.62993334  0.56375670  1
  O  O130  1  0.07099012  0.48800581  0.57542222  1
  O  O131  1  0.56845569  0.50630552  0.55858189  1
  O  O132  1  0.16323832  0.86352961  0.25246357  1
  O  O133  1  0.64745584  0.83408924  0.26396189  1
  O  O134  1  0.26526802  0.69782798  0.26506987  1
  O  O135  1  0.76606415  0.68059809  0.25520582  1
  O  O136  1  0.08083284  0.44918951  0.26026539  1
  O  O137  1  0.57771913  0.46599677  0.25832852  1
  O  O138  1  0.17025223  0.47048320  0.75357479  1
  O  O139  1  0.65753409  0.46813322  0.75110593  1
  O  O140  1  0.07834183  0.67456663  0.75020988  1
  O  O141  1  0.58464118  0.70874225  0.75167177  1
  O  O142  1  0.26902669  0.84146841  0.75210320  1
  O  O143  1  0.77202868  0.83891936  0.75383779  1
loop_
_geom_bond_atom_site_label_1
_geom_bond_atom_site_label_2
_geom_bond_distance
_geom_bond_site_symmetry_2
Na0 O72 2.453893 1_555
Na0 O86 2.491057 1_565
Na0 O89 2.664273 1_455
Na0 O85 2.700013 1_465
Na0 O75 2.711796 1_455
Na0 O76 2.784894 1_565
Na1 O79 2.253593 1_554
Na1 O82 2.619298 1_544
Na1 O95 2.632551 1_555
Na1 O92 2.719527 1_555
Na1 O81 2.740079 1_544
Na1 O90 2.972388 1_545
Na2 O110 2.232769 1_555
Na2 O96 2.480276 1_555
Na2 O100 2.493805 1_555
Na2 O98 2.574187 1_555
Na2 O108 2.924109 1_555
Na2 O112 2.945541 1_555
Na3 O101 2.227285 1_555
Na3 O97 2.617403 1_555
Na3 O109 2.682743 1_555
Na3 O99 2.685016 1_555
Na3 O113 2.815853 1_555
Na3 O111 2.827302 1_555
Na4 O116 2.465546 1_555
Na4 O114 2.497028 1_555
Na4 O102 2.578596 1_555
Na4 O118 2.636291 1_555
Na4 O106 2.653570 1_555
Na4 O104 2.653736 1_555
Na5 O119 2.239212 1_555
Na5 O105 2.413035 1_555
Na5 O103 2.519696 1_555
Na5 O107 2.603979 1_555
Na5 O115 2.826372 1_555
Na5 O117 2.878584 1_555
Ga0 O72 1.804038 1_555
Ga0 O5 1.979069 1_465
Ga0 O0 2.018167 1_565
Ga0 O3 2.063869 1_455
Ga0 O76 2.138595 1_565
Ga0 O75 2.279124 1_455
Ga1 O74 1.949660 1_545
Ga1 O77 1.979971 1_555
Ga1 O1 1.979984 1_555
Ga1 O2 2.013878 1_545
Ga1 O73 2.032191 1_545
Ga1 O4 2.049889 1_555
Ga2 O93 1.973688 1_565
Ga2 O94 1.979579 1_665
Ga2 O22 2.003456 1_655
Ga2 O91 2.008183 1_555
Ga2 O20 2.014466 1_665
Ga2 O19 2.030667 1_555
Ga3 O21 1.956867 1_565
Ga3 O90 1.958910 1_555
Ga3 O23 1.989771 1_555
Ga3 O18 2.025061 1_555
Ga3 O92 2.034207 1_565
Ga3 O95 2.153839 1_565
Ga4 O106 1.922705 1_555
Ga4 O30 1.926475 1_555
Ga4 O34 1.941538 1_555
Ga4 O32 1.979889 1_555
Ga4 O104 2.322511 1_555
Ga4 O102 2.330825 1_555
Ga5 O31 1.923470 1_555
Ga5 O33 1.927555 1_555
Ga5 O35 1.973093 1_555
Ga5 O103 2.006088 1_555
Ga5 O105 2.083546 1_555
Ga5 O107 2.445628 1_555
Ga6 O111 1.961877 1_555
Ga6 O109 1.980331 1_555
Ga6 O41 2.010054 1_556
Ga6 O113 2.013301 1_555
Ga6 O39 2.053287 1_556
Ga6 O37 2.053299 1_556
Ga7 O44 1.935587 1_555
Ga7 O46 1.948139 1_555
Ga7 O42 1.956323 1_555
Ga7 O118 2.094243 1_555
Ga7 O116 2.094324 1_555
Ga7 O114 2.113019 1_555
Ga8 O52 1.941048 1_554
Ga8 O50 1.946201 1_554
Ga8 O48 1.956975 1_554
Ga8 O120 2.042594 1_555
Ga8 O122 2.054509 1_555
Ga8 O124 2.187567 1_555
Ga9 O127 1.944752 1_555
Ga9 O131 1.953329 1_555
Ga9 O129 1.956622 1_555
Ga9 O55 1.990233 1_555
Ga9 O59 2.053500 1_555
Ga9 O57 2.068999 1_555
Ga10 O60 1.775435 1_555
Ga10 O134 1.948567 1_555
Ga10 O64 2.020504 1_555
Ga10 O62 2.066232 1_555
Ga10 O136 2.247146 1_555
Ga10 O132 2.369194 1_555
Ga11 O63 1.944134 1_555
Ga11 O65 1.946768 1_555
Ga11 O133 1.995226 1_555
Ga11 O61 2.001762 1_555
Ga11 O137 2.014102 1_555
Ga11 O135 2.254477 1_555
O0 S0 1.493485 1_555
O1 S1 1.502551 1_545
O2 S2 1.499037 1_555
O3 S3 1.486545 1_555
O4 S5 1.488768 1_555
O5 S4 1.515892 1_655
O6 S6 1.476940 1_555
O6 Y0 2.281351 1_445
O7 S7 1.478334 1_555
O7 Y1 2.210793 1_555
O8 S8 1.475368 1_555
O8 Y1 2.284783 1_565
O9 Si0 1.629757 1_555
O9 Y0 2.035315 1_555
O10 S9 1.475203 1_555
O10 Y1 2.215023 1_555
O11 S10 1.488871 1_555
O11 Y0 2.259902 1_545
O12 S9 1.483969 1_555
O12 Y3 2.251648 1_545
O13 S10 1.479738 1_555
O13 Y2 2.204367 1_545
O14 S6 1.478225 1_555
O14 Y2 2.254571 1_445
O15 S7 1.485631 1_555
O15 Y3 2.197672 1_545
O16 Si0 1.633351 1_555
O16 Y2 2.037856 1_555
O17 S8 1.483277 1_555
O17 Y3 2.249816 1_555
O18 S2 1.490850 1_555
O19 S3 1.495366 1_555
O20 S4 1.481662 1_555
O21 S5 1.508582 1_555
O22 S0 1.492689 1_565
O23 S1 1.500094 1_555
O24 S11 1.480192 1_555
O24 Y4 2.241425 1_555
O25 S12 1.474987 1_555
O25 Y5 2.247301 1_555
O26 S13 1.475147 1_555
O26 Y4 2.210750 1_555
O27 S14 1.472359 1_555
O27 Y5 2.369689 1_555
O28 S15 1.480224 1_555
O28 Y4 2.198583 1_555
O29 S16 1.474157 1_555
O29 Y5 2.296902 1_555
O30 S17 1.507749 1_555
O31 S18 1.512179 1_555
O32 S19 1.508924 1_555
O33 S20 1.511252 1_555
O34 S21 1.522202 1_555
O35 S22 1.494772 1_555
O36 S21 1.464363 1_555
O36 Y6 2.341021 1_554
O37 S22 1.497207 1_555
O38 S17 1.470217 1_555
O38 Y6 2.272235 1_554
O39 S18 1.489537 1_555
O40 S19 1.476831 1_555
O40 Y6 2.255966 1_554
O41 S20 1.493416 1_555
O42 S13 1.507686 1_555
O43 S14 1.474703 1_555
O43 Y7 2.273926 1_555
O44 S15 1.506068 1_555
O45 S16 1.482713 1_555
O45 Y7 2.198378 1_555
O46 S11 1.499149 1_555
O47 S12 1.488109 1_555
O47 Y7 2.187841 1_555
O48 S23 1.505332 1_555
O49 S24 1.470900 1_555
O49 Y8 2.235697 1_556
O50 S25 1.496480 1_555
O51 Si1 1.638053 1_555
O51 Y8 2.058401 1_556
O52 S26 1.505621 1_555
O53 S27 1.468900 1_555
O53 Y8 2.240309 1_556
O54 S28 1.462859 1_555
O54 Y9 2.301403 1_555
O55 S29 1.495094 1_555
O56 S30 1.464640 1_555
O56 Y9 2.284320 1_555
O57 S31 1.481602 1_555
O58 Si2 1.621923 1_555
O58 Y9 2.080283 1_555
O59 S32 1.479753 1_555
O60 Si2 1.644140 1_555
O61 S32 1.502895 1_555
O62 S28 1.492207 1_555
O63 S29 1.500313 1_555
O64 S30 1.499500 1_555
O65 S31 1.503383 1_555
O66 S25 1.473083 1_555
O66 Y10 2.303289 1_555
O67 Si1 1.617469 1_555
O67 Y11 2.060898 1_555
O68 S26 1.469806 1_555
O68 Y10 2.266015 1_555
O69 S27 1.476683 1_555
O69 Y11 2.329218 1_555
O70 S23 1.460142 1_555
O70 Y10 2.352193 1_555
O71 S24 1.479720 1_555
O71 Y11 2.306303 1_555
O72 Si2 1.658300 1_555
O73 S32 1.482569 1_555
O74 S28 1.487290 1_555
O75 S29 1.476819 1_555
O76 S30 1.481213 1_555
O77 S31 1.486288 1_555
O78 S25 1.459942 1_555
O78 Y0 2.378364 1_445
O79 Si1 1.637069 1_555
O79 Y1 2.099580 1_555
O80 S26 1.465279 1_555
O80 Y0 2.290475 1_455
O81 S27 1.483674 1_555
O81 Y1 2.308742 1_565
O82 S23 1.488530 1_555
O82 Y1 2.350478 1_565
O83 S24 1.465486 1_555
O83 Y0 2.287833 1_555
O84 S11 1.469590 1_555
O84 Y3 2.277805 1_545
O85 S12 1.478048 1_555
O85 Y2 2.360925 1_545
O86 S13 1.481190 1_555
O86 Y2 2.400608 1_445
O87 S14 1.482092 1_565
O87 Y3 2.206261 1_555
O88 S15 1.473742 1_555
O88 Y3 2.237786 1_555
O89 S16 1.483533 1_555
O89 Y2 2.355374 1_555
O90 S17 1.495929 1_555
O91 S18 1.483920 1_555
O92 S19 1.505657 1_555
O93 S20 1.486306 1_555
O94 S21 1.478707 1_555
O95 S22 1.505838 1_555
O96 S9 1.493849 1_555
O96 Y4 2.263163 1_555
O97 S10 1.479207 1_555
O97 Y5 2.298105 1_555
O98 S6 1.498927 1_555
O98 Y4 2.253382 1_555
O99 S7 1.474063 1_555
O99 Y5 2.280081 1_555
O100 S8 1.500124 1_555
O100 Y4 2.246586 1_555
O101 Si0 1.629922 1_555
O101 Y5 2.079675 1_555
O102 S2 1.486056 1_555
O103 S3 1.533134 1_555
O104 S5 1.484673 1_555
O105 S4 1.527768 1_655
O106 S0 1.540320 1_555
O107 S1 1.475056 1_545
O108 S23 1.477364 1_555
O108 Y6 2.238732 1_555
O109 S24 1.512779 1_555
O110 Si1 1.635799 1_555
O110 Y6 2.077561 1_555
O111 S25 1.504227 1_655
O112 S26 1.475379 1_545
O112 Y6 2.211186 1_555
O113 S27 1.503145 1_545
O114 S28 1.511903 1_545
O115 S29 1.478675 1_545
O115 Y7 2.298862 1_555
O116 S30 1.515678 1_555
O117 S31 1.470844 1_555
O117 Y7 2.303453 1_555
O118 S32 1.501379 1_555
O119 Si2 1.638839 1_655
O119 Y7 2.154684 1_555
O120 S21 1.487774 1_555
O121 S22 1.465269 1_555
O121 Y8 2.273461 1_555
O122 S18 1.476029 1_455
O123 S17 1.461445 1_555
O123 Y8 2.318491 1_555
O124 S19 1.471790 1_565
O125 S20 1.456528 1_565
O125 Y8 2.354953 1_555
O126 S13 1.464662 1_565
O126 Y9 2.222655 1_555
O127 S14 1.494820 1_565
O128 S15 1.451720 1_555
O128 Y9 2.265226 1_555
O129 S16 1.486984 1_555
O130 S12 1.472428 1_455
O130 Y9 2.213319 1_555
O131 S11 1.475150 1_555
O132 S0 1.452756 1_565
O133 S1 1.494628 1_555
O134 S2 1.495569 1_555
O135 S3 1.472576 1_555
O136 S4 1.460180 1_555
O137 S5 1.492686 1_555
O138 S6 1.465800 1_555
O138 Y10 2.249055 1_555
O139 S7 1.468411 1_555
O139 Y11 2.250646 1_555
O140 Si0 1.613272 1_455
O140 Y10 2.024375 1_555
O141 S8 1.466956 1_555
O141 Y11 2.290172 1_555
O142 S9 1.458356 1_565
O142 Y10 2.271954 1_555
O143 S10 1.467699 1_565
O143 Y11 2.269538 1_555
