# generated using pymatgen
data_Na4FeO5
_symmetry_space_group_name_H-M   'P 1'
_cell_length_a   4.87178031
_cell_length_b   7.25375496
_cell_length_c   14.50775483
_cell_angle_alpha   89.99889097
_cell_angle_beta   90.00141872
_cell_angle_gamma   90.00209863
_symmetry_Int_Tables_number   1
_chemical_formula_structural   Na4FeO5
_chemical_formula_sum   'Na16 Fe4 O20'
_cell_volume   512.68520404
_cell_formula_units_Z   4
loop_
 _symmetry_equiv_pos_site_id
 _symmetry_equiv_pos_as_xyz
  1  'x, y, z'
loop_
 _atom_site_type_symbol
 _atom_site_label
 _atom_site_symmetry_multiplicity
 _atom_site_fract_x
 _atom_site_fract_y
 _atom_site_fract_z
 _atom_site_occupancy
  Na  Na0  1  0.50251585  0.29380402  0.04870138  1
  Na  Na1  1  0.50271062  0.29364023  0.54836375  1
  Na  Na2  1  0.99743289  0.79371616  0.29858296  1
  Na  Na3  1  0.99744216  0.79427263  0.79859752  1
  Na  Na4  1  0.99749468  0.40248669  0.89695619  1
  Na  Na5  1  0.99745053  0.40268390  0.39677685  1
  Na  Na6  1  0.50263377  0.90243141  0.14700257  1
  Na  Na7  1  0.50274723  0.90282141  0.64684991  1
  Na  Na8  1  0.99736976  0.59742377  0.10313305  1
  Na  Na9  1  0.99736650  0.59746646  0.60286370  1
  Na  Na10  1  0.50246166  0.09705459  0.35313248  1
  Na  Na11  1  0.50256085  0.09655875  0.85324089  1
  Na  Na12  1  0.50267828  0.70629031  0.95147683  1
  Na  Na13  1  0.50241158  0.70615763  0.45140105  1
  Na  Na14  1  0.99735592  0.20627347  0.20128438  1
  Na  Na15  1  0.99751523  0.20617021  0.70108520  1
  Fe  Fe0  1  0.05005896  0.00003218  0.50014920  1
  Fe  Fe1  1  0.44972514  0.50073103  0.74995588  1
  Fe  Fe2  1  0.05019728  0.00009642  0.00032360  1
  Fe  Fe3  1  0.44985724  0.50009101  0.24983538  1
  O  O0  1  0.41390421  0.00005404  0.00025976  1
  O  O1  1  0.41422213  0.99994797  0.49999782  1
  O  O2  1  0.08590768  0.50001885  0.24994308  1
  O  O3  1  0.08523029  0.50030588  0.74997698  1
  O  O4  1  0.99139694  0.24059371  0.03565563  1
  O  O5  1  0.99143813  0.24063142  0.53552944  1
  O  O6  1  0.50866733  0.74033938  0.28573140  1
  O  O7  1  0.50875164  0.74187964  0.78598820  1
  O  O8  1  0.50882575  0.42797946  0.87057634  1
  O  O9  1  0.50875250  0.42863683  0.37008992  1
  O  O10  1  0.99153322  0.92854971  0.12041234  1
  O  O11  1  0.99146022  0.92840010  0.62027363  1
  O  O12  1  0.50843414  0.57127693  0.12964312  1
  O  O13  1  0.50890424  0.57131441  0.62908241  1
  O  O14  1  0.99109233  0.07111621  0.37978433  1
  O  O15  1  0.99138746  0.07100558  0.88000192  1
  O  O16  1  0.99149350  0.75977996  0.96442444  1
  O  O17  1  0.99108960  0.75968667  0.46416685  1
  O  O18  1  0.50853711  0.25943010  0.21447209  1
  O  O19  1  0.50898448  0.25885484  0.71428054  1
loop_
_geom_bond_atom_site_label_1
_geom_bond_atom_site_label_2
_geom_bond_distance
_geom_bond_site_symmetry_2
Na0 O0 2.284842 1_555
Na0 O12 2.330429 1_555
Na0 O18 2.418024 1_555
Na0 O4 2.420224 1_555
Na0 O4 2.526876 1_455
Na0 O8 2.761553 1_554
Na1 O1 2.284001 1_545
Na1 O13 2.330079 1_555
Na1 O5 2.419017 1_555
Na1 O19 2.420457 1_555
Na1 O5 2.527162 1_455
Na1 O9 2.765662 1_555
Na2 O2 2.285283 1_655
Na2 O14 2.331903 1_565
Na2 O17 2.415093 1_555
Na2 O6 2.419608 1_555
Na2 O6 2.527443 1_655
Na2 O10 2.763835 1_555
Na3 O3 2.286390 1_655
Na3 O15 2.329202 1_565
Na3 O7 2.417848 1_555
Na3 O16 2.418921 1_555
Na3 O7 2.526462 1_655
Na3 O11 2.764112 1_555
Na4 O3 2.287574 1_655
Na4 O4 2.329993 1_556
Na4 O15 2.417217 1_555
Na4 O8 2.418330 1_555
Na4 O8 2.527097 1_655
Na4 O16 2.770566 1_555
Na5 O2 2.285180 1_655
Na5 O5 2.331237 1_555
Na5 O14 2.417914 1_555
Na5 O9 2.419436 1_555
Na5 O9 2.527882 1_655
Na5 O17 2.768213 1_555
Na6 O0 2.284837 1_565
Na6 O6 2.331085 1_555
Na6 O12 2.415451 1_555
Na6 O10 2.420277 1_555
Na6 O10 2.526785 1_455
Na6 O18 2.768566 1_565
Na7 O1 2.285014 1_555
Na7 O7 2.332026 1_555
Na7 O13 2.418639 1_555
Na7 O11 2.419047 1_555
Na7 O11 2.527358 1_455
Na7 O19 2.761836 1_565
Na8 O2 2.285080 1_655
Na8 O16 2.331789 1_554
Na8 O10 2.415126 1_555
Na8 O12 2.420281 1_555
Na8 O12 2.526449 1_655
Na8 O4 2.767466 1_555
Na9 O3 2.288018 1_655
Na9 O17 2.331169 1_555
Na9 O11 2.413940 1_555
Na9 O13 2.417346 1_555
Na9 O13 2.528085 1_655
Na9 O5 2.766764 1_555
Na10 O1 2.284896 1_545
Na10 O18 2.331269 1_555
Na10 O9 2.417963 1_555
Na10 O14 2.419024 1_555
Na10 O14 2.528119 1_455
Na10 O6 2.766310 1_545
Na11 O0 2.286016 1_556
Na11 O19 2.334756 1_555
Na11 O8 2.417360 1_555
Na11 O15 2.420001 1_555
Na11 O15 2.527215 1_455
Na11 O7 2.751735 1_545
Na12 O0 2.286649 1_566
Na12 O8 2.335397 1_555
Na12 O7 2.414885 1_555
Na12 O16 2.420085 1_555
Na12 O16 2.527433 1_455
Na12 O12 2.764231 1_556
Na13 O1 2.285457 1_555
Na13 O9 2.333463 1_555
Na13 O6 2.416438 1_555
Na13 O17 2.419269 1_555
Na13 O17 2.527941 1_455
Na13 O13 2.757255 1_555
Na14 O2 2.285727 1_655
Na14 O10 2.331486 1_545
Na14 O4 2.415932 1_555
Na14 O18 2.420026 1_555
Na14 O18 2.527270 1_655
Na14 O14 2.769154 1_555
Na15 O3 2.288647 1_655
Na15 O11 2.331350 1_545
Na15 O5 2.414991 1_555
Na15 O19 2.418110 1_555
Na15 O19 2.528142 1_655
Na15 O15 2.774821 1_555
Fe0 O1 1.774125 1_545
Fe0 O11 1.840813 1_445
Fe0 O5 1.841465 1_455
Fe0 O17 1.842417 1_445
Fe0 O14 1.843270 1_455
Fe1 O3 1.775741 1_555
Fe1 O7 1.848179 1_555
Fe1 O13 1.849422 1_555
Fe1 O8 1.850298 1_555
Fe1 O19 1.851921 1_555
Fe2 O0 1.771901 1_555
Fe2 O10 1.840197 1_445
Fe2 O4 1.840705 1_455
Fe2 O16 1.841675 1_444
Fe2 O15 1.842203 1_454
Fe3 O2 1.773083 1_555
Fe3 O12 1.840818 1_555
Fe3 O6 1.841275 1_555
Fe3 O18 1.841865 1_555
Fe3 O9 1.842453 1_555
