# generated using pymatgen
data_Tb4Mg(WO6)2
_symmetry_space_group_name_H-M   'P 1'
_cell_length_a   5.70576055
_cell_length_b   5.34041013
_cell_length_c   8.48181757
_cell_angle_alpha   91.63248674
_cell_angle_beta   92.30817405
_cell_angle_gamma   90.31145111
_symmetry_Int_Tables_number   1
_chemical_formula_structural   Tb4Mg(WO6)2
_chemical_formula_sum   'Tb4 Mg1 W2 O12'
_cell_volume   258.13021106
_cell_formula_units_Z   1
loop_
 _symmetry_equiv_pos_site_id
 _symmetry_equiv_pos_as_xyz
  1  'x, y, z'
loop_
 _atom_site_type_symbol
 _atom_site_label
 _atom_site_symmetry_multiplicity
 _atom_site_fract_x
 _atom_site_fract_y
 _atom_site_fract_z
 _atom_site_occupancy
  Tb  Tb0  1  0.20752900  0.51286300  0.33336800  1
  Tb  Tb1  1  0.22393100  0.05207700  0.61031600  1
  Tb  Tb2  1  0.73148500  0.96361100  0.36506700  1
  Tb  Tb3  1  0.75460800  0.46703600  0.63005600  1
  Mg  Mg0  1  0.62455900  0.96221000  0.82306900  1
  W  W0  1  0.05522700  0.98307400  0.00105700  1
  W  W1  1  0.53432700  0.47324500  0.00929800  1
  O  O0  1  0.05193800  0.85683700  0.21498700  1
  O  O1  1  0.33648300  0.78837100  0.92173900  1
  O  O2  1  0.97486300  0.25438700  0.45487100  1
  O  O3  1  0.54753100  0.81721900  0.59206800  1
  O  O4  1  0.25259200  0.30998600  0.08037300  1
  O  O5  1  0.47299700  0.30243300  0.80247300  1
  O  O6  1  0.55048500  0.64699500  0.20677100  1
  O  O7  1  0.79221400  0.66829600  0.91607800  1
  O  O8  1  0.47975700  0.27789000  0.45897700  1
  O  O9  1  0.73421500  0.20013200  0.07032600  1
  O  O10  1  0.00492800  0.73706100  0.51547900  1
  O  O11  1  0.94587700  0.13137900  0.78857400  1
loop_
_geom_bond_atom_site_label_1
_geom_bond_atom_site_label_2
_geom_bond_distance
_geom_bond_site_symmetry_2
Mg0 O7 2.006794 1_555
Mg0 O5 2.025485 1_565
Mg0 O11 2.074434 1_565
Mg0 O1 2.098210 1_555
Mg0 O3 2.114736 1_555
Mg0 O9 2.477485 1_566
O0 W0 1.954382 1_555
O0 Tb0 2.285118 1_555
O0 Tb2 2.333700 1_455
O1 W0 2.043121 1_556
O1 W1 2.163872 1_556
O2 Tb2 2.178050 1_545
O2 Tb1 2.207295 1_655
O2 Tb0 2.213858 1_655
O2 Tb3 2.268625 1_555
O3 Tb3 2.241624 1_555
O3 Tb1 2.245738 1_565
O3 Tb2 2.378985 1_555
O4 W1 1.949473 1_555
O4 W0 2.149274 1_545
O4 Tb0 2.399932 1_555
O5 W1 1.971771 1_556
O5 Tb3 2.395903 1_555
O5 Tb1 2.476315 1_555
O6 W1 1.890228 1_555
O6 Tb2 2.338422 1_555
O6 Tb0 2.386022 1_555
O7 W1 1.999831 1_556
O7 W0 2.326780 1_656
O7 Tb3 2.625579 1_555
O8 Tb0 2.255310 1_555
O8 Tb3 2.302442 1_555
O8 Tb1 2.335089 1_555
O8 Tb2 2.357235 1_545
O9 W1 1.926028 1_555
O9 W0 2.261563 1_645
O9 Tb2 2.833417 1_545
O10 Tb1 2.204031 1_565
O10 Tb0 2.282380 1_555
O10 Tb3 2.287604 1_455
O10 Tb2 2.339600 1_455
O11 W0 2.064162 1_646
O11 Tb1 2.268568 1_655
O11 Tb3 2.500473 1_555
