# generated using pymatgen
data_Na5Y2Nb2Si3(PO8)3
_symmetry_space_group_name_H-M   'P 1'
_cell_length_a   9.19031108
_cell_length_b   9.21632375
_cell_length_c   22.75994113
_cell_angle_alpha   90.54923197
_cell_angle_beta   89.63960846
_cell_angle_gamma   119.58373911
_symmetry_Int_Tables_number   1
_chemical_formula_structural   Na5Y2Nb2Si3(PO8)3
_chemical_formula_sum   'Na15 Y6 Nb6 Si9 P9 O72'
_cell_volume   1676.39156743
_cell_formula_units_Z   3
loop_
 _symmetry_equiv_pos_site_id
 _symmetry_equiv_pos_as_xyz
  1  'x, y, z'
loop_
 _atom_site_type_symbol
 _atom_site_label
 _atom_site_symmetry_multiplicity
 _atom_site_fract_x
 _atom_site_fract_y
 _atom_site_fract_z
 _atom_site_occupancy
  Na  Na0  1  0.99148235  0.63302333  0.24412238  1
  Na  Na1  1  0.36215758  0.01004556  0.74459636  1
  Na  Na2  1  0.03768504  0.69390015  0.57914102  1
  Na  Na3  1  0.64921539  0.96919077  0.58118578  1
  Na  Na4  1  0.30270081  0.95991517  0.07892881  1
  Na  Na5  1  0.02835152  0.35219881  0.08356921  1
  Na  Na6  1  0.98401179  0.68006343  0.91581614  1
  Na  Na7  1  0.97387270  0.30340020  0.41101403  1
  Na  Na8  1  0.32248209  0.01886761  0.41587578  1
  Na  Na9  1  0.98722191  0.98806309  0.49561309  1
  Na  Na10  1  0.99527528  0.00278812  0.99537776  1
  Na  Na11  1  0.67440807  0.32404125  0.83147830  1
  Na  Na12  1  0.66469745  0.32919465  0.32951195  1
  Na  Na13  1  0.35381364  0.65752052  0.16517318  1
  Na  Na14  1  0.33885646  0.64199086  0.66399043  1
  Y  Y0  1  0.98846490  0.99539493  0.35069153  1
  Y  Y1  1  0.99812903  0.01002120  0.85294834  1
  Y  Y2  1  0.67023964  0.33849998  0.68747196  1
  Y  Y3  1  0.66269125  0.32928154  0.18648812  1
  Y  Y4  1  0.33993631  0.66500294  0.01738716  1
  Y  Y5  1  0.34025408  0.66467218  0.51787394  1
  Nb  Nb0  1  0.99763527  0.00048034  0.64758440  1
  Nb  Nb1  1  0.99923759  0.00176417  0.14793824  1
  Nb  Nb2  1  0.65627224  0.33155061  0.98081813  1
  Nb  Nb3  1  0.66303933  0.33797322  0.48083542  1
  Nb  Nb4  1  0.33393644  0.66502265  0.31508964  1
  Nb  Nb5  1  0.34372504  0.67204408  0.81454342  1
  Si  Si0  1  0.01181328  0.30630633  0.25319601  1
  Si  Si1  1  0.69679273  0.99103272  0.75070107  1
  Si  Si2  1  0.36670794  0.04414604  0.58512252  1
  Si  Si3  1  0.67468920  0.63508814  0.58579904  1
  Si  Si4  1  0.95466118  0.63168904  0.08418271  1
  Si  Si5  1  0.36309500  0.32510499  0.08564762  1
  Si  Si6  1  0.34316974  0.96826730  0.91957936  1
  Si  Si7  1  0.62724402  0.97022157  0.41936177  1
  Si  Si8  1  0.03205217  0.65930075  0.41936800  1
  P  P0  1  0.28931739  0.98713427  0.25142476  1
  P  P1  1  0.69952971  0.71269913  0.24850184  1
  P  P2  1  0.28399238  0.29773507  0.75003609  1
  P  P3  1  0.01386055  0.71264705  0.75191378  1
  P  P4  1  0.95380894  0.32146696  0.58142111  1
  P  P5  1  0.67823656  0.04721616  0.08167355  1
  P  P6  1  0.62486288  0.65209162  0.91537824  1
  P  P7  1  0.03293862  0.38052622  0.91771709  1
  P  P8  1  0.34525601  0.37765132  0.41427414  1
  O  O0  1  0.20974935  0.00348243  0.30777910  1
  O  O1  1  0.80543604  0.78509049  0.30311161  1
  O  O2  1  0.99438055  0.20963632  0.31261047  1
  O  O3  1  0.21093497  0.18970960  0.80370703  1
  O  O4  1  0.99913447  0.79451569  0.80797830  1
  O  O5  1  0.80396306  0.01043311  0.80676210  1
  O  O6  1  0.80168486  0.97571326  0.69084190  1
  O  O7  1  0.16644875  0.19824902  0.69569457  1
  O  O8  1  0.03348639  0.83167015  0.69741169  1
  O  O9  1  0.80070901  0.83010496  0.19503304  1
  O  O10  1  0.02123490  0.19122761  0.19477290  1
  O  O11  1  0.16905502  0.96787033  0.19733909  1
  O  O12  1  0.87371220  0.34944077  0.63523182  1
  O  O13  1  0.48208024  0.11789576  0.64179965  1
  O  O14  1  0.65979260  0.52961443  0.64155358  1
  O  O15  1  0.88362055  0.51721482  0.14119371  1
  O  O16  1  0.64750458  0.12051832  0.13690866  1
  O  O17  1  0.47082659  0.34444740  0.14147681  1
  O  O18  1  0.46921717  0.30233282  0.02680324  1
  O  O19  1  0.83091681  0.52540728  0.02590962  1
  O  O20  1  0.70191136  0.16697462  0.02841679  1
  O  O21  1  0.47446515  0.16861591  0.52679983  1
  O  O22  1  0.69578719  0.52941203  0.52674563  1
  O  O23  1  0.83844475  0.29826312  0.52595993  1
  O  O24  1  0.55099541  0.67807029  0.97100428  1
  O  O25  1  0.12325508  0.45449381  0.97566264  1
  O  O26  1  0.31730117  0.86439641  0.97815404  1
  O  O27  1  0.55123662  0.87359285  0.47934009  1
  O  O28  1  0.30509665  0.44650939  0.46862648  1
  O  O29  1  0.13420234  0.67887857  0.47805486  1
  O  O30  1  0.14202993  0.63541396  0.36135192  1
  O  O31  1  0.49714561  0.85381785  0.36320390  1
  O  O32  1  0.36435938  0.49314916  0.36050171  1
  O  O33  1  0.14087460  0.49993679  0.86577771  1
  O  O34  1  0.36191117  0.85486375  0.86157247  1
  O  O35  1  0.50926757  0.63644465  0.86133721  1
  O  O36  1  0.02165234  0.82704077  0.41222571  1
  O  O37  1  0.82036515  0.01559119  0.41499527  1
  O  O38  1  0.20260181  0.19811377  0.40640184  1
  O  O39  1  0.00312989  0.20333818  0.91289159  1
  O  O40  1  0.17682757  0.98233788  0.91193983  1
  O  O41  1  0.80525550  0.79346276  0.90898793  1
  O  O42  1  0.95646624  0.15255844  0.58626134  1
  O  O43  1  0.18177918  0.03546282  0.59196025  1
  O  O44  1  0.85746327  0.81751448  0.58969870  1
  O  O45  1  0.96524618  0.81726597  0.09236959  1
  O  O46  1  0.84810870  0.04509715  0.08642374  1
  O  O47  1  0.18134853  0.14233203  0.09047318  1
  O  O48  1  0.64844724  0.13642723  0.74823848  1
  O  O49  1  0.45835204  0.31930182  0.74216988  1
  O  O50  1  0.86898888  0.53663484  0.74584528  1
  O  O51  1  0.67963562  0.53922747  0.24146304  1
  O  O52  1  0.86049609  0.34729197  0.24893318  1
  O  O53  1  0.46540906  0.13180278  0.24516121  1
  O  O54  1  0.63105379  0.48455696  0.91915555  1
  O  O55  1  0.86286127  0.38280895  0.91794227  1
  O  O56  1  0.51927600  0.15123308  0.92398938  1
  O  O57  1  0.62305506  0.15016882  0.42045979  1
  O  O58  1  0.51159673  0.37164253  0.42033035  1
  O  O59  1  0.85136314  0.48067944  0.42240610  1
  O  O60  1  0.31613509  0.47007923  0.07960403  1
  O  O61  1  0.14621243  0.66916720  0.07741289  1
  O  O62  1  0.52935608  0.87252263  0.07421409  1
  O  O63  1  0.32874612  0.85330409  0.57830502  1
  O  O64  1  0.52699139  0.67926305  0.58196167  1
  O  O65  1  0.12872788  0.47079693  0.57522888  1
  O  O66  1  0.28980565  0.81590040  0.25327664  1
  O  O67  1  0.52831061  0.70711312  0.25338598  1
  O  O68  1  0.19096931  0.49094958  0.25579660  1
  O  O69  1  0.29046502  0.46947712  0.75560001  1
  O  O70  1  0.18492718  0.71003301  0.75388109  1
  O  O71  1  0.51124735  0.80859152  0.75715102  1
loop_
_geom_bond_atom_site_label_1
_geom_bond_atom_site_label_2
_geom_bond_distance
_geom_bond_site_symmetry_2
Na0 O52 2.295571 1_555
Na0 O66 2.416348 1_655
Na0 O51 2.553359 1_555
Na0 O15 2.558601 1_555
Na0 O68 2.743974 1_655
Na0 O11 2.896400 1_655
Na0 O1 2.998566 1_555
Na0 O30 3.008147 1_655
Na1 O48 2.293713 1_555
Na1 O70 2.429599 1_545
Na1 O49 2.534307 1_555
Na1 O13 2.570428 1_555
Na1 O71 2.816601 1_545
Na1 O8 2.843189 1_545
Na1 O3 2.947762 1_555
Na1 O34 3.033716 1_545
Na2 O63 2.331014 1_555
Na2 O44 2.439652 1_455
Na2 O29 2.487718 1_555
Na2 O65 2.574925 1_555
Na3 O64 2.332175 1_555
Na3 O42 2.476150 1_565
Na3 O27 2.482735 1_555
Na3 O63 2.591221 1_555
Na3 O6 2.855502 1_555
Na3 O13 2.855972 1_565
Na3 O44 2.882019 1_555
Na3 O23 2.939411 1_565
Na4 O61 2.333156 1_555
Na4 O47 2.445103 1_565
Na4 O26 2.475433 1_554
Na4 O62 2.579030 1_555
Na4 O45 2.722141 1_455
Na4 O11 2.969939 1_555
Na4 O18 2.998173 1_565
Na4 O16 3.059051 1_565
Na5 O60 2.311980 1_555
Na5 O46 2.476267 1_455
Na5 O61 2.570675 1_555
Na5 O25 2.624264 1_554
Na5 O15 2.781997 1_455
Na5 O47 2.904631 1_555
Na5 O20 2.905137 1_455
Na5 O10 2.930058 1_555
Na6 O41 2.348819 1_555
Na6 O55 2.395294 1_555
Na6 O40 2.457084 1_655
Na6 O4 2.656420 1_555
Na6 O54 2.828964 1_555
Na6 O19 2.886842 1_556
Na6 O33 2.904720 1_655
Na6 O26 3.025182 1_655
Na7 O37 2.311389 1_555
Na7 O59 2.410180 1_555
Na7 O2 2.432441 1_555
Na7 O38 2.716748 1_655
Na7 O57 2.817250 1_555
Na7 O23 2.880775 1_555
Na7 O30 2.899008 1_655
Na7 O28 2.962770 1_655
Na8 O38 2.407555 1_555
Na8 O57 2.409663 1_555
Na8 O36 2.439269 1_545
Na8 O0 2.650807 1_555
Na8 O58 2.831645 1_555
Na8 O21 2.881597 1_555
Na8 O31 2.946110 1_545
Na9 O37 2.492198 1_565
Na9 O36 2.511292 1_655
Na9 O44 2.580674 1_555
Na9 O42 2.643988 1_565
Na9 O43 2.730613 1_665
Na9 O38 2.833661 1_665
Na10 O40 2.586434 1_645
Na10 O46 2.597177 1_556
Na10 O39 2.622820 1_655
Na10 O47 2.661666 1_656
Na10 O41 2.698427 1_545
Na10 O45 2.733431 1_546
Na11 O48 2.484260 1_555
Na11 O55 2.502376 1_555
Na11 O56 2.605192 1_555
Na11 O54 2.616260 1_555
Na11 O50 2.721253 1_555
Na11 O49 2.835440 1_555
Na12 O52 2.509438 1_555
Na12 O57 2.566247 1_555
Na12 O58 2.626180 1_555
Na12 O59 2.643190 1_555
Na12 O53 2.652753 1_555
Na12 O51 2.755064 1_555
Na13 O67 2.472004 1_555
Na13 O60 2.500101 1_555
Na13 O68 2.569846 1_555
Na13 O66 2.697134 1_555
Na13 O62 2.774013 1_555
Na13 O61 2.809916 1_555
Na14 O64 2.445060 1_555
Na14 O69 2.535105 1_555
Na14 O71 2.634645 1_555
Na14 O65 2.698040 1_555
Na14 O70 2.719408 1_555
Na14 O63 2.803309 1_555
Nb0 O6 1.959741 1_545
Nb0 O43 2.003210 1_655
Nb0 O44 2.018076 1_545
Nb0 O7 2.029572 1_655
Nb0 O8 2.088033 1_645
Nb0 O42 2.150211 1_555
Nb1 O10 1.960781 1_655
Nb1 O45 2.006925 1_545
Nb1 O47 2.013488 1_655
Nb1 O9 2.034345 1_545
Nb1 O11 2.075488 1_645
Nb1 O46 2.152131 1_555
Nb2 O18 1.910208 1_556
Nb2 O56 1.983233 1_555
Nb2 O19 1.993889 1_556
Nb2 O20 2.077400 1_556
Nb2 O54 2.092039 1_555
Nb2 O55 2.229123 1_555
Nb3 O22 1.933829 1_555
Nb3 O21 1.967671 1_555
Nb3 O59 2.061741 1_555
Nb3 O57 2.086131 1_555
Nb3 O58 2.094884 1_555
Nb3 O23 2.097128 1_555
Nb4 O30 1.949519 1_555
Nb4 O31 1.970726 1_555
Nb4 O68 2.005195 1_555
Nb4 O32 2.031741 1_555
Nb4 O67 2.146737 1_555
Nb4 O66 2.163073 1_555
Nb5 O34 1.924118 1_555
Nb5 O71 1.937387 1_555
Nb5 O35 2.019032 1_555
Nb5 O33 2.107028 1_555
Nb5 O69 2.140723 1_555
Nb5 O70 2.167447 1_555
O0 P0 1.515202 1_545
O0 Y0 2.218565 1_445
O1 P1 1.515071 1_555
O1 Y0 2.126591 1_555
O2 Si0 1.589815 1_655
O2 Y0 2.139885 1_545
O3 P2 1.512336 1_555
O3 Y1 2.152569 1_455
O4 P3 1.515278 1_655
O4 Y1 2.229700 1_565
O5 Si1 1.570873 1_545
O5 Y1 2.078374 1_555
O6 Si1 1.708655 1_555
O7 P2 1.598259 1_555
O8 P3 1.613229 1_555
O9 P1 1.591848 1_555
O10 Si0 1.721246 1_555
O11 P0 1.608600 1_555
O12 P4 1.509399 1_555
O12 Y2 2.169979 1_555
O13 Si2 1.593441 1_555
O13 Y2 2.171447 1_555
O14 Si3 1.569722 1_555
O14 Y2 2.099385 1_555
O15 Si4 1.599528 1_555
O15 Y3 2.172738 1_555
O16 P5 1.511373 1_555
O16 Y3 2.165622 1_555
O17 Si5 1.569669 1_555
O17 Y3 2.108810 1_555
O18 Si5 1.723151 1_555
O19 Si4 1.704702 1_555
O20 P5 1.587455 1_555
O21 Si2 1.717462 1_555
O22 Si3 1.717769 1_555
O23 P4 1.597184 1_555
O24 P6 1.504965 1_555
O24 Y4 2.153462 1_556
O25 P7 1.526711 1_555
O25 Y4 2.192062 1_556
O26 Si6 1.595626 1_555
O26 Y4 2.151494 1_556
O27 Si7 1.594247 1_555
O27 Y5 2.135631 1_555
O28 P8 1.509881 1_555
O28 Y5 2.173333 1_555
O29 Si8 1.594335 1_555
O29 Y5 2.166377 1_555
O30 Si8 1.735209 1_555
O31 Si7 1.714809 1_555
O32 P8 1.580975 1_555
O33 P7 1.588985 1_555
O34 Si6 1.735939 1_555
O35 P6 1.588709 1_555
O36 Si8 1.605123 1_555
O36 Y0 2.230753 1_455
O37 Si7 1.612634 1_545
O37 Y0 2.193985 1_545
O38 P8 1.531064 1_555
O38 Y0 2.307993 1_445
O39 P7 1.519568 1_555
O39 Y1 2.216107 1_455
O40 Si6 1.607360 1_555
O40 Y1 2.238963 1_465
O41 P6 1.528085 1_555
O41 Y1 2.297706 1_565
O42 P4 1.573835 1_555
O43 Si2 1.667849 1_555
O44 Si3 1.693125 1_555
O45 Si4 1.673102 1_555
O46 P5 1.575314 1_555
O47 Si5 1.691923 1_555
O48 Si1 1.608037 1_545
O48 Y2 2.258083 1_555
O49 P2 1.523776 1_555
O49 Y2 2.237562 1_555
O50 P3 1.512838 1_655
O50 Y2 2.264207 1_555
O51 P1 1.523810 1_555
O51 Y3 2.234343 1_555
O52 Si0 1.614648 1_655
O52 Y3 2.254383 1_555
O53 P0 1.512369 1_545
O53 Y3 2.267365 1_555
O54 P6 1.576096 1_555
O55 P7 1.573532 1_655
O56 Si6 1.666454 1_545
O57 Si7 1.677738 1_545
O58 P8 1.563793 1_555
O59 Si8 1.665506 1_655
O60 Si5 1.601269 1_555
O60 Y4 2.221994 1_555
O61 Si4 1.624599 1_455
O61 Y4 2.252455 1_555
O62 P5 1.521735 1_565
O62 Y4 2.248256 1_555
O63 Si2 1.621401 1_565
O63 Y5 2.249259 1_555
O64 Si3 1.601164 1_555
O64 Y5 2.211517 1_555
O65 P4 1.521369 1_455
O65 Y5 2.293232 1_555
O66 P0 1.581333 1_555
O67 P1 1.552098 1_555
O68 Si0 1.686144 1_555
O69 P2 1.558272 1_555
O70 P3 1.585107 1_555
O71 Si1 1.710869 1_555
