# generated using pymatgen
data_In5S4
_symmetry_space_group_name_H-M   'P 1'
_cell_length_a   12.70920300
_cell_length_b   12.70920300
_cell_length_c   12.70920300
_cell_angle_alpha   90.00000000
_cell_angle_beta   90.00000000
_cell_angle_gamma   90.00000000
_symmetry_Int_Tables_number   1
_chemical_formula_structural   In5S4
_chemical_formula_sum   'In40 S32'
_cell_volume   2052.83928328
_cell_formula_units_Z   8
loop_
 _symmetry_equiv_pos_site_id
 _symmetry_equiv_pos_as_xyz
  1  'x, y, z'
loop_
 _atom_site_type_symbol
 _atom_site_label
 _atom_site_symmetry_multiplicity
 _atom_site_fract_x
 _atom_site_fract_y
 _atom_site_fract_z
 _atom_site_occupancy
  In  In0  1  0.26908200  0.26908200  0.26908200  1
  In  In1  1  0.23091800  0.73091800  0.76908200  1
  In  In2  1  0.76908200  0.23091800  0.73091800  1
  In  In3  1  0.73091800  0.76908200  0.23091800  1
  In  In4  1  0.73091800  0.73091800  0.73091800  1
  In  In5  1  0.76908200  0.26908200  0.23091800  1
  In  In6  1  0.23091800  0.76908200  0.26908200  1
  In  In7  1  0.26908200  0.23091800  0.76908200  1
  In  In8  1  0.40123000  0.40123000  0.40123000  1
  In  In9  1  0.09877000  0.59877000  0.90123000  1
  In  In10  1  0.90123000  0.09877000  0.59877000  1
  In  In11  1  0.59877000  0.90123000  0.09877000  1
  In  In12  1  0.59877000  0.59877000  0.59877000  1
  In  In13  1  0.90123000  0.40123000  0.09877000  1
  In  In14  1  0.09877000  0.90123000  0.40123000  1
  In  In15  1  0.40123000  0.09877000  0.90123000  1
  In  In16  1  0.26829700  0.02679900  0.06762000  1
  In  In17  1  0.06762000  0.26829700  0.02679900  1
  In  In18  1  0.02679900  0.06762000  0.26829700  1
  In  In19  1  0.47320100  0.93238000  0.76829700  1
  In  In20  1  0.56762000  0.23170300  0.97320100  1
  In  In21  1  0.97320100  0.56762000  0.23170300  1
  In  In22  1  0.43238000  0.73170300  0.52679900  1
  In  In23  1  0.93238000  0.76829700  0.47320100  1
  In  In24  1  0.52679900  0.43238000  0.73170300  1
  In  In25  1  0.76829700  0.47320100  0.93238000  1
  In  In26  1  0.73170300  0.52679900  0.43238000  1
  In  In27  1  0.23170300  0.97320100  0.56762000  1
  In  In28  1  0.73170300  0.97320100  0.93238000  1
  In  In29  1  0.93238000  0.73170300  0.97320100  1
  In  In30  1  0.97320100  0.93238000  0.73170300  1
  In  In31  1  0.52679900  0.06762000  0.23170300  1
  In  In32  1  0.43238000  0.76829700  0.02679900  1
  In  In33  1  0.02679900  0.43238000  0.76829700  1
  In  In34  1  0.56762000  0.26829700  0.47320100  1
  In  In35  1  0.06762000  0.23170300  0.52679900  1
  In  In36  1  0.47320100  0.56762000  0.26829700  1
  In  In37  1  0.23170300  0.52679900  0.06762000  1
  In  In38  1  0.26829700  0.47320100  0.56762000  1
  In  In39  1  0.76829700  0.02679900  0.43238000  1
  S  S0  1  0.32470800  0.07388900  0.25680900  1
  S  S1  1  0.25680900  0.32470800  0.07388900  1
  S  S2  1  0.07388900  0.25680900  0.32470800  1
  S  S3  1  0.42611100  0.74319100  0.82470800  1
  S  S4  1  0.75680900  0.17529200  0.92611100  1
  S  S5  1  0.92611100  0.75680900  0.17529200  1
  S  S6  1  0.24319100  0.67529200  0.57388900  1
  S  S7  1  0.74319100  0.82470800  0.42611100  1
  S  S8  1  0.57388900  0.24319100  0.67529200  1
  S  S9  1  0.82470800  0.42611100  0.74319100  1
  S  S10  1  0.67529200  0.57388900  0.24319100  1
  S  S11  1  0.17529200  0.92611100  0.75680900  1
  S  S12  1  0.67529200  0.92611100  0.74319100  1
  S  S13  1  0.74319100  0.67529200  0.92611100  1
  S  S14  1  0.92611100  0.74319100  0.67529200  1
  S  S15  1  0.57388900  0.25680900  0.17529200  1
  S  S16  1  0.24319100  0.82470800  0.07388900  1
  S  S17  1  0.07388900  0.24319100  0.82470800  1
  S  S18  1  0.75680900  0.32470800  0.42611100  1
  S  S19  1  0.25680900  0.17529200  0.57388900  1
  S  S20  1  0.42611100  0.75680900  0.32470800  1
  S  S21  1  0.17529200  0.57388900  0.25680900  1
  S  S22  1  0.32470800  0.42611100  0.75680900  1
  S  S23  1  0.82470800  0.07388900  0.24319100  1
  S  S24  1  0.07529400  0.07529400  0.07529400  1
  S  S25  1  0.42470600  0.92470600  0.57529400  1
  S  S26  1  0.57529400  0.42470600  0.92470600  1
  S  S27  1  0.92470600  0.57529400  0.42470600  1
  S  S28  1  0.92470600  0.92470600  0.92470600  1
  S  S29  1  0.57529400  0.07529400  0.42470600  1
  S  S30  1  0.42470600  0.57529400  0.07529400  1
  S  S31  1  0.07529400  0.42470600  0.57529400  1
loop_
_geom_bond_atom_site_label_1
_geom_bond_atom_site_label_2
_geom_bond_distance
_geom_bond_site_symmetry_2
In0 S2 2.584228 1_555
In0 S1 2.584228 1_555
In0 S0 2.584228 1_555
In0 In8 2.908972 1_555
In1 S11 2.584228 1_555
In1 S6 2.584228 1_555
In1 S3 2.584228 1_555
In1 In9 2.908972 1_555
In2 S4 2.584228 1_555
In2 S8 2.584228 1_555
In2 S9 2.584228 1_555
In3 S5 2.584228 1_555
In3 S10 2.584228 1_555
In3 S7 2.584228 1_555
In4 S13 2.584228 1_555
In4 S14 2.584228 1_555
In4 S12 2.584228 1_555
In5 S15 2.584228 1_555
In5 S18 2.584228 1_555
In5 S23 2.584228 1_555
In6 S21 2.584228 1_555
In6 S20 2.584228 1_555
In6 S16 2.584228 1_555
In7 S19 2.584228 1_555
In7 S22 2.584228 1_555
In7 S17 2.584228 1_555
In10 In30 2.857074 1_545
In10 In35 2.857074 1_655
In10 In39 2.857074 1_555
In10 In2 2.908972 1_555
In11 In28 2.857074 1_554
In11 In31 2.857074 1_565
In11 In32 2.857074 1_555
In11 In3 2.908972 1_555
In12 In24 2.857074 1_555
In12 In26 2.857074 1_555
In12 In22 2.857074 1_555
In12 In4 2.908972 1_555
In13 In17 2.857074 1_655
In13 In21 2.857074 1_555
In13 In25 2.857074 1_554
In13 In5 2.908972 1_555
In14 In23 2.857074 1_455
In14 In18 2.857074 1_565
In14 In27 2.857074 1_555
In14 In6 2.908972 1_555
In15 In20 2.857074 1_555
In15 In16 2.857074 1_556
In15 In19 2.857074 1_545
In15 In7 2.908972 1_555
In16 S24 2.531041 1_555
In16 S0 2.579441 1_555
In16 S16 2.589385 1_545
In17 S24 2.531041 1_555
In17 S1 2.579441 1_555
In17 S17 2.589385 1_554
In18 S24 2.531041 1_555
In18 S2 2.579441 1_555
In18 S23 2.589385 1_455
In19 S25 2.531041 1_555
In19 S3 2.579441 1_555
In19 S12 2.589385 1_555
In20 S26 2.531041 1_555
In20 S4 2.579441 1_555
In20 S15 2.589385 1_556
In21 S27 2.531041 1_555
In21 S5 2.579441 1_555
In21 S21 2.589385 1_655
In22 S25 2.531041 1_555
In22 S6 2.579441 1_555
In22 S20 2.589385 1_555
In23 S27 2.531041 1_555
In23 S7 2.579441 1_555
In23 S14 2.589385 1_555
In24 S26 2.531041 1_555
In24 S8 2.579441 1_555
In24 S22 2.589385 1_555
In25 S26 2.531041 1_555
In25 S9 2.579441 1_555
In25 S13 2.589385 1_555
In26 S27 2.531041 1_555
In26 S10 2.579441 1_555
In26 S18 2.589385 1_555
In27 S25 2.531041 1_555
In27 S11 2.579441 1_555
In27 S19 2.589385 1_565
In28 S28 2.531041 1_555
In28 S12 2.579441 1_555
In28 S4 2.589385 1_565
In29 S28 2.531041 1_555
In29 S13 2.579441 1_555
In29 S5 2.589385 1_556
In29 In9 2.857074 1_655
In30 S28 2.531041 1_555
In30 S14 2.579441 1_555
In30 S11 2.589385 1_655
In31 S29 2.531041 1_555
In31 S15 2.579441 1_555
In31 S0 2.589385 1_555
In32 S30 2.531041 1_555
In32 S16 2.579441 1_555
In32 S3 2.589385 1_554
In33 S31 2.531041 1_555
In33 S17 2.579441 1_555
In33 S9 2.589385 1_455
In33 In9 2.857074 1_555
In34 S29 2.531041 1_555
In34 S18 2.579441 1_555
In34 S8 2.589385 1_555
In34 In8 2.857074 1_555
In35 S31 2.531041 1_555
In35 S19 2.579441 1_555
In35 S2 2.589385 1_555
In36 S30 2.531041 1_555
In36 S20 2.579441 1_555
In36 S10 2.589385 1_555
In36 In8 2.857074 1_555
In37 S30 2.531041 1_555
In37 S21 2.579441 1_555
In37 S1 2.589385 1_555
In37 In9 2.857074 1_554
In38 S31 2.531041 1_555
In38 S22 2.579441 1_555
In38 S6 2.589385 1_555
In38 In8 2.857074 1_555
In39 S29 2.531041 1_555
In39 S23 2.579441 1_555
In39 S7 2.589385 1_545
