# generated using pymatgen
data_Na4CaTaSi2PO12
_symmetry_space_group_name_H-M   'P 1'
_cell_length_a   9.31435228
_cell_length_b   9.31435193
_cell_length_c   22.36537593
_cell_angle_alpha   90.11884203
_cell_angle_beta   89.88115797
_cell_angle_gamma   119.62423411
_symmetry_Int_Tables_number   1
_chemical_formula_structural   Na4CaTaSi2PO12
_chemical_formula_sum   'Na24 Ca6 Ta6 Si12 P6 O72'
_cell_volume   1686.71965498
_cell_formula_units_Z   6
loop_
 _symmetry_equiv_pos_site_id
 _symmetry_equiv_pos_as_xyz
  1  'x, y, z'
loop_
 _atom_site_type_symbol
 _atom_site_label
 _atom_site_symmetry_multiplicity
 _atom_site_fract_x
 _atom_site_fract_y
 _atom_site_fract_z
 _atom_site_occupancy
  Na  Na0  1  0.65542270  0.02268373  0.24922376  1
  Na  Na1  1  0.37520547  0.35974293  0.24169527  1
  Na  Na2  1  0.96906583  0.61755114  0.24453290  1
  Na  Na3  1  0.64025707  0.62479453  0.74169527  1
  Na  Na4  1  0.97731627  0.34457730  0.74922376  1
  Na  Na5  1  0.38244886  0.03093417  0.74453290  1
  Na  Na6  1  0.32208970  0.35601673  0.58255676  1
  Na  Na7  1  0.04187247  0.69307593  0.57502827  1
  Na  Na8  1  0.63573283  0.95088414  0.57786590  1
  Na  Na9  1  0.30692407  0.95812753  0.07502827  1
  Na  Na10  1  0.64398327  0.67791030  0.08255676  1
  Na  Na11  1  0.04911586  0.36426717  0.07786590  1
  Na  Na12  1  0.98875570  0.68935073  0.91589076  1
  Na  Na13  1  0.70853847  0.02640993  0.90836227  1
  Na  Na14  1  0.30239883  0.28421814  0.91119990  1
  Na  Na15  1  0.97359007  0.29146153  0.40836227  1
  Na  Na16  1  0.31064927  0.01124430  0.41589076  1
  Na  Na17  1  0.71578186  0.69760117  0.41119990  1
  Na  Na18  1  0.98917142  0.98794477  0.49210525  1
  Na  Na19  1  0.01205523  0.01082858  0.99210525  1
  Na  Na20  1  0.65583842  0.32127777  0.82543825  1
  Na  Na21  1  0.67872223  0.34416158  0.32543825  1
  Na  Na22  1  0.32250442  0.65461177  0.15877225  1
  Na  Na23  1  0.34538823  0.67749558  0.65877225  1
  Ca  Ca0  1  0.99854335  0.99884666  0.34849747  1
  Ca  Ca1  1  0.00115334  0.00145665  0.84849747  1
  Ca  Ca2  1  0.66521035  0.33217966  0.68183047  1
  Ca  Ca3  1  0.66782034  0.33478965  0.18183047  1
  Ca  Ca4  1  0.33187635  0.66551366  0.01516447  1
  Ca  Ca5  1  0.33448634  0.66812365  0.51516447  1
  Ta  Ta0  1  0.99899282  0.00113518  0.64821737  1
  Ta  Ta1  1  0.99886482  0.00100718  0.14821737  1
  Ta  Ta2  1  0.66565982  0.33446818  0.98155037  1
  Ta  Ta3  1  0.66553182  0.33434018  0.48155037  1
  Ta  Ta4  1  0.33232582  0.66780218  0.31488437  1
  Ta  Ta5  1  0.33219782  0.66767418  0.81488437  1
  Si  Si0  1  0.69406876  0.70382329  0.25290176  1
  Si  Si1  1  0.01029961  0.30550952  0.25320115  1
  Si  Si2  1  0.29617671  0.30593124  0.75290176  1
  Si  Si3  1  0.69449048  0.98970039  0.75320115  1
  Si  Si4  1  0.36073576  0.03715629  0.58623476  1
  Si  Si5  1  0.67696661  0.63884252  0.58653415  1
  Si  Si6  1  0.96284371  0.63926424  0.08623476  1
  Si  Si7  1  0.36115748  0.32303339  0.08653415  1
  Si  Si8  1  0.02740176  0.37049029  0.91956876  1
  Si  Si9  1  0.34363261  0.97217652  0.91986815  1
  Si  Si10  1  0.62950971  0.97259824  0.41956876  1
  Si  Si11  1  0.02782348  0.65636739  0.41986815  1
  P  P0  1  0.28982995  0.98558396  0.25066889  1
  P  P1  1  0.01441604  0.71017005  0.75066889  1
  P  P2  1  0.95649695  0.31891696  0.58400189  1
  P  P3  1  0.68108304  0.04350305  0.08400189  1
  P  P4  1  0.62316295  0.65225096  0.91733589  1
  P  P5  1  0.34774904  0.37683705  0.41733589  1
  O  O0  1  0.22404408  0.01671269  0.30837475  1
  O  O1  1  0.79979550  0.77632068  0.31193098  1
  O  O2  1  0.99024211  0.20847730  0.31334118  1
  O  O3  1  0.22367932  0.20020450  0.81193098  1
  O  O4  1  0.98328731  0.77595592  0.80837475  1
  O  O5  1  0.79152270  0.00975789  0.81334118  1
  O  O6  1  0.80586257  0.96961462  0.69472954  1
  O  O7  1  0.16353571  0.19455714  0.69458857  1
  O  O8  1  0.03195107  0.83158570  0.69632229  1
  O  O9  1  0.80544286  0.83646429  0.19458857  1
  O  O10  1  0.03038538  0.19413743  0.19472954  1
  O  O11  1  0.16841430  0.96804893  0.19632229  1
  O  O12  1  0.89071108  0.35004569  0.64170775  1
  O  O13  1  0.46646250  0.10965368  0.64526398  1
  O  O14  1  0.65690911  0.54181030  0.64667418  1
  O  O15  1  0.89034632  0.53353750  0.14526398  1
  O  O16  1  0.64995431  0.10928892  0.14170775  1
  O  O17  1  0.45818970  0.34309089  0.14667418  1
  O  O18  1  0.47252957  0.30294762  0.02806254  1
  O  O19  1  0.83020271  0.52789014  0.02792157  1
  O  O20  1  0.69861807  0.16491870  0.02965529  1
  O  O21  1  0.47210986  0.16979729  0.52792157  1
  O  O22  1  0.69705238  0.52747043  0.52806254  1
  O  O23  1  0.83508130  0.30138193  0.52965529  1
  O  O24  1  0.55737708  0.68337969  0.97504175  1
  O  O25  1  0.13312850  0.44298768  0.97859798  1
  O  O26  1  0.32357511  0.87514430  0.98000818  1
  O  O27  1  0.55701232  0.86687150  0.47859798  1
  O  O28  1  0.31662031  0.44262292  0.47504175  1
  O  O29  1  0.12485570  0.67642489  0.48000818  1
  O  O30  1  0.13919557  0.63628162  0.36139654  1
  O  O31  1  0.49686871  0.86122414  0.36125557  1
  O  O32  1  0.36528407  0.49825270  0.36298929  1
  O  O33  1  0.13877586  0.50313129  0.86125557  1
  O  O34  1  0.36371838  0.86080443  0.86139654  1
  O  O35  1  0.50174730  0.63471593  0.86298929  1
  O  O36  1  0.00089193  0.81379471  0.41387026  1
  O  O37  1  0.81822915  0.01304845  0.41360639  1
  O  O38  1  0.21074173  0.20056442  0.40785845  1
  O  O39  1  0.98695155  0.18177085  0.91360639  1
  O  O40  1  0.18620529  0.99910807  0.91387026  1
  O  O41  1  0.79943558  0.78925827  0.90785845  1
  O  O42  1  0.95143363  0.14586279  0.58681215  1
  O  O43  1  0.18237767  0.04308791  0.58915550  1
  O  O44  1  0.85669894  0.81995643  0.58836613  1
  O  O45  1  0.95691209  0.81762233  0.08915550  1
  O  O46  1  0.85413721  0.04856637  0.08681215  1
  O  O47  1  0.18004357  0.14330106  0.08836613  1
  O  O48  1  0.66755893  0.14712771  0.74720326  1
  O  O49  1  0.48489615  0.34638145  0.74693939  1
  O  O50  1  0.87740873  0.53389742  0.74119145  1
  O  O51  1  0.65361855  0.51510385  0.24693939  1
  O  O52  1  0.85287229  0.33244107  0.24720326  1
  O  O53  1  0.46610258  0.12259127  0.24119145  1
  O  O54  1  0.61810063  0.47919579  0.92014515  1
  O  O55  1  0.84904467  0.37642091  0.92248850  1
  O  O56  1  0.52336594  0.15328943  0.92169913  1
  O  O57  1  0.62357909  0.15095533  0.42248850  1
  O  O58  1  0.52080421  0.38189937  0.42014515  1
  O  O59  1  0.84671057  0.47663406  0.42169913  1
  O  O60  1  0.33422493  0.48046171  0.08053726  1
  O  O61  1  0.15156215  0.67971545  0.08027339  1
  O  O62  1  0.54407473  0.86723142  0.07452545  1
  O  O63  1  0.32028455  0.84843785  0.58027339  1
  O  O64  1  0.51953829  0.66577507  0.58053726  1
  O  O65  1  0.13276858  0.45592527  0.57452545  1
  O  O66  1  0.28476663  0.81252979  0.25347915  1
  O  O67  1  0.51571067  0.70975491  0.25582250  1
  O  O68  1  0.19003194  0.48662343  0.25503313  1
  O  O69  1  0.29024509  0.48428933  0.75582250  1
  O  O70  1  0.18747021  0.71523337  0.75347915  1
  O  O71  1  0.51337657  0.80996806  0.75503313  1
loop_
_geom_bond_atom_site_label_1
_geom_bond_atom_site_label_2
_geom_bond_distance
_geom_bond_site_symmetry_2
Na0 O53 2.373205 1_555
Na0 O67 2.542050 1_545
Na0 O52 2.542261 1_555
Na0 O16 2.546520 1_555
Na1 O51 2.263476 1_555
Na1 O17 2.290904 1_555
Na1 O68 2.544023 1_555
Na1 O53 2.728550 1_555
Na1 O67 2.867134 1_555
Na1 O10 2.984569 1_555
Na1 O32 3.022332 1_555
Na2 O52 2.320814 1_555
Na2 O15 2.347660 1_555
Na2 O66 2.589683 1_655
Na2 O51 2.602721 1_555
Na2 O68 2.874529 1_655
Na3 O49 2.263476 1_555
Na3 O14 2.290904 1_555
Na3 O71 2.544023 1_555
Na3 O50 2.728550 1_555
Na3 O69 2.867134 1_555
Na3 O6 2.984569 1_555
Na3 O35 3.022332 1_555
Na4 O50 2.373205 1_555
Na4 O69 2.542050 1_655
Na4 O48 2.542261 1_555
Na4 O12 2.546520 1_555
Na5 O48 2.320814 1_555
Na5 O13 2.347660 1_555
Na5 O70 2.589683 1_545
Na5 O49 2.602720 1_555
Na5 O71 2.874529 1_545
Na6 O65 2.373219 1_555
Na6 O43 2.542050 1_555
Na6 O64 2.542266 1_555
Na6 O28 2.546503 1_555
Na7 O63 2.263470 1_555
Na7 O29 2.290877 1_555
Na7 O44 2.544023 1_455
Na7 O65 2.728534 1_555
Na7 O43 2.867134 1_565
Na7 O22 2.984569 1_455
Na7 O8 3.022332 1_555
Na8 O64 2.320805 1_555
Na8 O27 2.347638 1_555
Na8 O42 2.589683 1_565
Na8 O63 2.602732 1_555
Na8 O44 2.874529 1_555
Na9 O61 2.263470 1_555
Na9 O26 2.290877 1_554
Na9 O47 2.544023 1_565
Na9 O62 2.728535 1_555
Na9 O45 2.867134 1_455
Na9 O18 2.984569 1_565
Na9 O11 3.022332 1_555
Na10 O62 2.373219 1_555
Na10 O45 2.542050 1_555
Na10 O60 2.542267 1_555
Na10 O24 2.546503 1_554
Na11 O60 2.320805 1_555
Na11 O25 2.347638 1_554
Na11 O46 2.589683 1_455
Na11 O61 2.602731 1_555
Na11 O47 2.874529 1_555
Na12 O41 2.373205 1_555
Na12 O55 2.542058 1_555
Na12 O40 2.542261 1_655
Na12 O4 2.546520 1_555
Na13 O39 2.263476 1_555
Na13 O5 2.290904 1_555
Na13 O56 2.544005 1_555
Na13 O41 2.728550 1_545
Na13 O55 2.867122 1_555
Na13 O34 2.984569 1_545
Na13 O20 3.022305 1_556
Na14 O40 2.320814 1_545
Na14 O3 2.347660 1_555
Na14 O54 2.589688 1_555
Na14 O39 2.602721 1_455
Na14 O56 2.874543 1_555
Na15 O37 2.263476 1_555
Na15 O2 2.290904 1_555
Na15 O59 2.544005 1_555
Na15 O38 2.728550 1_655
Na15 O57 2.867122 1_555
Na15 O30 2.984569 1_655
Na15 O23 3.022305 1_555
Na16 O38 2.373205 1_555
Na16 O57 2.542058 1_555
Na16 O36 2.542261 1_545
Na16 O0 2.546520 1_555
Na17 O36 2.320814 1_655
Na17 O1 2.347660 1_555
Na17 O58 2.589687 1_555
Na17 O37 2.602720 1_565
Na17 O59 2.874543 1_555
Na18 O36 2.422241 1_655
Na18 O37 2.460390 1_565
Na18 O44 2.588448 1_555
Na18 O42 2.696076 1_565
Na18 O43 2.703974 1_665
Na18 O38 2.773123 1_665
Na19 O40 2.422241 1_545
Na19 O39 2.460390 1_455
Na19 O47 2.588448 1_556
Na19 O46 2.696076 1_456
Na19 O45 2.703974 1_446
Na19 O41 2.773123 1_445
Na20 O48 2.422241 1_555
Na20 O49 2.460390 1_555
Na20 O56 2.588448 1_555
Na20 O54 2.696076 1_555
Na20 O55 2.703974 1_555
Na20 O50 2.773123 1_555
Na21 O52 2.422241 1_555
Na21 O51 2.460390 1_555
Na21 O59 2.588448 1_555
Na21 O58 2.696076 1_555
Na21 O57 2.703974 1_555
Na21 O53 2.773123 1_555
Na22 O60 2.422241 1_555
Na22 O61 2.460390 1_555
Na22 O68 2.588448 1_555
Na22 O66 2.696076 1_555
Na22 O67 2.703974 1_555
Na22 O62 2.773123 1_555
Na23 O64 2.422241 1_555
Na23 O63 2.460390 1_555
Na23 O71 2.588448 1_555
Na23 O70 2.696076 1_555
Na23 O69 2.703974 1_555
Na23 O65 2.773123 1_555
Ca0 O2 2.143045 1_565
Ca0 O1 2.144242 1_555
Ca0 O0 2.211753 1_665
Ca0 O36 2.270897 1_655
Ca0 O37 2.273196 1_565
Ca0 O38 2.351277 1_665
Ca1 O5 2.143045 1_455
Ca1 O3 2.144242 1_555
Ca1 O4 2.211753 1_445
Ca1 O40 2.270897 1_545
Ca1 O39 2.273196 1_455
Ca1 O41 2.351277 1_445
Ca2 O14 2.143045 1_555
Ca2 O13 2.144242 1_555
Ca2 O12 2.211753 1_555
Ca2 O48 2.270897 1_555
Ca2 O49 2.273196 1_555
Ca2 O50 2.351277 1_555
Ca3 O17 2.143045 1_555
Ca3 O15 2.144242 1_555
Ca3 O16 2.211753 1_555
Ca3 O52 2.270897 1_555
Ca3 O51 2.273196 1_555
Ca3 O53 2.351277 1_555
Ca4 O26 2.143045 1_554
Ca4 O25 2.144242 1_554
Ca4 O24 2.211753 1_554
Ca4 O60 2.270897 1_555
Ca4 O61 2.273196 1_555
Ca4 O62 2.351277 1_555
Ca5 O29 2.143045 1_555
Ca5 O27 2.144242 1_555
Ca5 O28 2.211753 1_555
Ca5 O64 2.270897 1_555
Ca5 O63 2.273196 1_555
Ca5 O65 2.351277 1_555
O0 P0 1.515264 1_545
O1 Si0 1.585245 1_555
O2 Si1 1.580502 1_655
O3 Si2 1.585245 1_555
O4 P1 1.515264 1_655
O5 Si3 1.580502 1_545
O6 Si3 1.733932 1_555
O6 Ta0 1.968679 1_565
O7 Si2 1.742833 1_555
O7 Ta0 1.984784 1_455
O8 P1 1.614094 1_555
O8 Ta0 2.057543 1_465
O9 Si0 1.742833 1_555
O9 Ta1 1.984784 1_565
O10 Si1 1.733932 1_555
O10 Ta1 1.968679 1_455
O11 P0 1.614094 1_555
O11 Ta1 2.057543 1_465
O12 P2 1.515264 1_555
O13 Si4 1.585245 1_555
O14 Si5 1.580502 1_555
O15 Si6 1.585245 1_555
O16 P3 1.515264 1_555
O17 Si7 1.580502 1_555
O18 Si7 1.733932 1_555
O18 Ta2 1.968679 1_554
O19 Si6 1.742833 1_555
O19 Ta2 1.984784 1_554
O20 P3 1.614094 1_555
O20 Ta2 2.057543 1_554
O21 Si4 1.742833 1_555
O21 Ta3 1.984784 1_555
O22 Si5 1.733932 1_555
O22 Ta3 1.968679 1_555
O23 P2 1.614094 1_555
O23 Ta3 2.057543 1_555
O24 P4 1.515264 1_555
O25 Si8 1.585245 1_555
O26 Si9 1.580502 1_555
O27 Si10 1.585245 1_555
O28 P5 1.515264 1_555
O29 Si11 1.580502 1_555
O30 Si11 1.733932 1_555
O30 Ta4 1.968679 1_555
O31 Si10 1.742833 1_555
O31 Ta4 1.984784 1_555
O32 P5 1.614094 1_555
O32 Ta4 2.057543 1_555
O33 Si8 1.742833 1_555
O33 Ta5 1.984784 1_555
O34 Si9 1.733932 1_555
O34 Ta5 1.968679 1_555
O35 P4 1.614094 1_555
O35 Ta5 2.057543 1_555
O36 Si11 1.611103 1_555
O37 Si10 1.610617 1_545
O38 P5 1.515735 1_555
O39 Si8 1.610617 1_655
O40 Si9 1.611103 1_555
O41 P4 1.515735 1_555
O42 P2 1.590475 1_555
O42 Ta0 2.121348 1_555
O43 Si4 1.690408 1_555
O43 Ta0 2.036697 1_455
O44 Si5 1.690593 1_555
O44 Ta0 2.045267 1_565
O45 Si6 1.690408 1_555
O45 Ta1 2.036697 1_565
O46 P3 1.590475 1_555
O46 Ta1 2.121348 1_555
O47 Si7 1.690593 1_555
O47 Ta1 2.045267 1_455
O48 Si3 1.611103 1_545
O49 Si2 1.610617 1_555
O50 P1 1.515735 1_655
O51 Si0 1.610617 1_555
O52 Si1 1.611103 1_655
O53 P0 1.515735 1_545
O54 P4 1.590487 1_555
O54 Ta2 2.121348 1_555
O55 Si8 1.690393 1_655
O55 Ta2 2.036697 1_555
O56 Si9 1.690592 1_545
O56 Ta2 2.045267 1_555
O57 Si10 1.690393 1_545
O57 Ta3 2.036697 1_555
O58 P5 1.590488 1_555
O58 Ta3 2.121348 1_555
O59 Si11 1.690592 1_655
O59 Ta3 2.045267 1_555
O60 Si7 1.611116 1_555
O61 Si6 1.610603 1_455
O62 P3 1.515729 1_565
O63 Si4 1.610603 1_565
O64 Si5 1.611116 1_555
O65 P2 1.515729 1_455
O66 P0 1.590475 1_555
O66 Ta4 2.121348 1_555
O67 Si0 1.690408 1_555
O67 Ta4 2.036697 1_555
O68 Si1 1.690593 1_555
O68 Ta4 2.045267 1_555
O69 Si2 1.690408 1_555
O69 Ta5 2.036697 1_555
O70 P1 1.590475 1_555
O70 Ta5 2.121348 1_555
O71 Si3 1.690593 1_555
O71 Ta5 2.045267 1_555
