# generated using pymatgen
data_MgSc4(FeO3)4
_symmetry_space_group_name_H-M   'P 1'
_cell_length_a   5.27219244
_cell_length_b   5.63983491
_cell_length_c   8.06128244
_cell_angle_alpha   88.91494350
_cell_angle_beta   87.65959029
_cell_angle_gamma   86.77832910
_symmetry_Int_Tables_number   1
_chemical_formula_structural   MgSc4(FeO3)4
_chemical_formula_sum   'Mg1 Sc4 Fe4 O12'
_cell_volume   239.08482601
_cell_formula_units_Z   1
loop_
 _symmetry_equiv_pos_site_id
 _symmetry_equiv_pos_as_xyz
  1  'x, y, z'
loop_
 _atom_site_type_symbol
 _atom_site_label
 _atom_site_symmetry_multiplicity
 _atom_site_fract_x
 _atom_site_fract_y
 _atom_site_fract_z
 _atom_site_occupancy
  Mg  Mg0  1  0.39695400  0.23313300  0.09377300  1
  Sc  Sc0  1  0.01080700  0.96747400  0.73238800  1
  Sc  Sc1  1  0.50929600  0.44463800  0.70383400  1
  Sc  Sc2  1  0.54775400  0.62024400  0.28186000  1
  Sc  Sc3  1  0.95115800  0.01523400  0.20585700  1
  Fe  Fe0  1  0.97056500  0.51079300  0.99091500  1
  Fe  Fe1  1  0.01592300  0.52585300  0.49467700  1
  Fe  Fe2  1  0.50198900  0.83849500  0.89623200  1
  Fe  Fe3  1  0.48338600  0.04137600  0.49516700  1
  O  O0  1  0.19982800  0.47781800  0.27794500  1
  O  O1  1  0.19448400  0.24512900  0.60446000  1
  O  O2  1  0.15949800  0.03791700  0.95781200  1
  O  O3  1  0.29841300  0.74921600  0.59717100  1
  O  O4  1  0.34438100  0.51756100  0.93309400  1
  O  O5  1  0.33539900  0.98053200  0.28227800  1
  O  O6  1  0.64109300  0.09165400  0.74103600  1
  O  O7  1  0.74143900  0.31294900  0.13754300  1
  O  O8  1  0.67987200  0.37182500  0.46535800  1
  O  O9  1  0.74034100  0.79182900  0.08707500  1
  O  O10  1  0.80137200  0.84113600  0.42055800  1
  O  O11  1  0.83854700  0.62269600  0.75096900  1
loop_
_geom_bond_atom_site_label_1
_geom_bond_atom_site_label_2
_geom_bond_distance
_geom_bond_site_symmetry_2
Mg0 O7 1.943175 1_555
Mg0 O4 2.056320 1_554
Mg0 O2 2.072054 1_554
Mg0 O5 2.091349 1_545
Mg0 O0 2.231382 1_555
Fe0 O4 2.008891 1_655
Fe0 O7 2.021475 1_556
Fe0 O9 2.083226 1_556
Fe0 O11 2.153721 1_555
Fe1 O0 1.978894 1_555
Fe1 O1 2.005879 1_555
Fe1 O8 2.040702 1_455
Fe1 O10 2.141774 1_455
Fe1 O3 2.199664 1_555
Fe1 O11 2.295408 1_455
Fe2 O6 2.028964 1_565
Fe2 O9 2.029923 1_556
Fe2 O4 2.045343 1_555
Fe2 O2 2.119325 1_565
Fe2 O11 2.375405 1_555
Fe3 O5 1.957918 1_545
Fe3 O1 2.036843 1_555
Fe3 O10 2.044081 1_545
Fe3 O3 2.099053 1_545
Fe3 O8 2.187203 1_555
Fe3 O6 2.209642 1_555
O0 Sc2 2.045067 1_555
O1 Sc0 2.116865 1_545
O1 Sc1 2.239466 1_555
O2 Sc0 2.062357 1_545
O2 Sc3 2.246739 1_456
O3 Sc0 2.169932 1_555
O3 Sc1 2.175700 1_555
O4 Sc1 2.048915 1_555
O5 Sc3 2.138798 1_465
O5 Sc2 2.264199 1_555
O6 Sc0 2.032748 1_645
O6 Sc1 2.091618 1_555
O7 Sc3 2.037423 1_555
O7 Sc2 2.276010 1_555
O8 Sc1 2.126098 1_555
O8 Sc2 2.128895 1_555
O9 Sc3 2.007429 1_565
O9 Sc2 2.087024 1_555
O10 Sc3 2.120008 1_565
O10 Sc2 2.225331 1_555
O11 Sc1 2.104838 1_555
O11 Sc0 2.191948 1_655
