# generated using pymatgen
data_Na3TiP3NO9
_symmetry_space_group_name_H-M   'P 1'
_cell_length_a   9.62969700
_cell_length_b   9.62969700
_cell_length_c   9.62969700
_cell_angle_alpha   90.00000000
_cell_angle_beta   90.00000000
_cell_angle_gamma   90.00000000
_symmetry_Int_Tables_number   1
_chemical_formula_structural   Na3TiP3NO9
_chemical_formula_sum   'Na12 Ti4 P12 N4 O36'
_cell_volume   892.97205181
_cell_formula_units_Z   4
loop_
 _symmetry_equiv_pos_site_id
 _symmetry_equiv_pos_as_xyz
  1  'x, y, z'
loop_
 _atom_site_type_symbol
 _atom_site_label
 _atom_site_symmetry_multiplicity
 _atom_site_fract_x
 _atom_site_fract_y
 _atom_site_fract_z
 _atom_site_occupancy
  Na  Na0  1  0.74131200  0.74131200  0.74131200  1
  Na  Na1  1  0.64242900  0.85757100  0.14242900  1
  Na  Na2  1  0.35757100  0.35757100  0.35757100  1
  Na  Na3  1  0.94442100  0.94442100  0.94442100  1
  Na  Na4  1  0.55557900  0.05557900  0.44442100  1
  Na  Na5  1  0.44442100  0.55557900  0.05557900  1
  Na  Na6  1  0.05557900  0.44442100  0.55557900  1
  Na  Na7  1  0.25868800  0.24131200  0.75868800  1
  Na  Na8  1  0.14242900  0.64242900  0.85757100  1
  Na  Na9  1  0.24131200  0.75868800  0.25868800  1
  Na  Na10  1  0.75868800  0.25868800  0.24131200  1
  Na  Na11  1  0.85757100  0.14242900  0.64242900  1
  Ti  Ti0  1  0.33117700  0.83117700  0.66882300  1
  Ti  Ti1  1  0.83117700  0.66882300  0.33117700  1
  Ti  Ti2  1  0.16882300  0.16882300  0.16882300  1
  Ti  Ti3  1  0.66882300  0.33117700  0.83117700  1
  P  P0  1  0.58300600  0.00403100  0.83635600  1
  P  P1  1  0.83635600  0.58300600  0.00403100  1
  P  P2  1  0.66364400  0.41699400  0.50403100  1
  P  P3  1  0.08300600  0.49596900  0.16364400  1
  P  P4  1  0.16364400  0.08300600  0.49596900  1
  P  P5  1  0.91699400  0.99596900  0.33635600  1
  P  P6  1  0.41699400  0.50403100  0.66364400  1
  P  P7  1  0.33635600  0.91699400  0.99596900  1
  P  P8  1  0.50403100  0.66364400  0.41699400  1
  P  P9  1  0.99596900  0.33635600  0.91699400  1
  P  P10  1  0.00403100  0.83635600  0.58300600  1
  P  P11  1  0.49596900  0.16364400  0.08300600  1
  N  N0  1  0.05072600  0.94927400  0.44927400  1
  N  N1  1  0.55072600  0.55072600  0.55072600  1
  N  N2  1  0.94927400  0.44927400  0.05072600  1
  N  N3  1  0.44927400  0.05072600  0.94927400  1
  O  O0  1  0.12431500  0.36310700  0.24276500  1
  O  O1  1  0.80003500  0.06231200  0.41836400  1
  O  O2  1  0.08163600  0.19996500  0.56231200  1
  O  O3  1  0.19996500  0.56231200  0.08163600  1
  O  O4  1  0.58163600  0.30003500  0.43768800  1
  O  O5  1  0.91836400  0.69996500  0.93768800  1
  O  O6  1  0.69996500  0.93768800  0.91836400  1
  O  O7  1  0.93768800  0.91836400  0.69996500  1
  O  O8  1  0.36310700  0.24276500  0.12431500  1
  O  O9  1  0.86310700  0.25723500  0.87568500  1
  O  O10  1  0.63689300  0.74276500  0.37568500  1
  O  O11  1  0.25723500  0.87568500  0.86310700  1
  O  O12  1  0.47803300  0.40080300  0.77066500  1
  O  O13  1  0.87568500  0.86310700  0.25723500  1
  O  O14  1  0.24276500  0.12431500  0.36310700  1
  O  O15  1  0.30003500  0.43768800  0.58163600  1
  O  O16  1  0.74276500  0.37568500  0.63689300  1
  O  O17  1  0.75723500  0.62431500  0.13689300  1
  O  O18  1  0.62431500  0.13689300  0.75723500  1
  O  O19  1  0.13689300  0.75723500  0.62431500  1
  O  O20  1  0.59919700  0.27066500  0.02196700  1
  O  O21  1  0.09919700  0.22933500  0.97803300  1
  O  O22  1  0.40080300  0.77066500  0.47803300  1
  O  O23  1  0.22933500  0.97803300  0.09919700  1
  O  O24  1  0.56231200  0.08163600  0.19996500  1
  O  O25  1  0.41836400  0.80003500  0.06231200  1
  O  O26  1  0.43768800  0.58163600  0.30003500  1
  O  O27  1  0.06231200  0.41836400  0.80003500  1
  O  O28  1  0.90080300  0.72933500  0.52196700  1
  O  O29  1  0.52196700  0.90080300  0.72933500  1
  O  O30  1  0.72933500  0.52196700  0.90080300  1
  O  O31  1  0.77066500  0.47803300  0.40080300  1
  O  O32  1  0.02196700  0.59919700  0.27066500  1
  O  O33  1  0.27066500  0.02196700  0.59919700  1
  O  O34  1  0.97803300  0.09919700  0.22933500  1
  O  O35  1  0.37568500  0.63689300  0.74276500  1
loop_
_geom_bond_atom_site_label_1
_geom_bond_atom_site_label_2
_geom_bond_distance
_geom_bond_site_symmetry_2
Na0 O6 2.577100 1_555
Na0 O7 2.577100 1_555
Na0 O5 2.577100 1_555
Na0 O30 2.614122 1_555
Na0 O29 2.614122 1_555
Na0 O28 2.614122 1_555
Na1 O24 2.357492 1_565
Na1 O25 2.357492 1_555
Na1 O6 2.357492 1_554
Na1 O10 2.504081 1_555
Na1 O13 2.504081 1_555
Na1 O17 2.504081 1_555
Na2 O15 2.357492 1_555
Na2 O26 2.357492 1_555
Na2 O4 2.357492 1_555
Na2 O14 2.504081 1_555
Na2 O8 2.504081 1_555
Na2 O0 2.504081 1_555
Na3 O5 2.368260 1_555
Na3 O6 2.368260 1_555
Na3 O7 2.368260 1_555
Na4 O24 2.368260 1_555
Na4 O1 2.368260 1_555
Na4 O4 2.368260 1_555
Na5 O3 2.368260 1_555
Na5 O25 2.368260 1_555
Na5 O26 2.368260 1_555
Na6 O2 2.368260 1_555
Na6 O27 2.368260 1_555
Na6 O15 2.368260 1_555
Na7 O15 2.577100 1_555
Na7 O27 2.577100 1_555
Na7 O2 2.577100 1_555
Na7 O12 2.614122 1_555
Na7 O33 2.614122 1_555
Na7 O21 2.614122 1_555
Na8 O3 2.357492 1_556
Na8 O27 2.357492 1_555
Na8 O5 2.357492 1_455
Na8 O35 2.504081 1_555
Na8 O11 2.504081 1_555
Na8 O19 2.504081 1_555
Na9 O25 2.577100 1_555
Na9 O26 2.577100 1_555
Na9 O3 2.577100 1_555
Na9 O22 2.614122 1_555
Na9 O32 2.614122 1_555
Na9 O23 2.614122 1_555
Na10 O4 2.577100 1_555
Na10 O1 2.577100 1_555
Na10 O24 2.577100 1_555
Na10 O31 2.614122 1_555
Na10 O20 2.614122 1_555
Na10 O34 2.614122 1_555
Na11 O2 2.357492 1_655
Na11 O1 2.357492 1_555
Na11 O7 2.357492 1_545
Na11 O16 2.504081 1_555
Na11 O9 2.504081 1_555
Na11 O18 2.504081 1_555
N0 P4 1.744415 1_565
N0 P10 1.744415 1_555
N0 P5 1.744415 1_455
N1 P8 1.744415 1_555
N1 P2 1.744415 1_555
N1 P6 1.744415 1_555
N2 P3 1.744415 1_655
N2 P1 1.744415 1_555
N2 P9 1.744415 1_554
N3 P11 1.744415 1_556
N3 P0 1.744415 1_555
N3 P7 1.744415 1_545
O0 P3 1.541319 1_555
O0 Ti2 2.047181 1_555
O1 P5 1.516673 1_545
O2 P4 1.516673 1_555
O3 P3 1.516673 1_555
O4 P2 1.516673 1_555
O5 P1 1.516673 1_556
O6 P0 1.516673 1_565
O7 P10 1.516673 1_655
O8 P11 1.541319 1_555
O8 Ti2 2.047181 1_555
O9 P9 1.541319 1_555
O9 Ti3 2.047181 1_555
O10 P8 1.541319 1_555
O10 Ti1 2.047181 1_555
O11 P7 1.541319 1_555
O11 Ti0 2.047181 1_555
O12 P6 1.547815 1_555
O12 Ti3 2.040730 1_555
O13 P5 1.541319 1_555
O13 Ti1 2.047181 1_555
O14 P4 1.541319 1_555
O14 Ti2 2.047181 1_555
O15 P6 1.516673 1_555
O16 P2 1.541319 1_555
O16 Ti3 2.047181 1_555
O17 P1 1.541319 1_555
O17 Ti1 2.047181 1_555
O18 P0 1.541319 1_555
O18 Ti3 2.047181 1_555
O19 P10 1.541319 1_555
O19 Ti0 2.047181 1_555
O20 P11 1.547815 1_555
O20 Ti3 2.040730 1_554
O21 P9 1.547815 1_455
O21 Ti2 2.040730 1_556
O22 P8 1.547815 1_555
O22 Ti0 2.040730 1_555
O23 P7 1.547815 1_554
O23 Ti2 2.040730 1_565
O24 P11 1.516673 1_555
O25 P7 1.516673 1_554
O26 P8 1.516673 1_555
O27 P9 1.516673 1_455
O28 P10 1.547815 1_655
O28 Ti1 2.040730 1_555
O29 P0 1.547815 1_565
O29 Ti0 2.040730 1_555
O30 P1 1.547815 1_556
O30 Ti3 2.040730 1_555
O31 P2 1.547815 1_555
O31 Ti1 2.040730 1_555
O32 P3 1.547815 1_555
O32 Ti1 2.040730 1_455
O33 P4 1.547815 1_555
O33 Ti0 2.040730 1_545
O34 P5 1.547815 1_545
O34 Ti2 2.040730 1_655
O35 P6 1.541319 1_555
O35 Ti0 2.047181 1_555
