# generated using pymatgen
data_Na14Nb2Al6Si9(SO16)3
_symmetry_space_group_name_H-M   'P 1'
_cell_length_a   17.70200375
_cell_length_b   8.85422612
_cell_length_c   21.96621050
_cell_angle_alpha   89.83839983
_cell_angle_beta   90.24722512
_cell_angle_gamma   119.94948884
_symmetry_Int_Tables_number   1
_chemical_formula_structural   Na14Nb2Al6Si9(SO16)3
_chemical_formula_sum   'Na42 Nb6 Al18 Si27 S9 O144'
_cell_volume   2983.15255115
_cell_formula_units_Z   3
loop_
 _symmetry_equiv_pos_site_id
 _symmetry_equiv_pos_as_xyz
  1  'x, y, z'
loop_
 _atom_site_type_symbol
 _atom_site_label
 _atom_site_symmetry_multiplicity
 _atom_site_fract_x
 _atom_site_fract_y
 _atom_site_fract_z
 _atom_site_occupancy
  Na  Na0  1  0.81515838  0.00050867  0.24734208  1
  Na  Na1  1  0.68647831  0.36950482  0.24688328  1
  Na  Na2  1  0.50159916  0.62792999  0.24872184  1
  Na  Na3  1  0.31447134  0.62881750  0.74734358  1
  Na  Na4  1  0.99805163  0.36868890  0.74937908  1
  Na  Na5  1  0.18492918  0.00291337  0.74657185  1
  Na  Na6  1  0.15174418  0.33612613  0.58340356  1
  Na  Na7  1  0.65371783  0.33927212  0.58457962  1
  Na  Na8  1  0.01713904  0.69688566  0.58389815  1
  Na  Na9  1  0.51523455  0.69178424  0.58289937  1
  Na  Na10  1  0.32919071  0.96968960  0.58479958  1
  Na  Na11  1  0.83224612  0.96855693  0.58544671  1
  Na  Na12  1  0.15214575  0.96597992  0.08230693  1
  Na  Na13  1  0.65433297  0.96624696  0.08063697  1
  Na  Na14  1  0.33113013  0.69384390  0.08203866  1
  Na  Na15  1  0.83006791  0.69193413  0.08295092  1
  Na  Na16  1  0.01511977  0.33882764  0.08093464  1
  Na  Na17  1  0.51767236  0.34129726  0.08027602  1
  Na  Na18  1  0.48599583  0.66695558  0.91685043  1
  Na  Na19  1  0.98284433  0.65875900  0.91436924  1
  Na  Na20  1  0.35347483  0.04099118  0.91475338  1
  Na  Na21  1  0.85286922  0.04552931  0.91592054  1
  Na  Na22  1  0.16325645  0.29941636  0.91673593  1
  Na  Na23  1  0.66544438  0.29660269  0.92002929  1
  Na  Na24  1  0.48290237  0.30923960  0.41736205  1
  Na  Na25  1  0.98447999  0.30207705  0.41983163  1
  Na  Na26  1  0.16520569  0.03521313  0.42270914  1
  Na  Na27  1  0.66476526  0.02681838  0.41944930  1
  Na  Na28  1  0.35132568  0.65689455  0.42107908  1
  Na  Na29  1  0.85283355  0.66561886  0.41697577  1
  Na  Na30  1  0.00244799  0.00122948  0.50089370  1
  Na  Na31  1  0.50112648  0.99599822  0.50083082  1
  Na  Na32  1  0.00084180  0.00658910  0.99760263  1
  Na  Na33  1  0.50232271  0.00350171  0.99615162  1
  Na  Na34  1  0.33900806  0.33393998  0.82658620  1
  Na  Na35  1  0.83444852  0.33006075  0.82964415  1
  Na  Na36  1  0.33341103  0.33232142  0.33321865  1
  Na  Na37  1  0.83923976  0.34398612  0.32748412  1
  Na  Na38  1  0.16467586  0.66402338  0.16269210  1
  Na  Na39  1  0.66791485  0.66657625  0.16559144  1
  Na  Na40  1  0.16617922  0.66790348  0.66656197  1
  Na  Na41  1  0.66796122  0.66944840  0.66517264  1
  Nb  Nb0  1  0.00016498  0.99799550  0.64787381  1
  Nb  Nb1  1  0.49484827  0.99000862  0.64524949  1
  Nb  Nb2  1  0.99449680  0.99969156  0.14437058  1
  Nb  Nb3  1  0.50793502  0.01441351  0.14383499  1
  Nb  Nb4  1  0.15722246  0.64642935  0.31471702  1
  Nb  Nb5  1  0.66205031  0.67876607  0.81151783  1
  Al  Al0  1  0.00071273  0.99873461  0.35081473  1
  Al  Al1  1  0.50519837  0.00038396  0.34746549  1
  Al  Al2  1  0.00049819  0.01494759  0.84234905  1
  Al  Al3  1  0.50226805  0.00587611  0.84974394  1
  Al  Al4  1  0.33553626  0.33140412  0.68690013  1
  Al  Al5  1  0.83818938  0.33624087  0.68331418  1
  Al  Al6  1  0.33726739  0.32341691  0.17770056  1
  Al  Al7  1  0.83673002  0.34040925  0.18688488  1
  Al  Al8  1  0.34014515  0.33531114  0.98842373  1
  Al  Al9  1  0.83649044  0.32523606  0.98311298  1
  Al  Al10  1  0.33550779  0.34688148  0.48582711  1
  Al  Al11  1  0.83975889  0.34470910  0.49162242  1
  Al  Al12  1  0.15980379  0.64784531  0.02481006  1
  Al  Al13  1  0.65837249  0.66207559  0.02243565  1
  Al  Al14  1  0.15800769  0.65433973  0.52458939  1
  Al  Al15  1  0.66029067  0.67348995  0.52670534  1
  Al  Al16  1  0.65874609  0.66003183  0.30736159  1
  Al  Al17  1  0.15729782  0.65505129  0.80646356  1
  Si  Si0  1  0.64936562  0.00299305  0.25319592  1
  Si  Si1  1  0.85359947  0.70304893  0.25575717  1
  Si  Si2  1  0.99595100  0.28409183  0.25205703  1
  Si  Si3  1  0.49292120  0.28634994  0.25504131  1
  Si  Si4  1  0.14950481  0.29501837  0.75276098  1
  Si  Si5  1  0.99419642  0.70292711  0.75517964  1
  Si  Si6  1  0.49466085  0.70589383  0.75268247  1
  Si  Si7  1  0.35332434  0.00374991  0.75582534  1
  Si  Si8  1  0.85290085  0.00531571  0.75075623  1
  Si  Si9  1  0.47458332  0.33842406  0.58182206  1
  Si  Si10  1  0.97720995  0.33565522  0.58293265  1
  Si  Si11  1  0.19406397  0.04780709  0.58137809  1
  Si  Si12  1  0.69543187  0.05423735  0.58224813  1
  Si  Si13  1  0.32772036  0.61140819  0.58278484  1
  Si  Si14  1  0.82891664  0.61514528  0.58261033  1
  Si  Si15  1  0.47662871  0.61668504  0.08329237  1
  Si  Si16  1  0.97465493  0.61034175  0.08176166  1
  Si  Si17  1  0.32794753  0.03848695  0.08139865  1
  Si  Si18  1  0.82718505  0.04469586  0.08287591  1
  Si  Si19  1  0.19643781  0.33781196  0.08282989  1
  Si  Si20  1  0.69806567  0.34666816  0.08099411  1
  Si  Si21  1  0.02314384  0.37753600  0.91621718  1
  Si  Si22  1  0.51792144  0.37008930  0.91982376  1
  Si  Si23  1  0.66634628  0.96517076  0.92097742  1
  Si  Si24  1  0.16620221  0.36698961  0.42120695  1
  Si  Si25  1  0.01595130  0.66579640  0.42171482  1
  Si  Si26  1  0.52292625  0.66798348  0.41541034  1
  S  S0  1  0.14812787  0.00677220  0.25120745  1
  S  S1  1  0.35437306  0.70967199  0.25091955  1
  S  S2  1  0.64625032  0.28870121  0.75132659  1
  S  S3  1  0.30964826  0.66499293  0.91707231  1
  S  S4  1  0.81234791  0.66716438  0.91816626  1
  S  S5  1  0.16715075  0.95455545  0.91709164  1
  S  S6  1  0.31313115  0.95672804  0.41672905  1
  S  S7  1  0.80961125  0.95350455  0.41621690  1
  S  S8  1  0.66631916  0.37845642  0.41598468  1
  O  O0  1  0.10545597  0.02695324  0.30585011  1
  O  O1  1  0.60077220  0.03612896  0.30968600  1
  O  O2  1  0.40993552  0.79298642  0.30575897  1
  O  O3  1  0.91733656  0.80716366  0.31209318  1
  O  O4  1  0.48229497  0.16070016  0.31251884  1
  O  O5  1  0.98574721  0.16593656  0.31080535  1
  O  O6  1  0.10358098  0.16735638  0.81073465  1
  O  O7  1  0.60435665  0.18095287  0.80593059  1
  O  O8  1  0.48465416  0.80512113  0.81103314  1
  O  O9  1  0.98514104  0.80641162  0.81353848  1
  O  O10  1  0.41713534  0.02768218  0.81234172  1
  O  O11  1  0.91381348  0.03624662  0.81015503  1
  O  O12  1  0.39910734  0.96465368  0.69402810  1
  O  O13  1  0.89769431  0.96803517  0.69067823  1
  O  O14  1  0.08370946  0.20641031  0.69262435  1
  O  O15  1  0.59154745  0.21256819  0.69580591  1
  O  O16  1  0.01719649  0.83164930  0.69347054  1
  O  O17  1  0.51708417  0.83246636  0.69163223  1
  O  O18  1  0.39338893  0.81540990  0.19549436  1
  O  O19  1  0.89920031  0.83410509  0.19406373  1
  O  O20  1  0.01830133  0.20336799  0.19144550  1
  O  O21  1  0.51329916  0.19654505  0.19406652  1
  O  O22  1  0.09305133  0.97016247  0.19586200  1
  O  O23  1  0.58214635  0.96044430  0.19324268  1
  O  O24  1  0.43232456  0.37497840  0.64016113  1
  O  O25  1  0.93576857  0.37246903  0.64213217  1
  O  O26  1  0.25160300  0.13175069  0.64220434  1
  O  O27  1  0.75549717  0.14171671  0.64083790  1
  O  O28  1  0.31359657  0.49856822  0.64322290  1
  O  O29  1  0.81116739  0.48945559  0.64034585  1
  O  O30  1  0.43472187  0.50060741  0.14395550  1
  O  O31  1  0.93269006  0.49084227  0.14078447  1
  O  O32  1  0.31052023  0.12362316  0.14052128  1
  O  O33  1  0.81333227  0.12794426  0.14393290  1
  O  O34  1  0.25694379  0.36999229  0.14242249  1
  O  O35  1  0.75064972  0.36920129  0.14335412  1
  O  O36  1  0.23611028  0.29755075  0.02153714  1
  O  O37  1  0.73459883  0.29708508  0.02151509  1
  O  O38  1  0.41536949  0.54000718  0.02333949  1
  O  O39  1  0.91383421  0.53783454  0.02118157  1
  O  O40  1  0.35356960  0.16492384  0.02233182  1
  O  O41  1  0.85430060  0.16731129  0.02327706  1
  O  O42  1  0.23476319  0.17075060  0.52088375  1
  O  O43  1  0.73437755  0.17140222  0.51970697  1
  O  O44  1  0.35467857  0.54406542  0.52245804  1
  O  O45  1  0.85169413  0.54130537  0.52104773  1
  O  O46  1  0.41469083  0.29118123  0.52021642  1
  O  O47  1  0.91664636  0.29182949  0.52192278  1
  O  O48  1  0.27110344  0.69769801  0.97212066  1
  O  O49  1  0.77251762  0.69825051  0.97231483  1
  O  O50  1  0.08656546  0.46781815  0.97594842  1
  O  O51  1  0.58327733  0.46360113  0.97716845  1
  O  O52  1  0.15432164  0.84637924  0.97212543  1
  O  O53  1  0.64826996  0.83082716  0.97665092  1
  O  O54  1  0.27416385  0.84725491  0.47069370  1
  O  O55  1  0.77110598  0.84385732  0.47107123  1
  O  O56  1  0.14900269  0.46911867  0.47512609  1
  O  O57  1  0.65225512  0.45749827  0.47064609  1
  O  O58  1  0.08531466  0.70392624  0.47543264  1
  O  O59  1  0.58712633  0.70741939  0.47461442  1
  O  O60  1  0.06648245  0.63324529  0.36082318  1
  O  O61  1  0.56975879  0.63468285  0.35685115  1
  O  O62  1  0.25717224  0.87494592  0.36162806  1
  O  O63  1  0.75533264  0.87171953  0.36162832  1
  O  O64  1  0.18478278  0.50304323  0.36043546  1
  O  O65  1  0.68145329  0.48841115  0.36138038  1
  O  O66  1  0.07059619  0.50648596  0.85814782  1
  O  O67  1  0.56789567  0.50150602  0.86093137  1
  O  O68  1  0.18299172  0.87665519  0.86267752  1
  O  O69  1  0.68518057  0.86974805  0.86112058  1
  O  O70  1  0.25573091  0.63853811  0.86259317  1
  O  O71  1  0.75675604  0.63657705  0.86356195  1
  O  O72  1  0.01056117  0.84188615  0.40878153  1
  O  O73  1  0.50891835  0.84349648  0.40649212  1
  O  O74  1  0.40117720  0.97355522  0.40989329  1
  O  O75  1  0.89909890  0.97551969  0.41174990  1
  O  O76  1  0.07854556  0.17958293  0.40739189  1
  O  O77  1  0.58556022  0.20026345  0.41112029  1
  O  O78  1  0.01170387  0.17755045  0.90982163  1
  O  O79  1  0.50987236  0.17857599  0.90977580  1
  O  O80  1  0.08727629  0.97105194  0.91304359  1
  O  O81  1  0.57815717  0.97760617  0.90826016  1
  O  O82  1  0.39889335  0.82122647  0.91290536  1
  O  O83  1  0.90054246  0.82434403  0.91258944  1
  O  O84  1  0.48975364  0.16673979  0.58976079  1
  O  O85  1  0.98837888  0.16142102  0.58695618  1
  O  O86  1  0.09440828  0.02407399  0.58735099  1
  O  O87  1  0.59547183  0.02964352  0.58855634  1
  O  O88  1  0.41740583  0.81276800  0.58795474  1
  O  O89  1  0.91721783  0.81165819  0.58787659  1
  O  O90  1  0.48588300  0.81242495  0.09025055  1
  O  O91  1  0.99003080  0.81297483  0.09068998  1
  O  O92  1  0.41592019  0.01767592  0.09099233  1
  O  O93  1  0.91727770  0.02277415  0.08825721  1
  O  O94  1  0.09673995  0.16238942  0.08992299  1
  O  O95  1  0.59606014  0.16743820  0.08777566  1
  O  O96  1  0.34222618  0.17047247  0.74415773  1
  O  O97  1  0.84488906  0.17744268  0.74236484  1
  O  O98  1  0.24312777  0.31026686  0.74395082  1
  O  O99  1  0.73263920  0.30440265  0.74521045  1
  O  O100  1  0.40991394  0.51975889  0.74369561  1
  O  O101  1  0.91098956  0.51130754  0.74410912  1
  O  O102  1  0.34586009  0.53663612  0.24644212  1
  O  O103  1  0.84197132  0.51359505  0.24428964  1
  O  O104  1  0.40969274  0.31564920  0.24378122  1
  O  O105  1  0.91134653  0.30260289  0.24398540  1
  O  O106  1  0.23383952  0.16292662  0.24507429  1
  O  O107  1  0.74244293  0.17512667  0.24431374  1
  O  O108  1  0.31852262  0.50603314  0.92219873  1
  O  O109  1  0.82053722  0.50866565  0.92225877  1
  O  O110  1  0.42112057  0.35662669  0.92434866  1
  O  O111  1  0.92602501  0.35994830  0.92322910  1
  O  O112  1  0.24512465  0.13348668  0.92195772  1
  O  O113  1  0.75386120  0.15653325  0.92357433  1
  O  O114  1  0.32150611  0.13093236  0.42003527  1
  O  O115  1  0.81867034  0.12983618  0.42062937  1
  O  O116  1  0.25421729  0.35187367  0.42217875  1
  O  O117  1  0.74357204  0.35445426  0.42024564  1
  O  O118  1  0.42559484  0.49295229  0.42201596  1
  O  O119  1  0.92072570  0.48570953  0.42341972  1
  O  O120  1  0.18139697  0.50592873  0.07672121  1
  O  O121  1  0.67919404  0.50856664  0.07458196  1
  O  O122  1  0.07496764  0.64634766  0.07449129  1
  O  O123  1  0.57408662  0.64349429  0.07796504  1
  O  O124  1  0.24478403  0.84320187  0.07122714  1
  O  O125  1  0.74699118  0.84550675  0.07402187  1
  O  O126  1  0.18007541  0.85082828  0.57341197  1
  O  O127  1  0.68053842  0.85631246  0.57583871  1
  O  O128  1  0.24702583  0.64808316  0.57296135  1
  O  O129  1  0.74494397  0.64427147  0.57070847  1
  O  O130  1  0.07423596  0.50557225  0.57716751  1
  O  O131  1  0.57447646  0.50334648  0.57374001  1
  O  O132  1  0.15820787  0.84814250  0.25767624  1
  O  O133  1  0.65546878  0.82607552  0.25804052  1
  O  O134  1  0.26783048  0.69788171  0.25654518  1
  O  O135  1  0.75737405  0.68981918  0.26255476  1
  O  O136  1  0.08706069  0.48239763  0.25516743  1
  O  O137  1  0.58433180  0.47445617  0.25782494  1
  O  O138  1  0.15619780  0.48490882  0.75829098  1
  O  O139  1  0.65458104  0.46319998  0.75740511  1
  O  O140  1  0.08534968  0.69484530  0.75793349  1
  O  O141  1  0.58435078  0.68988439  0.75494524  1
  O  O142  1  0.25761284  0.82454394  0.76279067  1
  O  O143  1  0.75942451  0.82038339  0.75726071  1
loop_
_geom_bond_atom_site_label_1
_geom_bond_atom_site_label_2
_geom_bond_distance
_geom_bond_site_symmetry_2
Na0 O105 2.347718 1_555
Na0 O135 2.431805 1_545
Na0 O107 2.457150 1_555
Na0 O133 2.464947 1_545
Na0 O33 2.540724 1_555
Na0 O63 2.743207 1_545
Na0 O19 2.822611 1_545
Na0 O5 2.960842 1_555
Na1 O107 2.377012 1_555
Na1 O103 2.387885 1_555
Na1 O137 2.423553 1_555
Na1 O135 2.486978 1_555
Na1 O35 2.547062 1_555
Na1 O65 2.748143 1_555
Na1 O21 2.895002 1_555
Na1 O1 2.905432 1_555
Na2 O133 2.401001 1_555
Na2 O104 2.410913 1_555
Na2 O137 2.452442 1_555
Na2 O102 2.455671 1_555
Na2 O30 2.574305 1_555
Na2 O61 2.646684 1_555
Na2 O23 2.826570 1_555
Na2 O2 2.955356 1_555
Na3 O100 2.328932 1_555
Na3 O142 2.424746 1_555
Na3 O138 2.443523 1_555
Na3 O98 2.449403 1_555
Na3 O28 2.560855 1_555
Na3 O70 2.758791 1_555
Na3 O12 2.829415 1_555
Na3 O8 2.958056 1_555
Na4 O97 2.378225 1_555
Na4 O101 2.433936 1_555
Na4 O138 2.460584 1_655
Na4 O140 2.511529 1_655
Na4 O25 2.603944 1_555
Na4 O66 2.696616 1_655
Na4 O14 2.849525 1_655
Na4 O11 2.877950 1_555
Na5 O98 2.381354 1_555
Na5 O140 2.410185 1_545
Na5 O96 2.415215 1_555
Na5 O142 2.509670 1_545
Na5 O26 2.571853 1_555
Na5 O68 2.775222 1_545
Na5 O16 2.821468 1_545
Na5 O6 2.881439 1_555
Na6 O86 2.423035 1_555
Na6 O128 2.423828 1_555
Na6 O130 2.490946 1_555
Na6 O85 2.509315 1_455
Na6 O56 2.661999 1_555
Na6 O14 2.674670 1_555
Na6 O28 2.804952 1_555
Na6 O42 2.892614 1_555
Na7 O129 2.374613 1_555
Na7 O87 2.400775 1_555
Na7 O131 2.482883 1_555
Na7 O84 2.519085 1_555
Na7 O15 2.685901 1_555
Na7 O29 2.704860 1_555
Na7 O57 2.715076 1_555
Na7 O43 2.902959 1_555
Na8 O130 2.371716 1_555
Na8 O89 2.442459 1_455
Na8 O126 2.511707 1_555
Na8 O86 2.512591 1_565
Na8 O58 2.661933 1_555
Na8 O16 2.689216 1_555
Na8 O25 2.797513 1_455
Na8 O45 2.885921 1_455
Na9 O131 2.382187 1_555
Na9 O88 2.452232 1_555
Na9 O127 2.540723 1_555
Na9 O87 2.596134 1_565
Na9 O59 2.672993 1_555
Na9 O17 2.689376 1_555
Na9 O24 2.736786 1_555
Na9 O44 2.795859 1_555
Na10 O126 2.315140 1_555
Na10 O128 2.481395 1_555
Na10 O84 2.486262 1_565
Na10 O88 2.557096 1_555
Na10 O12 2.705456 1_555
Na10 O54 2.710415 1_555
Na10 O26 2.743790 1_565
Na10 O46 2.846087 1_565
Na11 O127 2.361295 1_555
Na11 O85 2.417259 1_565
Na11 O89 2.506115 1_555
Na11 O129 2.511538 1_555
Na11 O13 2.582183 1_555
Na11 O55 2.738906 1_555
Na11 O27 2.789548 1_565
Na11 O47 2.845650 1_565
Na12 O124 2.390646 1_555
Na12 O94 2.391727 1_565
Na12 O122 2.458773 1_555
Na12 O91 2.495208 1_455
Na12 O52 2.652659 1_554
Na12 O22 2.716487 1_555
Na12 O32 2.741394 1_565
Na12 O36 2.871957 1_565
Na13 O125 2.368153 1_555
Na13 O95 2.469775 1_565
Na13 O123 2.476870 1_555
Na13 O53 2.559595 1_554
Na13 O90 2.596160 1_555
Na13 O23 2.777561 1_555
Na13 O33 2.803364 1_565
Na13 O37 2.850436 1_565
Na14 O120 2.324348 1_555
Na14 O90 2.400911 1_555
Na14 O124 2.480918 1_555
Na14 O92 2.493271 1_565
Na14 O48 2.640756 1_554
Na14 O18 2.718676 1_555
Na14 O38 2.792158 1_555
Na14 O34 2.817786 1_555
Na15 O121 2.338948 1_555
Na15 O125 2.458217 1_555
Na15 O91 2.482450 1_555
Na15 O93 2.542217 1_565
Na15 O49 2.642326 1_554
Na15 O19 2.737298 1_555
Na15 O35 2.808209 1_555
Na15 O39 2.819471 1_555
Na16 O122 2.382268 1_555
Na16 O93 2.453001 1_455
Na16 O120 2.552398 1_555
Na16 O50 2.605829 1_554
Na16 O94 2.610863 1_555
Na16 O20 2.717413 1_555
Na16 O31 2.767079 1_455
Na16 O41 2.770879 1_455
Na17 O123 2.343290 1_555
Na17 O121 2.481594 1_555
Na17 O92 2.521291 1_555
Na17 O51 2.530662 1_554
Na17 O95 2.540032 1_555
Na17 O21 2.789432 1_555
Na17 O40 2.819087 1_555
Na17 O30 2.863470 1_555
Na18 O110 2.396734 1_555
Na18 O81 2.404586 1_555
Na18 O82 2.520288 1_555
Na18 O108 2.572413 1_555
Na18 O38 2.627822 1_556
Na18 O8 2.629163 1_555
Na18 O53 2.810527 1_555
Na18 O67 2.811195 1_555
Na19 O111 2.321894 1_555
Na19 O80 2.441372 1_655
Na19 O109 2.498347 1_555
Na19 O83 2.530924 1_555
Na19 O9 2.558874 1_555
Na19 O39 2.616919 1_556
Na19 O66 2.805900 1_655
Na19 O52 2.920131 1_655
Na20 O79 2.407321 1_555
Na20 O112 2.438505 1_555
Na20 O110 2.438941 1_555
Na20 O82 2.448913 1_545
Na20 O10 2.549604 1_555
Na20 O40 2.607889 1_556
Na20 O68 2.851051 1_545
Na20 O48 2.919269 1_545
Na21 O113 2.406128 1_555
Na21 O111 2.419532 1_555
Na21 O78 2.451666 1_655
Na21 O83 2.490888 1_545
Na21 O11 2.584464 1_555
Na21 O41 2.590574 1_556
Na21 O69 2.837194 1_545
Na21 O49 2.939281 1_545
Na22 O78 2.343444 1_555
Na22 O108 2.427639 1_555
Na22 O80 2.522805 1_545
Na22 O112 2.528924 1_555
Na22 O6 2.581790 1_555
Na22 O36 2.637902 1_556
Na22 O50 2.793816 1_555
Na22 O70 2.863391 1_555
Na23 O79 2.418554 1_555
Na23 O109 2.432636 1_555
Na23 O113 2.435249 1_555
Na23 O81 2.464762 1_545
Na23 O37 2.537615 1_556
Na23 O7 2.717537 1_555
Na23 O51 2.837432 1_555
Na23 O71 2.889742 1_555
Na24 O118 2.309757 1_555
Na24 O77 2.450695 1_555
Na24 O114 2.481095 1_555
Na24 O46 2.533148 1_555
Na24 O74 2.580956 1_545
Na24 O4 2.652634 1_555
Na24 O61 2.829560 1_555
Na24 O57 2.851228 1_555
Na25 O119 2.399417 1_555
Na25 O76 2.415072 1_655
Na25 O75 2.512626 1_545
Na25 O47 2.528338 1_555
Na25 O115 2.544038 1_555
Na25 O5 2.689387 1_555
Na25 O56 2.797045 1_655
Na25 O60 2.851340 1_655
Na26 O72 2.415499 1_545
Na26 O116 2.435768 1_555
Na26 O114 2.457000 1_555
Na26 O76 2.460007 1_555
Na26 O42 2.474506 1_555
Na26 O0 2.759290 1_555
Na26 O58 2.792574 1_545
Na26 O62 2.966564 1_545
Na27 O115 2.402798 1_555
Na27 O73 2.418956 1_545
Na27 O117 2.514224 1_555
Na27 O43 2.534712 1_555
Na27 O77 2.550274 1_555
Na27 O1 2.678044 1_555
Na27 O59 2.732993 1_545
Na27 O63 2.880126 1_545
Na28 O116 2.369388 1_555
Na28 O118 2.396055 1_555
Na28 O44 2.450755 1_555
Na28 O73 2.453063 1_555
Na28 O74 2.495565 1_555
Na28 O2 2.775326 1_555
Na28 O54 2.866413 1_555
Na28 O64 2.878917 1_555
Na29 O119 2.431200 1_555
Na29 O72 2.432235 1_655
Na29 O75 2.443010 1_555
Na29 O117 2.452793 1_555
Na29 O45 2.530234 1_555
Na29 O3 2.599976 1_555
Na29 O55 2.881107 1_555
Na29 O65 2.895349 1_555
Na30 O86 2.438105 1_555
Na30 O85 2.453480 1_455
Na30 O89 2.494519 1_445
Na30 O72 2.515165 1_545
Na30 O76 2.531484 1_555
Na30 O75 2.605565 1_445
Na31 O87 2.463737 1_565
Na31 O88 2.469265 1_555
Na31 O73 2.518092 1_555
Na31 O84 2.542823 1_565
Na31 O77 2.587376 1_565
Na31 O74 2.604002 1_555
Na32 O78 2.396349 1_555
Na32 O83 2.524128 1_445
Na32 O80 2.529569 1_545
Na32 O93 2.532359 1_456
Na32 O94 2.558347 1_556
Na32 O91 2.610096 1_446
Na33 O79 2.408215 1_555
Na33 O81 2.431921 1_545
Na33 O82 2.517551 1_545
Na33 O95 2.548293 1_556
Na33 O90 2.591012 1_546
Na33 O92 2.629800 1_556
Na34 O96 2.339780 1_555
Na34 O100 2.353416 1_555
Na34 O98 2.416591 1_555
Na34 O110 2.539442 1_555
Na34 O112 2.713822 1_555
Na34 O108 2.727764 1_555
Na35 O101 2.403185 1_555
Na35 O97 2.408918 1_555
Na35 O99 2.510823 1_555
Na35 O111 2.543592 1_555
Na35 O113 2.544002 1_555
Na35 O109 2.666750 1_555
Na36 O104 2.434836 1_555
Na36 O116 2.466111 1_555
Na36 O118 2.482168 1_555
Na36 O106 2.540186 1_555
Na36 O114 2.543593 1_555
Na36 O102 2.557489 1_555
Na37 O103 2.347344 1_555
Na37 O105 2.370367 1_555
Na37 O107 2.437126 1_555
Na37 O119 2.505517 1_555
Na37 O115 2.685031 1_555
Na37 O117 2.686267 1_555
Na38 O122 2.454986 1_555
Na38 O120 2.459019 1_555
Na38 O124 2.514916 1_555
Na38 O136 2.529766 1_555
Na38 O134 2.664375 1_555
Na38 O132 2.689168 1_555
Na39 O123 2.478133 1_555
Na39 O121 2.508363 1_555
Na39 O125 2.511439 1_555
Na39 O133 2.549049 1_555
Na39 O137 2.584759 1_555
Na39 O135 2.595124 1_555
Na40 O130 2.494677 1_555
Na40 O138 2.532844 1_555
Na40 O126 2.541334 1_555
Na40 O140 2.549687 1_555
Na40 O128 2.566033 1_555
Na40 O142 2.599420 1_555
Na41 O127 2.501088 1_555
Na41 O143 2.515111 1_555
Na41 O141 2.531126 1_555
Na41 O131 2.548179 1_555
Na41 O129 2.557894 1_555
Na41 O139 2.654629 1_555
Nb0 O16 1.922463 1_555
Nb0 O13 1.943621 1_455
Nb0 O14 1.957429 1_565
Nb0 O89 2.047358 1_455
Nb0 O85 2.053303 1_465
Nb0 O86 2.058339 1_565
Nb1 O17 1.917169 1_555
Nb1 O12 1.924904 1_555
Nb1 O88 1.942738 1_555
Nb1 O84 2.017832 1_565
Nb1 O87 2.058969 1_565
Nb1 O15 2.162074 1_565
Nb2 O93 1.921603 1_565
Nb2 O19 1.929820 1_555
Nb2 O20 1.935736 1_665
Nb2 O91 2.002382 1_555
Nb2 O94 2.046236 1_665
Nb2 O22 2.197295 1_655
Nb3 O95 1.918979 1_555
Nb3 O21 1.919199 1_555
Nb3 O23 1.934830 1_545
Nb3 O92 2.007934 1_555
Nb3 O90 2.011769 1_545
Nb3 O18 2.223768 1_545
Nb4 O60 1.856241 1_555
Nb4 O64 1.861558 1_555
Nb4 O136 1.886434 1_555
Nb4 O62 2.169742 1_555
Nb4 O132 2.171760 1_555
Nb4 O134 2.191284 1_555
Nb5 O69 1.878706 1_555
Nb5 O141 1.888264 1_555
Nb5 O67 1.952827 1_555
Nb5 O143 1.953241 1_555
Nb5 O139 2.198377 1_555
Nb5 O71 2.205314 1_555
Al0 O3 1.810138 1_455
Al0 O5 1.848387 1_465
Al0 O76 1.949488 1_565
Al0 O72 1.951987 1_555
Al0 O0 2.006928 1_565
Al0 O75 2.172440 1_455
Al1 O1 1.768389 1_555
Al1 O4 1.826024 1_555
Al1 O73 1.922387 1_545
Al1 O2 1.989823 1_545
Al1 O77 2.143347 1_555
Al1 O74 2.216032 1_545
Al2 O11 1.780215 1_455
Al2 O6 1.783269 1_555
Al2 O9 1.840548 1_445
Al2 O78 2.008275 1_555
Al2 O83 2.320960 1_445
Al2 O80 2.344017 1_545
Al3 O10 1.806193 1_555
Al3 O8 1.852766 1_545
Al3 O7 1.950535 1_555
Al3 O81 1.959230 1_545
Al3 O79 1.974729 1_555
Al3 O82 2.229004 1_545
Al4 O24 1.868529 1_555
Al4 O26 1.916037 1_555
Al4 O96 1.945102 1_555
Al4 O28 1.955706 1_555
Al4 O100 1.968869 1_555
Al4 O98 1.998020 1_555
Al5 O25 1.834000 1_555
Al5 O27 1.860044 1_555
Al5 O29 1.896532 1_555
Al5 O97 1.956630 1_555
Al5 O101 1.961932 1_555
Al5 O99 2.216529 1_555
Al6 O32 1.785802 1_555
Al6 O30 1.813566 1_555
Al6 O34 1.834804 1_555
Al6 O104 1.956230 1_555
Al6 O106 2.230568 1_555
Al6 O102 2.365316 1_555
Al7 O31 1.852898 1_555
Al7 O35 1.917078 1_555
Al7 O103 1.953939 1_555
Al7 O33 1.956872 1_555
Al7 O105 1.963356 1_555
Al7 O107 2.021815 1_555
Al8 O38 1.798774 1_556
Al8 O40 1.799268 1_556
Al8 O36 1.851444 1_556
Al8 O110 1.953751 1_555
Al8 O108 2.260123 1_555
Al8 O112 2.268607 1_555
Al9 O41 1.806608 1_556
Al9 O39 1.882258 1_556
Al9 O37 1.894739 1_556
Al9 O111 1.966256 1_555
Al9 O113 1.973358 1_555
Al9 O109 2.224154 1_555
Al10 O44 1.795773 1_555
Al10 O42 1.853005 1_555
Al10 O46 1.859468 1_555
Al10 O116 2.018219 1_555
Al10 O118 2.032313 1_555
Al10 O114 2.311993 1_555
Al11 O45 1.769306 1_555
Al11 O47 1.772406 1_555
Al11 O43 1.833474 1_555
Al11 O119 2.019582 1_555
Al11 O117 2.342598 1_555
Al11 O115 2.343808 1_555
Al12 O50 1.818757 1_554
Al12 O122 1.854891 1_555
Al12 O120 1.868971 1_555
Al12 O124 1.921761 1_555
Al12 O48 2.136500 1_554
Al12 O52 2.143990 1_554
Al13 O51 1.873506 1_554
Al13 O123 1.873642 1_555
Al13 O53 1.879561 1_554
Al13 O121 1.945031 1_555
Al13 O125 1.958029 1_555
Al13 O49 2.183696 1_554
Al14 O130 1.823150 1_555
Al14 O58 1.887866 1_555
Al14 O56 1.908673 1_555
Al14 O126 1.912541 1_555
Al14 O128 1.920313 1_555
Al14 O54 2.247204 1_555
Al15 O127 1.827802 1_555
Al15 O131 1.834216 1_555
Al15 O59 1.857614 1_555
Al15 O129 1.902627 1_555
Al15 O55 2.161651 1_555
Al15 O57 2.221301 1_555
Al16 O61 1.836836 1_555
Al16 O133 1.847757 1_555
Al16 O137 1.858950 1_555
Al16 O135 1.907901 1_555
Al16 O65 2.115241 1_555
Al16 O63 2.156993 1_555
Al17 O140 1.821238 1_555
Al17 O66 1.834571 1_555
Al17 O138 1.835513 1_555
Al17 O142 1.916134 1_555
Al17 O68 2.167792 1_555
Al17 O70 2.193754 1_555
O0 S0 1.478862 1_555
O1 Si0 1.621434 1_555
O2 S1 1.494327 1_555
O3 Si1 1.615570 1_555
O4 Si3 1.628603 1_555
O5 Si2 1.611879 1_555
O6 Si4 1.625908 1_555
O7 S2 1.481080 1_555
O8 Si6 1.615504 1_555
O9 Si5 1.632064 1_555
O10 Si7 1.616306 1_555
O11 Si8 1.623304 1_555
O12 Si7 1.706342 1_565
O13 Si8 1.658946 1_565
O14 Si4 1.672493 1_555
O15 S2 1.490692 1_555
O16 Si5 1.683717 1_455
O17 Si6 1.662490 1_555
O18 S1 1.480200 1_555
O19 Si1 1.702917 1_555
O20 Si2 1.652970 1_455
O21 Si3 1.689060 1_555
O22 S0 1.486631 1_565
O23 Si0 1.683405 1_565
O24 Si9 1.599666 1_555
O25 Si10 1.607732 1_555
O26 Si11 1.616501 1_555
O27 Si12 1.599487 1_555
O28 Si13 1.602875 1_555
O29 Si14 1.609965 1_555
O30 Si15 1.619208 1_555
O31 Si16 1.602520 1_555
O32 Si17 1.609722 1_555
O33 Si18 1.609700 1_555
O34 Si19 1.620871 1_555
O35 Si20 1.608654 1_555
O36 Si19 1.641288 1_555
O37 Si20 1.616169 1_555
O38 Si15 1.621364 1_555
O39 Si16 1.626173 1_555
O40 Si17 1.622448 1_555
O41 Si18 1.612468 1_555
O42 Si11 1.639167 1_555
O43 Si12 1.650706 1_555
O44 Si13 1.622751 1_555
O45 Si14 1.640621 1_555
O46 Si9 1.636552 1_555
O47 Si10 1.634361 1_555
O48 S3 1.489285 1_555
O49 S4 1.480038 1_555
O50 Si21 1.648661 1_555
O51 Si22 1.627144 1_555
O52 S5 1.486283 1_555
O53 Si23 1.621117 1_555
O54 S6 1.467484 1_555
O55 S7 1.482828 1_555
O56 Si24 1.611603 1_555
O57 S8 1.474706 1_555
O58 Si25 1.609294 1_555
O59 Si26 1.642664 1_555
O60 Si25 1.715279 1_555
O61 Si26 1.638373 1_555
O62 S6 1.499656 1_555
O63 S7 1.478405 1_555
O64 Si24 1.714780 1_555
O65 S8 1.481230 1_555
O66 Si21 1.636975 1_555
O67 Si22 1.668427 1_555
O68 S5 1.477743 1_555
O69 Si23 1.686739 1_555
O70 S3 1.471878 1_555
O71 S4 1.485258 1_555
O72 Si25 1.632953 1_555
O73 Si26 1.702206 1_555
O74 S6 1.497993 1_555
O75 S7 1.499984 1_555
O76 Si24 1.637432 1_555
O77 S8 1.513938 1_555
O78 Si21 1.685023 1_555
O79 Si22 1.644695 1_555
O80 S5 1.494494 1_555
O81 Si23 1.641633 1_555
O82 S3 1.495413 1_555
O83 S4 1.490136 1_555
O84 Si9 1.678996 1_555
O85 Si10 1.652416 1_555
O86 Si11 1.674856 1_555
O87 Si12 1.677777 1_555
O88 Si13 1.698667 1_555
O89 Si14 1.663776 1_555
O90 Si15 1.664847 1_555
O91 Si16 1.686856 1_555
O92 Si17 1.669428 1_555
O93 Si18 1.703650 1_555
O94 Si19 1.677938 1_555
O95 Si20 1.714922 1_555
O96 Si7 1.603262 1_555
O97 Si8 1.609606 1_555
O98 Si4 1.606727 1_555
O99 S2 1.471527 1_555
O100 Si6 1.592586 1_555
O101 Si5 1.615942 1_555
O102 S1 1.466254 1_555
O103 Si1 1.605270 1_555
O104 Si3 1.636228 1_555
O105 Si2 1.594977 1_555
O106 S0 1.462194 1_555
O107 Si0 1.602957 1_555
O108 S3 1.496008 1_555
O109 S4 1.483540 1_555
O110 Si22 1.660682 1_555
O111 Si21 1.654827 1_655
O112 S5 1.497619 1_545
O113 Si23 1.628809 1_545
O114 S6 1.476009 1_545
O115 S7 1.491119 1_545
O116 Si24 1.629041 1_555
O117 S8 1.487627 1_555
O118 Si26 1.651122 1_555
O119 Si25 1.643745 1_655
O120 Si19 1.642848 1_555
O121 Si20 1.631846 1_555
O122 Si16 1.648421 1_455
O123 Si15 1.624515 1_555
O124 Si17 1.632384 1_565
O125 Si18 1.631954 1_565
O126 Si11 1.644363 1_565
O127 Si12 1.643239 1_565
O128 Si13 1.628678 1_555
O129 Si14 1.650310 1_555
O130 Si10 1.627949 1_455
O131 Si9 1.647359 1_555
O132 S0 1.507868 1_565
O133 Si0 1.626271 1_565
O134 S1 1.488287 1_555
O135 Si1 1.655415 1_555
O136 Si2 1.691462 1_455
O137 Si3 1.644660 1_555
O138 Si4 1.630277 1_555
O139 S2 1.483325 1_555
O140 Si5 1.651331 1_455
O141 Si6 1.663527 1_555
O142 Si7 1.651764 1_565
O143 Si8 1.653802 1_565
