# generated using pymatgen
data_Ba(GaSb)2
_symmetry_space_group_name_H-M   'P 1'
_cell_length_a   4.47411576
_cell_length_b   10.34269143
_cell_length_c   25.79596322
_cell_angle_alpha   90.00000000
_cell_angle_beta   90.00000000
_cell_angle_gamma   90.00000000
_symmetry_Int_Tables_number   1
_chemical_formula_structural   Ba(GaSb)2
_chemical_formula_sum   'Ba8 Ga16 Sb16'
_cell_volume   1193.69268761
_cell_formula_units_Z   8
loop_
 _symmetry_equiv_pos_site_id
 _symmetry_equiv_pos_as_xyz
  1  'x, y, z'
loop_
 _atom_site_type_symbol
 _atom_site_label
 _atom_site_symmetry_multiplicity
 _atom_site_fract_x
 _atom_site_fract_y
 _atom_site_fract_z
 _atom_site_occupancy
  Ba  Ba0  1  0.75000000  0.71929923  0.53846030  1
  Ba  Ba1  1  0.25000000  0.28070077  0.46153970  1
  Ba  Ba2  1  0.25000000  0.21929923  0.96153970  1
  Ba  Ba3  1  0.75000000  0.78070077  0.03846030  1
  Ba  Ba4  1  0.25000000  0.94910982  0.70667509  1
  Ba  Ba5  1  0.75000000  0.05089018  0.29332491  1
  Ba  Ba6  1  0.75000000  0.44910982  0.79332491  1
  Ba  Ba7  1  0.25000000  0.55089018  0.20667509  1
  Ga  Ga0  1  0.25000000  0.60420119  0.96503262  1
  Ga  Ga1  1  0.75000000  0.39579881  0.03496738  1
  Ga  Ga2  1  0.75000000  0.10420119  0.53496738  1
  Ga  Ga3  1  0.25000000  0.89579881  0.46503262  1
  Ga  Ga4  1  0.75000000  0.79685220  0.78470314  1
  Ga  Ga5  1  0.25000000  0.20314780  0.21529686  1
  Ga  Ga6  1  0.25000000  0.29685220  0.71529686  1
  Ga  Ga7  1  0.75000000  0.70314780  0.28470314  1
  Ga  Ga8  1  0.75000000  0.32090989  0.57961384  1
  Ga  Ga9  1  0.25000000  0.67909011  0.42038616  1
  Ga  Ga10  1  0.75000000  0.03078613  0.81809835  1
  Ga  Ga11  1  0.25000000  0.96921387  0.18190165  1
  Ga  Ga12  1  0.25000000  0.53078613  0.68190165  1
  Ga  Ga13  1  0.75000000  0.46921387  0.31809835  1
  Ga  Ga14  1  0.25000000  0.82090989  0.92038616  1
  Ga  Ga15  1  0.75000000  0.17909011  0.07961384  1
  Sb  Sb0  1  0.25000000  0.02872711  0.07949850  1
  Sb  Sb1  1  0.75000000  0.97127289  0.92050150  1
  Sb  Sb2  1  0.75000000  0.52872711  0.42050150  1
  Sb  Sb3  1  0.25000000  0.47127289  0.57949850  1
  Sb  Sb4  1  0.25000000  0.51884910  0.06873386  1
  Sb  Sb5  1  0.75000000  0.48115090  0.93126614  1
  Sb  Sb6  1  0.75000000  0.01884910  0.43126614  1
  Sb  Sb7  1  0.25000000  0.98115090  0.56873386  1
  Sb  Sb8  1  0.25000000  0.18351890  0.81364165  1
  Sb  Sb9  1  0.75000000  0.81648110  0.18635835  1
  Sb  Sb10  1  0.25000000  0.70115325  0.82873293  1
  Sb  Sb11  1  0.75000000  0.29884675  0.17126707  1
  Sb  Sb12  1  0.75000000  0.20115325  0.67126707  1
  Sb  Sb13  1  0.25000000  0.79884675  0.32873293  1
  Sb  Sb14  1  0.75000000  0.68351890  0.68635835  1
  Sb  Sb15  1  0.25000000  0.31648110  0.31364165  1
loop_
_geom_bond_atom_site_label_1
_geom_bond_atom_site_label_2
_geom_bond_distance
_geom_bond_site_symmetry_2
Ba0 Ga3 3.453196 1_555
Ba0 Ga3 3.453196 1_655
Ba0 Sb3 3.564500 1_655
Ba0 Sb3 3.564500 1_555
Ba0 Sb7 3.598460 1_555
Ba0 Sb7 3.598460 1_655
Ba0 Sb2 3.625459 1_555
Ba0 Ga9 3.801907 1_655
Ba0 Ga9 3.801907 1_555
Ba0 Sb14 3.833078 1_555
Ba1 Ga2 3.453196 1_455
Ba1 Ga2 3.453196 1_555
Ba1 Sb2 3.564500 1_555
Ba1 Sb2 3.564500 1_455
Ba1 Sb6 3.598460 1_455
Ba1 Sb6 3.598460 1_555
Ba1 Sb3 3.625459 1_555
Ba1 Ga8 3.801907 1_555
Ba1 Ga8 3.801907 1_455
Ba1 Sb15 3.833078 1_555
Ba2 Ga1 3.453196 1_456
Ba2 Ga1 3.453196 1_556
Ba2 Sb1 3.564500 1_445
Ba2 Sb1 3.564500 1_545
Ba2 Sb5 3.598460 1_455
Ba2 Sb5 3.598460 1_555
Ba2 Sb0 3.625459 1_556
Ba2 Ga15 3.801907 1_456
Ba2 Ga15 3.801907 1_556
Ba2 Sb8 3.833078 1_555
Ba3 Ga0 3.453196 1_554
Ba3 Ga0 3.453196 1_654
Ba3 Sb0 3.564500 1_565
Ba3 Sb0 3.564500 1_665
Ba3 Sb4 3.598460 1_555
Ba3 Sb4 3.598460 1_655
Ba3 Sb1 3.625459 1_554
Ba3 Ga14 3.801907 1_654
Ba3 Ga14 3.801907 1_554
Ba3 Sb9 3.833078 1_555
Ba4 Ga4 3.396421 1_555
Ba4 Ga4 3.396421 1_455
Ba4 Sb12 3.554454 1_565
Ba4 Sb12 3.554454 1_465
Ba4 Sb7 3.573725 1_555
Ba4 Sb14 3.581158 1_555
Ba4 Sb14 3.581158 1_455
Ba4 Ga6 3.603462 1_565
Ba4 Sb8 3.673089 1_565
Ba4 Ga10 3.738912 1_465
Ba4 Ga10 3.738912 1_565
Ba5 Ga5 3.396421 1_655
Ba5 Ga5 3.396421 1_555
Ba5 Sb13 3.554454 1_645
Ba5 Sb13 3.554454 1_545
Ba5 Sb6 3.573725 1_555
Ba5 Sb15 3.581158 1_655
Ba5 Sb15 3.581158 1_555
Ba5 Ga7 3.603462 1_545
Ba5 Sb9 3.673089 1_545
Ba5 Ga11 3.738912 1_545
Ba5 Ga11 3.738912 1_645
Ba6 Ga6 3.396421 1_555
Ba6 Ga6 3.396421 1_655
Ba6 Sb10 3.554454 1_555
Ba6 Sb10 3.554454 1_655
Ba6 Sb5 3.573725 1_555
Ba6 Sb8 3.581158 1_555
Ba6 Sb8 3.581158 1_655
Ba6 Ga4 3.603462 1_555
Ba6 Sb14 3.673089 1_555
Ba6 Ga12 3.738912 1_555
Ba6 Ga12 3.738912 1_655
Ba7 Ga7 3.396421 1_555
Ba7 Ga7 3.396421 1_455
Ba7 Sb11 3.554454 1_455
Ba7 Sb11 3.554454 1_555
Ba7 Sb4 3.573725 1_555
Ba7 Sb9 3.581158 1_555
Ba7 Sb9 3.581158 1_455
Ba7 Ga5 3.603462 1_555
Ba7 Sb15 3.673089 1_555
Ba7 Ga13 3.738912 1_555
Ba7 Ga13 3.738912 1_455
Ga0 Ga14 2.519933 1_555
Ga0 Sb5 2.717136 1_555
Ga0 Sb5 2.717136 1_455
Ga0 Sb4 2.816967 1_556
Ga1 Ga15 2.519933 1_555
Ga1 Sb4 2.717136 1_655
Ga1 Sb4 2.717136 1_555
Ga1 Sb5 2.816967 1_554
Ga2 Ga8 2.519933 1_555
Ga2 Sb7 2.717136 1_645
Ga2 Sb7 2.717136 1_545
Ga2 Sb6 2.816967 1_555
Ga3 Ga9 2.519933 1_555
Ga3 Sb6 2.717136 1_565
Ga3 Sb6 2.717136 1_465
Ga3 Sb7 2.816967 1_555
Ga4 Sb10 2.697058 1_655
Ga4 Sb10 2.697058 1_555
Ga4 Sb14 2.794609 1_555
Ga5 Sb11 2.697058 1_455
Ga5 Sb11 2.697058 1_555
Ga5 Sb15 2.794609 1_555
Ga6 Sb12 2.697058 1_455
Ga6 Sb12 2.697058 1_555
Ga6 Sb8 2.794609 1_555
Ga7 Sb13 2.697058 1_655
Ga7 Sb13 2.697058 1_555
Ga7 Sb9 2.794609 1_555
Ga8 Sb12 2.669079 1_555
Ga8 Sb3 2.724510 1_655
Ga8 Sb3 2.724510 1_555
Ga9 Sb13 2.669079 1_555
Ga9 Sb2 2.724510 1_555
Ga9 Sb2 2.724510 1_455
Ga10 Ga4 2.568293 1_545
Ga10 Sb1 2.712353 1_545
Ga10 Sb8 2.740984 1_555
Ga10 Sb8 2.740984 1_655
Ga11 Ga5 2.568293 1_565
Ga11 Sb0 2.712353 1_565
Ga11 Sb9 2.740984 1_555
Ga11 Sb9 2.740984 1_455
Ga12 Ga6 2.568293 1_555
Ga12 Sb3 2.712353 1_555
Ga12 Sb14 2.740984 1_555
Ga12 Sb14 2.740984 1_455
Ga13 Ga7 2.568293 1_555
Ga13 Sb2 2.712353 1_555
Ga13 Sb15 2.740984 1_655
Ga13 Sb15 2.740984 1_555
Ga14 Sb10 2.669079 1_555
Ga14 Sb1 2.724510 1_455
Ga14 Sb1 2.724510 1_555
Ga15 Sb11 2.669079 1_555
Ga15 Sb0 2.724510 1_555
Ga15 Sb0 2.724510 1_655
