# generated using pymatgen
data_Na2AsH15O11
_symmetry_space_group_name_H-M   'P 1'
_cell_length_a   11.02677800
_cell_length_b   9.49085900
_cell_length_c   13.55053590
_cell_angle_alpha   51.53192871
_cell_angle_beta   90.00000000
_cell_angle_gamma   90.00000000
_symmetry_Int_Tables_number   1
_chemical_formula_structural   Na2AsH15O11
_chemical_formula_sum   'Na8 As4 H60 O44'
_cell_volume   1110.31802771
_cell_formula_units_Z   4
loop_
 _symmetry_equiv_pos_site_id
 _symmetry_equiv_pos_as_xyz
  1  'x, y, z'
loop_
 _atom_site_type_symbol
 _atom_site_label
 _atom_site_symmetry_multiplicity
 _atom_site_fract_x
 _atom_site_fract_y
 _atom_site_fract_z
 _atom_site_occupancy
  Na  Na0  1  0.60311400  0.83108600  0.52165100  1
  Na  Na1  1  0.10311400  0.16891400  0.97834900  1
  Na  Na2  1  0.39688600  0.16891400  0.47834900  1
  Na  Na3  1  0.89688600  0.83108600  0.02165100  1
  Na  Na4  1  0.89628100  0.84421700  0.52071500  1
  Na  Na5  1  0.39628100  0.15578300  0.97928500  1
  Na  Na6  1  0.10371900  0.15578300  0.47928500  1
  Na  Na7  1  0.60371900  0.84421700  0.02071500  1
  As  As0  1  0.76652200  0.29484400  0.10397400  1
  As  As1  1  0.26652200  0.70515600  0.39602600  1
  As  As2  1  0.23347800  0.70515600  0.89602600  1
  As  As3  1  0.73347800  0.29484400  0.60397400  1
  H  H0  1  0.55472900  0.41277000  0.63052300  1
  H  H1  1  0.05472900  0.58723000  0.86947700  1
  H  H2  1  0.44527100  0.58723000  0.36947700  1
  H  H3  1  0.94527100  0.41277000  0.13052300  1
  H  H4  1  0.88797800  0.99997400  0.64788200  1
  H  H5  1  0.38797800  0.00002600  0.85211800  1
  H  H6  1  0.11202200  0.00002600  0.35211800  1
  H  H7  1  0.61202200  0.99997400  0.14788200  1
  H  H8  1  0.00108000  0.86870400  0.71911200  1
  H  H9  1  0.50108000  0.13129600  0.78088800  1
  H  H10  1  0.99892000  0.13129600  0.28088800  1
  H  H11  1  0.49892000  0.86870400  0.21911200  1
  H  H12  1  0.74756900  0.89285200  0.81300700  1
  H  H13  1  0.24756900  0.10714800  0.68699300  1
  H  H14  1  0.25243100  0.10714800  0.18699300  1
  H  H15  1  0.75243100  0.89285200  0.31300700  1
  H  H16  1  0.74754900  0.67927200  0.91234700  1
  H  H17  1  0.24754900  0.32072800  0.58765300  1
  H  H18  1  0.25245100  0.32072800  0.08765300  1
  H  H19  1  0.75245100  0.67927200  0.41234700  1
  H  H20  1  0.97196800  0.15515400  0.78182200  1
  H  H21  1  0.47196800  0.84484600  0.71817800  1
  H  H22  1  0.02803200  0.84484600  0.21817800  1
  H  H23  1  0.52803200  0.15515400  0.28182200  1
  H  H24  1  0.09173000  0.03255000  0.83206400  1
  H  H25  1  0.59173000  0.96745000  0.66793600  1
  H  H26  1  0.90827000  0.96745000  0.16793600  1
  H  H27  1  0.40827000  0.03255000  0.33206400  1
  H  H28  1  0.74186000  0.10837300  0.49959100  1
  H  H29  1  0.24186000  0.89162700  0.00040900  1
  H  H30  1  0.25814000  0.89162700  0.50040900  1
  H  H31  1  0.75814000  0.10837300  0.99959100  1
  H  H32  1  0.72302100  0.17548300  0.35849500  1
  H  H33  1  0.22302100  0.82451700  0.14150500  1
  H  H34  1  0.27697900  0.82451700  0.64150500  1
  H  H35  1  0.77697900  0.17548300  0.85849500  1
  H  H36  1  0.91174000  0.44840600  0.40465600  1
  H  H37  1  0.41174000  0.55159400  0.09534400  1
  H  H38  1  0.08826000  0.55159400  0.59534400  1
  H  H39  1  0.58826000  0.44840600  0.90465600  1
  H  H40  1  0.04923200  0.52225500  0.37114100  1
  H  H41  1  0.54923200  0.47774500  0.12885900  1
  H  H42  1  0.95076800  0.47774500  0.62885900  1
  H  H43  1  0.45076800  0.52225500  0.87114100  1
  H  H44  1  0.50840800  0.49077300  0.27517100  1
  H  H45  1  0.00840800  0.50922700  0.22482900  1
  H  H46  1  0.49159200  0.50922700  0.72482900  1
  H  H47  1  0.99159200  0.49077300  0.77517100  1
  H  H48  1  0.59737700  0.45074300  0.38457100  1
  H  H49  1  0.09737700  0.54925700  0.11542900  1
  H  H50  1  0.40262300  0.54925700  0.61542900  1
  H  H51  1  0.90262300  0.45074300  0.88457100  1
  H  H52  1  0.73069600  0.51382900  0.18776900  1
  H  H53  1  0.23069600  0.48617100  0.31223100  1
  H  H54  1  0.26930400  0.48617100  0.81223100  1
  H  H55  1  0.76930400  0.51382900  0.68776900  1
  H  H56  1  0.75631500  0.57176200  0.27146500  1
  H  H57  1  0.25631500  0.42823800  0.22853500  1
  H  H58  1  0.24368500  0.42823800  0.72853500  1
  H  H59  1  0.74368500  0.57176200  0.77146500  1
  O  O0  1  0.75075900  0.62002200  0.68318200  1
  O  O1  1  0.25075900  0.37997800  0.81681800  1
  O  O2  1  0.24924100  0.37997800  0.31681800  1
  O  O3  1  0.74924100  0.62002200  0.18318200  1
  O  O4  1  0.98760100  0.44153300  0.86527900  1
  O  O5  1  0.48760100  0.55846700  0.63472100  1
  O  O6  1  0.01239900  0.55846700  0.13472100  1
  O  O7  1  0.51239900  0.44153300  0.36527900  1
  O  O8  1  0.50730500  0.43301200  0.88047200  1
  O  O9  1  0.00730500  0.56698800  0.61952800  1
  O  O10  1  0.49269500  0.56698800  0.11952800  1
  O  O11  1  0.99269500  0.43301200  0.38047200  1
  O  O12  1  0.82521800  0.32695700  0.69076900  1
  O  O13  1  0.32521800  0.67304300  0.80923100  1
  O  O14  1  0.17478200  0.67304300  0.30923100  1
  O  O15  1  0.67478200  0.32695700  0.19076900  1
  O  O16  1  0.75267900  0.46030400  0.44467000  1
  O  O17  1  0.25267900  0.53969600  0.05533000  1
  O  O18  1  0.24732100  0.53969600  0.55533000  1
  O  O19  1  0.74732100  0.46030400  0.94467000  1
  O  O20  1  0.74396900  0.08356100  0.64655600  1
  O  O21  1  0.24396900  0.91643900  0.85344400  1
  O  O22  1  0.25603100  0.91643900  0.35344400  1
  O  O23  1  0.75603100  0.08356100  0.14655600  1
  O  O24  1  0.57953600  0.30112400  0.63993900  1
  O  O25  1  0.07953600  0.69887600  0.86006100  1
  O  O26  1  0.42046400  0.69887600  0.36006100  1
  O  O27  1  0.92046400  0.30112400  0.13993900  1
  O  O28  1  0.96220100  0.95325400  0.63570700  1
  O  O29  1  0.46220100  0.04674600  0.86429300  1
  O  O30  1  0.03779900  0.04674600  0.36429300  1
  O  O31  1  0.53779900  0.95325400  0.13570700  1
  O  O32  1  0.74764600  0.79038500  0.90445100  1
  O  O33  1  0.24764600  0.20961500  0.59554900  1
  O  O34  1  0.25235400  0.20961500  0.09554900  1
  O  O35  1  0.75235400  0.79038500  0.40445100  1
  O  O36  1  0.02374700  0.07380500  0.85572700  1
  O  O37  1  0.52374700  0.92619500  0.64427300  1
  O  O38  1  0.97625300  0.92619500  0.14427300  1
  O  O39  1  0.47625300  0.07380500  0.35572700  1
  O  O40  1  0.74555700  0.07186500  0.44547400  1
  O  O41  1  0.24555700  0.92813500  0.05452600  1
  O  O42  1  0.25444300  0.92813500  0.55452600  1
  O  O43  1  0.75444300  0.07186500  0.94547400  1
loop_
_geom_bond_atom_site_label_1
_geom_bond_atom_site_label_2
_geom_bond_distance
_geom_bond_site_symmetry_2
Na0 O5 2.394221 1_555
Na0 O40 2.412448 1_565
Na0 O39 2.423769 1_565
Na0 O0 2.449305 1_555
Na0 O35 2.478452 1_555
Na0 O37 2.491521 1_555
Na1 O4 2.394221 1_455
Na1 O41 2.412448 1_546
Na1 O38 2.423769 1_446
Na1 O1 2.449305 1_555
Na1 O34 2.478452 1_556
Na1 O36 2.491521 1_555
Na2 O7 2.394221 1_555
Na2 O42 2.412448 1_545
Na2 O37 2.423769 1_545
Na2 O2 2.449305 1_555
Na2 O33 2.478452 1_555
Na2 O39 2.491521 1_555
Na3 O6 2.394221 1_655
Na3 O43 2.412448 1_564
Na3 O36 2.423769 1_664
Na3 O3 2.449305 1_555
Na3 O32 2.478452 1_554
Na3 O38 2.491521 1_555
Na4 O30 2.356605 1_665
Na4 O40 2.393567 1_565
Na4 O9 2.414811 1_655
Na4 O28 2.456319 1_555
Na4 O0 2.474058 1_555
Na4 O35 2.502640 1_555
Na5 O31 2.356605 1_546
Na5 O41 2.393567 1_546
Na5 O8 2.414811 1_555
Na5 O29 2.456319 1_555
Na5 O1 2.474058 1_555
Na5 O34 2.502640 1_556
Na6 O28 2.356605 1_445
Na6 O42 2.393567 1_545
Na6 O11 2.414811 1_455
Na6 O30 2.456319 1_555
Na6 O2 2.474058 1_555
Na6 O33 2.502640 1_555
Na7 O29 2.356605 1_564
Na7 O43 2.393567 1_564
Na7 O10 2.414811 1_555
Na7 O31 2.456319 1_555
Na7 O3 2.474058 1_555
Na7 O32 2.502640 1_554
As0 O23 1.711089 1_555
As0 O15 1.716232 1_555
As0 O19 1.718465 1_554
As0 O27 1.777259 1_555
As1 O22 1.711089 1_555
As1 O14 1.716232 1_555
As1 O18 1.718465 1_555
As1 O26 1.777259 1_555
As2 O21 1.711089 1_555
As2 O13 1.716232 1_555
As2 O17 1.718465 1_556
As2 O25 1.777259 1_555
As3 O20 1.711089 1_555
As3 O12 1.716232 1_555
As3 O16 1.718465 1_555
As3 O24 1.777259 1_555
H0 O24 1.022587 1_555
H0 O5 1.600348 1_555
H1 O25 1.022587 1_555
H1 O4 1.600348 1_455
H2 O26 1.022587 1_555
H2 O7 1.600348 1_555
H3 O27 1.022587 1_555
H3 O6 1.600348 1_655
H4 O28 0.992316 1_555
H5 O29 0.992316 1_555
H6 O30 0.992316 1_555
H7 O31 0.992316 1_555
H8 O28 0.988275 1_455
H9 O29 0.988275 1_555
H10 O30 0.988275 1_655
H11 O31 0.988275 1_555
H12 O32 0.990911 1_555
H13 O33 0.990911 1_555
H14 O34 0.990911 1_555
H15 O35 0.990911 1_555
H16 O32 0.991544 1_555
H17 O33 0.991544 1_555
H18 O34 0.991544 1_555
H19 O35 0.991544 1_555
H20 O36 0.981335 1_655
H21 O37 0.981335 1_555
H22 O38 0.981335 1_455
H23 O39 0.981335 1_555
H24 O36 0.987053 1_555
H25 O37 0.987053 1_555
H26 O38 0.987053 1_555
H27 O39 0.987053 1_555
H28 O40 0.987721 1_555
H29 O41 0.987721 1_555
H30 O42 0.987721 1_555
H31 O43 0.987721 1_555
H32 O40 0.987891 1_555
H33 O41 0.987891 1_555
H34 O42 0.987891 1_555
H35 O43 0.987891 1_555
H36 O11 0.992558 1_555
H37 O10 0.992558 1_555
H38 O9 0.992558 1_555
H39 O8 0.992558 1_555
H40 O11 0.994382 1_455
H41 O10 0.994382 1_555
H42 O9 0.994382 1_655
H43 O8 0.994382 1_555
H44 O7 1.000634 1_555
H45 O6 1.000634 1_555
H46 O5 1.000634 1_555
H47 O4 1.000634 1_555
H48 O7 0.991182 1_555
H49 O6 0.991182 1_555
H50 O5 0.991182 1_555
H51 O4 0.991182 1_555
H52 O3 0.991729 1_555
H53 O2 0.991729 1_555
H54 O1 0.991729 1_555
H55 O0 0.991729 1_555
H56 O3 0.982473 1_555
H57 O2 0.982473 1_555
H58 O1 0.982473 1_555
H59 O0 0.982473 1_555
