# generated using pymatgen
data_Zr4Pd2O
_symmetry_space_group_name_H-M   'P 1'
_cell_length_a   8.84498474
_cell_length_b   8.84513106
_cell_length_c   8.84486055
_cell_angle_alpha   59.99721666
_cell_angle_beta   59.99663323
_cell_angle_gamma   59.99798310
_symmetry_Int_Tables_number   1
_chemical_formula_structural   Zr4Pd2O
_chemical_formula_sum   'Zr16 Pd8 O4'
_cell_volume   489.27220584
_cell_formula_units_Z   4
loop_
 _symmetry_equiv_pos_site_id
 _symmetry_equiv_pos_as_xyz
  1  'x, y, z'
loop_
 _atom_site_type_symbol
 _atom_site_label
 _atom_site_symmetry_multiplicity
 _atom_site_fract_x
 _atom_site_fract_y
 _atom_site_fract_z
 _atom_site_occupancy
  Zr  Zr0  1  0.31839871  0.68156267  0.31842803  1
  Zr  Zr1  1  0.93157545  0.56840313  0.93159452  1
  Zr  Zr2  1  0.68159530  0.31838145  0.68163083  1
  Zr  Zr3  1  0.68156182  0.31839777  0.31842827  1
  Zr  Zr4  1  0.31839663  0.68158289  0.68161862  1
  Zr  Zr5  1  0.62498521  0.12505010  0.12497377  1
  Zr  Zr6  1  0.93159372  0.93159578  0.56842430  1
  Zr  Zr7  1  0.68160310  0.68160740  0.31840346  1
  Zr  Zr8  1  0.12505125  0.62498520  0.12496816  1
  Zr  Zr9  1  0.12501507  0.12500729  0.62502089  1
  Zr  Zr10  1  0.31839423  0.31839349  0.68160013  1
  Zr  Zr11  1  0.12502109  0.12502194  0.12494419  1
  Zr  Zr12  1  0.56839017  0.56838992  0.93161389  1
  Zr  Zr13  1  0.56839976  0.93158759  0.93160551  1
  Zr  Zr14  1  0.93158840  0.56837051  0.56842172  1
  Zr  Zr15  1  0.56837213  0.93159165  0.56842091  1
  Pd  Pd0  1  0.27294224  0.90903534  0.90900161  1
  Pd  Pd1  1  0.90905376  0.90905568  0.90902086  1
  Pd  Pd2  1  0.90902152  0.90902405  0.27294401  1
  Pd  Pd3  1  0.34098358  0.97709409  0.34096114  1
  Pd  Pd4  1  0.34096533  0.34096264  0.34093945  1
  Pd  Pd5  1  0.97706990  0.34099098  0.34096922  1
  Pd  Pd6  1  0.34099077  0.34098763  0.97705302  1
  Pd  Pd7  1  0.90903866  0.27292311  0.90900776  1
  O  O0  1  0.62499508  0.62499453  0.62503156  1
  O  O1  1  0.12502735  0.62496877  0.62500632  1
  O  O2  1  0.62500230  0.62500680  0.12495814  1
  O  O3  1  0.62496747  0.12502757  0.62500971  1
loop_
_geom_bond_atom_site_label_1
_geom_bond_atom_site_label_2
_geom_bond_distance
_geom_bond_site_symmetry_2
Pd0 Zr9 2.767435 1_565
Pd0 Zr11 2.767651 1_566
Pd0 Zr8 2.767758 1_556
Pd0 Zr15 2.826723 1_555
Pd0 Zr13 2.827178 1_555
Pd0 Zr12 2.827229 1_555
Pd1 Zr9 2.767456 1_665
Pd1 Zr5 2.767792 1_566
Pd1 Zr8 2.767800 1_656
Pd1 Zr6 2.827236 1_555
Pd1 Zr13 2.827649 1_555
Pd1 Zr1 2.827770 1_555
Pd2 Zr11 2.767982 1_665
Pd2 Zr5 2.768076 1_565
Pd2 Zr8 2.768138 1_655
Pd2 Zr15 2.827258 1_555
Pd2 Zr6 2.827284 1_555
Pd2 Zr14 2.827337 1_555
Pd3 Zr5 2.767722 1_565
Pd3 Zr9 2.767908 1_565
Pd3 Zr11 2.767983 1_565
Pd3 Zr7 2.827232 1_555
Pd3 Zr4 2.827457 1_555
Pd3 Zr0 2.827676 1_555
Pd4 Zr5 2.767343 1_555
Pd4 Zr8 2.767402 1_555
Pd4 Zr9 2.767575 1_555
Pd4 Zr3 2.827296 1_555
Pd4 Zr0 2.827373 1_555
Pd4 Zr10 2.827573 1_555
Pd5 Zr8 2.767828 1_655
Pd5 Zr9 2.768029 1_655
Pd5 Zr11 2.768052 1_655
Pd5 Zr7 2.827155 1_555
Pd5 Zr2 2.827298 1_555
Pd5 Zr3 2.827512 1_555
Pd6 Zr5 2.767526 1_556
Pd6 Zr8 2.767534 1_556
Pd6 Zr11 2.767752 1_556
Pd6 Zr2 2.826826 1_555
Pd6 Zr4 2.826880 1_555
Pd6 Zr10 2.827278 1_555
Pd7 Zr9 2.767407 1_655
Pd7 Zr11 2.767606 1_656
Pd7 Zr5 2.767661 1_556
Pd7 Zr14 2.826857 1_555
Pd7 Zr1 2.827252 1_555
Pd7 Zr12 2.827302 1_555
O0 Zr12 2.321563 1_555
O0 Zr14 2.321645 1_555
O0 Zr15 2.321729 1_555
O0 Zr4 2.321823 1_555
O0 Zr7 2.321922 1_555
O0 Zr2 2.321942 1_555
O1 Zr0 2.321483 1_555
O1 Zr10 2.321560 1_555
O1 Zr1 2.321729 1_455
O1 Zr4 2.321761 1_555
O1 Zr6 2.322030 1_455
O1 Zr14 2.322082 1_455
O2 Zr1 2.321465 1_554
O2 Zr13 2.321538 1_554
O2 Zr12 2.321552 1_554
O2 Zr0 2.321896 1_555
O2 Zr3 2.321982 1_555
O2 Zr7 2.322234 1_555
O3 Zr10 2.321513 1_555
O3 Zr3 2.321519 1_555
O3 Zr13 2.321768 1_545
O3 Zr2 2.321789 1_555
O3 Zr6 2.321989 1_545
O3 Zr15 2.322083 1_545
