# generated using pymatgen
data_Na6Ta4In4Si7S5O48
_symmetry_space_group_name_H-M   'P 1'
_cell_length_a   18.00623158
_cell_length_b   8.96287402
_cell_length_c   22.92924594
_cell_angle_alpha   90.02372358
_cell_angle_beta   90.03456970
_cell_angle_gamma   119.85025389
_symmetry_Int_Tables_number   1
_chemical_formula_structural   Na6Ta4In4Si7S5O48
_chemical_formula_sum   'Na18 Ta12 In12 Si21 S15 O144'
_cell_volume   3209.54633962
_cell_formula_units_Z   3
loop_
 _symmetry_equiv_pos_site_id
 _symmetry_equiv_pos_as_xyz
  1  'x, y, z'
loop_
 _atom_site_type_symbol
 _atom_site_label
 _atom_site_symmetry_multiplicity
 _atom_site_fract_x
 _atom_site_fract_y
 _atom_site_fract_z
 _atom_site_occupancy
  Na  Na0  1  0.00065619  0.61694442  0.25285338  1
  Na  Na1  1  0.50021298  0.63824256  0.25957789  1
  Na  Na2  1  -0.00047287  0.36464488  0.75243677  1
  Na  Na3  1  0.50108564  0.38444050  0.74896353  1
  Na  Na4  1  0.33128964  0.97542834  0.57902164  1
  Na  Na5  1  0.83021982  0.68547116  0.08217088  1
  Na  Na6  1  0.00060516  0.97897789  0.50090974  1
  Na  Na7  1  0.50170638  0.00803980  0.49733687  1
  Na  Na8  1  0.99554029  0.99303668  -0.00031071  1
  Na  Na9  1  0.50239234  0.02402485  0.00313089  1
  Na  Na10  1  0.32972309  0.35484605  0.82584293  1
  Na  Na11  1  0.83070865  0.33458757  0.83377695  1
  Na  Na12  1  0.33237015  0.33016913  0.33567917  1
  Na  Na13  1  0.82585314  0.30392247  0.32827852  1
  Na  Na14  1  0.17009771  0.65823941  0.17506324  1
  Na  Na15  1  0.66862535  0.66579313  0.16877894  1
  Na  Na16  1  0.16792367  0.66998086  0.66366540  1
  Na  Na17  1  0.67010514  0.68224800  0.66840168  1
  Ta  Ta0  1  0.99323364  0.00603621  0.35674042  1
  Ta  Ta1  1  0.50175791  0.98461324  0.35815251  1
  Ta  Ta2  1  0.99621486  0.01681611  0.85341522  1
  Ta  Ta3  1  0.49445758  0.98151968  0.85634645  1
  Ta  Ta4  1  0.99904420  0.00223598  0.64337727  1
  Ta  Ta5  1  0.49963593  -0.00104999  0.14630226  1
  Ta  Ta6  1  0.34121647  0.33134881  0.97765052  1
  Ta  Ta7  1  0.83439868  0.35153045  0.98222171  1
  Ta  Ta8  1  0.33493054  0.31618221  0.48234813  1
  Ta  Ta9  1  0.83497142  0.35183896  0.47412777  1
  Ta  Ta10  1  0.16776097  0.66673915  0.02072110  1
  Ta  Ta11  1  0.66615726  0.65280556  0.51704477  1
  In  In0  1  0.50359502  0.99719441  0.64432672  1
  In  In1  1  0.00177075  0.00663273  0.14681791  1
  In  In2  1  0.33346994  0.34234296  0.68667916  1
  In  In3  1  0.82668720  0.32716456  0.68419769  1
  In  In4  1  0.32767186  0.32593790  0.18714370  1
  In  In5  1  0.83346569  0.32565661  0.18796536  1
  In  In6  1  0.66875792  0.64785637  0.01192906  1
  In  In7  1  0.16703312  0.68743224  0.51177341  1
  In  In8  1  0.17009332  0.66477272  0.31486026  1
  In  In9  1  0.66717701  0.68198748  0.32131839  1
  In  In10  1  0.16572960  0.64402938  0.81735522  1
  In  In11  1  0.66937891  0.67364627  0.81425105  1
  Si  Si0  1  0.64625559  -0.00049766  0.25009812  1
  Si  Si1  1  0.35452002  0.70925746  0.24928469  1
  Si  Si2  1  0.00248872  0.29681597  0.24782984  1
  Si  Si3  1  0.14605400  0.28751901  0.74893439  1
  Si  Si4  1  0.50220172  0.70776888  0.74766415  1
  Si  Si5  1  0.85190829  0.00050110  0.74677062  1
  Si  Si6  1  0.48302084  0.33653683  0.58828923  1
  Si  Si7  1  0.18806821  0.04143126  0.58657064  1
  Si  Si8  1  0.83108277  0.62174947  0.58578997  1
  Si  Si9  1  0.98210313  0.63089575  0.08729791  1
  Si  Si10  1  0.33263077  0.04164538  0.08586580  1
  Si  Si11  1  0.68747875  0.33287442  0.08640773  1
  Si  Si12  1  0.31095062  0.66111032  0.91828080  1
  Si  Si13  1  0.81601615  0.67230907  0.91575855  1
  Si  Si14  1  0.01820463  0.37824465  0.91689237  1
  Si  Si15  1  0.52248224  0.37218448  0.91199700  1
  Si  Si16  1  0.31405162  0.95594161  0.41567139  1
  Si  Si17  1  0.81012240  0.96121660  0.41899145  1
  Si  Si18  1  0.66479372  0.37566821  0.41235304  1
  Si  Si19  1  0.02175533  0.67060829  0.41182747  1
  Si  Si20  1  0.51780781  0.65634853  0.41763273  1
  S  S0  1  0.14397726  0.00304893  0.25154098  1
  S  S1  1  0.85333445  0.71379875  0.25114584  1
  S  S2  1  0.50110546  0.28424156  0.24951975  1
  S  S3  1  0.64369384  0.28349199  0.75208024  1
  S  S4  1  0.00214507  0.72056880  0.75022810  1
  S  S5  1  0.35299618  0.99264611  0.75239773  1
  S  S6  1  0.98097442  0.33529241  0.58353092  1
  S  S7  1  0.68925698  0.03950178  0.57986749  1
  S  S8  1  0.32968778  0.62296809  0.58064666  1
  S  S9  1  0.48008810  0.62637963  0.08272695  1
  S  S10  1  0.83009326  0.03737345  0.08033007  1
  S  S11  1  0.18881829  0.33541449  0.07990079  1
  S  S12  1  0.16757396  0.95933833  0.91762108  1
  S  S13  1  0.66723984  0.96709679  0.91780940  1
  S  S14  1  0.16720882  0.36656828  0.41786707  1
  O  O0  1  0.09575474  0.01423548  0.30243730  1
  O  O1  1  0.59274418  0.01087593  0.30696489  1
  O  O2  1  0.41811026  0.80735534  0.30539470  1
  O  O3  1  0.90997613  0.81480621  0.30229489  1
  O  O4  1  0.49228116  0.18096279  0.30101441  1
  O  O5  1  0.99552447  0.17319017  0.30583437  1
  O  O6  1  0.09307695  0.17021641  0.80741997  1
  O  O7  1  0.59550896  0.17604547  0.80348047  1
  O  O8  1  0.49515332  0.81624550  0.80668482  1
  O  O9  1  0.99303736  0.80726111  0.80261678  1
  O  O10  1  0.40926913  0.00391011  0.80386611  1
  O  O11  1  0.91552980  0.02973295  0.80578126  1
  O  O12  1  0.38972847  0.97201262  0.69781066  1
  O  O13  1  0.90720914  0.98682511  0.69168735  1
  O  O14  1  0.08147818  0.17994297  0.69362175  1
  O  O15  1  0.59592459  0.20977951  0.69753975  1
  O  O16  1  0.00767539  0.81787583  0.69619339  1
  O  O17  1  0.51326800  0.82124533  0.69066648  1
  O  O18  1  0.40647934  0.82794535  0.19079970  1
  O  O19  1  0.89201784  0.80554859  0.19584997  1
  O  O20  1  0.01484812  0.21064158  0.18934630  1
  O  O21  1  0.50608102  0.19489307  0.19461510  1
  O  O22  1  0.09741432  0.98334859  0.19624373  1
  O  O23  1  0.58185410  0.98075082  0.19310285  1
  O  O24  1  0.44667186  0.36520009  0.64864648  1
  O  O25  1  0.94515435  0.35794162  0.63887153  1
  O  O26  1  0.25138267  0.12523732  0.64111902  1
  O  O27  1  0.73422350  0.10336221  0.63627963  1
  O  O28  1  0.32188105  0.53471329  0.63572280  1
  O  O29  1  0.81309111  0.51052734  0.64448070  1
  O  O30  1  0.44232722  0.52655649  0.13614037  1
  O  O31  1  0.94830697  0.52700922  0.14700327  1
  O  O32  1  0.31174849  0.11878945  0.14236249  1
  O  O33  1  0.82278923  0.11152588  0.13498414  1
  O  O34  1  0.23519227  0.36560462  0.13486354  1
  O  O35  1  0.75327273  0.37879653  0.13954576  1
  O  O36  1  0.23720648  0.32208695  0.02985567  1
  O  O37  1  0.73534297  0.30822131  0.02702431  1
  O  O38  1  0.42361196  0.53444881  0.03066128  1
  O  O39  1  0.91482641  0.52415908  0.03165869  1
  O  O40  1  0.34421971  0.16798422  0.02887779  1
  O  O41  1  0.83944411  0.14727261  0.02899933  1
  O  O42  1  0.23478969  0.16201197  0.52785595  1
  O  O43  1  0.73879795  0.15485860  0.53144412  1
  O  O44  1  0.33889684  0.53091362  0.52975572  1
  O  O45  1  0.84566963  0.52232295  0.52999561  1
  O  O46  1  0.41463888  0.30608821  0.53296213  1
  O  O47  1  0.92538321  0.31160671  0.53297380  1
  O  O48  1  0.26426425  0.69789748  0.97306431  1
  O  O49  1  0.78873291  0.72064800  0.97728238  1
  O  O50  1  0.08604850  0.48419264  0.96986115  1
  O  O51  1  0.57177905  0.44106313  0.97251039  1
  O  O52  1  0.15596368  0.85108110  0.96979119  1
  O  O53  1  0.64847948  0.85921343  0.96979760  1
  O  O54  1  0.28633492  0.85504957  0.47761233  1
  O  O55  1  0.76432754  0.82992965  0.47324738  1
  O  O56  1  0.14841298  0.43705527  0.46988997  1
  O  O57  1  0.65210015  0.46594018  0.47154767  1
  O  O58  1  0.07270060  0.70767683  0.47213833  1
  O  O59  1  0.58436176  0.68778318  0.47100338  1
  O  O60  1  0.05463970  0.62532976  0.35345945  1
  O  O61  1  0.54500689  0.61295700  0.35555698  1
  O  O62  1  0.25133454  0.87982869  0.36135556  1
  O  O63  1  0.76084960  0.90559810  0.35842427  1
  O  O64  1  0.18246441  0.46628990  0.36482627  1
  O  O65  1  0.68877269  0.49427201  0.35622747  1
  O  O66  1  0.04712544  0.48169412  0.85570811  1
  O  O67  1  0.55388584  0.48352988  0.85384427  1
  O  O68  1  0.18591007  0.89247644  0.86502541  1
  O  O69  1  0.68234821  0.89730728  0.86475204  1
  O  O70  1  0.26000697  0.62410382  0.85863469  1
  O  O71  1  0.75435231  0.63001512  0.86117525  1
  O  O72  1  0.00696964  0.83769741  0.40129888  1
  O  O73  1  0.51044432  0.83364450  0.41302489  1
  O  O74  1  0.41107082  0.99052430  0.40282515  1
  O  O75  1  0.90884957  0.98522918  0.41019736  1
  O  O76  1  0.08971912  0.18698891  0.40948429  1
  O  O77  1  0.58075568  0.18483783  0.40676382  1
  O  O78  1  0.01297512  0.18679268  0.91112682  1
  O  O79  1  0.50619815  0.17531466  0.90256797  1
  O  O80  1  0.09041869  0.97706678  0.91261377  1
  O  O81  1  0.59010451  0.99256497  0.90956673  1
  O  O82  1  0.40938354  0.83043454  0.91053822  1
  O  O83  1  0.91572089  0.83102016  0.90342720  1
  O  O84  1  0.48414956  0.15308822  0.58629783  1
  O  O85  1  0.98497218  0.16906774  0.58734150  1
  O  O86  1  0.09226234  0.02536648  0.59283956  1
  O  O87  1  0.60416220  0.02822807  0.57996504  1
  O  O88  1  0.40691471  0.79995276  0.58062115  1
  O  O89  1  0.91909715  0.81297859  0.59234775  1
  O  O90  1  0.48208450  0.79617060  0.08532787  1
  O  O91  1  0.98480139  0.81757557  0.08557204  1
  O  O92  1  0.41891230  0.02411968  0.09074575  1
  O  O93  1  0.90728393  0.01449325  0.08010163  1
  O  O94  1  0.10323901  0.18145445  0.07967364  1
  O  O95  1  0.59220789  0.15744091  0.09187752  1
  O  O96  1  0.35319965  0.15723250  0.75470530  1
  O  O97  1  0.85391806  0.18659248  0.74505904  1
  O  O98  1  0.23776633  0.30168110  0.74888348  1
  O  O99  1  0.72863020  0.29328102  0.75248755  1
  O  O100  1  0.41573515  0.51971340  0.75092701  1
  O  O101  1  0.92629128  0.54429273  0.74795794  1
  O  O102  1  0.35502619  0.52452081  0.24500368  1
  O  O103  1  0.85325862  0.54897278  0.25343428  1
  O  O104  1  0.42410047  0.30547712  0.24611764  1
  O  O105  1  0.91603254  0.31227751  0.25089350  1
  O  O106  1  0.22897881  0.16343502  0.25211958  1
  O  O107  1  0.73723078  0.17123508  0.24789732  1
  O  O108  1  0.32462200  0.49685223  0.93350879  1
  O  O109  1  0.82632728  0.49705734  0.92569180  1
  O  O110  1  0.42209791  0.34183497  0.92555100  1
  O  O111  1  0.92102596  0.33698834  0.93235260  1
  O  O112  1  0.24338857  0.13728299  0.92870334  1
  O  O113  1  0.74312035  0.14178173  0.92591279  1
  O  O114  1  0.32570247  0.15341297  0.42643883  1
  O  O115  1  0.82899671  0.15457515  0.43556097  1
  O  O116  1  0.24281536  0.34313219  0.42621355  1
  O  O117  1  0.74685151  0.34562634  0.42862544  1
  O  O118  1  0.42023751  0.50083257  0.43312778  1
  O  O119  1  0.92297427  0.50429178  0.42475982  1
  O  O120  1  0.17868581  0.49257770  0.07252915  1
  O  O121  1  0.67911104  0.50622067  0.08088601  1
  O  O122  1  0.07612833  0.65310645  0.06909276  1
  O  O123  1  0.56626103  0.65416832  0.07469985  1
  O  O124  1  0.24919704  0.85147523  0.07085159  1
  O  O125  1  0.75228875  0.86450198  0.07538015  1
  O  O126  1  0.17902497  0.85105228  0.58136967  1
  O  O127  1  0.67854761  0.86512938  0.57281624  1
  O  O128  1  0.25209825  0.64073664  0.57577570  1
  O  O129  1  0.74950607  0.65044637  0.57348307  1
  O  O130  1  0.06844113  0.47891122  0.57693237  1
  O  O131  1  0.57616653  0.50427768  0.57358509  1
  O  O132  1  0.15249631  0.84854363  0.25435668  1
  O  O133  1  0.64452140  0.81443577  0.24978512  1
  O  O134  1  0.26230022  0.69288460  0.25100529  1
  O  O135  1  0.76835084  0.69492085  0.25533007  1
  O  O136  1  0.08566567  0.48796902  0.25220233  1
  O  O137  1  0.57844071  0.45543919  0.24921038  1
  O  O138  1  0.14355665  0.46902549  0.74858704  1
  O  O139  1  0.65227603  0.45522931  0.75563723  1
  O  O140  1  0.08092042  0.70702726  0.75287355  1
  O  O141  1  0.58548469  0.68330309  0.75212282  1
  O  O142  1  0.26622917  0.84399841  0.75887988  1
  O  O143  1  0.76148207  0.83086782  0.75104285  1
loop_
_geom_bond_atom_site_label_1
_geom_bond_atom_site_label_2
_geom_bond_distance
_geom_bond_site_symmetry_2
Na0 O136 2.332606 1_555
Na0 O105 2.374507 1_455
Na0 O103 2.409543 1_455
Na0 O132 2.476977 1_555
Na0 O60 2.489249 1_555
Na0 O31 2.582278 1_455
Na1 O133 2.283057 1_555
Na1 O102 2.308910 1_555
Na1 O61 2.392772 1_555
Na1 O104 2.607435 1_555
Na1 O137 2.650026 1_555
Na1 O2 2.796044 1_555
Na2 O138 2.279029 1_555
Na2 O97 2.298619 1_455
Na2 O101 2.540830 1_455
Na2 O66 2.557870 1_555
Na2 O140 2.662328 1_555
Na2 O25 2.771465 1_455
Na2 O11 2.877508 1_455
Na3 O141 2.331818 1_555
Na3 O100 2.385124 1_555
Na3 O96 2.420274 1_555
Na3 O24 2.471714 1_555
Na3 O139 2.473306 1_555
Na3 O67 2.575039 1_555
Na4 O126 2.391714 1_555
Na4 O84 2.403234 1_565
Na4 O54 2.520382 1_555
Na4 O88 2.541885 1_555
Na4 O128 2.603684 1_555
Na4 O46 2.779902 1_565
Na4 O26 2.797234 1_565
Na4 O12 2.925004 1_555
Na5 O121 2.373520 1_555
Na5 O91 2.423721 1_555
Na5 O93 2.559474 1_565
Na5 O49 2.583498 1_554
Na5 O125 2.609523 1_555
Na5 O35 2.723919 1_555
Na5 O39 2.818886 1_555
Na5 O19 2.827146 1_555
Na6 O89 2.568261 1_455
Na6 O86 2.579117 1_565
Na6 O72 2.641144 1_555
Na6 O75 2.673420 1_455
Na6 O85 2.717516 1_465
Na6 O76 2.733946 1_565
Na7 O84 2.521625 1_555
Na7 O73 2.539285 1_545
Na7 O77 2.571187 1_555
Na7 O87 2.586290 1_555
Na7 O88 2.622297 1_545
Na7 O74 2.669220 1_545
Na8 O91 2.467536 1_555
Na8 O93 2.503893 1_565
Na8 O78 2.588237 1_664
Na8 O94 2.590201 1_665
Na8 O83 2.638575 1_554
Na8 O80 2.678199 1_654
Na9 O95 2.501013 1_555
Na9 O92 2.510032 1_555
Na9 O79 2.659050 1_554
Na9 O90 2.667806 1_545
Na9 O82 2.724485 1_544
Na9 O81 2.761043 1_544
Na10 O100 2.293473 1_555
Na10 O98 2.300643 1_555
Na10 O96 2.592327 1_555
Na10 O108 2.799451 1_555
Na10 O110 2.862834 1_555
Na10 O112 2.961804 1_555
Na11 O99 2.511476 1_555
Na11 O97 2.573498 1_555
Na11 O109 2.584660 1_555
Na11 O101 2.674677 1_555
Na11 O113 2.689000 1_555
Na11 O111 2.777538 1_555
Na12 O106 2.567850 1_555
Na12 O114 2.582383 1_555
Na12 O102 2.611545 1_555
Na12 O116 2.667104 1_555
Na12 O104 2.713289 1_555
Na12 O118 2.723858 1_555
Na13 O107 2.337345 1_555
Na13 O105 2.381863 1_555
Na13 O103 2.633967 1_555
Na13 O115 2.814982 1_555
Na13 O117 2.826637 1_555
Na13 O119 2.836041 1_555
Na14 O134 2.316835 1_555
Na14 O136 2.337653 1_555
Na14 O132 2.617568 1_555
Na14 O120 2.825246 1_555
Na14 O124 2.879207 1_555
Na14 O122 2.947303 1_555
Na15 O133 2.447001 1_555
Na15 O121 2.531718 1_555
Na15 O137 2.559603 1_555
Na15 O135 2.599937 1_555
Na15 O125 2.713648 1_555
Na15 O123 2.804535 1_555
Na16 O126 2.431989 1_555
Na16 O138 2.538780 1_555
Na16 O128 2.612639 1_555
Na16 O130 2.652484 1_555
Na16 O140 2.696217 1_555
Na16 O142 2.752541 1_555
Na17 O143 2.425817 1_555
Na17 O141 2.454526 1_555
Na17 O127 2.696068 1_555
Na17 O129 2.696479 1_555
Na17 O131 2.727437 1_555
Na17 O139 2.756464 1_555
In0 O17 1.980119 1_555
In0 O84 2.081659 1_565
In0 O15 2.173796 1_565
In0 O87 2.244223 1_565
In0 O88 2.284892 1_555
In0 O12 2.302440 1_555
In1 O20 1.979752 1_555
In1 O91 2.102117 1_445
In1 O22 2.156256 1_545
In1 O19 2.208276 1_445
In1 O94 2.306326 1_555
In1 O93 2.314299 1_455
In2 O26 2.048372 1_555
In2 O98 2.124849 1_555
In2 O100 2.131412 1_555
In2 O24 2.131640 1_555
In2 O28 2.177395 1_555
In2 O96 2.429002 1_555
In3 O29 1.997928 1_555
In3 O97 2.095443 1_555
In3 O27 2.162003 1_555
In3 O25 2.263557 1_555
In3 O99 2.265279 1_555
In3 O101 2.379339 1_555
In4 O32 2.012908 1_555
In4 O102 2.072487 1_555
In4 O34 2.218919 1_555
In4 O106 2.219790 1_555
In4 O30 2.274275 1_555
In4 O104 2.278441 1_555
In5 O35 2.056122 1_555
In5 O107 2.103260 1_555
In5 O105 2.116998 1_555
In5 O31 2.168852 1_555
In5 O33 2.196970 1_555
In5 O103 2.381901 1_555
In6 O51 2.018999 1_554
In6 O49 2.079208 1_554
In6 O121 2.093598 1_555
In6 O125 2.288467 1_555
In6 O53 2.311893 1_554
In6 O123 2.363895 1_555
In7 O58 2.012233 1_555
In7 O54 2.067741 1_555
In7 O126 2.103861 1_555
In7 O128 2.304529 1_555
In7 O56 2.306405 1_555
In7 O130 2.362071 1_555
In8 O62 2.044835 1_555
In8 O136 2.117475 1_555
In8 O60 2.121540 1_555
In8 O134 2.133214 1_555
In8 O64 2.218745 1_555
In8 O132 2.293227 1_555
In9 O63 2.053609 1_555
In9 O65 2.067519 1_555
In9 O61 2.118006 1_555
In9 O133 2.179179 1_555
In9 O135 2.326984 1_555
In9 O137 2.484760 1_555
In10 O70 2.027202 1_555
In10 O66 2.088372 1_555
In10 O138 2.116555 1_555
In10 O142 2.249671 1_555
In10 O68 2.340390 1_555
In10 O140 2.386036 1_555
In11 O71 2.060489 1_555
In11 O141 2.108666 1_555
In11 O143 2.124811 1_555
In11 O67 2.128022 1_555
In11 O69 2.223897 1_555
In11 O139 2.265093 1_555
O0 S0 1.487858 1_555
O0 Ta0 2.198030 1_455
O1 Si0 1.654742 1_555
O1 Ta1 1.932798 1_545
O2 Si1 1.653623 1_555
O2 Ta1 1.967272 1_555
O3 S1 1.521120 1_555
O3 Ta0 2.044933 1_565
O4 S2 1.459783 1_555
O4 Ta1 2.267872 1_545
O5 Si2 1.695726 1_655
O5 Ta0 1.883793 1_555
O6 Si3 1.678699 1_555
O6 Ta2 1.913339 1_455
O7 S3 1.496541 1_555
O7 Ta3 2.160174 1_545
O8 Si4 1.707271 1_555
O8 Ta3 1.873030 1_555
O9 S4 1.483212 1_655
O9 Ta2 2.186044 1_565
O10 S5 1.525198 1_545
O10 Ta3 2.036079 1_545
O11 Si5 1.706123 1_555
O11 Ta2 1.866194 1_555
O12 S5 1.469979 1_555
O13 Si5 1.650657 1_565
O13 Ta4 1.937906 1_565
O14 Si3 1.664745 1_555
O14 Ta4 1.926221 1_455
O15 S3 1.473970 1_555
O16 S4 1.490037 1_555
O16 Ta4 2.116187 1_465
O17 Si4 1.606810 1_555
O18 Si1 1.678461 1_555
O18 Ta5 1.909943 1_565
O19 S1 1.483475 1_555
O20 Si2 1.617075 1_555
O21 S2 1.518205 1_555
O21 Ta5 2.029844 1_555
O22 S0 1.480852 1_565
O23 Si0 1.698482 1_565
O23 Ta5 1.899599 1_565
O24 Si6 1.605575 1_555
O25 S6 1.482728 1_555
O26 Si7 1.604170 1_555
O27 S7 1.480907 1_555
O28 S8 1.459665 1_555
O29 Si8 1.609302 1_555
O30 S9 1.469385 1_555
O31 Si9 1.596706 1_555
O32 Si10 1.598827 1_555
O33 S10 1.454644 1_555
O34 S11 1.460220 1_555
O35 Si11 1.603090 1_555
O36 S11 1.481507 1_555
O36 Ta6 2.189810 1_554
O37 Si11 1.684150 1_555
O37 Ta7 1.923701 1_554
O38 S9 1.517194 1_555
O38 Ta6 2.073593 1_554
O39 Si9 1.689304 1_555
O39 Ta7 1.882072 1_554
O40 Si10 1.673188 1_555
O40 Ta6 1.899135 1_554
O41 S10 1.489956 1_555
O41 Ta7 2.162717 1_554
O42 Si7 1.669050 1_555
O42 Ta8 1.942349 1_555
O43 S7 1.477010 1_555
O43 Ta9 2.191850 1_555
O44 S8 1.485095 1_555
O44 Ta8 2.179950 1_555
O45 Si8 1.652956 1_555
O45 Ta9 1.928216 1_555
O46 Si6 1.692120 1_555
O46 Ta8 1.882103 1_555
O47 S6 1.475714 1_555
O47 Ta9 2.276635 1_555
O48 Si12 1.634060 1_555
O48 Ta10 1.952176 1_556
O49 Si13 1.622136 1_555
O50 Si14 1.646705 1_555
O50 Ta10 1.949796 1_556
O51 Si15 1.595797 1_555
O52 S12 1.488442 1_555
O52 Ta10 2.118822 1_556
O53 S13 1.465046 1_555
O54 Si16 1.623760 1_555
O55 Si17 1.627511 1_555
O55 Ta11 1.965549 1_555
O56 S14 1.466037 1_555
O57 Si18 1.653078 1_555
O57 Ta11 1.879817 1_555
O58 Si19 1.599669 1_555
O59 Si20 1.635514 1_555
O59 Ta11 1.959601 1_555
O60 Si19 1.595670 1_555
O61 Si20 1.614629 1_555
O62 Si16 1.588227 1_555
O63 Si17 1.588073 1_555
O64 S14 1.452696 1_555
O65 Si18 1.586667 1_555
O66 Si14 1.618749 1_555
O67 Si15 1.591824 1_555
O68 S12 1.455805 1_555
O69 S13 1.454123 1_555
O70 Si12 1.586548 1_555
O71 Si13 1.588037 1_555
O72 Si19 1.664059 1_555
O72 Ta0 1.937514 1_465
O73 Si20 1.662463 1_555
O73 Ta1 1.910565 1_555
O74 Si16 1.642053 1_555
O74 Ta1 1.951046 1_555
O75 Si17 1.693167 1_555
O75 Ta0 1.888449 1_565
O76 S14 1.529130 1_555
O76 Ta0 2.074187 1_455
O77 Si18 1.629352 1_555
O77 Ta1 1.985340 1_545
O78 Si14 1.676249 1_555
O78 Ta2 1.924397 1_455
O79 Si15 1.652518 1_555
O79 Ta3 1.953873 1_545
O80 S12 1.479220 1_555
O80 Ta2 2.333644 1_465
O81 S13 1.527169 1_555
O81 Ta3 2.071880 1_555
O82 Si12 1.673044 1_555
O82 Ta3 1.913909 1_555
O83 Si13 1.668915 1_555
O83 Ta2 1.946729 1_565
O84 Si6 1.655048 1_555
O85 S6 1.529487 1_555
O85 Ta4 2.080703 1_555
O86 Si7 1.664459 1_555
O86 Ta4 1.964512 1_455
O87 S7 1.484535 1_555
O88 S8 1.501381 1_555
O89 Si8 1.663549 1_555
O89 Ta4 1.970850 1_565
O90 S9 1.505402 1_555
O90 Ta5 2.187095 1_565
O91 Si9 1.650035 1_555
O92 Si10 1.641226 1_555
O92 Ta5 2.027511 1_555
O93 S10 1.502561 1_555
O94 S11 1.470369 1_555
O95 Si11 1.657175 1_555
O95 Ta5 2.000134 1_555
O96 S5 1.474275 1_545
O97 Si5 1.650683 1_555
O98 Si3 1.592027 1_555
O99 S3 1.487684 1_555
O100 Si4 1.630493 1_555
O101 S4 1.488663 1_655
O102 Si1 1.663186 1_555
O103 S1 1.477589 1_555
O104 S2 1.492475 1_555
O105 Si2 1.631714 1_655
O106 S0 1.489620 1_555
O107 Si0 1.595412 1_555
O108 Si12 1.646530 1_555
O108 Ta6 1.938105 1_555
O109 Si13 1.686473 1_555
O109 Ta7 1.895365 1_555
O110 Si15 1.717290 1_555
O110 Ta6 1.850096 1_555
O111 Si14 1.637382 1_655
O111 Ta7 1.990472 1_555
O112 S12 1.517800 1_545
O112 Ta6 2.081808 1_555
O113 S13 1.490850 1_545
O113 Ta7 2.195937 1_555
O114 Si16 1.693370 1_545
O114 Ta8 1.885799 1_555
O115 Si17 1.635935 1_545
O115 Ta9 1.931015 1_555
O116 S14 1.489469 1_555
O116 Ta8 2.205143 1_555
O117 Si18 1.670430 1_555
O117 Ta9 1.875977 1_555
O118 Si20 1.648973 1_555
O118 Ta8 1.960913 1_555
O119 Si19 1.683838 1_655
O119 Ta9 1.872815 1_555
O120 S11 1.517269 1_555
O120 Ta10 2.047795 1_555
O121 Si11 1.638850 1_555
O122 Si9 1.657007 1_455
O122 Ta10 1.941412 1_555
O123 S9 1.455746 1_555
O124 Si10 1.652436 1_565
O124 Ta10 1.947422 1_555
O125 S10 1.488325 1_565
O126 Si7 1.635713 1_565
O127 S7 1.485144 1_565
O127 Ta11 2.209439 1_555
O128 S8 1.486952 1_555
O129 Si8 1.636788 1_555
O129 Ta11 1.989164 1_555
O130 S6 1.463773 1_455
O131 Si6 1.636449 1_555
O131 Ta11 1.983734 1_555
O132 S0 1.468648 1_565
O133 Si0 1.643422 1_565
O134 Si1 1.593099 1_555
O135 S1 1.456674 1_555
O136 Si2 1.622903 1_555
O137 S2 1.471937 1_555
O138 Si3 1.649685 1_555
O139 S3 1.470696 1_555
O140 S4 1.483807 1_555
O141 Si4 1.623133 1_555
O142 S5 1.471874 1_555
O143 Si5 1.583770 1_565
