# generated using pymatgen
data_MgFe2(CoO3)4
_symmetry_space_group_name_H-M   'P 1'
_cell_length_a   5.02082649
_cell_length_b   4.99565001
_cell_length_c   10.12182391
_cell_angle_alpha   89.99626796
_cell_angle_beta   90.13130661
_cell_angle_gamma   60.06672297
_symmetry_Int_Tables_number   1
_chemical_formula_structural   MgFe2(CoO3)4
_chemical_formula_sum   'Mg1 Fe2 Co4 O12'
_cell_volume   220.01215131
_cell_formula_units_Z   1
loop_
 _symmetry_equiv_pos_site_id
 _symmetry_equiv_pos_as_xyz
  1  'x, y, z'
loop_
 _atom_site_type_symbol
 _atom_site_label
 _atom_site_symmetry_multiplicity
 _atom_site_fract_x
 _atom_site_fract_y
 _atom_site_fract_z
 _atom_site_occupancy
  Mg  Mg0  1  0.49985200  0.32331500  0.25015800  1
  Fe  Fe0  1  0.00313500  0.99795000  0.99097100  1
  Fe  Fe1  1  0.99680500  0.50114200  0.50910000  1
  Co  Co0  1  0.33120700  0.33373300  0.98882300  1
  Co  Co1  1  0.33011300  0.83368600  0.50004600  1
  Co  Co2  1  0.66909100  0.16435900  0.51109100  1
  Co  Co3  1  0.66990800  0.66340800  0.00000400  1
  O  O0  1  0.00501600  0.14318300  0.59918500  1
  O  O1  1  0.00320200  0.34726800  0.09551000  1
  O  O2  1  0.99590400  0.64828000  0.90103700  1
  O  O3  1  0.35666400  0.99255000  0.90291300  1
  O  O4  1  0.99580300  0.85116300  0.40426600  1
  O  O5  1  0.35019800  0.16432900  0.40159100  1
  O  O6  1  0.35111400  0.50749100  0.59784100  1
  O  O7  1  0.34955700  0.63964500  0.09996900  1
  O  O8  1  0.64932800  0.01536900  0.09836500  1
  O  O9  1  0.64813500  0.35914900  0.90169800  1
  O  O10  1  0.65111300  0.48917800  0.40008000  1
  O  O11  1  0.64385200  0.84980000  0.59735200  1
loop_
_geom_bond_atom_site_label_1
_geom_bond_atom_site_label_2
_geom_bond_distance
_geom_bond_site_symmetry_2
Mg0 O8 2.035645 1_555
Mg0 O5 2.036051 1_555
Mg0 O7 2.044997 1_555
Mg0 O10 2.046702 1_555
Fe0 O3 1.976177 1_555
Fe0 O2 1.986131 1_455
Fe0 O9 2.008003 1_465
Fe0 O1 2.041011 1_566
Fe0 O8 2.049243 1_466
Fe0 O7 2.080939 1_556
Fe1 O11 1.974630 1_555
Fe1 O0 1.989211 1_655
Fe1 O6 2.005334 1_655
Fe1 O4 2.043154 1_555
Fe1 O5 2.047720 1_655
Fe1 O10 2.080508 1_555
Co0 O2 1.856285 1_455
Co0 O3 1.860338 1_545
Co0 O9 1.879867 1_555
Co0 O7 1.936456 1_556
Co0 O8 1.940741 1_556
Co0 O1 1.944184 1_556
Co1 O6 1.863930 1_555
Co1 O0 1.884372 1_565
Co1 O11 1.891384 1_555
Co1 O4 1.900309 1_455
Co1 O10 1.955211 1_555
Co1 O5 1.974365 1_565
Co2 O11 1.856565 1_545
Co2 O0 1.861717 1_655
Co2 O6 1.879806 1_555
Co2 O4 1.937767 1_545
Co2 O10 1.938278 1_555
Co2 O5 1.945267 1_555
Co3 O9 1.864909 1_554
Co3 O3 1.885429 1_554
Co3 O2 1.890042 1_554
Co3 O1 1.893127 1_655
Co3 O7 1.955230 1_555
Co3 O8 1.978079 1_565
