# generated using pymatgen
data_MgTi(GaO2)4
_symmetry_space_group_name_H-M   'P 1'
_cell_length_a   3.09982185
_cell_length_b   6.46990328
_cell_length_c   8.39444194
_cell_angle_alpha   80.82357747
_cell_angle_beta   77.38342555
_cell_angle_gamma   75.05625626
_symmetry_Int_Tables_number   1
_chemical_formula_structural   MgTi(GaO2)4
_chemical_formula_sum   'Mg1 Ti1 Ga4 O8'
_cell_volume   157.78080965
_cell_formula_units_Z   1
loop_
 _symmetry_equiv_pos_site_id
 _symmetry_equiv_pos_as_xyz
  1  'x, y, z'
loop_
 _atom_site_type_symbol
 _atom_site_label
 _atom_site_symmetry_multiplicity
 _atom_site_fract_x
 _atom_site_fract_y
 _atom_site_fract_z
 _atom_site_occupancy
  Mg  Mg0  1  0.50000000  0.50000000  0.00000000  1
  Ti  Ti0  1  0.00000000  0.00000000  0.00000000  1
  Ga  Ga0  1  0.55553400  0.64476400  0.29913200  1
  Ga  Ga1  1  0.75907800  0.85171600  0.64166800  1
  Ga  Ga2  1  0.24092200  0.14828400  0.35833200  1
  Ga  Ga3  1  0.44446600  0.35523600  0.70086800  1
  O  O0  1  0.83804100  0.53148900  0.72658800  1
  O  O1  1  0.60446800  0.76075400  0.07181100  1
  O  O2  1  0.39553200  0.23924600  0.92818900  1
  O  O3  1  0.84190000  0.09835500  0.22180300  1
  O  O4  1  0.16195900  0.46851100  0.27341200  1
  O  O5  1  0.64398100  0.17397900  0.53253100  1
  O  O6  1  0.35601900  0.82602100  0.46746900  1
  O  O7  1  0.15810000  0.90164500  0.77819700  1
loop_
_geom_bond_atom_site_label_1
_geom_bond_atom_site_label_2
_geom_bond_distance
_geom_bond_site_symmetry_2
Mg0 O1 2.001450 1_555
Mg0 O2 2.001450 1_554
Mg0 O0 2.305979 1_554
Mg0 O4 2.305979 1_555
Ga0 O6 1.878112 1_555
Ga0 O4 1.917380 1_655
Ga0 O1 1.924330 1_555
Ga0 O4 1.935596 1_555
Ga1 O7 1.939938 1_555
Ga1 O7 1.972614 1_655
Ga1 O0 2.050415 1_555
Ga1 O6 2.080099 1_655
Ga1 O5 2.112763 1_565
Ga1 O6 2.170205 1_555
Ga2 O3 1.939938 1_555
Ga2 O3 1.972614 1_455
Ga2 O4 2.050415 1_555
Ga2 O5 2.080099 1_455
Ga2 O6 2.112763 1_545
Ga2 O5 2.170205 1_555
Ga3 O5 1.878112 1_555
Ga3 O0 1.917380 1_455
Ga3 O2 1.924330 1_555
Ga3 O0 1.935596 1_555
O1 Ti0 2.149640 1_665
O1 Ti0 2.229410 1_565
O2 Ti0 2.149640 1_556
O2 Ti0 2.229410 1_656
O3 Ti0 1.982492 1_655
O7 Ti0 1.982492 1_566
