# generated using pymatgen
data_Cu3Se2
_symmetry_space_group_name_H-M   'P 1'
_cell_length_a   4.31788968
_cell_length_b   6.32503858
_cell_length_c   6.32503962
_cell_angle_alpha   90.00009439
_cell_angle_beta   89.99996803
_cell_angle_gamma   90.00002268
_symmetry_Int_Tables_number   1
_chemical_formula_structural   Cu3Se2
_chemical_formula_sum   'Cu6 Se4'
_cell_volume   172.74201103
_cell_formula_units_Z   2
loop_
 _symmetry_equiv_pos_site_id
 _symmetry_equiv_pos_as_xyz
  1  'x, y, z'
loop_
 _atom_site_type_symbol
 _atom_site_label
 _atom_site_symmetry_multiplicity
 _atom_site_fract_x
 _atom_site_fract_y
 _atom_site_fract_z
 _atom_site_occupancy
  Cu  Cu0  1  0.99999900  0.00000200  -0.00000000  1
  Cu  Cu1  1  0.99999900  0.49999800  0.50000100  1
  Cu  Cu2  1  0.75998663  0.14389298  0.35625852  1
  Cu  Cu3  1  0.24001437  0.35625552  0.85610502  1
  Cu  Cu4  1  0.24001437  0.64374248  0.14389298  1
  Cu  Cu5  1  0.75998663  0.85610902  0.64374248  1
  Se  Se0  1  0.26461303  0.26888580  0.23104217  1
  Se  Se1  1  0.73538697  0.23104317  0.73111520  1
  Se  Se2  1  0.73538797  0.76895683  0.26888480  1
  Se  Se3  1  0.26461303  0.73111420  0.76895783  1
loop_
_geom_bond_atom_site_label_1
_geom_bond_atom_site_label_2
_geom_bond_distance
_geom_bond_site_symmetry_2
Cu0 Se0 2.516624 1_655
Cu0 Se1 2.516625 1_554
Cu0 Se2 2.516636 1_545
Cu0 Se3 2.516641 1_644
Cu1 Se1 2.517191 1_555
Cu1 Se0 2.517202 1_655
Cu1 Se3 2.517208 1_655
Cu1 Se2 2.517215 1_555
Cu2 Se0 2.414017 1_555
Cu2 Se1 2.436533 1_555
Cu2 Se2 2.437342 1_545
Cu2 Se0 2.449486 1_655
Cu3 Se1 2.413997 1_555
Cu3 Se3 2.436542 1_555
Cu3 Se0 2.437344 1_556
Cu3 Se1 2.449475 1_455
Cu4 Se2 2.414009 1_555
Cu4 Se0 2.436533 1_555
Cu4 Se3 2.437335 1_554
Cu4 Se2 2.449479 1_455
Cu5 Se3 2.414017 1_555
Cu5 Se2 2.436542 1_555
Cu5 Se1 2.437328 1_565
Cu5 Se3 2.449489 1_655
