# generated using pymatgen
data_Mg(FeO2)4
_symmetry_space_group_name_H-M   'P 1'
_cell_length_a   2.97549500
_cell_length_b   5.13097084
_cell_length_c   9.67119306
_cell_angle_alpha   91.96827756
_cell_angle_beta   90.00000000
_cell_angle_gamma   90.00000000
_symmetry_Int_Tables_number   1
_chemical_formula_structural   Mg(FeO2)4
_chemical_formula_sum   'Mg1 Fe4 O8'
_cell_volume   147.56471159
_cell_formula_units_Z   1
loop_
 _symmetry_equiv_pos_site_id
 _symmetry_equiv_pos_as_xyz
  1  'x, y, z'
loop_
 _atom_site_type_symbol
 _atom_site_label
 _atom_site_symmetry_multiplicity
 _atom_site_fract_x
 _atom_site_fract_y
 _atom_site_fract_z
 _atom_site_occupancy
  Mg  Mg0  1  0.25000000  0.49617300  0.92469700  1
  Fe  Fe0  1  0.25000000  0.52055100  0.35538800  1
  Fe  Fe1  1  0.25000000  0.98585100  0.84959800  1
  Fe  Fe2  1  0.75000000  0.47616200  0.62718700  1
  Fe  Fe3  1  0.75000000  0.00850500  0.14220500  1
  O  O0  1  0.25000000  0.67685100  0.72551600  1
  O  O1  1  0.25000000  0.81319200  0.21906700  1
  O  O2  1  0.75000000  0.32774500  0.27027500  1
  O  O3  1  0.75000000  0.23779700  0.80360800  1
  O  O4  1  0.25000000  0.30198400  0.53438800  1
  O  O5  1  0.25000000  0.18321300  0.03891400  1
  O  O6  1  0.75000000  0.68903200  0.45189900  1
  O  O7  1  0.75000000  0.76905800  0.95725700  1
loop_
_geom_bond_atom_site_label_1
_geom_bond_atom_site_label_2
_geom_bond_distance
_geom_bond_site_symmetry_2
Mg0 O5 1.980044 1_556
Mg0 O7 2.059788 1_455
Mg0 O7 2.059788 1_555
Mg0 O0 2.166287 1_555
Mg0 O3 2.288164 1_455
Mg0 O3 2.288164 1_555
Fe0 O6 1.943314 1_455
Fe0 O6 1.943314 1_555
Fe0 O2 1.952870 1_555
Fe0 O2 1.952870 1_455
Fe0 O1 2.031927 1_555
Fe0 O4 2.094730 1_555
Fe1 O0 1.955268 1_555
Fe1 O3 2.030237 1_465
Fe1 O3 2.030237 1_565
Fe1 O5 2.061638 1_566
Fe1 O7 2.148109 1_555
Fe1 O7 2.148109 1_455
Fe2 O4 1.939707 1_555
Fe2 O4 1.939707 1_655
Fe2 O0 2.027509 1_655
Fe2 O0 2.027509 1_555
Fe2 O6 2.047928 1_555
Fe2 O3 2.133144 1_555
Fe3 O1 1.954846 1_645
Fe3 O1 1.954846 1_545
Fe3 O5 2.019003 1_555
Fe3 O5 2.019003 1_655
Fe3 O2 2.019361 1_555
Fe3 O7 2.134906 1_544
