# generated using pymatgen
data_CaInBr3
_symmetry_space_group_name_H-M   'P 1'
_cell_length_a   4.26679345
_cell_length_b   7.37279410
_cell_length_c   10.88832447
_cell_angle_alpha   90.00000000
_cell_angle_beta   90.00000000
_cell_angle_gamma   106.81968053
_symmetry_Int_Tables_number   1
_chemical_formula_structural   CaInBr3
_chemical_formula_sum   'Ca2 In2 Br6'
_cell_volume   327.87372644
_cell_formula_units_Z   2
loop_
 _symmetry_equiv_pos_site_id
 _symmetry_equiv_pos_as_xyz
  1  'x, y, z'
loop_
 _atom_site_type_symbol
 _atom_site_label
 _atom_site_symmetry_multiplicity
 _atom_site_fract_x
 _atom_site_fract_y
 _atom_site_fract_z
 _atom_site_occupancy
  Ca  Ca0  1  0.50000000  -0.00000000  0.00000000  1
  Ca  Ca1  1  0.50000000  -0.00000000  0.50000000  1
  In  In0  1  0.76168745  0.52337389  0.75000000  1
  In  In1  1  0.23831255  0.47662611  0.25000000  1
  Br  Br0  1  0.86461806  0.72923612  0.45308794  1
  Br  Br1  1  0.13538194  0.27076388  0.54691206  1
  Br  Br2  1  0.13538194  0.27076388  0.95308794  1
  Br  Br3  1  0.86461806  0.72923612  0.04691206  1
  Br  Br4  1  0.43134319  0.86268538  0.75000000  1
  Br  Br5  1  0.56865681  0.13731462  0.25000000  1
loop_
_geom_bond_atom_site_label_1
_geom_bond_atom_site_label_2
_geom_bond_distance
_geom_bond_site_symmetry_2
Br0 Ca1 2.909257 1_565
Br0 Ca1 2.909257 1_665
Br1 Ca1 2.909257 1_555
Br1 Ca1 2.909257 1_455
Br2 Ca0 2.909257 1_556
Br2 Ca0 2.909257 1_456
Br3 Ca0 2.909257 1_565
Br3 Ca0 2.909257 1_665
Br4 Ca0 2.889437 1_566
Br4 Ca1 2.889437 1_565
Br4 In0 3.207139 1_555
Br4 In0 3.207139 1_455
Br5 Ca0 2.889437 1_555
Br5 Ca1 2.889437 1_555
Br5 In1 3.207139 1_555
Br5 In1 3.207139 1_655
