# generated using pymatgen
data_Co2P2O7
_symmetry_space_group_name_H-M   'P 1'
_cell_length_a   5.28515396
_cell_length_b   8.94827257
_cell_length_c   5.25093319
_cell_angle_alpha   98.11760926
_cell_angle_beta   103.85084808
_cell_angle_gamma   97.94162434
_symmetry_Int_Tables_number   1
_chemical_formula_structural   Co2P2O7
_chemical_formula_sum   'Co4 P4 O14'
_cell_volume   234.84427007
_cell_formula_units_Z   2
loop_
 _symmetry_equiv_pos_site_id
 _symmetry_equiv_pos_as_xyz
  1  'x, y, z'
loop_
 _atom_site_type_symbol
 _atom_site_label
 _atom_site_symmetry_multiplicity
 _atom_site_fract_x
 _atom_site_fract_y
 _atom_site_fract_z
 _atom_site_occupancy
  Co  Co0  1  0.68666631  0.74631070  0.30797837  1
  Co  Co1  1  0.31631033  0.24936649  0.69593288  1
  Co  Co2  1  0.69590798  0.24898278  0.31612151  1
  Co  Co3  1  0.31125341  0.75358225  0.68969483  1
  P  P0  1  0.21713266  0.45391403  0.21714078  1
  P  P1  1  0.21458918  0.95349683  0.22008676  1
  P  P2  1  0.78108624  0.04666566  0.78117822  1
  P  P3  1  0.78359969  0.54661830  0.77807840  1
  O  O0  1  0.99654329  0.00185287  0.00422285  1
  O  O1  1  0.00388350  0.50199376  0.99654903  1
  O  O2  1  0.62211505  0.39243906  0.62375725  1
  O  O3  1  0.62501028  0.89310543  0.61900969  1
  O  O4  1  0.37995354  0.10563693  0.37829902  1
  O  O5  1  0.37535483  0.60641883  0.38141535  1
  O  O6  1  0.92586553  0.14116366  0.62301019  1
  O  O7  1  0.92336160  0.63625157  0.61068696  1
  O  O8  1  0.38117401  0.36232206  0.07490303  1
  O  O9  1  0.36910452  0.85704327  0.07233477  1
  O  O10  1  0.07307696  0.35922358  0.37524510  1
  O  O11  1  0.07362839  0.86303343  0.38572582  1
  O  O12  1  0.61700362  0.13810578  0.92413052  1
  O  O13  1  0.62738406  0.64247474  0.92449667  1
loop_
_geom_bond_atom_site_label_1
_geom_bond_atom_site_label_2
_geom_bond_distance
_geom_bond_site_symmetry_2
Co0 O13 2.026160 1_554
Co0 O3 2.065481 1_555
Co0 O5 2.072137 1_555
Co0 O11 2.080815 1_655
Co0 O7 2.211751 1_555
Co0 O9 2.267427 1_555
Co1 O8 2.026978 1_556
Co1 O2 2.062375 1_555
Co1 O6 2.075390 1_455
Co1 O4 2.081208 1_555
Co1 O12 2.194302 1_555
Co1 O10 2.287952 1_555
Co2 O10 2.029028 1_655
Co2 O2 2.064887 1_555
Co2 O12 2.071936 1_554
Co2 O4 2.080335 1_555
Co2 O6 2.197746 1_555
Co2 O8 2.284744 1_555
Co3 O9 2.022342 1_556
Co3 O5 2.062306 1_555
Co3 O3 2.073587 1_555
Co3 O7 2.086195 1_455
Co3 O11 2.214876 1_555
Co3 O13 2.262534 1_555
O0 P2 1.565071 1_554
O0 P1 1.565552 1_645
O1 P0 1.564197 1_556
O1 P3 1.565014 1_455
O2 P3 1.521915 1_555
O3 P2 1.521094 1_565
O4 P1 1.520383 1_545
O5 P0 1.520688 1_555
O6 P2 1.521225 1_555
O7 P3 1.519125 1_555
O8 P0 1.521423 1_555
O9 P1 1.524059 1_555
O10 P0 1.519822 1_555
O11 P1 1.519610 1_555
O12 P2 1.522918 1_555
O13 P3 1.523766 1_555
