# generated using pymatgen
data_NaCaGeP(SO6)2
_symmetry_space_group_name_H-M   'P 1'
_cell_length_a   8.85959789
_cell_length_b   8.87273692
_cell_length_c   22.44987390
_cell_angle_alpha   88.77992306
_cell_angle_beta   90.00000000
_cell_angle_gamma   119.95102653
_symmetry_Int_Tables_number   1
_chemical_formula_structural   NaCaGeP(SO6)2
_chemical_formula_sum   'Na6 Ca6 Ge6 P6 S12 O72'
_cell_volume   1528.61840323
_cell_formula_units_Z   6
loop_
 _symmetry_equiv_pos_site_id
 _symmetry_equiv_pos_as_xyz
  1  'x, y, z'
loop_
 _atom_site_type_symbol
 _atom_site_label
 _atom_site_symmetry_multiplicity
 _atom_site_fract_x
 _atom_site_fract_y
 _atom_site_fract_z
 _atom_site_occupancy
  Na  Na0  1  0.98000398  0.97917776  0.49956889  1
  Na  Na1  1  -0.00082622  0.97917776  0.99956889  1
  Na  Na2  1  0.65175031  0.31163252  0.83382220  1
  Na  Na3  1  0.65988321  0.31163252  0.33382220  1
  Na  Na4  1  0.32757179  0.67738438  0.16741072  1
  Na  Na5  1  0.34981160  0.67738438  0.66741072  1
  Ca  Ca0  1  0.99859766  0.99785859  0.64120321  1
  Ca  Ca1  1  -0.00073907  0.99785859  0.14120321  1
  Ca  Ca2  1  0.66007586  0.33171864  0.97457962  1
  Ca  Ca3  1  0.67164378  0.33171864  0.47457962  1
  Ca  Ca4  1  0.33519769  0.67216699  0.30831135  1
  Ca  Ca5  1  0.33696830  0.67216699  0.80831135  1
  Ge  Ge0  1  0.00951671  0.00184622  0.35179164  1
  Ge  Ge1  1  0.99232950  0.00184622  0.85179164  1
  Ge  Ge2  1  0.67261754  0.33936261  0.68649741  1
  Ge  Ge3  1  0.66674607  0.33936261  0.18649741  1
  Ge  Ge4  1  0.30619702  0.67501951  0.01985038  1
  Ge  Ge5  1  0.36882149  0.67501951  0.51985038  1
  P  P0  1  0.30421145  0.02933581  0.24780625  1
  P  P1  1  0.72512435  0.02933581  0.74780625  1
  P  P2  1  0.64970213  0.60690450  0.58231444  1
  P  P3  1  0.95720337  0.60690450  0.08231444  1
  P  P4  1  0.30390771  0.94914482  0.91275351  1
  P  P5  1  0.64523611  0.94914482  0.41275351  1
  S  S0  1  0.72106246  0.69264252  0.25067515  1
  S  S1  1  0.97535049  0.27820096  0.24883961  1
  S  S2  1  0.30285047  0.27820096  0.74883961  1
  S  S3  1  0.97158007  0.69264252  0.75067515  1
  S  S4  1  0.97979032  0.36646932  0.58310098  1
  S  S5  1  0.39062239  0.02585323  0.58325783  1
  S  S6  1  0.63523184  0.02585323  0.08325783  1
  S  S7  1  0.38668000  0.36646932  0.08310098  1
  S  S8  1  0.63714431  0.69473792  0.91601344  1
  S  S9  1  0.05261696  0.36203369  0.91712648  1
  S  S10  1  0.30941573  0.36203369  0.41712648  1
  S  S11  1  0.05759260  0.69473792  0.41601344  1
  O  O0  1  0.21304478  0.05201033  0.30785373  1
  O  O1  1  0.82679032  0.77802693  0.30553788  1
  O  O2  1  0.95466961  0.17110566  0.30593346  1
  O  O3  1  0.21643605  0.17110566  0.80593346  1
  O  O4  1  0.95123660  0.77802693  0.80553788  1
  O  O5  1  0.83896555  0.05201033  0.80785373  1
  O  O6  1  0.81337339  0.01789709  0.69358518  1
  O  O7  1  0.20795975  0.19845775  0.69602903  1
  O  O8  1  0.00061184  0.79462737  0.69684172  1
  O  O9  1  0.79401553  0.79462737  0.19684172  1
  O  O10  1  -0.00950200  0.19845775  0.19602903  1
  O  O11  1  0.20452371  0.01789709  0.19358518  1
  O  O12  1  0.89188204  0.38293031  0.63952002  1
  O  O13  1  0.49397428  0.10856322  0.63882693  1
  O  O14  1  0.62340131  0.49016738  0.64237689  1
  O  O15  1  0.86676707  0.49016738  0.14237689  1
  O  O16  1  0.61458994  0.10856322  0.13882693  1
  O  O17  1  0.49104927  0.38293031  0.13952002  1
  O  O18  1  0.46624676  0.34401835  0.03070688  1
  O  O19  1  0.86165746  0.52266256  0.02754752  1
  O  O20  1  0.65361136  0.12360052  0.02911087  1
  O  O21  1  0.46999016  0.12360052  0.52911087  1
  O  O22  1  0.66100610  0.52266256  0.52754752  1
  O  O23  1  0.87777260  0.34401835  0.53070688  1
  O  O24  1  0.55184571  0.71277870  0.97117380  1
  O  O25  1  0.15610725  0.44720080  0.97347109  1
  O  O26  1  0.27389083  0.83433997  0.97479099  1
  O  O27  1  0.56044814  0.83433997  0.47479099  1
  O  O28  1  0.29109255  0.44720080  0.47347109  1
  O  O29  1  0.16093198  0.71277870  0.47117380  1
  O  O30  1  0.13250956  0.67431684  0.36199658  1
  O  O31  1  0.53561860  0.86171748  0.36077877  1
  O  O32  1  0.32114703  0.45932992  0.36355289  1
  O  O33  1  0.13818190  0.45932992  0.86355289  1
  O  O34  1  0.32609788  0.86171748  0.86077877  1
  O  O35  1  0.54180628  0.67431684  0.86199658  1
  O  O36  1  0.05780829  0.86904080  0.41208546  1
  O  O37  1  0.82745094  0.95234259  0.40783931  1
  O  O38  1  0.14054245  0.18684129  0.41617482  1
  O  O39  1  0.04629884  0.18684129  0.91617482  1
  O  O40  1  0.12489165  0.95234259  0.90783931  1
  O  O41  1  0.81123251  0.86904080  0.91208546  1
  O  O42  1  0.01748162  0.22458431  0.58869680  1
  O  O43  1  0.21205012  -0.00884191  0.58844515  1
  O  O44  1  0.79738449  0.79130413  0.58743093  1
  O  O45  1  0.99391964  0.79130413  0.08743093  1
  O  O46  1  0.77910797  -0.00884191  0.08844515  1
  O  O47  1  0.20710269  0.22458431  0.08869680  1
  O  O48  1  0.71698517  0.20773953  0.74411023  1
  O  O49  1  0.47809773  0.28317712  0.74723506  1
  O  O50  1  0.79636349  0.52241756  0.74736583  1
  O  O51  1  0.72605507  0.52241756  0.24736583  1
  O  O52  1  0.80508039  0.28317712  0.24723506  1
  O  O53  1  0.49075537  0.20773953  0.24411023  1
  O  O54  1  0.67882393  0.55534509  0.92123929  1
  O  O55  1  0.87512451  0.33177620  0.92062949  1
  O  O56  1  0.45185177  0.13307028  0.91932045  1
  O  O57  1  0.68121951  0.13307028  0.41932045  1
  O  O58  1  0.45665269  0.33177620  0.42062949  1
  O  O59  1  0.87652215  0.55534509  0.42123929  1
  O  O60  1  0.38806952  0.53929468  0.07931141  1
  O  O61  1  0.14274085  0.61244613  0.08074453  1
  O  O62  1  0.46316858  0.85096355  0.08055797  1
  O  O63  1  0.38779397  0.85096355  0.58055797  1
  O  O64  1  0.46970428  0.61244613  0.58074453  1
  O  O65  1  0.15122416  0.53929468  0.57931141  1
  O  O66  1  0.33923041  0.87989024  0.25380109  1
  O  O67  1  0.53929845  0.64789415  0.25696261  1
  O  O68  1  0.12184974  0.45547308  0.25349224  1
  O  O69  1  0.33362235  0.45547308  0.75349224  1
  O  O70  1  0.10859471  0.64789415  0.75696261  1
  O  O71  1  0.54065882  0.87989024  0.75380109  1
loop_
_geom_bond_atom_site_label_1
_geom_bond_atom_site_label_2
_geom_bond_distance
_geom_bond_site_symmetry_2
Na0 O37 2.413243 1_555
Na0 O36 2.457990 1_655
Na0 O38 2.481798 1_665
Na0 O44 2.540496 1_555
Na0 O43 2.830132 1_665
Na0 O42 2.884217 1_665
Na1 O40 2.413243 1_555
Na1 O41 2.457990 1_455
Na1 O39 2.481798 1_565
Na1 O45 2.540496 1_456
Na1 O46 2.830132 1_466
Na1 O47 2.884217 1_566
Na2 O49 2.417101 1_555
Na2 O48 2.418905 1_555
Na2 O50 2.521769 1_555
Na2 O56 2.529740 1_555
Na2 O55 2.721751 1_555
Na2 O54 2.871885 1_555
Na3 O52 2.417101 1_555
Na3 O53 2.418905 1_555
Na3 O51 2.521769 1_555
Na3 O57 2.529740 1_555
Na3 O58 2.721751 1_555
Na3 O59 2.871885 1_555
Na4 O62 2.375223 1_555
Na4 O61 2.429947 1_555
Na4 O60 2.541491 1_555
Na4 O66 2.638874 1_555
Na4 O68 2.681041 1_555
Na4 O67 2.845463 1_555
Na5 O63 2.375223 1_555
Na5 O64 2.429947 1_555
Na5 O65 2.541491 1_555
Na5 O71 2.638874 1_555
Na5 O69 2.681041 1_555
Na5 O70 2.845463 1_555
Ca0 O6 2.099446 1_565
Ca0 O8 2.179064 1_655
Ca0 O44 2.196803 1_555
Ca0 O7 2.218143 1_665
Ca0 O42 2.242158 1_665
Ca0 O43 2.257852 1_665
Ca1 O11 2.099446 1_565
Ca1 O9 2.179064 1_455
Ca1 O45 2.196803 1_455
Ca1 O10 2.218143 1_565
Ca1 O47 2.242158 1_565
Ca1 O46 2.257852 1_465
Ca2 O19 2.130357 1_556
Ca2 O20 2.170247 1_556
Ca2 O18 2.177513 1_556
Ca2 O56 2.212513 1_555
Ca2 O54 2.228958 1_555
Ca2 O55 2.257410 1_555
Ca3 O22 2.130357 1_555
Ca3 O21 2.170247 1_555
Ca3 O23 2.177513 1_555
Ca3 O57 2.212513 1_555
Ca3 O59 2.228958 1_555
Ca3 O58 2.257410 1_555
Ca4 O31 2.114556 1_555
Ca4 O30 2.170894 1_555
Ca4 O66 2.175765 1_555
Ca4 O32 2.187527 1_555
Ca4 O67 2.245990 1_555
Ca4 O68 2.292589 1_555
Ca5 O34 2.114556 1_555
Ca5 O35 2.170894 1_555
Ca5 O71 2.175765 1_555
Ca5 O33 2.187527 1_555
Ca5 O70 2.245990 1_555
Ca5 O69 2.292589 1_555
Ge0 O0 1.898012 1_555
Ge0 O37 1.909721 1_445
Ge0 O36 1.959396 1_545
Ge0 O2 2.052860 1_455
Ge0 O38 2.080717 1_555
Ge0 O1 2.126135 1_445
Ge1 O5 1.898012 1_555
Ge1 O40 1.909721 1_645
Ge1 O41 1.959396 1_545
Ge1 O3 2.052860 1_655
Ge1 O39 2.080717 1_655
Ge1 O4 2.126135 1_545
Ge2 O14 1.867547 1_555
Ge2 O48 1.893500 1_555
Ge2 O50 2.005929 1_555
Ge2 O49 2.047189 1_555
Ge2 O12 2.065957 1_555
Ge2 O13 2.168152 1_555
Ge3 O15 1.867547 1_555
Ge3 O53 1.893500 1_555
Ge3 O51 2.005929 1_555
Ge3 O52 2.047189 1_555
Ge3 O17 2.065957 1_555
Ge3 O16 2.168152 1_555
Ge4 O61 1.854488 1_555
Ge4 O26 1.856504 1_554
Ge4 O62 2.037481 1_555
Ge4 O25 2.084223 1_554
Ge4 O60 2.135898 1_555
Ge4 O24 2.302013 1_554
Ge5 O64 1.854488 1_555
Ge5 O27 1.856504 1_555
Ge5 O63 2.037481 1_555
Ge5 O28 2.084223 1_555
Ge5 O65 2.135898 1_555
Ge5 O29 2.302013 1_555
O0 P0 1.638268 1_555
O1 S0 1.516411 1_555
O2 S1 1.534169 1_555
O3 S2 1.534169 1_555
O4 S3 1.516411 1_555
O5 P1 1.638268 1_555
O6 P1 1.479121 1_555
O7 S2 1.433452 1_555
O8 S3 1.437569 1_455
O9 S0 1.437568 1_555
O10 S1 1.433452 1_455
O11 P0 1.479121 1_555
O12 S4 1.534161 1_555
O13 S5 1.517004 1_555
O14 P2 1.626293 1_555
O15 P3 1.626293 1_555
O16 S6 1.517004 1_555
O17 S7 1.534161 1_555
O18 S7 1.438869 1_555
O19 P3 1.481317 1_555
O20 S6 1.438907 1_555
O21 S5 1.438907 1_555
O22 P2 1.481317 1_555
O23 S4 1.438869 1_555
O24 S8 1.503145 1_555
O25 S9 1.536433 1_555
O26 P4 1.648374 1_555
O27 P5 1.648374 1_555
O28 S10 1.536433 1_555
O29 S11 1.503145 1_555
O30 S11 1.439926 1_555
O31 P5 1.480776 1_555
O32 S10 1.438329 1_555
O33 S9 1.438329 1_555
O34 P4 1.480776 1_555
O35 S8 1.439926 1_555
O36 S11 1.546227 1_555
O37 P5 1.604130 1_555
O38 S10 1.527868 1_555
O39 S9 1.527872 1_555
O40 P4 1.604121 1_555
O41 S8 1.546232 1_555
O42 S4 1.457796 1_455
O43 S5 1.457212 1_555
O44 P2 1.507479 1_555
O45 P3 1.507481 1_555
O46 S6 1.457203 1_555
O47 S7 1.457802 1_555
O48 P1 1.620535 1_555
O49 S2 1.531456 1_555
O50 S3 1.536275 1_555
O51 S0 1.536279 1_555
O52 S1 1.531448 1_555
O53 P0 1.620539 1_555
O54 S8 1.459327 1_555
O55 S9 1.458976 1_655
O56 P4 1.509078 1_545
O57 P5 1.509072 1_545
O58 S10 1.458994 1_555
O59 S11 1.459315 1_655
O60 S7 1.527876 1_555
O61 P3 1.620160 1_455
O62 S6 1.541893 1_565
O63 S5 1.541885 1_565
O64 P2 1.620178 1_555
O65 S4 1.527867 1_455
O66 P0 1.508578 1_565
O67 S0 1.459450 1_555
O68 S1 1.462199 1_455
O69 S2 1.462202 1_555
O70 S3 1.459442 1_455
O71 P1 1.508584 1_565
