# generated using pymatgen
data_Na4MgSiGe(PO6)2
_symmetry_space_group_name_H-M   'P 1'
_cell_length_a   8.92440219
_cell_length_b   8.88837834
_cell_length_c   21.67571986
_cell_angle_alpha   90.50481610
_cell_angle_beta   90.00000000
_cell_angle_gamma   120.13416015
_symmetry_Int_Tables_number   1
_chemical_formula_structural   Na4MgSiGe(PO6)2
_chemical_formula_sum   'Na24 Mg6 Si6 Ge6 P12 O72'
_cell_volume   1486.94390300
_cell_formula_units_Z   6
loop_
 _symmetry_equiv_pos_site_id
 _symmetry_equiv_pos_as_xyz
  1  'x, y, z'
loop_
 _atom_site_type_symbol
 _atom_site_label
 _atom_site_symmetry_multiplicity
 _atom_site_fract_x
 _atom_site_fract_y
 _atom_site_fract_z
 _atom_site_occupancy
  Na  Na0  1  0.63407973  0.00832322  0.24919858  1
  Na  Na1  1  0.36975900  0.35696704  0.25019627  1
  Na  Na2  1  0.99267701  0.62952972  0.24491348  1
  Na  Na3  1  0.63685272  0.62952972  0.74491348  1
  Na  Na4  1  0.98720804  0.35696704  0.75019627  1
  Na  Na5  1  0.37424349  0.00832322  0.74919858  1
  Na  Na6  1  0.30803671  0.34512191  0.58339990  1
  Na  Na7  1  0.03379431  0.69451641  0.58110250  1
  Na  Na8  1  0.65609618  0.95624821  0.57999858  1
  Na  Na9  1  0.30015302  0.95624821  0.07999858  1
  Na  Na10  1  0.66072310  0.69451641  0.08110250  1
  Na  Na11  1  0.03708621  0.34512191  0.08339990  1
  Na  Na12  1  0.97603627  0.67951922  0.91762218  1
  Na  Na13  1  0.70384030  0.03120125  0.91179103  1
  Na  Na14  1  0.32426069  0.29370671  0.91508408  1
  Na  Na15  1  0.96944501  0.29370671  0.41508408  1
  Na  Na16  1  0.32735996  0.03120125  0.41179103  1
  Na  Na17  1  0.70348195  0.67951922  0.41762218  1
  Na  Na18  1  0.99472898  0.99923424  0.49667702  1
  Na  Na19  1  0.00450526  0.99923424  0.99667702  1
  Na  Na20  1  0.66708762  0.32837197  0.83015720  1
  Na  Na21  1  0.66128535  0.32837197  0.33015720  1
  Na  Na22  1  0.32732148  0.66664376  0.16335522  1
  Na  Na23  1  0.33932128  0.66664376  0.66335522  1
  Mg  Mg0  1  0.00135298  0.00134682  0.35212996  1
  Mg  Mg1  1  -0.00000616  0.00134682  0.85212996  1
  Mg  Mg2  1  0.66608790  0.33173411  0.68544893  1
  Mg  Mg3  1  0.66564721  0.33173411  0.18544893  1
  Mg  Mg4  1  0.33076256  0.66942120  0.01889568  1
  Mg  Mg5  1  0.33865764  0.66942120  0.51889568  1
  Si  Si0  1  0.29294442  0.99712434  0.25290449  1
  Si  Si1  1  0.70417991  0.99712434  0.75290449  1
  Si  Si2  1  0.66859131  0.62515770  0.58600054  1
  Si  Si3  1  0.95656739  0.62515770  0.08600054  1
  Si  Si4  1  0.33697452  0.96457538  0.92011384  1
  Si  Si5  1  0.62759986  0.96457538  0.42011384  1
  Ge  Ge0  1  0.98843070  0.99074431  0.64949320  1
  Ge  Ge1  1  0.00231361  0.99074431  0.14949320  1
  Ge  Ge2  1  0.66487097  0.33222975  0.98321595  1
  Ge  Ge3  1  0.66735978  0.33222975  0.48321595  1
  Ge  Ge4  1  0.33551984  0.67819969  0.31624936  1
  Ge  Ge5  1  0.34267885  0.67819969  0.81624936  1
  P  P0  1  0.70486878  0.70959121  0.25148222  1
  P  P1  1  0.00521215  0.29198314  0.25130012  1
  P  P2  1  0.28677100  0.29198314  0.75130012  1
  P  P3  1  0.00472243  0.70959121  0.75148222  1
  P  P4  1  0.95754728  0.32952914  0.58484899  1
  P  P5  1  0.36991961  0.04314908  0.58485383  1
  P  P6  1  0.67323047  0.04314908  0.08485383  1
  P  P7  1  0.37198286  0.32952914  0.08484899  1
  P  P8  1  0.62195621  0.66150368  0.91816524  1
  P  P9  1  0.04313532  0.37973599  0.91731696  1
  P  P10  1  0.33659967  0.37973599  0.41731696  1
  P  P11  1  0.03954647  0.66150368  0.41816524  1
  O  O0  1  0.20955034  0.03078945  0.31227069  1
  O  O1  1  0.81631005  0.79287035  0.30826309  1
  O  O2  1  0.97401083  0.18104286  0.30775206  1
  O  O3  1  0.20703203  0.18104286  0.80775206  1
  O  O4  1  0.97656030  0.79287035  0.80826309  1
  O  O5  1  0.82123911  0.03078945  0.81227069  1
  O  O6  1  0.79165679  0.95472594  0.68974957  1
  O  O7  1  0.16680637  0.20640097  0.69132801  1
  O  O8  1  0.04470395  0.83051204  0.69212226  1
  O  O9  1  0.78580809  0.83051204  0.19212226  1
  O  O10  1  0.03959461  0.20640097  0.19132801  1
  O  O11  1  0.16306915  0.95472594  0.18974957  1
  O  O12  1  0.87643014  0.35851902  0.64183834  1
  O  O13  1  0.48407803  0.12263864  0.64136118  1
  O  O14  1  0.63901201  0.50987895  0.64513613  1
  O  O15  1  0.87086794  0.50987895  0.14513613  1
  O  O16  1  0.63856162  0.12263864  0.14136118  1
  O  O17  1  0.48208988  0.35851902  0.14183834  1
  O  O18  1  0.45323300  0.28988580  0.02539720  1
  O  O19  1  0.82446480  0.53535064  0.02253477  1
  O  O20  1  0.70915201  0.16264896  0.02554729  1
  O  O21  1  0.45349795  0.16264896  0.52554729  1
  O  O22  1  0.71088685  0.53535064  0.52253477  1
  O  O23  1  0.83665381  0.28988580  0.52539720  1
  O  O24  1  0.53929594  0.68884362  0.97491559  1
  O  O25  1  0.15436551  0.45956342  0.97436513  1
  O  O26  1  0.30310588  0.84743882  0.97890743  1
  O  O27  1  0.54433194  0.84743882  0.47890743  1
  O  O28  1  0.30519691  0.45956342  0.47436513  1
  O  O29  1  0.14954668  0.68884362  0.47491559  1
  O  O30  1  0.12186722  0.62324805  0.35843632  1
  O  O31  1  0.49758786  0.87865301  0.35675135  1
  O  O32  1  0.37160306  0.49990409  0.35795715  1
  O  O33  1  0.12830002  0.49990409  0.85795715  1
  O  O34  1  0.38106415  0.87865301  0.85675135  1
  O  O35  1  0.50137983  0.62324805  0.85843632  1
  O  O36  1  0.01623396  0.82013297  0.41156297  1
  O  O37  1  0.81990253  0.99307062  0.41190489  1
  O  O38  1  0.17970494  0.19625647  0.41089288  1
  O  O39  1  0.01655153  0.19625647  0.91089288  1
  O  O40  1  0.17316809  0.99307062  0.91190489  1
  O  O41  1  0.80389901  0.82013297  0.91156297  1
  O  O42  1  0.97452663  0.16051564  0.58810576  1
  O  O43  1  0.18844121  0.03485342  0.58924185  1
  O  O44  1  0.85564328  0.82168680  0.58815955  1
  O  O45  1  0.96604351  0.82168680  0.08815955  1
  O  O46  1  0.84641221  0.03485342  0.08924185  1
  O  O47  1  0.18598902  0.16051564  0.08810576  1
  O  O48  1  0.67539989  0.16144938  0.74538086  1
  O  O49  1  0.46915033  0.31837935  0.74455902  1
  O  O50  1  0.84619998  0.52770821  0.74431003  1
  O  O51  1  0.68150923  0.52770821  0.24431003  1
  O  O52  1  0.84923003  0.31837935  0.24455902  1
  O  O53  1  0.48605049  0.16144938  0.24538086  1
  O  O54  1  0.63523881  0.49049089  0.92024261  1
  O  O55  1  0.85996946  0.36768955  0.92051203  1
  O  O56  1  0.52338928  0.16171148  0.92463636  1
  O  O57  1  0.63832320  0.16171148  0.42463636  1
  O  O58  1  0.50772109  0.36768955  0.42051203  1
  O  O59  1  0.85525307  0.49049089  0.42024261  1
  O  O60  1  0.35181422  0.48947755  0.07694654  1
  O  O61  1  0.14862457  0.65174824  0.08007498  1
  O  O62  1  0.51940889  0.85835791  0.07740098  1
  O  O63  1  0.33894803  0.85835791  0.57740098  1
  O  O64  1  0.50312267  0.65174824  0.58007498  1
  O  O65  1  0.13766232  0.48947755  0.57694654  1
  O  O66  1  0.30115264  0.80993438  0.25542171  1
  O  O67  1  0.51941765  0.69280287  0.25485055  1
  O  O68  1  0.17819574  0.47541041  0.25524749  1
  O  O69  1  0.29721366  0.47541041  0.75524749  1
  O  O70  1  0.17338421  0.69280287  0.75485055  1
  O  O71  1  0.50878074  0.80993438  0.75542171  1
loop_
_geom_bond_atom_site_label_1
_geom_bond_atom_site_label_2
_geom_bond_distance
_geom_bond_site_symmetry_2
Na0 O53 2.326334 1_555
Na0 O52 2.446158 1_555
Na0 O67 2.460039 1_545
Na0 O16 2.549264 1_555
Na0 O66 2.588285 1_545
Na0 O31 2.623886 1_545
Na0 O9 2.824226 1_545
Na0 O2 2.908674 1_555
Na1 O51 2.413296 1_555
Na1 O68 2.418277 1_555
Na1 O53 2.432232 1_555
Na1 O17 2.551160 1_555
Na1 O67 2.587694 1_555
Na1 O32 2.645191 1_555
Na1 O10 2.848128 1_555
Na1 O0 2.857744 1_555
Na2 O52 2.394236 1_555
Na2 O66 2.400664 1_655
Na2 O15 2.406016 1_555
Na2 O51 2.450970 1_555
Na2 O68 2.636379 1_655
Na2 O30 2.730283 1_655
Na2 O11 2.782915 1_655
Na2 O1 2.954659 1_555
Na3 O49 2.394236 1_555
Na3 O71 2.400671 1_555
Na3 O14 2.406018 1_555
Na3 O50 2.450979 1_555
Na3 O69 2.636387 1_555
Na3 O35 2.730287 1_555
Na3 O6 2.782915 1_555
Na3 O4 2.954659 1_555
Na4 O50 2.413289 1_555
Na4 O69 2.418269 1_655
Na4 O48 2.432225 1_555
Na4 O12 2.551156 1_555
Na4 O70 2.587694 1_655
Na4 O33 2.645189 1_655
Na4 O7 2.848128 1_655
Na4 O5 2.857744 1_555
Na5 O48 2.326341 1_555
Na5 O49 2.446156 1_555
Na5 O70 2.460041 1_545
Na5 O13 2.549266 1_555
Na5 O71 2.588278 1_545
Na5 O34 2.623884 1_545
Na5 O8 2.824226 1_545
Na5 O3 2.908674 1_555
Na6 O64 2.388189 1_555
Na6 O43 2.410677 1_555
Na6 O65 2.437162 1_555
Na6 O42 2.580889 1_455
Na6 O28 2.586364 1_555
Na6 O7 2.659368 1_555
Na6 O21 2.822480 1_555
Na6 O14 2.877902 1_555
Na7 O63 2.358752 1_555
Na7 O44 2.372798 1_455
Na7 O65 2.425293 1_555
Na7 O29 2.533308 1_555
Na7 O43 2.624023 1_565
Na7 O8 2.663105 1_555
Na7 O22 2.791510 1_455
Na7 O12 2.912489 1_455
Na8 O64 2.340758 1_555
Na8 O27 2.392860 1_555
Na8 O42 2.493394 1_565
Na8 O63 2.509511 1_555
Na8 O44 2.602974 1_555
Na8 O6 2.672099 1_555
Na8 O23 2.838200 1_565
Na8 O13 2.925412 1_565
Na9 O61 2.340758 1_555
Na9 O26 2.392856 1_554
Na9 O47 2.493401 1_565
Na9 O62 2.509494 1_555
Na9 O45 2.602982 1_455
Na9 O11 2.672103 1_555
Na9 O18 2.838200 1_565
Na9 O16 2.925413 1_565
Na10 O62 2.358767 1_555
Na10 O45 2.372790 1_555
Na10 O60 2.425306 1_555
Na10 O24 2.533315 1_554
Na10 O46 2.624023 1_565
Na10 O9 2.663103 1_555
Na10 O19 2.791510 1_555
Na10 O17 2.912489 1_555
Na11 O61 2.388192 1_555
Na11 O46 2.410679 1_455
Na11 O60 2.437146 1_555
Na11 O47 2.580881 1_555
Na11 O25 2.586360 1_554
Na11 O10 2.659366 1_555
Na11 O20 2.822480 1_455
Na11 O15 2.877902 1_455
Na12 O41 2.422806 1_555
Na12 O55 2.424752 1_555
Na12 O40 2.441466 1_655
Na12 O4 2.582909 1_555
Na12 O54 2.635767 1_555
Na12 O19 2.637062 1_556
Na12 O26 2.846601 1_655
Na12 O33 2.865253 1_655
Na13 O5 2.398923 1_555
Na13 O39 2.414682 1_655
Na13 O56 2.426238 1_555
Na13 O41 2.449258 1_545
Na13 O55 2.593862 1_555
Na13 O20 2.709400 1_556
Na13 O34 2.758517 1_545
Na14 O40 2.311366 1_545
Na14 O54 2.428316 1_555
Na14 O39 2.431058 1_555
Na14 O3 2.533173 1_555
Na14 O56 2.583620 1_555
Na14 O18 2.661592 1_556
Na14 O35 2.828508 1_555
Na14 O25 2.886894 1_555
Na15 O37 2.311366 1_545
Na15 O59 2.428302 1_555
Na15 O38 2.431066 1_655
Na15 O2 2.533175 1_555
Na15 O57 2.583604 1_555
Na15 O23 2.661584 1_555
Na15 O30 2.828508 1_655
Na15 O28 2.886894 1_655
Na16 O0 2.398920 1_555
Na16 O38 2.414674 1_555
Na16 O57 2.426254 1_555
Na16 O36 2.449252 1_545
Na16 O58 2.593863 1_555
Na16 O21 2.709404 1_555
Na16 O31 2.758517 1_545
Na17 O36 2.422813 1_655
Na17 O58 2.424750 1_555
Na17 O37 2.441465 1_555
Na17 O1 2.582911 1_555
Na17 O59 2.635782 1_555
Na17 O22 2.637067 1_555
Na17 O27 2.846601 1_555
Na17 O32 2.865253 1_555
Na18 O37 2.392925 1_555
Na18 O44 2.460000 1_555
Na18 O42 2.494880 1_565
Na18 O36 2.495944 1_655
Na18 O38 2.530638 1_665
Na18 O43 2.560041 1_665
Na19 O40 2.392925 1_555
Na19 O45 2.460000 1_456
Na19 O47 2.494880 1_566
Na19 O41 2.495944 1_455
Na19 O39 2.530638 1_565
Na19 O46 2.560041 1_466
Na20 O48 2.376127 1_555
Na20 O56 2.485748 1_555
Na20 O55 2.510952 1_555
Na20 O54 2.516297 1_555
Na20 O50 2.524155 1_555
Na20 O49 2.531876 1_555
Na21 O53 2.376127 1_555
Na21 O57 2.485748 1_555
Na21 O58 2.510952 1_555
Na21 O59 2.516297 1_555
Na21 O51 2.524155 1_555
Na21 O52 2.531876 1_555
Na22 O61 2.367106 1_555
Na22 O66 2.431659 1_555
Na22 O60 2.515784 1_555
Na22 O68 2.533002 1_555
Na22 O62 2.537042 1_555
Na22 O67 2.553014 1_555
Na23 O64 2.367106 1_555
Na23 O71 2.431659 1_555
Na23 O65 2.515784 1_555
Na23 O69 2.533002 1_555
Na23 O63 2.537042 1_555
Na23 O70 2.553014 1_555
Mg0 O0 1.944998 1_555
Mg0 O2 1.988541 1_455
Mg0 O1 1.990321 1_445
Mg0 O37 2.046579 1_445
Mg0 O38 2.085574 1_555
Mg0 O36 2.126715 1_545
Mg1 O5 1.944998 1_455
Mg1 O3 1.988541 1_555
Mg1 O4 1.990321 1_445
Mg1 O40 2.046579 1_545
Mg1 O39 2.085574 1_555
Mg1 O41 2.126715 1_445
Mg2 O14 1.933310 1_555
Mg2 O13 1.985799 1_555
Mg2 O12 2.007312 1_555
Mg2 O48 2.036240 1_555
Mg2 O50 2.096496 1_555
Mg2 O49 2.130233 1_555
Mg3 O15 1.933310 1_555
Mg3 O16 1.985799 1_555
Mg3 O17 2.007312 1_555
Mg3 O53 2.036240 1_555
Mg3 O51 2.096496 1_555
Mg3 O52 2.130233 1_555
Mg4 O26 1.931875 1_554
Mg4 O25 1.977164 1_554
Mg4 O24 2.020485 1_554
Mg4 O61 2.042717 1_555
Mg4 O62 2.094394 1_555
Mg4 O60 2.124587 1_555
Mg5 O27 1.931875 1_555
Mg5 O28 1.977164 1_555
Mg5 O29 2.020485 1_555
Mg5 O64 2.042717 1_555
Mg5 O63 2.094394 1_555
Mg5 O65 2.124587 1_555
Ge0 O6 1.840704 1_555
Ge0 O44 1.899105 1_555
Ge0 O8 1.968681 1_655
Ge0 O7 1.984007 1_665
Ge0 O42 2.070357 1_565
Ge0 O43 2.086104 1_665
Ge1 O11 1.840704 1_555
Ge1 O45 1.899105 1_455
Ge1 O9 1.968681 1_455
Ge1 O10 1.984007 1_565
Ge1 O47 2.070357 1_565
Ge1 O46 2.086104 1_465
Ge2 O19 1.845399 1_556
Ge2 O56 1.883696 1_555
Ge2 O18 1.958898 1_556
Ge2 O20 1.972937 1_556
Ge2 O54 2.078278 1_555
Ge2 O55 2.105884 1_555
Ge3 O22 1.845399 1_555
Ge3 O57 1.883696 1_555
Ge3 O23 1.958898 1_555
Ge3 O21 1.972937 1_555
Ge3 O59 2.078278 1_555
Ge3 O58 2.105884 1_555
Ge4 O31 1.849909 1_555
Ge4 O66 1.895066 1_555
Ge4 O30 1.945028 1_555
Ge4 O32 1.992510 1_555
Ge4 O67 2.066560 1_555
Ge4 O68 2.094178 1_555
Ge5 O34 1.849909 1_555
Ge5 O71 1.895066 1_555
Ge5 O35 1.945028 1_555
Ge5 O33 1.992510 1_555
Ge5 O70 2.066560 1_555
Ge5 O69 2.094178 1_555
O0 Si0 1.586227 1_545
O1 P0 1.515458 1_555
O2 P1 1.514182 1_655
O3 P2 1.514182 1_555
O4 P3 1.515458 1_655
O5 Si1 1.586227 1_545
O6 Si1 1.706384 1_555
O7 P2 1.606104 1_555
O8 P3 1.605405 1_555
O9 P0 1.605405 1_555
O10 P1 1.606104 1_555
O11 Si0 1.706384 1_555
O12 P4 1.515939 1_555
O13 P5 1.516371 1_555
O14 Si2 1.585612 1_555
O15 Si3 1.585612 1_555
O16 P6 1.516371 1_555
O17 P7 1.515939 1_555
O18 P7 1.599727 1_555
O19 Si3 1.719098 1_555
O20 P6 1.601771 1_555
O21 P5 1.601771 1_555
O22 Si2 1.719098 1_555
O23 P4 1.599727 1_555
O24 P8 1.513647 1_555
O25 P9 1.515011 1_555
O26 Si4 1.583303 1_555
O27 Si5 1.583303 1_555
O28 P10 1.515011 1_555
O29 P11 1.513647 1_555
O30 P11 1.604549 1_555
O31 Si5 1.705173 1_555
O32 P10 1.607214 1_555
O33 P9 1.607214 1_555
O34 Si4 1.705173 1_555
O35 P8 1.604549 1_555
O36 P11 1.532916 1_555
O37 Si5 1.614146 1_555
O38 P10 1.530625 1_555
O39 P9 1.530628 1_555
O40 Si4 1.614138 1_555
O41 P8 1.532921 1_555
O42 P4 1.585921 1_555
O43 P5 1.586746 1_555
O44 Si2 1.706153 1_555
O45 Si3 1.706158 1_555
O46 P6 1.586737 1_555
O47 P7 1.585926 1_555
O48 Si1 1.614536 1_545
O49 P2 1.530604 1_555
O50 P3 1.529164 1_655
O51 P0 1.529167 1_555
O52 P1 1.530595 1_655
O53 Si0 1.614542 1_545
O54 P8 1.583881 1_555
O55 P9 1.585157 1_655
O56 Si4 1.708121 1_545
O57 Si5 1.708113 1_545
O58 P10 1.585175 1_555
O59 P11 1.583871 1_655
O60 P7 1.531058 1_555
O61 Si3 1.613671 1_455
O62 P6 1.529639 1_565
O63 P5 1.529633 1_565
O64 Si2 1.613688 1_555
O65 P4 1.531048 1_455
O66 Si0 1.703114 1_555
O67 P0 1.587130 1_555
O68 P1 1.587163 1_555
O69 P2 1.587167 1_555
O70 P3 1.587121 1_555
O71 Si1 1.703119 1_555
