# generated using pymatgen
data_MgV5CrO12
_symmetry_space_group_name_H-M   'P 1'
_cell_length_a   7.05553626
_cell_length_b   7.05539907
_cell_length_c   5.53471760
_cell_angle_alpha   70.33758008
_cell_angle_beta   109.66409515
_cell_angle_gamma   103.71570314
_symmetry_Int_Tables_number   1
_chemical_formula_structural   MgV5CrO12
_chemical_formula_sum   'Mg1 V5 Cr1 O12'
_cell_volume   241.92476455
_cell_formula_units_Z   1
loop_
 _symmetry_equiv_pos_site_id
 _symmetry_equiv_pos_as_xyz
  1  'x, y, z'
loop_
 _atom_site_type_symbol
 _atom_site_label
 _atom_site_symmetry_multiplicity
 _atom_site_fract_x
 _atom_site_fract_y
 _atom_site_fract_z
 _atom_site_occupancy
  Mg  Mg0  1  0.71917357  0.71916692  0.74997991  1
  V  V0  1  0.92069481  0.92068820  0.25000902  1
  V  V1  1  0.19534167  0.61504876  0.76318886  1
  V  V2  1  0.38753906  0.84475636  0.21742234  1
  V  V3  1  0.61503483  0.19533106  0.73682159  1
  V  V4  1  0.84471685  0.38752878  0.28258329  1
  Cr  Cr0  1  0.08525930  0.08526085  0.75001627  1
  O  O0  1  0.01200542  0.80039124  0.67012507  1
  O  O1  1  0.05534948  0.38145115  0.67474034  1
  O  O2  1  0.17682701  0.98350605  0.15204321  1
  O  O3  1  0.39928225  0.70625516  0.59988532  1
  O  O4  1  0.38142963  0.05534980  0.82524215  1
  O  O5  1  0.28853658  0.60566742  0.10998684  1
  O  O6  1  0.70620550  0.39928568  0.90011954  1
  O  O7  1  0.65561966  0.87111971  0.31953464  1
  O  O8  1  0.60565140  0.28850761  0.39002084  1
  O  O9  1  0.80039357  0.01198662  0.82989077  1
  O  O10  1  0.87121498  0.65559893  0.18046990  1
  O  O11  1  0.98343044  0.17680571  0.34792008  1
loop_
_geom_bond_atom_site_label_1
_geom_bond_atom_site_label_2
_geom_bond_distance
_geom_bond_site_symmetry_2
Mg0 O6 2.117455 1_555
Mg0 O3 2.117555 1_555
Mg0 O0 2.162200 1_655
Mg0 O9 2.162200 1_565
Mg0 O7 2.194635 1_555
Mg0 O10 2.194934 1_556
Cr0 O2 2.015278 1_546
Cr0 O11 2.015639 1_455
Cr0 O4 2.036893 1_555
Cr0 O1 2.036952 1_555
Cr0 O9 2.110398 1_455
Cr0 O0 2.110420 1_545
O0 V1 1.883873 1_555
O0 V0 2.113081 1_455
O1 V1 1.837697 1_555
O1 V4 2.172121 1_455
O2 V2 1.840978 1_555
O2 V0 1.968284 1_455
O3 V1 1.829280 1_555
O3 V2 1.992744 1_555
O4 V3 1.837707 1_555
O4 V2 2.172116 1_546
O5 V1 1.790721 1_554
O5 V2 1.877162 1_555
O6 V3 1.829294 1_555
O6 V4 1.992715 1_556
O7 V2 1.765240 1_555
O7 V0 1.962608 1_555
O8 V3 1.790747 1_555
O8 V4 1.877073 1_555
O9 V3 1.883999 1_555
O9 V0 2.113087 1_546
O10 V4 1.765116 1_555
O10 V0 1.962762 1_555
O11 V4 1.840927 1_555
O11 V0 1.968029 1_545
