# generated using pymatgen
data_K6MgCr2O8
_symmetry_space_group_name_H-M   'P 1'
_cell_length_a   5.55308570
_cell_length_b   10.62460043
_cell_length_c   5.96380241
_cell_angle_alpha   89.99999519
_cell_angle_beta   89.99136646
_cell_angle_gamma   89.99998443
_symmetry_Int_Tables_number   1
_chemical_formula_structural   K6MgCr2O8
_chemical_formula_sum   'K6 Mg1 Cr2 O8'
_cell_volume   351.86026333
_cell_formula_units_Z   1
loop_
 _symmetry_equiv_pos_site_id
 _symmetry_equiv_pos_as_xyz
  1  'x, y, z'
loop_
 _atom_site_type_symbol
 _atom_site_label
 _atom_site_symmetry_multiplicity
 _atom_site_fract_x
 _atom_site_fract_y
 _atom_site_fract_z
 _atom_site_occupancy
  K  K0  1  0.00000000  0.23613394  0.50000000  1
  K  K1  1  0.50000000  0.71171469  0.00000000  1
  K  K2  1  0.50000000  0.28830915  1.00000000  1
  K  K3  1  1.00000000  0.76378867  0.50000000  1
  K  K4  1  0.00000000  0.50007004  1.00000000  1
  K  K5  1  0.50000000  0.99996536  0.50000000  1
  Mg  Mg0  1  0.50000000  0.99998502  1.00000000  1
  Cr  Cr0  1  1.00000000  0.99996348  -0.00000000  1
  Cr  Cr1  1  0.50000000  0.50001442  0.50000000  1
  O  O0  1  0.31199419  0.58940613  0.67072477  1
  O  O1  1  0.75406633  0.09298212  0.16237079  1
  O  O2  1  0.75408290  0.90699857  0.83757842  1
  O  O3  1  0.31194687  0.41064079  0.32926425  1
  O  O4  1  0.68805313  0.41064079  0.67073575  1
  O  O5  1  0.24591710  0.90699857  0.16242158  1
  O  O6  1  0.24593367  0.09298212  0.83762921  1
  O  O7  1  0.68800581  0.58940613  0.32927523  1
loop_
_geom_bond_atom_site_label_1
_geom_bond_atom_site_label_2
_geom_bond_distance
_geom_bond_site_symmetry_2
K0 O4 2.733968 1_455
K0 O3 2.733968 1_555
K0 O6 2.869420 1_555
K0 O1 2.869420 1_455
K1 O7 2.575941 1_555
K1 O0 2.575941 1_554
K1 O5 2.689514 1_555
K1 O2 2.689514 1_554
K2 O3 2.575881 1_556
K2 O4 2.575881 1_555
K2 O1 2.689863 1_556
K2 O6 2.689864 1_555
K3 O0 2.733409 1_655
K3 O7 2.733409 1_555
K3 O2 2.869202 1_555
K3 O5 2.869202 1_655
K4 O7 2.785280 1_456
K4 O0 2.785280 1_555
K4 O3 2.785776 1_556
K4 O4 2.785776 1_455
K5 O2 2.649607 1_555
K5 O5 2.649608 1_555
K5 O6 2.649663 1_565
K5 O1 2.649664 1_565
Mg0 O2 1.976023 1_555
Mg0 O5 1.976023 1_556
Mg0 O6 1.976074 1_565
Mg0 O1 1.976074 1_566
Cr0 O1 1.943995 1_565
Cr0 O6 1.943996 1_664
Cr0 O5 1.943996 1_655
Cr0 O2 1.943997 1_554
Cr1 O0 1.740212 1_555
Cr1 O7 1.740212 1_555
Cr1 O4 1.740487 1_555
Cr1 O3 1.740487 1_555
