# generated using pymatgen
data_Sr2NdBiO6
_symmetry_space_group_name_H-M   'P 1'
_cell_length_a   6.19697800
_cell_length_b   6.02212100
_cell_length_c   10.48811980
_cell_angle_alpha   55.24491576
_cell_angle_beta   90.00000000
_cell_angle_gamma   90.00000000
_symmetry_Int_Tables_number   1
_chemical_formula_structural   Sr2NdBiO6
_chemical_formula_sum   'Sr4 Nd2 Bi2 O12'
_cell_volume   321.57744110
_cell_formula_units_Z   2
loop_
 _symmetry_equiv_pos_site_id
 _symmetry_equiv_pos_as_xyz
  1  'x, y, z'
loop_
 _atom_site_type_symbol
 _atom_site_label
 _atom_site_symmetry_multiplicity
 _atom_site_fract_x
 _atom_site_fract_y
 _atom_site_fract_z
 _atom_site_occupancy
  Sr  Sr0  1  0.04740300  0.76287900  0.75106300  1
  Sr  Sr1  1  0.54740300  0.23712100  0.74893700  1
  Sr  Sr2  1  0.95259700  0.23712100  0.24893700  1
  Sr  Sr3  1  0.45259700  0.76287900  0.25106300  1
  Nd  Nd0  1  0.50000000  0.50000000  0.00000000  1
  Nd  Nd1  1  0.00000000  0.50000000  0.50000000  1
  Bi  Bi0  1  0.50000000  0.00000000  0.50000000  1
  Bi  Bi1  1  0.00000000  0.00000000  0.00000000  1
  O  O0  1  0.19394400  0.23285900  0.05290600  1
  O  O1  1  0.69394400  0.76714100  0.44709400  1
  O  O2  1  0.80605600  0.76714100  0.94709400  1
  O  O3  1  0.30605600  0.23285900  0.55290600  1
  O  O4  1  0.71597300  0.12966300  0.05968000  1
  O  O5  1  0.21597300  0.87033700  0.44032000  1
  O  O6  1  0.28402700  0.87033700  0.94032000  1
  O  O7  1  0.78402700  0.12966300  0.55968000  1
  O  O8  1  0.54354300  0.34185100  0.26299500  1
  O  O9  1  0.04354300  0.65814900  0.23700500  1
  O  O10  1  0.45645700  0.65814900  0.73700500  1
  O  O11  1  0.95645700  0.34185100  0.76299500  1
loop_
_geom_bond_atom_site_label_1
_geom_bond_atom_site_label_2
_geom_bond_distance
_geom_bond_site_symmetry_2
Nd0 O2 2.339956 1_554
Nd0 O0 2.339956 1_555
Nd0 O6 2.359092 1_554
Nd0 O4 2.359092 1_555
Nd0 O8 2.364964 1_555
Nd0 O10 2.364964 1_554
Nd1 O1 2.339956 1_455
Nd1 O3 2.339956 1_555
Nd1 O5 2.359092 1_555
Nd1 O7 2.359092 1_455
Nd1 O11 2.364964 1_455
Nd1 O9 2.364964 1_555
Bi0 O3 2.146160 1_555
Bi0 O1 2.146160 1_545
Bi0 O8 2.157631 1_555
Bi0 O10 2.157631 1_545
Bi0 O7 2.157949 1_555
Bi0 O5 2.157949 1_545
Bi1 O0 2.146160 1_555
Bi1 O2 2.146160 1_444
Bi1 O11 2.157631 1_454
Bi1 O9 2.157631 1_545
Bi1 O4 2.157949 1_455
Bi1 O6 2.157949 1_544
O0 Sr2 2.554375 1_455
O0 Sr3 2.862252 1_545
O0 Sr0 3.084465 1_554
O1 Sr3 2.554375 1_555
O1 Sr2 2.862252 1_565
O1 Sr1 3.084465 1_555
O2 Sr0 2.554375 1_655
O2 Sr1 2.862252 1_565
O2 Sr2 3.084465 1_556
O3 Sr1 2.554375 1_555
O3 Sr0 2.862252 1_545
O3 Sr3 3.084465 1_555
O4 Sr3 2.552805 1_545
O4 Sr2 2.823741 1_555
O4 Sr1 3.118845 1_554
O5 Sr2 2.552805 1_465
O5 Sr3 2.823741 1_555
O5 Sr0 3.118845 1_555
O6 Sr1 2.552805 1_565
O6 Sr0 2.823741 1_555
O6 Sr3 3.118845 1_556
O7 Sr0 2.552805 1_645
O7 Sr1 2.823741 1_555
O7 Sr2 3.118845 1_555
O8 Sr3 2.529861 1_555
O8 Sr2 2.636523 1_555
O9 Sr2 2.529861 1_455
O9 Sr3 2.636523 1_555
O10 Sr1 2.529861 1_555
O10 Sr0 2.636523 1_555
O11 Sr0 2.529861 1_655
O11 Sr1 2.636523 1_555
