# generated using pymatgen
data_CaIn2
_symmetry_space_group_name_H-M   'P 1'
_cell_length_a   4.90335040
_cell_length_b   4.90334999
_cell_length_c   7.81142623
_cell_angle_alpha   90.00000000
_cell_angle_beta   90.00000000
_cell_angle_gamma   119.99999577
_symmetry_Int_Tables_number   1
_chemical_formula_structural   CaIn2
_chemical_formula_sum   'Ca2 In4'
_cell_volume   162.64728146
_cell_formula_units_Z   2
loop_
 _symmetry_equiv_pos_site_id
 _symmetry_equiv_pos_as_xyz
  1  'x, y, z'
loop_
 _atom_site_type_symbol
 _atom_site_label
 _atom_site_symmetry_multiplicity
 _atom_site_fract_x
 _atom_site_fract_y
 _atom_site_fract_z
 _atom_site_occupancy
  Ca  Ca0  1  0.00000000  -0.00000000  0.75000000  1
  Ca  Ca1  1  0.00000000  0.00000000  0.25000000  1
  In  In0  1  0.33333300  0.66666700  0.95051280  1
  In  In1  1  0.66666700  0.33333300  0.45051280  1
  In  In2  1  0.33333300  0.66666700  0.54948720  1
  In  In3  1  0.66666700  0.33333300  0.04948720  1
loop_
_geom_bond_atom_site_label_1
_geom_bond_atom_site_label_2
_geom_bond_distance
_geom_bond_site_symmetry_2
Ca0 In0 3.235357 1_545
Ca0 In2 3.235357 1_545
Ca0 In0 3.235360 1_555
Ca0 In2 3.235360 1_555
Ca0 In0 3.235361 1_445
Ca0 In2 3.235361 1_445
Ca0 In3 3.672487 1_456
Ca0 In1 3.672487 1_455
Ca0 In3 3.672490 1_446
Ca0 In1 3.672490 1_445
Ca0 In3 3.672491 1_556
Ca0 In1 3.672491 1_555
Ca0 Ca1 3.905713 1_555
Ca0 Ca1 3.905713 1_556
Ca1 In1 3.235357 1_455
Ca1 In3 3.235357 1_455
Ca1 In1 3.235360 1_445
Ca1 In3 3.235360 1_445
Ca1 In1 3.235361 1_555
Ca1 In3 3.235361 1_555
Ca1 In2 3.672487 1_545
Ca1 In0 3.672487 1_544
Ca1 In2 3.672490 1_555
Ca1 In0 3.672490 1_554
Ca1 In2 3.672491 1_445
Ca1 In0 3.672491 1_444
In0 In3 2.934620 1_566
In0 In3 2.934621 1_456
In0 In3 2.934629 1_556
In0 In2 3.132582 1_555
In1 In2 2.934620 1_545
In1 In2 2.934621 1_655
In1 In2 2.934629 1_555
In1 In3 3.132582 1_555
