# generated using pymatgen
data_MgV2Ni(TeO5)2
_symmetry_space_group_name_H-M   'P 1'
_cell_length_a   5.27268455
_cell_length_b   6.75885761
_cell_length_c   7.53731997
_cell_angle_alpha   78.75201205
_cell_angle_beta   58.51138074
_cell_angle_gamma   74.61491246
_symmetry_Int_Tables_number   1
_chemical_formula_structural   MgV2Ni(TeO5)2
_chemical_formula_sum   'Mg1 V2 Ni1 Te2 O10'
_cell_volume   220.32546382
_cell_formula_units_Z   1
loop_
 _symmetry_equiv_pos_site_id
 _symmetry_equiv_pos_as_xyz
  1  'x, y, z'
loop_
 _atom_site_type_symbol
 _atom_site_label
 _atom_site_symmetry_multiplicity
 _atom_site_fract_x
 _atom_site_fract_y
 _atom_site_fract_z
 _atom_site_occupancy
  Mg  Mg0  1  0.31409842  0.37510057  0.09976532  1
  V  V0  1  0.67590498  0.59741941  0.59007547  1
  V  V1  1  0.35429367  0.41817703  0.43269575  1
  Ni  Ni0  1  0.94171317  0.55429872  0.92644895  1
  Te  Te0  1  0.32528449  0.89160021  0.23196018  1
  Te  Te1  1  0.74308671  0.08028771  0.72074291  1
  O  O0  1  0.04180558  0.55260430  0.33706657  1
  O  O1  1  0.63152835  0.41207231  0.15600569  1
  O  O2  1  0.33936506  0.13881935  0.96271846  1
  O  O3  1  0.61280926  0.31190111  0.55829464  1
  O  O4  1  0.70705376  0.88230841  0.59470299  1
  O  O5  1  0.28647672  0.13048059  0.35042024  1
  O  O6  1  0.42484640  0.68847305  0.44046968  1
  O  O7  1  0.74281787  0.83754059  0.00670021  1
  O  O8  1  0.35516780  0.57659337  0.85312177  1
  O  O9  1  0.97596976  0.44815629  0.68881116  1
loop_
_geom_bond_atom_site_label_1
_geom_bond_atom_site_label_2
_geom_bond_distance
_geom_bond_site_symmetry_2
Mg0 O0 1.985018 1_555
Mg0 O2 2.005502 1_554
Mg0 O1 2.011927 1_555
Mg0 O8 2.026285 1_554
Mg0 O5 2.223932 1_555
Ni0 O1 1.954958 1_556
Ni0 O9 1.962159 1_555
Ni0 O7 1.963252 1_556
Ni0 O8 1.990923 1_655
O0 V0 1.876794 1_455
O0 V1 2.061705 1_555
O1 V1 1.817881 1_555
O2 Te1 1.947590 1_555
O2 Te0 2.345504 1_546
O3 V1 1.957893 1_555
O3 Te1 1.995489 1_555
O3 V0 2.120458 1_555
O4 Te1 1.883750 1_565
O4 V0 1.983890 1_555
O5 Te0 1.908432 1_545
O5 V1 2.316142 1_555
O6 V1 1.975979 1_555
O6 V0 2.063728 1_555
O6 Te0 2.065941 1_555
O7 Te0 1.942502 1_555
O7 Te1 2.440475 1_564
O8 V0 1.823587 1_555
O9 V1 1.913669 1_655
O9 V0 2.040833 1_555
