# generated using pymatgen
data_Na5Hf2Ta2Si5PO24
_symmetry_space_group_name_H-M   'P 1'
_cell_length_a   9.04485069
_cell_length_b   9.03427678
_cell_length_c   22.78940253
_cell_angle_alpha   90.05741515
_cell_angle_beta   90.13686304
_cell_angle_gamma   119.96924381
_symmetry_Int_Tables_number   1
_chemical_formula_structural   Na5Hf2Ta2Si5PO24
_chemical_formula_sum   'Na15 Hf6 Ta6 Si15 P3 O72'
_cell_volume   1613.20754446
_cell_formula_units_Z   3
loop_
 _symmetry_equiv_pos_site_id
 _symmetry_equiv_pos_as_xyz
  1  'x, y, z'
loop_
 _atom_site_type_symbol
 _atom_site_label
 _atom_site_symmetry_multiplicity
 _atom_site_fract_x
 _atom_site_fract_y
 _atom_site_fract_z
 _atom_site_occupancy
  Na  Na0  1  0.64073888  0.00476050  0.25040943  1
  Na  Na1  1  0.36514909  0.36096449  0.24894800  1
  Na  Na2  1  0.99466549  0.63323252  0.24927244  1
  Na  Na3  1  0.99739601  0.36225659  0.74958933  1
  Na  Na4  1  0.03443417  0.69915514  0.58047027  1
  Na  Na5  1  0.66197156  0.96376966  0.58073804  1
  Na  Na6  1  0.97111335  0.66762086  0.91901685  1
  Na  Na7  1  0.70030758  0.03486519  0.91687615  1
  Na  Na8  1  0.32928482  0.29839464  0.91952044  1
  Na  Na9  1  0.00421281  0.00421141  0.49407696  1
  Na  Na10  1  0.00500911  0.00235169  0.00498420  1
  Na  Na11  1  0.66005793  0.33031975  0.83147930  1
  Na  Na12  1  0.66808440  0.33313867  0.33509611  1
  Na  Na13  1  0.33092546  0.66182256  0.16217424  1
  Na  Na14  1  0.34066922  0.66488313  0.66420607  1
  Hf  Hf0  1  0.99627887  0.99636814  0.35487988  1
  Hf  Hf1  1  0.00400852  0.00233458  0.84963785  1
  Hf  Hf2  1  0.66786256  0.33712825  0.18383383  1
  Hf  Hf3  1  0.66566661  0.33282758  0.98435273  1
  Hf  Hf4  1  0.32476085  0.66167401  0.02327478  1
  Hf  Hf5  1  0.33372296  0.66433371  0.51952237  1
  Ta  Ta0  1  0.00259076  0.00271182  0.64598522  1
  Ta  Ta1  1  0.00409435  0.00008693  0.14610714  1
  Ta  Ta2  1  0.66228249  0.33326439  0.68665280  1
  Ta  Ta3  1  0.66881051  0.33207058  0.47776361  1
  Ta  Ta4  1  0.33132834  0.66868449  0.31533764  1
  Ta  Ta5  1  0.33312764  0.67276829  0.81030701  1
  Si  Si0  1  0.28942311  0.99991121  0.25101759  1
  Si  Si1  1  0.70993212  0.71162128  0.24970101  1
  Si  Si2  1  0.00064600  0.28858705  0.25042601  1
  Si  Si3  1  0.29536820  0.29245524  0.74999509  1
  Si  Si4  1  0.99740603  0.70856747  0.74950987  1
  Si  Si5  1  0.70713626  0.99783548  0.74904434  1
  Si  Si6  1  0.95454667  0.33270494  0.58407546  1
  Si  Si7  1  0.37815683  0.04937730  0.58241882  1
  Si  Si8  1  0.66466307  0.61930764  0.58304446  1
  Si  Si9  1  0.96020322  0.63077350  0.08383800  1
  Si  Si10  1  0.36991304  0.33200020  0.08369163  1
  Si  Si11  1  0.04276466  0.37620318  0.91562775  1
  Si  Si12  1  0.33369580  0.95760668  0.91694282  1
  Si  Si13  1  0.62576784  0.95985358  0.41838976  1
  Si  Si14  1  0.04011403  0.66650576  0.41850107  1
  P  P0  1  0.67007983  0.03935588  0.08403437  1
  P  P1  1  0.61970300  0.66688196  0.91586391  1
  P  P2  1  0.33625892  0.37756017  0.41675649  1
  O  O0  1  0.20503650  0.03915000  0.30618993  1
  O  O1  1  0.83377361  0.79563692  0.30553090  1
  O  O2  1  0.96395489  0.16707052  0.30620806  1
  O  O3  1  0.21177446  0.18034377  0.80899912  1
  O  O4  1  0.96796645  0.78868768  0.80888501  1
  O  O5  1  0.82547961  0.03680585  0.80750587  1
  O  O6  1  0.80300570  0.97247202  0.69165459  1
  O  O7  1  0.16226573  0.19549589  0.69475451  1
  O  O8  1  0.02730700  0.83049668  0.69218612  1
  O  O9  1  0.79997650  0.83956280  0.19344284  1
  O  O10  1  0.03654837  0.19821214  0.19352961  1
  O  O11  1  0.16126373  0.96158919  0.19391586  1
  O  O12  1  0.86349952  0.36043393  0.64214856  1
  O  O13  1  0.50349076  0.14154410  0.63930987  1
  O  O14  1  0.64438854  0.50058956  0.64033653  1
  O  O15  1  0.87327495  0.51437268  0.14188470  1
  O  O16  1  0.64363972  0.12405380  0.13887495  1
  O  O17  1  0.48391648  0.35439991  0.14201390  1
  O  O18  1  0.45519578  0.30009055  0.02415060  1
  O  O19  1  0.84551467  0.54317354  0.02407000  1
  O  O20  1  0.69673569  0.15144176  0.02804195  1
  O  O21  1  0.47266630  0.17124400  0.52630304  1
  O  O22  1  0.70235922  0.52904711  0.52736397  1
  O  O23  1  0.82562532  0.29723598  0.52800323  1
  O  O24  1  0.54064773  0.70109324  0.96997539  1
  O  O25  1  0.17051422  0.46474705  0.97051551  1
  O  O26  1  0.30136600  0.83345394  0.97166127  1
  O  O27  1  0.53654736  0.84543228  0.47632133  1
  O  O28  1  0.31135912  0.46527666  0.47040005  1
  O  O29  1  0.15339618  0.68767393  0.47647248  1
  O  O30  1  0.13652614  0.63779083  0.35964056  1
  O  O31  1  0.50206973  0.86063447  0.35951867  1
  O  O32  1  0.36067581  0.49096805  0.36051155  1
  O  O33  1  0.13790356  0.49868523  0.85741727  1
  O  O34  1  0.36374112  0.85987327  0.85956716  1
  O  O35  1  0.50294885  0.63777140  0.86120959  1
  O  O36  1  0.02424258  0.83531512  0.41168268  1
  O  O37  1  0.81370002  0.98362104  0.41168833  1
  O  O38  1  0.17809240  0.20073161  0.41002065  1
  O  O39  1  0.01797030  0.18384736  0.91049637  1
  O  O40  1  0.16252096  0.97496264  0.91057650  1
  O  O41  1  0.80011357  0.82552601  0.90870888  1
  O  O42  1  0.96282419  0.15517239  0.59134726  1
  O  O43  1  0.18542882  0.02269208  0.59174056  1
  O  O44  1  0.84013018  0.80934790  0.59176670  1
  O  O45  1  0.97207785  0.81753107  0.09108560  1
  O  O46  1  0.83332839  0.02663365  0.09052811  1
  O  O47  1  0.18040301  0.15995908  0.09122474  1
  O  O48  1  0.69499461  0.17150803  0.74071859  1
  O  O49  1  0.48266582  0.31303029  0.74143195  1
  O  O50  1  0.83741805  0.51386392  0.74167233  1
  O  O51  1  0.68448128  0.51962701  0.24353387  1
  O  O52  1  0.83503652  0.31386749  0.24324671  1
  O  O53  1  0.48173376  0.16069617  0.24283863  1
  O  O54  1  0.63682258  0.50439436  0.92045558  1
  O  O55  1  0.85415124  0.36081699  0.92004622  1
  O  O56  1  0.50577212  0.14728772  0.91952584  1
  O  O57  1  0.63455181  0.14645335  0.42333854  1
  O  O58  1  0.50033979  0.36556058  0.42301365  1
  O  O59  1  0.85152738  0.49193720  0.42397243  1
  O  O60  1  0.35680381  0.50361535  0.07835010  1
  O  O61  1  0.14924383  0.65262194  0.07885138  1
  O  O62  1  0.51196510  0.86285690  0.07651594  1
  O  O63  1  0.35791140  0.85922324  0.57892368  1
  O  O64  1  0.50458628  0.65191504  0.58003685  1
  O  O65  1  0.13875681  0.50425699  0.57929968  1
  O  O66  1  0.30470633  0.82395733  0.25767929  1
  O  O67  1  0.51798252  0.69077849  0.25793852  1
  O  O68  1  0.17500927  0.47955805  0.25764590  1
  O  O69  1  0.30382504  0.47785687  0.75726366  1
  O  O70  1  0.16741744  0.68443751  0.75659074  1
  O  O71  1  0.51940970  0.82684744  0.75700482  1
loop_
_geom_bond_atom_site_label_1
_geom_bond_atom_site_label_2
_geom_bond_distance
_geom_bond_site_symmetry_2
Na0 O52 2.452077 1_555
Na0 O53 2.471076 1_555
Na0 O67 2.482708 1_545
Na0 O66 2.641260 1_545
Na0 O16 2.756903 1_555
Na0 O31 2.800208 1_545
Na0 O2 2.830088 1_555
Na0 O9 2.853032 1_545
Na1 O68 2.446824 1_555
Na1 O51 2.505595 1_555
Na1 O53 2.512194 1_555
Na1 O67 2.591029 1_555
Na1 O17 2.678088 1_555
Na1 O32 2.808412 1_555
Na1 O0 2.839345 1_555
Na1 O10 2.864077 1_555
Na2 O66 2.457422 1_655
Na2 O51 2.462292 1_555
Na2 O52 2.502881 1_555
Na2 O68 2.624161 1_655
Na2 O15 2.674298 1_555
Na2 O30 2.811760 1_655
Na2 O1 2.837692 1_555
Na2 O11 2.865785 1_655
Na3 O48 2.404020 1_555
Na3 O69 2.430745 1_655
Na3 O50 2.445720 1_555
Na3 O70 2.527514 1_655
Na3 O12 2.725437 1_555
Na3 O33 2.754418 1_655
Na3 O5 2.873110 1_555
Na3 O7 2.881799 1_655
Na4 O65 2.377237 1_555
Na4 O44 2.428072 1_455
Na4 O63 2.535014 1_555
Na4 O43 2.546227 1_565
Na4 O29 2.628467 1_555
Na4 O8 2.822245 1_555
Na4 O22 2.866221 1_455
Na5 O42 2.397557 1_565
Na5 O63 2.421058 1_555
Na5 O64 2.440744 1_555
Na5 O44 2.617415 1_555
Na5 O27 2.619675 1_555
Na5 O6 2.811903 1_555
Na5 O23 2.876080 1_565
Na5 O13 2.953101 1_565
Na6 O55 2.423436 1_555
Na6 O40 2.438015 1_655
Na6 O41 2.585678 1_555
Na6 O54 2.619893 1_555
Na6 O19 2.651158 1_556
Na6 O4 2.744568 1_555
Na6 O26 2.848655 1_655
Na6 O33 2.980267 1_655
Na7 O56 2.432491 1_555
Na7 O41 2.476305 1_545
Na7 O39 2.495366 1_655
Na7 O55 2.553092 1_555
Na7 O5 2.736478 1_555
Na7 O20 2.749074 1_556
Na7 O24 2.882277 1_545
Na7 O34 2.939536 1_545
Na8 O54 2.455432 1_555
Na8 O39 2.475377 1_555
Na8 O40 2.539424 1_545
Na8 O56 2.566893 1_555
Na8 O18 2.636735 1_556
Na8 O3 2.731367 1_555
Na8 O25 2.798598 1_555
Na8 O35 2.973266 1_555
Na9 O36 2.481720 1_545
Na9 O37 2.488537 1_445
Na9 O38 2.554724 1_555
Na9 O43 2.715985 1_555
Na9 O42 2.724342 1_455
Na9 O44 2.769747 1_445
Na10 O47 2.475791 1_555
Na10 O45 2.497878 1_445
Na10 O46 2.571742 1_455
Na10 O40 2.661882 1_544
Na10 O39 2.674945 1_554
Na10 O41 2.795738 1_444
Na11 O56 2.534257 1_555
Na11 O49 2.557974 1_555
Na11 O55 2.594312 1_555
Na11 O50 2.622346 1_555
Na11 O48 2.624251 1_555
Na11 O54 2.637202 1_555
Na12 O57 2.545436 1_555
Na12 O59 2.552162 1_555
Na12 O58 2.619060 1_555
Na12 O52 2.639899 1_555
Na12 O51 2.640738 1_555
Na12 O53 2.653594 1_555
Na13 O60 2.465320 1_555
Na13 O61 2.482205 1_555
Na13 O62 2.615678 1_555
Na13 O68 2.671305 1_555
Na13 O67 2.689408 1_555
Na13 O66 2.698533 1_555
Na14 O64 2.465335 1_555
Na14 O65 2.552438 1_555
Na14 O63 2.572730 1_555
Na14 O71 2.615585 1_555
Na14 O69 2.628964 1_555
Na14 O70 2.685345 1_555
Hf0 O1 2.009693 1_555
Hf0 O2 2.036281 1_565
Hf0 O36 2.055870 1_655
Hf0 O0 2.056117 1_665
Hf0 O37 2.058388 1_555
Hf0 O38 2.155061 1_665
Hf1 O3 1.991835 1_555
Hf1 O4 2.015095 1_445
Hf1 O5 2.030264 1_455
Hf1 O40 2.095408 1_545
Hf1 O39 2.101499 1_555
Hf1 O41 2.199522 1_445
Hf2 O17 1.988179 1_555
Hf2 O15 1.992276 1_555
Hf2 O51 2.083007 1_555
Hf2 O16 2.092109 1_555
Hf2 O52 2.114714 1_555
Hf2 O53 2.125372 1_555
Hf3 O19 1.994438 1_556
Hf3 O18 1.995079 1_556
Hf3 O20 2.053679 1_556
Hf3 O56 2.155638 1_555
Hf3 O55 2.167957 1_555
Hf3 O54 2.235547 1_555
Hf4 O61 2.002798 1_555
Hf4 O25 2.016224 1_554
Hf4 O60 2.028228 1_555
Hf4 O26 2.041394 1_554
Hf4 O62 2.133960 1_555
Hf4 O24 2.175449 1_554
Hf5 O29 2.000902 1_555
Hf5 O27 2.006179 1_555
Hf5 O28 2.039509 1_555
Hf5 O64 2.113337 1_555
Hf5 O65 2.127094 1_555
Hf5 O63 2.142289 1_555
O0 Si0 1.600989 1_545
O1 Si1 1.609804 1_555
O2 Si2 1.603810 1_655
O3 Si3 1.627315 1_555
O4 Si4 1.618052 1_555
O5 Si5 1.631098 1_545
O6 Si5 1.648721 1_555
O6 Ta0 1.983303 1_665
O7 Si3 1.654829 1_555
O7 Ta0 1.957011 1_555
O8 Si4 1.643195 1_455
O8 Ta0 1.982131 1_565
O9 Si1 1.646370 1_555
O9 Ta1 2.003267 1_665
O10 Si2 1.648671 1_555
O10 Ta1 1.981825 1_555
O11 Si0 1.657687 1_555
O11 Ta1 1.953520 1_565
O12 Si6 1.644109 1_555
O12 Ta2 1.991037 1_555
O13 Si7 1.645340 1_555
O13 Ta2 1.931421 1_555
O14 Si8 1.641990 1_555
O14 Ta2 1.916312 1_555
O15 Si9 1.629628 1_555
O16 P0 1.544989 1_555
O17 Si10 1.629489 1_555
O18 Si10 1.657012 1_555
O19 Si9 1.651831 1_555
O20 P0 1.572236 1_555
O21 Si7 1.626683 1_555
O21 Ta3 1.979759 1_555
O22 Si8 1.633746 1_555
O22 Ta3 1.997850 1_555
O23 Si6 1.647444 1_555
O23 Ta3 1.964838 1_555
O24 P1 1.533546 1_555
O25 Si11 1.614717 1_555
O26 Si12 1.604817 1_555
O27 Si13 1.623944 1_555
O28 P2 1.533266 1_555
O29 Si14 1.621442 1_555
O30 Si14 1.690558 1_555
O30 Ta4 1.928604 1_555
O31 Si13 1.686333 1_555
O31 Ta4 1.928580 1_555
O32 P2 1.587261 1_555
O32 Ta4 2.033679 1_555
O33 Si11 1.667879 1_555
O33 Ta5 1.995495 1_555
O34 Si12 1.673997 1_555
O34 Ta5 1.929075 1_555
O35 P1 1.565666 1_555
O35 Ta5 2.069393 1_555
O36 Si14 1.609251 1_555
O37 Si13 1.611046 1_555
O38 P2 1.528859 1_555
O39 Si11 1.641345 1_555
O40 Si12 1.638361 1_555
O41 P1 1.551985 1_555
O42 Si6 1.651041 1_555
O42 Ta0 2.018221 1_655
O43 Si7 1.650452 1_555
O43 Ta0 2.001906 1_555
O44 Si8 1.667787 1_555
O44 Ta0 2.039622 1_665
O45 Si9 1.644335 1_555
O45 Ta1 1.973111 1_665
O46 P0 1.543982 1_555
O46 Ta1 2.099719 1_655
O47 Si10 1.650329 1_555
O47 Ta1 1.976232 1_555
O48 Si5 1.637829 1_545
O48 Ta2 2.043300 1_555
O49 Si3 1.621600 1_555
O49 Ta2 1.986119 1_555
O50 Si4 1.635576 1_555
O50 Ta2 2.036614 1_555
O51 Si1 1.637613 1_555
O52 Si2 1.631983 1_655
O53 Si0 1.627300 1_545
O54 P1 1.554719 1_555
O55 Si11 1.644312 1_655
O56 Si12 1.642294 1_545
O57 Si13 1.651272 1_545
O57 Ta3 1.980230 1_555
O58 P2 1.547371 1_555
O58 Ta3 2.102990 1_555
O59 Si14 1.651099 1_655
O59 Ta3 1.987084 1_555
O60 Si10 1.617606 1_555
O61 Si9 1.624571 1_455
O62 P0 1.528785 1_565
O63 Si7 1.635984 1_565
O64 Si8 1.616631 1_555
O65 Si6 1.615940 1_455
O66 Si0 1.670016 1_555
O66 Ta4 2.022871 1_555
O67 Si1 1.661309 1_555
O67 Ta4 2.067745 1_555
O68 Si2 1.664537 1_555
O68 Ta4 2.054292 1_555
O69 Si3 1.646267 1_555
O69 Ta5 2.039646 1_555
O70 Si4 1.664921 1_455
O70 Ta5 1.976238 1_555
O71 Si5 1.638225 1_555
O71 Ta5 1.980418 1_555
