# generated using pymatgen
data_Na8CaZr3Si5SO24
_symmetry_space_group_name_H-M   'P 1'
_cell_length_a   9.38200676
_cell_length_b   9.36471305
_cell_length_c   22.75058422
_cell_angle_alpha   90.27362670
_cell_angle_beta   89.75412609
_cell_angle_gamma   119.97009795
_symmetry_Int_Tables_number   1
_chemical_formula_structural   Na8CaZr3Si5SO24
_chemical_formula_sum   'Na24 Ca3 Zr9 Si15 S3 O72'
_cell_volume   1731.56252272
_cell_formula_units_Z   3
loop_
 _symmetry_equiv_pos_site_id
 _symmetry_equiv_pos_as_xyz
  1  'x, y, z'
loop_
 _atom_site_type_symbol
 _atom_site_label
 _atom_site_symmetry_multiplicity
 _atom_site_fract_x
 _atom_site_fract_y
 _atom_site_fract_z
 _atom_site_occupancy
  Na  Na0  1  0.65430630  0.02842791  0.24389729  1
  Na  Na1  1  0.35679651  0.36240046  0.23580346  1
  Na  Na2  1  0.99327288  0.61646102  0.23819770  1
  Na  Na3  1  0.63009043  0.61362505  0.74588284  1
  Na  Na4  1  0.98636200  0.36686251  0.75645168  1
  Na  Na5  1  0.38792356  0.01343219  0.74656793  1
  Na  Na6  1  0.32743834  0.33783813  0.59233911  1
  Na  Na7  1  0.02887711  0.70654676  0.57998162  1
  Na  Na8  1  0.65418413  0.96564915  0.59705169  1
  Na  Na9  1  0.31373658  0.97161464  0.07444955  1
  Na  Na10  1  0.66074483  0.68679556  0.07308014  1
  Na  Na11  1  0.02573572  0.35133820  0.07664580  1
  Na  Na12  1  0.96534415  0.66509034  0.91257022  1
  Na  Na13  1  0.69951409  0.03494758  0.91237055  1
  Na  Na14  1  0.33573466  0.29984245  0.91266519  1
  Na  Na15  1  0.96283971  0.28186726  0.40923209  1
  Na  Na16  1  0.31625588  0.02550993  0.42218290  1
  Na  Na17  1  0.71508540  0.68414186  0.42272946  1
  Na  Na18  1  0.00038475  0.99344904  0.49563105  1
  Na  Na19  1  0.00061643  0.99935268  0.99398416  1
  Na  Na20  1  0.66571856  0.33281462  0.82579484  1
  Na  Na21  1  0.69261850  0.33093863  0.33546835  1
  Na  Na22  1  0.32443767  0.65805834  0.15593763  1
  Na  Na23  1  0.34725366  0.67864785  0.67378705  1
  Ca  Ca0  1  0.99951483  0.00374087  0.35339839  1
  Ca  Ca1  1  0.65994500  0.33083232  0.68565049  1
  Ca  Ca2  1  0.67095581  0.33385559  0.17524389  1
  Zr  Zr0  1  0.99948177  0.99845971  0.85222385  1
  Zr  Zr1  1  0.00218834  0.99172811  0.65144029  1
  Zr  Zr2  1  0.00230146  0.01663479  0.14261447  1
  Zr  Zr3  1  0.66931645  0.33582815  0.98335601  1
  Zr  Zr4  1  0.65485130  0.33570821  0.48004359  1
  Zr  Zr5  1  0.33321555  0.66690815  0.01423555  1
  Zr  Zr6  1  0.33919940  0.67413859  0.51659167  1
  Zr  Zr7  1  0.32494726  0.65638629  0.31900903  1
  Zr  Zr8  1  0.33590898  0.66709992  0.81453115  1
  Si  Si0  1  0.00366974  0.30802405  0.25357351  1
  Si  Si1  1  0.28941534  0.29732019  0.75092942  1
  Si  Si2  1  0.00903787  0.70530356  0.75216795  1
  Si  Si3  1  0.70404844  0.99346867  0.75126004  1
  Si  Si4  1  0.36195243  0.02892783  0.58417003  1
  Si  Si5  1  0.66738031  0.64048099  0.58468342  1
  Si  Si6  1  0.97383062  0.64031781  0.08593969  1
  Si  Si7  1  0.66043871  0.02768581  0.08601705  1
  Si  Si8  1  0.36717672  0.33978903  0.08576585  1
  Si  Si9  1  0.63112181  0.66352585  0.91643968  1
  Si  Si10  1  0.03421183  0.36922060  0.91629117  1
  Si  Si11  1  0.33654989  0.96691697  0.91678572  1
  Si  Si12  1  0.62350399  0.96648981  0.41449791  1
  Si  Si13  1  0.33847573  0.37288858  0.41885583  1
  Si  Si14  1  0.03002202  0.65382798  0.41874878  1
  S  S0  1  0.29529843  0.99262842  0.25047527  1
  S  S1  1  0.69762715  0.70502290  0.25009267  1
  S  S2  1  0.96537953  0.33131485  0.58165834  1
  O  O0  1  0.21391850  0.99537637  0.30490055  1
  O  O1  1  0.78779122  0.77917335  0.30442438  1
  O  O2  1  0.99276416  0.21284186  0.31328930  1
  O  O3  1  0.18658422  0.18750388  0.80850472  1
  O  O4  1  0.99584563  0.80424931  0.80988586  1
  O  O5  1  0.81075409  0.99967426  0.80942754  1
  O  O6  1  0.80066877  0.98223237  0.69124693  1
  O  O7  1  0.18246013  0.20208650  0.69083726  1
  O  O8  1  0.02031750  0.81493160  0.69265128  1
  O  O9  1  0.79242112  0.80569621  0.19813141  1
  O  O10  1  0.01754477  0.19853182  0.19663611  1
  O  O11  1  0.19433214  0.98397894  0.19829724  1
  O  O12  1  0.89294199  0.35421225  0.63563531  1
  O  O13  1  0.47541955  0.09417170  0.64169729  1
  O  O14  1  0.63180893  0.53156517  0.64282216  1
  O  O15  1  0.91069519  0.53607062  0.14568204  1
  O  O16  1  0.62438056  0.08777606  0.14761840  1
  O  O17  1  0.46110318  0.36984246  0.14728731  1
  O  O18  1  0.46978872  0.31307958  0.03193494  1
  O  O19  1  0.84414324  0.54002665  0.03160544  1
  O  O20  1  0.69361449  0.15945614  0.03238965  1
  O  O21  1  0.46545671  0.15156469  0.52722817  1
  O  O22  1  0.69056397  0.53929186  0.52750853  1
  O  O23  1  0.86398182  0.31992319  0.52947150  1
  O  O24  1  0.53875181  0.68491505  0.97443880  1
  O  O25  1  0.14733961  0.46090890  0.97420796  1
  O  O26  1  0.31303996  0.85277444  0.97459307  1
  O  O27  1  0.51655501  0.85342236  0.47077483  1
  O  O28  1  0.32468729  0.47127766  0.47591596  1
  O  O29  1  0.13965039  0.66575780  0.47598131  1
  O  O30  1  0.12956378  0.64059484  0.35936459  1
  O  O31  1  0.51260921  0.87242369  0.35484488  1
  O  O32  1  0.35659674  0.48654582  0.35973710  1
  O  O33  1  0.12678560  0.48671095  0.85898145  1
  O  O34  1  0.36255367  0.87346648  0.85980294  1
  O  O35  1  0.51359916  0.63840034  0.85934864  1
  O  O36  1  0.00800327  0.81374623  0.41673348  1
  O  O37  1  0.80093519  0.97865820  0.41796208  1
  O  O38  1  0.18627092  0.18717967  0.41824776  1
  O  O39  1  0.01177508  0.18354672  0.91419713  1
  O  O40  1  0.17309619  0.98845854  0.91443552  1
  O  O41  1  0.81590964  0.82734281  0.91494423  1
  O  O42  1  0.97544612  0.17737425  0.58282323  1
  O  O43  1  0.18446866  0.02808628  0.58525000  1
  O  O44  1  0.83736591  0.82393507  0.58455930  1
  O  O45  1  0.98709957  0.82311018  0.09127059  1
  O  O46  1  0.83154893  0.01397331  0.08826269  1
  O  O47  1  0.18415766  0.16646060  0.08694585  1
  O  O48  1  0.68837539  0.15730916  0.75212620  1
  O  O49  1  0.46877352  0.31318502  0.75295538  1
  O  O50  1  0.84899484  0.52383578  0.75087006  1
  O  O51  1  0.66691936  0.53369096  0.24646708  1
  O  O52  1  0.84111731  0.32860408  0.24986660  1
  O  O53  1  0.46113823  0.14273418  0.24830577  1
  O  O54  1  0.64805036  0.49771007  0.92214186  1
  O  O55  1  0.85238478  0.35385355  0.92222528  1
  O  O56  1  0.50261600  0.14908243  0.92328622  1
  O  O57  1  0.63835452  0.14885005  0.41948898  1
  O  O58  1  0.51374933  0.37045757  0.41956521  1
  O  O59  1  0.85250537  0.48094036  0.41994474  1
  O  O60  1  0.33107268  0.49207216  0.07586608  1
  O  O61  1  0.16021977  0.66976296  0.07532616  1
  O  O62  1  0.50839368  0.84004321  0.07488056  1
  O  O63  1  0.31933504  0.83553457  0.57608736  1
  O  O64  1  0.50606643  0.66812797  0.57781370  1
  O  O65  1  0.13616234  0.47544738  0.57711552  1
  O  O66  1  0.31178059  0.84019707  0.24800420  1
  O  O67  1  0.53476038  0.70147624  0.24926577  1
  O  O68  1  0.18044650  0.49231851  0.24950521  1
  O  O69  1  0.29850003  0.47795916  0.75209303  1
  O  O70  1  0.18286838  0.70257247  0.75236560  1
  O  O71  1  0.52406661  0.82178130  0.75230370  1
loop_
_geom_bond_atom_site_label_1
_geom_bond_atom_site_label_2
_geom_bond_distance
_geom_bond_site_symmetry_2
Na0 O16 2.314818 1_555
Na0 O52 2.463403 1_555
Na0 O53 2.525073 1_555
Na0 O67 2.686814 1_545
Na0 O66 2.789710 1_545
Na0 O31 2.887706 1_545
Na1 O17 2.221302 1_555
Na1 O68 2.513546 1_555
Na1 O51 2.537110 1_555
Na1 O53 2.700159 1_555
Na1 O67 2.768130 1_555
Na1 O10 2.900157 1_555
Na1 O32 3.045056 1_555
Na2 O15 2.239027 1_555
Na2 O52 2.352440 1_555
Na2 O68 2.558886 1_655
Na2 O66 2.667435 1_655
Na2 O51 2.763410 1_555
Na3 O49 2.445474 1_555
Na3 O14 2.466419 1_555
Na3 O50 2.581880 1_555
Na3 O71 2.596915 1_555
Na3 O69 2.713186 1_555
Na3 O35 2.852264 1_555
Na4 O50 2.394577 1_555
Na4 O48 2.489153 1_555
Na4 O69 2.573467 1_655
Na4 O33 2.638275 1_655
Na4 O70 2.738935 1_655
Na4 O12 2.872472 1_555
Na5 O48 2.446243 1_555
Na5 O13 2.513607 1_555
Na5 O49 2.519125 1_555
Na5 O70 2.568883 1_545
Na5 O71 2.676506 1_545
Na5 O34 2.850718 1_545
Na6 O43 2.519824 1_555
Na6 O7 2.600246 1_555
Na6 O64 2.703876 1_555
Na6 O65 2.705761 1_555
Na6 O14 2.756301 1_555
Na6 O42 2.873289 1_455
Na6 O28 2.939767 1_555
Na6 O21 3.021516 1_555
Na7 O63 2.367111 1_555
Na7 O44 2.533451 1_455
Na7 O43 2.611254 1_565
Na7 O29 2.681634 1_555
Na7 O8 2.768030 1_555
Na7 O65 2.806340 1_555
Na7 O22 3.000117 1_455
Na8 O64 2.451699 1_555
Na8 O6 2.512801 1_555
Na8 O44 2.658301 1_555
Na8 O42 2.673529 1_565
Na8 O13 2.698824 1_565
Na8 O63 2.786466 1_555
Na9 O61 2.449082 1_555
Na9 O26 2.523560 1_554
Na9 O47 2.663939 1_565
Na9 O62 2.664949 1_555
Na9 O45 2.684917 1_455
Na9 O18 2.940134 1_565
Na10 O62 2.480464 1_555
Na10 O24 2.519526 1_554
Na10 O46 2.676583 1_565
Na10 O60 2.694478 1_555
Na10 O45 2.697516 1_555
Na10 O19 2.841925 1_555
Na11 O60 2.484224 1_555
Na11 O25 2.572206 1_554
Na11 O61 2.593537 1_555
Na11 O46 2.761079 1_455
Na11 O47 2.799887 1_555
Na11 O20 2.892659 1_455
Na11 O15 2.906804 1_455
Na12 O41 2.530638 1_555
Na12 O55 2.566038 1_555
Na12 O54 2.588787 1_555
Na12 O4 2.624582 1_555
Na12 O40 2.659619 1_655
Na12 O19 2.944811 1_556
Na12 O33 3.010581 1_655
Na13 O39 2.539358 1_655
Na13 O56 2.565700 1_555
Na13 O55 2.596768 1_555
Na13 O5 2.645642 1_545
Na13 O41 2.664298 1_545
Na13 O20 2.975066 1_556
Na13 O34 2.991678 1_545
Na14 O40 2.527495 1_545
Na14 O54 2.577361 1_555
Na14 O56 2.591905 1_555
Na14 O39 2.667867 1_555
Na14 O3 2.685937 1_555
Na14 O18 2.971586 1_556
Na14 O35 3.006905 1_555
Na15 O2 2.328874 1_555
Na15 O37 2.470409 1_545
Na15 O59 2.554991 1_555
Na15 O57 2.661190 1_555
Na15 O38 2.661778 1_655
Na15 O23 2.961325 1_555
Na16 O38 2.373671 1_555
Na16 O36 2.565662 1_545
Na16 O57 2.642297 1_555
Na16 O21 2.723074 1_555
Na16 O0 2.804478 1_545
Na16 O58 2.809388 1_555
Na17 O36 2.389557 1_655
Na17 O37 2.459686 1_555
Na17 O58 2.580278 1_555
Na17 O22 2.699960 1_555
Na17 O59 2.781490 1_555
Na17 O1 2.811074 1_555
Na18 O36 2.479772 1_555
Na18 O38 2.505066 1_565
Na18 O37 2.531825 1_455
Na18 O44 2.555545 1_455
Na18 O43 2.590223 1_565
Na18 O42 2.705994 1_465
Na19 O41 2.457942 1_455
Na19 O40 2.458117 1_555
Na19 O39 2.475709 1_565
Na19 O47 2.682248 1_566
Na19 O46 2.705603 1_466
Na19 O45 2.731715 1_456
Na20 O48 2.423869 1_555
Na20 O49 2.424472 1_555
Na20 O50 2.448081 1_555
Na20 O54 2.727080 1_555
Na20 O56 2.756504 1_555
Na20 O55 2.757348 1_555
Na21 O52 2.396035 1_555
Na21 O59 2.410554 1_555
Na21 O57 2.444639 1_555
Na21 O58 2.683257 1_555
Na21 O53 2.816824 1_555
Na21 O51 2.874282 1_555
Na22 O60 2.409819 1_555
Na22 O61 2.438042 1_555
Na22 O62 2.519488 1_555
Na22 O68 2.584079 1_555
Na22 O66 2.734366 1_555
Na22 O67 2.791671 1_555
Na23 O71 2.349552 1_555
Na23 O70 2.437707 1_555
Na23 O69 2.466013 1_555
Na23 O64 2.667186 1_555
Na23 O63 2.754693 1_555
Na23 O65 2.934714 1_555
Ca0 O2 2.193760 1_555
Ca0 O38 2.277827 1_655
Ca0 O37 2.286124 1_545
Ca0 O0 2.325372 1_645
Ca0 O36 2.327084 1_645
Ca0 O1 2.330839 1_545
Ca1 O14 2.251270 1_555
Ca1 O13 2.251483 1_555
Ca1 O49 2.295990 1_555
Ca1 O50 2.325594 1_555
Ca1 O48 2.336445 1_555
Ca1 O12 2.371509 1_555
Ca2 O15 2.200254 1_555
Ca2 O16 2.208836 1_555
Ca2 O17 2.251697 1_555
Ca2 O52 2.352831 1_555
Ca2 O51 2.484047 1_555
Ca2 O53 2.514279 1_555
O0 S0 1.458758 1_555
O1 S1 1.462723 1_555
O2 Si0 1.603105 1_655
O3 Si1 1.647693 1_555
O3 Zr0 2.025296 1_445
O4 Si2 1.643089 1_655
O4 Zr0 2.039183 1_555
O5 Si3 1.646012 1_555
O5 Zr0 2.029362 1_555
O6 Si3 1.667405 1_555
O6 Zr1 2.054446 1_655
O7 Si1 1.666542 1_555
O7 Zr1 2.052303 1_545
O8 Si2 1.673948 1_555
O8 Zr1 1.986629 1_555
O9 S1 1.497056 1_555
O9 Zr2 2.343296 1_665
O10 Si0 1.692777 1_555
O10 Zr2 2.042227 1_555
O11 S0 1.498369 1_555
O11 Zr2 2.349038 1_565
O12 S2 1.466891 1_555
O13 Si4 1.604355 1_555
O14 Si5 1.603193 1_555
O15 Si6 1.606017 1_555
O16 Si7 1.604311 1_555
O17 Si8 1.604310 1_555
O18 Si8 1.648258 1_555
O18 Zr3 2.087386 1_554
O19 Si6 1.658510 1_555
O19 Zr3 2.100889 1_554
O20 Si7 1.653944 1_555
O20 Zr3 2.102473 1_554
O21 Si4 1.682066 1_555
O21 Zr4 2.055082 1_555
O22 Si5 1.681956 1_555
O22 Zr4 2.063573 1_555
O23 S2 1.494358 1_555
O23 Zr4 2.333747 1_555
O24 Si9 1.641144 1_555
O24 Zr5 2.056279 1_556
O25 Si10 1.640312 1_555
O25 Zr5 2.056129 1_556
O26 Si11 1.642019 1_555
O26 Zr5 2.055359 1_556
O27 Si12 1.645494 1_555
O27 Zr6 1.970982 1_555
O28 Si13 1.630062 1_555
O28 Zr6 2.051769 1_555
O29 Si14 1.631276 1_555
O29 Zr6 2.057217 1_555
O30 Si14 1.678094 1_555
O30 Zr7 1.985203 1_555
O31 Si12 1.668925 1_555
O31 Zr7 2.072532 1_555
O32 Si13 1.673824 1_555
O32 Zr7 1.991165 1_555
O33 Si10 1.647461 1_555
O33 Zr8 2.100882 1_555
O34 Si11 1.644925 1_555
O34 Zr8 2.087736 1_555
O35 Si9 1.645686 1_555
O35 Zr8 2.087082 1_555
O36 Si14 1.611638 1_555
O37 Si12 1.613013 1_555
O38 Si13 1.607047 1_555
O39 Si10 1.644249 1_555
O39 Zr0 2.187192 1_445
O40 Si11 1.644729 1_555
O40 Zr0 2.199686 1_455
O41 Si9 1.644088 1_555
O41 Zr0 2.193990 1_555
O42 S2 1.491401 1_555
O42 Zr1 2.446927 1_645
O43 Si4 1.661308 1_555
O43 Zr1 2.170078 1_545
O44 Si5 1.660583 1_555
O44 Zr1 2.178358 1_655
O45 Si6 1.657015 1_555
O45 Zr2 2.095761 1_665
O46 Si7 1.674217 1_555
O46 Zr2 2.018133 1_655
O47 Si8 1.673083 1_555
O47 Zr2 2.022464 1_555
O48 Si3 1.612837 1_545
O49 Si1 1.614507 1_555
O50 Si2 1.610563 1_655
O51 S1 1.483662 1_555
O52 Si0 1.632483 1_655
O53 S0 1.487992 1_545
O54 Si9 1.643715 1_555
O54 Zr3 2.145282 1_555
O55 Si10 1.643769 1_655
O55 Zr3 2.145869 1_555
O56 Si11 1.644265 1_545
O56 Zr3 2.152891 1_555
O57 Si12 1.645990 1_545
O57 Zr4 2.166138 1_555
O58 Si13 1.656057 1_555
O58 Zr4 2.049844 1_555
O59 Si14 1.643721 1_655
O59 Zr4 2.152717 1_555
O60 Si8 1.638759 1_555
O60 Zr5 2.153111 1_555
O61 Si6 1.645466 1_455
O61 Zr5 2.142501 1_555
O62 Si7 1.637480 1_565
O62 Zr5 2.137600 1_555
O63 Si4 1.657600 1_565
O63 Zr6 2.100237 1_555
O64 Si5 1.666099 1_555
O64 Zr6 2.121699 1_555
O65 S2 1.496335 1_455
O65 Zr6 2.333994 1_555
O66 S0 1.511442 1_555
O66 Zr7 2.414227 1_555
O67 S1 1.511896 1_555
O67 Zr7 2.391638 1_555
O68 Si0 1.696550 1_555
O68 Zr7 2.147807 1_555
O69 Si1 1.650795 1_555
O69 Zr8 2.153482 1_555
O70 Si2 1.643830 1_555
O70 Zr8 2.161170 1_555
O71 Si3 1.650602 1_555
O71 Zr8 2.159197 1_555
