# generated using pymatgen
data_ZrSnCl6
_symmetry_space_group_name_H-M   'P 1'
_cell_length_a   6.68519600
_cell_length_b   11.97743900
_cell_length_c   18.83345114
_cell_angle_alpha   88.04966651
_cell_angle_beta   90.00000000
_cell_angle_gamma   90.00000000
_symmetry_Int_Tables_number   1
_chemical_formula_structural   ZrSnCl6
_chemical_formula_sum   'Zr6 Sn6 Cl36'
_cell_volume   1507.14960541
_cell_formula_units_Z   6
loop_
 _symmetry_equiv_pos_site_id
 _symmetry_equiv_pos_as_xyz
  1  'x, y, z'
loop_
 _atom_site_type_symbol
 _atom_site_label
 _atom_site_symmetry_multiplicity
 _atom_site_fract_x
 _atom_site_fract_y
 _atom_site_fract_z
 _atom_site_occupancy
  Zr  Zr0  1  0.48094600  0.50695800  0.00200300  1
  Zr  Zr1  1  0.51905400  0.50695800  0.50200300  1
  Zr  Zr2  1  0.99296000  0.66939100  0.16345700  1
  Zr  Zr3  1  0.00704000  0.66939100  0.66345700  1
  Zr  Zr4  1  0.99014600  0.99500200  0.49978000  1
  Zr  Zr5  1  0.00985400  0.99500200  0.99978000  1
  Sn  Sn0  1  0.98930800  0.32214000  0.32983900  1
  Sn  Sn1  1  0.01069200  0.32214000  0.82983900  1
  Sn  Sn2  1  0.49168000  0.84307900  0.83968100  1
  Sn  Sn3  1  0.50832000  0.84307900  0.33968100  1
  Sn  Sn4  1  0.48995600  0.16618700  0.17507000  1
  Sn  Sn5  1  0.51004400  0.16618700  0.67507000  1
  Cl  Cl0  1  0.15463500  0.16803100  0.25255100  1
  Cl  Cl1  1  0.84536500  0.16803100  0.75255100  1
  Cl  Cl2  1  0.69172600  0.68088600  0.23460500  1
  Cl  Cl3  1  0.30827400  0.68088600  0.73460500  1
  Cl  Cl4  1  0.30689700  0.98387300  0.07209900  1
  Cl  Cl5  1  0.69310300  0.98387300  0.57209900  1
  Cl  Cl6  1  0.34591300  0.36291500  0.44128900  1
  Cl  Cl7  1  0.65408700  0.36291500  0.94128900  1
  Cl  Cl8  1  0.85377400  0.84733400  0.41703400  1
  Cl  Cl9  1  0.14622600  0.84733400  0.91703400  1
  Cl  Cl10  1  0.14094600  0.82781800  0.57547600  1
  Cl  Cl11  1  0.85905400  0.82781800  0.07547600  1
  Cl  Cl12  1  0.34286500  0.32128000  0.75737600  1
  Cl  Cl13  1  0.65713500  0.32128000  0.25737600  1
  Cl  Cl14  1  0.83997700  0.81262900  0.72835400  1
  Cl  Cl15  1  0.16002300  0.81262900  0.22835400  1
  Cl  Cl16  1  0.84352100  0.14422500  0.42181800  1
  Cl  Cl17  1  0.15647900  0.14422500  0.92181800  1
  Cl  Cl18  1  0.35360700  0.66244900  0.43645600  1
  Cl  Cl19  1  0.64639300  0.66244900  0.93645600  1
  Cl  Cl20  1  0.80463200  0.51072200  0.42452300  1
  Cl  Cl21  1  0.19536800  0.51072200  0.92452300  1
  Cl  Cl22  1  0.30848800  0.99102400  0.42510500  1
  Cl  Cl23  1  0.69151200  0.99102400  0.92510500  1
  Cl  Cl24  1  0.85104200  0.13019700  0.07366600  1
  Cl  Cl25  1  0.14895800  0.13019700  0.57366600  1
  Cl  Cl26  1  0.29637800  0.65992800  0.07856600  1
  Cl  Cl27  1  0.70362200  0.65992800  0.57856600  1
  Cl  Cl28  1  0.65558400  0.00728500  0.25706900  1
  Cl  Cl29  1  0.34441600  0.00728500  0.75706900  1
  Cl  Cl30  1  0.86453100  0.51648400  0.73488800  1
  Cl  Cl31  1  0.13546900  0.51648400  0.23488800  1
  Cl  Cl32  1  0.34491400  0.37262900  0.08961900  1
  Cl  Cl33  1  0.65508600  0.37262900  0.58961900  1
  Cl  Cl34  1  0.80203600  0.52953100  0.08757700  1
  Cl  Cl35  1  0.19796400  0.52953100  0.58757700  1
loop_
_geom_bond_atom_site_label_1
_geom_bond_atom_site_label_2
_geom_bond_distance
_geom_bond_site_symmetry_2
Cl0 Sn0 2.632547 1_455
Cl0 Sn4 2.675296 1_555
Cl1 Sn1 2.632547 1_655
Cl1 Sn5 2.675296 1_555
Cl2 Zr2 2.425373 1_555
Cl2 Sn3 3.074921 1_555
Cl3 Zr3 2.425373 1_555
Cl3 Sn2 3.074921 1_555
Cl4 Zr5 2.409121 1_554
Cl5 Zr4 2.409121 1_555
Cl6 Zr1 2.399599 1_555
Cl7 Zr0 2.399599 1_556
Cl8 Zr4 2.564292 1_555
Cl8 Sn3 2.731930 1_555
Cl9 Zr5 2.564292 1_555
Cl9 Sn2 2.731930 1_555
Cl10 Zr4 2.619952 1_455
Cl10 Zr3 2.633181 1_555
Cl11 Zr5 2.619952 1_654
Cl11 Zr2 2.633181 1_555
Cl12 Sn1 2.606683 1_555
Cl12 Sn5 2.701602 1_555
Cl13 Sn0 2.606683 1_555
Cl13 Sn4 2.701602 1_555
Cl14 Zr3 2.413981 1_655
Cl14 Sn2 3.162705 1_555
Cl15 Zr2 2.413981 1_455
Cl15 Sn3 3.162705 1_555
Cl16 Zr4 2.476401 1_545
Cl16 Sn0 2.870615 1_555
Cl17 Zr5 2.476401 1_545
Cl17 Sn1 2.870615 1_555
Cl18 Zr1 2.461555 1_555
Cl18 Sn3 2.967139 1_555
Cl19 Zr0 2.461555 1_556
Cl19 Sn2 2.967139 1_555
Cl20 Zr1 2.402436 1_555
Cl21 Zr0 2.402436 1_556
Cl22 Zr4 2.552235 1_455
Cl22 Sn3 2.776156 1_555
Cl23 Zr5 2.552235 1_655
Cl23 Sn2 2.776156 1_555
Cl24 Zr5 2.416404 1_644
Cl25 Zr4 2.416404 1_445
Cl26 Zr2 2.587616 1_455
Cl26 Zr0 2.671777 1_555
Cl27 Zr3 2.587616 1_655
Cl27 Zr1 2.671777 1_555
Cl28 Sn4 2.652020 1_555
Cl28 Sn3 2.655153 1_545
Cl29 Sn5 2.652020 1_555
Cl29 Sn2 2.655153 1_545
Cl30 Zr3 2.429794 1_655
Cl30 Sn1 3.047567 1_655
Cl31 Zr2 2.429794 1_455
Cl31 Sn0 3.047567 1_455
Cl32 Zr0 2.440857 1_555
Cl32 Sn4 3.061581 1_555
Cl33 Zr1 2.440857 1_555
Cl33 Sn5 3.061581 1_555
Cl34 Zr2 2.576918 1_555
Cl34 Zr0 2.703305 1_555
Cl35 Zr3 2.576918 1_555
Cl35 Zr1 2.703305 1_555
