# generated using pymatgen
data_Na8Mg2Sc2Si3(SO8)3
_symmetry_space_group_name_H-M   'P 1'
_cell_length_a   9.17251411
_cell_length_b   9.17742996
_cell_length_c   22.34562644
_cell_angle_alpha   90.61371955
_cell_angle_beta   89.61027036
_cell_angle_gamma   120.01305104
_symmetry_Int_Tables_number   1
_chemical_formula_structural   Na8Mg2Sc2Si3(SO8)3
_chemical_formula_sum   'Na24 Mg6 Sc6 Si9 S9 O72'
_cell_volume   1628.73333352
_cell_formula_units_Z   3
loop_
 _symmetry_equiv_pos_site_id
 _symmetry_equiv_pos_as_xyz
  1  'x, y, z'
loop_
 _atom_site_type_symbol
 _atom_site_label
 _atom_site_symmetry_multiplicity
 _atom_site_fract_x
 _atom_site_fract_y
 _atom_site_fract_z
 _atom_site_occupancy
  Na  Na0  1  0.64193859  0.02220435  0.26096084  1
  Na  Na1  1  0.34610778  0.34258081  0.25457247  1
  Na  Na2  1  0.00299048  0.62463611  0.24264176  1
  Na  Na3  1  0.62420290  0.62484233  0.73277908  1
  Na  Na4  1  0.99270215  0.34603609  0.73641260  1
  Na  Na5  1  0.38474747  0.02581615  0.75163332  1
  Na  Na6  1  0.30539396  0.35117077  0.59296869  1
  Na  Na7  1  0.01410059  0.67641107  0.58599190  1
  Na  Na8  1  0.66998411  0.95765898  0.57966256  1
  Na  Na9  1  0.28375065  0.94385037  0.08090769  1
  Na  Na10  1  0.67846383  0.69479588  0.08181079  1
  Na  Na11  1  0.02865035  0.34768833  0.09538696  1
  Na  Na12  1  0.98731794  0.68727176  0.91819578  1
  Na  Na13  1  0.68487470  0.02578293  0.89954592  1
  Na  Na14  1  0.32372457  0.27690584  0.90213875  1
  Na  Na15  1  0.95078068  0.27660833  0.41595357  1
  Na  Na16  1  0.34123226  0.03050582  0.40916195  1
  Na  Na17  1  0.69535755  0.68259418  0.43055855  1
  Na  Na18  1  0.97223395  0.99552747  0.50395498  1
  Na  Na19  1  0.01163569  0.98506672  0.99624050  1
  Na  Na20  1  0.64485568  0.31211337  0.82070003  1
  Na  Na21  1  0.66515976  0.30734424  0.33050634  1
  Na  Na22  1  0.30397406  0.66172121  0.17062485  1
  Na  Na23  1  0.34132612  0.65055915  0.66072031  1
  Mg  Mg0  1  0.00026538  0.01105797  0.34810098  1
  Mg  Mg1  1  0.01225157  0.01062607  0.84293230  1
  Mg  Mg2  1  0.67025063  0.33624803  0.68255600  1
  Mg  Mg3  1  0.67814339  0.33209742  0.18770320  1
  Mg  Mg4  1  0.31532633  0.67292160  0.01564131  1
  Mg  Mg5  1  0.34938832  0.66739835  0.52083023  1
  Sc  Sc0  1  0.99154406  0.01121897  0.64907340  1
  Sc  Sc1  1  0.01125896  0.99956195  0.15379509  1
  Sc  Sc2  1  0.66804775  0.33493933  0.98240192  1
  Sc  Sc3  1  0.67618299  0.33053183  0.48699798  1
  Sc  Sc4  1  0.33475544  0.67937120  0.31419396  1
  Sc  Sc5  1  0.34338487  0.67994246  0.81166813  1
  Si  Si0  1  0.30151559  0.00481682  0.25179738  1
  Si  Si1  1  0.00092409  0.29851562  0.25058211  1
  Si  Si2  1  0.30253799  0.29997933  0.75209979  1
  Si  Si3  1  0.70547052  0.00337039  0.75377951  1
  Si  Si4  1  0.97128512  0.34099124  0.58428369  1
  Si  Si5  1  0.66982337  0.62941448  0.58427216  1
  Si  Si6  1  0.96187872  0.62959289  0.08445211  1
  Si  Si7  1  0.32887192  0.96683610  0.91961431  1
  Si  Si8  1  0.63302070  0.96385257  0.41762928  1
  S  S0  1  0.70435831  0.70336306  0.25011514  1
  S  S1  1  -0.00068170  0.70614486  0.75252964  1
  S  S2  1  0.36973418  0.03585246  0.58355522  1
  S  S3  1  0.66556410  0.03450570  0.08257818  1
  S  S4  1  0.37270863  0.33711491  0.08306466  1
  S  S5  1  0.62379741  0.66391198  0.92025460  1
  S  S6  1  0.03914024  0.37092820  0.91959176  1
  S  S7  1  0.33263267  0.37144597  0.41606512  1
  S  S8  1  0.03693294  0.66748106  0.41683761  1
  O  O0  1  0.20891598  0.02599183  0.31053061  1
  O  O1  1  0.81057477  0.78455416  0.30313607  1
  O  O2  1  0.96864667  0.18023782  0.30787985  1
  O  O3  1  0.22305064  0.18719233  0.81186613  1
  O  O4  1  0.97971570  0.78804772  0.80753906  1
  O  O5  1  0.81274954  0.02058406  0.81412331  1
  O  O6  1  0.79149275  0.96759431  0.69487016  1
  O  O7  1  0.18067669  0.20616068  0.69370379  1
  O  O8  1  0.02748633  0.81086411  0.69869586  1
  O  O9  1  0.78195333  0.80864240  0.19508204  1
  O  O10  1  0.02738007  0.20931739  0.18842464  1
  O  O11  1  0.18208864  0.96743520  0.19098616  1
  O  O12  1  0.88219254  0.36646877  0.64327540  1
  O  O13  1  0.47513673  0.11616279  0.63703777  1
  O  O14  1  0.64040186  0.51111150  0.64173851  1
  O  O15  1  0.86533508  0.51406576  0.14163376  1
  O  O16  1  0.63786985  0.11332536  0.13610598  1
  O  O17  1  0.47194681  0.35638397  0.13692575  1
  O  O18  1  0.45421704  0.31136702  0.02923965  1
  O  O19  1  0.84588052  0.53979624  0.02336207  1
  O  O20  1  0.68624947  0.13823669  0.02872129  1
  O  O21  1  0.44900400  0.14144572  0.52877182  1
  O  O22  1  0.69055870  0.53778543  0.52209414  1
  O  O23  1  0.85019047  0.30322878  0.52410566  1
  O  O24  1  0.53942089  0.67949216  0.97491740  1
  O  O25  1  0.14272488  0.45289909  0.97371447  1
  O  O26  1  0.30563411  0.85886717  0.97987734  1
  O  O27  1  0.53719291  0.84824522  0.47496290  1
  O  O28  1  0.31150821  0.45592689  0.46943377  1
  O  O29  1  0.13881040  0.68651824  0.47014347  1
  O  O30  1  0.11772298  0.64312809  0.36147694  1
  O  O31  1  0.51763702  0.87411415  0.35630352  1
  O  O32  1  0.35206940  0.47154318  0.36083832  1
  O  O33  1  0.11813131  0.47390297  0.86608692  1
  O  O34  1  0.36178054  0.87524089  0.86135584  1
  O  O35  1  0.52043571  0.64121179  0.86653226  1
  O  O36  1  0.01904554  0.81958870  0.41128587  1
  O  O37  1  0.82157434  0.98140643  0.41325539  1
  O  O38  1  0.18181796  0.19941647  0.41242120  1
  O  O39  1  0.01508663  0.19895165  0.91581194  1
  O  O40  1  0.15818934  0.98329550  0.91376358  1
  O  O41  1  0.79415372  0.81444148  0.91630655  1
  O  O42  1  0.99187948  0.17110264  0.58580731  1
  O  O43  1  0.19992098  0.01843088  0.58866486  1
  O  O44  1  0.84819320  0.81426792  0.58681073  1
  O  O45  1  0.97913235  0.82093181  0.08580615  1
  O  O46  1  0.82206822  0.02368776  0.08646009  1
  O  O47  1  0.20112094  0.18511982  0.08497288  1
  O  O48  1  0.68760294  0.17067564  0.74734067  1
  O  O49  1  0.49259417  0.32805573  0.74520415  1
  O  O50  1  0.84762536  0.53737000  0.74795710  1
  O  O51  1  0.68231269  0.53289110  0.24276838  1
  O  O52  1  0.83873417  0.32712721  0.24656313  1
  O  O53  1  0.48550725  0.17489428  0.24365402  1
  O  O54  1  0.64152183  0.50934453  0.92237400  1
  O  O55  1  0.86761076  0.35558525  0.92489417  1
  O  O56  1  0.50347523  0.15928559  0.92293699  1
  O  O57  1  0.64662610  0.15333286  0.41853716  1
  O  O58  1  0.48780391  0.35593019  0.41945508  1
  O  O59  1  0.86472785  0.51306154  0.41883504  1
  O  O60  1  0.35863505  0.49011399  0.07646295  1
  O  O61  1  0.15039993  0.64627239  0.08154881  1
  O  O62  1  0.51983344  0.86129980  0.07650170  1
  O  O63  1  0.34962535  0.86577010  0.57618863  1
  O  O64  1  0.50728635  0.65837172  0.58104879  1
  O  O65  1  0.15575703  0.51091071  0.57610092  1
  O  O66  1  0.32234976  0.83472584  0.25305013  1
  O  O67  1  0.53360544  0.68559996  0.25507449  1
  O  O68  1  0.17813984  0.48433945  0.25391235  1
  O  O69  1  0.30937497  0.48532982  0.75751806  1
  O  O70  1  0.15142167  0.68523002  0.75760810  1
  O  O71  1  0.51264338  0.83302620  0.75457902  1
loop_
_geom_bond_atom_site_label_1
_geom_bond_atom_site_label_2
_geom_bond_distance
_geom_bond_site_symmetry_2
Na0 O52 2.480116 1_555
Na0 O31 2.482916 1_545
Na0 O53 2.490520 1_555
Na0 O66 2.557287 1_545
Na0 O67 2.733102 1_545
Na0 O2 2.800944 1_555
Na0 O16 2.926980 1_555
Na1 O53 2.453365 1_555
Na1 O68 2.464225 1_555
Na1 O32 2.630436 1_555
Na1 O51 2.690855 1_555
Na1 O67 2.729715 1_555
Na1 O0 2.826240 1_555
Na1 O17 2.842359 1_555
Na1 O10 2.944616 1_555
Na2 O52 2.370775 1_455
Na2 O68 2.526677 1_555
Na2 O15 2.535028 1_455
Na2 O66 2.588823 1_555
Na2 O51 2.623592 1_455
Na2 O30 2.835032 1_555
Na2 O11 2.968204 1_555
Na3 O14 2.314232 1_555
Na3 O49 2.382314 1_555
Na3 O69 2.564899 1_555
Na3 O50 2.573011 1_555
Na3 O71 2.619904 1_555
Na3 O6 2.859643 1_555
Na4 O12 2.370927 1_555
Na4 O48 2.444367 1_555
Na4 O69 2.566096 1_655
Na4 O50 2.691461 1_555
Na4 O70 2.734629 1_655
Na4 O7 2.774369 1_655
Na5 O48 2.407931 1_555
Na5 O49 2.440226 1_555
Na5 O71 2.567301 1_545
Na5 O13 2.694626 1_555
Na5 O70 2.771475 1_545
Na5 O34 2.782040 1_545
Na5 O3 2.886582 1_555
Na6 O65 2.491374 1_555
Na6 O64 2.497040 1_555
Na6 O42 2.504543 1_455
Na6 O7 2.579307 1_555
Na6 O43 2.703661 1_555
Na6 O14 2.878148 1_555
Na6 O28 2.923764 1_555
Na7 O44 2.417031 1_455
Na7 O65 2.450984 1_555
Na7 O63 2.681085 1_555
Na7 O43 2.721470 1_565
Na7 O8 2.768805 1_555
Na7 O12 2.794175 1_455
Na7 O29 2.806640 1_555
Na7 O22 2.950616 1_455
Na8 O64 2.381789 1_555
Na8 O44 2.566958 1_555
Na8 O27 2.594303 1_555
Na8 O42 2.605290 1_565
Na8 O63 2.621950 1_555
Na8 O6 2.794694 1_555
Na9 O61 2.369287 1_555
Na9 O26 2.420331 1_554
Na9 O45 2.436572 1_455
Na9 O62 2.628620 1_555
Na9 O11 2.669492 1_555
Na9 O47 2.675661 1_565
Na10 O45 2.400269 1_555
Na10 O60 2.576076 1_555
Na10 O62 2.587810 1_555
Na10 O46 2.621869 1_565
Na10 O24 2.684543 1_554
Na10 O9 2.717192 1_555
Na10 O19 2.864560 1_555
Na10 O17 2.985882 1_555
Na11 O61 2.409092 1_555
Na11 O10 2.444660 1_555
Na11 O46 2.613009 1_455
Na11 O60 2.661829 1_555
Na11 O47 2.670495 1_555
Na11 O15 2.806570 1_455
Na11 O25 2.902778 1_554
Na12 O40 2.364516 1_655
Na12 O41 2.563963 1_555
Na12 O4 2.662763 1_555
Na12 O55 2.675439 1_555
Na12 O19 2.703243 1_556
Na12 O54 2.748354 1_555
Na12 O26 2.883251 1_655
Na12 O33 2.985413 1_655
Na13 O5 2.246158 1_555
Na13 O56 2.560614 1_555
Na13 O41 2.621551 1_545
Na13 O39 2.649334 1_655
Na13 O55 2.681860 1_555
Na13 O34 2.707944 1_545
Na14 O3 2.197469 1_555
Na14 O40 2.355921 1_545
Na14 O56 2.429253 1_555
Na14 O39 2.566405 1_555
Na14 O54 2.651178 1_555
Na15 O37 2.352309 1_545
Na15 O57 2.430693 1_555
Na15 O38 2.549014 1_655
Na15 O2 2.595195 1_555
Na15 O23 2.633265 1_555
Na15 O59 2.654441 1_555
Na16 O57 2.450605 1_555
Na16 O0 2.513240 1_555
Na16 O58 2.598580 1_555
Na16 O36 2.600008 1_545
Na16 O38 2.609628 1_555
Na16 O21 2.851006 1_555
Na16 O31 2.886916 1_545
Na17 O37 2.418822 1_555
Na17 O22 2.439331 1_555
Na17 O36 2.615571 1_655
Na17 O58 2.637119 1_555
Na17 O59 2.703093 1_555
Na17 O27 2.748625 1_555
Na18 O42 2.371733 1_565
Na18 O44 2.373511 1_555
Na18 O37 2.426418 1_555
Na18 O43 2.755905 1_665
Na18 O36 2.772971 1_655
Na18 O38 2.794719 1_665
Na19 O40 2.278480 1_555
Na19 O45 2.443509 1_456
Na19 O41 2.546663 1_455
Na19 O39 2.663963 1_565
Na19 O47 2.664521 1_566
Na19 O46 2.786926 1_466
Na20 O48 2.231736 1_555
Na20 O49 2.249377 1_555
Na20 O50 2.561151 1_555
Na20 O56 2.660232 1_555
Na20 O54 2.899220 1_555
Na20 O55 2.997360 1_555
Na21 O57 2.389731 1_555
Na21 O52 2.400786 1_555
Na21 O53 2.439001 1_555
Na21 O59 2.706098 1_555
Na21 O58 2.731044 1_555
Na21 O51 2.812497 1_555
Na22 O68 2.366858 1_555
Na22 O66 2.369719 1_555
Na22 O61 2.408040 1_555
Na22 O67 2.762070 1_555
Na22 O60 2.804210 1_555
Na22 O62 2.845458 1_555
Na23 O64 2.312712 1_555
Na23 O65 2.434077 1_555
Na23 O69 2.584754 1_555
Na23 O71 2.647537 1_555
Na23 O63 2.720716 1_555
Na23 O70 2.882912 1_555
Mg0 O2 1.945891 1_455
Mg0 O0 2.025988 1_555
Mg0 O37 2.100009 1_445
Mg0 O1 2.172280 1_445
Mg0 O38 2.219613 1_555
Mg0 O36 2.338838 1_545
Mg1 O3 1.928145 1_555
Mg1 O5 1.988975 1_455
Mg1 O4 2.060563 1_445
Mg1 O40 2.175588 1_545
Mg1 O39 2.352725 1_555
Mg1 O41 2.519391 1_445
Mg2 O14 1.989107 1_555
Mg2 O12 2.017243 1_555
Mg2 O49 2.114123 1_555
Mg2 O13 2.163720 1_555
Mg2 O48 2.173065 1_555
Mg2 O50 2.271577 1_555
Mg3 O15 1.985209 1_555
Mg3 O52 1.999161 1_555
Mg3 O53 2.055500 1_555
Mg3 O16 2.170519 1_555
Mg3 O51 2.189264 1_555
Mg3 O17 2.317461 1_555
Mg4 O26 1.934083 1_554
Mg4 O61 2.030911 1_555
Mg4 O25 2.059883 1_554
Mg4 O24 2.215534 1_554
Mg4 O62 2.257695 1_555
Mg4 O60 2.354266 1_555
Mg5 O27 1.981118 1_555
Mg5 O64 2.015968 1_555
Mg5 O65 2.049099 1_555
Mg5 O28 2.118819 1_555
Mg5 O63 2.189161 1_555
Mg5 O29 2.327557 1_555
O0 Si0 1.620545 1_555
O1 S0 1.476037 1_555
O2 Si1 1.615040 1_655
O3 Si2 1.627266 1_555
O4 S1 1.490203 1_655
O5 Si3 1.633848 1_555
O6 Si3 1.642860 1_565
O6 Sc0 1.955240 1_565
O7 Si2 1.651209 1_555
O7 Sc0 2.021221 1_455
O8 S1 1.486472 1_555
O8 Sc0 2.318251 1_465
O9 S0 1.509299 1_555
O9 Sc1 2.160223 1_655
O10 Si1 1.681658 1_555
O10 Sc1 2.002805 1_545
O11 Si0 1.672876 1_565
O11 Sc1 1.928218 1_555
O12 Si4 1.621745 1_555
O13 S2 1.479933 1_555
O14 Si5 1.622534 1_555
O15 Si6 1.617202 1_555
O16 S3 1.476354 1_555
O17 S4 1.468917 1_555
O18 S4 1.489909 1_555
O18 Sc2 2.131106 1_554
O19 Si6 1.671283 1_555
O19 Sc2 1.987114 1_554
O20 S3 1.493768 1_555
O20 Sc2 2.168386 1_554
O21 S2 1.508239 1_555
O21 Sc3 2.148412 1_555
O22 Si5 1.674858 1_555
O22 Sc3 1.992182 1_555
O23 Si4 1.669538 1_555
O23 Sc3 1.928831 1_555
O24 S5 1.485106 1_555
O25 S6 1.487425 1_555
O26 Si7 1.629121 1_555
O27 Si8 1.618794 1_555
O28 S7 1.479253 1_555
O29 S8 1.473080 1_555
O30 S8 1.508886 1_555
O30 Sc4 2.122849 1_555
O31 Si8 1.673278 1_555
O31 Sc4 1.969718 1_555
O32 S7 1.502023 1_555
O32 Sc4 2.257735 1_555
O33 S6 1.474773 1_555
O33 Sc5 2.330203 1_555
O34 Si7 1.648494 1_555
O34 Sc5 2.032508 1_555
O35 S5 1.481859 1_555
O35 Sc5 2.209215 1_555
O36 S8 1.491349 1_555
O37 Si8 1.657111 1_555
O38 S7 1.492233 1_555
O39 S6 1.481853 1_555
O40 Si7 1.652504 1_555
O41 S5 1.482956 1_555
O42 Si4 1.662417 1_555
O42 Sc0 2.047318 1_555
O43 S2 1.487816 1_555
O43 Sc0 2.306513 1_455
O44 Si5 1.667507 1_555
O44 Sc0 2.127234 1_565
O45 Si6 1.682382 1_555
O45 Sc1 2.133529 1_655
O46 S3 1.490839 1_555
O46 Sc1 2.398222 1_645
O47 S4 1.492917 1_555
O47 Sc1 2.313168 1_545
O48 Si3 1.631536 1_555
O49 Si2 1.636164 1_555
O50 S1 1.479229 1_655
O51 S0 1.481198 1_555
O52 Si1 1.638093 1_655
O53 Si0 1.638380 1_555
O54 S5 1.507701 1_555
O54 Sc2 2.204624 1_555
O55 S6 1.511790 1_655
O55 Sc2 2.159676 1_555
O56 Si7 1.690845 1_545
O56 Sc2 2.046965 1_555
O57 Si8 1.679906 1_545
O57 Sc3 2.137686 1_555
O58 S7 1.502091 1_555
O58 Sc3 2.400810 1_555
O59 S8 1.505448 1_655
O59 Sc3 2.288592 1_555
O60 S4 1.481911 1_555
O61 Si6 1.658826 1_455
O62 S3 1.484659 1_565
O63 S2 1.484746 1_565
O64 Si5 1.642177 1_555
O65 Si4 1.640288 1_455
O66 Si0 1.665369 1_565
O66 Sc4 2.029445 1_555
O67 S0 1.494838 1_555
O67 Sc4 2.222569 1_555
O68 Si1 1.667896 1_555
O68 Sc4 2.117611 1_555
O69 Si2 1.673650 1_555
O69 Sc5 2.037857 1_555
O70 S1 1.505570 1_555
O70 Sc5 2.162791 1_555
O71 Si3 1.675304 1_565
O71 Sc5 1.959831 1_555
