# generated using pymatgen
data_Na5In2SiGe2P5O24
_symmetry_space_group_name_H-M   'P 1'
_cell_length_a   8.84568545
_cell_length_b   8.85324991
_cell_length_c   22.19933587
_cell_angle_alpha   90.13937324
_cell_angle_beta   89.71149835
_cell_angle_gamma   120.26874384
_symmetry_Int_Tables_number   1
_chemical_formula_structural   Na5In2SiGe2P5O24
_chemical_formula_sum   'Na15 In6 Si3 Ge6 P15 O72'
_cell_volume   1501.47066518
_cell_formula_units_Z   3
loop_
 _symmetry_equiv_pos_site_id
 _symmetry_equiv_pos_as_xyz
  1  'x, y, z'
loop_
 _atom_site_type_symbol
 _atom_site_label
 _atom_site_symmetry_multiplicity
 _atom_site_fract_x
 _atom_site_fract_y
 _atom_site_fract_z
 _atom_site_occupancy
  Na  Na0  1  0.00330568  0.64681323  0.25073915  1
  Na  Na1  1  0.62653733  0.63480505  0.75039572  1
  Na  Na2  1  0.37446216  0.99846565  0.75098933  1
  Na  Na3  1  0.66532003  0.97119642  0.58606655  1
  Na  Na4  1  0.30136826  0.97407502  0.08117064  1
  Na  Na5  1  0.67954792  0.70078640  0.07912720  1
  Na  Na6  1  0.02794710  0.32970665  0.08272063  1
  Na  Na7  1  0.96338280  0.29847266  0.41733650  1
  Na  Na8  1  0.33913916  0.03907232  0.41981367  1
  Na  Na9  1  0.00566846  0.98923597  0.50421356  1
  Na  Na10  1  0.00084045  0.99359150  0.99592064  1
  Na  Na11  1  0.68276664  0.33468413  0.83615282  1
  Na  Na12  1  0.65298808  0.33608492  0.33317814  1
  Na  Na13  1  0.34507018  0.66741076  0.16862428  1
  Na  Na14  1  0.31318774  0.64876013  0.66601851  1
  In  In0  1  0.99512423  0.99496938  0.35048853  1
  In  In1  1  -0.00006471  -0.00015769  0.15324582  1
  In  In2  1  0.66733334  0.33673409  0.97748603  1
  In  In3  1  0.66135459  0.33679906  0.48947403  1
  In  In4  1  0.33968234  0.66661059  0.31470620  1
  In  In5  1  0.32977892  0.66526654  0.81183540  1
  Si  Si0  1  0.72735218  0.01599942  0.74846375  1
  Si  Si1  1  0.36036034  0.03177602  0.58497062  1
  Si  Si2  1  0.96365960  0.62486562  0.08212726  1
  Ge  Ge0  1  0.99458809  0.00307619  0.85371662  1
  Ge  Ge1  1  0.00347050  0.00004626  0.64878733  1
  Ge  Ge2  1  0.67170515  0.32617435  0.68381010  1
  Ge  Ge3  1  0.67043172  0.33285428  0.18341416  1
  Ge  Ge4  1  0.32510564  0.66540528  0.01229824  1
  Ge  Ge5  1  0.33086542  0.66764629  0.52309884  1
  P  P0  1  0.31446207  0.01249424  0.24866089  1
  P  P1  1  0.69629851  0.68636819  0.24502835  1
  P  P2  1  0.98835365  0.29919725  0.24847920  1
  P  P3  1  0.28514772  0.27771374  0.74848606  1
  P  P4  1  0.98908990  0.71167467  0.74866159  1
  P  P5  1  0.96728237  0.33497309  0.58493502  1
  P  P6  1  0.66748610  0.62930185  0.58784233  1
  P  P7  1  0.65966406  0.03895913  0.08236857  1
  P  P8  1  0.38082782  0.34100532  0.08316182  1
  P  P9  1  0.63023956  0.67822606  0.91431589  1
  P  P10  1  0.04524545  0.36472115  0.91533066  1
  P  P11  1  0.31979317  0.95700857  0.91345436  1
  P  P12  1  0.62442656  0.95422572  0.42218403  1
  P  P13  1  0.33513885  0.38131388  0.42089600  1
  P  P14  1  0.04446311  0.66679583  0.41946304  1
  O  O0  1  0.23404659  0.03909347  0.30715023  1
  O  O1  1  0.82102096  0.77242539  0.29916556  1
  O  O2  1  0.96630656  0.19438817  0.30668810  1
  O  O3  1  0.20589532  0.15988687  0.80544646  1
  O  O4  1  0.95304251  0.79152389  0.80593822  1
  O  O5  1  0.84417346  0.04161928  0.80888437  1
  O  O6  1  0.81240727  0.97699811  0.68896799  1
  O  O7  1  0.17347843  0.19250303  0.69207943  1
  O  O8  1  0.02520560  0.83113219  0.69326265  1
  O  O9  1  0.77119424  0.78740047  0.18600540  1
  O  O10  1  0.01538519  0.22072128  0.19081990  1
  O  O11  1  0.19818928  0.97523039  0.19283514  1
  O  O12  1  0.87605788  0.37345900  0.63861399  1
  O  O13  1  0.50635519  0.13026572  0.64056807  1
  O  O14  1  0.63614997  0.50867470  0.64385680  1
  O  O15  1  0.87825486  0.49497930  0.14276002  1
  O  O16  1  0.62010584  0.12229193  0.13864872  1
  O  O17  1  0.50340704  0.37521173  0.13867968  1
  O  O18  1  0.44339307  0.28595105  0.02797994  1
  O  O19  1  0.83106119  0.55108372  0.02726397  1
  O  O20  1  0.70155047  0.15284352  0.02702834  1
  O  O21  1  0.42771322  0.13430443  0.52211174  1
  O  O22  1  0.71029166  0.56496774  0.53057617  1
  O  O23  1  0.85778642  0.29131356  0.52709799  1
  O  O24  1  0.53520629  0.70108022  0.97278840  1
  O  O25  1  0.15651300  0.45330298  0.97509593  1
  O  O26  1  0.29504073  0.83947577  0.97167076  1
  O  O27  1  0.53654753  0.84524852  0.48100038  1
  O  O28  1  0.30948245  0.47561556  0.47685609  1
  O  O29  1  0.17041713  0.69472160  0.47345138  1
  O  O30  1  0.11381568  0.63938533  0.35894214  1
  O  O31  1  0.51270396  0.87826904  0.36610228  1
  O  O32  1  0.35253400  0.47480811  0.36179971  1
  O  O33  1  0.12673549  0.47503690  0.86003015  1
  O  O34  1  0.34811768  0.88272637  0.85526406  1
  O  O35  1  0.53197610  0.65664612  0.85586221  1
  O  O36  1  0.03725384  0.83806238  0.41791821  1
  O  O37  1  0.80763428  0.97290671  0.41853328  1
  O  O38  1  0.16391731  0.19711394  0.42001905  1
  O  O39  1  0.04208246  0.18604509  0.91213964  1
  O  O40  1  0.14535547  0.96253722  0.91004519  1
  O  O41  1  0.81321038  0.85094446  0.91282219  1
  O  O42  1  0.98188679  0.16882443  0.59443231  1
  O  O43  1  0.16604650  0.00813175  0.59535817  1
  O  O44  1  0.82509558  0.81991840  0.59501767  1
  O  O45  1  0.00266468  0.82443837  0.08869927  1
  O  O46  1  0.81770934  0.01237131  0.08992814  1
  O  O47  1  0.19108257  0.19048856  0.09185456  1
  O  O48  1  0.70168993  0.18970611  0.74190242  1
  O  O49  1  0.47281400  0.29680022  0.74249823  1
  O  O50  1  0.81753554  0.52856187  0.74133969  1
  O  O51  1  0.69142284  0.50682702  0.24060734  1
  O  O52  1  0.81697638  0.30977487  0.24370149  1
  O  O53  1  0.49379524  0.18228746  0.24023342  1
  O  O54  1  0.65021727  0.51733920  0.91883465  1
  O  O55  1  0.86007420  0.33529177  0.92014510  1
  O  O56  1  0.47894490  0.13968437  0.91998858  1
  O  O57  1  0.64874281  0.14062705  0.42533375  1
  O  O58  1  0.49386971  0.35489693  0.42328341  1
  O  O59  1  0.86487868  0.50076432  0.42589001  1
  O  O60  1  0.37551558  0.51542020  0.07600606  1
  O  O61  1  0.15826510  0.63470810  0.07317471  1
  O  O62  1  0.48905844  0.85392255  0.07585860  1
  O  O63  1  0.35345079  0.83889322  0.57978880  1
  O  O64  1  0.49919809  0.64645490  0.58205128  1
  O  O65  1  0.15170642  0.50091377  0.57841964  1
  O  O66  1  0.33166776  0.84795195  0.25213546  1
  O  O67  1  0.51366082  0.66061860  0.25103742  1
  O  O68  1  0.14412939  0.48842133  0.25110526  1
  O  O69  1  0.31370762  0.46370284  0.75114173  1
  O  O70  1  0.15219839  0.69292025  0.75120859  1
  O  O71  1  0.52881435  0.84270383  0.74926220  1
loop_
_geom_bond_atom_site_label_1
_geom_bond_atom_site_label_2
_geom_bond_distance
_geom_bond_site_symmetry_2
Na0 O68 2.297676 1_555
Na0 O51 2.399098 1_455
Na0 O66 2.528830 1_555
Na0 O52 2.585910 1_455
Na0 O1 2.603224 1_455
Na0 O30 2.611301 1_555
Na0 O15 2.699719 1_455
Na0 O11 2.832122 1_555
Na1 O50 2.318897 1_555
Na1 O69 2.392940 1_555
Na1 O71 2.395830 1_555
Na1 O35 2.521865 1_555
Na1 O49 2.594651 1_555
Na1 O14 2.632239 1_555
Na1 O4 2.788306 1_555
Na1 O6 2.952440 1_555
Na2 O49 2.335122 1_565
Na2 O71 2.380041 1_555
Na2 O70 2.412743 1_555
Na2 O34 2.495611 1_555
Na2 O48 2.518129 1_565
Na2 O13 2.710017 1_565
Na2 O3 2.801571 1_565
Na2 O8 2.966157 1_555
Na3 O44 2.396466 1_555
Na3 O63 2.397367 1_555
Na3 O42 2.449819 1_565
Na3 O64 2.484765 1_555
Na3 O27 2.591253 1_555
Na3 O6 2.622152 1_555
Na3 O13 2.719425 1_565
Na3 O23 2.788474 1_565
Na4 O45 2.287410 1_555
Na4 O62 2.383210 1_555
Na4 O47 2.560980 1_565
Na4 O61 2.612752 1_555
Na4 O11 2.639023 1_555
Na4 O18 2.664644 1_565
Na4 O26 2.692970 1_554
Na4 O16 2.756388 1_565
Na5 O60 2.341522 1_555
Na5 O46 2.400358 1_565
Na5 O9 2.501677 1_555
Na5 O45 2.502697 1_655
Na5 O19 2.578004 1_555
Na5 O62 2.643348 1_555
Na5 O24 2.690099 1_554
Na5 O17 2.820269 1_555
Na6 O47 2.332343 1_555
Na6 O61 2.351056 1_555
Na6 O46 2.471671 1_455
Na6 O10 2.569540 1_555
Na6 O25 2.632449 1_554
Na6 O60 2.660554 1_555
Na6 O15 2.756202 1_455
Na6 O20 2.790207 1_455
Na7 O38 2.358265 1_655
Na7 O59 2.360634 1_555
Na7 O57 2.409545 1_555
Na7 O37 2.490649 1_545
Na7 O23 2.594578 1_555
Na7 O2 2.625965 1_555
Na7 O30 2.917777 1_655
Na8 O36 2.347271 1_545
Na8 O21 2.413418 1_555
Na8 O58 2.416461 1_555
Na8 O57 2.417475 1_555
Na8 O38 2.558567 1_555
Na8 O0 2.672648 1_555
Na8 O31 2.825301 1_545
Na8 O29 2.890027 1_545
Na9 O36 2.428647 1_555
Na9 O43 2.433622 1_565
Na9 O38 2.496639 1_565
Na9 O44 2.535799 1_455
Na9 O37 2.546412 1_455
Na9 O42 2.626939 1_465
Na10 O41 2.378873 1_455
Na10 O40 2.381432 1_555
Na10 O39 2.424310 1_565
Na10 O45 2.554346 1_556
Na10 O46 2.691233 1_466
Na10 O47 2.732549 1_566
Na11 O55 2.440790 1_555
Na11 O48 2.500633 1_555
Na11 O54 2.552741 1_555
Na11 O56 2.557089 1_555
Na11 O50 2.593641 1_555
Na11 O49 2.700309 1_555
Na12 O51 2.472578 1_555
Na12 O53 2.485323 1_555
Na12 O58 2.493247 1_555
Na12 O52 2.532449 1_555
Na12 O57 2.670587 1_555
Na12 O59 2.672835 1_555
Na13 O67 2.386030 1_555
Na13 O68 2.482930 1_555
Na13 O66 2.485997 1_555
Na13 O60 2.541039 1_555
Na13 O62 2.541579 1_555
Na13 O61 2.618034 1_555
Na14 O65 2.380334 1_555
Na14 O63 2.455420 1_555
Na14 O64 2.486978 1_555
Na14 O69 2.505568 1_555
Na14 O70 2.507558 1_555
Na14 O71 2.592230 1_555
In0 O1 2.121216 1_555
In0 O2 2.142890 1_565
In0 O0 2.166531 1_665
In0 O37 2.172577 1_555
In0 O36 2.201565 1_655
In0 O38 2.265085 1_665
In1 O10 2.064509 1_555
In1 O11 2.072916 1_545
In1 O9 2.077432 1_445
In1 O45 2.119402 1_545
In1 O47 2.162414 1_555
In1 O46 2.188637 1_455
In2 O19 2.038403 1_556
In2 O20 2.111987 1_556
In2 O18 2.113023 1_556
In2 O55 2.127745 1_555
In2 O56 2.128248 1_555
In2 O54 2.128606 1_555
In3 O22 2.052791 1_555
In3 O21 2.065497 1_555
In3 O23 2.144894 1_555
In3 O58 2.154539 1_555
In3 O59 2.165763 1_555
In3 O57 2.202370 1_555
In4 O32 2.047871 1_555
In4 O31 2.066772 1_555
In4 O67 2.104508 1_555
In4 O30 2.123709 1_555
In4 O66 2.153721 1_555
In4 O68 2.176490 1_555
In5 O33 2.036393 1_555
In5 O35 2.077411 1_555
In5 O34 2.083262 1_555
In5 O71 2.166753 1_555
In5 O70 2.179309 1_555
In5 O69 2.180480 1_555
Ge0 O5 1.830280 1_555
Ge0 O39 1.947246 1_655
Ge0 O41 1.979579 1_545
Ge0 O3 1.985051 1_655
Ge0 O40 1.993128 1_645
Ge0 O4 2.016993 1_545
Ge1 O6 1.825295 1_445
Ge1 O43 1.832898 1_555
Ge1 O7 1.873974 1_555
Ge1 O8 1.883361 1_545
Ge1 O44 1.982574 1_445
Ge1 O42 2.005959 1_455
Ge2 O13 1.875542 1_555
Ge2 O48 1.878096 1_555
Ge2 O12 1.915825 1_555
Ge2 O14 2.004543 1_555
Ge2 O50 2.044727 1_555
Ge2 O49 2.092267 1_555
Ge3 O15 1.893073 1_555
Ge3 O53 1.922986 1_555
Ge3 O51 1.929593 1_555
Ge3 O52 1.949123 1_555
Ge3 O16 1.954401 1_555
Ge3 O17 1.970991 1_555
Ge4 O25 1.901038 1_554
Ge4 O61 1.911961 1_555
Ge4 O26 1.918713 1_554
Ge4 O24 1.927744 1_554
Ge4 O62 2.109208 1_555
Ge4 O60 2.138830 1_555
Ge5 O63 1.900032 1_555
Ge5 O29 1.909586 1_555
Ge5 O28 1.910291 1_555
Ge5 O27 1.939585 1_555
Ge5 O65 1.956931 1_555
Ge5 O64 2.065799 1_555
O0 P0 1.550946 1_555
O1 P1 1.550327 1_555
O2 P2 1.545858 1_555
O3 P3 1.561667 1_555
O4 P4 1.561065 1_555
O5 Si0 1.641511 1_555
O6 Si0 1.636880 1_565
O7 P3 1.539302 1_555
O8 P4 1.547505 1_455
O9 P1 1.534716 1_555
O10 P2 1.529163 1_455
O11 P0 1.539905 1_565
O12 P5 1.566132 1_555
O13 Si1 1.681372 1_555
O14 P6 1.571036 1_555
O15 Si2 1.681157 1_555
O16 P7 1.574504 1_555
O17 P8 1.570662 1_555
O18 P8 1.518778 1_555
O19 Si2 1.588684 1_555
O20 P7 1.512593 1_555
O21 Si1 1.605836 1_555
O22 P6 1.514249 1_555
O23 P5 1.539068 1_555
O24 P9 1.609889 1_555
O25 P10 1.604358 1_555
O26 P11 1.604650 1_555
O27 P12 1.574726 1_555
O28 P13 1.573182 1_555
O29 P14 1.572636 1_555
O30 P14 1.542882 1_555
O31 P12 1.522234 1_555
O32 P13 1.518137 1_555
O33 P10 1.505903 1_555
O34 P11 1.524038 1_555
O35 P9 1.522700 1_555
O36 P14 1.549857 1_555
O37 P12 1.545574 1_555
O38 P13 1.569681 1_555
O39 P10 1.569379 1_555
O40 P11 1.570468 1_555
O41 P9 1.569586 1_555
O42 P5 1.555057 1_555
O43 Si1 1.638574 1_555
O44 P6 1.563989 1_555
O45 Si2 1.626911 1_455
O46 P7 1.540237 1_555
O47 P8 1.540556 1_555
O48 Si0 1.670670 1_555
O49 P3 1.586521 1_555
O50 P4 1.574329 1_555
O51 P1 1.571066 1_555
O52 P2 1.569364 1_555
O53 P0 1.550980 1_555
O54 P9 1.524714 1_555
O55 P10 1.526560 1_655
O56 P11 1.524523 1_545
O57 P12 1.554431 1_545
O58 P13 1.536493 1_555
O59 P14 1.532729 1_655
O60 P8 1.576776 1_555
O61 Si2 1.689910 1_455
O62 P7 1.578206 1_565
O63 Si1 1.681339 1_565
O64 P6 1.576549 1_555
O65 P5 1.556633 1_455
O66 P0 1.541220 1_565
O67 P1 1.518710 1_555
O68 P2 1.543305 1_455
O69 P3 1.535882 1_555
O70 P4 1.534544 1_455
O71 Si0 1.649837 1_565
