# generated using pymatgen
data_FeS
_symmetry_space_group_name_H-M   'P 1'
_cell_length_a   5.64679900
_cell_length_b   6.52039600
_cell_length_c   7.94089220
_cell_angle_alpha   88.90724418
_cell_angle_beta   90.00000000
_cell_angle_gamma   90.00000000
_symmetry_Int_Tables_number   1
_chemical_formula_structural   FeS
_chemical_formula_sum   'Fe12 S12'
_cell_volume   292.32543867
_cell_formula_units_Z   12
loop_
 _symmetry_equiv_pos_site_id
 _symmetry_equiv_pos_as_xyz
  1  'x, y, z'
loop_
 _atom_site_type_symbol
 _atom_site_label
 _atom_site_symmetry_multiplicity
 _atom_site_fract_x
 _atom_site_fract_y
 _atom_site_fract_z
 _atom_site_occupancy
  Fe  Fe0  1  0.72572400  0.54089300  0.92358200  1
  Fe  Fe1  1  0.22572400  0.45910700  0.57641800  1
  Fe  Fe2  1  0.27427600  0.45910700  0.07641800  1
  Fe  Fe3  1  0.77427600  0.54089300  0.42358200  1
  Fe  Fe4  1  0.29191900  0.82639300  0.71073600  1
  Fe  Fe5  1  0.79191900  0.17360700  0.78926400  1
  Fe  Fe6  1  0.70808100  0.17360700  0.28926400  1
  Fe  Fe7  1  0.20808100  0.82639300  0.21073600  1
  Fe  Fe8  1  0.69879800  0.90857900  0.56202700  1
  Fe  Fe9  1  0.19879800  0.09142100  0.93797300  1
  Fe  Fe10  1  0.30120200  0.09142100  0.43797300  1
  Fe  Fe11  1  0.80120200  0.90857900  0.06202700  1
  S  S0  1  0.07334100  0.40726900  0.83883100  1
  S  S1  1  0.57334100  0.59273100  0.66116900  1
  S  S2  1  0.92665900  0.59273100  0.16116900  1
  S  S3  1  0.42665900  0.40726900  0.33883100  1
  S  S4  1  0.58554700  0.24152800  0.02434700  1
  S  S5  1  0.08554700  0.75847200  0.47565300  1
  S  S6  1  0.41445300  0.75847200  0.97565300  1
  S  S7  1  0.91445300  0.24152800  0.52434700  1
  S  S8  1  0.43293200  0.13129400  0.69020200  1
  S  S9  1  0.93293200  0.86870600  0.80979800  1
  S  S10  1  0.56706800  0.86870600  0.30979800  1
  S  S11  1  0.06706800  0.13129400  0.19020200  1
loop_
_geom_bond_atom_site_label_1
_geom_bond_atom_site_label_2
_geom_bond_distance
_geom_bond_site_symmetry_2
Fe0 S2 2.232809 1_556
Fe0 S4 2.239969 1_556
Fe0 S0 2.255547 1_655
Fe0 S1 2.273763 1_555
Fe0 S6 2.301199 1_555
Fe0 S9 2.584677 1_555
Fe1 S3 2.232809 1_555
Fe1 S5 2.239969 1_555
Fe1 S1 2.255547 1_555
Fe1 S0 2.273763 1_555
Fe1 S7 2.301199 1_455
Fe1 S8 2.584677 1_555
Fe2 S0 2.232809 1_554
Fe2 S6 2.239969 1_554
Fe2 S2 2.255547 1_455
Fe2 S3 2.273763 1_555
Fe2 S4 2.301199 1_555
Fe2 S11 2.584677 1_555
Fe3 S1 2.232809 1_555
Fe3 S7 2.239969 1_555
Fe3 S3 2.255547 1_555
Fe3 S2 2.273763 1_555
Fe3 S5 2.301199 1_655
Fe3 S10 2.584677 1_555
Fe4 S8 2.144928 1_565
Fe4 S9 2.193729 1_455
Fe4 S1 2.241519 1_555
Fe4 S6 2.250515 1_555
Fe4 S5 2.251780 1_555
Fe5 S9 2.144928 1_545
Fe5 S8 2.193729 1_555
Fe5 S0 2.241519 1_655
Fe5 S7 2.250515 1_555
Fe5 S4 2.251780 1_556
Fe6 S10 2.144928 1_545
Fe6 S11 2.193729 1_655
Fe6 S3 2.241519 1_555
Fe6 S4 2.250515 1_555
Fe6 S7 2.251780 1_555
Fe7 S11 2.144928 1_565
Fe7 S10 2.193729 1_555
Fe7 S2 2.241519 1_455
Fe7 S5 2.250515 1_555
Fe7 S6 2.251780 1_554
Fe8 S10 2.156960 1_555
Fe8 S1 2.302430 1_555
Fe8 S8 2.335610 1_565
Fe8 S9 2.380588 1_555
Fe8 S5 2.494675 1_655
Fe8 S7 2.502150 1_565
Fe9 S11 2.156960 1_556
Fe9 S0 2.302430 1_555
Fe9 S9 2.335610 1_445
Fe9 S8 2.380588 1_555
Fe9 S4 2.494675 1_556
Fe9 S6 2.502150 1_545
Fe10 S8 2.156960 1_555
Fe10 S3 2.302430 1_555
Fe10 S10 2.335610 1_545
Fe10 S11 2.380588 1_555
Fe10 S7 2.494675 1_455
Fe10 S5 2.502150 1_545
Fe11 S9 2.156960 1_554
Fe11 S2 2.302430 1_555
Fe11 S11 2.335610 1_665
Fe11 S10 2.380588 1_555
Fe11 S6 2.494675 1_554
Fe11 S4 2.502150 1_565
