# generated using pymatgen
data_Na9Mg5Ta7(PO4)18
_symmetry_space_group_name_H-M   'P 1'
_cell_length_a   8.78835876
_cell_length_b   8.74455316
_cell_length_c   22.61056355
_cell_angle_alpha   89.99292884
_cell_angle_beta   90.13816709
_cell_angle_gamma   119.91263288
_symmetry_Int_Tables_number   1
_chemical_formula_structural   Na9Mg5Ta7(PO4)18
_chemical_formula_sum   'Na9 Mg5 Ta7 P18 O72'
_cell_volume   1506.14743170
_cell_formula_units_Z   1
loop_
 _symmetry_equiv_pos_site_id
 _symmetry_equiv_pos_as_xyz
  1  'x, y, z'
loop_
 _atom_site_type_symbol
 _atom_site_label
 _atom_site_symmetry_multiplicity
 _atom_site_fract_x
 _atom_site_fract_y
 _atom_site_fract_z
 _atom_site_occupancy
  Na  Na0  1  0.98794813  0.63163221  0.24595527  1
  Na  Na1  1  0.65547197  0.69048331  0.07945001  1
  Na  Na2  1  0.32237841  0.29847512  0.91323434  1
  Na  Na3  1  0.00012300  0.99995533  0.49554030  1
  Na  Na4  1  0.99815993  0.99756896  0.99136718  1
  Na  Na5  1  0.67502162  0.33446378  0.82410094  1
  Na  Na6  1  0.65676418  0.32400320  0.32617160  1
  Na  Na7  1  0.33153448  0.66727501  0.15737644  1
  Na  Na8  1  0.33347570  0.66675384  0.67065285  1
  Mg  Mg0  1  0.00049585  0.00066472  0.35398883  1
  Mg  Mg1  1  0.99389956  0.99457504  0.85198067  1
  Mg  Mg2  1  0.66630354  0.33315389  0.68777003  1
  Mg  Mg3  1  0.66101586  0.32756474  0.18508042  1
  Mg  Mg4  1  0.32787012  0.66690645  0.01829455  1
  Ta  Ta0  1  0.99930777  0.99964629  0.65034071  1
  Ta  Ta1  1  0.00536797  0.00657203  0.14532002  1
  Ta  Ta2  1  0.67114090  0.33149957  0.97851966  1
  Ta  Ta3  1  0.66722923  0.33381881  0.47946780  1
  Ta  Ta4  1  0.33301816  0.66663174  0.52138065  1
  Ta  Ta5  1  0.33876364  0.66747040  0.31028779  1
  Ta  Ta6  1  0.33271947  0.66860997  0.81237318  1
  P  P0  1  0.29289659  0.00924838  0.25291917  1
  P  P1  1  0.71468692  0.71090012  0.25113941  1
  P  P2  1  0.99384204  0.28459542  0.25293111  1
  P  P3  1  0.29456942  0.28958101  0.75342390  1
  P  P4  1  0.99476603  0.70546422  0.75260755  1
  P  P5  1  0.71101409  0.00500315  0.75270673  1
  P  P6  1  0.95321993  0.33094388  0.58476440  1
  P  P7  1  0.37742503  0.04780270  0.58472132  1
  P  P8  1  0.66925389  0.62263259  0.58482864  1
  P  P9  1  0.96124358  0.62018938  0.08649657  1
  P  P10  1  0.66195815  0.04167128  0.08564388  1
  P  P11  1  0.37989370  0.33657247  0.08398379  1
  P  P12  1  0.62729090  0.67416142  0.91957056  1
  P  P13  1  0.04637343  0.37668527  0.91789260  1
  P  P14  1  0.32828493  0.95285079  0.91866327  1
  P  P15  1  0.62472426  0.95480063  0.41695397  1
  P  P16  1  0.33062640  0.37478587  0.41687000  1
  P  P17  1  0.04499661  0.66915297  0.41611650  1
  O  O0  1  0.20440918  0.02401629  0.30689310  1
  O  O1  1  0.82628626  0.79525858  0.30483425  1
  O  O2  1  0.97322406  0.17855602  0.30685370  1
  O  O3  1  0.20980951  0.18655112  0.80853608  1
  O  O4  1  0.97710497  0.79596699  0.80579328  1
  O  O5  1  0.82031362  0.02494308  0.80577545  1
  O  O6  1  0.80040870  0.97007762  0.69481474  1
  O  O7  1  0.16876799  0.19767515  0.69628337  1
  O  O8  1  0.02908544  0.82912340  0.69466301  1
  O  O9  1  0.79523647  0.82724749  0.19341768  1
  O  O10  1  0.03002807  0.20117893  0.19585107  1
  O  O11  1  0.16802723  0.96594342  0.19613519  1
  O  O12  1  0.87960037  0.36971147  0.63816491  1
  O  O13  1  0.48974600  0.12098124  0.63831320  1
  O  O14  1  0.63086003  0.51010861  0.63830965  1
  O  O15  1  0.87717829  0.52126704  0.14259697  1
  O  O16  1  0.64180992  0.12750199  0.13955237  1
  O  O17  1  0.49271290  0.36514011  0.13749094  1
  O  O18  1  0.46171401  0.30139295  0.02644527  1
  O  O19  1  0.83368124  0.53301094  0.03086381  1
  O  O20  1  0.69617803  0.16155614  0.02877139  1
  O  O21  1  0.46827541  0.16159773  0.52759133  1
  O  O22  1  0.69313296  0.53242044  0.52763065  1
  O  O23  1  0.83891268  0.30670191  0.52758362  1
  O  O24  1  0.54354992  0.68916897  0.97565174  1
  O  O25  1  0.15837325  0.45952688  0.97155217  1
  O  O26  1  0.30783864  0.84701448  0.97264086  1
  O  O27  1  0.52469066  0.84020187  0.47145483  1
  O  O28  1  0.31608240  0.47490740  0.47150273  1
  O  O29  1  0.16048723  0.68379238  0.47066964  1
  O  O30  1  0.13004682  0.63545980  0.36046826  1
  O  O31  1  0.50264248  0.86603199  0.36203824  1
  O  O32  1  0.36403921  0.49762362  0.36215385  1
  O  O33  1  0.13256261  0.49761332  0.86133892  1
  O  O34  1  0.36261869  0.86774198  0.86181202  1
  O  O35  1  0.49953567  0.63294613  0.86402258  1
  O  O36  1  0.02495817  0.82883895  0.41325110  1
  O  O37  1  0.80274882  0.97354633  0.41314098  1
  O  O38  1  0.17135259  0.19622886  0.41320645  1
  O  O39  1  0.02240033  0.19452571  0.90907319  1
  O  O40  1  0.18065944  0.99289994  0.91025008  1
  O  O41  1  0.80941697  0.82603738  0.91073110  1
  O  O42  1  0.97701283  0.16677084  0.58822908  1
  O  O43  1  0.19043296  0.02401983  0.58826753  1
  O  O44  1  0.83310364  0.80998770  0.58824985  1
  O  O45  1  0.96644563  0.80698340  0.09074172  1
  O  O46  1  0.83693716  0.02640823  0.09077430  1
  O  O47  1  0.19342247  0.16326611  0.09089896  1
  O  O48  1  0.68355655  0.15811182  0.74196393  1
  O  O49  1  0.47357501  0.31487730  0.74241865  1
  O  O50  1  0.84191228  0.52524480  0.74208266  1
  O  O51  1  0.68850529  0.52739378  0.24298951  1
  O  O52  1  0.84742772  0.32618407  0.24407613  1
  O  O53  1  0.47619273  0.15927081  0.24389780  1
  O  O54  1  0.63320074  0.49278547  0.92414162  1
  O  O55  1  0.86053578  0.36421084  0.92413767  1
  O  O56  1  0.50374726  0.14348656  0.92397821  1
  O  O57  1  0.63288471  0.13705043  0.42475771  1
  O  O58  1  0.50391126  0.36665090  0.42480820  1
  O  O59  1  0.86298790  0.49587669  0.42503002  1
  O  O60  1  0.35517588  0.49469476  0.07605010  1
  O  O61  1  0.14283077  0.64975401  0.07749025  1
  O  O62  1  0.51375949  0.85404085  0.07719424  1
  O  O63  1  0.35180764  0.85871953  0.57188664  1
  O  O64  1  0.50682833  0.64833157  0.57192420  1
  O  O65  1  0.14119156  0.49345079  0.57181489  1
  O  O66  1  0.29915881  0.82701988  0.25782602  1
  O  O67  1  0.52729152  0.69691088  0.25765492  1
  O  O68  1  0.16970236  0.47597134  0.25811448  1
  O  O69  1  0.30301204  0.47548599  0.75648975  1
  O  O70  1  0.17201472  0.69735945  0.75626045  1
  O  O71  1  0.52585228  0.82758076  0.75684014  1
loop_
_geom_bond_atom_site_label_1
_geom_bond_atom_site_label_2
_geom_bond_distance
_geom_bond_site_symmetry_2
Na0 O51 2.316782 1_555
Na0 O52 2.317567 1_555
Na0 O66 2.409892 1_655
Na0 O15 2.528470 1_555
Na0 O68 2.578011 1_655
Na0 O11 2.777274 1_655
Na0 O1 2.806281 1_555
Na0 O30 2.864851 1_655
Na1 O62 2.318506 1_555
Na1 O60 2.322640 1_555
Na1 O45 2.406639 1_555
Na1 O24 2.540342 1_554
Na1 O46 2.561987 1_565
Na1 O19 2.777686 1_555
Na1 O17 2.794927 1_555
Na1 O9 2.845993 1_555
Na2 O40 2.318697 1_545
Na2 O39 2.322508 1_555
Na2 O54 2.403615 1_555
Na2 O3 2.562078 1_555
Na2 O56 2.566925 1_555
Na2 O35 2.771727 1_555
Na2 O25 2.798869 1_555
Na2 O18 2.829532 1_556
Na3 O36 2.465134 1_555
Na3 O38 2.472379 1_565
Na3 O37 2.473515 1_455
Na3 O42 2.619079 1_465
Na3 O43 2.620982 1_565
Na3 O44 2.624929 1_455
Na4 O41 2.414557 1_555
Na4 O40 2.453064 1_655
Na4 O39 2.471666 1_665
Na4 O45 2.728119 1_556
Na4 O46 2.737694 1_566
Na4 O47 2.758831 1_666
Na5 O50 2.438327 1_555
Na5 O48 2.439172 1_555
Na5 O49 2.501292 1_555
Na5 O55 2.720527 1_555
Na5 O56 2.768182 1_555
Na5 O54 2.771390 1_555
Na6 O53 2.400092 1_555
Na6 O52 2.497350 1_555
Na6 O51 2.507061 1_555
Na6 O57 2.710107 1_555
Na6 O58 2.726139 1_555
Na6 O59 2.793645 1_555
Na7 O61 2.401785 1_555
Na7 O62 2.433826 1_555
Na7 O60 2.453003 1_555
Na7 O66 2.755183 1_555
Na7 O68 2.766065 1_555
Na7 O67 2.775687 1_555
Na8 O69 2.488171 1_555
Na8 O70 2.494784 1_555
Na8 O71 2.499440 1_555
Na8 O63 2.749894 1_555
Na8 O65 2.752266 1_555
Na8 O64 2.755256 1_555
Mg0 O2 1.995822 1_455
Mg0 O0 2.007809 1_555
Mg0 O1 2.013726 1_445
Mg0 O38 2.098037 1_555
Mg0 O36 2.102284 1_545
Mg0 O37 2.113137 1_445
Mg1 O4 1.967918 1_555
Mg1 O5 1.971172 1_565
Mg1 O41 2.047442 1_555
Mg1 O3 2.053092 1_665
Mg1 O39 2.085313 1_665
Mg1 O40 2.107957 1_655
Mg2 O48 2.024237 1_555
Mg2 O50 2.029111 1_555
Mg2 O49 2.039914 1_555
Mg2 O14 2.054438 1_555
Mg2 O13 2.054587 1_555
Mg2 O12 2.070369 1_555
Mg3 O16 1.963133 1_555
Mg3 O17 1.982551 1_555
Mg3 O53 2.049040 1_555
Mg3 O15 2.049341 1_555
Mg3 O51 2.098629 1_555
Mg3 O52 2.114844 1_555
Mg4 O26 1.962730 1_554
Mg4 O25 1.980700 1_554
Mg4 O24 2.049656 1_554
Mg4 O61 2.055631 1_555
Mg4 O60 2.095025 1_555
Mg4 O62 2.108085 1_555
O0 P0 1.488468 1_555
O1 P1 1.500983 1_555
O2 P2 1.487403 1_555
O3 P3 1.501417 1_555
O4 P4 1.490037 1_555
O5 P5 1.490075 1_555
O6 P5 1.633480 1_565
O6 Ta0 1.921245 1_555
O7 P3 1.626226 1_555
O7 Ta0 1.927843 1_445
O8 P4 1.628823 1_455
O8 Ta0 1.919342 1_455
O9 P1 1.589146 1_555
O9 Ta1 2.042810 1_665
O10 P2 1.591373 1_455
O10 Ta1 1.969712 1_555
O11 P0 1.604675 1_565
O11 Ta1 1.997081 1_565
O12 P6 1.487953 1_555
O13 P7 1.488836 1_555
O14 P8 1.488235 1_555
O15 P9 1.506635 1_555
O16 P10 1.488025 1_555
O17 P11 1.502134 1_555
O18 P11 1.590430 1_555
O18 Ta2 2.038956 1_554
O19 P9 1.600403 1_555
O19 Ta2 2.007043 1_554
O20 P10 1.590641 1_555
O20 Ta2 1.967828 1_554
O21 P7 1.583834 1_555
O21 Ta3 1.972736 1_555
O22 P8 1.582906 1_555
O22 Ta3 1.964369 1_555
O23 P6 1.583376 1_555
O23 Ta3 1.966008 1_555
O24 P12 1.505855 1_555
O25 P13 1.499649 1_555
O26 P14 1.487707 1_555
O27 P15 1.556250 1_555
O27 Ta4 1.968323 1_555
O28 P16 1.556091 1_555
O28 Ta4 1.963567 1_555
O29 P17 1.559627 1_555
O29 Ta4 1.963360 1_555
O30 P17 1.566181 1_555
O30 Ta5 2.056243 1_555
O31 P15 1.567994 1_555
O31 Ta5 1.989101 1_555
O32 P16 1.567628 1_555
O32 Ta5 1.989446 1_555
O33 P13 1.591396 1_555
O33 Ta6 1.985336 1_555
O34 P14 1.588511 1_555
O34 Ta6 1.973201 1_555
O35 P12 1.599273 1_555
O35 Ta6 2.014446 1_555
O36 P17 1.493411 1_555
O37 P15 1.492301 1_555
O38 P16 1.491247 1_555
O39 P13 1.512170 1_555
O40 P14 1.514595 1_555
O41 P12 1.499006 1_555
O42 P6 1.552467 1_555
O42 Ta0 2.104805 1_545
O43 P7 1.552436 1_555
O43 Ta0 2.119156 1_445
O44 P8 1.552487 1_555
O44 Ta0 2.104675 1_555
O45 P9 1.613981 1_555
O45 Ta1 2.022143 1_665
O46 P10 1.612412 1_555
O46 Ta1 1.997360 1_655
O47 P11 1.590890 1_555
O47 Ta1 1.968203 1_555
O48 P5 1.493873 1_555
O49 P3 1.496831 1_555
O50 P4 1.493952 1_555
O51 P1 1.514437 1_555
O52 P2 1.514433 1_555
O53 P0 1.500459 1_555
O54 P12 1.615869 1_555
O54 Ta2 2.019569 1_555
O55 P13 1.588279 1_655
O55 Ta2 1.974625 1_555
O56 P14 1.614500 1_545
O56 Ta2 1.991864 1_555
O57 P15 1.569124 1_545
O57 Ta3 2.015621 1_555
O58 P16 1.569457 1_555
O58 Ta3 2.017984 1_555
O59 P17 1.574580 1_655
O59 Ta3 2.015255 1_555
O60 P11 1.513464 1_555
O61 P9 1.498374 1_455
O62 P10 1.514077 1_565
O63 P7 1.580294 1_565
O63 Ta4 1.968693 1_555
O64 P8 1.578345 1_555
O64 Ta4 1.974905 1_555
O65 P6 1.579558 1_455
O65 Ta4 1.974436 1_555
O66 P0 1.625422 1_565
O66 Ta5 1.989139 1_555
O67 P1 1.596613 1_555
O67 Ta5 1.952354 1_555
O68 P2 1.619429 1_455
O68 Ta5 1.978359 1_555
O69 P3 1.591468 1_555
O69 Ta6 2.018890 1_555
O70 P4 1.596195 1_455
O70 Ta6 2.003244 1_555
O71 P5 1.595782 1_565
O71 Ta6 2.011606 1_555
