# generated using pymatgen
data_MgP(HO)7
_symmetry_space_group_name_H-M   'P 1'
_cell_length_a   10.03047400
_cell_length_b   10.36839000
_cell_length_c   10.69290100
_cell_angle_alpha   90.00000000
_cell_angle_beta   90.00000000
_cell_angle_gamma   90.00000000
_symmetry_Int_Tables_number   1
_chemical_formula_structural   MgP(HO)7
_chemical_formula_sum   'Mg8 P8 H56 O56'
_cell_volume   1112.06027454
_cell_formula_units_Z   8
loop_
 _symmetry_equiv_pos_site_id
 _symmetry_equiv_pos_as_xyz
  1  'x, y, z'
loop_
 _atom_site_type_symbol
 _atom_site_label
 _atom_site_symmetry_multiplicity
 _atom_site_fract_x
 _atom_site_fract_y
 _atom_site_fract_z
 _atom_site_occupancy
  Mg  Mg0  1  0.58688900  0.29754700  0.25454000  1
  Mg  Mg1  1  0.08688900  0.20245300  0.74546000  1
  Mg  Mg2  1  0.41311100  0.79754700  0.24546000  1
  Mg  Mg3  1  0.91311100  0.70245300  0.75454000  1
  Mg  Mg4  1  0.41311100  0.70245300  0.74546000  1
  Mg  Mg5  1  0.91311100  0.79754700  0.25454000  1
  Mg  Mg6  1  0.58688900  0.20245300  0.75454000  1
  Mg  Mg7  1  0.08688900  0.29754700  0.24546000  1
  P  P0  1  0.65568900  0.99184800  0.36941400  1
  P  P1  1  0.15568900  0.50815200  0.63058600  1
  P  P2  1  0.34431100  0.49184800  0.13058600  1
  P  P3  1  0.84431100  0.00815200  0.86941400  1
  P  P4  1  0.34431100  0.00815200  0.63058600  1
  P  P5  1  0.84431100  0.49184800  0.36941400  1
  P  P6  1  0.65568900  0.50815200  0.86941400  1
  P  P7  1  0.15568900  0.99184800  0.13058600  1
  H  H0  1  0.60016400  0.99466100  0.57405900  1
  H  H1  1  0.10016400  0.50533900  0.42594100  1
  H  H2  1  0.39983600  0.49466100  0.92594100  1
  H  H3  1  0.89983600  0.00533900  0.07405900  1
  H  H4  1  0.39983600  0.00533900  0.42594100  1
  H  H5  1  0.89983600  0.49466100  0.57405900  1
  H  H6  1  0.60016400  0.50533900  0.07405900  1
  H  H7  1  0.10016400  0.99466100  0.92594100  1
  H  H8  1  0.48048600  0.34508300  0.49880500  1
  H  H9  1  0.98048600  0.15491700  0.50119500  1
  H  H10  1  0.51951400  0.84508300  0.00119500  1
  H  H11  1  0.01951400  0.65491700  0.99880500  1
  H  H12  1  0.51951400  0.65491700  0.50119500  1
  H  H13  1  0.01951400  0.84508300  0.49880500  1
  H  H14  1  0.48048600  0.15491700  0.99880500  1
  H  H15  1  0.98048600  0.34508300  0.00119500  1
  H  H16  1  0.36858300  0.32753700  0.39761800  1
  H  H17  1  0.86858300  0.17246300  0.60238200  1
  H  H18  1  0.63141700  0.82753700  0.10238200  1
  H  H19  1  0.13141700  0.67246300  0.89761800  1
  H  H20  1  0.63141700  0.67246300  0.60238200  1
  H  H21  1  0.13141700  0.82753700  0.39761800  1
  H  H22  1  0.36858300  0.17246300  0.89761800  1
  H  H23  1  0.86858300  0.32753700  0.10238200  1
  H  H24  1  0.73758000  0.16720600  0.06780100  1
  H  H25  1  0.23758000  0.33279400  0.93219900  1
  H  H26  1  0.26242000  0.66720600  0.43219900  1
  H  H27  1  0.76242000  0.83279400  0.56780100  1
  H  H28  1  0.26242000  0.83279400  0.93219900  1
  H  H29  1  0.76242000  0.66720600  0.06780100  1
  H  H30  1  0.73758000  0.33279400  0.56780100  1
  H  H31  1  0.23758000  0.16720600  0.43219900  1
  H  H32  1  0.68258400  0.29391500  0.00456600  1
  H  H33  1  0.18258400  0.20608500  0.99543400  1
  H  H34  1  0.31741600  0.79391500  0.49543400  1
  H  H35  1  0.81741600  0.70608500  0.50456600  1
  H  H36  1  0.31741600  0.70608500  0.99543400  1
  H  H37  1  0.81741600  0.79391500  0.00456600  1
  H  H38  1  0.68258400  0.20608500  0.50456600  1
  H  H39  1  0.18258400  0.29391500  0.49543400  1
  H  H40  1  0.46264900  0.07821600  0.21926200  1
  H  H41  1  0.96264900  0.42178400  0.78073800  1
  H  H42  1  0.53735100  0.57821600  0.28073800  1
  H  H43  1  0.03735100  0.92178400  0.71926200  1
  H  H44  1  0.53735100  0.92178400  0.78073800  1
  H  H45  1  0.03735100  0.57821600  0.21926200  1
  H  H46  1  0.46264900  0.42178400  0.71926200  1
  H  H47  1  0.96264900  0.07821600  0.28073800  1
  H  H48  1  0.34741600  0.16953600  0.17362000  1
  H  H49  1  0.84741700  0.33046400  0.82638000  1
  H  H50  1  0.65258300  0.66953600  0.32638000  1
  H  H51  1  0.15258400  0.83046400  0.67362000  1
  H  H52  1  0.65258300  0.83046400  0.82638000  1
  H  H53  1  0.15258400  0.66953600  0.17362000  1
  H  H54  1  0.34741600  0.33046400  0.67362000  1
  H  H55  1  0.84741700  0.16953600  0.32638000  1
  O  O0  1  0.46511100  0.34474000  0.40785500  1
  O  O1  1  0.96511100  0.15526000  0.59214500  1
  O  O2  1  0.53488900  0.84474000  0.09214500  1
  O  O3  1  0.03488900  0.65526000  0.90785500  1
  O  O4  1  0.53488900  0.65526000  0.59214500  1
  O  O5  1  0.03488900  0.84474000  0.40785500  1
  O  O6  1  0.46511100  0.15526000  0.90785500  1
  O  O7  1  0.96511100  0.34474000  0.09214500  1
  O  O8  1  0.70133300  0.25439500  0.08774300  1
  O  O9  1  0.20133300  0.24560500  0.91225700  1
  O  O10  1  0.29866700  0.75439500  0.41225700  1
  O  O11  1  0.79866700  0.74560500  0.58774300  1
  O  O12  1  0.29866700  0.74560500  0.91225700  1
  O  O13  1  0.79866700  0.75439500  0.08774300  1
  O  O14  1  0.70133300  0.24560500  0.58774300  1
  O  O15  1  0.20133300  0.25439500  0.41225700  1
  O  O16  1  0.44644400  0.16324800  0.17924600  1
  O  O17  1  0.94644400  0.33675200  0.82075400  1
  O  O18  1  0.55355600  0.66324800  0.32075400  1
  O  O19  1  0.05355600  0.83675200  0.67924600  1
  O  O20  1  0.55355600  0.83675200  0.82075400  1
  O  O21  1  0.05355600  0.66324800  0.17924600  1
  O  O22  1  0.44644400  0.33675200  0.67924600  1
  O  O23  1  0.94644400  0.16324800  0.32075400  1
  O  O24  1  0.67474200  0.96286200  0.51631800  1
  O  O25  1  0.17474200  0.53713800  0.48368200  1
  O  O26  1  0.32525800  0.46286200  0.98368200  1
  O  O27  1  0.82525800  0.03713800  0.01631800  1
  O  O28  1  0.32525800  0.03713800  0.48368200  1
  O  O29  1  0.82525800  0.46286200  0.51631800  1
  O  O30  1  0.67474200  0.53713800  0.01631800  1
  O  O31  1  0.17474200  0.96286200  0.98368200  1
  O  O32  1  0.67464700  0.13952500  0.35157900  1
  O  O33  1  0.17464700  0.36047500  0.64842100  1
  O  O34  1  0.32535300  0.63952500  0.14842100  1
  O  O35  1  0.82535300  0.86047500  0.85157900  1
  O  O36  1  0.32535300  0.86047500  0.64842100  1
  O  O37  1  0.82535300  0.63952500  0.35157900  1
  O  O38  1  0.67464700  0.36047500  0.85157900  1
  O  O39  1  0.17464700  0.13952500  0.14842100  1
  O  O40  1  0.50968900  0.95484800  0.33487400  1
  O  O41  1  0.00968900  0.54515200  0.66512600  1
  O  O42  1  0.49031100  0.45484800  0.16512600  1
  O  O43  1  0.99031100  0.04515200  0.83487400  1
  O  O44  1  0.49031100  0.04515200  0.66512600  1
  O  O45  1  0.99031100  0.45484800  0.33487400  1
  O  O46  1  0.50968900  0.54515200  0.83487400  1
  O  O47  1  0.00968900  0.95484800  0.16512600  1
  O  O48  1  0.75970100  0.91198300  0.30397800  1
  O  O49  1  0.25970100  0.58801700  0.69602200  1
  O  O50  1  0.24029900  0.41198300  0.19602200  1
  O  O51  1  0.74029900  0.08801700  0.80397800  1
  O  O52  1  0.24029900  0.08801700  0.69602200  1
  O  O53  1  0.74029900  0.41198300  0.30397800  1
  O  O54  1  0.75970100  0.58801700  0.80397800  1
  O  O55  1  0.25970100  0.91198300  0.19602200  1
loop_
_geom_bond_atom_site_label_1
_geom_bond_atom_site_label_2
_geom_bond_distance
_geom_bond_site_symmetry_2
Mg0 O53 2.013730 1_555
Mg0 O0 2.102152 1_555
Mg0 O42 2.124280 1_555
Mg0 O32 2.129785 1_555
Mg0 O16 2.138149 1_555
Mg0 O8 2.167706 1_555
Mg1 O52 2.013730 1_555
Mg1 O1 2.102152 1_455
Mg1 O43 2.124280 1_455
Mg1 O33 2.129785 1_555
Mg1 O17 2.138149 1_455
Mg1 O9 2.167706 1_555
Mg2 O55 2.013730 1_555
Mg2 O2 2.102152 1_555
Mg2 O40 2.124280 1_555
Mg2 O34 2.129785 1_555
Mg2 O18 2.138149 1_555
Mg2 O10 2.167706 1_555
Mg3 O54 2.013730 1_555
Mg3 O3 2.102152 1_655
Mg3 O41 2.124280 1_655
Mg3 O35 2.129785 1_555
Mg3 O19 2.138149 1_655
Mg3 O11 2.167706 1_555
Mg4 O49 2.013730 1_555
Mg4 O4 2.102152 1_555
Mg4 O46 2.124280 1_555
Mg4 O36 2.129785 1_555
Mg4 O20 2.138149 1_555
Mg4 O12 2.167706 1_555
Mg5 O48 2.013730 1_555
Mg5 O5 2.102152 1_655
Mg5 O47 2.124280 1_655
Mg5 O37 2.129785 1_555
Mg5 O21 2.138149 1_655
Mg5 O13 2.167706 1_555
Mg6 O51 2.013730 1_555
Mg6 O6 2.102152 1_555
Mg6 O44 2.124280 1_555
Mg6 O38 2.129785 1_555
Mg6 O22 2.138149 1_555
Mg6 O14 2.167706 1_555
Mg7 O50 2.013730 1_555
Mg7 O7 2.102152 1_455
Mg7 O45 2.124280 1_455
Mg7 O39 2.129785 1_555
Mg7 O23 2.138149 1_455
Mg7 O15 2.167706 1_555
H0 O24 1.024448 1_555
H0 O44 1.560906 1_565
H1 O25 1.024448 1_555
H1 O45 1.560906 1_455
H2 O26 1.024448 1_555
H2 O46 1.560906 1_555
H3 O27 1.024448 1_555
H3 O47 1.560906 1_645
H4 O28 1.024448 1_555
H4 O40 1.560906 1_545
H5 O29 1.024448 1_555
H5 O41 1.560906 1_655
H6 O30 1.024448 1_555
H6 O42 1.560906 1_555
H7 O31 1.024448 1_555
H7 O43 1.560906 1_465
H8 O0 0.984678 1_555
H9 O1 0.984678 1_555
H10 O2 0.984678 1_555
H11 O3 0.984678 1_555
H12 O4 0.984678 1_555
H13 O5 0.984678 1_555
H14 O6 0.984678 1_555
H15 O7 0.984678 1_555
H16 O0 0.990581 1_555
H17 O1 0.990581 1_555
H18 O2 0.990581 1_555
H19 O3 0.990581 1_555
H20 O4 0.990581 1_555
H21 O5 0.990581 1_555
H22 O6 0.990581 1_555
H23 O7 0.990581 1_555
H24 O8 0.997442 1_555
H24 O27 1.701529 1_555
H25 O9 0.997442 1_555
H25 O26 1.701529 1_555
H26 O10 0.997442 1_555
H26 O25 1.701529 1_555
H27 O11 0.997442 1_555
H27 O24 1.701529 1_555
H28 O12 0.997442 1_555
H28 O31 1.701529 1_555
H29 O13 0.997442 1_555
H29 O30 1.701529 1_555
H30 O14 0.997442 1_555
H30 O29 1.701529 1_555
H31 O15 0.997442 1_555
H31 O28 1.701529 1_555
H32 O8 0.997150 1_555
H33 O9 0.997150 1_555
H34 O10 0.997150 1_555
H35 O11 0.997150 1_555
H36 O12 0.997150 1_555
H37 O13 0.997150 1_555
H38 O14 0.997150 1_555
H39 O15 0.997150 1_555
H40 O16 0.993381 1_555
H41 O17 0.993381 1_555
H42 O18 0.993381 1_555
H43 O19 0.993381 1_555
H44 O20 0.993381 1_555
H45 O21 0.993381 1_555
H46 O22 0.993381 1_555
H47 O23 0.993381 1_555
H48 O16 0.997251 1_555
H49 O17 0.997241 1_555
H50 O18 0.997241 1_555
H51 O19 0.997251 1_555
H52 O20 0.997241 1_555
H53 O21 0.997251 1_555
H54 O22 0.997251 1_555
H55 O23 0.997241 1_555
O24 P0 1.610700 1_555
O25 P1 1.610700 1_555
O26 P2 1.610700 1_556
O27 P3 1.610700 1_554
O28 P4 1.610700 1_555
O29 P5 1.610700 1_555
O30 P6 1.610700 1_554
O31 P7 1.610700 1_556
O32 P0 1.554677 1_545
O33 P1 1.554677 1_555
O34 P2 1.554677 1_555
O35 P3 1.554677 1_565
O36 P4 1.554677 1_565
O37 P5 1.554677 1_555
O38 P6 1.554677 1_555
O39 P7 1.554677 1_545
O40 P0 1.558265 1_555
O41 P1 1.558265 1_555
O42 P2 1.558265 1_555
O43 P3 1.558265 1_555
O44 P4 1.558265 1_555
O45 P5 1.558265 1_555
O46 P6 1.558265 1_555
O47 P7 1.558265 1_555
O48 P0 1.504572 1_555
O49 P1 1.504572 1_555
O50 P2 1.504572 1_555
O51 P3 1.504572 1_555
O52 P4 1.504572 1_555
O53 P5 1.504572 1_555
O54 P6 1.504572 1_555
O55 P7 1.504572 1_555
