# generated using pymatgen
data_BH3NF3
_symmetry_space_group_name_H-M   'P 1'
_cell_length_a   8.00041100
_cell_length_b   8.11172600
_cell_length_c   9.41484600
_cell_angle_alpha   90.00000000
_cell_angle_beta   90.00000000
_cell_angle_gamma   90.00000000
_symmetry_Int_Tables_number   1
_chemical_formula_structural   BH3NF3
_chemical_formula_sum   'B8 H24 N8 F24'
_cell_volume   610.99659701
_cell_formula_units_Z   8
loop_
 _symmetry_equiv_pos_site_id
 _symmetry_equiv_pos_as_xyz
  1  'x, y, z'
loop_
 _atom_site_type_symbol
 _atom_site_label
 _atom_site_symmetry_multiplicity
 _atom_site_fract_x
 _atom_site_fract_y
 _atom_site_fract_z
 _atom_site_occupancy
  B  B0  1  0.89642500  0.16132700  0.33075100  1
  B  B1  1  0.39642500  0.83867300  0.16924900  1
  B  B2  1  0.60357500  0.66132700  0.66924900  1
  B  B3  1  0.10357500  0.33867300  0.83075100  1
  B  B4  1  0.10357500  0.83867300  0.66924900  1
  B  B5  1  0.60357500  0.16132700  0.83075100  1
  B  B6  1  0.39642500  0.33867300  0.33075100  1
  B  B7  1  0.89642500  0.66132700  0.16924900  1
  H  H0  1  0.79408900  0.02569400  0.51188500  1
  H  H1  1  0.29408900  0.97430600  0.98811500  1
  H  H2  1  0.70591100  0.52569400  0.48811500  1
  H  H3  1  0.20591100  0.47430600  0.01188500  1
  H  H4  1  0.20591100  0.97430600  0.48811500  1
  H  H5  1  0.70591100  0.02569400  0.01188500  1
  H  H6  1  0.29408900  0.47430600  0.51188500  1
  H  H7  1  0.79408900  0.52569400  0.98811500  1
  H  H8  1  0.75336400  0.93559200  0.35802000  1
  H  H9  1  0.25336400  0.06440800  0.14198000  1
  H  H10  1  0.74663600  0.43559200  0.64198000  1
  H  H11  1  0.24663600  0.56440800  0.85802000  1
  H  H12  1  0.24663600  0.06440800  0.64198000  1
  H  H13  1  0.74663600  0.93559200  0.85802000  1
  H  H14  1  0.25336400  0.56440800  0.35802000  1
  H  H15  1  0.75336400  0.43559200  0.14198000  1
  H  H16  1  0.64454500  0.09980900  0.40771700  1
  H  H17  1  0.14454500  0.90019100  0.09228300  1
  H  H18  1  0.85545500  0.59980900  0.59228300  1
  H  H19  1  0.35545500  0.40019100  0.90771700  1
  H  H20  1  0.35545500  0.90019100  0.59228300  1
  H  H21  1  0.85545500  0.09980900  0.90771700  1
  H  H22  1  0.14454500  0.40019100  0.40771700  1
  H  H23  1  0.64454500  0.59980900  0.09228300  1
  N  N0  1  0.76241900  0.04829000  0.40778300  1
  N  N1  1  0.26241900  0.95171000  0.09221700  1
  N  N2  1  0.73758100  0.54829000  0.59221700  1
  N  N3  1  0.23758100  0.45171000  0.90778300  1
  N  N4  1  0.23758100  0.95171000  0.59221700  1
  N  N5  1  0.73758100  0.04829000  0.90778300  1
  N  N6  1  0.26241900  0.45171000  0.40778300  1
  N  N7  1  0.76241900  0.54829000  0.09221700  1
  F  F0  1  0.04893900  0.07395200  0.32654200  1
  F  F1  1  0.54893900  0.92604800  0.17345800  1
  F  F2  1  0.45106100  0.57395200  0.67345800  1
  F  F3  1  0.95106100  0.42604800  0.82654200  1
  F  F4  1  0.95106100  0.92604800  0.67345800  1
  F  F5  1  0.45106100  0.07395200  0.82654200  1
  F  F6  1  0.54893900  0.42604800  0.32654200  1
  F  F7  1  0.04893900  0.57395200  0.17345800  1
  F  F8  1  0.83872500  0.19735000  0.19292400  1
  F  F9  1  0.33872500  0.80265000  0.30707600  1
  F  F10  1  0.66127500  0.69735000  0.80707600  1
  F  F11  1  0.16127500  0.30265000  0.69292400  1
  F  F12  1  0.16127500  0.80265000  0.80707600  1
  F  F13  1  0.66127500  0.19735000  0.69292400  1
  F  F14  1  0.33872500  0.30265000  0.19292400  1
  F  F15  1  0.83872500  0.69735000  0.30707600  1
  F  F16  1  0.91713300  0.30808000  0.40978700  1
  F  F17  1  0.41713300  0.69192000  0.09021300  1
  F  F18  1  0.58286700  0.80808000  0.59021300  1
  F  F19  1  0.08286700  0.19192000  0.90978700  1
  F  F20  1  0.08286700  0.69192000  0.59021300  1
  F  F21  1  0.58286700  0.30808000  0.90978700  1
  F  F22  1  0.41713300  0.19192000  0.40978700  1
  F  F23  1  0.91713300  0.80808000  0.09021300  1
loop_
_geom_bond_atom_site_label_1
_geom_bond_atom_site_label_2
_geom_bond_distance
_geom_bond_site_symmetry_2
B0 F8 1.407942 1_555
B0 F0 1.411645 1_655
B0 F16 1.413595 1_555
B0 N0 1.586233 1_555
B1 F9 1.407942 1_555
B1 F1 1.411645 1_555
B1 F17 1.413595 1_555
B1 N1 1.586233 1_555
B2 F10 1.407942 1_555
B2 F2 1.411645 1_555
B2 F18 1.413595 1_555
B2 N2 1.586233 1_555
B3 F11 1.407942 1_555
B3 F3 1.411645 1_455
B3 F19 1.413595 1_555
B3 N3 1.586233 1_555
B4 F12 1.407942 1_555
B4 F4 1.411645 1_455
B4 F20 1.413595 1_555
B4 N4 1.586233 1_555
B5 F13 1.407942 1_555
B5 F5 1.411645 1_555
B5 F21 1.413595 1_555
B5 N5 1.586233 1_555
B6 F14 1.407942 1_555
B6 F6 1.411645 1_555
B6 F22 1.413595 1_555
B6 N6 1.586233 1_555
B7 F15 1.407942 1_555
B7 F7 1.411645 1_655
B7 F23 1.413595 1_555
B7 N7 1.586233 1_555
H0 N0 1.028785 1_555
H1 N1 1.028785 1_556
H2 N2 1.028785 1_555
H3 N3 1.028785 1_554
H4 N4 1.028785 1_555
H5 N5 1.028785 1_554
H6 N6 1.028785 1_555
H7 N7 1.028785 1_556
H8 N0 1.029790 1_565
H9 N1 1.029790 1_545
H10 N2 1.029790 1_555
H11 N3 1.029790 1_555
H12 N4 1.029790 1_545
H13 N5 1.029790 1_565
H14 N6 1.029790 1_555
H15 N7 1.029790 1_555
H16 N0 1.031491 1_555
H17 N1 1.031491 1_555
H18 N2 1.031491 1_555
H19 N3 1.031491 1_555
H20 N4 1.031491 1_555
H21 N5 1.031491 1_555
H22 N6 1.031491 1_555
H23 N7 1.031491 1_555
