# generated using pymatgen
data_Na5Ca2Ge2P5SO24
_symmetry_space_group_name_H-M   'P 1'
_cell_length_a   8.98260043
_cell_length_b   8.95560991
_cell_length_c   22.20857251
_cell_angle_alpha   90.40653409
_cell_angle_beta   89.16059238
_cell_angle_gamma   120.11698286
_symmetry_Int_Tables_number   1
_chemical_formula_structural   Na5Ca2Ge2P5SO24
_chemical_formula_sum   'Na15 Ca6 Ge6 P15 S3 O72'
_cell_volume   1545.21439375
_cell_formula_units_Z   3
loop_
 _symmetry_equiv_pos_site_id
 _symmetry_equiv_pos_as_xyz
  1  'x, y, z'
loop_
 _atom_site_type_symbol
 _atom_site_label
 _atom_site_symmetry_multiplicity
 _atom_site_fract_x
 _atom_site_fract_y
 _atom_site_fract_z
 _atom_site_occupancy
  Na  Na0  1  0.64137761  0.00625869  0.25244092  1
  Na  Na1  1  0.37442421  0.37528873  0.24435088  1
  Na  Na2  1  0.98922197  0.61780178  0.25122205  1
  Na  Na3  1  0.64263551  0.63347816  0.74748050  1
  Na  Na4  1  0.98647643  0.35141716  0.74700586  1
  Na  Na5  1  0.36750343  0.01775561  0.74687393  1
  Na  Na6  1  0.30867083  0.96654904  0.07371037  1
  Na  Na7  1  0.02746035  0.34701489  0.07560152  1
  Na  Na8  1  0.70111162  0.67574132  0.42421518  1
  Na  Na9  1  0.00526683  0.00412947  0.50431092  1
  Na  Na10  1  0.99696873  0.99521199  0.99087529  1
  Na  Na11  1  0.66671809  0.33143019  0.83587526  1
  Na  Na12  1  0.68327412  0.32117290  0.34292308  1
  Na  Na13  1  0.35261094  0.66273494  0.16087229  1
  Na  Na14  1  0.33655106  0.66526235  0.66157743  1
  Ca  Ca0  1  0.00006661  0.00462473  0.36212848  1
  Ca  Ca1  1  0.00398630  0.00543708  0.85473249  1
  Ca  Ca2  1  0.67031328  0.33573058  0.67089227  1
  Ca  Ca3  1  0.66755676  0.33703937  0.17918980  1
  Ca  Ca4  1  0.33803060  0.66484662  0.01544103  1
  Ca  Ca5  1  0.32819577  0.66894210  0.32167257  1
  Ge  Ge0  1  0.00165524  0.00166756  0.64585125  1
  Ge  Ge1  1  0.98366274  0.99644360  0.14040712  1
  Ge  Ge2  1  0.66974219  0.32847537  0.98239515  1
  Ge  Ge3  1  0.67865224  0.32762154  0.49456010  1
  Ge  Ge4  1  0.32990473  0.67432532  0.51901731  1
  Ge  Ge5  1  0.31910995  0.67311378  0.81714306  1
  P  P0  1  0.71181457  0.71767516  0.24903004  1
  P  P1  1  0.00621720  0.28799004  0.24414671  1
  P  P2  1  0.28834791  0.30129443  0.74740144  1
  P  P3  1  0.00897799  0.71315473  0.74816505  1
  P  P4  1  0.70031160  0.98847767  0.74860184  1
  P  P5  1  0.98375213  0.33513412  0.58450077  1
  P  P6  1  0.35811872  0.02740752  0.58457663  1
  P  P7  1  0.66406161  0.64445108  0.58250163  1
  P  P8  1  0.95326511  0.63882580  0.08358736  1
  P  P9  1  0.67836540  0.04067379  0.08451065  1
  P  P10  1  0.35928165  0.31549307  0.08532969  1
  P  P11  1  0.02189417  0.37969773  0.91979548  1
  P  P12  1  0.35361509  0.97818016  0.92024287  1
  P  P13  1  0.62005384  0.97451148  0.42377746  1
  P  P14  1  0.02272564  0.64528760  0.42493314  1
  S  S0  1  0.28290357  0.99293715  0.24562292  1
  S  S1  1  0.62268438  0.64314636  0.91473538  1
  S  S2  1  0.35104103  0.37603087  0.42384060  1
  O  O0  1  0.19481557  0.00356368  0.29939986  1
  O  O1  1  0.80629064  0.79589459  0.30712619  1
  O  O2  1  0.99653230  0.18227240  0.29798091  1
  O  O3  1  0.21966231  0.19045000  0.80237278  1
  O  O4  1  0.96927672  0.78212086  0.80374595  1
  O  O5  1  0.80912686  0.02549530  0.80310514  1
  O  O6  1  0.78727624  0.95109815  0.69104881  1
  O  O7  1  0.16461967  0.21226209  0.69108712  1
  O  O8  1  0.04753000  0.83497563  0.69108781  1
  O  O9  1  0.81398812  0.83387918  0.19148534  1
  O  O10  1  0.02268543  0.19852453  0.18269387  1
  O  O11  1  0.18912385  0.98236625  0.18877902  1
  O  O12  1  0.93077888  0.37592452  0.64416272  1
  O  O13  1  0.44664502  0.07841075  0.64438420  1
  O  O14  1  0.62478633  0.54942913  0.64155433  1
  O  O15  1  0.89579598  0.55160413  0.14447584  1
  O  O16  1  0.65879501  0.10655426  0.14550162  1
  O  O17  1  0.43964761  0.33281420  0.14640057  1
  O  O18  1  0.46383507  0.28592860  0.03288648  1
  O  O19  1  0.82807035  0.53373717  0.03067472  1
  O  O20  1  0.71137511  0.17505631  0.03239751  1
  O  O21  1  0.46776354  0.16682400  0.53469195  1
  O  O22  1  0.69442672  0.54040453  0.52960302  1
  O  O23  1  0.84665731  0.30082447  0.53458217  1
  O  O24  1  0.54168759  0.65861195  0.96880482  1
  O  O25  1  0.11407761  0.45425245  0.97761900  1
  O  O26  1  0.34014463  0.88403206  0.97744639  1
  O  O27  1  0.50420243  0.83071325  0.47012647  1
  O  O28  1  0.33339810  0.47963369  0.47267351  1
  O  O29  1  0.15350882  0.66200825  0.47273706  1
  O  O30  1  0.07533808  0.61851965  0.36145861  1
  O  O31  1  0.54049580  0.92343955  0.36093393  1
  O  O32  1  0.37382986  0.46206882  0.36477153  1
  O  O33  1  0.12064341  0.49907360  0.86043149  1
  O  O34  1  0.37525946  0.88203072  0.86009927  1
  O  O35  1  0.52025281  0.62660627  0.85772353  1
  O  O36  1  0.99554147  0.80075763  0.42905516  1
  O  O37  1  0.79523289  0.98551522  0.42801269  1
  O  O38  1  0.20230989  0.20240840  0.42617501  1
  O  O39  1  0.98969584  0.19903261  0.91210960  1
  O  O40  1  0.20129274  0.00376259  0.91406433  1
  O  O41  1  0.79637349  0.79041590  0.91054515  1
  O  O42  1  0.99663052  0.16713303  0.58742020  1
  O  O43  1  0.17681409  0.01391449  0.58681091  1
  O  O44  1  0.83406581  0.82579712  0.58590492  1
  O  O45  1  0.96599706  0.82239064  0.08478990  1
  O  O46  1  0.85248090  0.03497474  0.08262701  1
  O  O47  1  0.17762312  0.13850042  0.08471013  1
  O  O48  1  0.66872251  0.13953222  0.73853553  1
  O  O49  1  0.47180630  0.33598126  0.73675944  1
  O  O50  1  0.86212405  0.52801915  0.73849715  1
  O  O51  1  0.68629211  0.53481216  0.24567752  1
  O  O52  1  0.84464826  0.30692052  0.24543828  1
  O  O53  1  0.45936704  0.14641254  0.24643047  1
  O  O54  1  0.62750026  0.47701371  0.91770841  1
  O  O55  1  0.84404120  0.37759864  0.92245718  1
  O  O56  1  0.52776824  0.15886239  0.92270041  1
  O  O57  1  0.63375528  0.15356649  0.43722082  1
  O  O58  1  0.51584801  0.37087760  0.43104092  1
  O  O59  1  0.83928282  0.47614076  0.43564754  1
  O  O60  1  0.32371441  0.46239010  0.07750394  1
  O  O61  1  0.13607427  0.67043922  0.07507003  1
  O  O62  1  0.52415000  0.86293467  0.07704113  1
  O  O63  1  0.33049512  0.84276742  0.56976588  1
  O  O64  1  0.50752022  0.67083895  0.56792606  1
  O  O65  1  0.16715411  0.49296720  0.56886444  1
  O  O66  1  0.29734021  0.83391094  0.24601165  1
  O  O67  1  0.53478848  0.70724615  0.24708442  1
  O  O68  1  0.16999494  0.46869207  0.24328079  1
  O  O69  1  0.29275110  0.48242244  0.75497798  1
  O  O70  1  0.18588053  0.70792427  0.75553834  1
  O  O71  1  0.51596674  0.81387076  0.75581035  1
loop_
_geom_bond_atom_site_label_1
_geom_bond_atom_site_label_2
_geom_bond_distance
_geom_bond_site_symmetry_2
Na0 O67 2.351074 1_545
Na0 O52 2.381608 1_555
Na0 O53 2.516817 1_555
Na0 O16 2.519939 1_555
Na0 O31 2.542390 1_545
Na0 O66 2.678812 1_545
Na1 O17 2.322627 1_555
Na1 O68 2.369667 1_555
Na1 O51 2.423869 1_555
Na1 O53 2.521418 1_555
Na1 O67 2.572777 1_555
Na1 O32 2.780383 1_555
Na2 O52 2.413669 1_555
Na2 O51 2.439448 1_555
Na2 O66 2.457149 1_655
Na2 O15 2.492976 1_555
Na2 O68 2.572041 1_655
Na2 O30 2.577277 1_655
Na3 O49 2.325646 1_555
Na3 O71 2.402712 1_555
Na3 O14 2.447693 1_555
Na3 O50 2.583282 1_555
Na3 O35 2.657449 1_555
Na3 O69 2.730677 1_555
Na3 O6 2.764765 1_555
Na3 O4 2.847203 1_555
Na4 O50 2.359684 1_555
Na4 O12 2.380320 1_555
Na4 O69 2.397664 1_655
Na4 O48 2.521567 1_555
Na4 O7 2.752629 1_655
Na4 O70 2.774921 1_655
Na4 O5 2.817229 1_555
Na4 O33 2.826465 1_655
Na5 O13 2.358795 1_555
Na5 O48 2.360418 1_555
Na5 O70 2.419364 1_545
Na5 O49 2.524597 1_555
Na5 O71 2.758318 1_545
Na5 O3 2.767813 1_555
Na5 O8 2.798132 1_545
Na5 O34 2.817598 1_545
Na6 O61 2.304502 1_555
Na6 O26 2.316490 1_554
Na6 O47 2.371099 1_565
Na6 O62 2.533873 1_555
Na6 O18 2.635285 1_565
Na6 O45 2.682604 1_455
Na6 O11 2.787642 1_555
Na7 O60 2.322575 1_555
Na7 O25 2.343731 1_554
Na7 O46 2.428012 1_455
Na7 O61 2.550640 1_555
Na7 O20 2.650397 1_455
Na7 O10 2.722417 1_555
Na7 O47 2.808644 1_555
Na8 O36 2.301052 1_555
Na8 O58 2.384425 1_555
Na8 O37 2.462352 1_555
Na8 O22 2.629394 1_555
Na8 O59 2.653734 1_555
Na8 O1 2.785671 1_555
Na8 O32 2.911980 1_555
Na8 O27 2.912879 1_555
Na9 O42 2.369597 1_455
Na9 O43 2.384133 1_555
Na9 O44 2.386197 1_445
Na9 O36 2.433016 1_445
Na9 O38 2.469173 1_555
Na9 O37 2.496503 1_445
Na10 O40 2.460377 1_665
Na10 O46 2.517823 1_566
Na10 O45 2.533717 1_556
Na10 O41 2.554327 1_555
Na10 O39 2.562111 1_565
Na10 O47 2.567918 1_666
Na11 O54 2.352751 1_555
Na11 O56 2.387566 1_555
Na11 O55 2.413086 1_555
Na11 O48 2.757581 1_555
Na11 O50 2.774731 1_555
Na11 O49 2.845732 1_555
Na12 O57 2.486754 1_555
Na12 O59 2.494552 1_555
Na12 O58 2.619711 1_555
Na12 O52 2.625744 1_555
Na12 O53 2.829618 1_555
Na12 O51 2.886251 1_555
Na13 O67 2.434958 1_555
Na13 O68 2.481271 1_555
Na13 O60 2.492823 1_555
Na13 O62 2.499180 1_555
Na13 O66 2.620474 1_555
Na13 O61 2.768442 1_555
Na14 O69 2.552740 1_555
Na14 O64 2.552991 1_555
Na14 O65 2.574166 1_555
Na14 O71 2.579753 1_555
Na14 O70 2.599428 1_555
Na14 O63 2.612194 1_555
Ca0 O2 2.155422 1_455
Ca0 O1 2.186506 1_445
Ca0 O0 2.224000 1_555
Ca0 O37 2.272505 1_445
Ca0 O38 2.296005 1_555
Ca0 O36 2.346597 1_445
Ca1 O3 2.142612 1_555
Ca1 O4 2.175222 1_445
Ca1 O5 2.188116 1_455
Ca1 O39 2.198492 1_455
Ca1 O40 2.230024 1_555
Ca1 O41 2.254926 1_445
Ca2 O13 2.250060 1_555
Ca2 O14 2.250625 1_555
Ca2 O12 2.252363 1_555
Ca2 O49 2.290602 1_555
Ca2 O50 2.291263 1_555
Ca2 O48 2.314290 1_555
Ca3 O15 2.123967 1_555
Ca3 O16 2.154851 1_555
Ca3 O17 2.165261 1_555
Ca3 O51 2.239814 1_555
Ca3 O52 2.296234 1_555
Ca3 O53 2.322107 1_555
Ca4 O24 2.113907 1_554
Ca4 O25 2.128144 1_554
Ca4 O26 2.133338 1_554
Ca4 O62 2.206791 1_555
Ca4 O60 2.236073 1_555
Ca4 O61 2.250999 1_555
Ca5 O30 2.249694 1_555
Ca5 O31 2.291366 1_555
Ca5 O32 2.305512 1_555
Ca5 O66 2.354315 1_555
Ca5 O67 2.363172 1_555
Ca5 O68 2.395251 1_555
Ge0 O7 1.988654 1_555
Ge0 O43 1.993797 1_555
Ge0 O42 1.994485 1_455
Ge0 O6 1.998885 1_445
Ge0 O8 2.014543 1_545
Ge0 O44 2.041784 1_445
Ge1 O9 1.864218 1_555
Ge1 O46 1.900755 1_565
Ge1 O10 1.904986 1_665
Ge1 O45 1.926331 1_555
Ge1 O47 1.979617 1_665
Ge1 O11 2.206719 1_655
Ge2 O55 1.916450 1_555
Ge2 O56 1.941193 1_555
Ge2 O20 1.951986 1_556
Ge2 O19 1.986094 1_556
Ge2 O18 2.015340 1_556
Ge2 O54 2.127673 1_555
Ge3 O23 1.879053 1_555
Ge3 O57 1.889453 1_555
Ge3 O59 1.899022 1_555
Ge3 O21 1.920353 1_555
Ge3 O22 1.992056 1_555
Ge3 O58 2.217070 1_555
Ge4 O27 1.833847 1_555
Ge4 O29 1.857393 1_555
Ge4 O63 1.874533 1_555
Ge4 O65 1.896304 1_555
Ge4 O64 1.956399 1_555
Ge4 O28 2.031963 1_555
Ge5 O34 1.925313 1_555
Ge5 O33 1.927263 1_555
Ge5 O70 1.956952 1_555
Ge5 O71 2.070769 1_555
Ge5 O69 2.109239 1_555
Ge5 O35 2.249089 1_555
O0 S0 1.451823 1_545
O1 P0 1.516006 1_555
O2 P1 1.504562 1_655
O3 P2 1.495665 1_555
O4 P3 1.493201 1_655
O5 P4 1.494742 1_545
O6 P4 1.607204 1_555
O7 P2 1.603869 1_555
O8 P3 1.595182 1_555
O9 P0 1.607669 1_555
O10 P1 1.619866 1_555
O11 S0 1.503901 1_555
O12 P5 1.504861 1_555
O13 P6 1.504337 1_555
O14 P7 1.506519 1_555
O15 P8 1.514954 1_555
O16 P9 1.516410 1_555
O17 P10 1.515936 1_555
O18 P10 1.587999 1_555
O19 P8 1.578671 1_555
O20 P9 1.589767 1_555
O21 P6 1.584267 1_555
O22 P7 1.597792 1_555
O23 P5 1.579686 1_555
O24 S1 1.436534 1_555
O25 P11 1.498245 1_555
O26 P12 1.499267 1_555
O27 P13 1.563161 1_555
O28 S2 1.479995 1_555
O29 P14 1.545115 1_555
O30 P14 1.535378 1_555
O31 P13 1.536208 1_555
O32 S2 1.484830 1_555
O33 P11 1.643772 1_555
O34 P12 1.645428 1_555
O35 S1 1.538301 1_555
O36 P14 1.531440 1_655
O37 P13 1.530768 1_555
O38 S2 1.455921 1_555
O39 P11 1.502837 1_655
O40 P12 1.504646 1_545
O41 S1 1.454235 1_555
O42 P5 1.567652 1_555
O43 P6 1.571492 1_555
O44 P7 1.577361 1_555
O45 P8 1.589688 1_555
O46 P9 1.590170 1_555
O47 P10 1.606254 1_555
O48 P4 1.533586 1_545
O49 P2 1.530995 1_555
O50 P3 1.530873 1_655
O51 P0 1.536879 1_555
O52 P1 1.543208 1_655
O53 S0 1.488670 1_545
O54 S1 1.511921 1_555
O55 P11 1.588467 1_655
O56 P12 1.590432 1_545
O57 P13 1.572220 1_545
O58 S2 1.514884 1_555
O59 P14 1.598502 1_655
O60 P10 1.513147 1_555
O61 P8 1.528902 1_455
O62 P9 1.506769 1_565
O63 P6 1.577009 1_565
O64 P7 1.576636 1_555
O65 P5 1.576678 1_455
O66 S0 1.493558 1_555
O67 P0 1.546640 1_555
O68 P1 1.547248 1_555
O69 P2 1.610298 1_555
O70 P3 1.623731 1_555
O71 P4 1.615582 1_555
