# generated using pymatgen
data_LiYbPb
_symmetry_space_group_name_H-M   'P 1'
_cell_length_a   4.67411520
_cell_length_b   4.67411520
_cell_length_c   10.82010174
_cell_angle_alpha   90.00000000
_cell_angle_beta   90.00000000
_cell_angle_gamma   119.99999321
_symmetry_Int_Tables_number   1
_chemical_formula_structural   LiYbPb
_chemical_formula_sum   'Li3 Yb3 Pb3'
_cell_volume   204.72026224
_cell_formula_units_Z   3
loop_
 _symmetry_equiv_pos_site_id
 _symmetry_equiv_pos_as_xyz
  1  'x, y, z'
loop_
 _atom_site_type_symbol
 _atom_site_label
 _atom_site_symmetry_multiplicity
 _atom_site_fract_x
 _atom_site_fract_y
 _atom_site_fract_z
 _atom_site_occupancy
  Li  Li0  1  0.00000000  0.00000000  0.19340515  1
  Li  Li1  1  0.33333300  0.66666700  0.50000000  1
  Li  Li2  1  0.00000000  0.00000000  0.80659485  1
  Yb  Yb0  1  0.66666700  0.33333300  0.66359288  1
  Yb  Yb1  1  0.66666700  0.33333300  0.33640712  1
  Yb  Yb2  1  0.66666700  0.33333300  0.00000000  1
  Pb  Pb0  1  0.33333300  0.66666700  0.82613984  1
  Pb  Pb1  1  0.33333300  0.66666700  0.17386016  1
  Pb  Pb2  1  0.00000000  0.00000000  0.50000000  1
loop_
_geom_bond_atom_site_label_1
_geom_bond_atom_site_label_2
_geom_bond_distance
_geom_bond_site_symmetry_2
Li0 Pb1 2.706873 1_545
Li0 Pb1 2.706877 1_555
Li0 Pb1 2.706877 1_445
Li0 Yb1 3.110717 1_455
Li0 Yb1 3.110721 1_555
Li0 Yb1 3.110721 1_445
Li0 Pb2 3.317387 1_555
Li1 Pb2 2.698599 1_565
Li1 Pb2 2.698603 1_555
Li1 Pb2 2.698603 1_665
Li1 Yb0 3.227330 1_565
Li1 Yb0 3.227330 1_455
Li1 Yb1 3.227330 1_455
Li1 Yb1 3.227330 1_565
Li1 Yb0 3.227337 1_555
Li1 Yb1 3.227337 1_555
Li2 Pb0 2.706873 1_545
Li2 Pb0 2.706877 1_555
Li2 Pb0 2.706877 1_445
Li2 Yb0 3.110717 1_455
Li2 Yb0 3.110721 1_555
Li2 Yb0 3.110721 1_445
Li2 Pb2 3.317387 1_555
Pb0 Yb0 3.221137 1_565
Pb0 Yb0 3.221137 1_455
Pb0 Yb0 3.221144 1_555
Pb0 Yb2 3.289573 1_566
Pb0 Yb2 3.289573 1_456
Pb0 Yb2 3.289580 1_556
Pb1 Yb1 3.221137 1_565
Pb1 Yb1 3.221137 1_455
Pb1 Yb1 3.221144 1_555
Pb1 Yb2 3.289573 1_565
Pb1 Yb2 3.289573 1_455
Pb1 Yb2 3.289580 1_555
Pb2 Yb0 3.227330 1_455
Pb2 Yb1 3.227330 1_455
Pb2 Yb0 3.227334 1_555
Pb2 Yb0 3.227334 1_445
Pb2 Yb1 3.227334 1_555
Pb2 Yb1 3.227334 1_445
