# generated using pymatgen
data_Na4ZnSi2GeSO12
_symmetry_space_group_name_H-M   'P 1'
_cell_length_a   9.17160160
_cell_length_b   8.97143097
_cell_length_c   21.97652042
_cell_angle_alpha   91.91723458
_cell_angle_beta   90.00000000
_cell_angle_gamma   120.74086126
_symmetry_Int_Tables_number   1
_chemical_formula_structural   Na4ZnSi2GeSO12
_chemical_formula_sum   'Na24 Zn6 Si12 Ge6 S6 O72'
_cell_volume   1553.01753612
_cell_formula_units_Z   6
loop_
 _symmetry_equiv_pos_site_id
 _symmetry_equiv_pos_as_xyz
  1  'x, y, z'
loop_
 _atom_site_type_symbol
 _atom_site_label
 _atom_site_symmetry_multiplicity
 _atom_site_fract_x
 _atom_site_fract_y
 _atom_site_fract_z
 _atom_site_occupancy
  Na  Na0  1  0.64059865  0.01594629  0.25260885  1
  Na  Na1  1  0.37028183  0.36000207  0.24683929  1
  Na  Na2  1  0.98974985  0.62434117  0.24299915  1
  Na  Na3  1  0.63459132  0.62434117  0.74299915  1
  Na  Na4  1  0.98972024  0.36000207  0.74683929  1
  Na  Na5  1  0.37534764  0.01594629  0.75260885  1
  Na  Na6  1  0.30726565  0.34927929  0.58594185  1
  Na  Na7  1  0.03694883  0.69333507  0.58017229  1
  Na  Na8  1  0.65641685  0.95767417  0.57633215  1
  Na  Na9  1  0.30125832  0.95767417  0.07633215  1
  Na  Na10  1  0.65638724  0.69333507  0.08017229  1
  Na  Na11  1  0.04201464  0.34927929  0.08594185  1
  Na  Na12  1  0.97393165  0.68261329  0.91927585  1
  Na  Na13  1  0.70361483  0.02666907  0.91350629  1
  Na  Na14  1  0.32308285  0.29100817  0.90966615  1
  Na  Na15  1  0.96792432  0.29100817  0.40966615  1
  Na  Na16  1  0.32305324  0.02666907  0.41350629  1
  Na  Na17  1  0.70868064  0.68261329  0.41927585  1
  Na  Na18  1  0.98926806  0.99180709  0.49581522  1
  Na  Na19  1  0.00253904  0.99180709  0.99581522  1
  Na  Na20  1  0.65593506  0.32514009  0.82914822  1
  Na  Na21  1  0.66920604  0.32514009  0.32914822  1
  Na  Na22  1  0.32260106  0.65847409  0.16248222  1
  Na  Na23  1  0.33587204  0.65847409  0.66248222  1
  Zn  Zn0  1  0.00272559  0.00250522  0.34906832  1
  Zn  Zn1  1  -0.00022037  0.00250522  0.84906832  1
  Zn  Zn2  1  0.66939259  0.33583822  0.68240132  1
  Zn  Zn3  1  0.66644663  0.33583822  0.18240132  1
  Zn  Zn4  1  0.33605859  0.66917222  0.01573532  1
  Zn  Zn5  1  0.33311263  0.66917222  0.51573532  1
  Si  Si0  1  0.29776152  0.00194692  0.25325385  1
  Si  Si1  1  0.00523447  0.29195577  0.25320547  1
  Si  Si2  1  0.28672130  0.29195577  0.75320547  1
  Si  Si3  1  0.70418540  0.00194692  0.75325385  1
  Si  Si4  1  0.96442852  0.33527992  0.58658685  1
  Si  Si5  1  0.67190147  0.62528877  0.58653847  1
  Si  Si6  1  0.95338830  0.62528877  0.08653847  1
  Si  Si7  1  0.37085240  0.33527992  0.08658685  1
  Si  Si8  1  0.63109452  0.66861392  0.91992085  1
  Si  Si9  1  0.33856747  0.95862277  0.91987247  1
  Si  Si10  1  0.62005430  0.95862277  0.41987247  1
  Si  Si11  1  0.03751840  0.66861392  0.41992085  1
  Ge  Ge0  1  0.97034369  0.01299718  0.64838476  1
  Ge  Ge1  1  0.04265349  0.01299718  0.14838476  1
  Ge  Ge2  1  0.63701069  0.34633018  0.98171776  1
  Ge  Ge3  1  0.70932049  0.34633018  0.48171776  1
  Ge  Ge4  1  0.30367669  0.67966418  0.31505176  1
  Ge  Ge5  1  0.37598649  0.67966418  0.81505176  1
  S  S0  1  0.70458856  0.71061994  0.24993524  1
  S  S1  1  0.00603137  0.71061994  0.74993524  1
  S  S2  1  0.37125556  0.04395294  0.58326824  1
  S  S3  1  0.67269837  0.04395294  0.08326824  1
  S  S4  1  0.03792156  0.37728694  0.91660224  1
  S  S5  1  0.33936437  0.37728694  0.41660224  1
  O  O0  1  0.21364763  0.03084352  0.31223188  1
  O  O1  1  0.80429318  0.78909657  0.30646364  1
  O  O2  1  0.96892182  0.17816559  0.31145305  1
  O  O3  1  0.20924378  0.17816559  0.81145305  1
  O  O4  1  0.98480338  0.78909657  0.80646364  1
  O  O5  1  0.81719589  0.03084352  0.81223188  1
  O  O6  1  0.78307504  0.95606727  0.69064450  1
  O  O7  1  0.15465027  0.19619547  0.69001418  1
  O  O8  1  0.03006227  0.81669680  0.69564758  1
  O  O9  1  0.78663453  0.81669680  0.19564758  1
  O  O10  1  0.04154520  0.19619547  0.19001418  1
  O  O11  1  0.17299222  0.95606727  0.19064450  1
  O  O12  1  0.88031463  0.36417652  0.64556488  1
  O  O13  1  0.47096018  0.12242957  0.63979664  1
  O  O14  1  0.63558882  0.51149859  0.64478605  1
  O  O15  1  0.87591078  0.51149859  0.14478605  1
  O  O16  1  0.65147038  0.12242957  0.13979664  1
  O  O17  1  0.48386289  0.36417652  0.14556488  1
  O  O18  1  0.44974204  0.28940027  0.02397750  1
  O  O19  1  0.82131727  0.52952847  0.02334718  1
  O  O20  1  0.69672927  0.15002980  0.02898058  1
  O  O21  1  0.45330153  0.15002980  0.52898058  1
  O  O22  1  0.70821220  0.52952847  0.52334718  1
  O  O23  1  0.83965922  0.28940027  0.52397750  1
  O  O24  1  0.54698063  0.69751052  0.97889888  1
  O  O25  1  0.13762618  0.45576357  0.97313064  1
  O  O26  1  0.30225482  0.84483259  0.97812005  1
  O  O27  1  0.54257678  0.84483259  0.47812005  1
  O  O28  1  0.31813638  0.45576357  0.47313064  1
  O  O29  1  0.15052889  0.69751052  0.47889888  1
  O  O30  1  0.11640804  0.62273427  0.35731150  1
  O  O31  1  0.48798327  0.86286247  0.35668118  1
  O  O32  1  0.36339527  0.48336380  0.36231458  1
  O  O33  1  0.11996753  0.48336380  0.86231458  1
  O  O34  1  0.37487820  0.86286247  0.85668118  1
  O  O35  1  0.50632522  0.62273427  0.85731150  1
  O  O36  1  0.00957361  0.83040903  0.41252864  1
  O  O37  1  0.80912679  0.99120571  0.41210756  1
  O  O38  1  0.18559705  0.20191261  0.41243955  1
  O  O39  1  0.01631556  0.20191261  0.91243955  1
  O  O40  1  0.18207891  0.99120571  0.91210756  1
  O  O41  1  0.82083543  0.83040903  0.91252864  1
  O  O42  1  0.97100304  0.14972096  0.58728689  1
  O  O43  1  0.20060755  0.02740393  0.58568277  1
  O  O44  1  0.86123036  0.82016088  0.59138960  1
  O  O45  1  0.95893053  0.82016088  0.09138960  1
  O  O46  1  0.82679638  0.02740393  0.08568277  1
  O  O47  1  0.17871792  0.14972096  0.08728689  1
  O  O48  1  0.67624061  0.16374203  0.74586164  1
  O  O49  1  0.47579379  0.32453871  0.74544056  1
  O  O50  1  0.85226405  0.53524561  0.74577255  1
  O  O51  1  0.68298256  0.53524561  0.24577255  1
  O  O52  1  0.84874591  0.32453871  0.24544056  1
  O  O53  1  0.48750243  0.16374203  0.24586164  1
  O  O54  1  0.63767004  0.48305396  0.92061989  1
  O  O55  1  0.86727455  0.36073693  0.91901577  1
  O  O56  1  0.52789736  0.15349388  0.92472260  1
  O  O57  1  0.62559753  0.15349388  0.42472260  1
  O  O58  1  0.49346338  0.36073693  0.41901577  1
  O  O59  1  0.84538492  0.48305396  0.42061989  1
  O  O60  1  0.34290661  0.49707603  0.07919564  1
  O  O61  1  0.14245979  0.65787271  0.07877456  1
  O  O62  1  0.51893005  0.86857961  0.07910655  1
  O  O63  1  0.34964856  0.86857961  0.57910655  1
  O  O64  1  0.51541191  0.65787271  0.57877456  1
  O  O65  1  0.15416843  0.49707603  0.57919564  1
  O  O66  1  0.30433604  0.81638796  0.25395389  1
  O  O67  1  0.53394055  0.69407093  0.25234977  1
  O  O68  1  0.19456336  0.48682788  0.25805660  1
  O  O69  1  0.29226353  0.48682788  0.75805660  1
  O  O70  1  0.16012938  0.69407093  0.75234977  1
  O  O71  1  0.51205092  0.81638796  0.75395389  1
loop_
_geom_bond_atom_site_label_1
_geom_bond_atom_site_label_2
_geom_bond_distance
_geom_bond_site_symmetry_2
Na0 O53 2.380798 1_555
Na0 O52 2.441308 1_555
Na0 O67 2.531153 1_545
Na0 O66 2.660163 1_545
Na0 O16 2.670240 1_555
Na0 O31 2.705806 1_545
Na0 O2 2.872608 1_555
Na0 O9 2.975606 1_545
Na1 O68 2.410095 1_555
Na1 O17 2.450681 1_555
Na1 O51 2.467881 1_555
Na1 O53 2.487801 1_555
Na1 O67 2.574269 1_555
Na1 O32 2.748186 1_555
Na1 O10 2.856078 1_555
Na1 O0 2.965876 1_555
Na2 O52 2.315876 1_555
Na2 O15 2.355169 1_555
Na2 O66 2.498280 1_655
Na2 O51 2.502567 1_555
Na2 O68 2.748929 1_655
Na2 O30 2.771333 1_655
Na2 O11 2.849758 1_655
Na3 O49 2.315875 1_555
Na3 O14 2.355171 1_555
Na3 O71 2.498287 1_555
Na3 O50 2.502576 1_555
Na3 O69 2.748937 1_555
Na3 O35 2.771337 1_555
Na3 O6 2.849758 1_555
Na4 O69 2.410087 1_655
Na4 O12 2.450677 1_555
Na4 O50 2.467873 1_555
Na4 O48 2.487794 1_555
Na4 O70 2.574269 1_655
Na4 O33 2.748184 1_655
Na4 O7 2.856078 1_655
Na4 O5 2.965876 1_555
Na5 O48 2.380807 1_555
Na5 O49 2.441306 1_555
Na5 O70 2.531155 1_545
Na5 O71 2.660156 1_545
Na5 O13 2.670241 1_555
Na5 O34 2.705803 1_545
Na5 O3 2.872608 1_555
Na5 O8 2.975606 1_545
Na6 O65 2.380812 1_555
Na6 O64 2.441311 1_555
Na6 O43 2.531153 1_555
Na6 O42 2.660163 1_455
Na6 O28 2.670224 1_555
Na6 O7 2.705806 1_555
Na6 O14 2.872608 1_555
Na6 O21 2.975606 1_555
Na7 O44 2.410095 1_455
Na7 O29 2.450655 1_555
Na7 O63 2.467873 1_555
Na7 O65 2.487786 1_555
Na7 O43 2.574269 1_565
Na7 O8 2.748186 1_555
Na7 O22 2.856078 1_455
Na7 O12 2.965876 1_455
Na8 O64 2.315869 1_555
Na8 O27 2.355150 1_555
Na8 O42 2.498280 1_565
Na8 O63 2.502579 1_555
Na8 O44 2.748929 1_555
Na8 O6 2.771333 1_555
Na8 O23 2.849758 1_565
Na9 O61 2.315869 1_555
Na9 O26 2.355146 1_554
Na9 O47 2.498287 1_565
Na9 O62 2.502561 1_555
Na9 O45 2.748937 1_455
Na9 O11 2.771337 1_555
Na9 O18 2.849758 1_565
Na10 O45 2.410087 1_555
Na10 O24 2.450663 1_554
Na10 O62 2.467888 1_555
Na10 O60 2.487801 1_555
Na10 O46 2.574269 1_565
Na10 O9 2.748184 1_555
Na10 O19 2.856078 1_555
Na10 O17 2.965876 1_555
Na11 O60 2.380796 1_555
Na11 O61 2.441314 1_555
Na11 O46 2.531155 1_455
Na11 O47 2.660156 1_555
Na11 O25 2.670221 1_554
Na11 O10 2.705803 1_555
Na11 O15 2.872608 1_455
Na11 O20 2.975606 1_455
Na12 O41 2.380798 1_555
Na12 O40 2.441308 1_655
Na12 O55 2.531163 1_555
Na12 O54 2.660156 1_555
Na12 O4 2.670240 1_555
Na12 O19 2.705787 1_556
Na12 O26 2.872608 1_655
Na12 O33 2.975606 1_655
Na13 O56 2.410078 1_555
Na13 O5 2.450681 1_555
Na13 O39 2.467881 1_655
Na13 O41 2.487801 1_545
Na13 O55 2.574261 1_555
Na13 O20 2.748161 1_556
Na13 O34 2.856078 1_545
Na13 O24 2.965876 1_545
Na14 O40 2.315876 1_545
Na14 O3 2.355169 1_555
Na14 O54 2.498284 1_555
Na14 O39 2.502567 1_555
Na14 O56 2.748941 1_555
Na14 O18 2.771320 1_556
Na14 O35 2.849758 1_555
Na15 O37 2.315875 1_545
Na15 O2 2.355171 1_555
Na15 O59 2.498270 1_555
Na15 O38 2.502576 1_655
Na15 O57 2.748924 1_555
Na15 O23 2.771312 1_555
Na15 O30 2.849758 1_655
Na16 O57 2.410095 1_555
Na16 O0 2.450677 1_555
Na16 O38 2.467873 1_555
Na16 O36 2.487794 1_545
Na16 O58 2.574261 1_555
Na16 O21 2.748165 1_555
Na16 O31 2.856078 1_545
Na16 O29 2.965876 1_545
Na17 O36 2.380807 1_655
Na17 O37 2.441306 1_555
Na17 O58 2.531159 1_555
Na17 O59 2.660171 1_555
Na17 O1 2.670241 1_555
Na17 O22 2.705791 1_555
Na17 O27 2.872608 1_555
Na17 O32 2.975606 1_555
Na18 O36 2.362166 1_655
Na18 O37 2.470648 1_555
Na18 O42 2.475525 1_565
Na18 O44 2.555332 1_555
Na18 O38 2.629440 1_665
Na18 O43 2.661688 1_665
Na19 O41 2.362166 1_455
Na19 O40 2.470648 1_555
Na19 O47 2.475525 1_566
Na19 O45 2.555332 1_456
Na19 O39 2.629441 1_565
Na19 O46 2.661688 1_466
Na20 O48 2.362166 1_555
Na20 O49 2.470648 1_555
Na20 O54 2.475525 1_555
Na20 O56 2.555332 1_555
Na20 O50 2.629440 1_555
Na20 O55 2.661688 1_555
Na21 O53 2.362166 1_555
Na21 O52 2.470648 1_555
Na21 O59 2.475525 1_555
Na21 O57 2.555332 1_555
Na21 O51 2.629441 1_555
Na21 O58 2.661688 1_555
Na22 O60 2.362166 1_555
Na22 O61 2.470648 1_555
Na22 O66 2.475525 1_555
Na22 O68 2.555332 1_555
Na22 O62 2.629440 1_555
Na22 O67 2.661688 1_555
Na23 O65 2.362166 1_555
Na23 O64 2.470648 1_555
Na23 O71 2.475525 1_555
Na23 O69 2.555332 1_555
Na23 O63 2.629441 1_555
Na23 O70 2.661688 1_555
Ge0 O6 1.791176 1_545
Ge0 O42 1.846650 1_555
Ge0 O7 1.858714 1_655
Ge0 O44 1.910083 1_545
Ge0 O8 2.364061 1_645
Ge0 O43 2.471528 1_655
Ge1 O11 1.791176 1_545
Ge1 O47 1.846650 1_555
Ge1 O10 1.858714 1_555
Ge1 O45 1.910083 1_445
Ge1 O9 2.364061 1_445
Ge1 O46 2.471528 1_455
Ge2 O18 1.791176 1_556
Ge2 O54 1.846650 1_555
Ge2 O19 1.858714 1_556
Ge2 O56 1.910083 1_555
Ge2 O20 2.364061 1_556
Ge2 O55 2.471528 1_555
Ge3 O23 1.791176 1_555
Ge3 O59 1.846650 1_555
Ge3 O22 1.858714 1_555
Ge3 O57 1.910083 1_555
Ge3 O21 2.364061 1_555
Ge3 O58 2.471528 1_555
Ge4 O30 1.791176 1_555
Ge4 O66 1.846650 1_555
Ge4 O31 1.858714 1_555
Ge4 O68 1.910083 1_555
Ge4 O32 2.364061 1_555
Ge4 O67 2.471528 1_555
Ge5 O35 1.791176 1_555
Ge5 O71 1.846650 1_555
Ge5 O34 1.858714 1_555
Ge5 O69 1.910083 1_555
Ge5 O33 2.364061 1_555
Ge5 O70 2.471528 1_555
O0 Si0 1.588801 1_555
O0 Zn0 1.993296 1_555
O1 S0 1.469184 1_555
O1 Zn0 2.042634 1_665
O2 Si1 1.591081 1_655
O2 Zn0 1.962059 1_655
O3 Si2 1.591081 1_555
O3 Zn1 1.962059 1_555
O4 S1 1.469184 1_655
O4 Zn1 2.042634 1_665
O5 Si3 1.588801 1_555
O5 Zn1 1.993296 1_655
O6 Si3 1.688994 1_565
O7 Si2 1.729216 1_555
O8 S1 1.496381 1_555
O9 S0 1.496381 1_555
O10 Si1 1.729216 1_555
O11 Si0 1.688994 1_565
O12 Si4 1.588801 1_555
O12 Zn2 1.993296 1_555
O13 S2 1.469184 1_555
O13 Zn2 2.042634 1_555
O14 Si5 1.591081 1_555
O14 Zn2 1.962059 1_555
O15 Si6 1.591081 1_555
O15 Zn3 1.962059 1_555
O16 S3 1.469184 1_555
O16 Zn3 2.042634 1_555
O17 Si7 1.588801 1_555
O17 Zn3 1.993296 1_555
O18 Si7 1.688994 1_555
O19 Si6 1.729216 1_555
O20 S3 1.496381 1_555
O21 S2 1.496381 1_555
O22 Si5 1.729216 1_555
O23 Si4 1.688994 1_555
O24 Si8 1.588801 1_555
O24 Zn4 1.993296 1_556
O25 S4 1.469184 1_555
O25 Zn4 2.042634 1_556
O26 Si9 1.591081 1_555
O26 Zn4 1.962059 1_556
O27 Si10 1.591081 1_555
O27 Zn5 1.962059 1_555
O28 S5 1.469184 1_555
O28 Zn5 2.042634 1_555
O29 Si11 1.588801 1_555
O29 Zn5 1.993296 1_555
O30 Si11 1.688994 1_555
O31 Si10 1.729216 1_555
O32 S5 1.496381 1_555
O33 S4 1.496381 1_555
O34 Si9 1.729216 1_555
O35 Si8 1.688994 1_555
O36 Si11 1.610942 1_555
O36 Zn0 2.139147 1_565
O37 Si10 1.614555 1_555
O37 Zn0 2.215342 1_665
O38 S5 1.481458 1_555
O38 Zn0 2.172301 1_555
O39 S4 1.481461 1_555
O39 Zn1 2.172301 1_555
O40 Si9 1.614546 1_555
O40 Zn1 2.215342 1_565
O41 Si8 1.610948 1_555
O41 Zn1 2.139147 1_665
O42 Si4 1.696918 1_555
O43 S2 1.495800 1_555
O44 Si5 1.722528 1_555
O45 Si6 1.722532 1_555
O46 S3 1.495791 1_555
O47 Si7 1.696923 1_555
O48 Si3 1.610942 1_555
O48 Zn2 2.139147 1_555
O49 Si2 1.614555 1_555
O49 Zn2 2.215342 1_555
O50 S1 1.481458 1_655
O50 Zn2 2.172301 1_555
O51 S0 1.481461 1_555
O51 Zn3 2.172301 1_555
O52 Si1 1.614546 1_655
O52 Zn3 2.215342 1_555
O53 Si0 1.610948 1_555
O53 Zn3 2.139147 1_555
O54 Si8 1.696931 1_555
O55 S4 1.495786 1_655
O56 Si9 1.722527 1_545
O57 Si10 1.722518 1_545
O58 S5 1.495804 1_555
O59 Si11 1.696921 1_655
O60 Si7 1.610954 1_555
O60 Zn4 2.139147 1_555
O61 Si6 1.614540 1_455
O61 Zn4 2.215342 1_555
O62 S3 1.481456 1_565
O62 Zn4 2.172301 1_555
O63 S2 1.481448 1_565
O63 Zn5 2.172301 1_555
O64 Si5 1.614558 1_555
O64 Zn5 2.215342 1_555
O65 Si4 1.610943 1_455
O65 Zn5 2.139147 1_555
O66 Si0 1.696918 1_565
O67 S0 1.495800 1_555
O68 Si1 1.722528 1_555
O69 Si2 1.722532 1_555
O70 S1 1.495791 1_555
O71 Si3 1.696923 1_565
