# generated using pymatgen
data_Na7Ca4P3(SO8)3
_symmetry_space_group_name_H-M   'P 1'
_cell_length_a   9.47592544
_cell_length_b   9.47861729
_cell_length_c   22.71147474
_cell_angle_alpha   89.91671899
_cell_angle_beta   90.01604932
_cell_angle_gamma   119.91866209
_symmetry_Int_Tables_number   1
_chemical_formula_structural   Na7Ca4P3(SO8)3
_chemical_formula_sum   'Na21 Ca12 P9 S9 O72'
_cell_volume   1768.06181752
_cell_formula_units_Z   3
loop_
 _symmetry_equiv_pos_site_id
 _symmetry_equiv_pos_as_xyz
  1  'x, y, z'
loop_
 _atom_site_type_symbol
 _atom_site_label
 _atom_site_symmetry_multiplicity
 _atom_site_fract_x
 _atom_site_fract_y
 _atom_site_fract_z
 _atom_site_occupancy
  Na  Na0  1  0.63737015  0.01254120  0.25916333  1
  Na  Na1  1  0.34182284  0.34006317  0.23994244  1
  Na  Na2  1  0.02107057  0.64089833  0.25417704  1
  Na  Na3  1  0.64315706  0.65305683  0.73800314  1
  Na  Na4  1  0.98702420  0.34861928  0.76149200  1
  Na  Na5  1  0.01356781  0.69058596  0.57290797  1
  Na  Na6  1  0.67862628  0.97135649  0.58427296  1
  Na  Na7  1  0.30460919  0.98429768  0.07923575  1
  Na  Na8  1  0.02932137  0.32552441  0.08333175  1
  Na  Na9  1  0.99328868  0.66383504  0.91730518  1
  Na  Na10  1  0.69692327  0.03898201  0.90699734  1
  Na  Na11  1  0.31986693  0.29225950  0.92633252  1
  Na  Na12  1  0.95743597  0.30490332  0.40672569  1
  Na  Na13  1  0.32963594  0.00696979  0.40988022  1
  Na  Na14  1  0.71067603  0.68224462  0.42748208  1
  Na  Na15  1  0.99189935  0.99141237  0.49774854  1
  Na  Na16  1  0.01003384  0.00846641  0.99894810  1
  Na  Na17  1  0.63841660  0.28345523  0.83264012  1
  Na  Na18  1  0.67626252  0.32358166  0.33291238  1
  Na  Na19  1  0.34072072  0.65165847  0.16647320  1
  Na  Na20  1  0.36135851  0.67968573  0.66642117  1
  Ca  Ca0  1  0.00096099  0.00060914  0.34627908  1
  Ca  Ca1  1  0.00660561  0.00340114  0.84655729  1
  Ca  Ca2  1  0.00841834  0.00531702  0.65213562  1
  Ca  Ca3  1  0.00158112  -0.00007178  0.15251620  1
  Ca  Ca4  1  0.65340093  0.32816730  0.68124960  1
  Ca  Ca5  1  0.65988500  0.33562824  0.17976578  1
  Ca  Ca6  1  0.66348558  0.33807558  0.98674040  1
  Ca  Ca7  1  0.65862994  0.33411326  0.48703284  1
  Ca  Ca8  1  0.33706823  0.66515890  0.01463178  1
  Ca  Ca9  1  0.33856640  0.66309051  0.51528384  1
  Ca  Ca10  1  0.33353849  0.66941860  0.32057689  1
  Ca  Ca11  1  0.33321492  0.67842249  0.81840472  1
  P  P0  1  0.31311019  0.99931802  0.25048403  1
  P  P1  1  0.99969094  0.31336634  0.24924586  1
  P  P2  1  0.69359936  0.00077675  0.74905189  1
  P  P3  1  0.67273199  0.65156020  0.58499265  1
  P  P4  1  0.34769309  0.33071463  0.08384732  1
  P  P5  1  0.02101564  0.35592177  0.91560257  1
  P  P6  1  0.33249313  0.97700661  0.92365415  1
  P  P7  1  0.64716773  0.98007351  0.41693542  1
  P  P8  1  0.02049482  0.66531725  0.41878256  1
  S  S0  1  0.69039801  0.68950535  0.25266992  1
  S  S1  1  0.31240318  0.31798559  0.75322545  1
  S  S2  1  0.99429757  0.68284672  0.74943082  1
  S  S3  1  0.97108483  0.33490233  0.58455238  1
  S  S4  1  0.35302029  0.01550163  0.57926748  1
  S  S5  1  0.98271958  0.64598112  0.08277712  1
  S  S6  1  0.66714796  0.02616443  0.08378568  1
  S  S7  1  0.64385373  0.66719172  0.91237873  1
  S  S8  1  0.33302996  0.35588767  0.41322937  1
  O  O0  1  0.22570889  0.00746686  0.30715725  1
  O  O1  1  0.77523168  0.76429799  0.30889448  1
  O  O2  1  0.98120709  0.21296087  0.30586928  1
  O  O3  1  0.23974619  0.23582213  0.81000937  1
  O  O4  1  0.99590974  0.77145031  0.80346666  1
  O  O5  1  0.79217478  0.01247377  0.80564835  1
  O  O6  1  0.78873037  0.99398629  0.69438326  1
  O  O7  1  0.21368459  0.21709559  0.70367216  1
  O  O8  1  0.00559331  0.77867649  0.69639211  1
  O  O9  1  0.78188158  0.79551048  0.20278251  1
  O  O10  1  0.00670227  0.22048241  0.19433873  1
  O  O11  1  0.20983871  0.98653858  0.19588314  1
  O  O12  1  0.88319564  0.34260840  0.63754459  1
  O  O13  1  0.45821973  0.11456409  0.62820714  1
  O  O14  1  0.67292988  0.55979027  0.64129154  1
  O  O15  1  0.89067477  0.55300251  0.13535217  1
  O  O16  1  0.65958589  0.11383242  0.13692698  1
  O  O17  1  0.43591942  0.32856386  0.14096173  1
  O  O18  1  0.44281428  0.32898795  0.02866209  1
  O  O19  1  0.89598148  0.56189682  0.02805206  1
  O  O20  1  0.68022747  0.12394402  0.03051698  1
  O  O21  1  0.42474586  0.09545864  0.52202604  1
  O  O22  1  0.67529372  0.55884830  0.52903369  1
  O  O23  1  0.87304867  0.32036029  0.53109697  1
  O  O24  1  0.55527039  0.68590541  0.96275314  1
  O  O25  1  0.12341841  0.44749875  0.97032011  1
  O  O26  1  0.32103730  0.89186222  0.98317292  1
  O  O27  1  0.55732825  0.87625933  0.47159402  1
  O  O28  1  0.32166874  0.44922506  0.46316586  1
  O  O29  1  0.11835717  0.67306532  0.47463111  1
  O  O30  1  0.10770771  0.65173659  0.36299977  1
  O  O31  1  0.55224560  0.89409616  0.36010178  1
  O  O32  1  0.34590564  0.44201139  0.35712351  1
  O  O33  1  0.10706817  0.45263811  0.85891598  1
  O  O34  1  0.35098580  0.87813671  0.87329410  1
  O  O35  1  0.55406339  0.65187022  0.85683987  1
  O  O36  1  0.00653840  0.82313094  0.41810437  1
  O  O37  1  0.82275407  0.00409621  0.41745803  1
  O  O38  1  0.18556751  0.19060115  0.41446515  1
  O  O39  1  0.00056469  0.18161315  0.91624159  1
  O  O40  1  0.17416057  0.98876985  0.91769886  1
  O  O41  1  0.81112516  0.81178050  0.91172878  1
  O  O42  1  0.99105866  0.18930762  0.58593444  1
  O  O43  1  0.18494258  0.98893936  0.58315073  1
  O  O44  1  0.83235236  0.82298293  0.58162651  1
  O  O45  1  0.00811922  0.81414456  0.08231998  1
  O  O46  1  0.81355099  0.00750603  0.08485873  1
  O  O47  1  0.17586913  0.17197254  0.08004907  1
  O  O48  1  0.67750093  0.15654454  0.74855137  1
  O  O49  1  0.48362973  0.35190466  0.75066201  1
  O  O50  1  0.83857380  0.52302157  0.74996297  1
  O  O51  1  0.67672163  0.52642720  0.24847878  1
  O  O52  1  0.85151877  0.34295748  0.24809626  1
  O  O53  1  0.48505570  0.15636853  0.24965407  1
  O  O54  1  0.66063848  0.51989054  0.91815558  1
  O  O55  1  0.84771802  0.33840167  0.91673359  1
  O  O56  1  0.48194230  0.15311725  0.92009671  1
  O  O57  1  0.66105120  0.15168094  0.41764320  1
  O  O58  1  0.47915143  0.33613613  0.41764045  1
  O  O59  1  0.84498981  0.51444435  0.41897585  1
  O  O60  1  0.31988614  0.47920258  0.08533803  1
  O  O61  1  0.14612092  0.65735214  0.08536986  1
  O  O62  1  0.51596272  0.86443962  0.08290249  1
  O  O63  1  0.34048521  0.85180593  0.58317157  1
  O  O64  1  0.52475617  0.68054978  0.58675671  1
  O  O65  1  0.13204731  0.48705628  0.58281259  1
  O  O66  1  0.33765546  0.84822929  0.25046792  1
  O  O67  1  0.52237498  0.66603930  0.25163432  1
  O  O68  1  0.16010313  0.48223451  0.24964302  1
  O  O69  1  0.31752084  0.47858357  0.74925924  1
  O  O70  1  0.13106930  0.64696743  0.74878509  1
  O  O71  1  0.52509072  0.84115975  0.74834432  1
loop_
_geom_bond_atom_site_label_1
_geom_bond_atom_site_label_2
_geom_bond_distance
_geom_bond_site_symmetry_2
Na0 O53 2.439292 1_555
Na0 O66 2.473633 1_545
Na0 O31 2.501331 1_545
Na0 O52 2.765504 1_555
Na0 O67 2.904321 1_545
Na0 O16 2.909326 1_555
Na0 O2 3.029746 1_555
Na1 O17 2.441148 1_555
Na1 O68 2.673116 1_555
Na1 O67 2.696917 1_555
Na1 O53 2.697892 1_555
Na1 O51 2.763611 1_555
Na1 O32 2.826344 1_555
Na1 O10 2.975364 1_555
Na2 O68 2.446440 1_555
Na2 O52 2.459805 1_455
Na2 O30 2.590067 1_555
Na2 O66 2.643372 1_555
Na2 O51 2.882668 1_455
Na2 O15 2.912310 1_455
Na3 O14 2.437284 1_555
Na3 O49 2.491869 1_555
Na3 O71 2.544992 1_555
Na3 O69 2.688977 1_555
Na3 O50 2.701386 1_555
Na3 O35 2.826475 1_555
Na3 O6 2.978564 1_555
Na4 O33 2.459269 1_655
Na4 O70 2.467977 1_655
Na4 O48 2.584167 1_555
Na4 O50 2.664268 1_555
Na4 O69 2.748394 1_655
Na4 O5 2.947875 1_555
Na4 O12 2.972984 1_555
Na5 O43 2.471697 1_555
Na5 O29 2.482394 1_555
Na5 O44 2.591019 1_455
Na5 O65 2.681784 1_555
Na5 O63 2.695279 1_555
Na5 O8 2.939051 1_555
Na5 O22 2.972568 1_455
Na6 O64 2.391136 1_555
Na6 O44 2.479393 1_555
Na6 O42 2.633124 1_565
Na6 O6 2.676799 1_555
Na6 O27 2.766624 1_555
Na6 O63 2.815965 1_555
Na7 O26 2.386134 1_554
Na7 O45 2.445232 1_555
Na7 O47 2.611121 1_565
Na7 O61 2.689759 1_555
Na7 O62 2.752831 1_555
Na7 O11 2.801052 1_555
Na8 O60 2.388356 1_555
Na8 O47 2.463514 1_555
Na8 O46 2.668291 1_455
Na8 O10 2.678339 1_555
Na8 O61 2.765438 1_555
Na8 O25 2.771964 1_554
Na9 O40 2.675423 1_655
Na9 O55 2.678361 1_555
Na9 O19 2.686200 1_556
Na9 O41 2.715923 1_555
Na9 O54 2.740045 1_555
Na9 O4 2.773573 1_555
Na10 O55 2.470154 1_555
Na10 O39 2.504141 1_655
Na10 O5 2.530830 1_555
Na10 O56 2.758365 1_555
Na10 O41 2.853854 1_545
Na10 O34 2.944934 1_545
Na10 O20 2.945720 1_556
Na11 O56 2.477791 1_555
Na11 O40 2.501883 1_545
Na11 O18 2.544797 1_556
Na11 O39 2.672466 1_555
Na11 O3 2.727618 1_555
Na11 O54 2.857649 1_555
Na12 O57 2.447245 1_555
Na12 O37 2.487165 1_555
Na12 O2 2.501796 1_555
Na12 O59 2.696382 1_555
Na12 O38 2.865917 1_655
Na12 O23 2.959547 1_555
Na12 O30 3.023751 1_655
Na13 O0 2.532985 1_555
Na13 O36 2.668797 1_545
Na13 O21 2.693290 1_555
Na13 O38 2.697241 1_555
Na13 O58 2.713836 1_555
Na13 O57 2.734666 1_555
Na14 O36 2.439977 1_655
Na14 O59 2.491449 1_555
Na14 O22 2.530072 1_555
Na14 O37 2.693081 1_565
Na14 O1 2.784457 1_555
Na14 O58 2.906525 1_555
Na14 O27 3.028032 1_555
Na15 O44 2.459372 1_555
Na15 O36 2.462651 1_655
Na15 O37 2.469536 1_565
Na15 O38 2.654336 1_665
Na15 O43 2.673854 1_655
Na15 O42 2.748774 1_565
Na16 O47 2.416869 1_556
Na16 O40 2.480124 1_545
Na16 O39 2.523439 1_555
Na16 O45 2.633404 1_546
Na16 O46 2.694195 1_456
Na16 O41 2.730481 1_445
Na17 O48 2.383901 1_555
Na17 O56 2.416042 1_555
Na17 O55 2.612060 1_555
Na17 O49 2.642540 1_555
Na17 O50 2.823624 1_555
Na17 O54 2.894914 1_555
Na18 O57 2.477011 1_555
Na18 O52 2.489748 1_555
Na18 O53 2.551985 1_555
Na18 O59 2.602485 1_555
Na18 O51 2.712002 1_555
Na18 O58 2.725840 1_555
Na19 O60 2.406907 1_555
Na19 O68 2.515437 1_555
Na19 O67 2.547021 1_555
Na19 O61 2.625501 1_555
Na19 O62 2.660348 1_555
Na19 O66 2.678784 1_555
Na20 O64 2.379048 1_555
Na20 O71 2.418559 1_555
Na20 O69 2.558466 1_555
Na20 O63 2.566776 1_555
Na20 O70 2.771798 1_555
Na20 O65 2.776903 1_555
Ca0 O0 2.278614 1_555
Ca0 O2 2.301972 1_455
Ca0 O37 2.350193 1_455
Ca0 O1 2.353406 1_445
Ca0 O38 2.359122 1_555
Ca0 O36 2.361021 1_545
Ca1 O5 2.274288 1_455
Ca1 O40 2.316958 1_545
Ca1 O39 2.337882 1_555
Ca1 O41 2.357658 1_445
Ca1 O3 2.358750 1_555
Ca1 O4 2.363402 1_445
Ca2 O6 2.245807 1_445
Ca2 O7 2.300771 1_555
Ca2 O44 2.337741 1_445
Ca2 O43 2.353303 1_545
Ca2 O8 2.358454 1_545
Ca2 O42 2.368021 1_455
Ca3 O11 2.264734 1_545
Ca3 O10 2.275854 1_555
Ca3 O9 2.315758 1_445
Ca3 O47 2.324390 1_555
Ca3 O46 2.380499 1_455
Ca3 O45 2.400744 1_545
Ca4 O13 2.289459 1_555
Ca4 O14 2.294973 1_555
Ca4 O48 2.323360 1_555
Ca4 O12 2.334325 1_555
Ca4 O49 2.342522 1_555
Ca4 O50 2.387375 1_555
Ca5 O17 2.267732 1_555
Ca5 O53 2.310125 1_555
Ca5 O16 2.316537 1_555
Ca5 O51 2.334908 1_555
Ca5 O15 2.354945 1_555
Ca5 O52 2.362962 1_555
Ca6 O18 2.260016 1_556
Ca6 O56 2.306858 1_555
Ca6 O54 2.331425 1_555
Ca6 O20 2.334197 1_556
Ca6 O55 2.360478 1_555
Ca6 O19 2.361575 1_556
Ca7 O22 2.267775 1_555
Ca7 O58 2.325416 1_555
Ca7 O23 2.325831 1_555
Ca7 O59 2.326388 1_555
Ca7 O57 2.349849 1_555
Ca7 O21 2.378082 1_555
Ca8 O25 2.281733 1_554
Ca8 O24 2.301577 1_554
Ca8 O60 2.327590 1_555
Ca8 O26 2.339260 1_554
Ca8 O62 2.378789 1_555
Ca8 O61 2.393364 1_555
Ca9 O27 2.276288 1_555
Ca9 O28 2.284543 1_555
Ca9 O29 2.326182 1_555
Ca9 O64 2.341599 1_555
Ca9 O63 2.356437 1_555
Ca9 O65 2.388079 1_555
Ca10 O30 2.275679 1_555
Ca10 O31 2.288670 1_555
Ca10 O66 2.309917 1_555
Ca10 O68 2.354224 1_555
Ca10 O32 2.365505 1_555
Ca10 O67 2.390306 1_555
Ca11 O34 2.203332 1_555
Ca11 O71 2.326766 1_555
Ca11 O33 2.332247 1_555
Ca11 O70 2.384983 1_555
Ca11 O35 2.393459 1_555
Ca11 O69 2.409098 1_555
O0 P0 1.553481 1_545
O1 S0 1.487599 1_555
O2 P1 1.555797 1_555
O3 S1 1.485407 1_555
O4 S2 1.483864 1_555
O5 P2 1.559962 1_555
O6 P2 1.554697 1_565
O7 S1 1.471846 1_555
O8 S2 1.479007 1_455
O9 S0 1.474164 1_555
O10 P1 1.547963 1_455
O11 P0 1.546477 1_555
O12 S3 1.486247 1_555
O13 S4 1.476316 1_555
O14 P3 1.545942 1_555
O15 S5 1.481201 1_555
O16 S6 1.488174 1_555
O17 P4 1.548637 1_555
O18 P4 1.548866 1_555
O19 S5 1.484716 1_555
O20 S6 1.490043 1_555
O21 S4 1.486681 1_555
O22 P3 1.553255 1_555
O23 S3 1.492665 1_555
O24 S7 1.481432 1_555
O25 P5 1.549724 1_555
O26 P6 1.549156 1_555
O27 P7 1.547719 1_555
O28 S8 1.475992 1_555
O29 P8 1.551086 1_555
O30 P8 1.552992 1_555
O31 P7 1.552573 1_555
O32 S8 1.484150 1_555
O33 P5 1.553797 1_555
O34 P6 1.544076 1_555
O35 S7 1.487533 1_555
O36 P8 1.566073 1_555
O37 P7 1.562828 1_545
O38 S8 1.491290 1_555
O39 P5 1.564635 1_555
O40 P6 1.564764 1_555
O41 S7 1.491262 1_555
O42 S3 1.483825 1_555
O43 S4 1.485880 1_565
O44 P3 1.575396 1_555
O45 S5 1.488621 1_455
O46 S6 1.483645 1_555
O47 P4 1.574450 1_555
O48 P2 1.558195 1_555
O49 S1 1.489627 1_555
O50 S2 1.497533 1_555
O51 S0 1.488558 1_555
O52 P1 1.563191 1_555
O53 P0 1.565738 1_545
O54 S7 1.487581 1_555
O55 P5 1.566170 1_655
O56 P6 1.562073 1_545
O57 P7 1.565249 1_545
O58 S8 1.490222 1_555
O59 P8 1.561554 1_655
O60 P4 1.556154 1_555
O61 S5 1.498684 1_455
O62 S6 1.487294 1_565
O63 S4 1.498405 1_565
O64 P3 1.558112 1_555
O65 S3 1.487782 1_455
O66 P0 1.561192 1_555
O67 S0 1.493910 1_555
O68 P1 1.563857 1_455
O69 S1 1.501221 1_555
O70 S2 1.495090 1_455
O71 P2 1.558564 1_565
