# generated using pymatgen
data_Na2Y4Nb4Si5S7O48
_symmetry_space_group_name_H-M   'P 1'
_cell_length_a   18.12500289
_cell_length_b   9.07486418
_cell_length_c   23.68955233
_cell_angle_alpha   89.92225493
_cell_angle_beta   89.99197138
_cell_angle_gamma   120.12717817
_symmetry_Int_Tables_number   1
_chemical_formula_structural   Na2Y4Nb4Si5S7O48
_chemical_formula_sum   'Na6 Y12 Nb12 Si15 S21 O144'
_cell_volume   3370.13360693
_cell_formula_units_Z   3
loop_
 _symmetry_equiv_pos_site_id
 _symmetry_equiv_pos_as_xyz
  1  'x, y, z'
loop_
 _atom_site_type_symbol
 _atom_site_label
 _atom_site_symmetry_multiplicity
 _atom_site_fract_x
 _atom_site_fract_y
 _atom_site_fract_z
 _atom_site_occupancy
  Na  Na0  1  0.00106493  0.98945188  0.49549166  1
  Na  Na1  1  0.49740827  0.00777778  0.99410604  1
  Na  Na2  1  0.33255170  0.31583615  0.84301216  1
  Na  Na3  1  0.83321013  0.33659969  0.83490471  1
  Na  Na4  1  0.33049161  0.32641667  0.33074163  1
  Na  Na5  1  0.84343890  0.35061910  0.33442340  1
  Y  Y0  1  0.00678105  0.99126474  0.35476505  1
  Y  Y1  1  0.50459736  0.02066925  0.85550378  1
  Y  Y2  1  0.00290540  0.00406992  0.64981846  1
  Y  Y3  1  0.50280614  0.00217953  0.14821262  1
  Y  Y4  1  0.32684735  0.32579873  0.97900058  1
  Y  Y5  1  0.84111620  0.33457160  0.98396235  1
  Y  Y6  1  0.34034670  0.34728039  0.48446268  1
  Y  Y7  1  0.82984378  0.32953693  0.48082535  1
  Y  Y8  1  0.15830639  0.67296826  0.30672730  1
  Y  Y9  1  0.67047928  0.67085826  0.30529766  1
  Y  Y10  1  0.16975491  0.67409407  0.80573209  1
  Y  Y11  1  0.65884246  0.64407763  0.80655136  1
  Nb  Nb0  1  0.50499675  0.01702381  0.34934841  1
  Nb  Nb1  1  0.01090600  0.99278996  0.85334561  1
  Nb  Nb2  1  0.50343320  0.01020223  0.64137414  1
  Nb  Nb3  1  0.00518446  0.00069945  0.14061205  1
  Nb  Nb4  1  0.33406682  0.34866257  0.68492683  1
  Nb  Nb5  1  0.83027689  0.32587207  0.69034918  1
  Nb  Nb6  1  0.32946082  0.32815109  0.18590706  1
  Nb  Nb7  1  0.83314485  0.31992432  0.18311850  1
  Nb  Nb8  1  0.15863032  0.66330564  0.02334701  1
  Nb  Nb9  1  0.66842525  0.66529775  0.02073155  1
  Nb  Nb10  1  0.16769880  0.67098502  0.52149946  1
  Nb  Nb11  1  0.66127342  0.67022392  0.52716105  1
  Si  Si0  1  0.14306074  0.00625921  0.24714945  1
  Si  Si1  1  0.65206222  0.01994414  0.24883633  1
  Si  Si2  1  0.49287026  0.28802316  0.24742072  1
  Si  Si3  1  0.15079668  0.28495060  0.74976269  1
  Si  Si4  1  0.64226872  0.27926294  0.74745201  1
  Si  Si5  1  0.99427846  0.70310560  0.74871422  1
  Si  Si6  1  0.47597453  0.33143342  0.58458836  1
  Si  Si7  1  0.68955884  0.04694048  0.58529834  1
  Si  Si8  1  0.33191455  0.63025432  0.58481540  1
  Si  Si9  1  0.97692639  0.62237021  0.08457036  1
  Si  Si10  1  0.83170319  0.03182857  0.08438131  1
  Si  Si11  1  0.18978416  0.34411286  0.08398599  1
  Si  Si12  1  0.52105298  0.37472834  0.91873896  1
  Si  Si13  1  0.16716909  0.95012029  0.91601122  1
  Si  Si14  1  0.01975407  0.66575527  0.41867472  1
  S  S0  1  0.35849317  0.70240623  0.25221237  1
  S  S1  1  0.86045264  0.70388517  0.24520391  1
  S  S2  1  0.99384742  0.27897587  0.24657452  1
  S  S3  1  0.49455682  0.71030828  0.74668354  1
  S  S4  1  0.36041714  0.01628722  0.74403287  1
  S  S5  1  0.85671416  0.01119859  0.75154119  1
  S  S6  1  0.98318077  0.34313850  0.58204678  1
  S  S7  1  0.18854787  0.03707935  0.58136841  1
  S  S8  1  0.82828257  0.62320513  0.58198133  1
  S  S9  1  0.48307911  0.62186408  0.08185072  1
  S  S10  1  0.32891908  0.03646318  0.08297005  1
  S  S11  1  0.68951925  0.34099941  0.08143795  1
  S  S12  1  0.31004309  0.67335697  0.92027005  1
  S  S13  1  0.81256723  0.67467576  0.91614708  1
  S  S14  1  0.02456410  0.37196397  0.91569507  1
  S  S15  1  0.66638238  0.94932009  0.91855974  1
  S  S16  1  0.31361384  0.95122467  0.41611405  1
  S  S17  1  0.80916561  0.94657202  0.42062353  1
  S  S18  1  0.16657143  0.38392547  0.41884063  1
  S  S19  1  0.66099922  0.37284462  0.41638107  1
  S  S20  1  0.52649162  0.67739857  0.41643705  1
  O  O0  1  0.11467401  0.05767159  0.30465080  1
  O  O1  1  0.59471773  0.03996306  0.30571402  1
  O  O2  1  0.41583752  0.79268595  0.30247124  1
  O  O3  1  0.90979781  0.77393351  0.29825100  1
  O  O4  1  0.47911711  0.15387662  0.30583591  1
  O  O5  1  0.97687343  0.18171272  0.29940608  1
  O  O6  1  0.09692464  0.15199825  0.80586316  1
  O  O7  1  0.61294029  0.16949069  0.80450658  1
  O  O8  1  0.47795804  0.77384262  0.79899649  1
  O  O9  1  0.97901663  0.80163782  0.80569423  1
  O  O10  1  0.40982954  0.04664039  0.79681360  1
  O  O11  1  0.91152751  0.03982167  0.80097578  1
  O  O12  1  0.40605974  0.99713852  0.69564783  1
  O  O13  1  0.89162183  0.98828759  0.69886602  1
  O  O14  1  0.09628514  0.20592774  0.69416509  1
  O  O15  1  0.58163021  0.16865112  0.69534624  1
  O  O16  1  0.00024573  0.80538054  0.69315473  1
  O  O17  1  0.49975895  0.81084754  0.69720646  1
  O  O18  1  0.39342308  0.79939924  0.20052681  1
  O  O19  1  0.90339315  0.81370436  0.19677479  1
  O  O20  1  0.99942623  0.18902250  0.19771903  1
  O  O21  1  0.50210447  0.19600210  0.19400777  1
  O  O22  1  0.08054039  0.99363400  0.19582890  1
  O  O23  1  0.59528878  0.98577694  0.19475575  1
  O  O24  1  0.42761343  0.36308180  0.63778823  1
  O  O25  1  0.94416055  0.36839235  0.63355055  1
  O  O26  1  0.23971101  0.11743895  0.63241380  1
  O  O27  1  0.75744444  0.14363984  0.63738331  1
  O  O28  1  0.31397501  0.49385696  0.63934768  1
  O  O29  1  0.81608083  0.51814775  0.63278758  1
  O  O30  1  0.44396912  0.51813398  0.13384160  1
  O  O31  1  0.92541335  0.49238683  0.13845757  1
  O  O32  1  0.31998813  0.12647731  0.13458689  1
  O  O33  1  0.81395867  0.13296306  0.13957070  1
  O  O34  1  0.25741817  0.37369004  0.13824512  1
  O  O35  1  0.74092039  0.36031504  0.13302834  1
  O  O36  1  0.22399236  0.29010405  0.03201186  1
  O  O37  1  0.72772962  0.31496027  0.03103096  1
  O  O38  1  0.43135814  0.54260815  0.03240972  1
  O  O39  1  0.92234824  0.55495647  0.02886645  1
  O  O40  1  0.34560603  0.14233845  0.03351121  1
  O  O41  1  0.85311165  0.15275186  0.03151426  1
  O  O42  1  0.22711448  0.13881824  0.53054505  1
  O  O43  1  0.72244819  0.15180510  0.52909085  1
  O  O44  1  0.35313518  0.55441059  0.53108858  1
  O  O45  1  0.84334669  0.54838613  0.53169982  1
  O  O46  1  0.42453052  0.29383499  0.52755597  1
  O  O47  1  0.93114904  0.32096926  0.53206393  1
  O  O48  1  0.26246756  0.68317010  0.97077532  1
  O  O49  1  0.76887237  0.69014644  0.96922353  1
  O  O50  1  0.07313796  0.45364411  0.96954407  1
  O  O51  1  0.58594131  0.49331920  0.97422412  1
  O  O52  1  0.15590250  0.82851907  0.97338388  1
  O  O53  1  0.66479148  0.84726913  0.97061316  1
  O  O54  1  0.27131302  0.84950224  0.46872723  1
  O  O55  1  0.76071282  0.83870067  0.47121388  1
  O  O56  1  0.16465423  0.48218076  0.47059604  1
  O  O57  1  0.64989623  0.45259729  0.46790616  1
  O  O58  1  0.08408075  0.67509478  0.47421379  1
  O  O59  1  0.57641974  0.69152533  0.46983100  1
  O  O60  1  0.06546543  0.65124914  0.36288263  1
  O  O61  1  0.56841818  0.65264843  0.36818390  1
  O  O62  1  0.26180127  0.86877312  0.36630219  1
  O  O63  1  0.76324516  0.86621715  0.36920578  1
  O  O64  1  0.17638004  0.47973900  0.36749323  1
  O  O65  1  0.67454183  0.47576166  0.36629334  1
  O  O66  1  0.06590035  0.47809881  0.86710432  1
  O  O67  1  0.56760523  0.47923519  0.86266121  1
  O  O68  1  0.17696938  0.86320326  0.86147399  1
  O  O69  1  0.67640741  0.87339264  0.86738242  1
  O  O70  1  0.26501321  0.65777589  0.86810692  1
  O  O71  1  0.76054512  0.65287069  0.86657828  1
  O  O72  1  0.01776007  0.84324460  0.42244336  1
  O  O73  1  0.51965048  0.83333214  0.41004137  1
  O  O74  1  0.39858224  0.96184417  0.40938571  1
  O  O75  1  0.89478792  0.96447337  0.42082096  1
  O  O76  1  0.08523880  0.21938935  0.42012650  1
  O  O77  1  0.57968815  0.19959259  0.40787679  1
  O  O78  1  0.01572213  0.20048504  0.90952353  1
  O  O79  1  0.51949043  0.19376470  0.92255760  1
  O  O80  1  0.07486558  0.95629259  0.90680522  1
  O  O81  1  0.58530852  0.95064891  0.92009079  1
  O  O82  1  0.39595757  0.83064609  0.91989680  1
  O  O83  1  0.89617279  0.83387284  0.91097455  1
  O  O84  1  0.49653452  0.17975566  0.59986060  1
  O  O85  1  0.99471265  0.19412480  0.58627530  1
  O  O86  1  0.10060920  0.00422540  0.58584024  1
  O  O87  1  0.59288480  0.00076343  0.60224756  1
  O  O88  1  0.40849637  0.81334219  0.60593891  1
  O  O89  1  0.89884608  0.79938573  0.58758775  1
  O  O90  1  0.49545415  0.79498409  0.08762541  1
  O  O91  1  0.99596579  0.81379718  0.10041573  1
  O  O92  1  0.40027843  0.00535975  0.09053359  1
  O  O93  1  0.90919477  0.00478512  0.10646465  1
  O  O94  1  0.09394808  0.18895074  0.10280671  1
  O  O95  1  0.60173482  0.19673745  0.08678006  1
  O  O96  1  0.35071230  0.16889378  0.73470792  1
  O  O97  1  0.85211389  0.17658145  0.74485600  1
  O  O98  1  0.24436332  0.28850140  0.73903456  1
  O  O99  1  0.73860285  0.29873832  0.73190846  1
  O  O100  1  0.41698889  0.52951931  0.73841159  1
  O  O101  1  0.90505006  0.51195861  0.73814859  1
  O  O102  1  0.35498687  0.53319923  0.24696856  1
  O  O103  1  0.85044216  0.53120959  0.23699734  1
  O  O104  1  0.40596648  0.30242587  0.23962241  1
  O  O105  1  0.91646918  0.30482843  0.23856714  1
  O  O106  1  0.23987146  0.17883461  0.23101181  1
  O  O107  1  0.74447263  0.20118023  0.24131254  1
  O  O108  1  0.32142015  0.52429323  0.92541036  1
  O  O109  1  0.82273741  0.52428346  0.92236298  1
  O  O110  1  0.42919461  0.35748863  0.92371111  1
  O  O111  1  0.93732047  0.35007284  0.92037484  1
  O  O112  1  0.24090777  0.14406927  0.92072011  1
  O  O113  1  0.73960978  0.12357399  0.92448413  1
  O  O114  1  0.32522535  0.12391237  0.42172722  1
  O  O115  1  0.81657655  0.11535029  0.42509490  1
  O  O116  1  0.23953723  0.35577683  0.42453498  1
  O  O117  1  0.73244071  0.34037848  0.42189898  1
  O  O118  1  0.43957896  0.52658207  0.42120255  1
  O  O119  1  0.92513504  0.50075190  0.42232651  1
  O  O120  1  0.18080623  0.51226471  0.07040450  1
  O  O121  1  0.68553876  0.50179099  0.07450463  1
  O  O122  1  0.07066139  0.63593341  0.07242703  1
  O  O123  1  0.57064828  0.64133714  0.07427971  1
  O  O124  1  0.24878279  0.86969685  0.07703047  1
  O  O125  1  0.74750650  0.84597696  0.07058764  1
  O  O126  1  0.18421108  0.86687872  0.57330965  1
  O  O127  1  0.67934057  0.85247642  0.57145946  1
  O  O128  1  0.24724410  0.64810353  0.56970845  1
  O  O129  1  0.74748398  0.63099325  0.57162101  1
  O  O130  1  0.07055745  0.49885054  0.57393113  1
  O  O131  1  0.57251962  0.50495583  0.56971792  1
  O  O132  1  0.15941552  0.85031827  0.24840993  1
  O  O133  1  0.67092976  0.87486611  0.26624291  1
  O  O134  1  0.27343361  0.67350487  0.26328918  1
  O  O135  1  0.77509568  0.68317380  0.25082845  1
  O  O136  1  0.06969695  0.44869001  0.25015545  1
  O  O137  1  0.57082998  0.46441054  0.26504559  1
  O  O138  1  0.17366773  0.47056587  0.76507032  1
  O  O139  1  0.65903957  0.46843128  0.74761455  1
  O  O140  1  0.06819300  0.66539517  0.76031788  1
  O  O141  1  0.57010015  0.69165478  0.74960939  1
  O  O142  1  0.27636312  0.86469536  0.74739393  1
  O  O143  1  0.76978643  0.87262578  0.75993707  1
loop_
_geom_bond_atom_site_label_1
_geom_bond_atom_site_label_2
_geom_bond_distance
_geom_bond_site_symmetry_2
Na0 O72 2.292527 1_555
Na0 O75 2.540608 1_455
Na0 O76 2.581212 1_565
Na0 O86 2.759213 1_565
Na0 O89 2.819260 1_455
Na0 O85 2.883355 1_465
Na1 O79 2.279400 1_555
Na1 O82 2.469212 1_545
Na1 O81 2.590798 1_545
Na1 O95 2.844691 1_556
Na1 O92 2.877128 1_556
Na1 O90 2.925431 1_546
Na2 O112 2.443324 1_555
Na2 O110 2.490802 1_555
Na2 O108 2.796886 1_555
Na2 O98 2.878970 1_555
Na2 O96 2.986452 1_555
Na2 O100 3.041291 1_555
Na3 O97 2.698959 1_555
Na3 O101 2.718611 1_555
Na3 O111 2.728638 1_555
Na3 O109 2.750181 1_555
Na3 O113 2.795392 1_555
Na3 O99 2.902369 1_555
Na4 O102 2.609635 1_555
Na4 O104 2.622524 1_555
Na4 O114 2.800918 1_555
Na4 O106 2.806169 1_555
Na4 O116 2.857822 1_555
Na4 O118 2.864907 1_555
Na5 O119 2.523599 1_555
Na5 O107 2.736666 1_555
Na5 O105 2.763180 1_555
Na5 O103 2.794547 1_555
Na5 O117 2.856750 1_555
Na5 O115 2.890146 1_555
Nb0 O4 1.845635 1_555
Nb0 O1 1.848094 1_555
Nb0 O77 2.062837 1_555
Nb0 O2 2.166424 1_545
Nb0 O74 2.240860 1_545
Nb0 O73 2.314010 1_545
Nb1 O80 1.855307 1_555
Nb1 O6 1.875454 1_565
Nb1 O9 1.901704 1_455
Nb1 O78 2.274400 1_565
Nb1 O83 2.291592 1_455
Nb1 O11 2.395134 1_465
Nb2 O84 1.881319 1_555
Nb2 O87 1.906388 1_555
Nb2 O15 1.915937 1_555
Nb2 O88 1.943116 1_545
Nb2 O12 2.137965 1_545
Nb2 O17 2.213427 1_545
Nb3 O91 1.879203 1_445
Nb3 O94 1.882908 1_555
Nb3 O22 1.915412 1_545
Nb3 O93 1.935916 1_455
Nb3 O19 2.214507 1_445
Nb3 O20 2.224197 1_455
Nb4 O28 1.874171 1_555
Nb4 O98 1.921190 1_555
Nb4 O24 1.978714 1_555
Nb4 O100 2.021862 1_555
Nb4 O96 2.152231 1_555
Nb4 O26 2.297965 1_555
Nb5 O99 1.838198 1_555
Nb5 O101 1.918038 1_555
Nb5 O27 1.966333 1_555
Nb5 O97 2.047706 1_555
Nb5 O29 2.326919 1_555
Nb5 O25 2.327726 1_555
Nb6 O106 1.844287 1_555
Nb6 O34 1.921332 1_555
Nb6 O104 1.980210 1_555
Nb6 O32 2.132531 1_555
Nb6 O102 2.216363 1_555
Nb6 O30 2.280960 1_555
Nb7 O33 1.864504 1_555
Nb7 O31 1.932150 1_555
Nb7 O107 1.975237 1_555
Nb7 O105 2.057380 1_555
Nb7 O103 2.192506 1_555
Nb7 O35 2.225078 1_555
Nb8 O122 1.885970 1_555
Nb8 O52 1.928949 1_554
Nb8 O120 1.957561 1_555
Nb8 O50 2.166393 1_554
Nb8 O124 2.174895 1_555
Nb8 O48 2.187187 1_554
Nb9 O51 1.883497 1_554
Nb9 O125 1.945341 1_555
Nb9 O53 2.060307 1_554
Nb9 O121 2.092271 1_555
Nb9 O123 2.099754 1_555
Nb9 O49 2.107333 1_554
Nb10 O58 1.900070 1_555
Nb10 O128 1.930390 1_555
Nb10 O126 2.056252 1_555
Nb10 O56 2.074500 1_555
Nb10 O130 2.077529 1_555
Nb10 O54 2.157313 1_555
Nb11 O127 1.845280 1_555
Nb11 O131 1.851229 1_555
Nb11 O129 2.058043 1_555
Nb11 O59 2.132028 1_555
Nb11 O55 2.137803 1_555
Nb11 O57 2.347786 1_555
O0 Si0 1.606374 1_555
O0 Y0 2.100282 1_545
O1 Si1 1.765960 1_555
O2 S0 1.522249 1_555
O3 S1 1.488275 1_555
O3 Y0 2.302111 1_655
O4 Si2 1.774767 1_555
O5 S2 1.471195 1_555
O5 Y0 2.436224 1_645
O6 Si3 1.728588 1_555
O7 Si4 1.601971 1_555
O7 Y1 2.114777 1_555
O8 S3 1.461059 1_555
O8 Y1 2.442324 1_565
O9 Si5 1.717429 1_555
O10 S4 1.481539 1_555
O10 Y1 2.311957 1_555
O11 S5 1.472424 1_555
O12 S4 1.474103 1_565
O13 S5 1.460551 1_565
O13 Y2 2.268878 1_665
O14 Si3 1.586452 1_555
O14 Y2 2.053599 1_555
O15 Si4 1.623413 1_555
O16 Si5 1.581559 1_455
O16 Y2 2.053063 1_565
O17 S3 1.458023 1_555
O18 S0 1.453342 1_555
O18 Y3 2.276745 1_565
O19 S1 1.460542 1_555
O20 S2 1.449647 1_555
O21 Si2 1.571477 1_555
O21 Y3 2.073283 1_555
O22 Si0 1.626572 1_565
O23 Si1 1.574011 1_565
O23 Y3 2.073211 1_565
O24 Si6 1.640888 1_555
O25 S6 1.484783 1_555
O26 S7 1.475761 1_555
O27 Si7 1.651037 1_555
O28 Si8 1.702419 1_555
O29 S8 1.480405 1_555
O30 S9 1.494091 1_555
O31 Si9 1.668166 1_555
O32 S10 1.524485 1_555
O33 Si10 1.718877 1_555
O34 Si11 1.702369 1_555
O35 S11 1.493089 1_555
O36 Si11 1.564318 1_555
O36 Y4 2.132945 1_554
O37 S11 1.458156 1_555
O37 Y5 2.264995 1_554
O38 S9 1.446946 1_555
O38 Y4 2.307875 1_554
O39 Si9 1.577731 1_555
O39 Y5 2.085541 1_554
O40 S10 1.446560 1_555
O40 Y4 2.262185 1_554
O41 Si10 1.578594 1_555
O41 Y5 2.096149 1_554
O42 S7 1.462707 1_555
O42 Y6 2.253644 1_555
O43 Si7 1.568696 1_555
O43 Y7 2.130854 1_555
O44 Si8 1.584161 1_555
O44 Y6 2.091717 1_555
O45 S8 1.463757 1_555
O45 Y7 2.230547 1_555
O46 Si6 1.579071 1_555
O46 Y6 2.085074 1_555
O47 S6 1.463691 1_555
O47 Y7 2.234851 1_555
O48 S12 1.503355 1_555
O49 S13 1.529604 1_555
O50 S14 1.516453 1_555
O51 Si12 1.732859 1_555
O52 Si13 1.695974 1_555
O53 S15 1.532698 1_555
O54 S16 1.509829 1_555
O55 S17 1.516366 1_555
O56 S18 1.527593 1_555
O57 S19 1.484156 1_555
O58 Si14 1.731804 1_555
O59 S20 1.523018 1_555
O60 Si14 1.600090 1_555
O60 Y8 2.075060 1_555
O61 S20 1.451338 1_555
O61 Y9 2.315237 1_555
O62 S16 1.459985 1_555
O62 Y8 2.308571 1_555
O63 S17 1.449689 1_555
O63 Y9 2.297350 1_555
O64 S18 1.452289 1_555
O64 Y8 2.413360 1_555
O65 S19 1.451628 1_555
O65 Y9 2.313411 1_555
O66 S14 1.444431 1_555
O66 Y10 2.334933 1_555
O67 Si12 1.602855 1_555
O67 Y11 2.061543 1_555
O68 Si13 1.570417 1_555
O68 Y10 2.118227 1_555
O69 S15 1.451035 1_555
O69 Y11 2.419047 1_555
O70 S12 1.448461 1_555
O70 Y10 2.333046 1_555
O71 S13 1.456281 1_555
O71 Y11 2.297792 1_555
O72 Si14 1.631695 1_555
O72 Y0 2.162637 1_555
O73 S20 1.488735 1_555
O74 S16 1.502451 1_555
O75 S17 1.477073 1_555
O75 Y0 2.476061 1_655
O76 S18 1.481154 1_555
O76 Y0 2.399900 1_545
O77 S19 1.536044 1_555
O78 S14 1.489608 1_555
O79 Si12 1.630577 1_555
O79 Y1 2.155186 1_555
O80 Si13 1.715742 1_555
O81 S15 1.475994 1_555
O81 Y1 2.411627 1_565
O82 S12 1.493675 1_555
O82 Y1 2.400288 1_565
O83 S13 1.483334 1_555
O84 Si6 1.636454 1_555
O85 S6 1.471649 1_555
O85 Y2 2.347932 1_655
O86 S7 1.470859 1_555
O86 Y2 2.330203 1_555
O87 Si7 1.633813 1_555
O88 Si8 1.620187 1_555
O89 S8 1.468856 1_555
O89 Y2 2.381646 1_665
O90 S9 1.477853 1_555
O90 Y3 2.317126 1_565
O91 Si9 1.636394 1_555
O92 S10 1.466639 1_555
O92 Y3 2.318541 1_555
O93 Si10 1.628651 1_555
O94 Si11 1.655762 1_555
O95 S11 1.473087 1_555
O95 Y3 2.294484 1_555
O96 S4 1.497117 1_555
O97 S5 1.552254 1_555
O98 Si3 1.699026 1_555
O99 Si4 1.704523 1_555
O100 S3 1.546667 1_555
O101 Si5 1.694785 1_555
O102 S0 1.509928 1_555
O103 S1 1.497216 1_555
O104 Si2 1.654972 1_555
O105 S2 1.545389 1_555
O106 Si0 1.708031 1_555
O107 Si1 1.666127 1_555
O108 S12 1.472011 1_555
O108 Y4 2.244504 1_555
O109 S13 1.473201 1_555
O109 Y5 2.402783 1_555
O110 Si12 1.596487 1_555
O110 Y4 2.168454 1_555
O111 S14 1.495588 1_655
O111 Y5 2.254299 1_555
O112 Si13 1.592394 1_545
O112 Y4 2.116669 1_555
O113 S15 1.475013 1_545
O113 Y5 2.346968 1_555
O114 S16 1.478961 1_545
O114 Y6 2.417291 1_555
O115 S17 1.472787 1_545
O115 Y7 2.262015 1_555
O116 S18 1.473619 1_555
O116 Y6 2.345590 1_555
O117 S19 1.470888 1_555
O117 Y7 2.291233 1_555
O118 S20 1.484151 1_555
O118 Y6 2.276651 1_555
O119 Si14 1.616334 1_655
O119 Y7 2.148787 1_555
O120 Si11 1.645139 1_555
O121 S11 1.505445 1_555
O122 Si9 1.665586 1_455
O123 S9 1.516855 1_555
O124 S10 1.487898 1_565
O125 Si10 1.642594 1_565
O126 S7 1.518941 1_565
O127 Si7 1.711596 1_565
O128 Si8 1.661025 1_555
O129 S8 1.521142 1_555
O130 S6 1.514772 1_455
O131 Si6 1.702365 1_555
O132 Si0 1.585050 1_565
O132 Y8 2.112041 1_555
O133 Si1 1.571893 1_565
O133 Y9 2.064871 1_555
O134 S0 1.451996 1_555
O134 Y8 2.324295 1_555
O135 S1 1.467842 1_555
O135 Y9 2.249257 1_555
O136 S2 1.464283 1_455
O136 Y8 2.290090 1_555
O137 Si2 1.569919 1_555
O137 Y9 2.071210 1_555
O138 Si3 1.562503 1_555
O138 Y10 2.116736 1_555
O139 Si4 1.586060 1_555
O139 Y11 2.121753 1_555
O140 Si5 1.564465 1_455
O140 Y10 2.099324 1_555
O141 S3 1.463180 1_555
O141 Y11 2.299849 1_555
O142 S4 1.454515 1_565
O142 Y10 2.296328 1_555
O143 S5 1.453839 1_565
O143 Y11 2.317576 1_555
