# generated using pymatgen
data_Na3CaSn(PO4)3
_symmetry_space_group_name_H-M   'P 1'
_cell_length_a   15.95156040
_cell_length_b   9.21245140
_cell_length_c   9.10470113
_cell_angle_alpha   90.00000000
_cell_angle_beta   125.33153633
_cell_angle_gamma   90.00000000
_symmetry_Int_Tables_number   1
_chemical_formula_structural   Na3CaSn(PO4)3
_chemical_formula_sum   'Na12 Ca4 Sn4 P12 O48'
_cell_volume   1091.53611258
_cell_formula_units_Z   4
loop_
 _symmetry_equiv_pos_site_id
 _symmetry_equiv_pos_as_xyz
  1  'x, y, z'
loop_
 _atom_site_type_symbol
 _atom_site_label
 _atom_site_symmetry_multiplicity
 _atom_site_fract_x
 _atom_site_fract_y
 _atom_site_fract_z
 _atom_site_occupancy
  Na  Na0  1  0.25629005  0.72172168  0.99442800  1
  Na  Na1  1  0.75629005  0.77827832  0.49442800  1
  Na  Na2  1  0.75629005  0.22172168  0.99442800  1
  Na  Na3  1  0.25629005  0.27827832  0.49442800  1
  Na  Na4  1  0.50374891  0.11269216  0.74559129  1
  Na  Na5  1  0.50374891  0.88730784  0.24559129  1
  Na  Na6  1  0.00374891  0.61269216  0.74559129  1
  Na  Na7  1  0.00374891  0.38730784  0.24559129  1
  Na  Na8  1  0.17923506  0.94017410  0.28985450  1
  Na  Na9  1  0.17923506  0.05982590  0.78985450  1
  Na  Na10  1  0.67923506  0.44017410  0.28985450  1
  Na  Na11  1  0.67923506  0.55982590  0.78985450  1
  Ca  Ca0  1  0.10514006  0.74808465  0.56658287  1
  Ca  Ca1  1  0.10514006  0.25191535  0.06658287  1
  Ca  Ca2  1  0.60514006  0.24808465  0.56658287  1
  Ca  Ca3  1  0.60514006  0.75191535  0.06658287  1
  Sn  Sn0  1  0.89607893  0.75660311  0.94396712  1
  Sn  Sn1  1  0.89607893  0.24339689  0.44396712  1
  Sn  Sn2  1  0.39607893  0.25660311  0.94396712  1
  Sn  Sn3  1  0.39607893  0.74339689  0.44396712  1
  P  P0  1  0.99393077  0.95363669  0.76063418  1
  P  P1  1  0.99393077  0.04636331  0.26063418  1
  P  P2  1  0.49393077  0.45363669  0.76063418  1
  P  P3  1  0.49393077  0.54636331  0.26063418  1
  P  P4  1  0.35600992  0.91410787  0.76056301  1
  P  P5  1  0.64858083  0.87966727  0.74278749  1
  P  P6  1  0.64858083  0.12033273  0.24278749  1
  P  P7  1  0.35600992  0.08589213  0.26056301  1
  P  P8  1  0.85600992  0.41410787  0.76056301  1
  P  P9  1  0.14858083  0.37966727  0.74278749  1
  P  P10  1  0.14858083  0.62033273  0.24278749  1
  P  P11  1  0.85600992  0.58589213  0.26056301  1
  O  O0  1  0.15567530  0.54541871  0.75283776  1
  O  O1  1  0.85200685  0.58746083  0.74784703  1
  O  O2  1  0.85200685  0.41253917  0.24784703  1
  O  O3  1  0.15567530  0.45458129  0.25283776  1
  O  O4  1  0.65567530  0.04541871  0.75283776  1
  O  O5  1  0.35200685  0.08746083  0.74784703  1
  O  O6  1  0.35200685  0.91253917  0.24784703  1
  O  O7  1  0.65567530  0.95458129  0.25283776  1
  O  O8  1  0.43412650  0.55474678  0.58901199  1
  O  O9  1  0.55795755  0.53745188  0.93451970  1
  O  O10  1  0.55795755  0.46254812  0.43451970  1
  O  O11  1  0.43412650  0.44525322  0.08901199  1
  O  O12  1  0.93412650  0.05474678  0.58901199  1
  O  O13  1  0.05795755  0.03745188  0.93451970  1
  O  O14  1  0.05795755  0.96254812  0.43451970  1
  O  O15  1  0.93412650  0.94525322  0.08901199  1
  O  O16  1  0.26314634  0.86120870  0.75398168  1
  O  O17  1  0.73813711  0.80616385  0.74147997  1
  O  O18  1  0.73813711  0.19383615  0.24147997  1
  O  O19  1  0.26314634  0.13879130  0.25398168  1
  O  O20  1  0.76314634  0.36120870  0.75398168  1
  O  O21  1  0.23813711  0.30616385  0.74147997  1
  O  O22  1  0.23813711  0.69383615  0.24147997  1
  O  O23  1  0.76314634  0.63879130  0.25398168  1
  O  O24  1  0.35206473  0.87120196  0.58576709  1
  O  O25  1  0.65241627  0.81698582  0.89910383  1
  O  O26  1  0.65241627  0.18301418  0.39910383  1
  O  O27  1  0.35206473  0.12879804  0.08576709  1
  O  O28  1  0.85206473  0.37120196  0.58576709  1
  O  O29  1  0.15241627  0.31698582  0.89910383  1
  O  O30  1  0.15241627  0.68301418  0.39910383  1
  O  O31  1  0.85206473  0.62879804  0.08576709  1
  O  O32  1  0.45569511  0.86953652  0.93335296  1
  O  O33  1  0.54680452  0.82624024  0.55822902  1
  O  O34  1  0.54680452  0.17375976  0.05822902  1
  O  O35  1  0.45569511  0.13046348  0.43335296  1
  O  O36  1  0.95569511  0.36953652  0.93335296  1
  O  O37  1  0.04680452  0.32624024  0.55822902  1
  O  O38  1  0.04680452  0.67375976  0.05822902  1
  O  O39  1  0.95569511  0.63046348  0.43335296  1
  O  O40  1  0.06501877  0.84941490  0.74814132  1
  O  O41  1  0.90793644  0.86085852  0.75131920  1
  O  O42  1  0.90793644  0.13914148  0.25131920  1
  O  O43  1  0.06501877  0.15058510  0.24814132  1
  O  O44  1  0.56501877  0.34941490  0.74814132  1
  O  O45  1  0.40793644  0.36085852  0.75131920  1
  O  O46  1  0.40793644  0.63914148  0.25131920  1
  O  O47  1  0.56501877  0.65058510  0.24814132  1
loop_
_geom_bond_atom_site_label_1
_geom_bond_atom_site_label_2
_geom_bond_distance
_geom_bond_site_symmetry_2
Na0 O46 2.314502 1_556
Na0 O22 2.441862 1_556
Na0 O0 2.443147 1_555
Na0 O6 2.582727 1_556
Na0 O16 2.594748 1_555
Na0 O40 2.794278 1_555
Na1 O41 2.314502 1_555
Na1 O17 2.441862 1_555
Na1 O7 2.443147 1_555
Na1 O1 2.582727 1_555
Na1 O23 2.594748 1_555
Na1 O47 2.794278 1_555
Na2 O42 2.314502 1_556
Na2 O18 2.441862 1_556
Na2 O4 2.443147 1_555
Na2 O2 2.582727 1_556
Na2 O20 2.594748 1_555
Na2 O44 2.794278 1_555
Na3 O45 2.314502 1_555
Na3 O21 2.441862 1_555
Na3 O3 2.443147 1_555
Na3 O5 2.582727 1_555
Na3 O19 2.594748 1_555
Na3 O43 2.794278 1_555
Na4 O44 2.384404 1_555
Na4 O5 2.443538 1_555
Na4 O4 2.465094 1_555
Na4 O35 2.485093 1_555
Na4 O34 2.574774 1_556
Na4 O45 2.767235 1_555
Na4 O24 2.974725 1_545
Na5 O47 2.384404 1_555
Na5 O6 2.443538 1_555
Na5 O7 2.465094 1_555
Na5 O32 2.485093 1_554
Na5 O33 2.574774 1_555
Na5 O46 2.767235 1_555
Na5 O27 2.974725 1_565
Na6 O40 2.384404 1_555
Na6 O1 2.443538 1_455
Na6 O0 2.465094 1_555
Na6 O39 2.485093 1_455
Na6 O38 2.574774 1_556
Na6 O41 2.767235 1_455
Na6 O28 2.974725 1_455
Na7 O43 2.384404 1_555
Na7 O2 2.443538 1_455
Na7 O3 2.465094 1_555
Na7 O36 2.485093 1_454
Na7 O37 2.574774 1_555
Na7 O42 2.767235 1_455
Na7 O31 2.974725 1_455
Na8 O19 2.398318 1_565
Na8 O43 2.533919 1_565
Na8 O24 2.583029 1_555
Na8 O22 2.589498 1_555
Na8 O30 2.697607 1_555
Na8 O13 2.788072 1_564
Na9 O16 2.398318 1_545
Na9 O40 2.533919 1_545
Na9 O27 2.583029 1_556
Na9 O21 2.589498 1_555
Na9 O29 2.697607 1_555
Na9 O14 2.788072 1_545
Na10 O23 2.398318 1_555
Na10 O47 2.533919 1_555
Na10 O28 2.583029 1_555
Na10 O18 2.589498 1_555
Na10 O26 2.697607 1_555
Na10 O9 2.788072 1_554
Na11 O20 2.398318 1_555
Na11 O44 2.533919 1_555
Na11 O31 2.583029 1_556
Na11 O17 2.589498 1_555
Na11 O25 2.697607 1_555
Na11 O10 2.788072 1_555
Ca0 O30 2.140851 1_555
Ca0 O14 2.206591 1_555
Ca0 O39 2.232459 1_455
Ca0 O40 2.288486 1_555
Ca0 O16 2.318613 1_555
Ca0 O0 2.330305 1_555
Ca1 O29 2.140851 1_554
Ca1 O13 2.206591 1_554
Ca1 O36 2.232459 1_454
Ca1 O43 2.288486 1_555
Ca1 O19 2.318613 1_555
Ca1 O3 2.330305 1_555
Ca2 O26 2.140851 1_555
Ca2 O10 2.206591 1_555
Ca2 O35 2.232459 1_555
Ca2 O44 2.288486 1_555
Ca2 O20 2.318613 1_555
Ca2 O4 2.330305 1_555
Ca3 O25 2.140851 1_554
Ca3 O9 2.206591 1_554
Ca3 O32 2.232459 1_554
Ca3 O47 2.288486 1_555
Ca3 O23 2.318613 1_555
Ca3 O7 2.330305 1_555
O0 P9 1.529988 1_555
O1 P8 1.599799 1_555
O1 Sn0 2.158418 1_555
O2 P11 1.599799 1_555
O2 Sn1 2.158418 1_555
O3 P10 1.529988 1_555
O4 P5 1.529988 1_545
O5 P4 1.599799 1_545
O5 Sn2 2.158418 1_555
O6 P7 1.599799 1_565
O6 Sn3 2.158418 1_555
O7 P6 1.529988 1_565
O8 P2 1.579627 1_555
O8 Sn3 2.050779 1_555
O9 P2 1.508504 1_555
O10 P3 1.508504 1_555
O11 P3 1.579627 1_555
O11 Sn2 2.050779 1_554
O12 P0 1.579627 1_545
O12 Sn1 2.050779 1_555
O13 P0 1.508504 1_445
O14 P1 1.508504 1_465
O15 P1 1.579627 1_565
O15 Sn0 2.050779 1_554
O16 P4 1.527326 1_555
O17 P5 1.587177 1_555
O17 Sn0 2.140687 1_555
O18 P6 1.587177 1_555
O18 Sn1 2.140687 1_555
O19 P7 1.527326 1_555
O20 P8 1.527326 1_555
O21 P9 1.587177 1_555
O21 Sn2 2.140687 1_555
O22 P10 1.587177 1_555
O22 Sn3 2.140687 1_555
O23 P11 1.527326 1_555
O24 P4 1.605340 1_555
O24 Sn3 2.143456 1_555
O25 P5 1.504000 1_555
O26 P6 1.504000 1_555
O27 P7 1.605340 1_555
O27 Sn2 2.143456 1_554
O28 P8 1.605340 1_555
O28 Sn1 2.143456 1_555
O29 P9 1.504000 1_555
O30 P10 1.504000 1_555
O31 P11 1.605340 1_555
O31 Sn0 2.143456 1_554
O32 P4 1.509538 1_555
O33 P5 1.595705 1_555
O33 Sn3 2.133646 1_555
O34 P6 1.595705 1_555
O34 Sn2 2.133646 1_554
O35 P7 1.509538 1_555
O36 P8 1.509538 1_555
O37 P9 1.595705 1_555
O37 Sn1 2.133646 1_455
O38 P10 1.595705 1_555
O38 Sn0 2.133646 1_454
O39 P11 1.509538 1_555
O40 P0 1.539435 1_455
O41 P0 1.576342 1_555
O41 Sn0 2.102018 1_555
O42 P1 1.576342 1_555
O42 Sn1 2.102018 1_555
O43 P1 1.539435 1_455
O44 P2 1.539435 1_555
O45 P2 1.576342 1_555
O45 Sn2 2.102018 1_555
O46 P3 1.576342 1_555
O46 Sn3 2.102018 1_555
O47 P3 1.539435 1_555
