# generated using pymatgen
data_MgMn5O8
_symmetry_space_group_name_H-M   'P 1'
_cell_length_a   6.09928196
_cell_length_b   7.77759190
_cell_length_c   6.17272203
_cell_angle_alpha   108.93958637
_cell_angle_beta   62.45817067
_cell_angle_gamma   63.07612267
_symmetry_Int_Tables_number   1
_chemical_formula_structural   MgMn5O8
_chemical_formula_sum   'Mg1 Mn5 O8'
_cell_volume   170.71558750
_cell_formula_units_Z   1
loop_
 _symmetry_equiv_pos_site_id
 _symmetry_equiv_pos_as_xyz
  1  'x, y, z'
loop_
 _atom_site_type_symbol
 _atom_site_label
 _atom_site_symmetry_multiplicity
 _atom_site_fract_x
 _atom_site_fract_y
 _atom_site_fract_z
 _atom_site_occupancy
  Mg  Mg0  1  0.65586497  0.04017465  0.76060106  1
  Mn  Mn0  1  0.02108291  0.50940290  0.48302807  1
  Mn  Mn1  1  0.89681139  0.07103086  0.11733359  1
  Mn  Mn2  1  0.33561477  0.98802360  0.23019267  1
  Mn  Mn3  1  0.01362675  0.52644280  0.97934619  1
  Mn  Mn4  1  0.50767520  0.51187919  0.99187749  1
  O  O0  1  0.53592065  0.28478894  0.67053281  1
  O  O1  1  0.07846270  0.31864516  0.63205596  1
  O  O2  1  0.37548059  0.75840966  0.93253282  1
  O  O3  1  0.86438173  0.79596373  0.85787163  1
  O  O4  1  0.15516019  0.21563067  0.14357220  1
  O  O5  1  0.59759830  0.28898609  0.08299166  1
  O  O6  1  0.95181640  0.70051355  0.33845362  1
  O  O7  1  0.50008645  0.74010820  0.27961023  1
loop_
_geom_bond_atom_site_label_1
_geom_bond_atom_site_label_2
_geom_bond_distance
_geom_bond_site_symmetry_2
Mg0 O6 1.972388 1_545
Mg0 O5 2.013611 1_556
Mg0 O4 2.057287 1_556
Mg0 O0 2.065465 1_555
Mg0 O3 2.201017 1_545
Mn0 O6 1.955831 1_455
Mn0 O1 1.970621 1_555
Mn0 O4 1.973627 1_555
Mn0 O3 1.978060 1_455
Mn0 O5 2.272446 1_555
Mn0 O2 2.540949 1_455
Mn1 O5 2.009598 1_555
Mn1 O2 2.104239 1_644
Mn1 O0 2.306328 1_555
Mn1 O4 2.344495 1_655
Mn1 O3 2.373404 1_544
Mn2 O2 1.920386 1_554
Mn2 O7 1.931416 1_555
Mn2 O1 1.958172 1_565
Mn2 O4 2.006291 1_565
Mn2 O3 2.113894 1_554
Mn3 O6 1.924970 1_456
Mn3 O1 1.937041 1_555
Mn3 O7 1.981327 1_456
Mn3 O0 1.987619 1_555
Mn3 O3 2.389250 1_455
Mn4 O5 1.918209 1_556
Mn4 O2 1.946738 1_555
Mn4 O7 2.027451 1_556
Mn4 O0 2.053766 1_555
Mn4 O6 2.230252 1_456
Mn4 O1 2.292573 1_655
