# generated using pymatgen
data_Ca4Bi6O13
_symmetry_space_group_name_H-M   'P 1'
_cell_length_a   7.21171055
_cell_length_b   5.94813172
_cell_length_c   9.21890181
_cell_angle_alpha   71.20101719
_cell_angle_beta   90.00000000
_cell_angle_gamma   90.00000000
_symmetry_Int_Tables_number   1
_chemical_formula_structural   Ca4Bi6O13
_chemical_formula_sum   'Ca4 Bi6 O13'
_cell_volume   374.36029298
_cell_formula_units_Z   1
loop_
 _symmetry_equiv_pos_site_id
 _symmetry_equiv_pos_as_xyz
  1  'x, y, z'
loop_
 _atom_site_type_symbol
 _atom_site_label
 _atom_site_symmetry_multiplicity
 _atom_site_fract_x
 _atom_site_fract_y
 _atom_site_fract_z
 _atom_site_occupancy
  Ca  Ca0  1  0.74728347  0.64908726  0.57058606  1
  Ca  Ca1  1  0.25272050  0.21853469  0.43123401  1
  Ca  Ca2  1  0.25271653  0.64908726  0.57058606  1
  Ca  Ca3  1  0.74727950  0.21853469  0.43123401  1
  Bi  Bi0  1  0.00000000  0.88010656  0.22597367  1
  Bi  Bi1  1  0.00000000  0.10443610  0.77578916  1
  Bi  Bi2  1  0.50000000  0.09854163  0.77969447  1
  Bi  Bi3  1  0.50000000  0.87537420  0.22247939  1
  Bi  Bi4  1  0.77135053  0.50721352  0.00111576  1
  Bi  Bi5  1  0.22864947  0.50721352  0.00111576  1
  O  O0  1  0.50000000  0.36435281  0.56426344  1
  O  O1  1  0.50000000  0.92822356  0.43779850  1
  O  O2  1  0.00000000  0.92227541  0.44123037  1
  O  O3  1  0.00000000  0.36315628  0.56113722  1
  O  O4  1  0.74803201  0.94022259  0.69755003  1
  O  O5  1  0.25352274  0.63651522  0.30470467  1
  O  O6  1  0.25196799  0.94022259  0.69755003  1
  O  O7  1  0.74647726  0.63651522  0.30470467  1
  O  O8  1  0.75809066  0.36282836  0.82195750  1
  O  O9  1  0.23772815  0.18351180  0.18008503  1
  O  O10  1  0.24190934  0.36282836  0.82195750  1
  O  O11  1  0.76227185  0.18351180  0.18008503  1
  O  O12  1  0.50000000  0.61790255  0.00516467  1
loop_
_geom_bond_atom_site_label_1
_geom_bond_atom_site_label_2
_geom_bond_distance
_geom_bond_site_symmetry_2
Ca0 O4 2.382266 1_555
Ca0 O8 2.394247 1_555
Ca0 O0 2.472998 1_555
Ca0 O1 2.475000 1_555
Ca0 O7 2.476251 1_555
Ca0 O2 2.476946 1_655
Ca0 O3 2.513406 1_655
Ca1 O5 2.381762 1_555
Ca1 O9 2.393041 1_555
Ca1 O1 2.469487 1_545
Ca1 O0 2.474277 1_555
Ca1 O6 2.479671 1_545
Ca1 O3 2.481891 1_555
Ca1 O2 2.516112 1_545
Ca2 O6 2.382266 1_555
Ca2 O10 2.394247 1_555
Ca2 O0 2.472998 1_555
Ca2 O1 2.475000 1_555
Ca2 O5 2.476251 1_555
Ca2 O2 2.476946 1_555
Ca2 O3 2.513406 1_555
Ca3 O7 2.381762 1_555
Ca3 O11 2.393041 1_555
Ca3 O1 2.469487 1_545
Ca3 O0 2.474277 1_555
Ca3 O4 2.479671 1_545
Ca3 O3 2.481891 1_655
Ca3 O2 2.516112 1_645
Bi0 O2 2.078864 1_555
Bi0 O7 2.300255 1_455
Bi0 O5 2.300255 1_555
Bi0 O9 2.425509 1_565
Bi0 O11 2.425509 1_465
Bi1 O3 2.078803 1_555
Bi1 O4 2.286984 1_445
Bi1 O6 2.286984 1_545
Bi1 O8 2.451232 1_455
Bi1 O10 2.451232 1_555
Bi2 O0 2.102470 1_555
Bi2 O6 2.262624 1_545
Bi2 O4 2.262624 1_545
Bi2 O8 2.546000 1_555
Bi2 O10 2.546000 1_555
Bi3 O1 2.107423 1_555
Bi3 O7 2.249145 1_555
Bi3 O5 2.249145 1_555
Bi3 O11 2.574469 1_565
Bi3 O9 2.574469 1_565
Bi4 O12 2.068859 1_555
Bi4 O11 2.094348 1_555
Bi4 O8 2.094956 1_554
Bi5 O12 2.068859 1_555
Bi5 O9 2.094348 1_555
Bi5 O10 2.094956 1_554
