# generated using pymatgen
data_SrPH3O4
_symmetry_space_group_name_H-M   'P 1'
_cell_length_a   7.15788600
_cell_length_b   7.68841200
_cell_length_c   8.24036883
_cell_angle_alpha   71.52528897
_cell_angle_beta   90.00000000
_cell_angle_gamma   90.00000000
_symmetry_Int_Tables_number   1
_chemical_formula_structural   SrPH3O4
_chemical_formula_sum   'Sr4 P4 H12 O16'
_cell_volume   430.11912188
_cell_formula_units_Z   4
loop_
 _symmetry_equiv_pos_site_id
 _symmetry_equiv_pos_as_xyz
  1  'x, y, z'
loop_
 _atom_site_type_symbol
 _atom_site_label
 _atom_site_symmetry_multiplicity
 _atom_site_fract_x
 _atom_site_fract_y
 _atom_site_fract_z
 _atom_site_occupancy
  Sr  Sr0  1  0.35968500  0.62646600  0.65402500  1
  Sr  Sr1  1  0.85968500  0.37353400  0.84597500  1
  Sr  Sr2  1  0.64031500  0.37353400  0.34597500  1
  Sr  Sr3  1  0.14031500  0.62646600  0.15402500  1
  P  P0  1  0.34882300  0.27214400  0.00501300  1
  P  P1  1  0.84882300  0.72785600  0.49498700  1
  P  P2  1  0.65117700  0.72785600  0.99498700  1
  P  P3  1  0.15117700  0.27214400  0.50501300  1
  H  H0  1  0.26094400  0.11121300  0.99568900  1
  H  H1  1  0.76094400  0.88878700  0.50431100  1
  H  H2  1  0.73905600  0.88878700  0.00431100  1
  H  H3  1  0.23905600  0.11121300  0.49568900  1
  H  H4  1  0.39400300  0.99583800  0.29844400  1
  H  H5  1  0.89400300  0.00416200  0.20155600  1
  H  H6  1  0.60599700  0.00416200  0.70155600  1
  H  H7  1  0.10599700  0.99583800  0.79844400  1
  H  H8  1  0.54700000  0.19189400  0.72766900  1
  H  H9  1  0.04700000  0.80810600  0.77233100  1
  H  H10  1  0.45300000  0.80810600  0.27233100  1
  H  H11  1  0.95300000  0.19189400  0.22766900  1
  O  O0  1  0.20039200  0.42744000  0.95766500  1
  O  O1  1  0.11626700  0.85998600  0.85090900  1
  O  O2  1  0.88373300  0.14001400  0.14909100  1
  O  O3  1  0.38373300  0.85998600  0.35090900  1
  O  O4  1  0.99662400  0.32058500  0.36619400  1
  O  O5  1  0.49662400  0.67941500  0.13380600  1
  O  O6  1  0.00337600  0.67941500  0.63380600  1
  O  O7  1  0.50337600  0.32058500  0.86619400  1
  O  O8  1  0.07782800  0.22774600  0.68826200  1
  O  O9  1  0.57782800  0.77225400  0.81173800  1
  O  O10  1  0.92217200  0.77225400  0.31173800  1
  O  O11  1  0.42217200  0.22774600  0.18826200  1
  O  O12  1  0.79960800  0.57256000  0.04233500  1
  O  O13  1  0.29960800  0.42744000  0.45766500  1
  O  O14  1  0.61626700  0.14001400  0.64909100  1
  O  O15  1  0.70039200  0.57256000  0.54233500  1
loop_
_geom_bond_atom_site_label_1
_geom_bond_atom_site_label_2
_geom_bond_distance
_geom_bond_site_symmetry_2
H0 P0 1.411648 1_556
H1 P1 1.411648 1_555
H2 P2 1.411648 1_554
H3 P3 1.411648 1_555
H4 O3 0.998537 1_555
H4 O11 1.737275 1_565
H5 O2 0.998537 1_555
H5 O10 1.737275 1_545
H6 O14 0.998537 1_555
H6 O9 1.737275 1_545
H7 O1 0.998537 1_555
H7 O8 1.737275 1_565
H8 O14 0.993923 1_555
H9 O1 0.993923 1_555
H10 O3 0.993923 1_555
H11 O2 0.993923 1_555
O0 P0 1.552861 1_556
O0 Sr3 2.591100 1_556
O0 Sr1 2.684783 1_455
O0 Sr0 2.734146 1_555
O1 Sr3 2.578732 1_556
O2 Sr1 2.578732 1_554
O3 Sr0 2.578732 1_555
O4 P3 1.549545 1_655
O4 Sr2 2.579755 1_555
O4 Sr3 2.653189 1_655
O5 P2 1.549545 1_554
O5 Sr3 2.579755 1_555
O5 Sr2 2.653189 1_555
O6 P1 1.549545 1_455
O6 Sr0 2.579755 1_555
O6 Sr1 2.653189 1_455
O7 P0 1.549545 1_556
O7 Sr1 2.579755 1_555
O7 Sr0 2.653189 1_555
O8 P3 1.531571 1_555
O8 Sr1 2.511312 1_455
O9 P2 1.531571 1_555
O9 Sr0 2.511312 1_555
O10 P1 1.531571 1_555
O10 Sr3 2.511312 1_655
O11 P0 1.531571 1_555
O11 Sr2 2.511312 1_555
O12 P2 1.552861 1_554
O12 Sr1 2.591100 1_554
O12 Sr3 2.684783 1_655
O12 Sr2 2.734146 1_555
O13 P3 1.552861 1_555
O13 Sr0 2.591100 1_555
O13 Sr2 2.684783 1_555
O13 Sr3 2.734146 1_555
O14 Sr2 2.578732 1_555
O15 P1 1.552861 1_555
O15 Sr2 2.591100 1_555
O15 Sr0 2.684783 1_555
O15 Sr1 2.734146 1_555
