# generated using pymatgen
data_Na10Mg4Zn4SiS11O48
_symmetry_space_group_name_H-M   'P 1'
_cell_length_a   17.83881262
_cell_length_b   8.91431180
_cell_length_c   22.07832868
_cell_angle_alpha   89.88443292
_cell_angle_beta   89.81460726
_cell_angle_gamma   120.07197326
_symmetry_Int_Tables_number   1
_chemical_formula_structural   Na10Mg4Zn4SiS11O48
_chemical_formula_sum   'Na30 Mg12 Zn12 Si3 S33 O144'
_cell_volume   3038.28877295
_cell_formula_units_Z   3
loop_
 _symmetry_equiv_pos_site_id
 _symmetry_equiv_pos_as_xyz
  1  'x, y, z'
loop_
 _atom_site_type_symbol
 _atom_site_label
 _atom_site_symmetry_multiplicity
 _atom_site_fract_x
 _atom_site_fract_y
 _atom_site_fract_z
 _atom_site_occupancy
  Na  Na0  1  0.81689367  0.98996623  0.24454215  1
  Na  Na1  1  0.68296427  0.37023188  0.25026406  1
  Na  Na2  1  0.99542042  0.64531059  0.25386274  1
  Na  Na3  1  0.49851477  0.62940035  0.25131538  1
  Na  Na4  1  0.31839745  0.65095085  0.74408077  1
  Na  Na5  1  0.81773986  0.65009517  0.74400885  1
  Na  Na6  1  0.99286241  0.34980605  0.75555287  1
  Na  Na7  1  0.49266907  0.34921359  0.75570810  1
  Na  Na8  1  0.18410513  0.00003515  0.75015808  1
  Na  Na9  1  0.68381502  0.99906094  0.75037728  1
  Na  Na10  1  0.33554887  0.97014286  0.58998240  1
  Na  Na11  1  0.83434114  0.96892723  0.59296656  1
  Na  Na12  1  0.15377038  0.97402845  0.08415090  1
  Na  Na13  1  0.83677337  0.70403882  0.09293334  1
  Na  Na14  1  0.35067032  0.03081555  0.91046077  1
  Na  Na15  1  0.84940398  0.02948137  0.90708514  1
  Na  Na16  1  0.16676535  0.02894884  0.41496860  1
  Na  Na17  1  0.85124447  0.67280658  0.40786687  1
  Na  Na18  1  0.00905185  0.02425332  0.50157014  1
  Na  Na19  1  0.50980267  0.99564528  0.49957354  1
  Na  Na20  1  0.01055693  0.02417958  0.99862204  1
  Na  Na21  1  0.50867672  0.99418818  0.00038620  1
  Na  Na22  1  0.33329668  0.34036019  0.83450360  1
  Na  Na23  1  0.83212542  0.33865949  0.83377014  1
  Na  Na24  1  0.33455108  0.33881640  0.33368459  1
  Na  Na25  1  0.83193310  0.32568241  0.33368551  1
  Na  Na26  1  0.18250037  0.65032873  0.16717376  1
  Na  Na27  1  0.66015531  0.66167475  0.16585637  1
  Na  Na28  1  0.16339342  0.66055116  0.66601642  1
  Na  Na29  1  0.66173714  0.65938243  0.66584680  1
  Mg  Mg0  1  0.49628961  0.99768804  0.35269973  1
  Mg  Mg1  1  0.49527916  0.99585211  0.14650676  1
  Mg  Mg2  1  0.33204830  0.33271309  0.18238374  1
  Mg  Mg3  1  0.33657680  0.34262052  0.98497343  1
  Mg  Mg4  1  0.83162719  0.33482687  0.98358263  1
  Mg  Mg5  1  0.33717599  0.34274519  0.48167880  1
  Mg  Mg6  1  0.83124150  0.32760703  0.48442509  1
  Mg  Mg7  1  0.16721845  0.65969309  0.01660094  1
  Mg  Mg8  1  0.66019605  0.66614554  0.01777390  1
  Mg  Mg9  1  0.16702436  0.65567681  0.51628476  1
  Mg  Mg10  1  0.66125907  0.66048024  0.51487053  1
  Mg  Mg11  1  0.17196305  0.66584132  0.31752968  1
  Zn  Zn0  1  0.99881518  0.99948423  0.34337765  1
  Zn  Zn1  1  0.99807872  0.00476897  0.84710988  1
  Zn  Zn2  1  0.49789971  0.00619380  0.84711629  1
  Zn  Zn3  1  0.99577868  0.99429927  0.65271292  1
  Zn  Zn4  1  0.49530865  0.99460834  0.65263882  1
  Zn  Zn5  1  0.99797424  0.01088872  0.15725374  1
  Zn  Zn6  1  0.33566428  0.32656009  0.67808280  1
  Zn  Zn7  1  0.83461106  0.32391730  0.67829855  1
  Zn  Zn8  1  0.83470776  0.34631924  0.17954013  1
  Zn  Zn9  1  0.67003182  0.66648640  0.32072702  1
  Zn  Zn10  1  0.17268864  0.67328801  0.82201160  1
  Zn  Zn11  1  0.67124309  0.67380181  0.82197653  1
  Si  Si0  1  0.84819568  0.69849428  0.25046253  1
  Si  Si1  1  0.34744362  0.00029469  0.75004047  1
  Si  Si2  1  0.84755628  0.99930867  0.75022545  1
  S  S0  1  0.15440166  0.00166660  0.25062729  1
  S  S1  1  0.64305388  0.99914656  0.24920920  1
  S  S2  1  0.35221325  0.70287279  0.25001580  1
  S  S3  1  0.00468091  0.30721573  0.25021962  1
  S  S4  1  0.49482554  0.28597013  0.24949441  1
  S  S5  1  0.14763215  0.29402124  0.74919869  1
  S  S6  1  0.64800095  0.29462519  0.74908070  1
  S  S7  1  0.00032107  0.70570446  0.75065692  1
  S  S8  1  0.50046878  0.70555745  0.75073487  1
  S  S9  1  0.48507253  0.33727429  0.58309385  1
  S  S10  1  0.98523953  0.33842504  0.58357565  1
  S  S11  1  0.18065964  0.02965474  0.58073716  1
  S  S12  1  0.68028872  0.02848052  0.58359380  1
  S  S13  1  0.33261192  0.62757208  0.58355107  1
  S  S14  1  0.83257848  0.62969005  0.58115543  1
  S  S15  1  0.48302403  0.63321851  0.08627630  1
  S  S16  1  0.98590543  0.63063535  0.08288567  1
  S  S17  1  0.33318149  0.03553555  0.08010782  1
  S  S18  1  0.83307770  0.03741669  0.08220051  1
  S  S19  1  0.18436065  0.33136031  0.08477386  1
  S  S20  1  0.68141189  0.33334065  0.08315913  1
  S  S21  1  0.31731939  0.66270309  0.91653099  1
  S  S22  1  0.81643046  0.66352901  0.91942612  1
  S  S23  1  0.01813568  0.37257384  0.91636858  1
  S  S24  1  0.51840843  0.37186124  0.91635862  1
  S  S25  1  0.16614482  0.97109666  0.91896570  1
  S  S26  1  0.66603511  0.97024125  0.91675501  1
  S  S27  1  0.31565228  0.96388704  0.41976600  1
  S  S28  1  0.81693992  0.97133773  0.41838452  1
  S  S29  1  0.16647838  0.36575954  0.41574246  1
  S  S30  1  0.66659092  0.36299925  0.41688056  1
  S  S31  1  0.01925054  0.66329814  0.41644925  1
  S  S32  1  0.51751800  0.66658784  0.41319453  1
  O  O0  1  0.11467964  0.02368996  0.30724319  1
  O  O1  1  0.60292834  0.02472882  0.30383688  1
  O  O2  1  0.40646891  0.78882281  0.30369711  1
  O  O3  1  0.90950093  0.78218136  0.31076419  1
  O  O4  1  0.48894324  0.19022174  0.30563670  1
  O  O5  1  0.99533282  0.20297450  0.30472266  1
  O  O6  1  0.11166697  0.18308050  0.80387824  1
  O  O7  1  0.61240582  0.18380246  0.80367744  1
  O  O8  1  0.49302069  0.79058391  0.80588314  1
  O  O9  1  0.99219343  0.78980352  0.80583419  1
  O  O10  1  0.40826319  0.03917890  0.81052501  1
  O  O11  1  0.90848472  0.03770279  0.81073447  1
  O  O12  1  0.38896343  0.96091458  0.68919487  1
  O  O13  1  0.88937781  0.96089102  0.68930018  1
  O  O14  1  0.09722126  0.20961140  0.69424447  1
  O  O15  1  0.59759935  0.21038053  0.69415714  1
  O  O16  1  0.02024859  0.81692706  0.69621906  1
  O  O17  1  0.51968270  0.81584251  0.69618031  1
  O  O18  1  0.39296842  0.80266814  0.19402773  1
  O  O19  1  0.89247306  0.82125356  0.18968672  1
  O  O20  1  0.02112067  0.23721104  0.19423620  1
  O  O21  1  0.50422520  0.19997332  0.19551378  1
  O  O22  1  0.09929327  0.97741348  0.19625256  1
  O  O23  1  0.59351534  0.98801310  0.19447762  1
  O  O24  1  0.45100771  0.35424990  0.64345099  1
  O  O25  1  0.95045961  0.35450561  0.64374435  1
  O  O26  1  0.23213386  0.11149285  0.63704139  1
  O  O27  1  0.72836339  0.10113752  0.64191956  1
  O  O28  1  0.32782060  0.53995655  0.64248524  1
  O  O29  1  0.82784963  0.53484189  0.63821055  1
  O  O30  1  0.44374374  0.54017316  0.14442853  1
  O  O31  1  0.95037286  0.54552300  0.14292127  1
  O  O32  1  0.32123154  0.12890350  0.13153308  1
  O  O33  1  0.82771599  0.12120717  0.13955849  1
  O  O34  1  0.23460177  0.35106623  0.14065727  1
  O  O35  1  0.72990218  0.35698786  0.14152017  1
  O  O36  1  0.22734098  0.30655813  0.03116787  1
  O  O37  1  0.73013954  0.31837117  0.03181792  1
  O  O38  1  0.42892077  0.53697377  0.03399929  1
  O  O39  1  0.92759216  0.52904608  0.03349187  1
  O  O40  1  0.34053600  0.12886039  0.02227229  1
  O  O41  1  0.83470308  0.13487436  0.02771708  1
  O  O42  1  0.22575805  0.13296179  0.52598049  1
  O  O43  1  0.72945123  0.14100341  0.53205667  1
  O  O44  1  0.33285492  0.52579004  0.53167349  1
  O  O45  1  0.83441581  0.53602791  0.52669085  1
  O  O46  1  0.42483153  0.32038698  0.53441817  1
  O  O47  1  0.92584186  0.32324586  0.53453463  1
  O  O48  1  0.26567638  0.67999352  0.96554123  1
  O  O49  1  0.76765303  0.67759696  0.97157206  1
  O  O50  1  0.06987688  0.47336854  0.96816779  1
  O  O51  1  0.57048693  0.47300903  0.96792265  1
  O  O52  1  0.15957770  0.86756315  0.97358285  1
  O  O53  1  0.66017318  0.86033257  0.96849478  1
  O  O54  1  0.27600460  0.86835787  0.47735025  1
  O  O55  1  0.76897648  0.86001623  0.47093574  1
  O  O56  1  0.15976364  0.44904549  0.47137049  1
  O  O57  1  0.66008650  0.46157306  0.46793293  1
  O  O58  1  0.07420058  0.67181344  0.46741625  1
  O  O59  1  0.57245200  0.68145697  0.46515955  1
  O  O60  1  0.05751885  0.65238140  0.35776398  1
  O  O61  1  0.55626954  0.64947139  0.35459303  1
  O  O62  1  0.25720738  0.87170900  0.36803701  1
  O  O63  1  0.77031502  0.89482257  0.36025578  1
  O  O64  1  0.17282331  0.46531305  0.36074387  1
  O  O65  1  0.67862995  0.45949276  0.35818113  1
  O  O66  1  0.05738282  0.46076565  0.85743016  1
  O  O67  1  0.55741705  0.45986048  0.85723401  1
  O  O68  1  0.17597720  0.88817849  0.86263033  1
  O  O69  1  0.67702813  0.89634438  0.85839516  1
  O  O70  1  0.27411784  0.64377746  0.85653822  1
  O  O71  1  0.77056519  0.64743542  0.86093969  1
  O  O72  1  0.01412204  0.82642546  0.41869348  1
  O  O73  1  0.50842456  0.82337098  0.41116599  1
  O  O74  1  0.40266489  0.98496668  0.41298427  1
  O  O75  1  0.90309711  0.98111412  0.41775095  1
  O  O76  1  0.08902819  0.18588549  0.41322806  1
  O  O77  1  0.58966813  0.18828840  0.41407171  1
  O  O78  1  0.00966702  0.19712973  0.91828120  1
  O  O79  1  0.50962380  0.19642297  0.91840985  1
  O  O80  1  0.08908740  0.99179387  0.91543444  1
  O  O81  1  0.58929722  0.99153238  0.91448407  1
  O  O82  1  0.40373122  0.82516692  0.91705702  1
  O  O83  1  0.90262583  0.82699554  0.91918035  1
  O  O84  1  0.49048928  0.17520349  0.58206435  1
  O  O85  1  0.98966274  0.17529614  0.58257662  1
  O  O86  1  0.09327434  0.00938729  0.58476859  1
  O  O87  1  0.59278875  0.00707834  0.58637970  1
  O  O88  1  0.41171590  0.80288932  0.58102745  1
  O  O89  1  0.91171837  0.80540735  0.57999458  1
  O  O90  1  0.49243336  0.80899837  0.08713304  1
  O  O91  1  0.99414224  0.80644440  0.08161404  1
  O  O92  1  0.40988415  0.01504070  0.08644661  1
  O  O93  1  0.91249962  0.02130547  0.08123225  1
  O  O94  1  0.09718960  0.16805177  0.08846684  1
  O  O95  1  0.59370896  0.18043400  0.08662492  1
  O  O96  1  0.33720742  0.17364366  0.74455959  1
  O  O97  1  0.83796918  0.17352584  0.74522845  1
  O  O98  1  0.23868741  0.33249814  0.74422667  1
  O  O99  1  0.73939480  0.33438815  0.74393006  1
  O  O100  1  0.41771515  0.53772779  0.74574245  1
  O  O101  1  0.91727305  0.53844324  0.74492569  1
  O  O102  1  0.34608211  0.52839396  0.24707052  1
  O  O103  1  0.83762059  0.50466279  0.24552818  1
  O  O104  1  0.41839369  0.31168011  0.24558456  1
  O  O105  1  0.92136696  0.30966472  0.24645065  1
  O  O106  1  0.24179351  0.15420734  0.24403347  1
  O  O107  1  0.73424290  0.14702590  0.24624438  1
  O  O108  1  0.32779408  0.50957919  0.92401378  1
  O  O109  1  0.82821689  0.51117658  0.92448415  1
  O  O110  1  0.42865721  0.34584968  0.91870232  1
  O  O111  1  0.92788335  0.34404035  0.91892622  1
  O  O112  1  0.24763230  0.14350091  0.92134550  1
  O  O113  1  0.74771228  0.14279177  0.92055342  1
  O  O114  1  0.32136182  0.13745205  0.42163931  1
  O  O115  1  0.82839696  0.14736923  0.42357648  1
  O  O116  1  0.24418718  0.34193866  0.41802716  1
  O  O117  1  0.74767875  0.35253554  0.42129459  1
  O  O118  1  0.42996770  0.50950134  0.41803450  1
  O  O119  1  0.92876460  0.51417911  0.42115233  1
  O  O120  1  0.17290474  0.48422750  0.07817557  1
  O  O121  1  0.67698397  0.49600100  0.07835184  1
  O  O122  1  0.07460454  0.65662525  0.07725698  1
  O  O123  1  0.57088207  0.65220668  0.08217361  1
  O  O124  1  0.25230942  0.86055070  0.07888557  1
  O  O125  1  0.75657053  0.85739372  0.08101891  1
  O  O126  1  0.17536569  0.85660724  0.57812072  1
  O  O127  1  0.67571736  0.85668014  0.57858934  1
  O  O128  1  0.25596422  0.65431282  0.58207039  1
  O  O129  1  0.75590011  0.65586100  0.58000857  1
  O  O130  1  0.07286369  0.49075999  0.57691435  1
  O  O131  1  0.57218462  0.49099103  0.57590967  1
  O  O132  1  0.15882891  0.83935528  0.25492050  1
  O  O133  1  0.64796523  0.83666211  0.25210874  1
  O  O134  1  0.26390840  0.67933339  0.25585612  1
  O  O135  1  0.75200244  0.68248556  0.25511697  1
  O  O136  1  0.07643830  0.48917756  0.25614030  1
  O  O137  1  0.57392892  0.46374720  0.25064081  1
  O  O138  1  0.14886520  0.46183867  0.75469684  1
  O  O139  1  0.64948640  0.46260397  0.75472339  1
  O  O140  1  0.07183831  0.66694791  0.75551345  1
  O  O141  1  0.57224878  0.66699708  0.75508598  1
  O  O142  1  0.25029576  0.82557058  0.75549072  1
  O  O143  1  0.75085935  0.82411873  0.75545311  1
loop_
_geom_bond_atom_site_label_1
_geom_bond_atom_site_label_2
_geom_bond_distance
_geom_bond_site_symmetry_2
Na0 O135 2.392348 1_555
Na0 O107 2.490797 1_565
Na0 O105 2.505018 1_565
Na0 O33 2.557009 1_565
Na0 O133 2.616337 1_555
Na0 O63 2.684740 1_555
Na0 O19 2.752336 1_555
Na1 O103 2.396403 1_555
Na1 O135 2.417181 1_555
Na1 O137 2.470458 1_555
Na1 O65 2.526687 1_555
Na1 O35 2.562515 1_555
Na1 O107 2.574472 1_555
Na2 O103 2.448897 1_555
Na2 O136 2.458572 1_655
Na2 O132 2.537181 1_655
Na2 O60 2.537802 1_655
Na2 O31 2.596490 1_555
Na2 O105 2.601243 1_555
Na2 O3 2.698880 1_555
Na2 O22 2.878830 1_655
Na3 O133 2.363381 1_555
Na3 O102 2.400401 1_555
Na3 O137 2.445712 1_555
Na3 O104 2.454843 1_555
Na3 O61 2.474853 1_555
Na3 O30 2.529821 1_555
Na4 O142 2.420155 1_555
Na4 O100 2.439540 1_555
Na4 O98 2.456665 1_555
Na4 O28 2.492340 1_555
Na4 O70 2.593979 1_555
Na4 O138 2.631998 1_555
Na4 O12 2.679300 1_555
Na5 O143 2.397551 1_555
Na5 O101 2.432042 1_555
Na5 O99 2.435536 1_555
Na5 O29 2.595558 1_555
Na5 O139 2.612368 1_555
Na5 O13 2.682569 1_555
Na5 O71 2.709115 1_555
Na6 O97 2.410430 1_555
Na6 O138 2.440609 1_655
Na6 O140 2.446573 1_655
Na6 O66 2.499432 1_655
Na6 O25 2.590571 1_555
Na6 O101 2.640803 1_555
Na6 O11 2.695939 1_555
Na7 O96 2.420156 1_555
Na7 O141 2.451495 1_555
Na7 O139 2.452255 1_555
Na7 O67 2.493055 1_555
Na7 O24 2.596530 1_555
Na7 O100 2.629155 1_555
Na7 O10 2.678518 1_555
Na8 O96 2.372909 1_555
Na8 O142 2.380613 1_545
Na8 O98 2.618062 1_555
Na8 O140 2.622750 1_545
Na8 O68 2.650349 1_545
Na8 O26 2.661092 1_555
Na8 O6 2.801795 1_555
Na8 O16 2.806303 1_545
Na9 O97 2.388505 1_565
Na9 O143 2.396730 1_555
Na9 O69 2.533539 1_555
Na9 O27 2.539226 1_565
Na9 O141 2.612930 1_555
Na9 O99 2.639292 1_565
Na9 O7 2.796449 1_565
Na9 O17 2.812504 1_555
Na10 O12 2.409166 1_555
Na10 O84 2.437960 1_565
Na10 O128 2.443449 1_555
Na10 O88 2.477463 1_555
Na10 O126 2.523031 1_555
Na10 O54 2.682477 1_555
Na10 O26 2.897055 1_565
Na10 O46 2.962781 1_565
Na11 O13 2.361370 1_555
Na11 O129 2.433203 1_555
Na11 O85 2.449464 1_565
Na11 O89 2.475407 1_555
Na11 O127 2.505695 1_555
Na11 O27 2.890684 1_565
Na12 O94 2.401846 1_565
Na12 O124 2.430621 1_555
Na12 O122 2.453950 1_555
Na12 O91 2.466108 1_455
Na12 O52 2.641392 1_554
Na12 O22 2.661795 1_555
Na12 O32 2.795932 1_565
Na12 O36 2.820459 1_565
Na13 O19 2.371598 1_555
Na13 O125 2.438466 1_555
Na13 O93 2.460959 1_565
Na13 O91 2.490554 1_555
Na13 O121 2.525587 1_555
Na13 O35 2.901535 1_555
Na14 O10 2.416041 1_555
Na14 O110 2.437918 1_555
Na14 O82 2.452885 1_545
Na14 O79 2.461627 1_555
Na14 O112 2.508749 1_555
Na14 O40 2.656082 1_556
Na14 O68 2.915306 1_545
Na14 O48 2.962888 1_545
Na15 O11 2.355597 1_555
Na15 O83 2.438840 1_545
Na15 O111 2.441777 1_555
Na15 O78 2.488392 1_655
Na15 O113 2.496710 1_555
Na15 O41 2.880517 1_556
Na15 O69 2.896344 1_545
Na16 O72 2.398330 1_545
Na16 O76 2.413720 1_555
Na16 O116 2.415819 1_555
Na16 O114 2.427496 1_555
Na16 O0 2.548212 1_555
Na16 O42 2.649970 1_555
Na16 O62 2.811186 1_545
Na16 O58 2.984506 1_545
Na17 O3 2.363995 1_555
Na17 O75 2.431595 1_555
Na17 O119 2.441017 1_555
Na17 O117 2.521726 1_555
Na17 O72 2.528415 1_655
Na17 O45 2.841543 1_555
Na17 O65 2.909153 1_555
Na18 O85 2.367205 1_455
Na18 O76 2.413761 1_555
Na18 O86 2.421860 1_555
Na18 O89 2.528026 1_445
Na18 O75 2.538136 1_445
Na18 O72 2.576430 1_545
Na19 O87 2.396444 1_565
Na19 O77 2.461700 1_565
Na19 O73 2.478597 1_555
Na19 O88 2.490445 1_555
Na19 O84 2.560877 1_565
Na19 O74 2.675558 1_555
Na20 O78 2.353126 1_555
Na20 O80 2.410373 1_545
Na20 O94 2.451878 1_556
Na20 O93 2.514218 1_456
Na20 O83 2.552577 1_445
Na20 O91 2.573534 1_446
Na21 O81 2.383811 1_554
Na21 O90 2.445728 1_555
Na21 O95 2.488003 1_565
Na21 O82 2.523155 1_554
Na21 O79 2.546011 1_564
Na21 O92 2.656827 1_565
Na22 O96 2.504379 1_555
Na22 O110 2.507860 1_555
Na22 O108 2.519879 1_555
Na22 O112 2.524057 1_555
Na22 O100 2.552531 1_555
Na22 O98 2.594185 1_555
Na23 O97 2.482606 1_555
Na23 O113 2.514000 1_555
Na23 O111 2.528655 1_555
Na23 O109 2.549540 1_555
Na23 O101 2.565567 1_555
Na23 O99 2.574996 1_555
Na24 O116 2.468318 1_555
Na24 O118 2.473245 1_555
Na24 O102 2.488204 1_555
Na24 O104 2.534674 1_555
Na24 O114 2.570632 1_555
Na24 O106 2.582511 1_555
Na25 O103 2.483583 1_555
Na25 O115 2.520991 1_555
Na25 O117 2.530078 1_555
Na25 O105 2.546501 1_555
Na25 O107 2.559900 1_555
Na25 O119 2.581147 1_555
Na26 O134 2.377719 1_555
Na26 O120 2.417141 1_555
Na26 O124 2.548137 1_555
Na26 O136 2.596595 1_555
Na26 O132 2.737112 1_555
Na26 O122 2.789510 1_555
Na27 O123 2.416976 1_555
Na27 O137 2.496249 1_555
Na27 O135 2.514046 1_555
Na27 O121 2.540824 1_555
Na27 O133 2.540903 1_555
Na27 O125 2.543464 1_555
Na28 O142 2.493126 1_555
Na28 O128 2.497549 1_555
Na28 O130 2.520285 1_555
Na28 O126 2.544708 1_555
Na28 O138 2.561454 1_555
Na28 O140 2.578365 1_555
Na29 O143 2.508048 1_555
Na29 O131 2.525371 1_555
Na29 O127 2.531901 1_555
Na29 O129 2.539034 1_555
Na29 O141 2.554147 1_555
Na29 O139 2.564050 1_555
Mg0 O2 2.057678 1_555
Mg0 O4 2.064376 1_565
Mg0 O1 2.089697 1_565
Mg0 O74 2.090211 1_555
Mg0 O73 2.111542 1_555
Mg0 O77 2.164508 1_565
Mg1 O21 2.055521 1_565
Mg1 O18 2.056184 1_555
Mg1 O23 2.081349 1_555
Mg1 O92 2.093200 1_565
Mg1 O90 2.102362 1_555
Mg1 O95 2.149229 1_565
Mg2 O34 2.047446 1_555
Mg2 O32 2.063207 1_555
Mg2 O30 2.093449 1_555
Mg2 O106 2.094397 1_555
Mg2 O104 2.158010 1_555
Mg2 O102 2.172527 1_555
Mg3 O38 2.011410 1_556
Mg3 O108 2.068340 1_555
Mg3 O36 2.073341 1_556
Mg3 O40 2.107861 1_556
Mg3 O110 2.185565 1_555
Mg3 O112 2.200828 1_555
Mg4 O37 2.038138 1_556
Mg4 O39 2.047416 1_556
Mg4 O41 2.054492 1_556
Mg4 O109 2.065327 1_555
Mg4 O113 2.136061 1_555
Mg4 O111 2.198923 1_555
Mg5 O44 2.004891 1_555
Mg5 O46 2.040536 1_555
Mg5 O118 2.105885 1_555
Mg5 O42 2.158552 1_555
Mg5 O114 2.163472 1_555
Mg5 O116 2.174812 1_555
Mg6 O43 2.030680 1_555
Mg6 O47 2.037400 1_555
Mg6 O45 2.056159 1_555
Mg6 O115 2.077573 1_555
Mg6 O117 2.135028 1_555
Mg6 O119 2.195302 1_555
Mg7 O50 2.011527 1_554
Mg7 O48 2.014016 1_554
Mg7 O120 2.111004 1_555
Mg7 O122 2.112800 1_555
Mg7 O52 2.145034 1_554
Mg7 O124 2.168108 1_555
Mg8 O51 1.998595 1_554
Mg8 O53 2.042883 1_554
Mg8 O123 2.088481 1_555
Mg8 O49 2.125156 1_554
Mg8 O121 2.151406 1_555
Mg8 O125 2.213533 1_555
Mg9 O56 2.040120 1_555
Mg9 O58 2.043607 1_555
Mg9 O130 2.068164 1_555
Mg9 O54 2.098006 1_555
Mg9 O128 2.158966 1_555
Mg9 O126 2.199619 1_555
Mg10 O59 2.014097 1_555
Mg10 O57 2.046632 1_555
Mg10 O131 2.048343 1_555
Mg10 O55 2.086329 1_555
Mg10 O127 2.159809 1_555
Mg10 O129 2.237272 1_555
Mg11 O64 2.031417 1_555
Mg11 O62 2.036229 1_555
Mg11 O134 2.084702 1_555
Mg11 O136 2.134257 1_555
Mg11 O60 2.171117 1_555
Mg11 O132 2.171355 1_555
O0 S0 1.495922 1_555
O0 Zn0 2.120546 1_445
O1 S1 1.475847 1_545
O2 S2 1.482021 1_555
O3 Si0 1.649500 1_555
O3 Zn0 1.931154 1_555
O4 S4 1.476851 1_555
O5 S3 1.475875 1_655
O5 Zn0 2.032179 1_545
O6 S5 1.483702 1_555
O6 Zn1 2.072914 1_455
O7 S6 1.481127 1_555
O7 Zn2 2.083038 1_555
O8 S8 1.475890 1_555
O8 Zn2 2.090548 1_565
O9 S7 1.476004 1_655
O9 Zn1 2.078369 1_565
O10 Si1 1.647697 1_555
O10 Zn2 1.942819 1_555
O11 Si2 1.649739 1_545
O11 Zn1 1.939890 1_555
O12 Si1 1.653026 1_565
O12 Zn4 1.938705 1_555
O13 Si2 1.653679 1_555
O13 Zn3 1.940740 1_555
O14 S5 1.476339 1_555
O14 Zn3 2.082408 1_445
O15 S6 1.475419 1_555
O15 Zn4 2.090485 1_545
O16 S7 1.480930 1_555
O16 Zn3 2.074008 1_455
O17 S8 1.479731 1_555
O17 Zn4 2.084131 1_555
O18 S2 1.479709 1_555
O19 Si0 1.656166 1_555
O19 Zn5 1.926241 1_565
O20 S3 1.478971 1_555
O20 Zn5 2.020271 1_455
O21 S4 1.472210 1_555
O22 S0 1.500019 1_565
O22 Zn5 2.155623 1_465
O23 S1 1.473253 1_555
O24 S9 1.501893 1_555
O24 Zn6 2.087894 1_555
O25 S10 1.501586 1_555
O25 Zn7 2.086008 1_555
O26 S11 1.503459 1_555
O26 Zn6 2.092104 1_555
O27 S12 1.505683 1_555
O27 Zn7 2.103666 1_555
O28 S13 1.496207 1_555
O28 Zn6 2.125413 1_555
O29 S14 1.494099 1_555
O29 Zn7 2.134127 1_555
O30 S15 1.494923 1_555
O31 S16 1.497626 1_555
O31 Zn8 2.091833 1_555
O32 S17 1.485711 1_555
O33 S18 1.498458 1_555
O33 Zn8 2.139793 1_555
O34 S19 1.485480 1_555
O35 S20 1.509475 1_555
O35 Zn8 2.096932 1_555
O36 S19 1.484100 1_555
O37 S20 1.472670 1_555
O38 S15 1.476851 1_555
O39 S16 1.469253 1_555
O40 S17 1.491666 1_555
O41 S18 1.474072 1_555
O42 S11 1.484438 1_555
O43 S12 1.475573 1_555
O44 S13 1.463973 1_555
O45 S14 1.474918 1_555
O46 S9 1.475947 1_555
O47 S10 1.475700 1_555
O48 S21 1.476430 1_555
O49 S22 1.483844 1_555
O50 S23 1.465270 1_555
O51 S24 1.464116 1_555
O52 S25 1.485211 1_555
O53 S26 1.472350 1_555
O54 S27 1.492645 1_555
O55 S28 1.483582 1_555
O56 S29 1.471673 1_555
O57 S30 1.470172 1_555
O58 S31 1.471658 1_555
O59 S32 1.473737 1_555
O60 S31 1.488498 1_555
O61 S32 1.508590 1_555
O61 Zn9 2.093254 1_555
O62 S27 1.489794 1_555
O63 S28 1.498662 1_555
O63 Zn9 2.114966 1_555
O64 S29 1.472734 1_555
O65 S30 1.508034 1_555
O65 Zn9 2.095331 1_555
O66 S23 1.496623 1_555
O66 Zn10 2.123637 1_555
O67 S24 1.498841 1_555
O67 Zn11 2.114005 1_555
O68 S25 1.502119 1_555
O68 Zn10 2.090898 1_555
O69 S26 1.504608 1_555
O69 Zn11 2.096302 1_555
O70 S21 1.501332 1_555
O70 Zn10 2.099826 1_555
O71 S22 1.499121 1_555
O71 Zn11 2.088273 1_555
O72 S31 1.503002 1_555
O72 Zn0 2.373667 1_455
O73 S32 1.486152 1_555
O74 S27 1.474155 1_555
O75 S28 1.495193 1_555
O75 Zn0 2.310671 1_555
O76 S29 1.504557 1_555
O76 Zn0 2.252933 1_445
O77 S30 1.473622 1_555
O78 S23 1.494489 1_555
O78 Zn1 2.260529 1_455
O79 S24 1.492141 1_555
O79 Zn2 2.248206 1_555
O80 S25 1.478000 1_555
O80 Zn1 2.264502 1_465
O81 S26 1.474192 1_555
O81 Zn2 2.261877 1_565
O82 S21 1.495532 1_555
O82 Zn2 2.250987 1_565
O83 S22 1.497381 1_555
O83 Zn1 2.282692 1_565
O84 S9 1.495721 1_555
O84 Zn4 2.270781 1_545
O85 S10 1.495482 1_555
O85 Zn3 2.276054 1_545
O86 S11 1.478974 1_555
O86 Zn3 2.245238 1_445
O87 S12 1.475623 1_555
O87 Zn4 2.228327 1_545
O88 S13 1.491915 1_555
O88 Zn4 2.261932 1_555
O89 S14 1.493568 1_555
O89 Zn3 2.271029 1_555
O90 S15 1.490113 1_555
O91 S16 1.499187 1_555
O91 Zn5 2.450136 1_565
O92 S17 1.475408 1_555
O93 S18 1.494030 1_555
O93 Zn5 2.304014 1_555
O94 S19 1.507998 1_555
O94 Zn5 2.211507 1_455
O95 S20 1.474155 1_555
O96 Si1 1.648658 1_555
O96 Zn6 2.010684 1_555
O97 Si2 1.648915 1_545
O97 Zn7 2.014338 1_555
O98 S5 1.486087 1_555
O98 Zn6 2.281202 1_555
O99 S6 1.488665 1_555
O99 Zn7 2.266489 1_555
O100 S8 1.489302 1_555
O100 Zn6 2.276308 1_555
O101 S7 1.490699 1_655
O101 Zn7 2.279191 1_555
O102 S2 1.505092 1_555
O103 Si0 1.645366 1_555
O103 Zn8 2.013195 1_555
O104 S4 1.494266 1_555
O105 S3 1.499855 1_655
O105 Zn8 2.279901 1_555
O106 S0 1.474402 1_555
O107 S1 1.496036 1_545
O107 Zn8 2.306186 1_555
O108 S21 1.476591 1_555
O109 S22 1.478808 1_555
O110 S24 1.499061 1_555
O111 S23 1.499639 1_655
O112 S25 1.496562 1_545
O113 S26 1.500401 1_545
O114 S27 1.499436 1_545
O115 S28 1.482149 1_545
O116 S29 1.504888 1_555
O117 S30 1.498895 1_555
O118 S32 1.489315 1_555
O119 S31 1.493760 1_655
O120 S19 1.482711 1_555
O121 S20 1.494736 1_555
O122 S16 1.484580 1_455
O123 S15 1.492108 1_555
O124 S17 1.503448 1_565
O125 S18 1.498035 1_565
O126 S11 1.498755 1_565
O127 S12 1.496622 1_565
O128 S13 1.501436 1_555
O129 S14 1.498697 1_555
O130 S10 1.476296 1_455
O131 S9 1.476882 1_555
O132 S0 1.490885 1_565
O133 S1 1.495521 1_555
O133 Zn9 2.311804 1_555
O134 S2 1.486403 1_555
O135 Si0 1.651931 1_555
O135 Zn9 2.008314 1_555
O136 S3 1.485874 1_555
O137 S4 1.504193 1_555
O137 Zn9 2.350124 1_555
O138 S5 1.490281 1_555
O138 Zn10 2.270445 1_555
O139 S6 1.489793 1_555
O139 Zn11 2.276531 1_555
O140 S7 1.483557 1_555
O140 Zn10 2.304522 1_555
O141 S8 1.486189 1_555
O141 Zn11 2.283231 1_555
O142 Si1 1.654243 1_565
O142 Zn10 2.002940 1_555
O143 Si2 1.651050 1_555
O143 Zn11 2.010257 1_555
