# generated using pymatgen
data_AuSe
_symmetry_space_group_name_H-M   'P 1'
_cell_length_a   3.69376625
_cell_length_b   4.76700439
_cell_length_c   6.35935424
_cell_angle_alpha   103.42217303
_cell_angle_beta   89.99999966
_cell_angle_gamma   112.79470698
_symmetry_Int_Tables_number   1
_chemical_formula_structural   AuSe
_chemical_formula_sum   'Au2 Se2'
_cell_volume   99.90537762
_cell_formula_units_Z   2
loop_
 _symmetry_equiv_pos_site_id
 _symmetry_equiv_pos_as_xyz
  1  'x, y, z'
loop_
 _atom_site_type_symbol
 _atom_site_label
 _atom_site_symmetry_multiplicity
 _atom_site_fract_x
 _atom_site_fract_y
 _atom_site_fract_z
 _atom_site_occupancy
  Au  Au0  1  0.50000000  0.00000000  0.50000000  1
  Au  Au1  1  0.00000000  0.00000000  0.00000000  1
  Se  Se0  1  0.85080061  0.70160221  0.27314411  1
  Se  Se1  1  0.14919939  0.29839779  0.72685589  1
loop_
_geom_bond_atom_site_label_1
_geom_bond_atom_site_label_2
_geom_bond_distance
_geom_bond_site_symmetry_2
Au0 Se1 2.501843 1_555
Au0 Se0 2.501843 1_545
Au0 Se1 2.501846 1_655
Au0 Se0 2.501846 1_445
Au1 Se0 2.425698 1_445
Au1 Se1 2.425698 1_554
