# generated using pymatgen
data_KBa4Bi3O
_symmetry_space_group_name_H-M   'P 1'
_cell_length_a   10.68837479
_cell_length_b   10.68837479
_cell_length_c   10.68837479
_cell_angle_alpha   129.43681824
_cell_angle_beta   129.43681824
_cell_angle_gamma   74.30872282
_symmetry_Int_Tables_number   1
_chemical_formula_structural   KBa4Bi3O
_chemical_formula_sum   'K2 Ba8 Bi6 O2'
_cell_volume   709.98999259
_cell_formula_units_Z   2
loop_
 _symmetry_equiv_pos_site_id
 _symmetry_equiv_pos_as_xyz
  1  'x, y, z'
loop_
 _atom_site_type_symbol
 _atom_site_label
 _atom_site_symmetry_multiplicity
 _atom_site_fract_x
 _atom_site_fract_y
 _atom_site_fract_z
 _atom_site_occupancy
  K  K0  1  0.00000000  0.00000000  0.00000000  1
  K  K1  1  0.50000000  0.50000000  0.00000000  1
  Ba  Ba0  1  0.49987400  0.99987400  0.80998600  1
  Ba  Ba1  1  0.99987400  0.18988800  0.50000000  1
  Ba  Ba2  1  0.18988800  0.68988800  0.19001400  1
  Ba  Ba3  1  0.50012600  0.00012600  0.19001400  1
  Ba  Ba4  1  0.68988800  0.49987400  0.50000000  1
  Ba  Ba5  1  0.81011200  0.31011200  0.80998600  1
  Ba  Ba6  1  0.31011200  0.50012600  0.50000000  1
  Ba  Ba7  1  0.00012600  0.81011200  0.50000000  1
  Bi  Bi0  1  0.37955700  0.12044300  0.50000000  1
  Bi  Bi1  1  0.87955700  0.37955700  0.25911400  1
  Bi  Bi2  1  0.25000000  0.25000000  0.00000000  1
  Bi  Bi3  1  0.75000000  0.75000000  0.00000000  1
  Bi  Bi4  1  0.12044300  0.62044300  0.74088600  1
  Bi  Bi5  1  0.62044300  0.87955700  0.50000000  1
  O  O0  1  0.25000000  0.75000000  0.50000000  1
  O  O1  1  0.75000000  0.25000000  0.50000000  1
loop_
_geom_bond_atom_site_label_1
_geom_bond_atom_site_label_2
_geom_bond_distance
_geom_bond_site_symmetry_2
Ba0 O0 2.572455 1_555
Ba0 Bi5 3.661559 1_555
Ba0 Bi0 3.661559 1_565
Ba0 Bi2 3.812587 1_566
Ba0 Bi3 3.812587 1_556
Ba0 Bi1 3.923080 1_566
Ba1 O1 2.572455 1_555
Ba1 Bi1 3.661559 1_555
Ba1 Bi4 3.661559 1_655
Ba1 Bi2 3.812587 1_656
Ba1 Bi3 3.812587 1_545
Ba1 Bi0 3.923080 1_655
Ba2 O0 2.572455 1_555
Ba2 Bi5 3.661559 1_555
Ba2 Bi0 3.661559 1_565
Ba2 Bi2 3.812587 1_555
Ba2 Bi3 3.812587 1_455
Ba2 Bi4 3.923080 1_554
Ba3 O1 2.572455 1_555
Ba3 Bi0 3.661559 1_555
Ba3 Bi5 3.661559 1_545
Ba3 Bi2 3.812587 1_555
Ba3 Bi3 3.812587 1_545
Ba3 Bi4 3.923080 1_544
Ba4 O1 2.572455 1_555
Ba4 Bi1 3.661559 1_555
Ba4 Bi4 3.661559 1_655
Ba4 Bi3 3.812587 1_556
Ba4 Bi2 3.812587 1_555
Ba4 Bi5 3.923080 1_555
Ba5 O1 2.572455 1_555
Ba5 Bi5 3.661559 1_545
Ba5 Bi0 3.661559 1_555
Ba5 Bi2 3.812587 1_656
Ba5 Bi3 3.812587 1_556
Ba5 Bi1 3.923080 1_556
Ba6 O0 2.572455 1_555
Ba6 Bi1 3.661559 1_455
Ba6 Bi4 3.661559 1_555
Ba6 Bi3 3.812587 1_556
Ba6 Bi2 3.812587 1_555
Ba6 Bi0 3.923080 1_555
Ba7 O0 2.572455 1_555
Ba7 Bi1 3.661559 1_455
Ba7 Bi4 3.661559 1_555
Ba7 Bi3 3.812587 1_455
Ba7 Bi2 3.812587 1_566
Ba7 Bi5 3.923080 1_455
Bi0 Bi5 3.110030 1_545
Bi0 K0 3.635370 1_555
Bi0 K1 3.635370 1_556
Bi1 Bi4 3.110030 1_655
Bi1 K0 3.635370 1_655
Bi1 K1 3.635370 1_555
Bi4 K1 3.635370 1_556
Bi4 K0 3.635370 1_566
Bi5 K1 3.635370 1_555
Bi5 K0 3.635370 1_666
