# generated using pymatgen
data_Ba2MgNb4O12
_symmetry_space_group_name_H-M   'P 1'
_cell_length_a   4.05723022
_cell_length_b   6.33850685
_cell_length_c   11.32772045
_cell_angle_alpha   87.30487708
_cell_angle_beta   89.99480290
_cell_angle_gamma   90.00164389
_symmetry_Int_Tables_number   1
_chemical_formula_structural   Ba2MgNb4O12
_chemical_formula_sum   'Ba2 Mg1 Nb4 O12'
_cell_volume   290.99028460
_cell_formula_units_Z   1
loop_
 _symmetry_equiv_pos_site_id
 _symmetry_equiv_pos_as_xyz
  1  'x, y, z'
loop_
 _atom_site_type_symbol
 _atom_site_label
 _atom_site_symmetry_multiplicity
 _atom_site_fract_x
 _atom_site_fract_y
 _atom_site_fract_z
 _atom_site_occupancy
  Ba  Ba0  1  0.00002090  0.36672205  0.82671694  1
  Ba  Ba1  1  0.99996233  0.64018133  0.16531201  1
  Mg  Mg0  1  0.00000332  0.50353376  0.49596934  1
  Nb  Nb0  1  0.49994104  0.20484703  0.07678444  1
  Nb  Nb1  1  0.49999095  0.19987910  0.40617502  1
  Nb  Nb2  1  0.50003250  0.80586664  0.58863564  1
  Nb  Nb3  1  0.50003455  0.80203893  0.91669392  1
  O  O0  1  0.00002937  0.24823019  0.40982778  1
  O  O1  1  0.50019978  0.90713267  0.39791642  1
  O  O2  1  0.50001064  0.89361607  0.10038664  1
  O  O3  1  0.00001223  0.22479366  0.06998614  1
  O  O4  1  0.49982768  0.09748716  0.59906961  1
  O  O5  1  0.99998708  0.75415941  0.58571601  1
  O  O6  1  0.99996879  0.78251434  0.92305093  1
  O  O7  1  0.50004893  0.31652638  0.23899598  1
  O  O8  1  0.49999787  0.50356974  0.99746839  1
  O  O9  1  0.49997939  0.11288817  0.89286809  1
  O  O10  1  0.49994343  0.68589016  0.75573666  1
  O  O11  1  0.50000921  0.50220521  0.49643703  1
loop_
_geom_bond_atom_site_label_1
_geom_bond_atom_site_label_2
_geom_bond_distance
_geom_bond_site_symmetry_2
Ba0 O9 2.674292 1_555
Ba0 O9 2.674375 1_455
Ba0 O3 2.858316 1_556
Ba0 O6 2.899509 1_455
Ba0 O10 2.949528 1_555
Ba0 O10 2.950141 1_455
Ba0 O8 2.960820 1_455
Ba0 O8 2.960898 1_555
Ba1 O2 2.669316 1_555
Ba1 O2 2.669442 1_655
Ba1 O6 2.848173 1_554
Ba1 O3 2.892362 1_655
Ba1 O8 2.938501 1_654
Ba1 O8 2.938505 1_554
Ba1 O7 2.976165 1_555
Ba1 O7 2.976828 1_655
Mg0 O5 1.925885 1_455
Mg0 O0 1.928567 1_555
Mg0 O11 2.028614 1_455
Mg0 O11 2.028663 1_555
Nb0 O2 1.978277 1_545
Nb0 O7 1.999944 1_555
Nb0 O3 2.033507 1_555
Nb0 O3 2.034062 1_655
Nb0 O8 2.057289 1_554
Nb0 O9 2.189592 1_554
Nb1 O1 1.862320 1_545
Nb1 O7 2.000327 1_555
Nb1 O0 2.052193 1_555
Nb1 O0 2.052492 1_655
Nb1 O11 2.214020 1_555
Nb1 O4 2.249960 1_555
Nb2 O4 1.857752 1_565
Nb2 O10 2.006468 1_555
Nb2 O5 2.055259 1_555
Nb2 O5 2.055610 1_455
Nb2 O1 2.224631 1_555
Nb2 O11 2.232604 1_555
Nb3 O9 1.976106 1_565
Nb3 O10 1.998146 1_555
Nb3 O6 2.033200 1_555
Nb3 O6 2.033712 1_455
Nb3 O8 2.062404 1_555
Nb3 O2 2.186398 1_556
