# generated using pymatgen
data_BiSCl
_symmetry_space_group_name_H-M   'P 1'
_cell_length_a   3.99549575
_cell_length_b   7.82798702
_cell_length_c   10.39470827
_cell_angle_alpha   90.00000000
_cell_angle_beta   90.00000000
_cell_angle_gamma   90.00000000
_symmetry_Int_Tables_number   1
_chemical_formula_structural   BiSCl
_chemical_formula_sum   'Bi4 S4 Cl4'
_cell_volume   325.11205645
_cell_formula_units_Z   4
loop_
 _symmetry_equiv_pos_site_id
 _symmetry_equiv_pos_as_xyz
  1  'x, y, z'
loop_
 _atom_site_type_symbol
 _atom_site_label
 _atom_site_symmetry_multiplicity
 _atom_site_fract_x
 _atom_site_fract_y
 _atom_site_fract_z
 _atom_site_occupancy
  Bi  Bi0  1  0.25000000  0.62934991  0.63233234  1
  Bi  Bi1  1  0.75000000  0.37065109  0.36766766  1
  Bi  Bi2  1  0.25000000  0.12934991  0.86766766  1
  Bi  Bi3  1  0.75000000  0.87065009  0.13233234  1
  S  S0  1  0.75000000  0.68155494  0.45874672  1
  S  S1  1  0.25000000  0.81844506  0.95874672  1
  S  S2  1  0.75000000  0.18155494  0.04125328  1
  S  S3  1  0.25000000  0.31844506  0.54125328  1
  Cl  Cl0  1  0.25000000  0.52807867  0.20365448  1
  Cl  Cl1  1  0.75000000  0.97192133  0.70365448  1
  Cl  Cl2  1  0.25000000  0.02807867  0.29634552  1
  Cl  Cl3  1  0.75000000  0.47192133  0.79634552  1
loop_
_geom_bond_atom_site_label_1
_geom_bond_atom_site_label_2
_geom_bond_distance
_geom_bond_site_symmetry_2
Bi0 S3 2.611417 1_555
Bi0 S0 2.722822 1_455
Bi0 S0 2.722822 1_555
Bi0 Cl3 2.901079 1_455
Bi0 Cl3 2.901079 1_555
Bi1 S0 2.611410 1_555
Bi1 S3 2.722823 1_655
Bi1 S3 2.722823 1_555
Bi1 Cl0 2.901076 1_555
Bi1 Cl0 2.901076 1_655
Bi2 S1 2.611417 1_545
Bi2 S2 2.722822 1_456
Bi2 S2 2.722822 1_556
Bi2 Cl1 2.901079 1_445
Bi2 Cl1 2.901079 1_545
Bi3 S2 2.611417 1_565
Bi3 S1 2.722822 1_554
Bi3 S1 2.722822 1_654
Bi3 Cl2 2.901079 1_565
Bi3 Cl2 2.901079 1_665
