# generated using pymatgen
data_AlGa(SO4)3
_symmetry_space_group_name_H-M   'P 1'
_cell_length_a   8.35252294
_cell_length_b   8.35252270
_cell_length_c   21.64453889
_cell_angle_alpha   90.00000000
_cell_angle_beta   90.00000000
_cell_angle_gamma   120.00000097
_symmetry_Int_Tables_number   1
_chemical_formula_structural   AlGa(SO4)3
_chemical_formula_sum   'Al6 Ga6 S18 O72'
_cell_volume   1307.71861882
_cell_formula_units_Z   6
loop_
 _symmetry_equiv_pos_site_id
 _symmetry_equiv_pos_as_xyz
  1  'x, y, z'
loop_
 _atom_site_type_symbol
 _atom_site_label
 _atom_site_symmetry_multiplicity
 _atom_site_fract_x
 _atom_site_fract_y
 _atom_site_fract_z
 _atom_site_occupancy
  Al  Al0  1  0.00000000  0.00000000  0.85429936  1
  Al  Al1  1  0.66666700  0.33333300  0.97903364  1
  Al  Al2  1  0.33333300  0.66666700  0.02004060  1
  Al  Al3  1  0.33333300  0.66666700  0.52034265  1
  Al  Al4  1  0.33333300  0.66666700  0.31299135  1
  Al  Al5  1  0.33333300  0.66666700  0.81329340  1
  Ga  Ga0  1  0.00000000  0.00000000  0.35388270  1
  Ga  Ga1  1  0.00000000  0.00000000  0.64687428  1
  Ga  Ga2  1  0.00000000  0.00000000  0.14630564  1
  Ga  Ga3  1  0.66666700  0.33333300  0.68702736  1
  Ga  Ga4  1  0.66666700  0.33333300  0.18645872  1
  Ga  Ga5  1  0.66666700  0.33333300  0.47945030  1
  S  S0  1  0.29136354  0.99791591  0.25041420  1
  S  S1  1  0.70655237  0.70863646  0.25041420  1
  S  S2  1  0.00208409  0.29344763  0.25041420  1
  S  S3  1  0.28913289  0.29122861  0.75123652  1
  S  S4  1  0.00209572  0.71086711  0.75123652  1
  S  S5  1  0.70877139  0.99790428  0.75123652  1
  S  S6  1  0.96011463  0.33541709  0.58291880  1
  S  S7  1  0.37530346  0.03988537  0.58291880  1
  S  S8  1  0.66458291  0.62469654  0.58291880  1
  S  S9  1  0.95789561  0.62246589  0.08209648  1
  S  S10  1  0.66457128  0.04210439  0.08209648  1
  S  S11  1  0.37753411  0.33542872  0.08209648  1
  S  S12  1  0.62252118  0.66666700  0.91666700  1
  S  S13  1  0.04414482  0.37747882  0.91666700  1
  S  S14  1  0.33333300  0.95585518  0.91666700  1
  S  S15  1  0.62013209  0.95346609  0.41666700  1
  S  S16  1  0.33333300  0.37986791  0.41666700  1
  S  S17  1  0.04653391  0.66666700  0.41666700  1
  O  O0  1  0.21135498  0.03631865  0.30545555  1
  O  O1  1  0.82496366  0.78864502  0.30545555  1
  O  O2  1  0.96368135  0.17503634  0.30545555  1
  O  O3  1  0.20347279  0.17088421  0.80564285  1
  O  O4  1  0.96741143  0.79652721  0.80564285  1
  O  O5  1  0.82911579  0.03258857  0.80564285  1
  O  O6  1  0.78633822  0.96157977  0.69498947  1
  O  O7  1  0.17524156  0.21366178  0.69498947  1
  O  O8  1  0.03842022  0.82475844  0.69498947  1
  O  O9  1  0.78620144  0.82493331  0.19473428  1
  O  O10  1  0.03873187  0.21379856  0.19473428  1
  O  O11  1  0.17506669  0.96126813  0.19473428  1
  O  O12  1  0.88046556  0.37206487  0.63859872  1
  O  O13  1  0.49160031  0.11953444  0.63859872  1
  O  O14  1  0.62793513  0.50839969  0.63859872  1
  O  O15  1  0.88032878  0.50857456  0.13834353  1
  O  O16  1  0.62824677  0.11967122  0.13834353  1
  O  O17  1  0.49142544  0.37175323  0.13834353  1
  O  O18  1  0.46319421  0.30074443  0.02769015  1
  O  O19  1  0.83755121  0.53680579  0.02769015  1
  O  O20  1  0.69925557  0.16244879  0.02769015  1
  O  O21  1  0.45531202  0.15829666  0.52787745  1
  O  O22  1  0.70298565  0.54468798  0.52787745  1
  O  O23  1  0.84170334  0.29701435  0.52787745  1
  O  O24  1  0.53901860  0.70116859  0.97180550  1
  O  O25  1  0.16214900  0.46098140  0.97180550  1
  O  O26  1  0.29883141  0.83785100  0.97180550  1
  O  O27  1  0.53665265  0.83740776  0.47212545  1
  O  O28  1  0.30075411  0.46334735  0.47212545  1
  O  O29  1  0.16259224  0.69924589  0.47212545  1
  O  O30  1  0.13001335  0.63408811  0.36120855  1
  O  O31  1  0.50407376  0.86998665  0.36120855  1
  O  O32  1  0.36591189  0.49592624  0.36120855  1
  O  O33  1  0.12764740  0.49548300  0.86152850  1
  O  O34  1  0.36783459  0.87235260  0.86152850  1
  O  O35  1  0.50451700  0.63216541  0.86152850  1
  O  O36  1  0.02773111  0.83140186  0.40942532  1
  O  O37  1  0.80367074  0.97226889  0.40942532  1
  O  O38  1  0.16859814  0.19632926  0.40942532  1
  O  O39  1  0.02537251  0.19410917  0.90721265  1
  O  O40  1  0.16873666  0.97462749  0.90721265  1
  O  O41  1  0.80589083  0.83126334  0.90721265  1
  O  O42  1  0.97683657  0.16995341  0.59099541  1
  O  O43  1  0.19311684  0.02316344  0.59099541  1
  O  O44  1  0.83004659  0.80688316  0.59099541  1
  O  O45  1  0.97460873  0.80499505  0.09002822  1
  O  O46  1  0.83038632  0.02539127  0.09002822  1
  O  O47  1  0.19500495  0.16961368  0.09002822  1
  O  O48  1  0.69205827  0.16371932  0.74330478  1
  O  O49  1  0.47166205  0.30794173  0.74330478  1
  O  O50  1  0.83628068  0.52833795  0.74330478  1
  O  O51  1  0.68983044  0.52644984  0.24233759  1
  O  O52  1  0.83662041  0.31016956  0.24233759  1
  O  O53  1  0.47355016  0.16337959  0.24233759  1
  O  O54  1  0.64129449  0.50206966  0.92612035  1
  O  O55  1  0.86077617  0.35870551  0.92612035  1
  O  O56  1  0.49793034  0.13922383  0.92612035  1
  O  O57  1  0.63893589  0.13700374  0.42390768  1
  O  O58  1  0.49806886  0.36106411  0.42390768  1
  O  O59  1  0.86299626  0.50193114  0.42390768  1
  O  O60  1  0.35846135  0.49957133  0.07286593  1
  O  O61  1  0.14110898  0.64153865  0.07286593  1
  O  O62  1  0.50042867  0.85889102  0.07286593  1
  O  O63  1  0.35786912  0.85767813  0.57354047  1
  O  O64  1  0.49980802  0.64213088  0.57354047  1
  O  O65  1  0.14232187  0.50019198  0.57354047  1
  O  O66  1  0.30879688  0.83314202  0.25979353  1
  O  O67  1  0.52434413  0.69120312  0.25979353  1
  O  O68  1  0.16685798  0.47565587  0.25979353  1
  O  O69  1  0.30820465  0.47444298  0.76046807  1
  O  O70  1  0.16623733  0.69179535  0.76046807  1
  O  O71  1  0.52555702  0.83376267  0.76046807  1
loop_
_geom_bond_atom_site_label_1
_geom_bond_atom_site_label_2
_geom_bond_distance
_geom_bond_site_symmetry_2
Al0 O5 1.899723 1_455
Al0 O3 1.899723 1_555
Al0 O4 1.899723 1_445
Al0 O39 1.908301 1_555
Al0 O41 1.908301 1_445
Al0 O40 1.908301 1_545
Al1 O20 1.899723 1_556
Al1 O19 1.899723 1_556
Al1 O18 1.899723 1_556
Al1 O56 1.908301 1_555
Al1 O54 1.908301 1_555
Al1 O55 1.908301 1_555
Al2 O62 1.895309 1_555
Al2 O60 1.895309 1_555
Al2 O61 1.895309 1_555
Al2 O26 1.905113 1_554
Al2 O25 1.905113 1_554
Al2 O24 1.905113 1_554
Al3 O28 1.893437 1_555
Al3 O27 1.893437 1_555
Al3 O29 1.893438 1_555
Al3 O63 1.893736 1_555
Al3 O65 1.893736 1_555
Al3 O64 1.893736 1_555
Al4 O31 1.893437 1_555
Al4 O32 1.893437 1_555
Al4 O30 1.893438 1_555
Al4 O68 1.893736 1_555
Al4 O67 1.893736 1_555
Al4 O66 1.893736 1_555
Al5 O69 1.895309 1_555
Al5 O71 1.895309 1_555
Al5 O70 1.895309 1_555
Al5 O35 1.905113 1_555
Al5 O33 1.905113 1_555
Al5 O34 1.905113 1_555
Ga0 O1 1.942071 1_445
Ga0 O0 1.942071 1_555
Ga0 O2 1.942071 1_455
Ga0 O36 1.951457 1_545
Ga0 O38 1.951457 1_555
Ga0 O37 1.951457 1_445
Ga1 O44 1.946790 1_445
Ga1 O42 1.946790 1_455
Ga1 O43 1.946790 1_555
Ga1 O7 1.949286 1_555
Ga1 O8 1.949286 1_545
Ga1 O6 1.949286 1_445
Ga2 O10 1.953109 1_555
Ga2 O9 1.953109 1_445
Ga2 O11 1.953109 1_545
Ga2 O45 1.958633 1_445
Ga2 O47 1.958633 1_555
Ga2 O46 1.958633 1_455
Ga3 O13 1.953109 1_555
Ga3 O14 1.953109 1_555
Ga3 O12 1.953109 1_555
Ga3 O50 1.958633 1_555
Ga3 O48 1.958633 1_555
Ga3 O49 1.958633 1_555
Ga4 O51 1.946790 1_555
Ga4 O53 1.946790 1_555
Ga4 O52 1.946790 1_555
Ga4 O16 1.949286 1_555
Ga4 O15 1.949286 1_555
Ga4 O17 1.949286 1_555
Ga5 O22 1.942071 1_555
Ga5 O21 1.942071 1_555
Ga5 O23 1.942071 1_555
Ga5 O58 1.951457 1_555
Ga5 O59 1.951457 1_555
Ga5 O57 1.951457 1_555
O0 S0 1.477543 1_545
O1 S1 1.477543 1_555
O2 S2 1.477543 1_655
O3 S3 1.479815 1_555
O4 S4 1.479815 1_655
O5 S5 1.479815 1_545
O6 S5 1.480044 1_555
O7 S3 1.480044 1_555
O8 S4 1.480044 1_555
O9 S1 1.480658 1_555
O10 S2 1.480658 1_555
O11 S0 1.480658 1_555
O12 S6 1.480658 1_555
O13 S7 1.480658 1_555
O14 S8 1.480658 1_555
O15 S9 1.480044 1_555
O16 S10 1.480044 1_555
O17 S11 1.480044 1_555
O18 S11 1.479815 1_555
O19 S9 1.479815 1_555
O20 S10 1.479815 1_555
O21 S7 1.477543 1_555
O22 S8 1.477543 1_555
O23 S6 1.477543 1_555
O24 S12 1.481485 1_555
O25 S13 1.481485 1_555
O26 S14 1.481485 1_555
O27 S15 1.480154 1_555
O28 S16 1.480154 1_555
O29 S17 1.480154 1_555
O30 S17 1.480154 1_555
O31 S15 1.480154 1_555
O32 S16 1.480154 1_555
O33 S13 1.481485 1_555
O34 S14 1.481485 1_555
O35 S12 1.481485 1_555
O36 S17 1.469207 1_555
O37 S15 1.469216 1_555
O38 S16 1.469212 1_555
O39 S13 1.473807 1_555
O40 S14 1.473799 1_555
O41 S12 1.473804 1_555
O42 S6 1.467355 1_555
O43 S7 1.467363 1_555
O44 S8 1.467360 1_555
O45 S9 1.469856 1_555
O46 S10 1.469847 1_555
O47 S11 1.469852 1_555
O48 S5 1.469847 1_545
O49 S3 1.469856 1_555
O50 S4 1.469852 1_655
O51 S1 1.467363 1_555
O52 S2 1.467355 1_655
O53 S0 1.467360 1_545
O54 S12 1.473809 1_555
O55 S13 1.473793 1_655
O56 S14 1.473799 1_545
O57 S15 1.469202 1_545
O58 S16 1.469218 1_555
O59 S17 1.469209 1_655
O60 S11 1.470836 1_555
O61 S9 1.470819 1_455
O62 S10 1.470826 1_565
O63 S7 1.468653 1_565
O64 S8 1.468669 1_555
O65 S6 1.468660 1_455
O66 S0 1.468659 1_555
O67 S1 1.468668 1_555
O68 S2 1.468664 1_555
O69 S3 1.470834 1_555
O70 S4 1.470826 1_555
O71 S5 1.470831 1_555
