# generated using pymatgen
data_SrH2
_symmetry_space_group_name_H-M   'P 1'
_cell_length_a   4.12151687
_cell_length_b   4.12151647
_cell_length_c   5.67663340
_cell_angle_alpha   90.00000000
_cell_angle_beta   90.00000000
_cell_angle_gamma   119.99998630
_symmetry_Int_Tables_number   1
_chemical_formula_structural   SrH2
_chemical_formula_sum   'Sr2 H4'
_cell_volume   83.50945734
_cell_formula_units_Z   2
loop_
 _symmetry_equiv_pos_site_id
 _symmetry_equiv_pos_as_xyz
  1  'x, y, z'
loop_
 _atom_site_type_symbol
 _atom_site_label
 _atom_site_symmetry_multiplicity
 _atom_site_fract_x
 _atom_site_fract_y
 _atom_site_fract_z
 _atom_site_occupancy
  Sr  Sr0  1  0.66666700  0.33333300  0.75000000  1
  Sr  Sr1  1  0.33333300  0.66666700  0.25000000  1
  H  H0  1  0.66666700  0.33333300  0.25000000  1
  H  H1  1  0.33333300  0.66666700  0.75000000  1
  H  H2  1  0.00000000  0.00000000  0.00000000  1
  H  H3  1  0.00000000  0.00000000  0.50000000  1
loop_
_geom_bond_atom_site_label_1
_geom_bond_atom_site_label_2
_geom_bond_distance
_geom_bond_site_symmetry_2
H0 Sr1 2.379557 1_545
H0 Sr1 2.379557 1_655
H0 Sr1 2.379563 1_555
H0 Sr0 2.838317 1_555
H0 Sr0 2.838317 1_554
H1 Sr0 2.379557 1_565
H1 Sr0 2.379557 1_455
H1 Sr0 2.379563 1_555
H1 Sr1 2.838317 1_555
H1 Sr1 2.838317 1_556
H2 Sr1 2.770613 1_545
H2 Sr0 2.770613 1_454
H2 Sr0 2.770617 1_444
H2 Sr1 2.770617 1_555
H2 Sr1 2.770617 1_445
H2 Sr0 2.770617 1_554
H3 Sr1 2.770613 1_545
H3 Sr0 2.770613 1_455
H3 Sr0 2.770617 1_445
H3 Sr1 2.770617 1_555
H3 Sr1 2.770617 1_445
H3 Sr0 2.770617 1_555
