# generated using pymatgen
data_Na3Mg2Ti2P3(SO8)3
_symmetry_space_group_name_H-M   'P 1'
_cell_length_a   8.68445512
_cell_length_b   8.65721625
_cell_length_c   22.40323933
_cell_angle_alpha   90.11688282
_cell_angle_beta   89.87891544
_cell_angle_gamma   119.93121422
_symmetry_Int_Tables_number   1
_chemical_formula_structural   Na3Mg2Ti2P3(SO8)3
_chemical_formula_sum   'Na9 Mg6 Ti6 P9 S9 O72'
_cell_volume   1459.69340785
_cell_formula_units_Z   3
loop_
 _symmetry_equiv_pos_site_id
 _symmetry_equiv_pos_as_xyz
  1  'x, y, z'
loop_
 _atom_site_type_symbol
 _atom_site_label
 _atom_site_symmetry_multiplicity
 _atom_site_fract_x
 _atom_site_fract_y
 _atom_site_fract_z
 _atom_site_occupancy
  Na  Na0  1  0.66519451  0.69257558  0.08267156  1
  Na  Na1  1  0.33293845  0.29969154  0.91729175  1
  Na  Na2  1  0.33278702  0.03299595  0.41710162  1
  Na  Na3  1  0.99257750  0.99990768  0.50060702  1
  Na  Na4  1  0.00209157  0.99801585  0.00021417  1
  Na  Na5  1  0.67774218  0.33513482  0.83227540  1
  Na  Na6  1  0.67650357  0.34119988  0.33186717  1
  Na  Na7  1  0.32047782  0.66185205  0.16405749  1
  Na  Na8  1  0.33411446  0.67049897  0.66308192  1
  Mg  Mg0  1  0.99413978  0.99962169  0.34923849  1
  Mg  Mg1  1  0.99359453  0.99494969  0.84894550  1
  Mg  Mg2  1  0.67210953  0.33616770  0.98361095  1
  Mg  Mg3  1  0.66919123  0.33636341  0.48322222  1
  Mg  Mg4  1  0.32207393  0.66276764  0.02135526  1
  Mg  Mg5  1  0.33416216  0.66946945  0.52132735  1
  Ti  Ti0  1  0.00783744  0.99891963  0.65014831  1
  Ti  Ti1  1  0.01558872  0.00625802  0.15057117  1
  Ti  Ti2  1  0.65777569  0.32129422  0.68723606  1
  Ti  Ti3  1  0.67157369  0.34561988  0.18689718  1
  Ti  Ti4  1  0.33228037  0.66267199  0.30772346  1
  Ti  Ti5  1  0.33238417  0.67074914  0.80740717  1
  P  P0  1  0.29571784  0.00433239  0.25265557  1
  P  P1  1  0.71285388  0.71313787  0.25021149  1
  P  P2  1  0.99535425  0.28688490  0.25088738  1
  P  P3  1  0.29071662  0.28932309  0.75192907  1
  P  P4  1  0.99414590  0.70603165  0.75072723  1
  P  P5  1  0.71437511  0.00121567  0.75025631  1
  P  P6  1  0.37365177  0.04128164  0.58208471  1
  P  P7  1  0.95931793  0.62602657  0.08363432  1
  P  P8  1  0.37433912  0.32969595  0.08223947  1
  S  S0  1  0.95592799  0.33070869  0.58404023  1
  S  S1  1  0.66867020  0.62445533  0.58424619  1
  S  S2  1  0.66914069  0.04530190  0.08390003  1
  S  S3  1  0.62522453  0.67075091  0.91681774  1
  S  S4  1  0.04211565  0.37700714  0.91579910  1
  S  S5  1  0.33310175  0.95535933  0.91639320  1
  S  S6  1  0.62516742  0.95442174  0.41656056  1
  S  S7  1  0.33260762  0.37836730  0.41670413  1
  S  S8  1  0.04227801  0.66443548  0.41642479  1
  O  O0  1  0.22074192  0.03551949  0.30929855  1
  O  O1  1  0.82201897  0.78602676  0.30564866  1
  O  O2  1  0.96394443  0.18012401  0.30666472  1
  O  O3  1  0.22108661  0.18486678  0.80909221  1
  O  O4  1  0.96261483  0.78269879  0.80636779  1
  O  O5  1  0.82074275  0.03783175  0.80642217  1
  O  O6  1  0.79789404  0.96814244  0.69414976  1
  O  O7  1  0.17064905  0.20151715  0.69638132  1
  O  O8  1  0.03157229  0.82815874  0.69474852  1
  O  O9  1  0.79043904  0.82355829  0.19239485  1
  O  O10  1  0.03090717  0.20183717  0.19480016  1
  O  O11  1  0.17218755  0.96911866  0.19692782  1
  O  O12  1  0.86947927  0.35676485  0.63777381  1
  O  O13  1  0.49534143  0.14405271  0.63719558  1
  O  O14  1  0.64613124  0.51401025  0.63780585  1
  O  O15  1  0.86163232  0.50667403  0.13936363  1
  O  O16  1  0.64297262  0.12848859  0.13763748  1
  O  O17  1  0.49749550  0.35563879  0.13681100  1
  O  O18  1  0.44412245  0.29344548  0.02445514  1
  O  O19  1  0.83998683  0.55151288  0.02922168  1
  O  O20  1  0.69888219  0.15050276  0.02976116  1
  O  O21  1  0.44624264  0.15045631  0.52523681  1
  O  O22  1  0.70148546  0.55026124  0.53000040  1
  O  O23  1  0.84957518  0.30128174  0.53007203  1
  O  O24  1  0.54404514  0.69241490  0.97201719  1
  O  O25  1  0.15399862  0.45721541  0.96898583  1
  O  O26  1  0.30950823  0.84884971  0.96984302  1
  O  O27  1  0.54152018  0.84831695  0.47028804  1
  O  O28  1  0.30876181  0.46134854  0.47033327  1
  O  O29  1  0.15410076  0.69543734  0.46956222  1
  O  O30  1  0.13131293  0.64200820  0.36188726  1
  O  O31  1  0.50816765  0.86748837  0.36258523  1
  O  O32  1  0.35476349  0.48929413  0.36222277  1
  O  O33  1  0.13184741  0.48916494  0.86155969  1
  O  O34  1  0.35454832  0.86570278  0.86181587  1
  O  O35  1  0.50699152  0.64255987  0.86366847  1
  O  O36  1  0.02819142  0.82821013  0.41023612  1
  O  O37  1  0.80211230  0.97446267  0.41025826  1
  O  O38  1  0.17530625  0.19699249  0.41105975  1
  O  O39  1  0.02837328  0.19921216  0.90965669  1
  O  O40  1  0.17542783  0.97868237  0.91078854  1
  O  O41  1  0.80213991  0.82809593  0.91053941  1
  O  O42  1  0.97211468  0.16728042  0.59195359  1
  O  O43  1  0.18758187  0.02602223  0.59440184  1
  O  O44  1  0.83029161  0.80594456  0.59204078  1
  O  O45  1  0.97086424  0.81163345  0.09450973  1
  O  O46  1  0.82914433  0.02179849  0.09061885  1
  O  O47  1  0.18661878  0.16383224  0.09344610  1
  O  O48  1  0.68473987  0.16269541  0.73921147  1
  O  O49  1  0.47926497  0.31710907  0.73966382  1
  O  O50  1  0.83627403  0.51903612  0.73805855  1
  O  O51  1  0.68260744  0.52100496  0.24067541  1
  O  O52  1  0.83572943  0.31470180  0.23925365  1
  O  O53  1  0.48074929  0.16327634  0.23943405  1
  O  O54  1  0.63517626  0.50345304  0.91921339  1
  O  O55  1  0.86586940  0.36065482  0.92033287  1
  O  O56  1  0.49463360  0.13507966  0.91897492  1
  O  O57  1  0.63620449  0.13232104  0.42010836  1
  O  O58  1  0.49413432  0.35980042  0.41936335  1
  O  O59  1  0.86581374  0.50411218  0.42096988  1
  O  O60  1  0.36359774  0.50142620  0.08028135  1
  O  O61  1  0.14273599  0.64664359  0.08104172  1
  O  O62  1  0.51208090  0.86340080  0.07894434  1
  O  O63  1  0.35430148  0.85682421  0.58137039  1
  O  O64  1  0.50868666  0.64167829  0.57975788  1
  O  O65  1  0.13436988  0.48915309  0.57964697  1
  O  O66  1  0.31065306  0.83154838  0.25778243  1
  O  O67  1  0.52131221  0.68854899  0.25787637  1
  O  O68  1  0.16620469  0.47709196  0.25728667  1
  O  O69  1  0.31153126  0.47933787  0.75767468  1
  O  O70  1  0.16637278  0.68932566  0.75721668  1
  O  O71  1  0.52256658  0.83382287  0.75765544  1
loop_
_geom_bond_atom_site_label_1
_geom_bond_atom_site_label_2
_geom_bond_distance
_geom_bond_site_symmetry_2
Na0 O60 2.297055 1_555
Na0 O45 2.334722 1_555
Na0 O62 2.434236 1_555
Na0 O46 2.476222 1_565
Na0 O19 2.658149 1_555
Na0 O24 2.694814 1_554
Na0 O9 2.698248 1_555
Na0 O17 2.805052 1_555
Na1 O54 2.320060 1_555
Na1 O39 2.342469 1_555
Na1 O40 2.412698 1_545
Na1 O56 2.449812 1_555
Na1 O18 2.600300 1_556
Na1 O3 2.616128 1_555
Na1 O25 2.777879 1_555
Na1 O35 2.840458 1_555
Na2 O57 2.329521 1_555
Na2 O36 2.341953 1_545
Na2 O38 2.417370 1_555
Na2 O58 2.452358 1_555
Na2 O0 2.609896 1_555
Na2 O21 2.621820 1_555
Na2 O29 2.794675 1_545
Na2 O31 2.833244 1_545
Na3 O37 2.555435 1_555
Na3 O42 2.561728 1_565
Na3 O44 2.577232 1_555
Na3 O38 2.598574 1_665
Na3 O36 2.616863 1_655
Na3 O43 2.639243 1_665
Na4 O40 2.558331 1_554
Na4 O41 2.582434 1_454
Na4 O46 2.587347 1_465
Na4 O47 2.587987 1_565
Na4 O45 2.591269 1_455
Na4 O39 2.611063 1_564
Na5 O55 2.502305 1_555
Na5 O56 2.559942 1_555
Na5 O54 2.564451 1_555
Na5 O48 2.580025 1_555
Na5 O50 2.588353 1_555
Na5 O49 2.654344 1_555
Na6 O59 2.522957 1_555
Na6 O51 2.555354 1_555
Na6 O52 2.563628 1_555
Na6 O58 2.572305 1_555
Na6 O57 2.584699 1_555
Na6 O53 2.634314 1_555
Na7 O61 2.380603 1_555
Na7 O60 2.469230 1_555
Na7 O62 2.559697 1_555
Na7 O68 2.564977 1_555
Na7 O66 2.585767 1_555
Na7 O67 2.669164 1_555
Na8 O63 2.390039 1_555
Na8 O64 2.491786 1_555
Na8 O65 2.500368 1_555
Na8 O70 2.611279 1_555
Na8 O71 2.619158 1_555
Na8 O69 2.637581 1_555
Mg0 O2 1.958675 1_565
Mg0 O1 1.961588 1_555
Mg0 O0 2.037964 1_665
Mg0 O37 2.080004 1_555
Mg0 O36 2.145902 1_655
Mg0 O38 2.151745 1_665
Mg1 O4 1.964505 1_555
Mg1 O5 1.965288 1_565
Mg1 O3 2.039757 1_665
Mg1 O41 2.087317 1_555
Mg1 O39 2.127709 1_665
Mg1 O40 2.159861 1_655
Mg2 O19 1.982785 1_556
Mg2 O20 2.021712 1_556
Mg2 O18 2.038927 1_556
Mg2 O55 2.126328 1_555
Mg2 O54 2.180753 1_555
Mg2 O56 2.196495 1_555
Mg3 O22 2.020149 1_555
Mg3 O21 2.028269 1_555
Mg3 O23 2.032472 1_555
Mg3 O59 2.119761 1_555
Mg3 O57 2.165221 1_555
Mg3 O58 2.171945 1_555
Mg4 O61 2.002043 1_555
Mg4 O25 2.019998 1_554
Mg4 O26 2.030379 1_554
Mg4 O60 2.082291 1_555
Mg4 O24 2.121809 1_554
Mg4 O62 2.131674 1_555
Mg5 O27 2.040523 1_555
Mg5 O63 2.044464 1_555
Mg5 O28 2.048452 1_555
Mg5 O29 2.049455 1_555
Mg5 O64 2.107657 1_555
Mg5 O65 2.109567 1_555
O0 P0 1.509215 1_555
O1 P1 1.498082 1_555
O2 P2 1.497269 1_555
O3 P3 1.509708 1_555
O4 P4 1.498632 1_555
O5 P5 1.499392 1_555
O6 P5 1.545948 1_565
O6 Ti0 1.968669 1_655
O7 P3 1.557049 1_555
O7 Ti0 1.916322 1_545
O8 P4 1.567488 1_455
O8 Ti0 1.880760 1_555
O9 P1 1.550534 1_555
O9 Ti1 2.028528 1_665
O10 P2 1.561333 1_455
O10 Ti1 1.906643 1_555
O11 P0 1.574888 1_565
O11 Ti1 1.864178 1_565
O12 S0 1.492563 1_555
O12 Ti2 2.032680 1_555
O13 P6 1.579733 1_555
O13 Ti2 1.854943 1_555
O14 S1 1.486350 1_555
O14 Ti2 2.048521 1_555
O15 P7 1.572311 1_555
O15 Ti3 1.872019 1_555
O16 S2 1.475896 1_555
O16 Ti3 2.083221 1_555
O17 P8 1.566450 1_555
O17 Ti3 1.921066 1_555
O18 P8 1.525273 1_555
O19 P7 1.520236 1_555
O20 S2 1.461404 1_555
O21 P6 1.523039 1_555
O22 S1 1.465848 1_555
O23 S0 1.465761 1_555
O24 S3 1.479462 1_555
O25 S4 1.474547 1_555
O26 S5 1.463223 1_555
O27 S6 1.468067 1_555
O28 S7 1.465050 1_555
O29 S8 1.475048 1_555
O30 S8 1.507732 1_555
O30 Ti4 2.056906 1_555
O31 S6 1.516381 1_555
O31 Ti4 2.069809 1_555
O32 S7 1.506119 1_555
O32 Ti4 2.020575 1_555
O33 S4 1.507431 1_555
O33 Ti5 2.059822 1_555
O34 S5 1.507178 1_555
O34 Ti5 2.009918 1_555
O35 S3 1.511811 1_555
O35 Ti5 2.079964 1_555
O36 S8 1.489429 1_555
O37 S6 1.464417 1_555
O38 S7 1.485616 1_555
O39 S4 1.489374 1_555
O40 S5 1.486030 1_555
O41 S3 1.465341 1_555
O42 S0 1.500849 1_555
O42 Ti0 2.093112 1_645
O43 P6 1.577979 1_555
O43 Ti0 1.918055 1_545
O44 S1 1.506121 1_555
O44 Ti0 2.071748 1_655
O45 P7 1.577678 1_555
O45 Ti1 1.976755 1_665
O46 S2 1.509321 1_555
O46 Ti1 2.161274 1_655
O47 P8 1.564069 1_555
O47 Ti1 1.918858 1_555
O48 P5 1.562847 1_555
O48 Ti2 1.903792 1_555
O49 P3 1.555596 1_555
O49 Ti2 1.928896 1_555
O50 P4 1.538138 1_555
O50 Ti2 1.995315 1_555
O51 P1 1.563364 1_555
O51 Ti3 1.901040 1_555
O52 P2 1.543550 1_555
O52 Ti3 1.966964 1_555
O53 P0 1.535059 1_555
O53 Ti3 2.003078 1_555
O54 S3 1.494413 1_555
O55 S4 1.468426 1_655
O56 S5 1.487918 1_545
O57 S6 1.496553 1_545
O58 S7 1.490823 1_555
O59 S8 1.470590 1_655
O60 P8 1.536099 1_555
O61 P7 1.512763 1_455
O62 S2 1.486299 1_565
O63 P6 1.520086 1_565
O64 S1 1.473116 1_555
O65 S0 1.473552 1_455
O66 P0 1.569042 1_565
O66 Ti4 1.925126 1_555
O67 P1 1.577149 1_555
O67 Ti4 1.902245 1_555
O68 P2 1.579665 1_455
O68 Ti4 1.904011 1_555
O69 P3 1.567725 1_555
O69 Ti5 1.927165 1_555
O70 P4 1.579885 1_455
O70 Ti5 1.899401 1_555
O71 P5 1.578975 1_565
O71 Ti5 1.906586 1_555
