# generated using pymatgen
data_MgMn2(CoO4)2
_symmetry_space_group_name_H-M   'P 1'
_cell_length_a   5.85737996
_cell_length_b   5.98987747
_cell_length_c   5.85734615
_cell_angle_alpha   90.06268581
_cell_angle_beta   119.79788481
_cell_angle_gamma   60.46142575
_symmetry_Int_Tables_number   1
_chemical_formula_structural   MgMn2(CoO4)2
_chemical_formula_sum   'Mg1 Mn2 Co2 O8'
_cell_volume   146.83543503
_cell_formula_units_Z   1
loop_
 _symmetry_equiv_pos_site_id
 _symmetry_equiv_pos_as_xyz
  1  'x, y, z'
loop_
 _atom_site_type_symbol
 _atom_site_label
 _atom_site_symmetry_multiplicity
 _atom_site_fract_x
 _atom_site_fract_y
 _atom_site_fract_z
 _atom_site_occupancy
  Mg  Mg0  1  0.50000000  0.50000000  0.50000000  1
  Mn  Mn0  1  0.50000000  0.50000000  0.00000000  1
  Mn  Mn1  1  0.00000000  0.50000000  0.50000000  1
  Co  Co0  1  0.50000000  0.00000000  0.00000000  1
  Co  Co1  1  0.00000000  0.50000000  0.00000000  1
  O  O0  1  0.54496400  0.70556800  0.78952500  1
  O  O1  1  0.00491000  0.70556600  0.24947000  1
  O  O2  1  0.96748300  0.30255200  0.22996500  1
  O  O3  1  0.54011500  0.70709000  0.25279300  1
  O  O4  1  0.45988500  0.29291000  0.74720700  1
  O  O5  1  0.03251700  0.69744800  0.77003500  1
  O  O6  1  0.99509000  0.29443400  0.75053000  1
  O  O7  1  0.45503600  0.29443200  0.21047500  1
loop_
_geom_bond_atom_site_label_1
_geom_bond_atom_site_label_2
_geom_bond_distance
_geom_bond_site_symmetry_2
Mg0 O3 2.078465 1_555
Mg0 O4 2.078465 1_555
Mg0 O7 2.081518 1_555
Mg0 O0 2.081518 1_555
Mg0 O1 2.081541 1_555
Mg0 O6 2.081541 1_555
Mn0 O3 1.929755 1_555
Mn0 O4 1.929755 1_554
Mn0 O0 1.936795 1_554
Mn0 O7 1.936795 1_555
Mn0 O5 1.963544 1_554
Mn0 O2 1.963544 1_555
Mn1 O4 1.929798 1_555
Mn1 O3 1.929798 1_455
Mn1 O6 1.936792 1_455
Mn1 O1 1.936792 1_555
Mn1 O5 1.963511 1_555
Mn1 O2 1.963511 1_455
Co0 O7 2.135300 1_555
Co0 O0 2.135300 1_544
Co0 O1 2.135350 1_645
Co0 O6 2.135350 1_454
Co0 O3 2.139937 1_545
Co0 O4 2.139937 1_554
Co1 O1 1.908239 1_555
Co1 O6 1.908239 1_454
Co1 O7 1.908272 1_555
Co1 O0 1.908272 1_454
Co1 O5 1.931315 1_554
Co1 O2 1.931315 1_455
