# generated using pymatgen
data_Rb2MgBi2O5
_symmetry_space_group_name_H-M   'P 1'
_cell_length_a   8.46967100
_cell_length_b   4.46493500
_cell_length_c   4.94100600
_cell_angle_alpha   90.00000000
_cell_angle_beta   90.00000000
_cell_angle_gamma   90.00000000
_symmetry_Int_Tables_number   1
_chemical_formula_structural   Rb2MgBi2O5
_chemical_formula_sum   'Rb2 Mg1 Bi2 O5'
_cell_volume   186.85170403
_cell_formula_units_Z   1
loop_
 _symmetry_equiv_pos_site_id
 _symmetry_equiv_pos_as_xyz
  1  'x, y, z'
loop_
 _atom_site_type_symbol
 _atom_site_label
 _atom_site_symmetry_multiplicity
 _atom_site_fract_x
 _atom_site_fract_y
 _atom_site_fract_z
 _atom_site_occupancy
  Rb  Rb0  1  0.00000000  0.00000000  0.00000000  1
  Rb  Rb1  1  0.50000100  0.00000000  0.00000000  1
  Mg  Mg0  1  0.50000000  0.00000000  0.50000000  1
  Bi  Bi0  1  0.22949600  0.49999900  0.49999900  1
  Bi  Bi1  1  0.77050400  0.49999900  0.49999900  1
  O  O0  1  0.23819100  0.49999900  0.00000000  1
  O  O1  1  0.76180900  0.49999900  0.00000000  1
  O  O2  1  0.50000100  0.49999900  0.49999900  1
  O  O3  1  0.27737400  0.00000000  0.49999900  1
  O  O4  1  0.72262600  0.00000000  0.49999900  1
loop_
_geom_bond_atom_site_label_1
_geom_bond_atom_site_label_2
_geom_bond_distance
_geom_bond_site_symmetry_2
Mg0 O3 1.885569 1_555
Mg0 O4 1.885569 1_555
Mg0 O2 2.232463 1_555
Mg0 O2 2.232472 1_545
Mg0 Rb1 2.470503 1_555
Mg0 Rb1 2.470503 1_556
Bi0 O3 2.268993 1_555
Bi0 O3 2.269002 1_565
Bi0 O2 2.291088 1_555
Bi0 O0 2.471595 1_555
Bi0 O0 2.471605 1_556
Bi1 O4 2.268993 1_555
Bi1 O4 2.269002 1_565
Bi1 O2 2.291071 1_555
Bi1 O1 2.471595 1_555
Bi1 O1 2.471605 1_556
O0 Rb0 3.008952 1_555
O0 Rb0 3.008959 1_565
O0 Rb1 3.146578 1_555
O0 Rb1 3.146584 1_565
O1 Rb0 3.008952 1_655
O1 Rb0 3.008959 1_665
O1 Rb1 3.146566 1_555
O1 Rb1 3.146572 1_565
O2 Rb1 3.329753 1_555
O2 Rb1 3.329759 1_565
O2 Rb1 3.329760 1_556
O2 Rb1 3.329766 1_566
O3 Rb1 3.107855 1_555
O3 Rb1 3.107863 1_556
O3 Rb0 3.409166 1_555
O3 Rb0 3.409173 1_556
O4 Rb1 3.107845 1_555
O4 Rb1 3.107853 1_556
O4 Rb0 3.409166 1_655
O4 Rb0 3.409173 1_656
