# generated using pymatgen
data_LiNb2(PO4)3
_symmetry_space_group_name_H-M   'P 1'
_cell_length_a   8.97965700
_cell_length_b   8.86614300
_cell_length_c   15.12686256
_cell_angle_alpha   54.99577791
_cell_angle_beta   90.00000000
_cell_angle_gamma   90.00000000
_symmetry_Int_Tables_number   1
_chemical_formula_structural   LiNb2(PO4)3
_chemical_formula_sum   'Li4 Nb8 P12 O48'
_cell_volume   986.47356060
_cell_formula_units_Z   4
loop_
 _symmetry_equiv_pos_site_id
 _symmetry_equiv_pos_as_xyz
  1  'x, y, z'
loop_
 _atom_site_type_symbol
 _atom_site_label
 _atom_site_symmetry_multiplicity
 _atom_site_fract_x
 _atom_site_fract_y
 _atom_site_fract_z
 _atom_site_occupancy
  Li  Li0  1  0.77518200  0.96922900  0.32341600  1
  Li  Li1  1  0.22481800  0.03077100  0.67658400  1
  Li  Li2  1  0.27518200  0.03077100  0.17658400  1
  Li  Li3  1  0.72481800  0.96922900  0.82341600  1
  Nb  Nb0  1  0.97057900  0.37009100  0.38027400  1
  Nb  Nb1  1  0.45691100  0.85743800  0.38738900  1
  Nb  Nb2  1  0.95691100  0.14256200  0.11261100  1
  Nb  Nb3  1  0.02942100  0.62990900  0.61972600  1
  Nb  Nb4  1  0.52942100  0.37009100  0.88027400  1
  Nb  Nb5  1  0.54308900  0.14256200  0.61261100  1
  Nb  Nb6  1  0.04308900  0.85743800  0.88738900  1
  Nb  Nb7  1  0.47057900  0.62990900  0.11972600  1
  P  P0  1  0.39887100  0.03223500  0.85542500  1
  P  P1  1  0.88060500  0.24598900  0.85357100  1
  P  P2  1  0.74960600  0.54369300  0.49125900  1
  P  P3  1  0.24960600  0.45630700  0.00874100  1
  P  P4  1  0.89887100  0.96776500  0.64457500  1
  P  P5  1  0.60112900  0.96776500  0.14457500  1
  P  P6  1  0.61939500  0.24598900  0.35357100  1
  P  P7  1  0.25039400  0.45630700  0.50874100  1
  P  P8  1  0.10112900  0.03223500  0.35542500  1
  P  P9  1  0.75039400  0.54369300  0.99125900  1
  P  P10  1  0.38060500  0.75401100  0.64642900  1
  P  P11  1  0.11939500  0.75401100  0.14642900  1
  O  O0  1  0.48001900  0.94092600  0.22683400  1
  O  O1  1  0.33144000  0.48514800  0.08759900  1
  O  O2  1  0.97794200  0.41161900  0.77064000  1
  O  O3  1  0.14235900  0.44520200  0.43404500  1
  O  O4  1  0.10428600  0.20226200  0.35821300  1
  O  O5  1  0.83144000  0.51485200  0.41240100  1
  O  O6  1  0.83240800  0.73095800  0.92220300  1
  O  O7  1  0.74530700  0.99645800  0.68024700  1
  O  O8  1  0.89571400  0.79773800  0.64178700  1
  O  O9  1  0.86157200  0.38603700  0.06156200  1
  O  O10  1  0.55723100  0.14252700  0.03444000  1
  O  O11  1  0.98001900  0.05907400  0.27316600  1
  O  O12  1  0.52205800  0.41161900  0.27064000  1
  O  O13  1  0.25469300  0.00354200  0.31975300  1
  O  O14  1  0.92614400  0.18502700  0.96755900  1
  O  O15  1  0.64235900  0.55479800  0.06595500  1
  O  O16  1  0.63842800  0.38603700  0.56156200  1
  O  O17  1  0.78728900  0.29370600  0.33338800  1
  O  O18  1  0.16856000  0.48514800  0.58759900  1
  O  O19  1  0.01998100  0.94092600  0.72683400  1
  O  O20  1  0.44276900  0.85747300  0.96556000  1
  O  O21  1  0.47794200  0.58838100  0.72936000  1
  O  O22  1  0.94276900  0.14252700  0.53444000  1
  O  O23  1  0.90490200  0.08449400  0.84235700  1
  O  O24  1  0.07385600  0.81497300  0.03244100  1
  O  O25  1  0.35764100  0.44520200  0.93404500  1
  O  O26  1  0.13842800  0.61396300  0.93843800  1
  O  O27  1  0.28728900  0.70629400  0.16661200  1
  O  O28  1  0.16759200  0.26904200  0.07779700  1
  O  O29  1  0.51998100  0.05907400  0.77316600  1
  O  O30  1  0.66759200  0.73095800  0.42220300  1
  O  O31  1  0.24530700  0.00354200  0.81975300  1
  O  O32  1  0.71271100  0.29370600  0.83338800  1
  O  O33  1  0.60428600  0.79773800  0.14178700  1
  O  O34  1  0.39571400  0.20226200  0.85821300  1
  O  O35  1  0.09509800  0.91550600  0.15764300  1
  O  O36  1  0.05723100  0.85747300  0.46556000  1
  O  O37  1  0.33240800  0.26904200  0.57779700  1
  O  O38  1  0.57385600  0.18502700  0.46755900  1
  O  O39  1  0.59509800  0.08449400  0.34235700  1
  O  O40  1  0.36157200  0.61396300  0.43843800  1
  O  O41  1  0.40490200  0.91550600  0.65764300  1
  O  O42  1  0.02205800  0.58838100  0.22936000  1
  O  O43  1  0.21271100  0.70629400  0.66661200  1
  O  O44  1  0.75469300  0.99645800  0.18024700  1
  O  O45  1  0.42614400  0.81497300  0.53244100  1
  O  O46  1  0.66856000  0.51485200  0.91240100  1
  O  O47  1  0.85764100  0.55479800  0.56595500  1
loop_
_geom_bond_atom_site_label_1
_geom_bond_atom_site_label_2
_geom_bond_distance
_geom_bond_site_symmetry_2
Li0 O11 1.975075 1_565
Li0 O30 2.001875 1_555
Li0 O39 2.019259 1_565
Li0 O44 2.045127 1_555
Li1 O19 1.975075 1_545
Li1 O37 2.001875 1_555
Li1 O41 2.019259 1_545
Li1 O31 2.045127 1_555
Li2 O0 1.975075 1_545
Li2 O28 2.001875 1_555
Li2 O35 2.019259 1_545
Li2 O13 2.045127 1_555
Li3 O29 1.975075 1_565
Li3 O6 2.001875 1_555
Li3 O23 2.019259 1_565
Li3 O7 2.045127 1_555
Nb0 O42 2.025327 1_655
Nb0 O3 2.026304 1_655
Nb0 O5 2.039640 1_555
Nb0 O22 2.042904 1_555
Nb0 O17 2.054668 1_555
Nb0 O4 2.082483 1_655
Nb1 O40 2.019083 1_555
Nb1 O45 2.021074 1_555
Nb1 O0 2.104046 1_555
Nb1 O30 2.106275 1_555
Nb1 O39 2.117340 1_565
Nb1 O13 2.121691 1_565
Nb2 O9 2.019083 1_555
Nb2 O14 2.021074 1_554
Nb2 O11 2.104046 1_555
Nb2 O28 2.106275 1_655
Nb2 O35 2.117340 1_645
Nb2 O44 2.121691 1_545
Nb3 O2 2.025327 1_455
Nb3 O47 2.026304 1_455
Nb3 O18 2.039640 1_555
Nb3 O36 2.042904 1_555
Nb3 O43 2.054668 1_555
Nb3 O8 2.082483 1_455
Nb4 O21 2.025327 1_555
Nb4 O25 2.026304 1_555
Nb4 O46 2.039640 1_555
Nb4 O10 2.042904 1_556
Nb4 O32 2.054668 1_555
Nb4 O34 2.082483 1_555
Nb5 O16 2.019083 1_555
Nb5 O38 2.021074 1_555
Nb5 O29 2.104046 1_555
Nb5 O37 2.106275 1_555
Nb5 O41 2.117340 1_545
Nb5 O7 2.121691 1_545
Nb6 O26 2.019083 1_555
Nb6 O24 2.021074 1_556
Nb6 O19 2.104046 1_555
Nb6 O6 2.106275 1_455
Nb6 O23 2.117340 1_465
Nb6 O31 2.121691 1_565
Nb7 O12 2.025327 1_555
Nb7 O15 2.026304 1_555
Nb7 O1 2.039640 1_555
Nb7 O20 2.042904 1_554
Nb7 O27 2.054668 1_555
Nb7 O33 2.082483 1_555
O0 P5 1.564598 1_555
O1 P3 1.542167 1_555
O2 P1 1.542943 1_555
O3 P7 1.534655 1_555
O4 P8 1.532328 1_555
O5 P2 1.542167 1_555
O6 P9 1.549329 1_555
O7 P4 1.553992 1_555
O8 P4 1.532328 1_555
O9 P9 1.541445 1_554
O10 P5 1.539544 1_545
O11 P8 1.564598 1_655
O12 P6 1.542943 1_555
O13 P8 1.553992 1_555
O14 P1 1.537295 1_555
O15 P9 1.534655 1_554
O16 P2 1.541445 1_555
O17 P6 1.548212 1_555
O18 P7 1.542167 1_555
O19 P4 1.564598 1_455
O20 P0 1.539544 1_565
O21 P10 1.542943 1_555
O22 P4 1.539544 1_545
O23 P1 1.550869 1_555
O24 P11 1.537295 1_555
O25 P3 1.534655 1_556
O26 P3 1.541445 1_556
O27 P11 1.548212 1_555
O28 P3 1.549329 1_555
O29 P0 1.564598 1_555
O30 P2 1.549329 1_555
O31 P0 1.553992 1_555
O32 P1 1.548212 1_555
O33 P5 1.532328 1_555
O34 P0 1.532328 1_555
O35 P11 1.550869 1_555
O36 P8 1.539544 1_565
O37 P7 1.549329 1_555
O38 P6 1.537295 1_555
O39 P6 1.550869 1_555
O40 P7 1.541445 1_555
O41 P10 1.550869 1_555
O42 P11 1.542943 1_555
O43 P10 1.548212 1_555
O44 P5 1.553992 1_555
O45 P10 1.537295 1_555
O46 P9 1.542167 1_555
O47 P2 1.534655 1_555
