# generated using pymatgen
data_Na6Ca4Al4SiS11O48
_symmetry_space_group_name_H-M   'P 1'
_cell_length_a   17.69027397
_cell_length_b   8.86389411
_cell_length_c   22.52432362
_cell_angle_alpha   89.96076254
_cell_angle_beta   90.13945943
_cell_angle_gamma   120.14744046
_symmetry_Int_Tables_number   1
_chemical_formula_structural   Na6Ca4Al4SiS11O48
_chemical_formula_sum   'Na18 Ca12 Al12 Si3 S33 O144'
_cell_volume   3054.16843250
_cell_formula_units_Z   3
loop_
 _symmetry_equiv_pos_site_id
 _symmetry_equiv_pos_as_xyz
  1  'x, y, z'
loop_
 _atom_site_type_symbol
 _atom_site_label
 _atom_site_symmetry_multiplicity
 _atom_site_fract_x
 _atom_site_fract_y
 _atom_site_fract_z
 _atom_site_occupancy
  Na  Na0  1  0.81615265  0.98904390  0.24657937  1
  Na  Na1  1  0.99525829  0.62843445  0.25662972  1
  Na  Na2  1  0.31547159  0.64371256  0.74608633  1
  Na  Na3  1  0.81138564  0.63715579  0.74488510  1
  Na  Na4  1  0.99949342  0.36225165  0.75288249  1
  Na  Na5  1  0.69318165  0.99628113  0.74976507  1
  Na  Na6  1  -0.00000317  0.99886911  0.49830011  1
  Na  Na7  1  0.50154848  0.00395894  0.49814949  1
  Na  Na8  1  0.00199067  0.00293830  0.00294097  1
  Na  Na9  1  0.50027829  0.99700696  0.00184197  1
  Na  Na10  1  0.33628787  0.29773519  0.83240420  1
  Na  Na11  1  0.83406916  0.31481475  0.84070323  1
  Na  Na12  1  0.33527927  0.33573257  0.33349040  1
  Na  Na13  1  0.82566128  0.35169741  0.33311191  1
  Na  Na14  1  0.17520057  0.66752227  0.16202793  1
  Na  Na15  1  0.66504205  0.64942795  0.16806644  1
  Na  Na16  1  0.17899937  0.70567683  0.66281443  1
  Na  Na17  1  0.66757808  0.66983503  0.66324499  1
  Ca  Ca0  1  0.49519237  0.99313775  0.35351440  1
  Ca  Ca1  1  0.83410042  0.32862736  0.68335828  1
  Ca  Ca2  1  0.33118287  0.32786512  0.17627351  1
  Ca  Ca3  1  0.83056556  0.34351624  0.17827891  1
  Ca  Ca4  1  0.33296564  0.33429578  0.99068059  1
  Ca  Ca5  1  0.83244165  0.33369030  0.98930177  1
  Ca  Ca6  1  0.83138822  0.32782634  0.48302381  1
  Ca  Ca7  1  0.16340022  0.65928742  0.51699042  1
  Ca  Ca8  1  0.67198513  0.67664117  0.51925366  1
  Ca  Ca9  1  0.18167737  0.67928765  0.31821054  1
  Ca  Ca10  1  0.17338612  0.68712118  0.81127324  1
  Ca  Ca11  1  0.66346577  0.66124402  0.81406540  1
  Al  Al0  1  0.99806642  0.99008874  0.34936117  1
  Al  Al1  1  0.99921102  0.00424732  0.85536772  1
  Al  Al2  1  0.48740990  0.01271493  0.85292578  1
  Al  Al3  1  0.99692988  0.00209617  0.64995805  1
  Al  Al4  1  0.49233492  0.99269388  0.64741373  1
  Al  Al5  1  0.98931991  0.98572735  0.15290194  1
  Al  Al6  1  0.50376903  0.00436634  0.15140355  1
  Al  Al7  1  0.33503242  0.31618453  0.68502667  1
  Al  Al8  1  0.33365569  0.33085551  0.48556581  1
  Al  Al9  1  0.16718190  0.66681692  0.01353787  1
  Al  Al10  1  0.66563909  0.66887944  0.01337518  1
  Al  Al11  1  0.66758829  0.64879624  0.31122282  1
  Si  Si0  1  0.85285374  0.71067669  0.25307521  1
  Si  Si1  1  0.36060720  0.01574539  0.74524565  1
  Si  Si2  1  0.86222243  0.00372820  0.75258139  1
  S  S0  1  0.13813456  0.00463595  0.24952096  1
  S  S1  1  0.64262716  0.98449349  0.24887189  1
  S  S2  1  0.35522795  0.71327359  0.24220370  1
  S  S3  1  0.00444530  0.28129007  0.24944366  1
  S  S4  1  0.50544324  0.29968240  0.24879924  1
  S  S5  1  0.14570439  0.27264735  0.74799782  1
  S  S6  1  0.63332687  0.26659288  0.75076646  1
  S  S7  1  0.00143630  0.73022289  0.75038228  1
  S  S8  1  0.49407499  0.71650049  0.74688479  1
  S  S9  1  0.47093526  0.31858959  0.58513916  1
  S  S10  1  0.98954236  0.31943799  0.59000976  1
  S  S11  1  0.18963806  0.05821211  0.58720898  1
  S  S12  1  0.66535816  0.02518899  0.59022756  1
  S  S13  1  0.33973975  0.61086815  0.58739795  1
  S  S14  1  0.84440097  0.65937129  0.59026069  1
  S  S15  1  0.49812712  0.66273792  0.08236234  1
  S  S16  1  0.99875449  0.66090498  0.08457932  1
  S  S17  1  0.33325518  0.00397725  0.08270961  1
  S  S18  1  0.83218219  0.00502161  0.08303598  1
  S  S19  1  0.16775851  0.33272874  0.08223823  1
  S  S20  1  0.66827409  0.33491754  0.08225033  1
  S  S21  1  0.31900260  0.68124452  0.91581605  1
  S  S22  1  0.81911597  0.68130181  0.91631497  1
  S  S23  1  0.02452275  0.36551509  0.91470606  1
  S  S24  1  0.52112394  0.36148664  0.91835367  1
  S  S25  1  0.15758446  0.95799802  0.91781703  1
  S  S26  1  0.65698575  0.95595780  0.91520794  1
  S  S27  1  0.32051591  0.99264494  0.42437001  1
  S  S28  1  0.81839301  0.96194192  0.40692531  1
  S  S29  1  0.16748960  0.34624071  0.41751247  1
  S  S30  1  0.66850467  0.37914331  0.41334770  1
  S  S31  1  0.01468506  0.68066442  0.41133165  1
  S  S32  1  0.51284457  0.64507130  0.41678615  1
  O  O0  1  0.09711530  0.01756221  0.30519097  1
  O  O1  1  0.60841583  0.01653314  0.30267059  1
  O  O2  1  0.39252757  0.78460095  0.30030013  1
  O  O3  1  0.91880775  0.81713771  0.30728763  1
  O  O4  1  0.49335587  0.20370062  0.30322303  1
  O  O5  1  0.00218719  0.18538852  0.30387555  1
  O  O6  1  0.10891242  0.17433725  0.80376351  1
  O  O7  1  0.58980790  0.16193951  0.80512041  1
  O  O8  1  0.48250527  0.79877454  0.80102291  1
  O  O9  1  0.00283572  0.82414294  0.80515959  1
  O  O10  1  0.41218297  0.03289500  0.80836858  1
  O  O11  1  0.92261800  0.02120051  0.81081451  1
  O  O12  1  0.41045473  0.98366185  0.69029291  1
  O  O13  1  0.91294108  0.99170846  0.69405539  1
  O  O14  1  0.09278425  0.18022466  0.69534161  1
  O  O15  1  0.58859550  0.17587562  0.69562227  1
  O  O16  1  0.00979970  0.82965170  0.69557109  1
  O  O17  1  0.50810079  0.82458753  0.69313640  1
  O  O18  1  0.41248444  0.82766709  0.19315738  1
  O  O19  1  0.89687834  0.83046382  0.19314315  1
  O  O20  1  0.00949432  0.19329999  0.19479710  1
  O  O21  1  0.51622592  0.20745114  0.19602265  1
  O  O22  1  0.08451169  0.99338229  0.19661456  1
  O  O23  1  0.59091705  0.97757656  0.19503881  1
  O  O24  1  0.42688204  0.33809905  0.63818169  1
  O  O25  1  0.94992854  0.33640088  0.64536958  1
  O  O26  1  0.24252997  0.14741244  0.64092432  1
  O  O27  1  0.71555430  0.10356082  0.64518215  1
  O  O28  1  0.33157332  0.50627400  0.64190462  1
  O  O29  1  0.83373928  0.56292021  0.64610010  1
  O  O30  1  0.46221919  0.54787661  0.13417237  1
  O  O31  1  0.96692903  0.55382564  0.13920139  1
  O  O32  1  0.30961985  0.07045855  0.13509932  1
  O  O33  1  0.81382152  0.07153110  0.13810340  1
  O  O34  1  0.22504148  0.37753387  0.13461425  1
  O  O35  1  0.72427023  0.37851520  0.13499946  1
  O  O36  1  0.20470025  0.29103575  0.03062841  1
  O  O37  1  0.70410809  0.29047619  0.03088302  1
  O  O38  1  0.44061520  0.59187326  0.03037799  1
  O  O39  1  0.93795105  0.58001039  0.03486876  1
  O  O40  1  0.35441137  0.11981869  0.03132363  1
  O  O41  1  0.84943966  0.12331217  0.03305377  1
  O  O42  1  0.23337325  0.16434690  0.53343620  1
  O  O43  1  0.70962853  0.12903096  0.53755188  1
  O  O44  1  0.34857196  0.52399050  0.53293409  1
  O  O45  1  0.84852928  0.56426182  0.53840923  1
  O  O46  1  0.41834526  0.30310908  0.53117527  1
  O  O47  1  0.93529730  0.29890836  0.53767552  1
  O  O48  1  0.26802886  0.69950356  0.96576655  1
  O  O49  1  0.76661674  0.69529412  0.96617232  1
  O  O50  1  0.08245636  0.46991722  0.96530819  1
  O  O51  1  0.57885760  0.46138152  0.96964255  1
  O  O52  1  0.14907398  0.84321383  0.96959442  1
  O  O53  1  0.65103150  0.83794451  0.96547181  1
  O  O54  1  0.27489874  0.87717045  0.47417778  1
  O  O55  1  0.78601473  0.86986218  0.46342106  1
  O  O56  1  0.14731766  0.42009689  0.46927098  1
  O  O57  1  0.66652298  0.46204501  0.46896184  1
  O  O58  1  0.06623234  0.69816636  0.46468414  1
  O  O59  1  0.56398457  0.66863883  0.47053794  1
  O  O60  1  0.05640998  0.66213926  0.35685407  1
  O  O61  1  0.55615380  0.62623772  0.36261605  1
  O  O62  1  0.27433817  0.92569055  0.36740371  1
  O  O63  1  0.75853021  0.85969262  0.35644996  1
  O  O64  1  0.18813932  0.45676221  0.36434001  1
  O  O65  1  0.66806706  0.48290653  0.36065430  1
  O  O66  1  0.05784095  0.45546058  0.85771224  1
  O  O67  1  0.55537458  0.45399245  0.86283006  1
  O  O68  1  0.16985137  0.88780707  0.86273744  1
  O  O69  1  0.66969288  0.89065306  0.85813406  1
  O  O70  1  0.27323361  0.65283940  0.85893162  1
  O  O71  1  0.77480486  0.65818727  0.85897409  1
  O  O72  1  0.00870253  0.84397319  0.40821830  1
  O  O73  1  0.49826502  0.79460906  0.41228790  1
  O  O74  1  0.40989173  0.02143125  0.42257525  1
  O  O75  1  0.90930634  0.99163329  0.39972110  1
  O  O76  1  0.08968244  0.16956626  0.40623355  1
  O  O77  1  0.59200411  0.20272195  0.41258490  1
  O  O78  1  0.02407914  0.19455013  0.91357491  1
  O  O79  1  0.51974985  0.18895879  0.91542390  1
  O  O80  1  0.07364274  0.96405216  0.91370203  1
  O  O81  1  0.57383602  0.96093603  0.91304418  1
  O  O82  1  0.40567304  0.85065521  0.91292626  1
  O  O83  1  0.90650838  0.84664947  0.91579689  1
  O  O84  1  0.47718181  0.15641911  0.58820350  1
  O  O85  1  0.99844052  0.16003376  0.59261148  1
  O  O86  1  0.10165512  0.03940050  0.59199899  1
  O  O87  1  0.57886750  0.02064883  0.59342512  1
  O  O88  1  0.42053678  0.78559662  0.59106315  1
  O  O89  1  0.92986263  0.82971828  0.59184062  1
  O  O90  1  0.51145003  0.84152071  0.09410643  1
  O  O91  1  0.01029956  0.83843713  0.09487400  1
  O  O92  1  0.41063125  0.98278355  0.09529562  1
  O  O93  1  0.91116939  0.98593430  0.09071914  1
  O  O94  1  0.07894773  0.18113094  0.09392547  1
  O  O95  1  0.57948748  0.17971122  0.09458657  1
  O  O96  1  0.34973578  0.18965154  0.73994506  1
  O  O97  1  0.85031921  0.17612125  0.75593120  1
  O  O98  1  0.23778720  0.31014473  0.74177882  1
  O  O99  1  0.72387908  0.29302167  0.75262773  1
  O  O100  1  0.41327881  0.54113460  0.74116883  1
  O  O101  1  0.91694172  0.56060840  0.75147177  1
  O  O102  1  0.34531183  0.53911550  0.23759583  1
  O  O103  1  0.84801102  0.52314156  0.24967888  1
  O  O104  1  0.43041006  0.32616489  0.23998397  1
  O  O105  1  0.92183324  0.28885027  0.24764979  1
  O  O106  1  0.22628347  0.15768267  0.24645104  1
  O  O107  1  0.73457017  0.12679881  0.24075198  1
  O  O108  1  0.33456270  0.53612931  0.92603820  1
  O  O109  1  0.83224248  0.53134054  0.92490086  1
  O  O110  1  0.43189981  0.32896969  0.92643456  1
  O  O111  1  0.93532724  0.33414823  0.92362712  1
  O  O112  1  0.23187373  0.13554807  0.92592637  1
  O  O113  1  0.73264268  0.13247294  0.92423454  1
  O  O114  1  0.32480639  0.16413279  0.43282746  1
  O  O115  1  0.82413407  0.13446498  0.40765388  1
  O  O116  1  0.24684657  0.33079550  0.43057790  1
  O  O117  1  0.74908416  0.36865305  0.40995006  1
  O  O118  1  0.42377245  0.48226333  0.42347106  1
  O  O119  1  0.92617307  0.52716016  0.41548073  1
  O  O120  1  0.15887098  0.49068398  0.06864727  1
  O  O121  1  0.65736554  0.48901465  0.06917531  1
  O  O122  1  0.08621345  0.68084719  0.07012237  1
  O  O123  1  0.58655410  0.68346261  0.06940695  1
  O  O124  1  0.25608443  0.82628831  0.06894406  1
  O  O125  1  0.75449968  0.82817237  0.06993922  1
  O  O126  1  0.18108974  0.88429842  0.58382855  1
  O  O127  1  0.64978073  0.84600496  0.58674999  1
  O  O128  1  0.26217264  0.62979476  0.58424184  1
  O  O129  1  0.77115302  0.69431781  0.58726999  1
  O  O130  1  0.07738438  0.47459750  0.58668590  1
  O  O131  1  0.55910619  0.47172652  0.58289683  1
  O  O132  1  0.14250253  0.84093203  0.24955323  1
  O  O133  1  0.64355011  0.81547663  0.25300441  1
  O  O134  1  0.26937132  0.70416740  0.23637433  1
  O  O135  1  0.75507448  0.69355704  0.25965070  1
  O  O136  1  0.07943309  0.46195726  0.25030658  1
  O  O137  1  0.58780522  0.47579217  0.25288244  1
  O  O138  1  0.14918543  0.44482416  0.74971616  1
  O  O139  1  0.64125723  0.44013473  0.75021127  1
  O  O140  1  0.07220223  0.68790481  0.74852915  1
  O  O141  1  0.57179179  0.69603917  0.75026896  1
  O  O142  1  0.26626181  0.83610452  0.74375180  1
  O  O143  1  0.76377582  0.83100700  0.74864653  1
loop_
_geom_bond_atom_site_label_1
_geom_bond_atom_site_label_2
_geom_bond_distance
_geom_bond_site_symmetry_2
Na0 O135 2.296099 1_555
Na0 O107 2.315166 1_565
Na0 O105 2.359516 1_565
Na0 O33 2.556089 1_565
Na0 O133 2.644689 1_555
Na0 O63 2.704174 1_555
Na0 O19 2.736936 1_555
Na1 O103 2.288462 1_555
Na1 O132 2.330582 1_655
Na1 O60 2.453604 1_655
Na1 O136 2.573630 1_655
Na1 O105 2.619310 1_555
Na1 O31 2.710634 1_555
Na1 O3 2.865504 1_555
Na2 O142 2.271478 1_555
Na2 O100 2.326797 1_555
Na2 O98 2.560956 1_555
Na2 O138 2.561221 1_555
Na2 O70 2.663768 1_555
Na2 O28 2.725364 1_555
Na2 O8 2.838429 1_555
Na2 O12 2.898599 1_555
Na3 O143 2.263445 1_555
Na3 O101 2.289192 1_555
Na3 O29 2.409965 1_555
Na3 O139 2.616134 1_555
Na3 O99 2.643681 1_555
Na3 O71 2.680896 1_555
Na4 O97 2.306116 1_555
Na4 O138 2.367957 1_655
Na4 O140 2.503421 1_655
Na4 O66 2.541177 1_655
Na4 O25 2.544473 1_555
Na4 O101 2.793518 1_555
Na5 O143 2.354615 1_555
Na5 O99 2.404735 1_565
Na5 O97 2.415608 1_565
Na5 O141 2.440040 1_555
Na5 O27 2.496689 1_565
Na5 O69 2.572641 1_555
Na6 O72 2.498698 1_555
Na6 O89 2.523174 1_455
Na6 O85 2.568676 1_465
Na6 O76 2.589856 1_565
Na6 O86 2.674136 1_565
Na6 O75 2.718052 1_455
Na7 O74 2.406066 1_555
Na7 O87 2.506201 1_555
Na7 O77 2.560778 1_555
Na7 O84 2.592223 1_555
Na7 O73 2.661426 1_545
Na7 O88 2.720822 1_545
Na8 O80 2.493584 1_544
Na8 O83 2.502446 1_444
Na8 O93 2.506984 1_445
Na8 O94 2.525673 1_555
Na8 O78 2.534103 1_554
Na8 O91 2.577849 1_545
Na9 O79 2.492487 1_564
Na9 O81 2.495473 1_554
Na9 O82 2.510248 1_554
Na9 O90 2.554426 1_555
Na9 O95 2.580915 1_565
Na9 O92 2.603250 1_555
Na10 O96 2.354921 1_555
Na10 O110 2.633683 1_555
Na10 O112 2.695094 1_555
Na10 O98 2.718478 1_555
Na10 O100 2.790839 1_555
Na10 O108 2.997562 1_555
Na11 O97 2.366595 1_555
Na11 O111 2.530330 1_555
Na11 O113 2.543820 1_555
Na11 O109 2.710882 1_555
Na11 O99 2.715908 1_555
Na11 O101 2.781303 1_555
Na12 O118 2.488214 1_555
Na12 O106 2.642230 1_555
Na12 O114 2.658684 1_555
Na12 O116 2.679411 1_555
Na12 O104 2.726924 1_555
Na12 O102 2.760805 1_555
Na13 O117 2.251535 1_555
Na13 O103 2.322403 1_555
Na13 O119 2.496554 1_555
Na13 O115 2.543813 1_555
Na13 O107 2.767886 1_555
Na13 O105 2.807079 1_555
Na14 O134 2.264659 1_555
Na14 O124 2.532138 1_555
Na14 O120 2.551703 1_555
Na14 O122 2.635905 1_555
Na14 O136 2.656085 1_555
Na14 O132 2.736165 1_555
Na15 O137 2.404536 1_555
Na15 O135 2.510873 1_555
Na15 O133 2.557452 1_555
Na15 O121 2.609727 1_555
Na15 O123 2.713303 1_555
Na15 O125 2.719115 1_555
Na16 O142 2.289035 1_555
Na16 O126 2.368758 1_555
Na16 O130 2.580414 1_555
Na16 O128 2.599584 1_555
Na16 O140 2.653305 1_555
Na16 O138 2.868736 1_555
Na17 O129 2.438885 1_555
Na17 O127 2.448222 1_555
Na17 O143 2.486575 1_555
Na17 O131 2.577579 1_555
Na17 O141 2.679472 1_555
Na17 O139 2.691860 1_555
Ca0 O2 2.184559 1_555
Ca0 O4 2.196714 1_565
Ca0 O73 2.223669 1_555
Ca0 O77 2.225100 1_565
Ca0 O1 2.227104 1_565
Ca0 O74 2.269752 1_565
Ca1 O25 2.191366 1_555
Ca1 O27 2.215503 1_555
Ca1 O97 2.228463 1_555
Ca1 O29 2.242346 1_555
Ca1 O101 2.386667 1_555
Ca1 O99 2.394137 1_555
Ca2 O102 2.237928 1_555
Ca2 O104 2.270486 1_555
Ca2 O32 2.310495 1_555
Ca2 O106 2.327447 1_555
Ca2 O34 2.328340 1_555
Ca2 O30 2.354414 1_555
Ca3 O103 2.173531 1_555
Ca3 O35 2.271353 1_555
Ca3 O107 2.298975 1_555
Ca3 O31 2.358007 1_555
Ca3 O33 2.450145 1_555
Ca3 O105 2.460807 1_555
Ca4 O36 2.289274 1_556
Ca4 O110 2.292344 1_555
Ca4 O112 2.292453 1_555
Ca4 O38 2.294785 1_556
Ca4 O108 2.295061 1_555
Ca4 O40 2.305767 1_556
Ca5 O41 2.257928 1_556
Ca5 O109 2.275135 1_555
Ca5 O39 2.281367 1_556
Ca5 O113 2.296540 1_555
Ca5 O37 2.305290 1_556
Ca5 O111 2.346620 1_555
Ca6 O119 2.298009 1_555
Ca6 O45 2.324606 1_555
Ca6 O47 2.328471 1_555
Ca6 O43 2.334643 1_555
Ca6 O117 2.340237 1_555
Ca6 O115 2.370248 1_555
Ca7 O54 2.175021 1_555
Ca7 O130 2.228405 1_555
Ca7 O58 2.246361 1_555
Ca7 O56 2.264303 1_555
Ca7 O126 2.391074 1_555
Ca7 O128 2.421038 1_555
Ca8 O59 2.170965 1_555
Ca8 O57 2.174523 1_555
Ca8 O55 2.263437 1_555
Ca8 O129 2.271648 1_555
Ca8 O127 2.306002 1_555
Ca8 O131 2.389301 1_555
Ca9 O62 2.254627 1_555
Ca9 O64 2.281728 1_555
Ca9 O60 2.315669 1_555
Ca9 O134 2.350055 1_555
Ca9 O136 2.410925 1_555
Ca9 O132 2.431838 1_555
Ca10 O142 2.141603 1_555
Ca10 O68 2.151021 1_555
Ca10 O70 2.212250 1_555
Ca10 O140 2.280686 1_555
Ca10 O66 2.297874 1_555
Ca10 O138 2.407484 1_555
Ca11 O67 2.171789 1_555
Ca11 O69 2.215762 1_555
Ca11 O143 2.216310 1_555
Ca11 O71 2.224232 1_555
Ca11 O141 2.297933 1_555
Ca11 O139 2.300398 1_555
Al0 O3 1.746608 1_555
Al0 O0 1.923253 1_665
Al0 O72 1.926541 1_655
Al0 O75 1.944906 1_555
Al0 O5 1.980637 1_665
Al0 O76 2.049738 1_665
Al1 O11 1.750212 1_555
Al1 O9 1.984258 1_645
Al1 O78 2.003166 1_655
Al1 O80 2.012282 1_645
Al1 O83 2.049549 1_545
Al1 O6 2.111853 1_655
Al2 O10 1.744303 1_555
Al2 O7 1.947106 1_555
Al2 O79 1.962360 1_555
Al2 O82 1.975156 1_545
Al2 O8 2.192640 1_545
Al2 O81 2.252942 1_545
Al3 O13 1.752784 1_545
Al3 O85 1.894501 1_555
Al3 O89 1.905298 1_545
Al3 O14 1.928158 1_655
Al3 O16 1.946806 1_645
Al3 O86 2.154460 1_655
Al4 O12 1.711009 1_555
Al4 O87 1.873805 1_565
Al4 O17 1.942341 1_555
Al4 O15 1.982785 1_565
Al4 O88 2.060921 1_555
Al4 O84 2.083988 1_565
Al5 O19 1.770526 1_555
Al5 O22 1.920166 1_655
Al5 O20 1.935013 1_665
Al5 O93 1.966263 1_555
Al5 O91 2.010471 1_655
Al5 O94 2.127723 1_665
Al6 O18 1.846677 1_545
Al6 O23 1.938857 1_545
Al6 O95 1.939623 1_555
Al6 O21 1.975349 1_555
Al6 O90 1.991986 1_545
Al6 O92 2.005505 1_545
Al7 O96 1.773504 1_555
Al7 O26 1.854114 1_555
Al7 O24 1.866075 1_555
Al7 O28 1.971596 1_555
Al7 O98 2.124722 1_555
Al7 O100 2.171069 1_555
Al8 O114 1.840830 1_555
Al8 O44 1.919915 1_555
Al8 O46 1.929428 1_555
Al8 O42 1.966028 1_555
Al8 O116 1.970348 1_555
Al8 O118 2.039124 1_555
Al9 O120 1.941016 1_555
Al9 O124 1.946497 1_555
Al9 O50 1.959539 1_554
Al9 O122 1.969658 1_555
Al9 O48 1.978429 1_554
Al9 O52 2.006607 1_554
Al10 O123 1.938380 1_555
Al10 O125 1.962455 1_555
Al10 O53 1.965230 1_554
Al10 O51 1.966949 1_554
Al10 O121 1.976534 1_555
Al10 O49 1.991227 1_554
Al11 O135 1.814765 1_555
Al11 O65 1.847197 1_555
Al11 O137 1.972345 1_555
Al11 O63 2.023441 1_555
Al11 O133 2.170009 1_555
Al11 O61 2.209282 1_555
O0 S0 1.483294 1_555
O1 S1 1.446383 1_545
O2 S2 1.457875 1_555
O3 Si0 1.622219 1_555
O4 S4 1.445470 1_555
O5 S3 1.480568 1_555
O6 S5 1.481051 1_555
O7 S6 1.495919 1_555
O8 S8 1.487642 1_555
O9 S7 1.482072 1_555
O10 Si1 1.652801 1_555
O11 Si2 1.647180 1_555
O12 Si1 1.627343 1_565
O13 Si2 1.629767 1_565
O14 S5 1.476423 1_555
O15 S6 1.474106 1_555
O16 S7 1.480287 1_555
O17 S8 1.485338 1_555
O18 S2 1.498938 1_555
O19 Si0 1.651901 1_555
O20 S3 1.484303 1_555
O21 S4 1.508957 1_555
O22 S0 1.493156 1_565
O23 S1 1.499737 1_555
O24 S9 1.484869 1_555
O25 S10 1.476114 1_555
O26 S11 1.489025 1_555
O27 S12 1.476312 1_555
O28 S13 1.500829 1_555
O29 S14 1.478554 1_555
O30 S15 1.467753 1_555
O31 S16 1.482081 1_555
O32 S17 1.471535 1_555
O33 S18 1.478794 1_555
O34 S19 1.472060 1_555
O35 S20 1.467195 1_555
O36 S19 1.470332 1_555
O37 S20 1.466534 1_555
O38 S15 1.467648 1_555
O39 S16 1.464711 1_555
O40 S17 1.465788 1_555
O41 S18 1.462387 1_555
O42 S11 1.490815 1_555
O43 S12 1.465353 1_555
O44 S13 1.498484 1_555
O45 S14 1.464135 1_555
O46 S9 1.492743 1_555
O47 S10 1.470682 1_555
O48 S21 1.502319 1_555
O49 S22 1.503335 1_555
O50 S23 1.499646 1_555
O51 S24 1.499675 1_555
O52 S25 1.504444 1_555
O53 S26 1.508443 1_555
O54 S27 1.459684 1_555
O55 S28 1.464962 1_555
O56 S29 1.467236 1_555
O57 S30 1.462102 1_555
O58 S31 1.467167 1_555
O59 S32 1.460521 1_555
O60 S31 1.484562 1_555
O61 S32 1.495631 1_555
O62 S27 1.474762 1_555
O63 S28 1.505645 1_555
O64 S29 1.472632 1_555
O65 S30 1.503428 1_555
O66 S23 1.470142 1_555
O67 S24 1.451478 1_555
O68 S25 1.453041 1_555
O69 S26 1.473558 1_555
O70 S21 1.466719 1_555
O71 S22 1.469249 1_555
O72 S31 1.505068 1_555
O73 S32 1.475391 1_555
O74 S27 1.470250 1_545
O75 S28 1.502739 1_555
O76 S29 1.498416 1_555
O77 S30 1.466757 1_555
O78 S23 1.511721 1_555
O79 S24 1.518683 1_555
O80 S25 1.515229 1_555
O81 S26 1.494268 1_555
O82 S21 1.515810 1_555
O83 S22 1.504133 1_555
O84 S9 1.497548 1_555
O85 S10 1.499287 1_555
O86 S11 1.483936 1_555
O87 S12 1.512126 1_555
O88 S13 1.491483 1_555
O89 S14 1.507879 1_555
O90 S15 1.503977 1_555
O91 S16 1.499743 1_455
O92 S17 1.498535 1_565
O93 S18 1.499092 1_565
O94 S19 1.491393 1_555
O95 S20 1.505985 1_555
O96 Si1 1.650706 1_555
O97 Si2 1.645746 1_555
O98 S5 1.496946 1_555
O99 S6 1.498483 1_555
O100 S8 1.497819 1_555
O101 S7 1.496010 1_655
O102 S2 1.467222 1_555
O103 Si0 1.622808 1_555
O104 S4 1.472422 1_555
O105 S3 1.496656 1_655
O106 S0 1.467077 1_555
O107 S1 1.486737 1_545
O108 S21 1.462273 1_555
O109 S22 1.472302 1_555
O110 S24 1.466940 1_555
O111 S23 1.472492 1_655
O112 S25 1.469363 1_545
O113 S26 1.475250 1_545
O114 S27 1.495675 1_545
O115 S28 1.480926 1_545
O116 S29 1.505695 1_555
O117 S30 1.476535 1_555
O118 S32 1.518193 1_555
O119 S31 1.473897 1_655
O120 S19 1.516244 1_555
O121 S20 1.501196 1_555
O122 S16 1.502896 1_455
O123 S15 1.509779 1_555
O124 S17 1.509758 1_565
O125 S18 1.505878 1_565
O126 S11 1.473431 1_565
O127 S12 1.471431 1_565
O128 S13 1.465204 1_555
O129 S14 1.477242 1_555
O130 S10 1.471596 1_455
O131 S9 1.466827 1_555
O132 S0 1.491359 1_565
O133 S1 1.509221 1_555
O134 S2 1.485428 1_555
O135 Si0 1.665693 1_555
O136 S3 1.480117 1_555
O137 S4 1.510995 1_555
O138 S5 1.496701 1_555
O139 S6 1.472851 1_555
O140 S7 1.477013 1_555
O141 S8 1.476075 1_555
O142 Si1 1.628664 1_565
O143 Si2 1.645002 1_565
