# generated using pymatgen
data_Na3Zr2Si2PO12
_symmetry_space_group_name_H-M   'P 1'
_cell_length_a   16.04222953
_cell_length_b   9.24552917
_cell_length_c   9.23461971
_cell_angle_alpha   90.00000000
_cell_angle_beta   124.90969328
_cell_angle_gamma   90.00000000
_symmetry_Int_Tables_number   1
_chemical_formula_structural   Na3Zr2Si2PO12
_chemical_formula_sum   'Na12 Zr8 Si8 P4 O48'
_cell_volume   1123.20371700
_cell_formula_units_Z   4
loop_
 _symmetry_equiv_pos_site_id
 _symmetry_equiv_pos_as_xyz
  1  'x, y, z'
loop_
 _atom_site_type_symbol
 _atom_site_label
 _atom_site_symmetry_multiplicity
 _atom_site_fract_x
 _atom_site_fract_y
 _atom_site_fract_z
 _atom_site_occupancy
  Na  Na0  1  0.24231251  0.77461372  0.99502777  1
  Na  Na1  1  0.74231251  0.72538628  0.49502777  1
  Na  Na2  1  0.74231251  0.27461372  0.99502777  1
  Na  Na3  1  0.24231251  0.22538628  0.49502777  1
  Na  Na4  1  0.50348534  0.10410600  0.75139395  1
  Na  Na5  1  0.50348534  0.89589400  0.25139395  1
  Na  Na6  1  0.00348534  0.60410600  0.75139395  1
  Na  Na7  1  0.00348534  0.39589400  0.25139395  1
  Na  Na8  1  0.80805667  0.93545104  0.20826188  1
  Na  Na9  1  0.80805667  0.06454896  0.70826188  1
  Na  Na10  1  0.30805667  0.43545104  0.20826188  1
  Na  Na11  1  0.30805667  0.56454896  0.70826188  1
  Zr  Zr0  1  0.10558629  0.75039530  0.56018722  1
  Zr  Zr1  1  0.89525426  0.74405006  0.93569396  1
  Zr  Zr2  1  0.89525426  0.25594994  0.43569396  1
  Zr  Zr3  1  0.10558629  0.24960470  0.06018722  1
  Zr  Zr4  1  0.60558629  0.25039530  0.56018722  1
  Zr  Zr5  1  0.39525426  0.24405006  0.93569396  1
  Zr  Zr6  1  0.39525426  0.75594994  0.43569396  1
  Zr  Zr7  1  0.60558629  0.74960470  0.06018722  1
  Si  Si0  1  0.35477151  0.89562591  0.75825542  1
  Si  Si1  1  0.64919063  0.89727439  0.74454982  1
  Si  Si2  1  0.64919063  0.10272561  0.24454982  1
  Si  Si3  1  0.35477151  0.10437409  0.25825542  1
  Si  Si4  1  0.85477151  0.39562591  0.75825542  1
  Si  Si5  1  0.14919063  0.39727439  0.74454982  1
  Si  Si6  1  0.14919063  0.60272561  0.24454982  1
  Si  Si7  1  0.85477151  0.60437409  0.25825542  1
  P  P0  1  0.00054282  0.95821438  0.74633689  1
  P  P1  1  0.00054282  0.04178562  0.24633689  1
  P  P2  1  0.50054282  0.45821438  0.74633689  1
  P  P3  1  0.50054282  0.54178562  0.24633689  1
  O  O0  1  0.15231239  0.57697371  0.74443032  1
  O  O1  1  0.85089394  0.57403681  0.75183703  1
  O  O2  1  0.85089394  0.42596319  0.25183703  1
  O  O3  1  0.15231239  0.42302629  0.24443032  1
  O  O4  1  0.65231239  0.07697371  0.74443032  1
  O  O5  1  0.35089394  0.07403681  0.75183703  1
  O  O6  1  0.35089394  0.92596319  0.25183703  1
  O  O7  1  0.65231239  0.92302629  0.24443032  1
  O  O8  1  0.43697699  0.55016499  0.57587083  1
  O  O9  1  0.55928837  0.55968473  0.90886757  1
  O  O10  1  0.55928837  0.44031527  0.40886757  1
  O  O11  1  0.43697699  0.44983501  0.07587083  1
  O  O12  1  0.93697699  0.05016499  0.57587083  1
  O  O13  1  0.05928837  0.05968473  0.90886757  1
  O  O14  1  0.05928837  0.94031527  0.40886757  1
  O  O15  1  0.93697699  0.94983501  0.07587083  1
  O  O16  1  0.25800392  0.82039097  0.74437440  1
  O  O17  1  0.74899478  0.84021111  0.75275207  1
  O  O18  1  0.74899478  0.15978889  0.25275207  1
  O  O19  1  0.25800392  0.17960903  0.24437440  1
  O  O20  1  0.75800392  0.32039097  0.74437440  1
  O  O21  1  0.24899478  0.34021111  0.75275207  1
  O  O22  1  0.24899478  0.65978889  0.25275207  1
  O  O23  1  0.75800392  0.67960903  0.24437440  1
  O  O24  1  0.35960033  0.84262985  0.59196119  1
  O  O25  1  0.65102980  0.85598234  0.92132657  1
  O  O26  1  0.65102980  0.14401766  0.42132657  1
  O  O27  1  0.35960033  0.15737015  0.09196119  1
  O  O28  1  0.85960033  0.34262985  0.59196119  1
  O  O29  1  0.15102980  0.35598234  0.92132657  1
  O  O30  1  0.15102980  0.64401766  0.42132657  1
  O  O31  1  0.85960033  0.65737015  0.09196119  1
  O  O32  1  0.46040456  0.83814680  0.93971778  1
  O  O33  1  0.54341232  0.83489942  0.56745582  1
  O  O34  1  0.54341232  0.16510058  0.06745582  1
  O  O35  1  0.46040456  0.16185320  0.43971778  1
  O  O36  1  0.96040456  0.33814680  0.93971778  1
  O  O37  1  0.04341232  0.33489942  0.56745582  1
  O  O38  1  0.04341232  0.66510058  0.06745582  1
  O  O39  1  0.96040456  0.66185320  0.43971778  1
  O  O40  1  0.07673871  0.85561250  0.74540620  1
  O  O41  1  0.92314385  0.86401091  0.75629333  1
  O  O42  1  0.92314385  0.13598909  0.25629333  1
  O  O43  1  0.07673871  0.14438750  0.24540620  1
  O  O44  1  0.57673871  0.35561250  0.74540620  1
  O  O45  1  0.42314385  0.36401091  0.75629333  1
  O  O46  1  0.42314385  0.63598909  0.25629333  1
  O  O47  1  0.57673871  0.64438750  0.24540620  1
loop_
_geom_bond_atom_site_label_1
_geom_bond_atom_site_label_2
_geom_bond_distance
_geom_bond_site_symmetry_2
Na0 O6 2.426573 1_556
Na0 O40 2.433464 1_555
Na0 O16 2.503433 1_555
Na0 O22 2.551634 1_556
Na0 O0 2.637175 1_555
Na0 O46 2.805039 1_556
Na1 O1 2.426573 1_555
Na1 O47 2.433464 1_555
Na1 O23 2.503433 1_555
Na1 O17 2.551634 1_555
Na1 O7 2.637175 1_555
Na1 O41 2.805039 1_555
Na2 O2 2.426573 1_556
Na2 O44 2.433464 1_555
Na2 O20 2.503433 1_555
Na2 O18 2.551634 1_556
Na2 O4 2.637175 1_555
Na2 O42 2.805039 1_556
Na3 O5 2.426573 1_555
Na3 O43 2.433464 1_555
Na3 O19 2.503433 1_555
Na3 O21 2.551634 1_555
Na3 O3 2.637175 1_555
Na3 O45 2.805039 1_555
Na4 O4 2.437833 1_555
Na4 O5 2.465971 1_555
Na4 O35 2.601932 1_555
Na4 O44 2.620205 1_555
Na4 O34 2.665970 1_556
Na4 O45 2.739371 1_555
Na5 O7 2.437833 1_555
Na5 O6 2.465971 1_555
Na5 O32 2.601932 1_554
Na5 O47 2.620205 1_555
Na5 O33 2.665970 1_555
Na5 O46 2.739371 1_555
Na6 O0 2.437833 1_555
Na6 O1 2.465971 1_455
Na6 O39 2.601932 1_455
Na6 O40 2.620205 1_555
Na6 O38 2.665970 1_556
Na6 O41 2.739371 1_455
Na7 O3 2.437833 1_555
Na7 O2 2.465971 1_455
Na7 O36 2.601932 1_454
Na7 O43 2.620205 1_555
Na7 O37 2.665970 1_555
Na7 O42 2.739371 1_455
Na8 O18 2.411236 1_565
Na8 O42 2.470974 1_565
Na8 O25 2.503354 1_554
Na8 O23 2.580219 1_555
Na8 O7 2.705979 1_555
Na9 O17 2.411236 1_545
Na9 O41 2.470974 1_545
Na9 O26 2.503354 1_555
Na9 O20 2.580219 1_555
Na9 O4 2.705979 1_555
Na10 O22 2.411236 1_555
Na10 O46 2.470974 1_555
Na10 O29 2.503354 1_554
Na10 O19 2.580219 1_555
Na10 O3 2.705979 1_555
Na11 O21 2.411236 1_555
Na11 O45 2.470974 1_555
Na11 O30 2.503354 1_555
Na11 O16 2.580219 1_555
Na11 O0 2.705979 1_555
O0 Si5 1.662189 1_555
O0 Zr0 2.137233 1_555
O1 Si4 1.650462 1_555
O1 Zr1 2.115878 1_555
O2 Si7 1.650462 1_555
O2 Zr2 2.115878 1_555
O3 Si6 1.662189 1_555
O3 Zr3 2.137233 1_555
O4 Si1 1.662189 1_545
O4 Zr4 2.137233 1_555
O5 Si0 1.650462 1_545
O5 Zr5 2.115878 1_555
O6 Si3 1.650462 1_565
O6 Zr6 2.115878 1_555
O7 Si2 1.662189 1_565
O7 Zr7 2.137233 1_555
O8 P2 1.550268 1_555
O8 Zr6 2.179871 1_555
O9 P2 1.549846 1_555
O9 Zr7 2.097527 1_556
O10 P3 1.549846 1_555
O10 Zr4 2.097527 1_555
O11 P3 1.550268 1_555
O11 Zr5 2.179871 1_554
O12 P0 1.550268 1_645
O12 Zr2 2.179871 1_555
O13 P0 1.549846 1_545
O13 Zr3 2.097527 1_556
O14 P1 1.549846 1_565
O14 Zr0 2.097527 1_555
O15 P1 1.550268 1_665
O15 Zr1 2.179871 1_554
O16 Si0 1.637791 1_555
O16 Zr0 2.128453 1_555
O17 Si1 1.645823 1_555
O17 Zr1 2.147746 1_555
O18 Si2 1.645823 1_555
O18 Zr2 2.147746 1_555
O19 Si3 1.637791 1_555
O19 Zr3 2.128453 1_555
O20 Si4 1.637791 1_555
O20 Zr4 2.128453 1_555
O21 Si5 1.645823 1_555
O21 Zr5 2.147746 1_555
O22 Si6 1.645823 1_555
O22 Zr6 2.147746 1_555
O23 Si7 1.637791 1_555
O23 Zr7 2.128453 1_555
O24 Si0 1.655446 1_555
O24 Zr6 1.999139 1_555
O25 Si1 1.660251 1_555
O25 Zr7 2.052586 1_556
O26 Si2 1.660251 1_555
O26 Zr4 2.052586 1_555
O27 Si3 1.655446 1_555
O27 Zr5 1.999139 1_554
O28 Si4 1.655446 1_555
O28 Zr2 1.999139 1_555
O29 Si5 1.660251 1_555
O29 Zr3 2.052586 1_556
O30 Si6 1.660251 1_555
O30 Zr0 2.052586 1_555
O31 Si7 1.655446 1_555
O31 Zr1 1.999139 1_554
O32 Si0 1.646791 1_555
O32 Zr7 2.089635 1_556
O33 Si1 1.646297 1_555
O33 Zr6 2.086226 1_555
O34 Si2 1.646297 1_555
O34 Zr5 2.086226 1_554
O35 Si3 1.646791 1_555
O35 Zr4 2.089635 1_555
O36 Si4 1.646791 1_555
O36 Zr3 2.089635 1_656
O37 Si5 1.646297 1_555
O37 Zr2 2.086226 1_455
O38 Si6 1.646297 1_555
O38 Zr1 2.086226 1_454
O39 Si7 1.646791 1_555
O39 Zr0 2.089635 1_655
O40 P0 1.551161 1_555
O40 Zr0 2.234284 1_555
O41 P0 1.561856 1_655
O41 Zr1 2.241274 1_555
O42 P1 1.561856 1_655
O42 Zr2 2.241274 1_555
O43 P1 1.551161 1_555
O43 Zr3 2.234284 1_555
O44 P2 1.551161 1_555
O44 Zr4 2.234284 1_555
O45 P2 1.561856 1_555
O45 Zr5 2.241274 1_555
O46 P3 1.561856 1_555
O46 Zr6 2.241274 1_555
O47 P3 1.551161 1_555
O47 Zr7 2.234284 1_555
