# generated using pymatgen
data_MgMn6(O5F)2
_symmetry_space_group_name_H-M   'P 1'
_cell_length_a   5.08824621
_cell_length_b   14.11597489
_cell_length_c   2.97898083
_cell_angle_alpha   90.00000000
_cell_angle_beta   90.00000000
_cell_angle_gamma   97.87088534
_symmetry_Int_Tables_number   1
_chemical_formula_structural   MgMn6(O5F)2
_chemical_formula_sum   'Mg1 Mn6 O10 F2'
_cell_volume   211.95120910
_cell_formula_units_Z   1
loop_
 _symmetry_equiv_pos_site_id
 _symmetry_equiv_pos_as_xyz
  1  'x, y, z'
loop_
 _atom_site_type_symbol
 _atom_site_label
 _atom_site_symmetry_multiplicity
 _atom_site_fract_x
 _atom_site_fract_y
 _atom_site_fract_z
 _atom_site_occupancy
  Mg  Mg0  1  0.42343963  0.31999901  0.00000000  1
  Mn  Mn0  1  0.02380223  0.98909656  0.00000000  1
  Mn  Mn1  1  0.92439467  0.36559049  0.00000000  1
  Mn  Mn2  1  0.03540592  0.66339960  0.00000000  1
  Mn  Mn3  1  0.57066768  0.13292698  0.50000000  1
  Mn  Mn4  1  0.48039916  0.51691095  0.50000000  1
  Mn  Mn5  1  0.47456797  0.84521294  0.50000000  1
  O  O0  1  0.18982443  0.60233343  0.50000000  1
  O  O1  1  0.17857422  0.92660793  0.50000000  1
  O  O2  1  0.35069251  0.08224120  0.00000000  1
  O  O3  1  0.33217401  0.76407554  0.00000000  1
  O  O4  1  0.27523899  0.44873880  0.00000000  1
  O  O5  1  0.68276315  0.22564290  0.00000000  1
  O  O6  1  0.69235583  0.57171260  0.00000000  1
  O  O7  1  0.69563179  0.89674714  0.00000000  1
  O  O8  1  0.87784434  0.05461068  0.50000000  1
  O  O9  1  0.66751665  0.39519734  0.50000000  1
  F  F0  1  0.17328171  0.28122338  0.50000000  1
  F  F1  1  0.86809211  0.72791751  0.50000000  1
loop_
_geom_bond_atom_site_label_1
_geom_bond_atom_site_label_2
_geom_bond_distance
_geom_bond_site_symmetry_2
Mg0 O5 1.999115 1_555
Mg0 O4 2.060703 1_555
Mg0 O9 2.127598 1_555
Mg0 O9 2.127598 1_554
Mn0 O1 1.951179 1_555
Mn0 O1 1.951179 1_554
Mn0 O8 1.952817 1_464
Mn0 O8 1.952817 1_465
Mn0 O7 1.972681 1_455
Mn0 O2 1.973921 1_565
Mn1 O4 1.997655 1_655
Mn1 O9 2.061858 1_555
Mn1 O9 2.061858 1_554
Mn1 O5 2.179219 1_555
Mn2 O3 1.926677 1_555
Mn2 O0 1.940231 1_555
Mn2 O0 1.940231 1_554
Mn2 O6 2.025635 1_455
Mn3 O2 1.940094 1_556
Mn3 O2 1.940094 1_555
Mn3 O5 2.013044 1_555
Mn3 O5 2.013044 1_556
Mn3 O8 2.034290 1_555
Mn4 O6 1.936916 1_555
Mn4 O6 1.936916 1_556
Mn4 O4 1.989784 1_555
Mn4 O4 1.989784 1_556
Mn4 O0 2.031822 1_555
Mn4 O9 2.075187 1_555
Mn5 O7 1.946510 1_556
Mn5 O7 1.946510 1_555
Mn5 O3 1.956539 1_556
Mn5 O3 1.956539 1_555
Mn5 O1 2.015534 1_555
F0 Mg0 1.986844 1_555
F0 Mg0 1.986844 1_556
F0 Mn1 2.377754 1_456
F0 Mn1 2.377754 1_455
F1 Mn2 1.996281 1_655
F1 Mn2 1.996281 1_656
