# generated using pymatgen
data_CeNi
_symmetry_space_group_name_H-M   'P 1'
_cell_length_a   3.56971008
_cell_length_b   4.19071252
_cell_length_c   5.74011526
_cell_angle_alpha   90.00000000
_cell_angle_beta   108.11610746
_cell_angle_gamma   90.00000000
_symmetry_Int_Tables_number   1
_chemical_formula_structural   CeNi
_chemical_formula_sum   'Ce2 Ni2'
_cell_volume   81.61327623
_cell_formula_units_Z   2
loop_
 _symmetry_equiv_pos_site_id
 _symmetry_equiv_pos_as_xyz
  1  'x, y, z'
loop_
 _atom_site_type_symbol
 _atom_site_label
 _atom_site_symmetry_multiplicity
 _atom_site_fract_x
 _atom_site_fract_y
 _atom_site_fract_z
 _atom_site_occupancy
  Ce  Ce0  1  0.13647040  0.75000000  0.27294280  1
  Ce  Ce1  1  0.86362317  0.25000000  0.72724434  1
  Ni  Ni0  1  0.42254134  0.75000000  0.84508068  1
  Ni  Ni1  1  0.57736609  0.25000000  0.15473318  1
loop_
_geom_bond_atom_site_label_1
_geom_bond_atom_site_label_2
_geom_bond_distance
_geom_bond_site_symmetry_2
Ce0 Ni1 2.827033 1_465
Ce0 Ni1 2.827033 1_455
Ce0 Ni1 2.827035 1_555
Ce0 Ni1 2.827035 1_565
Ce0 Ni0 2.938421 1_454
Ce0 Ni0 2.938429 1_554
Ce0 Ni0 3.121337 1_555
Ce1 Ni0 2.826570 1_555
Ce1 Ni0 2.826570 1_545
Ce1 Ni0 2.826571 1_645
Ce1 Ni0 2.826571 1_655
Ce1 Ni1 2.936805 1_656
Ce1 Ni1 2.936810 1_556
Ce1 Ni1 3.123374 1_555
Ni0 Ni1 2.691534 1_566
Ni0 Ni1 2.691534 1_556
