# generated using pymatgen
data_Na2Y4Hf4Si3(S3O16)3
_symmetry_space_group_name_H-M   'P 1'
_cell_length_a   18.19345391
_cell_length_b   9.08397155
_cell_length_c   23.74275976
_cell_angle_alpha   89.94464677
_cell_angle_beta   90.02375700
_cell_angle_gamma   120.02913854
_symmetry_Int_Tables_number   1
_chemical_formula_structural   Na2Y4Hf4Si3(S3O16)3
_chemical_formula_sum   'Na6 Y12 Hf12 Si9 S27 O144'
_cell_volume   3397.23002878
_cell_formula_units_Z   3
loop_
 _symmetry_equiv_pos_site_id
 _symmetry_equiv_pos_as_xyz
  1  'x, y, z'
loop_
 _atom_site_type_symbol
 _atom_site_label
 _atom_site_symmetry_multiplicity
 _atom_site_fract_x
 _atom_site_fract_y
 _atom_site_fract_z
 _atom_site_occupancy
  Na  Na0  1  0.99465842  0.01374937  0.50050819  1
  Na  Na1  1  0.49575987  0.97729601  0.00575962  1
  Na  Na2  1  0.32429977  0.31646879  0.84057473  1
  Na  Na3  1  0.82555306  0.32970216  0.82954296  1
  Na  Na4  1  0.32828996  0.32282919  0.32768136  1
  Na  Na5  1  0.81643308  0.32147646  0.33488429  1
  Y  Y0  1  0.00458176  0.00168437  0.34976661  1
  Y  Y1  1  0.50586097  0.00897622  0.85139706  1
  Y  Y2  1  0.99887085  0.00690888  0.64612659  1
  Y  Y3  1  0.50296278  0.98921914  0.14881788  1
  Y  Y4  1  0.32884679  0.33245908  0.98295586  1
  Y  Y5  1  0.83980499  0.34508108  0.98383350  1
  Y  Y6  1  0.33977569  0.33280573  0.48116619  1
  Y  Y7  1  0.82955351  0.32546373  0.48094901  1
  Y  Y8  1  0.16491789  0.67446079  0.30568689  1
  Y  Y9  1  0.66939001  0.66621747  0.30901289  1
  Y  Y10  1  0.17004100  0.67780357  0.81215021  1
  Y  Y11  1  0.66403239  0.65487792  0.80647607  1
  Hf  Hf0  1  0.51214631  0.01565962  0.35460956  1
  Hf  Hf1  1  0.00383664  0.99755438  0.85810759  1
  Hf  Hf2  1  0.50674886  0.01872169  0.64540780  1
  Hf  Hf3  1  0.00574610  0.99299143  0.14599827  1
  Hf  Hf4  1  0.33809626  0.33595394  0.68135659  1
  Hf  Hf5  1  0.83511718  0.33482294  0.68281474  1
  Hf  Hf6  1  0.33728472  0.33849326  0.18457485  1
  Hf  Hf7  1  0.83282628  0.33121443  0.18528154  1
  Hf  Hf8  1  0.16143078  0.67841504  0.02312342  1
  Hf  Hf9  1  0.66387558  0.66883176  0.02597026  1
  Hf  Hf10  1  0.16460430  0.66084564  0.52309122  1
  Hf  Hf11  1  0.66048992  0.64561267  0.51913751  1
  Si  Si0  1  0.15062659  0.01464841  0.24832010  1
  Si  Si1  1  0.65115053  0.01152538  0.25060664  1
  Si  Si2  1  0.65097010  0.28766194  0.74834220  1
  Si  Si3  1  0.48152133  0.33555692  0.58355936  1
  Si  Si4  1  0.97992872  0.33582412  0.58191956  1
  Si  Si5  1  0.47853266  0.62727858  0.08128953  1
  Si  Si6  1  0.97890190  0.62442847  0.08550968  1
  Si  Si7  1  0.16870912  0.96028295  0.91566943  1
  Si  Si8  1  0.66773961  0.37582349  0.41456102  1
  S  S0  1  0.35699550  0.70312669  0.25184743  1
  S  S1  1  0.85808457  0.70729904  0.24602512  1
  S  S2  1  0.99481062  0.28398428  0.24688853  1
  S  S3  1  0.49419064  0.28313680  0.25029003  1
  S  S4  1  0.14788537  0.28446227  0.75167154  1
  S  S5  1  0.99534151  0.70595008  0.75082366  1
  S  S6  1  0.49309642  0.70397303  0.74700778  1
  S  S7  1  0.35696302  0.00793811  0.74603867  1
  S  S8  1  0.85797156  0.01184336  0.75181253  1
  S  S9  1  0.18942544  0.03972666  0.58270363  1
  S  S10  1  0.68657645  0.03650841  0.58538551  1
  S  S11  1  0.33322757  0.62647037  0.58490700  1
  S  S12  1  0.83046454  0.62280094  0.58294050  1
  S  S13  1  0.33130187  0.03930412  0.08330114  1
  S  S14  1  0.83353687  0.03968971  0.08505061  1
  S  S15  1  0.18630352  0.33681760  0.08550774  1
  S  S16  1  0.68853390  0.33868249  0.08202306  1
  S  S17  1  0.31150823  0.66953364  0.91827246  1
  S  S18  1  0.81262160  0.67121002  0.91529637  1
  S  S19  1  0.02271054  0.37279367  0.91543216  1
  S  S20  1  0.52394393  0.38018384  0.91931581  1
  S  S21  1  0.66674499  0.95263474  0.91863834  1
  S  S22  1  0.31184876  0.95122131  0.41602422  1
  S  S23  1  0.81222040  0.95229083  0.41908365  1
  S  S24  1  0.16585440  0.37934149  0.41891476  1
  S  S25  1  0.02444945  0.66926943  0.41913770  1
  S  S26  1  0.52294714  0.67314551  0.41594790  1
  O  O0  1  0.11070024  0.04819939  0.30543081  1
  O  O1  1  0.60064678  0.03790187  0.30597363  1
  O  O2  1  0.41050649  0.78566226  0.30197214  1
  O  O3  1  0.90778807  0.77731661  0.29851917  1
  O  O4  1  0.47992170  0.17280615  0.30090026  1
  O  O5  1  0.97869344  0.18217664  0.29917680  1
  O  O6  1  0.10357142  0.17359197  0.80190306  1
  O  O7  1  0.61030934  0.17256983  0.80502963  1
  O  O8  1  0.47665128  0.77231215  0.79913948  1
  O  O9  1  0.98343562  0.79303412  0.80128630  1
  O  O10  1  0.40666165  0.04008103  0.79845557  1
  O  O11  1  0.91257711  0.03600589  0.80184403  1
  O  O12  1  0.40092481  0.98656192  0.69722517  1
  O  O13  1  0.89449528  0.98206839  0.70095430  1
  O  O14  1  0.09750214  0.20802531  0.70073919  1
  O  O15  1  0.58774966  0.18294236  0.69509267  1
  O  O16  1  0.00824264  0.80747666  0.70029316  1
  O  O17  1  0.50261727  0.80862510  0.69752564  1
  O  O18  1  0.39115435  0.80429973  0.20042980  1
  O  O19  1  0.90240607  0.81946554  0.19730867  1
  O  O20  1  0.00417664  0.19707193  0.19750006  1
  O  O21  1  0.50430622  0.20735767  0.19898262  1
  O  O22  1  0.08775329  0.99281923  0.19508089  1
  O  O23  1  0.59591588  0.98764694  0.19537742  1
  O  O24  1  0.43006228  0.36201558  0.63820799  1
  O  O25  1  0.93280697  0.36094744  0.63848768  1
  O  O26  1  0.24286167  0.12509443  0.63385372  1
  O  O27  1  0.74355054  0.12654018  0.63524431  1
  O  O28  1  0.31485803  0.50746204  0.63467262  1
  O  O29  1  0.81803695  0.51385866  0.63410559  1
  O  O30  1  0.43125100  0.50597545  0.13724223  1
  O  O31  1  0.92800614  0.49515279  0.13808623  1
  O  O32  1  0.31778820  0.12223465  0.13360982  1
  O  O33  1  0.81442435  0.11867316  0.13392756  1
  O  O34  1  0.24329906  0.36300270  0.13455742  1
  O  O35  1  0.74124478  0.36190160  0.13265035  1
  O  O36  1  0.21806916  0.29263451  0.03504572  1
  O  O37  1  0.72548460  0.30569502  0.03153671  1
  O  O38  1  0.42435532  0.53805495  0.02586670  1
  O  O39  1  0.92377091  0.54879821  0.02861585  1
  O  O40  1  0.34323282  0.13987627  0.03224828  1
  O  O41  1  0.84884257  0.14296502  0.03384850  1
  O  O42  1  0.22513005  0.14753604  0.53276890  1
  O  O43  1  0.71866891  0.14587787  0.53561749  1
  O  O44  1  0.34880360  0.55273655  0.53467819  1
  O  O45  1  0.84506607  0.54775666  0.53282079  1
  O  O46  1  0.42122595  0.29756995  0.53009894  1
  O  O47  1  0.92303877  0.30573928  0.52754245  1
  O  O48  1  0.26631536  0.68104881  0.96854762  1
  O  O49  1  0.77424532  0.69512305  0.96684983  1
  O  O50  1  0.07411203  0.44993711  0.96668269  1
  O  O51  1  0.57907810  0.47131484  0.96906326  1
  O  O52  1  0.15548638  0.83811682  0.97149226  1
  O  O53  1  0.66110250  0.84835630  0.96934403  1
  O  O54  1  0.26967456  0.84990401  0.46809247  1
  O  O55  1  0.76659435  0.85121209  0.47013852  1
  O  O56  1  0.16030692  0.47278145  0.47000780  1
  O  O57  1  0.65589910  0.47259047  0.47204636  1
  O  O58  1  0.07955005  0.68746028  0.46954259  1
  O  O59  1  0.57454599  0.69521271  0.46791851  1
  O  O60  1  0.06362413  0.64986456  0.36775451  1
  O  O61  1  0.56087814  0.64329601  0.36621269  1
  O  O62  1  0.25763226  0.87075292  0.36655844  1
  O  O63  1  0.76480330  0.87528237  0.36726794  1
  O  O64  1  0.17422028  0.47545596  0.36768073  1
  O  O65  1  0.68081626  0.49010228  0.36059075  1
  O  O66  1  0.06146565  0.47632078  0.86490053  1
  O  O67  1  0.56311747  0.47735832  0.86737702  1
  O  O68  1  0.17906178  0.87089948  0.85994579  1
  O  O69  1  0.67476832  0.87313661  0.86706226  1
  O  O70  1  0.26338608  0.65048596  0.86589989  1
  O  O71  1  0.75999131  0.64690660  0.86525052  1
  O  O72  1  0.01779782  0.82594117  0.41748704  1
  O  O73  1  0.51387478  0.82608145  0.40892050  1
  O  O74  1  0.39552973  0.96581778  0.40849221  1
  O  O75  1  0.89765974  0.96673639  0.41721898  1
  O  O76  1  0.08693594  0.21025494  0.41852045  1
  O  O77  1  0.57828428  0.19039193  0.40757693  1
  O  O78  1  0.01418525  0.20035805  0.90612988  1
  O  O79  1  0.51680834  0.20938979  0.91678111  1
  O  O80  1  0.08026937  0.97094823  0.90455451  1
  O  O81  1  0.58763445  0.96354371  0.91756740  1
  O  O82  1  0.39651280  0.82610229  0.91489443  1
  O  O83  1  0.89826227  0.82672212  0.90581490  1
  O  O84  1  0.49101640  0.17037413  0.59788800  1
  O  O85  1  0.99676993  0.17645324  0.58856870  1
  O  O86  1  0.10284150  0.00916395  0.59147921  1
  O  O87  1  0.59997085  0.00877815  0.59781915  1
  O  O88  1  0.40670130  0.79265522  0.59824026  1
  O  O89  1  0.90637523  0.79255440  0.59133777  1
  O  O90  1  0.49307303  0.81768657  0.08430016  1
  O  O91  1  0.99127152  0.81248893  0.09747952  1
  O  O92  1  0.40599545  0.01980914  0.09053319  1
  O  O93  1  0.90681627  0.01906592  0.09719449  1
  O  O94  1  0.09951492  0.19215001  0.09724238  1
  O  O95  1  0.60104751  0.19809988  0.08827434  1
  O  O96  1  0.34513551  0.16078845  0.73718089  1
  O  O97  1  0.85114419  0.16922309  0.74446658  1
  O  O98  1  0.23319843  0.29843018  0.74538326  1
  O  O99  1  0.74585403  0.30920192  0.73719068  1
  O  O100  1  0.41514880  0.52765063  0.73883079  1
  O  O101  1  0.91634587  0.53533113  0.74528740  1
  O  O102  1  0.35027209  0.53108968  0.24406587  1
  O  O103  1  0.84926722  0.53527655  0.23753897  1
  O  O104  1  0.41523679  0.29955391  0.24470182  1
  O  O105  1  0.91863412  0.30577032  0.23900288  1
  O  O106  1  0.24523502  0.18273345  0.23673081  1
  O  O107  1  0.74564780  0.18849283  0.24249074  1
  O  O108  1  0.32182364  0.51814355  0.92090164  1
  O  O109  1  0.82416553  0.52054454  0.91987564  1
  O  O110  1  0.43871973  0.35959515  0.92383181  1
  O  O111  1  0.93552615  0.34582016  0.92107497  1
  O  O112  1  0.24828299  0.15073016  0.91909557  1
  O  O113  1  0.74164791  0.12484798  0.92369898  1
  O  O114  1  0.32095847  0.12383508  0.42124510  1
  O  O115  1  0.82292250  0.12472014  0.42238060  1
  O  O116  1  0.24088978  0.35823768  0.42495763  1
  O  O117  1  0.74772973  0.34557769  0.42097207  1
  O  O118  1  0.43579960  0.52354406  0.42269171  1
  O  O119  1  0.93958493  0.51899329  0.42464670  1
  O  O120  1  0.18081367  0.49165845  0.07513978  1
  O  O121  1  0.68610789  0.50014092  0.07251211  1
  O  O122  1  0.07199930  0.63968531  0.07359097  1
  O  O123  1  0.57376654  0.64188106  0.07177069  1
  O  O124  1  0.25414082  0.86694789  0.07584559  1
  O  O125  1  0.75697336  0.86791734  0.07443500  1
  O  O126  1  0.18611118  0.87389281  0.57441790  1
  O  O127  1  0.68113439  0.87146652  0.57677663  1
  O  O128  1  0.25668113  0.64375040  0.57569365  1
  O  O129  1  0.75472480  0.64232910  0.57589977  1
  O  O130  1  0.07508189  0.50955322  0.57132411  1
  O  O131  1  0.57328631  0.50716439  0.57365808  1
  O  O132  1  0.15774562  0.84586793  0.25393186  1
  O  O133  1  0.66379799  0.85322702  0.26133191  1
  O  O134  1  0.27043594  0.67275386  0.26039104  1
  O  O135  1  0.77368450  0.68852846  0.25013281  1
  O  O136  1  0.07085405  0.45175124  0.25371752  1
  O  O137  1  0.56730904  0.45308702  0.25813290  1
  O  O138  1  0.15837971  0.45350461  0.75988934  1
  O  O139  1  0.65813252  0.47071798  0.75415781  1
  O  O140  1  0.06821001  0.68105100  0.75902800  1
  O  O141  1  0.56803695  0.68447546  0.75358980  1
  O  O142  1  0.27256548  0.85602396  0.75073612  1
  O  O143  1  0.77230261  0.86625413  0.76013980  1
loop_
_geom_bond_atom_site_label_1
_geom_bond_atom_site_label_2
_geom_bond_distance
_geom_bond_site_symmetry_2
Na0 O75 2.540016 1_545
Na0 O85 2.550778 1_555
Na0 O76 2.605911 1_655
Na0 O72 2.774760 1_645
Na0 O89 2.834116 1_545
Na0 O86 2.935844 1_655
Na1 O90 2.346453 1_555
Na1 O82 2.705807 1_554
Na1 O81 2.721490 1_554
Na1 O92 2.739144 1_565
Na1 O95 2.773008 1_565
Na1 O79 2.870323 1_564
Na2 O112 2.359604 1_555
Na2 O108 2.661776 1_555
Na2 O110 2.752512 1_555
Na2 O98 2.758233 1_555
Na2 O96 2.951948 1_555
Na2 O100 3.011374 1_555
Na3 O99 2.583214 1_555
Na3 O97 2.666066 1_555
Na3 O101 2.669615 1_555
Na3 O109 2.767129 1_555
Na3 O113 2.818218 1_555
Na3 O111 2.907112 1_555
Na4 O106 2.577567 1_555
Na4 O104 2.601284 1_555
Na4 O102 2.629900 1_555
Na4 O114 2.823378 1_555
Na4 O116 2.912488 1_555
Na4 O118 2.945118 1_555
Na5 O117 2.462716 1_555
Na5 O107 2.525019 1_555
Na5 O115 2.779914 1_555
Na5 O103 2.881309 1_555
Na5 O119 2.959937 1_555
Na5 O105 2.988268 1_555
Hf0 O77 1.907831 1_555
Hf0 O1 1.908473 1_555
Hf0 O73 2.163183 1_545
Hf0 O4 2.200270 1_555
Hf0 O74 2.320081 1_545
Hf0 O2 2.341526 1_545
Hf1 O80 1.882241 1_555
Hf1 O78 2.094305 1_565
Hf1 O83 2.096572 1_455
Hf1 O9 2.173407 1_455
Hf1 O6 2.173504 1_565
Hf1 O11 2.289301 1_465
Hf2 O15 1.894820 1_555
Hf2 O84 1.908943 1_555
Hf2 O87 2.077604 1_555
Hf2 O12 2.178089 1_545
Hf2 O17 2.243035 1_545
Hf2 O88 2.246335 1_545
Hf3 O22 1.893409 1_555
Hf3 O91 1.912107 1_455
Hf3 O94 2.105214 1_565
Hf3 O19 2.129704 1_455
Hf3 O20 2.233883 1_565
Hf3 O93 2.250057 1_465
Hf4 O24 1.873393 1_555
Hf4 O100 2.102234 1_555
Hf4 O28 2.118994 1_555
Hf4 O96 2.122453 1_555
Hf4 O26 2.150319 1_555
Hf4 O98 2.328005 1_555
Hf5 O25 1.975278 1_555
Hf5 O99 1.995291 1_555
Hf5 O27 2.116259 1_555
Hf5 O29 2.140319 1_555
Hf5 O97 2.219242 1_555
Hf5 O101 2.238507 1_555
Hf6 O30 1.973650 1_555
Hf6 O106 1.991671 1_555
Hf6 O104 2.161918 1_555
Hf6 O102 2.168541 1_555
Hf6 O32 2.180837 1_555
Hf6 O34 2.182323 1_555
Hf7 O31 1.972133 1_555
Hf7 O107 1.995432 1_555
Hf7 O105 2.115749 1_555
Hf7 O103 2.124678 1_555
Hf7 O33 2.164178 1_555
Hf7 O35 2.208592 1_555
Hf8 O122 1.906506 1_555
Hf8 O52 1.942302 1_554
Hf8 O124 2.110962 1_555
Hf8 O120 2.263198 1_555
Hf8 O48 2.297214 1_554
Hf8 O50 2.308825 1_554
Hf9 O123 1.878645 1_555
Hf9 O121 2.085575 1_555
Hf9 O125 2.097644 1_555
Hf9 O53 2.132528 1_554
Hf9 O51 2.158098 1_554
Hf9 O49 2.362446 1_554
Hf10 O130 1.900289 1_555
Hf10 O56 2.093683 1_555
Hf10 O58 2.107523 1_555
Hf10 O126 2.151710 1_555
Hf10 O128 2.156033 1_555
Hf10 O54 2.240691 1_555
Hf11 O57 1.897188 1_555
Hf11 O131 1.943175 1_555
Hf11 O129 2.192196 1_555
Hf11 O59 2.197557 1_555
Hf11 O55 2.226477 1_555
Hf11 O127 2.336000 1_555
O0 Si0 1.637799 1_555
O0 Y0 2.049000 1_555
O1 Si1 1.688702 1_555
O2 S0 1.482046 1_555
O3 S1 1.483441 1_555
O3 Y0 2.268559 1_665
O4 S3 1.501101 1_555
O5 S2 1.486329 1_555
O5 Y0 2.263067 1_655
O6 S4 1.507478 1_555
O7 Si2 1.635788 1_555
O7 Y1 2.050261 1_555
O8 S6 1.481424 1_555
O8 Y1 2.303219 1_565
O9 S5 1.510549 1_555
O10 S7 1.478910 1_555
O10 Y1 2.329138 1_555
O11 S8 1.492480 1_555
O12 S7 1.475557 1_565
O13 S8 1.467645 1_565
O13 Y2 2.219037 1_565
O14 S4 1.465734 1_555
O14 Y2 2.227209 1_455
O15 Si2 1.652969 1_555
O16 S5 1.458238 1_455
O16 Y2 2.295548 1_465
O17 S6 1.465334 1_555
O18 S0 1.465613 1_555
O18 Y3 2.244842 1_555
O19 S1 1.484061 1_555
O20 S2 1.471054 1_455
O21 S3 1.456124 1_555
O21 Y3 2.302575 1_545
O22 Si0 1.648593 1_565
O23 Si1 1.599273 1_565
O23 Y3 2.026023 1_555
O24 Si3 1.686603 1_555
O25 Si4 1.669822 1_555
O26 S9 1.505875 1_555
O27 S10 1.515596 1_555
O28 S11 1.520776 1_555
O29 S12 1.510026 1_555
O30 Si5 1.663858 1_555
O31 Si6 1.644548 1_555
O32 S13 1.497357 1_555
O33 S14 1.494671 1_555
O34 S15 1.496908 1_555
O35 S16 1.485301 1_555
O36 S15 1.471126 1_555
O36 Y4 2.234690 1_554
O37 S16 1.477012 1_555
O37 Y5 2.234522 1_554
O38 Si5 1.600446 1_555
O38 Y4 2.073522 1_554
O39 Si6 1.616702 1_555
O39 Y5 2.015375 1_554
O40 S13 1.466506 1_555
O40 Y4 2.225472 1_554
O41 S14 1.473822 1_555
O41 Y5 2.259627 1_554
O42 S9 1.465727 1_555
O42 Y6 2.273492 1_555
O43 S10 1.463533 1_555
O43 Y7 2.262741 1_555
O44 S11 1.463884 1_555
O44 Y6 2.304103 1_555
O45 S12 1.460967 1_555
O45 Y7 2.260119 1_555
O46 Si3 1.598243 1_555
O46 Y6 2.029958 1_555
O47 Si4 1.590368 1_555
O47 Y7 2.109921 1_555
O48 S17 1.482891 1_555
O49 S18 1.478485 1_555
O50 S19 1.480230 1_555
O51 S20 1.502120 1_555
O52 Si7 1.666222 1_555
O53 S21 1.502589 1_555
O54 S22 1.501960 1_555
O55 S23 1.495779 1_555
O56 S24 1.513301 1_555
O57 Si8 1.695296 1_555
O58 S25 1.515933 1_555
O59 S26 1.501732 1_555
O60 S25 1.467745 1_555
O60 Y8 2.281951 1_555
O61 S26 1.460392 1_555
O61 Y9 2.318508 1_555
O62 S22 1.471619 1_555
O62 Y8 2.259669 1_555
O63 S23 1.464192 1_555
O63 Y9 2.288363 1_555
O64 S24 1.459550 1_555
O64 Y8 2.400832 1_555
O65 Si8 1.589575 1_555
O65 Y9 2.105036 1_555
O66 S19 1.468279 1_555
O66 Y10 2.280246 1_555
O67 S20 1.475403 1_555
O67 Y11 2.257538 1_555
O68 Si7 1.612612 1_555
O68 Y10 2.026587 1_555
O69 S21 1.466196 1_555
O69 Y11 2.378232 1_555
O70 S17 1.480054 1_555
O70 Y10 2.234656 1_555
O71 S18 1.471551 1_555
O71 Y11 2.263800 1_555
O72 S25 1.487936 1_555
O72 Y0 2.360215 1_565
O73 S26 1.488013 1_555
O74 S22 1.471577 1_555
O75 S23 1.493767 1_555
O75 Y0 2.415206 1_665
O76 S24 1.487801 1_555
O76 Y0 2.379506 1_555
O77 Si8 1.664360 1_555
O78 S19 1.511264 1_555
O79 S20 1.492036 1_555
O79 Y1 2.325145 1_555
O80 Si7 1.680361 1_555
O81 S21 1.491561 1_555
O81 Y1 2.337372 1_565
O82 S17 1.489762 1_555
O82 Y1 2.383314 1_565
O83 S18 1.506865 1_555
O84 Si3 1.629580 1_555
O85 Si4 1.630395 1_555
O85 Y2 2.072641 1_555
O86 S9 1.471181 1_555
O86 Y2 2.285863 1_455
O87 S10 1.495418 1_555
O88 S11 1.465219 1_555
O89 S12 1.481154 1_555
O89 Y2 2.244778 1_565
O90 Si5 1.615263 1_555
O90 Y3 2.128526 1_555
O91 Si6 1.632764 1_555
O92 S13 1.465661 1_555
O92 Y3 2.364829 1_545
O93 S14 1.464663 1_555
O94 S15 1.490175 1_555
O95 S16 1.466872 1_555
O95 Y3 2.336448 1_545
O96 S7 1.522128 1_555
O97 S8 1.505635 1_555
O98 S4 1.500189 1_555
O99 Si2 1.658490 1_555
O100 S6 1.530099 1_555
O101 S5 1.501923 1_555
O102 S0 1.516768 1_555
O103 S1 1.502625 1_555
O104 S3 1.522310 1_555
O105 S2 1.506389 1_555
O106 Si0 1.654965 1_555
O107 Si1 1.676491 1_555
O108 S17 1.479358 1_555
O108 Y4 2.289748 1_555
O109 S18 1.488793 1_555
O109 Y5 2.318692 1_555
O110 S20 1.469847 1_555
O110 Y4 2.352802 1_555
O111 S19 1.484953 1_655
O111 Y5 2.289885 1_555
O112 Si7 1.608994 1_545
O112 Y4 2.180299 1_555
O113 S21 1.478273 1_545
O113 Y5 2.378565 1_555
O114 S22 1.497253 1_545
O114 Y6 2.258119 1_555
O115 S23 1.480691 1_545
O115 Y7 2.249035 1_555
O116 S24 1.477397 1_555
O116 Y6 2.341894 1_555
O117 Si8 1.617554 1_555
O117 Y7 2.132438 1_555
O118 S26 1.493159 1_555
O118 Y6 2.224720 1_555
O119 S25 1.467911 1_655
O119 Y7 2.315229 1_555
O120 S15 1.479504 1_555
O121 S16 1.506070 1_555
O122 Si6 1.653328 1_455
O123 Si5 1.685504 1_555
O124 S13 1.501288 1_565
O125 S14 1.504541 1_565
O126 S9 1.490408 1_565
O127 S10 1.466729 1_565
O128 S11 1.493462 1_555
O129 S12 1.484121 1_555
O130 Si4 1.678072 1_455
O131 Si3 1.633221 1_555
O132 Si0 1.607348 1_565
O132 Y8 2.037388 1_555
O133 Si1 1.586186 1_565
O133 Y9 2.084948 1_555
O134 S0 1.470576 1_555
O134 Y8 2.207659 1_555
O135 S1 1.460983 1_555
O135 Y9 2.283107 1_555
O136 S2 1.467274 1_455
O136 Y8 2.254309 1_555
O137 S3 1.460318 1_555
O137 Y9 2.249607 1_555
O138 S4 1.462744 1_555
O138 Y10 2.303943 1_555
O139 Si2 1.607716 1_555
O139 Y11 2.043849 1_555
O140 S5 1.465088 1_455
O140 Y10 2.253153 1_555
O141 S6 1.468398 1_555
O141 Y11 2.273041 1_555
O142 S7 1.467494 1_565
O142 Y10 2.280716 1_555
O143 S8 1.467676 1_565
O143 Y11 2.233715 1_555
