# generated using pymatgen
data_MgZn(CoO2)4
_symmetry_space_group_name_H-M   'P 1'
_cell_length_a   2.95656023
_cell_length_b   7.08517513
_cell_length_c   7.84492620
_cell_angle_alpha   82.88317652
_cell_angle_beta   79.75997648
_cell_angle_gamma   78.16243233
_symmetry_Int_Tables_number   1
_chemical_formula_structural   MgZn(CoO2)4
_chemical_formula_sum   'Mg1 Zn1 Co4 O8'
_cell_volume   157.62337920
_cell_formula_units_Z   1
loop_
 _symmetry_equiv_pos_site_id
 _symmetry_equiv_pos_as_xyz
  1  'x, y, z'
loop_
 _atom_site_type_symbol
 _atom_site_label
 _atom_site_symmetry_multiplicity
 _atom_site_fract_x
 _atom_site_fract_y
 _atom_site_fract_z
 _atom_site_occupancy
  Mg  Mg0  1  0.54874200  0.05592800  0.84600000  1
  Zn  Zn0  1  0.38427800  0.03000900  0.19900600  1
  Co  Co0  1  0.60666600  0.25146900  0.53158500  1
  Co  Co1  1  0.06149700  0.58124100  0.23910200  1
  Co  Co2  1  0.82747600  0.52900500  0.83535500  1
  Co  Co3  1  0.29873300  0.85112200  0.53936300  1
  O  O0  1  0.75922700  0.76879100  0.71271400  1
  O  O1  1  0.44467100  0.38102600  0.73783200  1
  O  O2  1  0.47211800  0.72854000  0.30891300  1
  O  O3  1  0.09347800  0.38370900  0.42219100  1
  O  O4  1  0.12469600  0.10430300  0.64584700  1
  O  O5  1  0.96720700  0.04933000  0.02009200  1
  O  O6  1  0.77618600  0.05282200  0.38472800  1
  O  O7  1  0.24373000  0.54238000  0.01349100  1
loop_
_geom_bond_atom_site_label_1
_geom_bond_atom_site_label_2
_geom_bond_distance
_geom_bond_site_symmetry_2
Mg0 O5 1.989812 1_556
Mg0 O5 2.001461 1_456
Mg0 O4 2.131907 1_555
Mg0 O4 2.153621 1_655
Mg0 O0 2.322877 1_545
Mg0 O1 2.331958 1_555
Co0 O6 1.861848 1_555
Co0 O3 1.896558 1_555
Co0 O3 1.897570 1_655
Co0 O1 1.897896 1_555
Co0 O4 1.959028 1_655
Co0 O4 1.960897 1_555
Co1 O7 1.794294 1_555
Co1 O2 1.865944 1_455
Co1 O3 1.877921 1_555
Co1 O2 1.939282 1_555
Co2 O0 1.837411 1_555
Co2 O1 1.982886 1_655
Co2 O1 1.989719 1_555
Co2 O7 2.012148 1_556
Co2 O7 2.041714 1_656
Co3 O4 2.005046 1_565
Co3 O0 2.036638 1_455
Co3 O2 2.040188 1_555
Co3 O0 2.044306 1_555
Co3 O6 2.287288 1_465
Co3 O6 2.301259 1_565
O2 Zn0 2.183776 1_565
O5 Zn0 2.001937 1_655
O5 Zn0 2.036712 1_555
O6 Zn0 2.055945 1_555
O6 Zn0 2.094996 1_655
