# generated using pymatgen
data_SrHCl
_symmetry_space_group_name_H-M   'P 1'
_cell_length_a   4.10689440
_cell_length_b   4.10689440
_cell_length_c   6.98522230
_cell_angle_alpha   90.00000000
_cell_angle_beta   90.00000000
_cell_angle_gamma   90.00000000
_symmetry_Int_Tables_number   1
_chemical_formula_structural   SrHCl
_chemical_formula_sum   'Sr2 H2 Cl2'
_cell_volume   117.81682201
_cell_formula_units_Z   2
loop_
 _symmetry_equiv_pos_site_id
 _symmetry_equiv_pos_as_xyz
  1  'x, y, z'
loop_
 _atom_site_type_symbol
 _atom_site_label
 _atom_site_symmetry_multiplicity
 _atom_site_fract_x
 _atom_site_fract_y
 _atom_site_fract_z
 _atom_site_occupancy
  Sr  Sr0  1  0.75000000  0.75000000  0.79779703  1
  Sr  Sr1  1  0.25000000  0.25000000  0.20220297  1
  H  H0  1  0.25000000  0.75000000  -0.00000000  1
  H  H1  1  0.75000000  0.25000000  0.00000000  1
  Cl  Cl0  1  0.25000000  0.25000000  0.64938668  1
  Cl  Cl1  1  0.75000000  0.75000000  0.35061332  1
loop_
_geom_bond_atom_site_label_1
_geom_bond_atom_site_label_2
_geom_bond_distance
_geom_bond_site_symmetry_2
H0 Sr0 2.492310 1_454
H0 Sr0 2.492310 1_554
H0 Sr1 2.492310 1_555
H0 Sr1 2.492310 1_565
H1 Sr0 2.492310 1_554
H1 Sr1 2.492310 1_555
H1 Sr0 2.492310 1_544
H1 Sr1 2.492310 1_655
Cl0 Sr0 3.083504 1_455
Cl0 Sr0 3.083504 1_555
Cl0 Sr0 3.083504 1_445
Cl0 Sr0 3.083504 1_545
Cl0 Sr1 3.123678 1_555
Cl1 Sr1 3.083504 1_555
Cl1 Sr1 3.083504 1_655
Cl1 Sr1 3.083504 1_565
Cl1 Sr1 3.083504 1_665
Cl1 Sr0 3.123678 1_555
