# generated using pymatgen
data_EuSbPt
_symmetry_space_group_name_H-M   'P 1'
_cell_length_a   4.65660836
_cell_length_b   7.59876207
_cell_length_c   7.95470331
_cell_angle_alpha   90.00000000
_cell_angle_beta   90.00000000
_cell_angle_gamma   90.00000000
_symmetry_Int_Tables_number   1
_chemical_formula_structural   EuSbPt
_chemical_formula_sum   'Eu4 Sb4 Pt4'
_cell_volume   281.47287298
_cell_formula_units_Z   4
loop_
 _symmetry_equiv_pos_site_id
 _symmetry_equiv_pos_as_xyz
  1  'x, y, z'
loop_
 _atom_site_type_symbol
 _atom_site_label
 _atom_site_symmetry_multiplicity
 _atom_site_fract_x
 _atom_site_fract_y
 _atom_site_fract_z
 _atom_site_occupancy
  Eu  Eu0  1  0.75000000  0.49115035  0.80334855  1
  Eu  Eu1  1  0.25000000  0.00884965  0.30334855  1
  Eu  Eu2  1  0.75000000  0.99115035  0.69665145  1
  Eu  Eu3  1  0.25000000  0.50884965  0.19665145  1
  Sb  Sb0  1  0.25000000  0.68484296  0.59006264  1
  Sb  Sb1  1  0.25000000  0.18484296  0.90993736  1
  Sb  Sb2  1  0.75000000  0.31515704  0.40993736  1
  Sb  Sb3  1  0.75000000  0.81515704  0.09006264  1
  Pt  Pt0  1  0.25000000  0.80410923  0.91452477  1
  Pt  Pt1  1  0.25000000  0.30410923  0.58547523  1
  Pt  Pt2  1  0.75000000  0.69589077  0.41452477  1
  Pt  Pt3  1  0.75000000  0.19589077  0.08547523  1
loop_
_geom_bond_atom_site_label_1
_geom_bond_atom_site_label_2
_geom_bond_distance
_geom_bond_site_symmetry_2
Eu0 Pt3 3.173383 1_556
Eu0 Pt1 3.231832 1_655
Eu0 Pt1 3.231832 1_555
Eu0 Sb0 3.235090 1_555
Eu0 Sb0 3.235090 1_655
Eu0 Sb3 3.356099 1_556
Eu0 Sb1 3.399621 1_555
Eu0 Sb1 3.399621 1_655
Eu0 Sb2 3.403239 1_555
Eu0 Pt0 3.443614 1_655
Eu0 Pt0 3.443614 1_555
Eu0 Pt2 3.462217 1_555
Eu1 Pt1 3.173383 1_555
Eu1 Pt3 3.231832 1_455
Eu1 Pt3 3.231832 1_555
Eu1 Sb3 3.235090 1_545
Eu1 Sb3 3.235090 1_445
Eu1 Sb0 3.356099 1_545
Eu1 Sb2 3.399621 1_455
Eu1 Sb2 3.399621 1_555
Eu1 Sb1 3.403239 1_554
Eu1 Pt2 3.443614 1_545
Eu1 Pt2 3.443614 1_445
Eu1 Pt0 3.462217 1_544
Eu2 Pt2 3.173383 1_555
Eu2 Pt0 3.231832 1_555
Eu2 Pt0 3.231832 1_655
Eu2 Sb1 3.235090 1_665
Eu2 Sb1 3.235090 1_565
Eu2 Sb2 3.356099 1_565
Eu2 Sb0 3.399621 1_655
Eu2 Sb0 3.399621 1_555
Eu2 Sb3 3.403239 1_556
Eu2 Pt1 3.443614 1_565
Eu2 Pt1 3.443614 1_665
Eu2 Pt3 3.462217 1_566
Eu3 Pt0 3.173383 1_554
Eu3 Pt2 3.231832 1_555
Eu3 Pt2 3.231832 1_455
Eu3 Sb2 3.235090 1_455
Eu3 Sb2 3.235090 1_555
Eu3 Sb1 3.356099 1_554
Eu3 Sb3 3.399621 1_455
Eu3 Sb3 3.399621 1_555
Eu3 Sb0 3.403239 1_555
Eu3 Pt3 3.443614 1_555
Eu3 Pt3 3.443614 1_455
Eu3 Pt1 3.462217 1_555
Pt0 Sb3 2.716219 1_456
Pt0 Sb3 2.716219 1_556
Pt0 Sb0 2.735488 1_555
Pt0 Sb1 2.893335 1_565
Pt1 Sb2 2.716219 1_455
Pt1 Sb2 2.716219 1_555
Pt1 Sb1 2.735488 1_555
Pt1 Sb0 2.893335 1_555
Pt2 Sb0 2.716219 1_655
Pt2 Sb0 2.716219 1_555
Pt2 Sb3 2.735488 1_555
Pt2 Sb2 2.893335 1_555
Pt3 Sb1 2.716219 1_554
Pt3 Sb1 2.716219 1_654
Pt3 Sb2 2.735488 1_555
Pt3 Sb3 2.893335 1_545
