# generated using pymatgen
data_Na3Nb2In2SiP5O24
_symmetry_space_group_name_H-M   'P 1'
_cell_length_a   8.94880087
_cell_length_b   8.91894120
_cell_length_c   23.04533716
_cell_angle_alpha   90.05223896
_cell_angle_beta   89.94560865
_cell_angle_gamma   119.94524850
_symmetry_Int_Tables_number   1
_chemical_formula_structural   Na3Nb2In2SiP5O24
_chemical_formula_sum   'Na9 Nb6 In6 Si3 P15 O72'
_cell_volume   1593.78939769
_cell_formula_units_Z   3
loop_
 _symmetry_equiv_pos_site_id
 _symmetry_equiv_pos_as_xyz
  1  'x, y, z'
loop_
 _atom_site_type_symbol
 _atom_site_label
 _atom_site_symmetry_multiplicity
 _atom_site_fract_x
 _atom_site_fract_y
 _atom_site_fract_z
 _atom_site_occupancy
  Na  Na0  1  0.36049940  0.99280031  0.75119627  1
  Na  Na1  1  0.67268411  0.97233016  0.58552977  1
  Na  Na2  1  0.67589386  0.70013246  0.08298515  1
  Na  Na3  1  0.01217192  0.00077349  0.50322717  1
  Na  Na4  1  0.00812191  0.00344118  0.00292849  1
  Na  Na5  1  0.67350056  0.34186164  0.83734976  1
  Na  Na6  1  0.66489727  0.33204052  0.33653734  1
  Na  Na7  1  0.32697860  0.66655064  0.17104022  1
  Na  Na8  1  0.32986147  0.65510200  0.67043637  1
  Nb  Nb0  1  0.00114714  0.00094783  0.35413519  1
  Nb  Nb1  1  0.99363029  0.99895870  0.85450290  1
  Nb  Nb2  1  0.66855267  0.33170774  0.68681495  1
  Nb  Nb3  1  0.67211130  0.33549895  0.18800328  1
  Nb  Nb4  1  0.32544273  0.66614345  0.02015111  1
  Nb  Nb5  1  0.32947171  0.66662774  0.51993242  1
  In  In0  1  0.00291331  0.99857769  0.64883456  1
  In  In1  1  0.00667011  0.00418190  0.14932445  1
  In  In2  1  0.66745220  0.33337354  0.98138415  1
  In  In3  1  0.66402206  0.33359479  0.48050496  1
  In  In4  1  0.33348077  0.66694258  0.31476511  1
  In  In5  1  0.33640379  0.66386404  0.81580976  1
  Si  Si0  1  0.70800457  0.99728199  0.74791713  1
  Si  Si1  1  0.36959481  0.04391630  0.58197183  1
  Si  Si2  1  0.95751590  0.62571152  0.08261251  1
  P  P0  1  0.29225025  0.00003930  0.24998197  1
  P  P1  1  0.70825629  0.70956838  0.24918307  1
  P  P2  1  0.00066138  0.29104201  0.24979452  1
  P  P3  1  0.28982647  0.29198506  0.75004419  1
  P  P4  1  0.99764845  0.70716846  0.75081276  1
  P  P5  1  0.95814209  0.33575432  0.58225563  1
  P  P6  1  0.66561652  0.62228874  0.58213378  1
  P  P7  1  0.66617420  0.04362764  0.08288799  1
  P  P8  1  0.37589273  0.33146071  0.08263210  1
  P  P9  1  0.62414784  0.66483879  0.91699788  1
  P  P10  1  0.04179177  0.37547968  0.91558458  1
  P  P11  1  0.33341676  0.96020879  0.91529351  1
  P  P12  1  0.62482483  0.95787379  0.41575224  1
  P  P13  1  0.33409633  0.37678500  0.41531020  1
  P  P14  1  0.04140649  0.66552765  0.41543946  1
  O  O0  1  0.19801568  0.02749149  0.30471192  1
  O  O1  1  0.83003536  0.80226103  0.30330959  1
  O  O2  1  0.97236887  0.17085880  0.30453976  1
  O  O3  1  0.20384798  0.16866390  0.80442663  1
  O  O4  1  0.97156047  0.80043438  0.80539094  1
  O  O5  1  0.83703431  0.02826137  0.80582209  1
  O  O6  1  0.78365112  0.96965257  0.68890928  1
  O  O7  1  0.18699114  0.21386062  0.69536480  1
  O  O8  1  0.03778028  0.81926535  0.69704194  1
  O  O9  1  0.78318296  0.81057263  0.19332787  1
  O  O10  1  0.02668501  0.21333324  0.19520287  1
  O  O11  1  0.18618489  0.97094130  0.19587446  1
  O  O12  1  0.87004443  0.36662927  0.63771140  1
  O  O13  1  0.50118110  0.13321869  0.64124817  1
  O  O14  1  0.63853741  0.50617684  0.63732359  1
  O  O15  1  0.86061034  0.49591350  0.14088596  1
  O  O16  1  0.63507777  0.13072505  0.13801152  1
  O  O17  1  0.49788610  0.36604238  0.13727935  1
  O  O18  1  0.45159726  0.30277866  0.02815708  1
  O  O19  1  0.83858011  0.54629638  0.02728892  1
  O  O20  1  0.69413033  0.14709680  0.02848143  1
  O  O21  1  0.45964490  0.15209299  0.52589240  1
  O  O22  1  0.69782893  0.54819279  0.52813640  1
  O  O23  1  0.84812001  0.30298974  0.52893841  1
  O  O24  1  0.54001037  0.69631400  0.97273741  1
  O  O25  1  0.16237321  0.46791342  0.97067761  1
  O  O26  1  0.30648865  0.83658392  0.96974709  1
  O  O27  1  0.53780174  0.84087421  0.47200951  1
  O  O28  1  0.30356989  0.46553608  0.47049235  1
  O  O29  1  0.16209315  0.69532103  0.47080470  1
  O  O30  1  0.12069674  0.63867778  0.36187421  1
  O  O31  1  0.51738175  0.87702352  0.36254781  1
  O  O32  1  0.35855979  0.48127667  0.36139119  1
  O  O33  1  0.12099691  0.48216011  0.86183595  1
  O  O34  1  0.35910837  0.88340311  0.85984615  1
  O  O35  1  0.52021397  0.64121089  0.86283055  1
  O  O36  1  0.03027501  0.83730958  0.40931186  1
  O  O37  1  0.80747743  0.96849543  0.40874941  1
  O  O38  1  0.16251499  0.19260894  0.40871255  1
  O  O39  1  0.03391620  0.19408713  0.91026242  1
  O  O40  1  0.16329454  0.97023465  0.91068539  1
  O  O41  1  0.80850044  0.83649512  0.90990595  1
  O  O42  1  0.97524548  0.17508236  0.58963586  1
  O  O43  1  0.17881520  0.01120021  0.58813094  1
  O  O44  1  0.81397253  0.80882236  0.58857977  1
  O  O45  1  0.97630204  0.81361631  0.08977969  1
  O  O46  1  0.81717932  0.01043076  0.09054441  1
  O  O47  1  0.19354254  0.18177632  0.08978382  1
  O  O48  1  0.69408434  0.17995585  0.74276958  1
  O  O49  1  0.47178999  0.30115010  0.74394614  1
  O  O50  1  0.82936711  0.52841703  0.74412540  1
  O  O51  1  0.69549833  0.52549998  0.24351242  1
  O  O52  1  0.82781340  0.29989247  0.24405873  1
  O  O53  1  0.47304053  0.17046491  0.24388275  1
  O  O54  1  0.65035699  0.50960195  0.92170164  1
  O  O55  1  0.86085230  0.34658749  0.92248651  1
  O  O56  1  0.48980034  0.13867221  0.92317376  1
  O  O57  1  0.65525054  0.14062641  0.42215576  1
  O  O58  1  0.48826163  0.35016341  0.42135584  1
  O  O59  1  0.86140106  0.51203697  0.42345579  1
  O  O60  1  0.37151358  0.50805323  0.07620882  1
  O  O61  1  0.15038679  0.63890224  0.07498982  1
  O  O62  1  0.49902435  0.85663811  0.07610467  1
  O  O63  1  0.36666978  0.85133447  0.57490177  1
  O  O64  1  0.49574609  0.63717882  0.57574368  1
  O  O65  1  0.14035220  0.50259224  0.57603630  1
  O  O66  1  0.31717453  0.84437806  0.25702211  1
  O  O67  1  0.52794960  0.68331415  0.25638955  1
  O  O68  1  0.15368434  0.47231450  0.25659837  1
  O  O69  1  0.31525668  0.47229329  0.75649845  1
  O  O70  1  0.15625309  0.68671064  0.75841593  1
  O  O71  1  0.51102455  0.84367432  0.75498003  1
loop_
_geom_bond_atom_site_label_1
_geom_bond_atom_site_label_2
_geom_bond_distance
_geom_bond_site_symmetry_2
Na0 O71 2.319516 1_555
Na0 O70 2.416609 1_555
Na0 O49 2.418521 1_565
Na0 O48 2.600029 1_565
Na0 O34 2.685854 1_555
Na0 O8 2.798963 1_555
Na0 O13 2.828276 1_565
Na0 O3 2.849321 1_565
Na1 O44 2.360377 1_555
Na1 O42 2.392075 1_565
Na1 O63 2.402956 1_555
Na1 O6 2.586665 1_555
Na1 O64 2.601441 1_555
Na1 O23 2.871198 1_565
Na1 O13 2.873129 1_565
Na1 O27 2.874574 1_555
Na2 O45 2.357953 1_555
Na2 O60 2.391707 1_555
Na2 O46 2.407150 1_565
Na2 O62 2.585594 1_555
Na2 O9 2.722909 1_555
Na2 O19 2.763500 1_555
Na2 O24 2.810570 1_554
Na2 O17 2.871614 1_555
Na3 O43 2.434683 1_555
Na3 O44 2.629418 1_445
Na3 O42 2.645272 1_455
Na3 O36 2.658082 1_545
Na3 O38 2.680452 1_555
Na3 O37 2.767442 1_445
Na4 O45 2.545058 1_445
Na4 O47 2.579776 1_555
Na4 O40 2.634139 1_544
Na4 O46 2.664592 1_455
Na4 O39 2.668108 1_554
Na4 O41 2.711047 1_444
Na5 O54 2.522536 1_555
Na5 O55 2.568596 1_555
Na5 O56 2.631468 1_555
Na5 O50 2.648289 1_555
Na5 O48 2.670017 1_555
Na5 O49 2.715706 1_555
Na6 O58 2.567885 1_555
Na6 O57 2.583380 1_555
Na6 O59 2.619965 1_555
Na6 O53 2.667398 1_555
Na6 O52 2.675823 1_555
Na6 O51 2.679912 1_555
Na7 O66 2.565604 1_555
Na7 O68 2.571391 1_555
Na7 O67 2.619775 1_555
Na7 O61 2.659766 1_555
Na7 O62 2.725019 1_555
Na7 O60 2.736495 1_555
Na8 O69 2.530166 1_555
Na8 O71 2.555555 1_555
Na8 O70 2.652201 1_555
Na8 O65 2.675368 1_555
Na8 O64 2.687271 1_555
Na8 O63 2.729271 1_555
Nb0 O0 2.009310 1_555
Nb0 O2 2.015564 1_455
Nb0 O38 2.030875 1_555
Nb0 O1 2.036547 1_445
Nb0 O37 2.041385 1_445
Nb0 O36 2.049076 1_545
Nb1 O5 1.913063 1_565
Nb1 O41 2.019205 1_555
Nb1 O4 2.025525 1_555
Nb1 O39 2.044601 1_665
Nb1 O3 2.077991 1_665
Nb1 O40 2.107099 1_655
Nb2 O13 1.957679 1_555
Nb2 O48 1.964518 1_555
Nb2 O12 2.016146 1_555
Nb2 O14 2.053159 1_555
Nb2 O50 2.090971 1_555
Nb2 O49 2.103634 1_555
Nb3 O15 1.913476 1_555
Nb3 O52 2.038867 1_555
Nb3 O16 2.040918 1_555
Nb3 O51 2.048024 1_555
Nb3 O17 2.073531 1_555
Nb3 O53 2.092781 1_555
Nb4 O61 1.930552 1_555
Nb4 O26 1.987434 1_554
Nb4 O25 1.994737 1_554
Nb4 O62 2.080211 1_555
Nb4 O60 2.100399 1_555
Nb4 O24 2.105688 1_554
Nb5 O63 1.969510 1_555
Nb5 O29 1.994301 1_555
Nb5 O28 2.037240 1_555
Nb5 O65 2.050290 1_555
Nb5 O27 2.053594 1_555
Nb5 O64 2.081274 1_555
In0 O6 2.064238 1_455
In0 O43 2.065601 1_565
In0 O8 2.095551 1_555
In0 O7 2.095718 1_565
In0 O42 2.189610 1_465
In0 O44 2.189664 1_455
In1 O10 2.071927 1_555
In1 O11 2.073329 1_545
In1 O45 2.093079 1_445
In1 O47 2.131518 1_555
In1 O9 2.135766 1_445
In1 O46 2.193710 1_455
In2 O19 2.041252 1_556
In2 O20 2.096428 1_556
In2 O18 2.106639 1_556
In2 O56 2.141532 1_555
In2 O54 2.151743 1_555
In2 O55 2.154928 1_555
In3 O21 2.025646 1_555
In3 O22 2.092486 1_555
In3 O23 2.118359 1_555
In3 O59 2.138737 1_555
In3 O58 2.142482 1_555
In3 O57 2.153490 1_555
In4 O32 2.078899 1_555
In4 O31 2.086355 1_555
In4 O30 2.094123 1_555
In4 O66 2.128673 1_555
In4 O67 2.145193 1_555
In4 O68 2.147186 1_555
In5 O35 2.063064 1_555
In5 O33 2.085111 1_555
In5 O71 2.115887 1_555
In5 O69 2.120580 1_555
In5 O34 2.122438 1_555
In5 O70 2.173113 1_555
O0 P0 1.601697 1_555
O1 P1 1.590047 1_555
O2 P2 1.592387 1_655
O3 P3 1.590043 1_555
O4 P4 1.587404 1_555
O5 Si0 1.695305 1_545
O6 Si0 1.591342 1_555
O7 P3 1.510193 1_555
O8 P4 1.518893 1_455
O9 P1 1.521660 1_555
O10 P2 1.508760 1_555
O11 P0 1.509574 1_565
O12 P5 1.595246 1_555
O13 Si1 1.718078 1_555
O14 P6 1.581173 1_555
O15 Si2 1.701186 1_555
O16 P7 1.583662 1_555
O17 P8 1.593321 1_555
O18 P8 1.507061 1_555
O19 Si2 1.583762 1_555
O20 P7 1.502431 1_555
O21 Si1 1.573076 1_555
O22 P6 1.502110 1_555
O23 P5 1.509604 1_555
O24 P9 1.582487 1_555
O25 P10 1.602679 1_555
O26 P11 1.607877 1_555
O27 P12 1.601705 1_555
O28 P13 1.591158 1_555
O29 P14 1.606378 1_555
O30 P14 1.500687 1_555
O31 P12 1.502079 1_555
O32 P13 1.502793 1_555
O33 P10 1.506373 1_555
O34 P11 1.519861 1_555
O35 P9 1.507904 1_555
O36 P14 1.590604 1_555
O37 P12 1.597379 1_555
O38 P13 1.600308 1_555
O39 P10 1.588460 1_555
O40 P11 1.572633 1_555
O41 P9 1.603331 1_555
O42 P5 1.524917 1_555
O43 Si1 1.588164 1_555
O44 P6 1.532094 1_555
O45 Si2 1.607014 1_555
O46 P7 1.531285 1_555
O47 P8 1.515672 1_555
O48 Si0 1.699138 1_545
O49 P3 1.595203 1_555
O50 P4 1.560887 1_555
O51 P1 1.593045 1_555
O52 P2 1.593280 1_655
O53 P0 1.578774 1_555
O54 P9 1.519293 1_555
O55 P10 1.515425 1_655
O56 P11 1.516935 1_545
O57 P12 1.519624 1_545
O58 P13 1.518722 1_555
O59 P14 1.517023 1_655
O60 P8 1.601932 1_555
O61 Si2 1.679402 1_455
O62 P7 1.597720 1_565
O63 Si1 1.712333 1_565
O64 P6 1.597543 1_555
O65 P5 1.571982 1_455
O66 P0 1.520909 1_565
O67 P1 1.519293 1_555
O68 P2 1.517676 1_555
O69 P3 1.514712 1_555
O70 P4 1.528902 1_455
O71 Si0 1.612315 1_555
