# generated using pymatgen
data_Na7Y2Mg2P5SO24
_symmetry_space_group_name_H-M   'P 1'
_cell_length_a   9.16418919
_cell_length_b   9.18831573
_cell_length_c   22.93834318
_cell_angle_alpha   90.15711033
_cell_angle_beta   89.82474845
_cell_angle_gamma   119.91133093
_symmetry_Int_Tables_number   1
_chemical_formula_structural   Na7Y2Mg2P5SO24
_chemical_formula_sum   'Na21 Y6 Mg6 P15 S3 O72'
_cell_volume   1674.20069924
_cell_formula_units_Z   3
loop_
 _symmetry_equiv_pos_site_id
 _symmetry_equiv_pos_as_xyz
  1  'x, y, z'
loop_
 _atom_site_type_symbol
 _atom_site_label
 _atom_site_symmetry_multiplicity
 _atom_site_fract_x
 _atom_site_fract_y
 _atom_site_fract_z
 _atom_site_occupancy
  Na  Na0  1  0.64163608  0.99491835  0.25183734  1
  Na  Na1  1  0.00092925  0.62935702  0.25368933  1
  Na  Na2  1  0.63232574  0.63957141  0.74898703  1
  Na  Na3  1  0.00797453  0.36892988  0.75229198  1
  Na  Na4  1  0.36183415  0.99223834  0.75235636  1
  Na  Na5  1  0.29921169  0.33246224  0.58574309  1
  Na  Na6  1  0.03514576  0.70166796  0.58251260  1
  Na  Na7  1  0.66718881  0.96429243  0.58353758  1
  Na  Na8  1  0.29943229  0.96498155  0.08049645  1
  Na  Na9  1  0.66631109  0.69971999  0.08601351  1
  Na  Na10  1  0.03546348  0.33411039  0.08379526  1
  Na  Na11  1  0.98390195  0.66907289  0.91650352  1
  Na  Na12  1  0.32845132  0.29758251  0.91874554  1
  Na  Na13  1  0.96456787  0.30590485  0.41457410  1
  Na  Na14  1  0.70260482  0.67358838  0.41814626  1
  Na  Na15  1  0.00326998  0.99259897  0.50476494  1
  Na  Na16  1  0.99951903  0.00699158  0.00417324  1
  Na  Na17  1  0.66814999  0.31651197  0.83357734  1
  Na  Na18  1  0.66319104  0.33038052  0.33307580  1
  Na  Na19  1  0.33450699  0.64974723  0.16770234  1
  Na  Na20  1  0.33378533  0.66766181  0.66660479  1
  Y  Y0  1  -0.00005878  0.99748358  0.35087587  1
  Y  Y1  1  0.99758927  0.00472505  0.85061564  1
  Y  Y2  1  0.66703767  0.33334739  0.68040182  1
  Y  Y3  1  0.66554407  0.33755872  0.18137468  1
  Y  Y4  1  0.66831893  0.32147519  0.98362478  1
  Y  Y5  1  0.66388407  0.32508564  0.48379492  1
  Mg  Mg0  1  0.99938079  0.99954435  0.65239560  1
  Mg  Mg1  1  0.99339988  0.00491717  0.15121374  1
  Mg  Mg2  1  0.32647738  0.66787905  0.01617526  1
  Mg  Mg3  1  0.33464509  0.67899900  0.51578118  1
  Mg  Mg4  1  0.33350059  0.66234795  0.31719226  1
  Mg  Mg5  1  0.32756677  0.67127511  0.81654250  1
  P  P0  1  0.69904369  0.70562423  0.24897444  1
  P  P1  1  0.00732962  0.30247777  0.24915030  1
  P  P2  1  0.29563759  0.30142825  0.74910720  1
  P  P3  1  0.00415304  0.70584959  0.74918238  1
  P  P4  1  0.69905977  0.99347333  0.74748380  1
  P  P5  1  0.97693743  0.33332952  0.58272162  1
  P  P6  1  0.35759219  0.02600157  0.58448673  1
  P  P7  1  0.66549163  0.64053494  0.58218510  1
  P  P8  1  0.97322089  0.64163513  0.08275958  1
  P  P9  1  0.66529126  0.02349234  0.08533510  1
  P  P10  1  0.35963783  0.33352026  0.08129294  1
  P  P11  1  0.05050185  0.38405064  0.91650919  1
  P  P12  1  0.33325665  0.95471677  0.91620253  1
  P  P13  1  0.61878081  0.95290651  0.41538420  1
  P  P14  1  0.04629772  0.66626161  0.41665385  1
  S  S0  1  0.29438867  0.99480375  0.24810228  1
  S  S1  1  0.61922154  0.66588865  0.91722469  1
  S  S2  1  0.33412029  0.38402096  0.41720223  1
  O  O0  1  0.21734944  0.02069587  0.30060531  1
  O  O1  1  0.80994200  0.78371927  0.30444911  1
  O  O2  1  0.97921506  0.19510565  0.30496391  1
  O  O3  1  0.21951463  0.19264762  0.80461493  1
  O  O4  1  0.97166084  0.78105008  0.80508592  1
  O  O5  1  0.81226060  0.02695531  0.80115780  1
  O  O6  1  0.78302596  0.97011455  0.69286155  1
  O  O7  1  0.18506325  0.21465410  0.69558545  1
  O  O8  1  0.02629134  0.81567107  0.69579631  1
  O  O9  1  0.78907308  0.81564726  0.19531244  1
  O  O10  1  0.02348110  0.21308706  0.19493369  1
  O  O11  1  0.19227104  0.97604543  0.19575697  1
  O  O12  1  0.89490703  0.36682113  0.63672318  1
  O  O13  1  0.46953569  0.10384074  0.63928025  1
  O  O14  1  0.63377351  0.52707076  0.63649973  1
  O  O15  1  0.89064012  0.52601279  0.13648485  1
  O  O16  1  0.63025811  0.10191187  0.13986520  1
  O  O17  1  0.47942125  0.36594177  0.13316269  1
  O  O18  1  0.43971687  0.30107026  0.02627341  1
  O  O19  1  0.85697116  0.55881919  0.02898447  1
  O  O20  1  0.70124278  0.14543457  0.03365225  1
  O  O21  1  0.44530540  0.14743170  0.53293941  1
  O  O22  1  0.69590854  0.55493984  0.52846662  1
  O  O23  1  0.85978209  0.30089500  0.52931722  1
  O  O24  1  0.53938154  0.68253846  0.97012474  1
  O  O25  1  0.15363994  0.46554135  0.97168650  1
  O  O26  1  0.31426717  0.85321370  0.97155075  1
  O  O27  1  0.53981683  0.84905370  0.47080076  1
  O  O28  1  0.31275235  0.45934570  0.47142246  1
  O  O29  1  0.14285333  0.67903981  0.47251293  1
  O  O30  1  0.12755724  0.64316304  0.36121958  1
  O  O31  1  0.52097220  0.86908838  0.35975330  1
  O  O32  1  0.35443642  0.48491425  0.36555345  1
  O  O33  1  0.13251563  0.48500568  0.86069089  1
  O  O34  1  0.35061172  0.87280199  0.86031091  1
  O  O35  1  0.52176751  0.64758160  0.86366656  1
  O  O36  1  0.01625754  0.81963646  0.41399866  1
  O  O37  1  0.80287386  0.97607771  0.41336460  1
  O  O38  1  0.18105448  0.21332743  0.41274743  1
  O  O39  1  0.03161764  0.20542880  0.91397990  1
  O  O40  1  0.16862209  0.97041647  0.91421985  1
  O  O41  1  0.79472408  0.81170660  0.91406191  1
  O  O42  1  0.98964485  0.17273461  0.58974014  1
  O  O43  1  0.18243950  0.01039369  0.59085482  1
  O  O44  1  0.82628031  0.81377938  0.58918324  1
  O  O45  1  0.98951884  0.81649986  0.09108213  1
  O  O46  1  0.82618846  0.00961595  0.09098536  1
  O  O47  1  0.18583323  0.17304003  0.08993279  1
  O  O48  1  0.67890768  0.15303572  0.74446012  1
  O  O49  1  0.47485811  0.32029842  0.74492954  1
  O  O50  1  0.84497830  0.52628011  0.74492283  1
  O  O51  1  0.68778988  0.53066995  0.24524166  1
  O  O52  1  0.84035064  0.31364408  0.24600334  1
  O  O53  1  0.46835195  0.14202520  0.24468951  1
  O  O54  1  0.63652166  0.51012791  0.92006353  1
  O  O55  1  0.87317018  0.37129220  0.91959175  1
  O  O56  1  0.48360960  0.14021053  0.91860687  1
  O  O57  1  0.64999739  0.13678230  0.41851774  1
  O  O58  1  0.48843639  0.36700382  0.42039776  1
  O  O59  1  0.86259497  0.50544599  0.41918299  1
  O  O60  1  0.34442378  0.49303226  0.07535021  1
  O  O61  1  0.14755074  0.65564384  0.07606199  1
  O  O62  1  0.50766640  0.84980633  0.07574784  1
  O  O63  1  0.34443545  0.85281888  0.57634196  1
  O  O64  1  0.50529646  0.65486837  0.57541135  1
  O  O65  1  0.15129974  0.49197422  0.57516394  1
  O  O66  1  0.30759743  0.84011073  0.25375938  1
  O  O67  1  0.52687338  0.69592439  0.25589923  1
  O  O68  1  0.15760602  0.48291202  0.25508284  1
  O  O69  1  0.31519554  0.47848424  0.75596699  1
  O  O70  1  0.16303977  0.68741754  0.75471201  1
  O  O71  1  0.52329548  0.83448507  0.75526944  1
loop_
_geom_bond_atom_site_label_1
_geom_bond_atom_site_label_2
_geom_bond_distance
_geom_bond_site_symmetry_2
Na0 O67 2.404455 1_555
Na0 O53 2.553264 1_565
Na0 O52 2.567582 1_565
Na0 O66 2.655752 1_555
Na0 O31 2.722326 1_555
Na0 O16 2.773449 1_565
Na0 O9 2.901239 1_555
Na0 O2 2.962202 1_565
Na1 O68 2.408428 1_555
Na1 O66 2.494091 1_555
Na1 O52 2.520525 1_455
Na1 O51 2.549915 1_455
Na1 O30 2.704745 1_555
Na1 O15 2.862965 1_455
Na2 O71 2.451304 1_555
Na2 O69 2.524090 1_555
Na2 O49 2.544470 1_555
Na2 O50 2.628988 1_555
Na2 O14 2.779450 1_555
Na2 O35 2.829980 1_555
Na2 O6 2.935359 1_555
Na2 O4 2.999974 1_555
Na3 O69 2.474179 1_555
Na3 O70 2.537383 1_555
Na3 O50 2.550841 1_455
Na3 O48 2.663957 1_455
Na3 O33 2.722421 1_555
Na3 O12 2.845716 1_455
Na3 O7 2.933662 1_555
Na3 O5 2.955160 1_455
Na4 O70 2.465303 1_555
Na4 O48 2.524992 1_565
Na4 O71 2.536733 1_555
Na4 O49 2.660062 1_565
Na4 O34 2.692163 1_555
Na4 O13 2.782608 1_565
Na4 O8 2.967876 1_555
Na4 O3 2.983687 1_565
Na5 O65 2.455540 1_555
Na5 O42 2.461150 1_455
Na5 O43 2.599812 1_555
Na5 O64 2.611511 1_555
Na5 O7 2.735676 1_555
Na5 O28 2.849856 1_555
Na5 O21 2.898068 1_555
Na5 O14 2.914782 1_555
Na6 O63 2.460760 1_555
Na6 O43 2.466820 1_565
Na6 O44 2.590761 1_455
Na6 O65 2.629891 1_555
Na6 O29 2.751481 1_555
Na6 O8 2.815102 1_555
Na6 O12 2.954938 1_455
Na6 O22 2.975523 1_455
Na7 O44 2.463324 1_555
Na7 O64 2.472053 1_555
Na7 O42 2.603328 1_565
Na7 O63 2.608722 1_555
Na7 O6 2.716116 1_555
Na7 O27 2.818128 1_555
Na7 O23 2.964968 1_565
Na7 O13 2.975407 1_565
Na8 O61 2.465778 1_555
Na8 O45 2.473804 1_455
Na8 O47 2.601237 1_565
Na8 O62 2.604910 1_555
Na8 O26 2.727890 1_554
Na8 O11 2.836739 1_555
Na8 O18 2.964448 1_565
Na8 O16 2.973331 1_565
Na9 O62 2.464609 1_555
Na9 O46 2.471034 1_565
Na9 O45 2.601864 1_555
Na9 O60 2.604383 1_555
Na9 O9 2.737421 1_555
Na9 O17 2.876977 1_555
Na9 O24 2.877149 1_554
Na9 O19 2.944986 1_555
Na10 O60 2.461968 1_555
Na10 O47 2.478977 1_555
Na10 O61 2.605762 1_555
Na10 O46 2.625441 1_455
Na10 O10 2.764009 1_555
Na10 O25 2.817793 1_554
Na10 O20 2.902504 1_455
Na10 O15 2.940010 1_455
Na11 O55 2.398456 1_555
Na11 O40 2.420853 1_655
Na11 O41 2.644480 1_555
Na11 O54 2.763376 1_555
Na11 O4 2.781052 1_555
Na11 O19 2.803058 1_556
Na11 O26 2.919931 1_655
Na11 O33 2.937503 1_655
Na12 O39 2.415115 1_555
Na12 O56 2.482570 1_555
Na12 O54 2.507357 1_555
Na12 O40 2.607829 1_545
Na12 O18 2.665853 1_556
Na12 O3 2.796819 1_555
Na13 O59 2.439895 1_555
Na13 O57 2.502973 1_555
Na13 O38 2.518658 1_655
Na13 O37 2.627152 1_545
Na13 O2 2.737924 1_555
Na13 O23 2.791573 1_555
Na14 O37 2.456674 1_555
Na14 O36 2.494797 1_655
Na14 O58 2.505272 1_555
Na14 O59 2.607032 1_555
Na14 O22 2.746540 1_555
Na14 O1 2.792744 1_555
Na15 O43 2.524422 1_565
Na15 O44 2.533872 1_455
Na15 O42 2.596413 1_465
Na15 O36 2.653988 1_555
Na15 O37 2.745005 1_455
Na15 O38 2.816007 1_565
Na16 O46 2.551014 1_555
Na16 O47 2.553217 1_655
Na16 O45 2.627587 1_545
Na16 O39 2.678305 1_654
Na16 O40 2.695935 1_644
Na16 O41 2.767545 1_544
Na17 O56 2.559944 1_555
Na17 O48 2.564042 1_555
Na17 O55 2.598137 1_555
Na17 O49 2.712504 1_555
Na17 O50 2.713439 1_555
Na17 O54 2.770544 1_555
Na18 O57 2.612137 1_555
Na18 O52 2.622242 1_555
Na18 O59 2.626994 1_555
Na18 O51 2.664716 1_555
Na18 O58 2.684069 1_555
Na18 O53 2.686052 1_555
Na19 O68 2.552257 1_555
Na19 O67 2.579111 1_555
Na19 O60 2.584946 1_555
Na19 O66 2.724923 1_555
Na19 O62 2.727242 1_555
Na19 O61 2.733552 1_555
Na20 O70 2.613019 1_555
Na20 O71 2.617577 1_555
Na20 O69 2.640887 1_555
Na20 O64 2.650055 1_555
Na20 O63 2.653913 1_555
Na20 O65 2.666948 1_555
Mg0 O6 2.078772 1_555
Mg0 O8 2.081475 1_655
Mg0 O7 2.104496 1_665
Mg0 O43 2.153245 1_665
Mg0 O42 2.181923 1_565
Mg0 O44 2.198272 1_555
Mg1 O10 2.050749 1_655
Mg1 O9 2.074662 1_545
Mg1 O46 2.082760 1_555
Mg1 O47 2.179914 1_655
Mg1 O45 2.196990 1_545
Mg1 O11 2.220559 1_645
Mg2 O25 2.017243 1_554
Mg2 O26 2.039734 1_554
Mg2 O61 2.095613 1_555
Mg2 O62 2.156815 1_555
Mg2 O24 2.160278 1_554
Mg2 O60 2.174246 1_555
Mg3 O29 2.021288 1_555
Mg3 O27 2.026882 1_555
Mg3 O63 2.081893 1_555
Mg3 O64 2.174022 1_555
Mg3 O28 2.176017 1_555
Mg3 O65 2.179637 1_555
Mg4 O32 2.061194 1_555
Mg4 O31 2.063610 1_555
Mg4 O30 2.066503 1_555
Mg4 O67 2.157348 1_555
Mg4 O68 2.167255 1_555
Mg4 O66 2.289790 1_555
Mg5 O34 2.020501 1_555
Mg5 O33 2.024163 1_555
Mg5 O70 2.131699 1_555
Mg5 O71 2.180627 1_555
Mg5 O35 2.186919 1_555
Mg5 O69 2.206509 1_555
O0 S0 1.471799 1_545
O0 Y0 2.215450 1_545
O1 P0 1.562882 1_555
O1 Y0 2.147743 1_655
O2 P1 1.558910 1_655
O2 Y0 2.190445 1_645
O3 P2 1.553385 1_555
O3 Y1 2.173860 1_455
O4 P3 1.551927 1_655
O4 Y1 2.207652 1_565
O5 P4 1.540815 1_545
O5 Y1 2.138299 1_555
O6 P4 1.537977 1_555
O7 P2 1.538262 1_555
O8 P3 1.536259 1_555
O9 P0 1.544868 1_555
O10 P1 1.535474 1_555
O11 S0 1.480563 1_555
O12 P5 1.554714 1_555
O12 Y2 2.192603 1_555
O13 P6 1.553988 1_555
O13 Y2 2.192165 1_555
O14 P7 1.557661 1_555
O14 Y2 2.197338 1_555
O15 P8 1.555551 1_555
O15 Y3 2.179059 1_555
O16 P9 1.552464 1_555
O16 Y3 2.234179 1_555
O17 P10 1.545730 1_555
O17 Y3 2.158027 1_555
O18 P10 1.559080 1_555
O18 Y4 2.231092 1_554
O19 P8 1.558823 1_555
O19 Y4 2.250726 1_554
O20 P9 1.551172 1_555
O20 Y4 2.126802 1_554
O21 P6 1.547923 1_555
O21 Y5 2.164031 1_555
O22 P7 1.557502 1_555
O22 Y5 2.228985 1_555
O23 P5 1.558553 1_555
O23 Y5 2.184807 1_555
O24 S1 1.461630 1_555
O25 P11 1.533703 1_555
O26 P12 1.534685 1_555
O27 P13 1.537019 1_555
O28 S2 1.480931 1_555
O29 P14 1.530038 1_555
O30 P14 1.538451 1_555
O31 P13 1.529077 1_555
O32 S2 1.459523 1_555
O33 P11 1.539490 1_555
O34 P12 1.532422 1_555
O35 S1 1.480186 1_555
O36 P14 1.566203 1_555
O36 Y0 2.246595 1_555
O37 P13 1.592173 1_555
O37 Y0 2.232990 1_655
O38 S2 1.497931 1_555
O38 Y0 2.327737 1_545
O39 P11 1.563085 1_555
O39 Y1 2.241690 1_455
O40 P12 1.586409 1_555
O40 Y1 2.279021 1_465
O41 S1 1.495944 1_555
O41 Y1 2.330011 1_565
O42 P5 1.545853 1_555
O43 P6 1.545141 1_555
O44 P7 1.546498 1_555
O45 P8 1.549012 1_555
O46 P9 1.547881 1_555
O47 P10 1.551724 1_555
O48 P4 1.568139 1_545
O48 Y2 2.260501 1_555
O49 P2 1.565848 1_555
O49 Y2 2.254195 1_555
O50 P3 1.568228 1_655
O50 Y2 2.260414 1_555
O51 P0 1.560799 1_555
O51 Y3 2.227775 1_555
O52 P1 1.585758 1_655
O52 Y3 2.275889 1_555
O53 S0 1.492181 1_545
O53 Y3 2.315825 1_555
O54 S1 1.518063 1_555
O54 Y4 2.394898 1_555
O55 P11 1.571318 1_655
O55 Y4 2.240756 1_555
O56 P12 1.569807 1_545
O56 Y4 2.248031 1_555
O57 P13 1.568080 1_545
O57 Y5 2.240352 1_555
O58 S2 1.500318 1_555
O58 Y5 2.341632 1_555
O59 P14 1.593691 1_655
O59 Y5 2.290479 1_555
O60 P10 1.546335 1_555
O61 P8 1.544666 1_455
O62 P9 1.543612 1_565
O63 P6 1.545543 1_565
O64 P7 1.546291 1_555
O65 P5 1.544299 1_455
O66 S0 1.491469 1_555
O67 P0 1.543027 1_555
O68 P1 1.544841 1_555
O69 P2 1.552894 1_555
O70 P3 1.553091 1_555
O71 P4 1.553501 1_555
