# generated using pymatgen
data_Sm5Ga3
_symmetry_space_group_name_H-M   'P 1'
_cell_length_a   7.77006024
_cell_length_b   7.77006024
_cell_length_c   14.40756201
_cell_angle_alpha   90.00000000
_cell_angle_beta   90.00000000
_cell_angle_gamma   90.00001549
_symmetry_Int_Tables_number   1
_chemical_formula_structural   Sm5Ga3
_chemical_formula_sum   'Sm20 Ga12'
_cell_volume   869.83978787
_cell_formula_units_Z   4
loop_
 _symmetry_equiv_pos_site_id
 _symmetry_equiv_pos_as_xyz
  1  'x, y, z'
loop_
 _atom_site_type_symbol
 _atom_site_label
 _atom_site_symmetry_multiplicity
 _atom_site_fract_x
 _atom_site_fract_y
 _atom_site_fract_z
 _atom_site_occupancy
  Sm  Sm0  1  0.09259931  0.56434598  0.89644836  1
  Sm  Sm1  1  0.59259931  0.43565402  0.60355164  1
  Sm  Sm2  1  0.56434598  0.40740069  0.89644836  1
  Sm  Sm3  1  0.93565402  0.09259931  0.89644836  1
  Sm  Sm4  1  0.25000000  0.25000000  0.22058218  1
  Sm  Sm5  1  0.75000000  0.75000000  0.27941782  1
  Sm  Sm6  1  0.75000000  0.75000000  0.77941782  1
  Sm  Sm7  1  0.25000000  0.25000000  0.72058218  1
  Sm  Sm8  1  0.40740069  0.93565402  0.89644836  1
  Sm  Sm9  1  0.06434598  0.59259931  0.60355164  1
  Sm  Sm10  1  0.43565402  0.90740069  0.60355164  1
  Sm  Sm11  1  0.90740069  0.06434598  0.60355164  1
  Sm  Sm12  1  0.06434598  0.90740069  0.10355164  1
  Sm  Sm13  1  0.43565402  0.59259931  0.10355164  1
  Sm  Sm14  1  0.40740069  0.56434598  0.39644836  1
  Sm  Sm15  1  0.90740069  0.43565402  0.10355164  1
  Sm  Sm16  1  0.59259931  0.06434598  0.10355164  1
  Sm  Sm17  1  0.93565402  0.40740069  0.39644836  1
  Sm  Sm18  1  0.56434598  0.09259931  0.39644836  1
  Sm  Sm19  1  0.09259931  0.93565402  0.39644836  1
  Ga  Ga0  1  0.63069045  0.13069045  0.75000000  1
  Ga  Ga1  1  0.36930955  0.63069045  0.75000000  1
  Ga  Ga2  1  0.13069045  0.86930955  0.75000000  1
  Ga  Ga3  1  0.86930955  0.36930955  0.75000000  1
  Ga  Ga4  1  0.36930955  0.86930955  0.25000000  1
  Ga  Ga5  1  0.63069045  0.36930955  0.25000000  1
  Ga  Ga6  1  0.86930955  0.13069045  0.25000000  1
  Ga  Ga7  1  0.13069045  0.63069045  0.25000000  1
  Ga  Ga8  1  0.75000000  0.75000000  0.99372205  1
  Ga  Ga9  1  0.25000000  0.25000000  0.50627795  1
  Ga  Ga10  1  0.25000000  0.25000000  0.00627795  1
  Ga  Ga11  1  0.75000000  0.75000000  0.49372205  1
loop_
_geom_bond_atom_site_label_1
_geom_bond_atom_site_label_2
_geom_bond_distance
_geom_bond_site_symmetry_2
Ga0 Ga3 2.622071 1_555
Ga0 Sm2 3.056211 1_555
Ga0 Sm11 3.056211 1_555
Ga0 Sm8 3.123885 1_545
Ga0 Sm10 3.123885 1_545
Ga0 Sm6 3.128696 1_545
Ga0 Sm7 3.128696 1_555
Ga0 Sm1 3.186610 1_555
Ga0 Sm3 3.186610 1_555
Ga1 Ga2 2.622072 1_555
Ga1 Sm10 3.056211 1_555
Ga1 Sm0 3.056211 1_555
Ga1 Sm1 3.123885 1_555
Ga1 Sm2 3.123885 1_555
Ga1 Sm6 3.128696 1_555
Ga1 Sm7 3.128696 1_555
Ga1 Sm8 3.186609 1_555
Ga1 Sm9 3.186609 1_555
Ga2 Sm9 3.056211 1_555
Ga2 Sm8 3.056211 1_555
Ga2 Sm11 3.123885 1_465
Ga2 Sm3 3.123885 1_465
Ga2 Sm6 3.128696 1_455
Ga2 Sm7 3.128696 1_565
Ga2 Sm10 3.186609 1_555
Ga2 Sm0 3.186609 1_555
Ga3 Sm1 3.056211 1_555
Ga3 Sm3 3.056211 1_555
Ga3 Sm9 3.123885 1_655
Ga3 Sm0 3.123885 1_655
Ga3 Sm7 3.128696 1_655
Ga3 Sm6 3.128696 1_555
Ga3 Sm11 3.186610 1_555
Ga3 Sm2 3.186610 1_555
Ga4 Ga7 2.622071 1_555
Ga4 Sm19 3.056211 1_555
Ga4 Sm13 3.056211 1_555
Ga4 Sm16 3.123885 1_565
Ga4 Sm18 3.123885 1_565
Ga4 Sm4 3.128696 1_565
Ga4 Sm5 3.128696 1_555
Ga4 Sm14 3.186610 1_555
Ga4 Sm12 3.186610 1_555
Ga5 Ga6 2.622072 1_555
Ga5 Sm18 3.056211 1_555
Ga5 Sm15 3.056211 1_555
Ga5 Sm14 3.123885 1_555
Ga5 Sm13 3.123885 1_555
Ga5 Sm4 3.128696 1_555
Ga5 Sm5 3.128696 1_555
Ga5 Sm16 3.186609 1_555
Ga5 Sm17 3.186609 1_555
Ga6 Sm16 3.056211 1_555
Ga6 Sm17 3.056211 1_555
Ga6 Sm19 3.123885 1_645
Ga6 Sm12 3.123885 1_645
Ga6 Sm4 3.128696 1_655
Ga6 Sm5 3.128696 1_545
Ga6 Sm15 3.186609 1_555
Ga6 Sm18 3.186609 1_555
Ga7 Sm14 3.056211 1_555
Ga7 Sm12 3.056211 1_555
Ga7 Sm17 3.123885 1_455
Ga7 Sm15 3.123885 1_455
Ga7 Sm4 3.128696 1_555
Ga7 Sm5 3.128696 1_455
Ga7 Sm19 3.186610 1_555
Ga7 Sm13 3.186610 1_555
Ga8 Sm6 3.087601 1_555
Ga8 Sm12 3.156805 1_656
Ga8 Sm13 3.156805 1_556
Ga8 Sm16 3.156806 1_566
Ga8 Sm15 3.156806 1_556
Ga8 Sm3 3.336375 1_565
Ga8 Sm2 3.336375 1_555
Ga8 Sm8 3.336376 1_555
Ga8 Sm0 3.336376 1_655
Ga9 Sm7 3.087601 1_555
Ga9 Sm19 3.156805 1_545
Ga9 Sm14 3.156805 1_555
Ga9 Sm17 3.156806 1_455
Ga9 Sm18 3.156806 1_555
Ga9 Sm1 3.336375 1_555
Ga9 Sm11 3.336375 1_455
Ga9 Sm9 3.336376 1_555
Ga9 Sm10 3.336376 1_545
Ga10 Sm4 3.087601 1_555
Ga10 Sm2 3.156805 1_554
Ga10 Sm3 3.156805 1_454
Ga10 Sm0 3.156806 1_554
Ga10 Sm8 3.156806 1_544
Ga10 Sm12 3.336375 1_545
Ga10 Sm13 3.336375 1_555
Ga10 Sm15 3.336376 1_455
Ga10 Sm16 3.336376 1_555
Ga11 Sm5 3.087601 1_555
Ga11 Sm11 3.156805 1_565
Ga11 Sm1 3.156805 1_555
Ga11 Sm9 3.156806 1_655
Ga11 Sm10 3.156806 1_555
Ga11 Sm19 3.336375 1_655
Ga11 Sm14 3.336375 1_555
Ga11 Sm17 3.336376 1_555
Ga11 Sm18 3.336376 1_565
