# generated using pymatgen
data_LiFePO4F
_symmetry_space_group_name_H-M   'P 1'
_cell_length_a   5.21172000
_cell_length_b   5.36560926
_cell_length_c   7.39721607
_cell_angle_alpha   106.77179127
_cell_angle_beta   108.76034616
_cell_angle_gamma   97.87983281
_symmetry_Int_Tables_number   1
_chemical_formula_structural   LiFePO4F
_chemical_formula_sum   'Li2 Fe2 P2 O8 F2'
_cell_volume   181.40448709
_cell_formula_units_Z   2
loop_
 _symmetry_equiv_pos_site_id
 _symmetry_equiv_pos_as_xyz
  1  'x, y, z'
loop_
 _atom_site_type_symbol
 _atom_site_label
 _atom_site_symmetry_multiplicity
 _atom_site_fract_x
 _atom_site_fract_y
 _atom_site_fract_z
 _atom_site_occupancy
  Li  Li0  1  0.26875000  0.61381700  0.18738200  1
  Li  Li1  1  0.73125000  0.38618300  0.81261800  1
  Fe  Fe0  1  0.00000000  0.00000000  0.00000000  1
  Fe  Fe1  1  0.00000000  0.00000000  0.50000000  1
  P  P0  1  0.32218400  0.64148200  0.76314000  1
  P  P1  1  0.67781600  0.35851800  0.23686000  1
  O  O0  1  0.30907900  0.34135700  0.65926100  1
  O  O1  1  0.69092100  0.65864300  0.34073900  1
  O  O2  1  0.36797700  0.24233200  0.08407800  1
  O  O3  1  0.75188000  0.21282500  0.38955200  1
  O  O4  1  0.63202300  0.75766800  0.91592200  1
  O  O5  1  0.24812000  0.78717500  0.61044800  1
  O  O6  1  0.12568800  0.66458800  0.88677900  1
  O  O7  1  0.87431200  0.33541200  0.11322100  1
  F  F0  1  0.12908700  0.92913200  0.26355000  1
  F  F1  1  0.87091300  0.07086800  0.73645000  1
loop_
_geom_bond_atom_site_label_1
_geom_bond_atom_site_label_2
_geom_bond_distance
_geom_bond_site_symmetry_2
Li0 O1 2.068273 1_555
Li0 O2 2.117115 1_555
Li0 O7 2.172098 1_455
Li0 O6 2.216643 1_554
Li1 O0 2.068273 1_555
Li1 O4 2.117115 1_555
Li1 O6 2.172098 1_655
Li1 O7 2.216643 1_556
Fe0 O2 1.959022 1_555
Fe0 O4 1.959022 1_444
Fe0 O7 2.043443 1_455
Fe0 O6 2.043443 1_544
Fe1 O3 1.976734 1_455
Fe1 O5 1.976734 1_545
Fe1 O0 2.015560 1_555
Fe1 O1 2.015560 1_445
O0 P0 1.552517 1_555
O1 P1 1.552517 1_555
O2 P1 1.554659 1_555
O3 P1 1.532233 1_555
O4 P0 1.554659 1_555
O5 P0 1.532233 1_555
O6 P0 1.572387 1_555
O7 P1 1.572387 1_555
F0 Li0 1.939321 1_555
F0 Fe0 2.013015 1_565
F0 Fe1 2.024760 1_565
F1 Li1 1.939321 1_555
F1 Fe0 2.013015 1_656
F1 Fe1 2.024760 1_655
