# generated using pymatgen
data_MgFe8(OF)8
_symmetry_space_group_name_H-M   'P 1'
_cell_length_a   9.73417917
_cell_length_b   10.16872918
_cell_length_c   3.09753800
_cell_angle_alpha   90.00000000
_cell_angle_beta   90.00000000
_cell_angle_gamma   90.73944235
_symmetry_Int_Tables_number   1
_chemical_formula_structural   MgFe8(OF)8
_chemical_formula_sum   'Mg1 Fe8 O8 F8'
_cell_volume   306.58188571
_cell_formula_units_Z   1
loop_
 _symmetry_equiv_pos_site_id
 _symmetry_equiv_pos_as_xyz
  1  'x, y, z'
loop_
 _atom_site_type_symbol
 _atom_site_label
 _atom_site_symmetry_multiplicity
 _atom_site_fract_x
 _atom_site_fract_y
 _atom_site_fract_z
 _atom_site_occupancy
  Mg  Mg0  1  0.47803300  0.74956000  0.50000000  1
  Fe  Fe0  1  0.02748700  0.03120400  0.00000000  1
  Fe  Fe1  1  0.01178900  0.48589500  0.00000000  1
  Fe  Fe2  1  0.23068700  0.26377900  0.50000000  1
  Fe  Fe3  1  0.12262700  0.74467100  0.50000000  1
  Fe  Fe4  1  0.52883700  0.47719000  0.00000000  1
  Fe  Fe5  1  0.50579400  0.03017300  0.00000000  1
  Fe  Fe6  1  0.77258800  0.27899500  0.50000000  1
  Fe  Fe7  1  0.76771700  0.70237800  0.50000000  1
  O  O0  1  0.10929500  0.40246900  0.50000000  1
  O  O1  1  0.08138000  0.93163400  0.50000000  1
  O  O2  1  0.15998200  0.16637400  0.00000000  1
  O  O3  1  0.13299500  0.63966300  0.00000000  1
  O  O4  1  0.61396600  0.40210000  0.50000000  1
  O  O5  1  0.61953900  0.66314200  0.00000000  1
  O  O6  1  0.86512200  0.34349300  0.00000000  1
  O  O7  1  0.89583300  0.57555200  0.50000000  1
  F  F0  1  0.36311400  0.34541800  0.00000000  1
  F  F1  1  0.38967900  0.83540300  0.00000000  1
  F  F2  1  0.40270200  0.11806000  0.50000000  1
  F  F3  1  0.41090800  0.56848900  0.50000000  1
  F  F4  1  0.59603400  0.91519800  0.50000000  1
  F  F5  1  0.66613700  0.16727900  0.00000000  1
  F  F6  1  0.83637600  0.81668800  0.00000000  1
  F  F7  1  0.89749300  0.10676500  0.50000000  1
loop_
_geom_bond_atom_site_label_1
_geom_bond_atom_site_label_2
_geom_bond_distance
_geom_bond_site_symmetry_2
Mg0 O5 2.258208 1_556
Mg0 O5 2.258208 1_555
Fe0 O2 1.872677 1_555
Fe0 O1 1.926853 1_544
Fe0 O1 1.926853 1_545
Fe1 O3 1.946621 1_555
Fe1 O0 2.009978 1_555
Fe1 O0 2.009978 1_554
Fe1 O6 2.020337 1_455
Fe1 O7 2.128494 1_455
Fe1 O7 2.128494 1_454
Fe2 O0 1.851557 1_555
Fe2 O2 1.958532 1_555
Fe2 O2 1.958532 1_556
Fe3 O3 1.884634 1_556
Fe3 O3 1.884634 1_555
Fe3 O1 1.948173 1_555
Fe4 O4 1.919566 1_554
Fe4 O4 1.919566 1_555
Fe4 O5 2.076517 1_555
Fe6 O6 1.903925 1_555
Fe6 O6 1.903925 1_556
Fe6 O4 2.000263 1_555
Fe7 O7 1.805548 1_555
Fe7 O5 2.150235 1_556
Fe7 O5 2.150235 1_555
F0 Fe4 2.083753 1_555
F0 Fe2 2.173001 1_554
F0 Fe2 2.173001 1_555
F1 Mg0 1.979832 1_554
F1 Mg0 1.979832 1_555
F1 Fe5 2.267685 1_565
F2 Fe5 2.056107 1_555
F2 Fe5 2.056107 1_556
F2 Fe2 2.250200 1_555
F3 Mg0 1.945799 1_555
F3 Fe4 2.146132 1_556
F3 Fe4 2.146132 1_555
F4 Mg0 2.026427 1_555
F4 Fe5 2.136285 1_565
F4 Fe5 2.136285 1_566
F5 Fe5 2.079358 1_555
F5 Fe6 2.175444 1_555
F5 Fe6 2.175444 1_554
F6 Fe7 2.043638 1_555
F6 Fe7 2.043638 1_554
F7 Fe6 2.144880 1_555
F7 Fe0 2.148338 1_655
F7 Fe0 2.148338 1_656
