# generated using pymatgen
data_Na3MgInP2SO12
_symmetry_space_group_name_H-M   'P 1'
_cell_length_a   9.06271734
_cell_length_b   9.03100494
_cell_length_c   22.31543517
_cell_angle_alpha   90.05302252
_cell_angle_beta   90.00000000
_cell_angle_gamma   120.11622773
_symmetry_Int_Tables_number   1
_chemical_formula_structural   Na3MgInP2SO12
_chemical_formula_sum   'Na18 Mg6 In6 P12 S6 O72'
_cell_volume   1579.86662807
_cell_formula_units_Z   6
loop_
 _symmetry_equiv_pos_site_id
 _symmetry_equiv_pos_as_xyz
  1  'x, y, z'
loop_
 _atom_site_type_symbol
 _atom_site_label
 _atom_site_symmetry_multiplicity
 _atom_site_fract_x
 _atom_site_fract_y
 _atom_site_fract_z
 _atom_site_occupancy
  Na  Na0  1  0.35459074  0.35294804  0.24530920  1
  Na  Na1  1  0.00258444  0.63263330  0.24505171  1
  Na  Na2  1  0.63004886  0.63263330  0.74505171  1
  Na  Na3  1  0.99835731  0.35294804  0.74530920  1
  Na  Na4  1  0.02125774  0.68628104  0.57864220  1
  Na  Na5  1  0.66925144  0.96596630  0.57838471  1
  Na  Na6  1  0.29671586  0.96596630  0.07838471  1
  Na  Na7  1  0.66502431  0.68628104  0.07864220  1
  Na  Na8  1  0.68792374  0.01961504  0.91197620  1
  Na  Na9  1  0.33591744  0.29930030  0.91171871  1
  Na  Na10  1  0.96338186  0.29930030  0.41171871  1
  Na  Na11  1  0.33169031  0.01961504  0.41197620  1
  Na  Na12  1  0.97720319  0.98352858  0.49567891  1
  Na  Na13  1  0.00632539  0.98352858  0.99567891  1
  Na  Na14  1  0.64387019  0.31686158  0.82901191  1
  Na  Na15  1  0.67299239  0.31686158  0.32901191  1
  Na  Na16  1  0.31053619  0.65019558  0.16234591  1
  Na  Na17  1  0.33965839  0.65019558  0.66234591  1
  Mg  Mg0  1  0.99234571  0.99557993  0.35083571  1
  Mg  Mg1  1  0.00323423  0.99557993  0.85083571  1
  Mg  Mg2  1  0.65901271  0.32891293  0.68416871  1
  Mg  Mg3  1  0.66990123  0.32891293  0.18416871  1
  Mg  Mg4  1  0.32567871  0.66224693  0.01750271  1
  Mg  Mg5  1  0.33656723  0.66224693  0.51750271  1
  In  In0  1  0.00366625  0.01049244  0.65279901  1
  In  In1  1  0.00682619  0.01049244  0.15279901  1
  In  In2  1  0.67033325  0.34382544  0.98613201  1
  In  In3  1  0.67349319  0.34382544  0.48613201  1
  In  In4  1  0.33699925  0.67715944  0.31946601  1
  In  In5  1  0.34015919  0.67715944  0.81946601  1
  P  P0  1  0.30176653  0.00299978  0.25133384  1
  P  P1  1  -0.00012396  0.30029093  0.25484257  1
  P  P2  1  0.30041489  0.30029093  0.75484257  1
  P  P3  1  0.70123326  0.00299978  0.75133384  1
  P  P4  1  0.96843353  0.33633278  0.58466684  1
  P  P5  1  0.66654304  0.63362393  0.58817557  1
  P  P6  1  0.96708189  0.63362393  0.08817557  1
  P  P7  1  0.36790026  0.33633278  0.08466684  1
  P  P8  1  0.63509953  0.66966678  0.91800084  1
  P  P9  1  0.33320904  0.96695793  0.92150957  1
  P  P10  1  0.63374789  0.96695793  0.42150957  1
  P  P11  1  0.03456626  0.66966678  0.41800084  1
  S  S0  1  0.70181818  0.70154322  0.24935658  1
  S  S1  1  0.99972503  0.70154322  0.74935658  1
  S  S2  1  0.36848518  0.03487622  0.58268958  1
  S  S3  1  0.66639203  0.03487622  0.08268958  1
  S  S4  1  0.03515118  0.36821022  0.91602358  1
  S  S5  1  0.33305803  0.36821022  0.41602358  1
  O  O0  1  0.20931400  0.02283246  0.30624121  1
  O  O1  1  0.81278659  0.79653437  0.29982027  1
  O  O2  1  0.98355035  0.19715774  0.31132824  1
  O  O3  1  0.21360739  0.19715774  0.81132824  1
  O  O4  1  0.98374778  0.79653437  0.79982027  1
  O  O5  1  0.81351846  0.02283246  0.80624121  1
  O  O6  1  0.77622754  0.96635016  0.69345281  1
  O  O7  1  0.18931421  0.21950689  0.69802694  1
  O  O8  1  0.02683024  0.79559781  0.69167776  1
  O  O9  1  0.76876757  0.79559781  0.19167776  1
  O  O10  1  0.03019267  0.21950689  0.19802694  1
  O  O11  1  0.19012262  0.96635016  0.19345281  1
  O  O12  1  0.87598100  0.35616546  0.63957421  1
  O  O13  1  0.47945359  0.12986737  0.63315327  1
  O  O14  1  0.65021735  0.53049074  0.64466124  1
  O  O15  1  0.88027439  0.53049074  0.14466124  1
  O  O16  1  0.65041478  0.12986737  0.13315327  1
  O  O17  1  0.48018546  0.35616546  0.13957421  1
  O  O18  1  0.44289454  0.29968316  0.02678581  1
  O  O19  1  0.85598121  0.55283989  0.03135994  1
  O  O20  1  0.69349724  0.12893081  0.02501076  1
  O  O21  1  0.43543457  0.12893081  0.52501076  1
  O  O22  1  0.69685967  0.55283989  0.53135994  1
  O  O23  1  0.85678962  0.29968316  0.52678581  1
  O  O24  1  0.54264700  0.68949946  0.97290821  1
  O  O25  1  0.14611959  0.46320137  0.96648727  1
  O  O26  1  0.31688335  0.86382474  0.97799524  1
  O  O27  1  0.54694039  0.86382474  0.47799524  1
  O  O28  1  0.31708078  0.46320137  0.46648727  1
  O  O29  1  0.14685146  0.68949946  0.47290821  1
  O  O30  1  0.10956054  0.63301716  0.36011981  1
  O  O31  1  0.52264721  0.88617389  0.36469394  1
  O  O32  1  0.36016324  0.46226481  0.35834476  1
  O  O33  1  0.10210057  0.46226481  0.85834476  1
  O  O34  1  0.36352567  0.88617389  0.86469394  1
  O  O35  1  0.52345562  0.63301716  0.86011981  1
  O  O36  1  0.02628629  0.83574055  0.41133824  1
  O  O37  1  0.81649713  0.99692610  0.41469033  1
  O  O38  1  0.17440968  0.19716875  0.41319910  1
  O  O39  1  0.02275907  0.19716875  0.91319910  1
  O  O40  1  0.18042898  0.99692610  0.91469033  1
  O  O41  1  0.80945426  0.83574055  0.91133824  1
  O  O42  1  0.98566465  0.17313776  0.58752334  1
  O  O43  1  0.19079619  0.00382898  0.58839678  1
  O  O44  1  0.83644334  0.81520221  0.58909745  1
  O  O45  1  0.97875887  0.81520221  0.08909745  1
  O  O46  1  0.81303279  0.00382898  0.08839678  1
  O  O47  1  0.18747310  0.17313776  0.08752334  1
  O  O48  1  0.69295329  0.16907355  0.74467124  1
  O  O49  1  0.48316413  0.33025910  0.74802333  1
  O  O50  1  0.84107668  0.53050175  0.74653210  1
  O  O51  1  0.68942607  0.53050175  0.24653210  1
  O  O52  1  0.84709598  0.33025910  0.24802333  1
  O  O53  1  0.47612126  0.16907355  0.24467124  1
  O  O54  1  0.65233165  0.50647076  0.92085634  1
  O  O55  1  0.85746319  0.33716198  0.92172978  1
  O  O56  1  0.50311034  0.14853521  0.92243045  1
  O  O57  1  0.64542587  0.14853521  0.42243045  1
  O  O58  1  0.47969979  0.33716198  0.42172978  1
  O  O59  1  0.85414010  0.50647076  0.42085634  1
  O  O60  1  0.35961929  0.50240755  0.07800524  1
  O  O61  1  0.14983013  0.66359310  0.08135733  1
  O  O62  1  0.50774268  0.86383575  0.07986610  1
  O  O63  1  0.35609207  0.86383575  0.57986610  1
  O  O64  1  0.51376198  0.66359310  0.58135733  1
  O  O65  1  0.14278726  0.50240755  0.57800524  1
  O  O66  1  0.31899765  0.83980476  0.25419034  1
  O  O67  1  0.52412919  0.67049598  0.25506378  1
  O  O68  1  0.16977634  0.48186921  0.25576445  1
  O  O69  1  0.31209187  0.48186921  0.75576445  1
  O  O70  1  0.14636579  0.67049598  0.75506378  1
  O  O71  1  0.52080610  0.83980476  0.75419034  1
loop_
_geom_bond_atom_site_label_1
_geom_bond_atom_site_label_2
_geom_bond_distance
_geom_bond_site_symmetry_2
Na0 O53 2.409585 1_555
Na0 O68 2.484310 1_555
Na0 O67 2.491865 1_555
Na0 O17 2.613560 1_555
Na0 O51 2.626259 1_555
Na0 O32 2.699119 1_555
Na0 O10 2.766048 1_555
Na0 O0 2.922133 1_555
Na1 O52 2.363441 1_455
Na1 O15 2.463420 1_455
Na1 O68 2.505540 1_555
Na1 O51 2.505915 1_455
Na1 O66 2.525938 1_555
Na1 O30 2.744105 1_555
Na1 O11 2.857210 1_555
Na2 O49 2.363441 1_555
Na2 O14 2.463422 1_555
Na2 O69 2.505547 1_555
Na2 O50 2.505924 1_555
Na2 O71 2.525945 1_555
Na2 O35 2.744108 1_555
Na2 O6 2.857210 1_555
Na3 O48 2.409578 1_555
Na3 O69 2.484301 1_655
Na3 O70 2.491865 1_655
Na3 O12 2.613556 1_555
Na3 O50 2.626252 1_555
Na3 O33 2.699118 1_655
Na3 O7 2.766048 1_655
Na3 O5 2.922133 1_555
Na4 O65 2.409570 1_555
Na4 O44 2.484310 1_455
Na4 O43 2.491865 1_565
Na4 O29 2.613534 1_555
Na4 O63 2.626252 1_555
Na4 O8 2.699119 1_555
Na4 O22 2.766048 1_455
Na4 O12 2.922133 1_455
Na5 O64 2.363434 1_555
Na5 O27 2.463400 1_555
Na5 O44 2.505540 1_555
Na5 O63 2.505926 1_555
Na5 O42 2.525938 1_565
Na5 O6 2.744105 1_555
Na5 O23 2.857210 1_565
Na6 O61 2.363434 1_555
Na6 O26 2.463396 1_554
Na6 O45 2.505547 1_455
Na6 O62 2.505909 1_555
Na6 O47 2.525945 1_565
Na6 O11 2.744108 1_555
Na6 O18 2.857210 1_565
Na7 O60 2.409584 1_555
Na7 O45 2.484301 1_555
Na7 O46 2.491865 1_565
Na7 O24 2.613542 1_554
Na7 O62 2.626267 1_555
Na7 O9 2.699118 1_555
Na7 O19 2.766048 1_555
Na7 O17 2.922133 1_555
Na8 O41 2.409585 1_545
Na8 O56 2.484292 1_555
Na8 O55 2.491855 1_555
Na8 O5 2.613560 1_555
Na8 O39 2.626259 1_655
Na8 O20 2.699094 1_556
Na8 O34 2.766048 1_545
Na8 O24 2.922133 1_545
Na9 O40 2.363441 1_545
Na9 O3 2.463420 1_555
Na9 O56 2.505553 1_555
Na9 O39 2.505915 1_555
Na9 O54 2.525942 1_555
Na9 O18 2.744089 1_556
Na9 O35 2.857210 1_555
Na10 O37 2.363441 1_545
Na10 O2 2.463422 1_555
Na10 O57 2.505537 1_555
Na10 O38 2.505924 1_655
Na10 O59 2.525928 1_555
Na10 O23 2.744082 1_555
Na10 O30 2.857210 1_655
Na11 O36 2.409578 1_545
Na11 O57 2.484309 1_555
Na11 O58 2.491855 1_555
Na11 O0 2.613556 1_555
Na11 O38 2.626252 1_555
Na11 O21 2.699097 1_555
Na11 O31 2.766048 1_545
Na11 O29 2.922133 1_545
Na12 O37 2.362075 1_555
Na12 O36 2.472379 1_655
Na12 O44 2.518713 1_555
Na12 O38 2.617371 1_665
Na12 O42 2.645835 1_565
Na12 O43 2.775746 1_665
Na13 O40 2.362075 1_555
Na13 O41 2.472379 1_455
Na13 O45 2.518713 1_456
Na13 O39 2.617371 1_565
Na13 O47 2.645835 1_566
Na13 O46 2.775746 1_466
Na14 O49 2.362075 1_555
Na14 O48 2.472379 1_555
Na14 O56 2.518713 1_555
Na14 O50 2.617371 1_555
Na14 O54 2.645835 1_555
Na14 O55 2.775746 1_555
Na15 O52 2.362075 1_555
Na15 O53 2.472379 1_555
Na15 O57 2.518713 1_555
Na15 O51 2.617371 1_555
Na15 O59 2.645835 1_555
Na15 O58 2.775746 1_555
Na16 O61 2.362075 1_555
Na16 O60 2.472379 1_555
Na16 O68 2.518713 1_555
Na16 O62 2.617371 1_555
Na16 O66 2.645835 1_555
Na16 O67 2.775746 1_555
Na17 O64 2.362075 1_555
Na17 O65 2.472379 1_555
Na17 O69 2.518713 1_555
Na17 O63 2.617371 1_555
Na17 O71 2.645835 1_555
Na17 O70 2.775746 1_555
Mg0 O1 2.058193 1_555
Mg0 O2 2.060642 1_565
Mg0 O0 2.105260 1_665
Mg0 O36 2.109596 1_655
Mg0 O37 2.142380 1_555
Mg0 O38 2.225867 1_665
Mg1 O4 2.058193 1_455
Mg1 O3 2.060642 1_565
Mg1 O5 2.105260 1_465
Mg1 O41 2.109596 1_455
Mg1 O40 2.142380 1_555
Mg1 O39 2.225867 1_565
Mg2 O13 2.058193 1_555
Mg2 O14 2.060642 1_555
Mg2 O12 2.105260 1_555
Mg2 O48 2.109596 1_555
Mg2 O49 2.142380 1_555
Mg2 O50 2.225867 1_555
Mg3 O16 2.058193 1_555
Mg3 O15 2.060642 1_555
Mg3 O17 2.105260 1_555
Mg3 O53 2.109596 1_555
Mg3 O52 2.142380 1_555
Mg3 O51 2.225867 1_555
Mg4 O25 2.058193 1_554
Mg4 O26 2.060642 1_554
Mg4 O24 2.105260 1_554
Mg4 O60 2.109596 1_555
Mg4 O61 2.142380 1_555
Mg4 O62 2.225867 1_555
Mg5 O28 2.058193 1_555
Mg5 O27 2.060642 1_555
Mg5 O29 2.105260 1_555
Mg5 O65 2.109596 1_555
Mg5 O64 2.142380 1_555
Mg5 O63 2.225867 1_555
In0 O7 2.054728 1_555
In0 O6 2.099197 1_445
In0 O42 2.133171 1_455
In0 O44 2.177414 1_445
In0 O8 2.230499 1_545
In0 O43 2.246645 1_555
In1 O10 2.054728 1_555
In1 O11 2.099197 1_545
In1 O47 2.133171 1_555
In1 O45 2.177414 1_445
In1 O9 2.230499 1_445
In1 O46 2.246645 1_455
In2 O19 2.054728 1_556
In2 O18 2.099197 1_556
In2 O54 2.133171 1_555
In2 O56 2.177414 1_555
In2 O20 2.230499 1_556
In2 O55 2.246645 1_555
In3 O22 2.054728 1_555
In3 O23 2.099197 1_555
In3 O59 2.133171 1_555
In3 O57 2.177414 1_555
In3 O21 2.230499 1_555
In3 O58 2.246645 1_555
In4 O31 2.054728 1_555
In4 O30 2.099197 1_555
In4 O66 2.133171 1_555
In4 O68 2.177414 1_555
In4 O32 2.230499 1_555
In4 O67 2.246645 1_555
In5 O34 2.054728 1_555
In5 O35 2.099197 1_555
In5 O71 2.133171 1_555
In5 O69 2.177414 1_555
In5 O33 2.230499 1_555
In5 O70 2.246645 1_555
O0 P0 1.544544 1_555
O1 S0 1.465575 1_555
O2 P1 1.530405 1_655
O3 P2 1.530405 1_555
O4 S1 1.465575 1_555
O5 P3 1.544544 1_555
O6 P3 1.569956 1_565
O7 P2 1.553921 1_555
O8 S1 1.493710 1_455
O9 S0 1.493710 1_555
O10 P1 1.553921 1_555
O11 P0 1.569956 1_565
O12 P4 1.544544 1_555
O13 S2 1.465575 1_555
O14 P5 1.530405 1_555
O15 P6 1.530405 1_555
O16 S3 1.465575 1_555
O17 P7 1.544544 1_555
O18 P7 1.569956 1_555
O19 P6 1.553921 1_555
O20 S3 1.493710 1_555
O21 S2 1.493710 1_555
O22 P5 1.553921 1_555
O23 P4 1.569956 1_555
O24 P8 1.544544 1_555
O25 S4 1.465575 1_555
O26 P9 1.530405 1_555
O27 P10 1.530405 1_555
O28 S5 1.465575 1_555
O29 P11 1.544544 1_555
O30 P11 1.569956 1_555
O31 P10 1.553921 1_555
O32 S5 1.493710 1_555
O33 S4 1.493710 1_555
O34 P9 1.553921 1_555
O35 P8 1.569956 1_555
O36 P11 1.546133 1_555
O37 P10 1.545859 1_555
O38 S5 1.492760 1_555
O39 S4 1.492764 1_555
O40 P9 1.545850 1_555
O41 P8 1.546138 1_555
O42 P4 1.559396 1_555
O43 S2 1.494994 1_555
O44 P5 1.589484 1_555
O45 P6 1.589488 1_555
O46 S3 1.494986 1_555
O47 P7 1.559401 1_555
O48 P3 1.546133 1_555
O49 P2 1.545859 1_555
O50 S1 1.492760 1_555
O51 S0 1.492764 1_555
O52 P1 1.545850 1_655
O53 P0 1.546138 1_555
O54 P8 1.559409 1_555
O55 S4 1.494980 1_655
O56 P9 1.589483 1_545
O57 P10 1.589474 1_545
O58 S5 1.494998 1_555
O59 P11 1.559398 1_655
O60 P7 1.546145 1_555
O61 P6 1.545845 1_455
O62 S3 1.492758 1_565
O63 S2 1.492750 1_565
O64 P5 1.545863 1_555
O65 P4 1.546135 1_455
O66 P0 1.559396 1_565
O67 S0 1.494994 1_555
O68 P1 1.589484 1_555
O69 P2 1.589488 1_555
O70 S1 1.494986 1_455
O71 P3 1.559401 1_565
