# generated using pymatgen
data_CuSeO3
_symmetry_space_group_name_H-M   'P 1'
_cell_length_a   5.47677600
_cell_length_b   6.15155100
_cell_length_c   7.30675800
_cell_angle_alpha   90.00000000
_cell_angle_beta   90.00000000
_cell_angle_gamma   90.00000000
_symmetry_Int_Tables_number   1
_chemical_formula_structural   CuSeO3
_chemical_formula_sum   'Cu4 Se4 O12'
_cell_volume   246.16954975
_cell_formula_units_Z   4
loop_
 _symmetry_equiv_pos_site_id
 _symmetry_equiv_pos_as_xyz
  1  'x, y, z'
loop_
 _atom_site_type_symbol
 _atom_site_label
 _atom_site_symmetry_multiplicity
 _atom_site_fract_x
 _atom_site_fract_y
 _atom_site_fract_z
 _atom_site_occupancy
  Cu  Cu0  1  0.50000000  0.00000000  0.00000000  1
  Cu  Cu1  1  0.00000000  0.50000000  0.00000000  1
  Cu  Cu2  1  0.00000000  0.50000000  0.50000000  1
  Cu  Cu3  1  0.50000000  0.00000000  0.50000000  1
  Se  Se0  1  0.00867300  0.04562500  0.25000000  1
  Se  Se1  1  0.50867300  0.45437500  0.75000000  1
  Se  Se2  1  0.49132700  0.54562500  0.25000000  1
  Se  Se3  1  0.99132700  0.95437500  0.75000000  1
  O  O0  1  0.91521300  0.20593400  0.43244100  1
  O  O1  1  0.41521300  0.29406600  0.56755900  1
  O  O2  1  0.58478700  0.70593400  0.06755900  1
  O  O3  1  0.08478700  0.79406600  0.93244100  1
  O  O4  1  0.08478700  0.79406600  0.56755900  1
  O  O5  1  0.58478700  0.70593400  0.43244100  1
  O  O6  1  0.41521300  0.29406600  0.93244100  1
  O  O7  1  0.91521300  0.20593400  0.06755900  1
  O  O8  1  0.33469700  0.07134400  0.25000000  1
  O  O9  1  0.83469700  0.42865600  0.75000000  1
  O  O10  1  0.16530300  0.57134400  0.25000000  1
  O  O11  1  0.66530300  0.92865600  0.75000000  1
loop_
_geom_bond_atom_site_label_1
_geom_bond_atom_site_label_2
_geom_bond_distance
_geom_bond_site_symmetry_2
Cu0 O6 1.931748 1_554
Cu0 O2 1.931748 1_545
Cu0 O8 2.085432 1_555
Cu0 O11 2.085432 1_544
Cu1 O3 1.931748 1_554
Cu1 O7 1.931748 1_455
Cu1 O10 2.085432 1_555
Cu1 O9 2.085432 1_454
Cu2 O4 1.931748 1_555
Cu2 O0 1.931748 1_455
Cu2 O10 2.085432 1_555
Cu2 O9 2.085432 1_455
Cu3 O1 1.931748 1_555
Cu3 O5 1.931748 1_545
Cu3 O8 2.085432 1_555
Cu3 O11 2.085432 1_545
O0 Se0 1.735373 1_655
O1 Se1 1.735373 1_555
O2 Se2 1.735373 1_555
O3 Se3 1.735373 1_455
O4 Se3 1.735373 1_455
O5 Se2 1.735373 1_555
O6 Se1 1.735373 1_555
O7 Se0 1.735373 1_655
O8 Se0 1.792556 1_555
O9 Se1 1.792556 1_555
O10 Se2 1.792556 1_555
O11 Se3 1.792556 1_555
