# generated using pymatgen
data_Na3ZrInSi(PO6)2
_symmetry_space_group_name_H-M   'P 1'
_cell_length_a   15.87892393
_cell_length_b   9.11881878
_cell_length_c   9.15501519
_cell_angle_alpha   90.00000000
_cell_angle_beta   124.68179512
_cell_angle_gamma   90.00000000
_symmetry_Int_Tables_number   1
_chemical_formula_structural   Na3ZrInSi(PO6)2
_chemical_formula_sum   'Na12 Zr4 In4 Si4 P8 O48'
_cell_volume   1090.08949030
_cell_formula_units_Z   4
loop_
 _symmetry_equiv_pos_site_id
 _symmetry_equiv_pos_as_xyz
  1  'x, y, z'
loop_
 _atom_site_type_symbol
 _atom_site_label
 _atom_site_symmetry_multiplicity
 _atom_site_fract_x
 _atom_site_fract_y
 _atom_site_fract_z
 _atom_site_occupancy
  Na  Na0  1  0.25605749  0.71493821  0.99540759  1
  Na  Na1  1  0.75605749  0.78506179  0.49540759  1
  Na  Na2  1  0.75605749  0.21493821  0.99540759  1
  Na  Na3  1  0.25605749  0.28506179  0.49540759  1
  Na  Na4  1  0.50755956  0.11311232  0.76125824  1
  Na  Na5  1  0.50755956  0.88688768  0.26125824  1
  Na  Na6  1  0.00755956  0.61311232  0.76125824  1
  Na  Na7  1  0.00755956  0.38688768  0.26125824  1
  Na  Na8  1  0.18454700  0.93238853  0.28054343  1
  Na  Na9  1  0.18454700  0.06761147  0.78054343  1
  Na  Na10  1  0.68454700  0.43238853  0.28054343  1
  Na  Na11  1  0.68454700  0.56761147  0.78054343  1
  Zr  Zr0  1  0.89523591  0.75708577  0.94077619  1
  Zr  Zr1  1  0.89523591  0.24291423  0.44077619  1
  Zr  Zr2  1  0.39523591  0.25708577  0.94077619  1
  Zr  Zr3  1  0.39523591  0.74291423  0.44077619  1
  In  In0  1  0.10113146  0.74578416  0.55612380  1
  In  In1  1  0.10113146  0.25421584  0.05612380  1
  In  In2  1  0.60113146  0.24578416  0.55612380  1
  In  In3  1  0.60113146  0.75421584  0.05612380  1
  Si  Si0  1  0.64416242  0.89391923  0.73580645  1
  Si  Si1  1  0.64416242  0.10608077  0.23580645  1
  Si  Si2  1  0.14416242  0.39391923  0.73580645  1
  Si  Si3  1  0.14416242  0.60608077  0.23580645  1
  P  P0  1  0.00207453  0.95393801  0.76215230  1
  P  P1  1  0.00207453  0.04606199  0.26215230  1
  P  P2  1  0.50207453  0.45393801  0.76215230  1
  P  P3  1  0.50207453  0.54606199  0.26215230  1
  P  P4  1  0.35044861  0.89768450  0.75715660  1
  P  P5  1  0.35044861  0.10231550  0.25715660  1
  P  P6  1  0.85044861  0.39768450  0.75715660  1
  P  P7  1  0.85044861  0.60231550  0.25715660  1
  O  O0  1  0.14983174  0.57294855  0.74299613  1
  O  O1  1  0.84872551  0.57001908  0.75458590  1
  O  O2  1  0.84872551  0.42998092  0.25458590  1
  O  O3  1  0.14983174  0.42705145  0.24299613  1
  O  O4  1  0.64983174  0.07294855  0.74299613  1
  O  O5  1  0.34872551  0.07001908  0.75458590  1
  O  O6  1  0.34872551  0.92998092  0.25458590  1
  O  O7  1  0.64983174  0.92705145  0.24299613  1
  O  O8  1  0.44735505  0.56164263  0.60182967  1
  O  O9  1  0.56428251  0.53750170  0.93789642  1
  O  O10  1  0.56428251  0.46249830  0.43789642  1
  O  O11  1  0.44735505  0.43835737  0.10182967  1
  O  O12  1  0.94735505  0.06164263  0.60182967  1
  O  O13  1  0.06428251  0.03750170  0.93789642  1
  O  O14  1  0.06428251  0.96249830  0.43789642  1
  O  O15  1  0.94735505  0.93835737  0.10182967  1
  O  O16  1  0.25548167  0.84580763  0.74839427  1
  O  O17  1  0.74176948  0.81341049  0.74890324  1
  O  O18  1  0.74176948  0.18658951  0.24890324  1
  O  O19  1  0.25548167  0.15419237  0.24839427  1
  O  O20  1  0.75548167  0.34580763  0.74839427  1
  O  O21  1  0.24176948  0.31341049  0.74890324  1
  O  O22  1  0.24176948  0.68658951  0.24890324  1
  O  O23  1  0.75548167  0.65419237  0.24839427  1
  O  O24  1  0.35005937  0.85186226  0.59184426  1
  O  O25  1  0.64165744  0.83961962  0.90044015  1
  O  O26  1  0.64165744  0.16038038  0.40044015  1
  O  O27  1  0.35005937  0.14813774  0.09184426  1
  O  O28  1  0.85005937  0.35186226  0.59184426  1
  O  O29  1  0.14165744  0.33961962  0.90044015  1
  O  O30  1  0.14165744  0.66038038  0.40044015  1
  O  O31  1  0.85005937  0.64813774  0.09184426  1
  O  O32  1  0.44636418  0.84098313  0.93099982  1
  O  O33  1  0.53766302  0.83499491  0.55063730  1
  O  O34  1  0.53766302  0.16500509  0.05063730  1
  O  O35  1  0.44636418  0.15901687  0.43099982  1
  O  O36  1  0.94636418  0.34098313  0.93099982  1
  O  O37  1  0.03766302  0.33499491  0.55063730  1
  O  O38  1  0.03766302  0.66500509  0.05063730  1
  O  O39  1  0.94636418  0.65901687  0.43099982  1
  O  O40  1  0.07757608  0.85504466  0.75131661  1
  O  O41  1  0.91801695  0.85700507  0.75093161  1
  O  O42  1  0.91801695  0.14299493  0.25093161  1
  O  O43  1  0.07757608  0.14495534  0.25131661  1
  O  O44  1  0.57757608  0.35504466  0.75131661  1
  O  O45  1  0.41801695  0.35700507  0.75093161  1
  O  O46  1  0.41801695  0.64299493  0.25093161  1
  O  O47  1  0.57757608  0.64495534  0.25131661  1
loop_
_geom_bond_atom_site_label_1
_geom_bond_atom_site_label_2
_geom_bond_distance
_geom_bond_site_symmetry_2
Na0 O0 2.329310 1_555
Na0 O46 2.381197 1_556
Na0 O22 2.470510 1_556
Na0 O16 2.552386 1_555
Na0 O40 2.729580 1_555
Na0 O6 2.768963 1_556
Na1 O7 2.329310 1_555
Na1 O41 2.381197 1_555
Na1 O17 2.470510 1_555
Na1 O23 2.552386 1_555
Na1 O47 2.729580 1_555
Na1 O1 2.768963 1_555
Na2 O4 2.329310 1_555
Na2 O42 2.381197 1_556
Na2 O18 2.470510 1_556
Na2 O20 2.552386 1_555
Na2 O44 2.729580 1_555
Na2 O2 2.768963 1_556
Na3 O3 2.329310 1_555
Na3 O45 2.381197 1_555
Na3 O21 2.470510 1_555
Na3 O19 2.552386 1_555
Na3 O43 2.729580 1_555
Na3 O5 2.768963 1_555
Na4 O4 2.386544 1_555
Na4 O34 2.455577 1_556
Na4 O44 2.495306 1_555
Na4 O5 2.518705 1_555
Na4 O45 2.612246 1_555
Na4 O35 2.630128 1_555
Na5 O7 2.386544 1_555
Na5 O33 2.455577 1_555
Na5 O47 2.495306 1_555
Na5 O6 2.518705 1_555
Na5 O46 2.612246 1_555
Na5 O32 2.630128 1_554
Na6 O0 2.386544 1_555
Na6 O38 2.455577 1_556
Na6 O40 2.495306 1_555
Na6 O1 2.518705 1_455
Na6 O41 2.612246 1_455
Na6 O39 2.630128 1_455
Na7 O3 2.386544 1_555
Na7 O37 2.455577 1_555
Na7 O43 2.495306 1_555
Na7 O2 2.518705 1_455
Na7 O42 2.612246 1_455
Na7 O36 2.630128 1_454
Na8 O19 2.413188 1_565
Na8 O43 2.489334 1_565
Na8 O22 2.496579 1_555
Na8 O24 2.654174 1_555
Na8 O6 2.749242 1_555
Na8 O13 2.754729 1_564
Na8 O30 2.944784 1_555
Na8 O14 2.988013 1_555
Na9 O16 2.413188 1_545
Na9 O40 2.489334 1_545
Na9 O21 2.496579 1_555
Na9 O27 2.654174 1_556
Na9 O5 2.749242 1_555
Na9 O14 2.754729 1_545
Na9 O29 2.944784 1_555
Na9 O13 2.988013 1_555
Na10 O23 2.413188 1_555
Na10 O47 2.489334 1_555
Na10 O18 2.496579 1_555
Na10 O28 2.654174 1_555
Na10 O2 2.749242 1_555
Na10 O9 2.754729 1_554
Na10 O26 2.944784 1_555
Na10 O10 2.988013 1_555
Na11 O20 2.413188 1_555
Na11 O44 2.489334 1_555
Na11 O17 2.496579 1_555
Na11 O31 2.654174 1_556
Na11 O1 2.749242 1_555
Na11 O10 2.754729 1_555
Na11 O25 2.944784 1_555
Na11 O9 2.988013 1_555
In0 O30 2.023817 1_555
In0 O0 2.122086 1_555
In0 O14 2.167587 1_555
In0 O39 2.184944 1_455
In0 O16 2.242238 1_555
In0 O40 2.255343 1_555
In1 O29 2.023817 1_554
In1 O3 2.122086 1_555
In1 O13 2.167587 1_554
In1 O36 2.184944 1_454
In1 O19 2.242238 1_555
In1 O43 2.255343 1_555
In2 O26 2.023817 1_555
In2 O4 2.122086 1_555
In2 O10 2.167587 1_555
In2 O35 2.184944 1_555
In2 O20 2.242238 1_555
In2 O44 2.255343 1_555
In3 O25 2.023817 1_554
In3 O7 2.122086 1_555
In3 O9 2.167587 1_554
In3 O32 2.184944 1_554
In3 O23 2.242238 1_555
In3 O47 2.255343 1_555
O0 Si2 1.634279 1_555
O1 P6 1.571669 1_555
O1 Zr0 2.219954 1_555
O2 P7 1.571669 1_555
O2 Zr1 2.219954 1_555
O3 Si3 1.634279 1_555
O4 Si0 1.634279 1_545
O5 P4 1.571669 1_545
O5 Zr2 2.219954 1_555
O6 P5 1.571669 1_565
O6 Zr3 2.219954 1_555
O7 Si1 1.634279 1_565
O8 P2 1.556443 1_555
O8 Zr3 2.050019 1_555
O9 P2 1.528525 1_555
O10 P3 1.528525 1_555
O11 P3 1.556443 1_555
O11 Zr2 2.050019 1_554
O12 P0 1.556443 1_645
O12 Zr1 2.050019 1_555
O13 P0 1.528525 1_545
O14 P1 1.528525 1_565
O15 P1 1.556443 1_665
O15 Zr0 2.050019 1_554
O16 P4 1.538354 1_555
O17 Si0 1.656512 1_555
O17 Zr0 2.101506 1_555
O18 Si1 1.656512 1_555
O18 Zr1 2.101506 1_555
O19 P5 1.538354 1_555
O20 P6 1.538354 1_555
O21 Si2 1.656512 1_555
O21 Zr2 2.101506 1_555
O22 Si3 1.656512 1_555
O22 Zr3 2.101506 1_555
O23 P7 1.538354 1_555
O24 P4 1.566678 1_555
O24 Zr3 2.131535 1_555
O25 Si0 1.608324 1_555
O26 Si1 1.608324 1_555
O27 P5 1.566678 1_555
O27 Zr2 2.131535 1_554
O28 P6 1.566678 1_555
O28 Zr1 2.131535 1_555
O29 Si2 1.608324 1_555
O30 Si3 1.608324 1_555
O31 P7 1.566678 1_555
O31 Zr0 2.131535 1_554
O32 P4 1.536686 1_555
O33 Si0 1.661264 1_555
O33 Zr3 2.059799 1_555
O34 Si1 1.661264 1_555
O34 Zr2 2.059799 1_554
O35 P5 1.536686 1_555
O36 P6 1.536686 1_555
O37 Si2 1.661264 1_555
O37 Zr1 2.059799 1_455
O38 Si3 1.661264 1_555
O38 Zr0 2.059799 1_454
O39 P7 1.536686 1_555
O40 P0 1.547816 1_555
O41 P0 1.554786 1_655
O41 Zr0 2.167323 1_555
O42 P1 1.554786 1_655
O42 Zr1 2.167323 1_555
O43 P1 1.547816 1_555
O44 P2 1.547816 1_555
O45 P2 1.554786 1_555
O45 Zr2 2.167323 1_555
O46 P3 1.554786 1_555
O46 Zr3 2.167323 1_555
O47 P3 1.547816 1_555
