# generated using pymatgen
data_Na4YTa(SiO4)3
_symmetry_space_group_name_H-M   'P 1'
_cell_length_a   9.34853905
_cell_length_b   9.34853871
_cell_length_c   22.57341506
_cell_angle_alpha   90.00000000
_cell_angle_beta   90.00000000
_cell_angle_gamma   120.00000124
_symmetry_Int_Tables_number   1
_chemical_formula_structural   Na4YTa(SiO4)3
_chemical_formula_sum   'Na24 Y6 Ta6 Si18 O72'
_cell_volume   1708.50152391
_cell_formula_units_Z   6
loop_
 _symmetry_equiv_pos_site_id
 _symmetry_equiv_pos_as_xyz
  1  'x, y, z'
loop_
 _atom_site_type_symbol
 _atom_site_label
 _atom_site_symmetry_multiplicity
 _atom_site_fract_x
 _atom_site_fract_y
 _atom_site_fract_z
 _atom_site_occupancy
  Na  Na0  1  0.64173229  0.01408105  0.24694478  1
  Na  Na1  1  0.37234876  0.35826771  0.24694478  1
  Na  Na2  1  0.98591895  0.62765124  0.24694478  1
  Na  Na3  1  0.64173229  0.62765124  0.74694478  1
  Na  Na4  1  0.98591895  0.35826771  0.74694478  1
  Na  Na5  1  0.37234876  0.01408105  0.74694478  1
  Na  Na6  1  0.30839929  0.34741405  0.58027778  1
  Na  Na7  1  0.03901576  0.69160071  0.58027778  1
  Na  Na8  1  0.65258595  0.96098424  0.58027778  1
  Na  Na9  1  0.30839929  0.96098424  0.08027778  1
  Na  Na10  1  0.65258595  0.69160071  0.08027778  1
  Na  Na11  1  0.03901576  0.34741405  0.08027778  1
  Na  Na12  1  0.97506529  0.68074805  0.91361178  1
  Na  Na13  1  0.70568176  0.02493471  0.91361178  1
  Na  Na14  1  0.31925195  0.29431824  0.91361178  1
  Na  Na15  1  0.97506529  0.29431824  0.41361178  1
  Na  Na16  1  0.31925195  0.02493471  0.41361178  1
  Na  Na17  1  0.70568176  0.68074805  0.41361178  1
  Na  Na18  1  0.00000000  -0.00000000  0.49567254  1
  Na  Na19  1  0.00000000  -0.00000000  0.99567254  1
  Na  Na20  1  0.66666700  0.33333300  0.82900554  1
  Na  Na21  1  0.66666700  0.33333300  0.32900554  1
  Na  Na22  1  0.33333300  0.66666700  0.16233954  1
  Na  Na23  1  0.33333300  0.66666700  0.66233954  1
  Y  Y0  1  0.00000000  -0.00000000  0.34906071  1
  Y  Y1  1  0.00000000  -0.00000000  0.84906071  1
  Y  Y2  1  0.66666700  0.33333300  0.68239371  1
  Y  Y3  1  0.66666700  0.33333300  0.18239371  1
  Y  Y4  1  0.33333300  0.66666700  0.01572771  1
  Y  Y5  1  0.33333300  0.66666700  0.51572771  1
  Ta  Ta0  1  0.00000000  -0.00000000  0.64729450  1
  Ta  Ta1  1  0.00000000  -0.00000000  0.14729450  1
  Ta  Ta2  1  0.66666700  0.33333300  0.98062750  1
  Ta  Ta3  1  0.66666700  0.33333300  0.48062750  1
  Ta  Ta4  1  0.33333300  0.66666700  0.31396150  1
  Ta  Ta5  1  0.33333300  0.66666700  0.81396150  1
  Si  Si0  1  0.29329285  0.99048130  0.25091342  1
  Si  Si1  1  0.69718845  0.70670715  0.25091342  1
  Si  Si2  1  0.00951870  0.30281155  0.25091342  1
  Si  Si3  1  0.29329285  0.30281155  0.75091342  1
  Si  Si4  1  0.00951870  0.70670715  0.75091342  1
  Si  Si5  1  0.69718845  0.99048130  0.75091342  1
  Si  Si6  1  0.95995985  0.32381430  0.58424642  1
  Si  Si7  1  0.36385545  0.04004015  0.58424642  1
  Si  Si8  1  0.67618570  0.63614455  0.58424642  1
  Si  Si9  1  0.95995985  0.63614455  0.08424642  1
  Si  Si10  1  0.67618570  0.04004015  0.08424642  1
  Si  Si11  1  0.36385545  0.32381430  0.08424642  1
  Si  Si12  1  0.62662585  0.65714830  0.91758042  1
  Si  Si13  1  0.03052145  0.37337415  0.91758042  1
  Si  Si14  1  0.34285170  0.96947855  0.91758042  1
  Si  Si15  1  0.62662585  0.96947855  0.41758042  1
  Si  Si16  1  0.34285170  0.37337415  0.41758042  1
  Si  Si17  1  0.03052145  0.65714830  0.41758042  1
  O  O0  1  0.22086176  0.02276461  0.31043862  1
  O  O1  1  0.80190285  0.77913824  0.31043862  1
  O  O2  1  0.97723539  0.19809715  0.31043862  1
  O  O3  1  0.22086176  0.19809715  0.81043862  1
  O  O4  1  0.97723539  0.77913824  0.81043862  1
  O  O5  1  0.80190285  0.02276461  0.81043862  1
  O  O6  1  0.80490823  0.96938822  0.69372000  1
  O  O7  1  0.16447999  0.19509177  0.69372000  1
  O  O8  1  0.03061178  0.83552001  0.69372000  1
  O  O9  1  0.80490823  0.83552001  0.19372000  1
  O  O10  1  0.03061178  0.19509177  0.19372000  1
  O  O11  1  0.16447999  0.96938822  0.19372000  1
  O  O12  1  0.88752876  0.35609761  0.64377162  1
  O  O13  1  0.46856985  0.11247124  0.64377162  1
  O  O14  1  0.64390239  0.53143015  0.64377162  1
  O  O15  1  0.88752876  0.53143015  0.14377162  1
  O  O16  1  0.64390239  0.11247124  0.14377162  1
  O  O17  1  0.46856985  0.35609761  0.14377162  1
  O  O18  1  0.47157523  0.30272122  0.02705300  1
  O  O19  1  0.83114699  0.52842477  0.02705300  1
  O  O20  1  0.69727878  0.16885301  0.02705300  1
  O  O21  1  0.47157523  0.16885301  0.52705300  1
  O  O22  1  0.69727878  0.52842477  0.52705300  1
  O  O23  1  0.83114699  0.30272122  0.52705300  1
  O  O24  1  0.55419476  0.68943161  0.97710562  1
  O  O25  1  0.13523585  0.44580524  0.97710562  1
  O  O26  1  0.31056839  0.86476415  0.97710562  1
  O  O27  1  0.55419476  0.86476415  0.47710562  1
  O  O28  1  0.31056839  0.44580524  0.47710562  1
  O  O29  1  0.13523585  0.68943161  0.47710562  1
  O  O30  1  0.13824123  0.63605522  0.36038700  1
  O  O31  1  0.49781299  0.86175877  0.36038700  1
  O  O32  1  0.36394478  0.50218701  0.36038700  1
  O  O33  1  0.13824123  0.50218701  0.86038700  1
  O  O34  1  0.36394478  0.86175877  0.86038700  1
  O  O35  1  0.49781299  0.63605522  0.86038700  1
  O  O36  1  0.99733356  0.81093443  0.41229231  1
  O  O37  1  0.81360088  0.00266644  0.41229231  1
  O  O38  1  0.18906557  0.18639912  0.41229231  1
  O  O39  1  0.99733356  0.18639912  0.91229231  1
  O  O40  1  0.18906557  0.00266644  0.91229231  1
  O  O41  1  0.81360088  0.81093443  0.91229231  1
  O  O42  1  0.96040714  0.14513727  0.58834829  1
  O  O43  1  0.18473013  0.03959286  0.58834829  1
  O  O44  1  0.85486273  0.81526987  0.58834829  1
  O  O45  1  0.96040714  0.81526987  0.08834829  1
  O  O46  1  0.85486273  0.03959286  0.08834829  1
  O  O47  1  0.18473013  0.14513727  0.08834829  1
  O  O48  1  0.66400056  0.14426743  0.74562531  1
  O  O49  1  0.48026788  0.33599944  0.74562531  1
  O  O50  1  0.85573257  0.51973212  0.74562531  1
  O  O51  1  0.66400056  0.51973212  0.24562531  1
  O  O52  1  0.85573257  0.33599944  0.24562531  1
  O  O53  1  0.48026788  0.14426743  0.24562531  1
  O  O54  1  0.62707414  0.47847027  0.92168129  1
  O  O55  1  0.85139713  0.37292586  0.92168129  1
  O  O56  1  0.52152973  0.14860287  0.92168129  1
  O  O57  1  0.62707414  0.14860287  0.42168129  1
  O  O58  1  0.52152973  0.37292586  0.42168129  1
  O  O59  1  0.85139713  0.47847027  0.42168129  1
  O  O60  1  0.33066656  0.47760143  0.07895931  1
  O  O61  1  0.14693388  0.66933344  0.07895931  1
  O  O62  1  0.52239857  0.85306612  0.07895931  1
  O  O63  1  0.33066656  0.85306612  0.57895931  1
  O  O64  1  0.52239857  0.66933344  0.57895931  1
  O  O65  1  0.14693388  0.47760143  0.57895931  1
  O  O66  1  0.29374014  0.81180427  0.25501529  1
  O  O67  1  0.51806313  0.70625986  0.25501529  1
  O  O68  1  0.18819573  0.48193687  0.25501529  1
  O  O69  1  0.29374014  0.48193687  0.75501529  1
  O  O70  1  0.18819573  0.70625986  0.75501529  1
  O  O71  1  0.51806313  0.81180427  0.75501529  1
loop_
_geom_bond_atom_site_label_1
_geom_bond_atom_site_label_2
_geom_bond_distance
_geom_bond_site_symmetry_2
Na0 O53 2.365935 1_555
Na0 O16 2.500379 1_555
Na0 O67 2.514735 1_545
Na0 O52 2.653192 1_555
Na0 O66 2.835606 1_545
Na0 O31 2.911983 1_545
Na1 O51 2.365943 1_555
Na1 O17 2.500382 1_555
Na1 O68 2.514743 1_555
Na1 O53 2.653199 1_555
Na1 O67 2.835606 1_555
Na1 O32 2.911985 1_555
Na2 O52 2.365944 1_555
Na2 O15 2.500381 1_555
Na2 O66 2.514736 1_655
Na2 O51 2.653190 1_555
Na2 O68 2.835598 1_655
Na2 O30 2.911981 1_655
Na3 O49 2.365943 1_555
Na3 O14 2.500382 1_555
Na3 O71 2.514743 1_555
Na3 O50 2.653199 1_555
Na3 O69 2.835606 1_555
Na3 O35 2.911985 1_555
Na4 O50 2.365935 1_555
Na4 O12 2.500379 1_555
Na4 O69 2.514735 1_655
Na4 O48 2.653192 1_555
Na4 O70 2.835605 1_655
Na4 O33 2.911983 1_655
Na5 O48 2.365944 1_555
Na5 O13 2.500381 1_555
Na5 O70 2.514736 1_545
Na5 O49 2.653190 1_555
Na5 O71 2.835598 1_545
Na5 O34 2.911981 1_545
Na6 O65 2.365951 1_555
Na6 O28 2.500363 1_555
Na6 O43 2.514735 1_555
Na6 O64 2.653197 1_555
Na6 O42 2.835606 1_455
Na6 O7 2.911983 1_555
Na7 O63 2.365936 1_555
Na7 O29 2.500356 1_555
Na7 O44 2.514743 1_455
Na7 O65 2.653183 1_555
Na7 O43 2.835606 1_565
Na7 O8 2.911985 1_555
Na8 O64 2.365934 1_555
Na8 O27 2.500360 1_555
Na8 O42 2.514736 1_565
Na8 O63 2.653201 1_555
Na8 O44 2.835598 1_555
Na8 O6 2.911981 1_555
Na9 O61 2.365936 1_555
Na9 O26 2.500356 1_554
Na9 O47 2.514743 1_565
Na9 O62 2.653183 1_555
Na9 O45 2.835606 1_455
Na9 O11 2.911985 1_555
Na10 O62 2.365951 1_555
Na10 O24 2.500363 1_554
Na10 O45 2.514735 1_555
Na10 O60 2.653197 1_555
Na10 O46 2.835605 1_565
Na10 O9 2.911983 1_555
Na11 O60 2.365934 1_555
Na11 O25 2.500360 1_554
Na11 O46 2.514736 1_455
Na11 O61 2.653200 1_555
Na11 O47 2.835598 1_555
Na11 O10 2.911981 1_555
Na12 O41 2.365935 1_555
Na12 O4 2.500379 1_555
Na12 O55 2.514743 1_555
Na12 O40 2.653192 1_665
Na12 O54 2.835597 1_555
Na12 O19 2.911963 1_556
Na13 O39 2.365943 1_555
Na13 O5 2.500382 1_555
Na13 O56 2.514726 1_555
Na13 O41 2.653199 1_545
Na13 O55 2.835596 1_555
Na13 O20 2.911958 1_556
Na14 O40 2.365944 1_555
Na14 O3 2.500381 1_555
Na14 O54 2.514741 1_555
Na14 O39 2.653190 1_455
Na14 O56 2.835613 1_555
Na14 O18 2.911967 1_556
Na15 O37 2.365943 1_555
Na15 O2 2.500382 1_555
Na15 O59 2.514726 1_555
Na15 O38 2.653199 1_655
Na15 O57 2.835596 1_555
Na15 O23 2.911959 1_555
Na16 O38 2.365935 1_555
Na16 O0 2.500379 1_555
Na16 O57 2.514743 1_555
Na16 O36 2.653192 1_445
Na16 O58 2.835597 1_555
Na16 O21 2.911963 1_555
Na17 O36 2.365944 1_555
Na17 O1 2.500381 1_555
Na17 O58 2.514740 1_555
Na17 O37 2.653190 1_565
Na17 O59 2.835613 1_555
Na17 O22 2.911967 1_555
Na18 O38 2.573550 1_555
Na18 O37 2.573550 1_455
Na18 O36 2.573550 1_445
Na18 O44 2.618524 1_445
Na18 O42 2.618524 1_455
Na18 O43 2.618524 1_555
Na19 O39 2.573550 1_455
Na19 O41 2.573550 1_445
Na19 O40 2.573550 1_555
Na19 O45 2.618524 1_446
Na19 O47 2.618524 1_556
Na19 O46 2.618524 1_456
Na20 O50 2.573550 1_555
Na20 O49 2.573550 1_555
Na20 O48 2.573550 1_555
Na20 O56 2.618524 1_555
Na20 O54 2.618524 1_555
Na20 O55 2.618524 1_555
Na21 O51 2.573550 1_555
Na21 O53 2.573550 1_555
Na21 O52 2.573550 1_555
Na21 O57 2.618524 1_555
Na21 O59 2.618524 1_555
Na21 O58 2.618524 1_555
Na22 O62 2.573550 1_555
Na22 O61 2.573550 1_555
Na22 O60 2.573550 1_555
Na22 O68 2.618524 1_555
Na22 O66 2.618524 1_555
Na22 O67 2.618524 1_555
Na23 O63 2.573550 1_555
Na23 O65 2.573550 1_555
Na23 O64 2.573550 1_555
Na23 O69 2.618524 1_555
Na23 O71 2.618524 1_555
Na23 O70 2.618524 1_555
O0 Si0 1.599823 1_545
O0 Y0 2.151535 1_555
O1 Si1 1.599823 1_555
O1 Y0 2.151535 1_665
O2 Si2 1.599823 1_655
O2 Y0 2.151535 1_655
O3 Si3 1.599823 1_555
O3 Y1 2.151535 1_555
O4 Si4 1.599823 1_655
O4 Y1 2.151535 1_665
O5 Si5 1.599823 1_545
O5 Y1 2.151535 1_655
O6 Si5 1.708322 1_555
O6 Ta0 1.996136 1_665
O7 Si3 1.708322 1_555
O7 Ta0 1.996136 1_555
O8 Si4 1.708322 1_555
O8 Ta0 1.996136 1_565
O9 Si1 1.708322 1_555
O9 Ta1 1.996136 1_665
O10 Si2 1.708322 1_555
O10 Ta1 1.996136 1_555
O11 Si0 1.708322 1_555
O11 Ta1 1.996136 1_565
O12 Si6 1.599823 1_555
O12 Y2 2.151535 1_555
O13 Si7 1.599823 1_555
O13 Y2 2.151535 1_555
O14 Si8 1.599823 1_555
O14 Y2 2.151535 1_555
O15 Si9 1.599823 1_555
O15 Y3 2.151535 1_555
O16 Si10 1.599823 1_555
O16 Y3 2.151535 1_555
O17 Si11 1.599823 1_555
O17 Y3 2.151535 1_555
O18 Si11 1.708322 1_555
O18 Ta2 1.996136 1_554
O19 Si9 1.708322 1_555
O19 Ta2 1.996136 1_554
O20 Si10 1.708322 1_555
O20 Ta2 1.996136 1_554
O21 Si7 1.708322 1_555
O21 Ta3 1.996136 1_555
O22 Si8 1.708322 1_555
O22 Ta3 1.996136 1_555
O23 Si6 1.708322 1_555
O23 Ta3 1.996136 1_555
O24 Si12 1.599823 1_555
O24 Y4 2.151535 1_556
O25 Si13 1.599823 1_555
O25 Y4 2.151535 1_556
O26 Si14 1.599823 1_555
O26 Y4 2.151535 1_556
O27 Si15 1.599823 1_555
O27 Y5 2.151535 1_555
O28 Si16 1.599823 1_555
O28 Y5 2.151535 1_555
O29 Si17 1.599823 1_555
O29 Y5 2.151535 1_555
O30 Si17 1.708322 1_555
O30 Ta4 1.996136 1_555
O31 Si15 1.708322 1_555
O31 Ta4 1.996136 1_555
O32 Si16 1.708322 1_555
O32 Ta4 1.996136 1_555
O33 Si13 1.708322 1_555
O33 Ta5 1.996136 1_555
O34 Si14 1.708322 1_555
O34 Ta5 1.996136 1_555
O35 Si12 1.708322 1_555
O35 Ta5 1.996136 1_555
O36 Si17 1.619713 1_655
O36 Y0 2.262280 1_665
O37 Si15 1.619723 1_545
O37 Y0 2.262280 1_655
O38 Si16 1.619719 1_555
O38 Y0 2.262280 1_555
O39 Si13 1.619723 1_655
O39 Y1 2.262280 1_655
O40 Si14 1.619713 1_545
O40 Y1 2.262280 1_555
O41 Si12 1.619719 1_555
O41 Y1 2.262280 1_665
O42 Si6 1.675025 1_555
O42 Ta0 2.061726 1_655
O43 Si7 1.675034 1_555
O43 Ta0 2.061726 1_555
O44 Si8 1.675030 1_555
O44 Ta0 2.061726 1_665
O45 Si9 1.675034 1_555
O45 Ta1 2.061726 1_665
O46 Si10 1.675025 1_555
O46 Ta1 2.061726 1_655
O47 Si11 1.675030 1_555
O47 Ta1 2.061726 1_555
O48 Si5 1.619713 1_545
O48 Y2 2.262280 1_555
O49 Si3 1.619723 1_555
O49 Y2 2.262280 1_555
O50 Si4 1.619719 1_655
O50 Y2 2.262280 1_555
O51 Si1 1.619723 1_555
O51 Y3 2.262280 1_555
O52 Si2 1.619713 1_655
O52 Y3 2.262280 1_555
O53 Si0 1.619719 1_545
O53 Y3 2.262280 1_555
O54 Si12 1.675038 1_555
O54 Ta2 2.061726 1_555
O55 Si13 1.675019 1_655
O55 Ta2 2.061726 1_555
O56 Si14 1.675028 1_545
O56 Ta2 2.061726 1_555
O57 Si15 1.675019 1_545
O57 Ta3 2.061726 1_555
O58 Si16 1.675038 1_555
O58 Ta3 2.061726 1_555
O59 Si17 1.675028 1_655
O59 Ta3 2.061726 1_555
O60 Si11 1.619727 1_555
O60 Y4 2.262280 1_555
O61 Si9 1.619709 1_455
O61 Y4 2.262280 1_555
O62 Si10 1.619715 1_565
O62 Y4 2.262280 1_555
O63 Si7 1.619709 1_565
O63 Y5 2.262280 1_555
O64 Si8 1.619727 1_555
O64 Y5 2.262280 1_555
O65 Si6 1.619715 1_455
O65 Y5 2.262280 1_555
O66 Si0 1.675025 1_555
O66 Ta4 2.061726 1_555
O67 Si1 1.675034 1_555
O67 Ta4 2.061726 1_555
O68 Si2 1.675030 1_555
O68 Ta4 2.061726 1_555
O69 Si3 1.675034 1_555
O69 Ta5 2.061726 1_555
O70 Si4 1.675025 1_555
O70 Ta5 2.061726 1_555
O71 Si5 1.675030 1_555
O71 Ta5 2.061726 1_555
