# generated using pymatgen
data_NaTa2Si2PO12
_symmetry_space_group_name_H-M   'P 1'
_cell_length_a   8.81739387
_cell_length_b   8.81739358
_cell_length_c   22.94989424
_cell_angle_alpha   89.72621924
_cell_angle_beta   90.27378075
_cell_angle_gamma   119.85910945
_symmetry_Int_Tables_number   1
_chemical_formula_structural   NaTa2Si2PO12
_chemical_formula_sum   'Na6 Ta12 Si12 P6 O72'
_cell_volume   1547.39072509
_cell_formula_units_Z   6
loop_
 _symmetry_equiv_pos_site_id
 _symmetry_equiv_pos_as_xyz
  1  'x, y, z'
loop_
 _atom_site_type_symbol
 _atom_site_label
 _atom_site_symmetry_multiplicity
 _atom_site_fract_x
 _atom_site_fract_y
 _atom_site_fract_z
 _atom_site_occupancy
  Na  Na0  1  0.99991204  0.00227560  0.49992634  1
  Na  Na1  1  0.99772440  0.00008796  0.99992634  1
  Na  Na2  1  0.66657904  0.33560860  0.83325934  1
  Na  Na3  1  0.66439140  0.33342096  0.33325934  1
  Na  Na4  1  0.33324504  0.66894260  0.16659334  1
  Na  Na5  1  0.33105740  0.66675496  0.66659334  1
  Ta  Ta0  1  0.00276146  0.00009380  0.35463958  1
  Ta  Ta1  1  -0.00009380  0.99723854  0.85463958  1
  Ta  Ta2  1  0.00839302  0.00503623  0.64523438  1
  Ta  Ta3  1  0.99496377  0.99160698  0.14523438  1
  Ta  Ta4  1  0.66942846  0.33342680  0.68797258  1
  Ta  Ta5  1  0.66657320  0.33057154  0.18797258  1
  Ta  Ta6  1  0.67506002  0.33836923  0.97856738  1
  Ta  Ta7  1  0.66163077  0.32493998  0.47856738  1
  Ta  Ta8  1  0.33609446  0.66676080  0.02130658  1
  Ta  Ta9  1  0.33323920  0.66390554  0.52130658  1
  Ta  Ta10  1  0.34172602  0.67170323  0.31190138  1
  Ta  Ta11  1  0.32829677  0.65827398  0.81190138  1
  Si  Si0  1  0.28757588  -0.00019885  0.25000108  1
  Si  Si1  1  0.71306897  0.71081338  0.25046014  1
  Si  Si2  1  0.28918662  0.28693103  0.75046014  1
  Si  Si3  1  0.00019885  0.71242412  0.75000108  1
  Si  Si4  1  0.95424288  0.33313415  0.58333408  1
  Si  Si5  1  0.37973597  0.04414638  0.58379314  1
  Si  Si6  1  0.95585362  0.62026403  0.08379314  1
  Si  Si7  1  0.66686585  0.04575712  0.08333408  1
  Si  Si8  1  0.62090888  0.66646815  0.91666808  1
  Si  Si9  1  0.04640197  0.37748038  0.91712714  1
  Si  Si10  1  0.62251962  0.95359803  0.41712714  1
  Si  Si11  1  0.33353185  0.37909112  0.41666808  1
  P  P0  1  0.00154978  0.28677286  0.24961492  1
  P  P1  1  0.71322714  0.99845022  0.74961492  1
  P  P2  1  0.66821678  0.62010586  0.58294792  1
  P  P3  1  0.37989414  0.33178322  0.08294792  1
  P  P4  1  0.33488278  0.95343986  0.91628192  1
  P  P5  1  0.04656014  0.66511722  0.41628192  1
  O  O0  1  0.19630681  0.03096671  0.30711484  1
  O  O1  1  0.83449233  0.80542811  0.30728545  1
  O  O2  1  0.96999632  0.17176428  0.30469438  1
  O  O3  1  0.19457190  0.16550767  0.80728545  1
  O  O4  1  0.96903329  0.80369319  0.80711484  1
  O  O5  1  0.82823572  0.03000368  0.80469438  1
  O  O6  1  0.79705889  0.97010786  0.69524564  1
  O  O7  1  0.16467717  0.19728866  0.69315317  1
  O  O8  1  0.02688909  0.83365505  0.69285310  1
  O  O9  1  0.80271134  0.83532283  0.19315317  1
  O  O10  1  0.02989214  0.20294111  0.19524564  1
  O  O11  1  0.16634495  0.97311091  0.19285310  1
  O  O12  1  0.86297381  0.36429971  0.64044784  1
  O  O13  1  0.50115933  0.13876111  0.64061845  1
  O  O14  1  0.63666332  0.50509728  0.63802738  1
  O  O15  1  0.86123890  0.49884067  0.14061845  1
  O  O16  1  0.63570029  0.13702619  0.14044784  1
  O  O17  1  0.49490272  0.36333668  0.13802738  1
  O  O18  1  0.46372589  0.30344086  0.02857864  1
  O  O19  1  0.83134417  0.53062166  0.02648617  1
  O  O20  1  0.69355609  0.16698805  0.02618610  1
  O  O21  1  0.46937834  0.16865583  0.52648617  1
  O  O22  1  0.69655914  0.53627411  0.52857864  1
  O  O23  1  0.83301195  0.30644391  0.52618610  1
  O  O24  1  0.52963981  0.69763371  0.97378184  1
  O  O25  1  0.16782533  0.47209511  0.97395245  1
  O  O26  1  0.30332932  0.83843128  0.97136138  1
  O  O27  1  0.52790490  0.83217467  0.47395245  1
  O  O28  1  0.30236629  0.47036019  0.47378184  1
  O  O29  1  0.16156872  0.69667068  0.47136138  1
  O  O30  1  0.13039189  0.63677486  0.36191264  1
  O  O31  1  0.49801017  0.86395566  0.35982017  1
  O  O32  1  0.36022209  0.50032205  0.35952010  1
  O  O33  1  0.13604434  0.50198983  0.85982017  1
  O  O34  1  0.36322514  0.86960811  0.86191264  1
  O  O35  1  0.49967795  0.63977791  0.85952010  1
  O  O36  1  0.02773970  0.83065627  0.40935552  1
  O  O37  1  0.81522989  0.97564510  0.40832529  1
  O  O38  1  0.16201680  0.18559735  0.40876398  1
  O  O39  1  0.02435490  0.18477011  0.90832529  1
  O  O40  1  0.16934373  0.97226030  0.90935552  1
  O  O41  1  0.81440265  0.83798320  0.90876398  1
  O  O42  1  0.96989756  0.15791983  0.59121946  1
  O  O43  1  0.18506257  0.02283386  0.59065712  1
  O  O44  1  0.82750955  0.80348175  0.59145563  1
  O  O45  1  0.97716614  0.81493743  0.09065712  1
  O  O46  1  0.84208017  0.03010244  0.09121946  1
  O  O47  1  0.19651825  0.17249045  0.09145563  1
  O  O48  1  0.69440670  0.16398927  0.74268852  1
  O  O49  1  0.48189689  0.30897810  0.74165829  1
  O  O50  1  0.82868380  0.51893035  0.74209698  1
  O  O51  1  0.69102190  0.51810311  0.24165829  1
  O  O52  1  0.83601073  0.30559330  0.24268852  1
  O  O53  1  0.48106965  0.17131620  0.24209698  1
  O  O54  1  0.63656456  0.49125283  0.92455246  1
  O  O55  1  0.85172957  0.35616686  0.92399012  1
  O  O56  1  0.49417655  0.13681475  0.92478863  1
  O  O57  1  0.64383314  0.14827043  0.42399012  1
  O  O58  1  0.50874717  0.36343544  0.42455246  1
  O  O59  1  0.86318525  0.50582345  0.42478863  1
  O  O60  1  0.36107270  0.49732327  0.07602252  1
  O  O61  1  0.14856289  0.64231210  0.07499229  1
  O  O62  1  0.49534980  0.85226435  0.07543098  1
  O  O63  1  0.35768790  0.85143711  0.57499229  1
  O  O64  1  0.50267673  0.63892730  0.57602252  1
  O  O65  1  0.14773565  0.50465020  0.57543098  1
  O  O66  1  0.30323056  0.82458683  0.25788646  1
  O  O67  1  0.51839557  0.68950086  0.25732412  1
  O  O68  1  0.16084255  0.47014875  0.25812263  1
  O  O69  1  0.31049914  0.48160443  0.75732412  1
  O  O70  1  0.17541317  0.69676944  0.75788646  1
  O  O71  1  0.52985125  0.83915745  0.75812263  1
loop_
_geom_bond_atom_site_label_1
_geom_bond_atom_site_label_2
_geom_bond_distance
_geom_bond_site_symmetry_2
Na0 O43 2.590430 1_655
Na0 O37 2.591818 1_545
Na0 O38 2.593970 1_655
Na0 O42 2.595691 1_555
Na0 O36 2.659939 1_645
Na0 O44 2.671680 1_545
Na1 O45 2.590430 1_546
Na1 O39 2.591818 1_655
Na1 O41 2.593970 1_545
Na1 O46 2.595691 1_556
Na1 O40 2.659939 1_645
Na1 O47 2.671680 1_656
Na2 O55 2.590430 1_555
Na2 O49 2.591818 1_555
Na2 O50 2.593970 1_555
Na2 O54 2.595691 1_555
Na2 O48 2.659939 1_555
Na2 O56 2.671680 1_555
Na3 O57 2.590430 1_555
Na3 O51 2.591818 1_555
Na3 O53 2.593970 1_555
Na3 O58 2.595691 1_555
Na3 O52 2.659939 1_555
Na3 O59 2.671680 1_555
Na4 O67 2.590430 1_555
Na4 O61 2.591818 1_555
Na4 O62 2.593970 1_555
Na4 O66 2.595691 1_555
Na4 O60 2.659939 1_555
Na4 O68 2.671680 1_555
Na5 O69 2.590430 1_555
Na5 O63 2.591818 1_555
Na5 O65 2.593970 1_555
Na5 O70 2.595691 1_555
Na5 O64 2.659939 1_555
Na5 O71 2.671680 1_555
O0 Si0 1.635527 1_555
O0 Ta0 1.930917 1_555
O1 Si1 1.628094 1_555
O1 Ta0 1.948127 1_665
O2 P0 1.553641 1_655
O2 Ta0 2.025900 1_655
O3 Si2 1.628094 1_555
O3 Ta1 1.948127 1_545
O4 Si3 1.635527 1_655
O4 Ta1 1.930917 1_655
O5 P1 1.553641 1_545
O5 Ta1 2.025900 1_645
O6 P1 1.536716 1_555
O6 Ta2 2.080895 1_665
O7 Si2 1.640679 1_555
O7 Ta2 1.912917 1_555
O8 Si3 1.630097 1_555
O8 Ta2 1.931928 1_565
O9 Si1 1.640679 1_555
O9 Ta3 1.912917 1_555
O10 P0 1.536716 1_555
O10 Ta3 2.080895 1_445
O11 Si0 1.630097 1_565
O11 Ta3 1.931928 1_455
O12 Si4 1.635527 1_555
O12 Ta4 1.930917 1_555
O13 Si5 1.628094 1_555
O13 Ta4 1.948127 1_555
O14 P2 1.553641 1_555
O14 Ta4 2.025900 1_555
O15 Si6 1.628094 1_555
O15 Ta5 1.948127 1_555
O16 Si7 1.635527 1_555
O16 Ta5 1.930917 1_555
O17 P3 1.553641 1_555
O17 Ta5 2.025900 1_555
O18 P3 1.536716 1_555
O18 Ta6 2.080895 1_554
O19 Si6 1.640679 1_555
O19 Ta6 1.912917 1_554
O20 Si7 1.630097 1_555
O20 Ta6 1.931928 1_554
O21 Si5 1.640679 1_555
O21 Ta7 1.912917 1_555
O22 P2 1.536716 1_555
O22 Ta7 2.080895 1_555
O23 Si4 1.630097 1_555
O23 Ta7 1.931928 1_555
O24 Si8 1.635527 1_555
O24 Ta8 1.930917 1_556
O25 Si9 1.628094 1_555
O25 Ta8 1.948127 1_556
O26 P4 1.553641 1_555
O26 Ta8 2.025900 1_556
O27 Si10 1.628094 1_555
O27 Ta9 1.948127 1_555
O28 Si11 1.635527 1_555
O28 Ta9 1.930917 1_555
O29 P5 1.553641 1_555
O29 Ta9 2.025900 1_555
O30 P5 1.536716 1_555
O30 Ta10 2.080895 1_555
O31 Si10 1.640679 1_555
O31 Ta10 1.912917 1_555
O32 Si11 1.630097 1_555
O32 Ta10 1.931928 1_555
O33 Si9 1.640679 1_555
O33 Ta11 1.912917 1_555
O34 P4 1.536716 1_555
O34 Ta11 2.080895 1_555
O35 Si8 1.630097 1_555
O35 Ta11 1.931928 1_555
O36 P5 1.556285 1_555
O36 Ta0 2.040698 1_565
O37 Si10 1.624769 1_555
O37 Ta0 1.990146 1_665
O38 Si11 1.631555 1_555
O38 Ta0 1.976324 1_555
O39 Si9 1.624769 1_555
O39 Ta1 1.990146 1_545
O40 P4 1.556286 1_555
O40 Ta1 2.040698 1_555
O41 Si8 1.631555 1_555
O41 Ta1 1.976324 1_655
O42 Si4 1.627285 1_555
O42 Ta2 1.976039 1_655
O43 Si5 1.639406 1_555
O43 Ta2 1.947684 1_555
O44 P2 1.537628 1_555
O44 Ta2 2.098860 1_665
O45 Si6 1.639405 1_555
O45 Ta3 1.947684 1_555
O46 Si7 1.627285 1_555
O46 Ta3 1.976039 1_545
O47 P3 1.537628 1_555
O47 Ta3 2.098860 1_445
O48 P1 1.556285 1_545
O48 Ta4 2.040698 1_555
O49 Si2 1.624769 1_555
O49 Ta4 1.990146 1_555
O50 Si3 1.631555 1_655
O50 Ta4 1.976324 1_555
O51 Si1 1.624769 1_555
O51 Ta5 1.990146 1_555
O52 P0 1.556286 1_655
O52 Ta5 2.040698 1_555
O53 Si0 1.631555 1_555
O53 Ta5 1.976324 1_555
O54 Si8 1.627296 1_555
O54 Ta6 1.976039 1_555
O55 Si9 1.639391 1_655
O55 Ta6 1.947684 1_555
O56 P4 1.537623 1_545
O56 Ta6 2.098860 1_555
O57 Si10 1.639391 1_545
O57 Ta7 1.947684 1_555
O58 Si11 1.627296 1_555
O58 Ta7 1.976039 1_555
O59 P5 1.537623 1_655
O59 Ta7 2.098860 1_555
O60 P3 1.556297 1_555
O60 Ta8 2.040698 1_555
O61 Si6 1.624754 1_455
O61 Ta8 1.990146 1_555
O62 Si7 1.631551 1_565
O62 Ta8 1.976324 1_555
O63 Si5 1.624754 1_565
O63 Ta9 1.990146 1_555
O64 P2 1.556297 1_555
O64 Ta9 2.040698 1_555
O65 Si4 1.631551 1_455
O65 Ta9 1.976324 1_555
O66 Si0 1.627285 1_565
O66 Ta10 1.976039 1_555
O67 Si1 1.639406 1_555
O67 Ta10 1.947684 1_555
O68 P0 1.537628 1_555
O68 Ta10 2.098860 1_555
O69 Si2 1.639405 1_555
O69 Ta11 1.947684 1_555
O70 Si3 1.627285 1_555
O70 Ta11 1.976039 1_555
O71 P1 1.537628 1_555
O71 Ta11 2.098860 1_555
