# generated using pymatgen
data_K2MgMn2P6(HO10)2
_symmetry_space_group_name_H-M   'P 1'
_cell_length_a   7.66825214
_cell_length_b   7.57828659
_cell_length_c   9.80513118
_cell_angle_alpha   69.99243247
_cell_angle_beta   71.92556054
_cell_angle_gamma   69.87152060
_symmetry_Int_Tables_number   1
_chemical_formula_structural   K2MgMn2P6(HO10)2
_chemical_formula_sum   'K2 Mg1 Mn2 P6 H2 O20'
_cell_volume   490.59448988
_cell_formula_units_Z   1
loop_
 _symmetry_equiv_pos_site_id
 _symmetry_equiv_pos_as_xyz
  1  'x, y, z'
loop_
 _atom_site_type_symbol
 _atom_site_label
 _atom_site_symmetry_multiplicity
 _atom_site_fract_x
 _atom_site_fract_y
 _atom_site_fract_z
 _atom_site_occupancy
  K  K0  1  0.51966800  0.58793200  0.22788100  1
  K  K1  1  0.53803700  0.47759600  0.79181900  1
  Mg  Mg0  1  0.17775800  0.34219700  0.36172800  1
  Mn  Mn0  1  0.01091100  0.49704800  0.99153500  1
  Mn  Mn1  1  0.51910900  0.97557300  0.49483800  1
  P  P0  1  0.25706700  0.09736700  0.20512800  1
  P  P1  1  0.14864900  0.30107100  0.69603800  1
  P  P2  1  0.14034600  0.88572500  0.77374300  1
  P  P3  1  0.85966100  0.11170500  0.20534900  1
  P  P4  1  0.86220200  0.69607500  0.29651200  1
  P  P5  1  0.74243000  0.88817000  0.79126800  1
  H  H0  1  0.94814700  0.52199600  0.57069200  1
  H  H1  1  0.53067400  0.02226300  0.96361700  1
  O  O0  1  0.04413800  0.06163400  0.27172900  1
  O  O1  1  0.93978500  0.41090400  0.66200200  1
  O  O2  1  0.22785400  0.32021200  0.13408100  1
  O  O3  1  0.12411300  0.09178400  0.79990900  1
  O  O4  1  0.31160200  0.06614300  0.35230800  1
  O  O5  1  0.19904800  0.39535100  0.78531200  1
  O  O6  1  0.28327000  0.28050100  0.54517800  1
  O  O7  1  0.13908000  0.73549800  0.92092600  1
  O  O8  1  0.37950300  0.96363100  0.10860700  1
  O  O9  1  0.68399100  0.16214400  0.32408000  1
  O  O10  1  0.30923800  0.84001700  0.65140400  1
  O  O11  1  0.62907200  0.06055700  0.86862200  1
  O  O12  1  0.87403200  0.26240900  0.05819100  1
  O  O13  1  0.67706100  0.72714000  0.41237200  1
  O  O14  1  0.86841000  0.56862200  0.20396700  1
  O  O15  1  0.66541300  0.90825300  0.66203300  1
  O  O16  1  0.87901300  0.90670100  0.17976700  1
  O  O17  1  0.76245800  0.69168100  0.90522800  1
  O  O18  1  0.03916100  0.60932800  0.36824200  1
  O  O19  1  0.94984100  0.93456100  0.71589200  1
loop_
_geom_bond_atom_site_label_1
_geom_bond_atom_site_label_2
_geom_bond_distance
_geom_bond_site_symmetry_2
K0 O14 2.567686 1_555
K0 O8 2.650386 1_555
K0 O9 2.957326 1_555
K0 O13 3.062497 1_555
K0 O17 3.121487 1_554
K1 O10 2.848154 1_555
K1 O11 2.867393 1_555
K1 O1 2.881279 1_555
K1 O5 2.897398 1_555
K1 O7 3.155386 1_555
K1 O17 3.342724 1_555
Mg0 O18 1.948682 1_555
Mg0 O4 2.008503 1_555
Mg0 O6 2.043513 1_555
Mg0 O2 2.199093 1_555
Mn0 O7 2.157480 1_555
Mn0 O17 2.175710 1_455
Mn0 O12 2.180449 1_456
Mn0 O14 2.186252 1_456
Mn0 O2 2.267946 1_556
Mn0 O5 2.292372 1_555
Mn1 O15 2.093192 1_555
Mn1 O10 2.127835 1_555
Mn1 O13 2.128369 1_555
Mn1 O9 2.167458 1_565
Mn1 O4 2.219897 1_565
Mn1 O6 2.490883 1_565
H0 O1 1.000105 1_555
H1 O11 1.025071 1_555
H1 O8 1.569061 1_546
O0 P3 1.612954 1_455
O0 P0 1.639352 1_555
O1 P1 1.610415 1_655
O2 P0 1.555277 1_555
O3 P1 1.602909 1_555
O3 P2 1.624926 1_545
O4 P0 1.544721 1_555
O5 P1 1.501331 1_555
O6 P1 1.541923 1_555
O7 P2 1.501172 1_555
O8 P0 1.501471 1_565
O9 P3 1.514284 1_555
O10 P2 1.499265 1_555
O11 P5 1.588997 1_545
O12 P3 1.502920 1_555
O13 P4 1.521102 1_555
O14 P4 1.516536 1_555
O15 P5 1.499400 1_555
O16 P3 1.607308 1_565
O16 P4 1.635395 1_555
O17 P5 1.516561 1_555
O18 P4 1.558857 1_455
O19 P2 1.609721 1_655
O19 P5 1.636185 1_555
