# generated using pymatgen
data_Na3LaHf3Si3(SO8)3
_symmetry_space_group_name_H-M   'P 1'
_cell_length_a   9.13094533
_cell_length_b   9.20636846
_cell_length_c   23.35248163
_cell_angle_alpha   89.58932068
_cell_angle_beta   90.39898718
_cell_angle_gamma   120.31848015
_symmetry_Int_Tables_number   1
_chemical_formula_structural   Na3LaHf3Si3(SO8)3
_chemical_formula_sum   'Na9 La3 Hf9 Si9 S9 O72'
_cell_volume   1694.53536893
_cell_formula_units_Z   3
loop_
 _symmetry_equiv_pos_site_id
 _symmetry_equiv_pos_as_xyz
  1  'x, y, z'
loop_
 _atom_site_type_symbol
 _atom_site_label
 _atom_site_symmetry_multiplicity
 _atom_site_fract_x
 _atom_site_fract_y
 _atom_site_fract_z
 _atom_site_occupancy
  Na  Na0  1  0.34823094  0.35187973  0.23779417  1
  Na  Na1  1  0.63294830  0.62016991  0.75959813  1
  Na  Na2  1  0.97091095  0.28860214  0.41890228  1
  Na  Na3  1  0.99123867  0.01391062  0.50234885  1
  Na  Na4  1  0.99173443  0.98010806  0.00407675  1
  Na  Na5  1  0.65950166  0.34448818  0.83356897  1
  Na  Na6  1  0.67442437  0.31563356  0.32992504  1
  Na  Na7  1  0.28940951  0.64489510  0.16212266  1
  Na  Na8  1  0.27094661  0.62889002  0.66743346  1
  La  La0  1  0.99440839  0.00140733  0.35675495  1
  La  La1  1  0.67981964  0.33593809  0.68630368  1
  La  La2  1  0.69441780  0.34944047  0.17375367  1
  Hf  Hf0  1  0.00833986  0.99328054  0.85555005  1
  Hf  Hf1  1  0.01704534  0.01790407  0.64895295  1
  Hf  Hf2  1  0.00959087  0.01308315  0.14411145  1
  Hf  Hf3  1  0.66464902  0.35895638  0.98375770  1
  Hf  Hf4  1  0.65949855  0.31655699  0.48015380  1
  Hf  Hf5  1  0.33807420  0.66043627  0.01721496  1
  Hf  Hf6  1  0.33970818  0.65938207  0.51899377  1
  Hf  Hf7  1  0.34126980  0.66277391  0.31582954  1
  Hf  Hf8  1  0.32389391  0.65439701  0.81263260  1
  Si  Si0  1  0.00518562  0.30501526  0.25276570  1
  Si  Si1  1  0.28581289  0.29321230  0.75477943  1
  Si  Si2  1  0.01459564  0.72514254  0.75076089  1
  Si  Si3  1  0.97096424  0.33028344  0.58106843  1
  Si  Si4  1  0.98136429  0.65121843  0.07987873  1
  Si  Si5  1  0.36526144  0.33629204  0.08493135  1
  Si  Si6  1  0.62781658  0.67170539  0.91402907  1
  Si  Si7  1  0.61258319  0.95867557  0.41937648  1
  Si  Si8  1  0.35196628  0.38468595  0.41798525  1
  S  S0  1  0.29017111  0.98644262  0.24767292  1
  S  S1  1  0.69240140  0.70489699  0.24834098  1
  S  S2  1  0.71262203  0.98637425  0.75380244  1
  S  S3  1  0.35968946  0.02795891  0.58064193  1
  S  S4  1  0.67364846  0.63856790  0.58200760  1
  S  S5  1  0.66782588  0.03063135  0.07795321  1
  S  S6  1  0.03729041  0.37408936  0.91647346  1
  S  S7  1  0.34255055  0.96045108  0.91561919  1
  S  S8  1  0.04295354  0.64996627  0.41991438  1
  O  O0  1  0.21190367  0.00225703  0.30001130  1
  O  O1  1  0.78793058  0.77369712  0.30108294  1
  O  O2  1  0.99695130  0.21615962  0.31381691  1
  O  O3  1  0.17952423  0.18369054  0.80979947  1
  O  O4  1  0.99352052  0.82060652  0.80669347  1
  O  O5  1  0.81232015  0.99910755  0.80532457  1
  O  O6  1  0.79640663  0.97361910  0.70107472  1
  O  O7  1  0.17872066  0.20289156  0.69565135  1
  O  O8  1  0.02298384  0.83353984  0.69335161  1
  O  O9  1  0.78476169  0.80427087  0.19727116  1
  O  O10  1  0.02227675  0.18992046  0.19981081  1
  O  O11  1  0.18197939  0.97197632  0.19649279  1
  O  O12  1  0.89637715  0.36027255  0.63927182  1
  O  O13  1  0.45560358  0.09339231  0.63358535  1
  O  O14  1  0.63896732  0.54810715  0.63706234  1
  O  O15  1  0.93619124  0.54462113  0.13848488  1
  O  O16  1  0.62879287  0.08304214  0.13193966  1
  O  O17  1  0.45539473  0.36594063  0.14635027  1
  O  O18  1  0.47497171  0.31143814  0.03352587  1
  O  O19  1  0.84181385  0.53652503  0.02906938  1
  O  O20  1  0.69405445  0.14682988  0.03005478  1
  O  O21  1  0.45193071  0.14335770  0.53135692  1
  O  O22  1  0.68623384  0.53926958  0.53476085  1
  O  O23  1  0.84531481  0.31096469  0.52576116  1
  O  O24  1  0.52348568  0.68901126  0.96666188  1
  O  O25  1  0.14378324  0.46069744  0.96688715  1
  O  O26  1  0.31585457  0.85580551  0.96658174  1
  O  O27  1  0.50550890  0.85539485  0.47466675  1
  O  O28  1  0.32813122  0.48926896  0.46951501  1
  O  O29  1  0.14007967  0.66058769  0.47162476  1
  O  O30  1  0.12759301  0.63527266  0.36734647  1
  O  O31  1  0.50628165  0.86396553  0.36079369  1
  O  O32  1  0.36319588  0.49029988  0.35814976  1
  O  O33  1  0.11930165  0.48100795  0.86444026  1
  O  O34  1  0.35538416  0.87556921  0.86387950  1
  O  O35  1  0.51430542  0.64836516  0.85559849  1
  O  O36  1  0.01901141  0.79393406  0.41819680  1
  O  O37  1  0.80344524  0.98928893  0.42331780  1
  O  O38  1  0.18201744  0.20152402  0.42052251  1
  O  O39  1  0.02357456  0.20824901  0.91116937  1
  O  O40  1  0.19061472  0.98316670  0.91094689  1
  O  O41  1  0.81824423  0.83854376  0.91060901  1
  O  O42  1  0.98135879  0.15662914  0.58736198  1
  O  O43  1  0.19212183  0.01996144  0.58457248  1
  O  O44  1  0.83022793  0.80561810  0.58528773  1
  O  O45  1  0.97667813  0.82501203  0.08998207  1
  O  O46  1  0.82423599  0.01817670  0.08515641  1
  O  O47  1  0.17546374  0.16587492  0.08755896  1
  O  O48  1  0.68679269  0.13044536  0.75274570  1
  O  O49  1  0.47670607  0.32558071  0.75417448  1
  O  O50  1  0.84085548  0.54260583  0.75180689  1
  O  O51  1  0.64931861  0.52701433  0.24497847  1
  O  O52  1  0.84155933  0.32875236  0.24940598  1
  O  O53  1  0.45809818  0.14023961  0.24250309  1
  O  O54  1  0.64289215  0.49977297  0.92280873  1
  O  O55  1  0.86668416  0.35394617  0.92236591  1
  O  O56  1  0.49611634  0.12916658  0.92150099  1
  O  O57  1  0.63884504  0.15211445  0.42216513  1
  O  O58  1  0.52537137  0.37851172  0.42691718  1
  O  O59  1  0.87434518  0.48991953  0.42231767  1
  O  O60  1  0.33802920  0.49533376  0.07004237  1
  O  O61  1  0.16818257  0.68731636  0.06170671  1
  O  O62  1  0.52504284  0.85906614  0.06613040  1
  O  O63  1  0.32950812  0.85722685  0.57103297  1
  O  O64  1  0.52784192  0.66707270  0.57259018  1
  O  O65  1  0.16102707  0.49607222  0.57389973  1
  O  O66  1  0.30374298  0.83237257  0.25039567  1
  O  O67  1  0.52684696  0.70442937  0.25154713  1
  O  O68  1  0.18783642  0.48919654  0.25334182  1
  O  O69  1  0.30328234  0.48309884  0.75760138  1
  O  O70  1  0.18540696  0.71072111  0.75830602  1
  O  O71  1  0.54411224  0.82692532  0.75616973  1
loop_
_geom_bond_atom_site_label_1
_geom_bond_atom_site_label_2
_geom_bond_distance
_geom_bond_site_symmetry_2
Na0 O17 2.330579 1_555
Na0 O51 2.389174 1_555
Na0 O68 2.399619 1_555
Na0 O53 2.604559 1_555
Na0 O10 2.714767 1_555
Na0 O67 2.821509 1_555
Na1 O49 2.345814 1_555
Na1 O50 2.349939 1_555
Na1 O71 2.417299 1_555
Na1 O35 2.567667 1_555
Na1 O69 2.611413 1_555
Na1 O14 2.949178 1_555
Na2 O37 2.384555 1_545
Na2 O59 2.423209 1_555
Na2 O38 2.432791 1_655
Na2 O2 2.591363 1_555
Na2 O57 2.633149 1_555
Na2 O23 2.805401 1_555
Na3 O42 2.415651 1_555
Na3 O37 2.442809 1_545
Na3 O38 2.574979 1_655
Na3 O44 2.594237 1_545
Na3 O43 2.627507 1_655
Na3 O36 2.934286 1_645
Na4 O45 2.418006 1_555
Na4 O46 2.576427 1_565
Na4 O47 2.577883 1_665
Na4 O41 2.623057 1_554
Na4 O40 2.833873 1_654
Na4 O39 2.920649 1_664
Na5 O49 2.433498 1_555
Na5 O50 2.580551 1_555
Na5 O54 2.583742 1_555
Na5 O56 2.714845 1_555
Na5 O55 2.769110 1_555
Na5 O48 2.839577 1_555
Na6 O52 2.393698 1_555
Na6 O57 2.545816 1_555
Na6 O53 2.729057 1_555
Na6 O59 2.756753 1_555
Na6 O51 2.857184 1_555
Na6 O58 2.859164 1_555
Na7 O68 2.468627 1_555
Na7 O66 2.657948 1_555
Na7 O61 2.695146 1_555
Na7 O60 2.718396 1_555
Na7 O67 2.848742 1_555
Na7 O15 2.921550 1_455
Na7 O62 3.043468 1_555
Na8 O65 2.458077 1_555
Na8 O70 2.514160 1_555
Na8 O69 2.583286 1_555
La0 O2 2.200092 1_555
La0 O37 2.303885 1_545
La0 O38 2.315972 1_655
La0 O1 2.377831 1_545
La0 O0 2.391805 1_655
La0 O36 2.479316 1_645
La1 O12 2.178521 1_555
La1 O50 2.303888 1_555
La1 O49 2.412675 1_555
La1 O14 2.444236 1_555
La1 O48 2.463472 1_555
La1 O13 2.466173 1_555
La2 O15 2.186295 1_555
La2 O52 2.276614 1_555
La2 O17 2.347298 1_555
La2 O16 2.422815 1_555
La2 O51 2.517314 1_555
La2 O53 2.598303 1_555
Hf0 O4 1.911501 1_455
Hf0 O3 1.971710 1_565
Hf0 O41 2.050311 1_455
Hf0 O40 2.139390 1_555
Hf0 O5 2.156130 1_455
Hf0 O39 2.319374 1_565
Hf1 O7 1.932580 1_555
Hf1 O8 2.006429 1_545
Hf1 O42 2.047759 1_455
Hf1 O43 2.195168 1_555
Hf1 O6 2.214559 1_445
Hf1 O44 2.362265 1_445
Hf2 O47 1.966463 1_555
Hf2 O45 2.046171 1_445
Hf2 O10 2.047835 1_555
Hf2 O11 2.164530 1_545
Hf2 O46 2.192902 1_455
Hf2 O9 2.338373 1_445
Hf3 O19 1.933912 1_556
Hf3 O18 1.948717 1_556
Hf3 O54 1.993887 1_555
Hf3 O20 2.355832 1_556
Hf3 O55 2.363124 1_555
Hf3 O56 2.383982 1_555
Hf4 O57 1.974563 1_555
Hf4 O58 2.011143 1_555
Hf4 O23 2.019388 1_555
Hf4 O21 2.125439 1_555
Hf4 O59 2.250522 1_555
Hf4 O22 2.327572 1_555
Hf5 O60 1.950583 1_555
Hf5 O24 1.975549 1_554
Hf5 O61 1.990201 1_555
Hf5 O62 2.101014 1_555
Hf5 O25 2.149030 1_554
Hf5 O26 2.238072 1_554
Hf6 O28 1.912089 1_555
Hf6 O27 1.963862 1_555
Hf6 O65 2.022699 1_555
Hf6 O64 2.090703 1_555
Hf6 O29 2.130381 1_555
Hf6 O63 2.237786 1_555
Hf7 O32 1.958005 1_555
Hf7 O31 1.997940 1_555
Hf7 O68 2.095341 1_555
Hf7 O67 2.154748 1_555
Hf7 O30 2.201749 1_555
Hf7 O66 2.321406 1_555
Hf8 O69 1.974844 1_555
Hf8 O35 2.026094 1_555
Hf8 O70 2.026726 1_555
Hf8 O33 2.120090 1_555
Hf8 O71 2.255461 1_555
Hf8 O34 2.258314 1_555
O0 S0 1.464768 1_545
O1 S1 1.455143 1_555
O2 Si0 1.621767 1_655
O3 Si1 1.618714 1_555
O4 Si2 1.645063 1_655
O5 S2 1.472786 1_555
O6 S2 1.490340 1_555
O7 Si1 1.652554 1_555
O8 Si2 1.644440 1_555
O9 S1 1.479839 1_555
O10 Si0 1.692568 1_555
O11 S0 1.508355 1_555
O12 Si3 1.611079 1_555
O13 S3 1.456512 1_555
O14 S4 1.473381 1_555
O15 Si4 1.608173 1_555
O16 S5 1.462141 1_555
O17 Si5 1.603552 1_555
O18 Si5 1.658026 1_555
O19 Si4 1.668815 1_555
O20 S5 1.476760 1_555
O21 S3 1.501760 1_555
O22 S4 1.479374 1_555
O23 Si3 1.671137 1_555
O24 Si6 1.617394 1_555
O25 S6 1.477166 1_555
O26 S7 1.467794 1_555
O27 Si7 1.608882 1_555
O28 Si8 1.629193 1_555
O29 S8 1.467484 1_555
O30 S8 1.497899 1_555
O31 Si7 1.648670 1_555
O32 Si8 1.670404 1_555
O33 S6 1.502492 1_555
O34 S7 1.480618 1_555
O35 Si6 1.655881 1_555
O36 S8 1.448377 1_555
O37 Si7 1.620904 1_555
O38 Si8 1.616480 1_555
O39 S6 1.473618 1_555
O40 S7 1.506908 1_555
O41 Si6 1.640958 1_555
O42 Si3 1.654136 1_555
O43 S3 1.497673 1_555
O44 S4 1.481690 1_555
O45 Si4 1.640791 1_555
O46 S5 1.497607 1_555
O47 Si5 1.650351 1_555
O48 S2 1.459716 1_545
O49 Si1 1.613396 1_555
O50 Si2 1.627802 1_655
O51 S1 1.481154 1_555
O52 Si0 1.616755 1_655
O53 S0 1.476037 1_545
O54 Si6 1.667756 1_555
O55 S6 1.480206 1_655
O56 S7 1.482937 1_545
O57 Si7 1.674376 1_545
O58 Si8 1.624758 1_555
O59 S8 1.501395 1_655
O60 Si5 1.638802 1_555
O61 Si4 1.623603 1_455
O62 S5 1.480865 1_565
O63 S3 1.470981 1_565
O64 S4 1.495849 1_555
O65 Si3 1.641807 1_455
O66 S0 1.485731 1_555
O67 S1 1.511875 1_555
O68 Si0 1.673839 1_555
O69 Si1 1.675064 1_555
O70 Si2 1.638946 1_555
O71 S2 1.498341 1_555
