# generated using pymatgen
data_KHfMg6
_symmetry_space_group_name_H-M   'P 1'
_cell_length_a   6.67579566
_cell_length_b   6.67579566
_cell_length_c   4.63668537
_cell_angle_alpha   90.00000000
_cell_angle_beta   90.00000000
_cell_angle_gamma   90.01205888
_symmetry_Int_Tables_number   1
_chemical_formula_structural   KHfMg6
_chemical_formula_sum   'K1 Hf1 Mg6'
_cell_volume   206.63966411
_cell_formula_units_Z   1
loop_
 _symmetry_equiv_pos_site_id
 _symmetry_equiv_pos_as_xyz
  1  'x, y, z'
loop_
 _atom_site_type_symbol
 _atom_site_label
 _atom_site_symmetry_multiplicity
 _atom_site_fract_x
 _atom_site_fract_y
 _atom_site_fract_z
 _atom_site_occupancy
  K  K0  1  0.12514778  0.12514778  0.50000000  1
  Hf  Hf0  1  0.62494877  0.62494877  0.50000000  1
  Mg  Mg0  1  0.62515783  0.12486175  0.50000000  1
  Mg  Mg1  1  0.12486175  0.62515783  0.50000000  1
  Mg  Mg2  1  0.85046959  0.39939743  0.00000000  1
  Mg  Mg3  1  0.39939743  0.85046959  -0.00000000  1
  Mg  Mg4  1  0.39938642  0.39938642  -0.00000000  1
  Mg  Mg5  1  0.85063143  0.85063143  -0.00000000  1
loop_
_geom_bond_atom_site_label_1
_geom_bond_atom_site_label_2
_geom_bond_distance
_geom_bond_site_symmetry_2
K0 Mg0 3.337831 1_455
K0 Mg1 3.337831 1_545
K0 Mg1 3.337966 1_555
K0 Mg0 3.337966 1_555
K0 Mg4 3.475151 1_556
K0 Mg4 3.475151 1_555
K0 Mg5 3.477104 1_446
K0 Mg5 3.477104 1_445
K0 Mg2 3.477143 1_455
K0 Mg2 3.477143 1_456
K0 Mg3 3.477143 1_546
K0 Mg3 3.477143 1_545
Hf0 Mg4 3.147805 1_556
Hf0 Mg4 3.147805 1_555
Hf0 Mg2 3.147940 1_555
Hf0 Mg2 3.147940 1_556
Hf0 Mg3 3.147940 1_556
Hf0 Mg3 3.147940 1_555
Hf0 Mg5 3.148573 1_555
Hf0 Mg5 3.148573 1_556
Hf0 Mg0 3.337317 1_565
Hf0 Mg1 3.337317 1_655
Hf0 Mg1 3.338479 1_555
Hf0 Mg0 3.338479 1_555
Mg0 Mg5 3.315574 1_545
Mg0 Mg5 3.315574 1_546
Mg0 Mg2 3.315860 1_555
Mg0 Mg2 3.315860 1_556
Mg0 Mg3 3.316690 1_546
Mg0 Mg3 3.316690 1_545
Mg0 Mg4 3.317562 1_556
Mg0 Mg4 3.317562 1_555
Mg1 Mg5 3.315574 1_456
Mg1 Mg5 3.315574 1_455
Mg1 Mg3 3.315860 1_556
Mg1 Mg3 3.315860 1_555
Mg1 Mg2 3.316690 1_456
Mg1 Mg2 3.316690 1_455
Mg1 Mg4 3.317562 1_556
Mg1 Mg4 3.317562 1_555
Mg2 Mg4 3.011339 1_555
Mg2 Mg5 3.012346 1_555
Mg3 Mg4 3.011339 1_555
Mg3 Mg5 3.012346 1_555
