# generated using pymatgen
data_Na3Ta2Nb2Si5PO24
_symmetry_space_group_name_H-M   'P 1'
_cell_length_a   8.93842056
_cell_length_b   8.89757132
_cell_length_c   22.89449457
_cell_angle_alpha   89.93177823
_cell_angle_beta   90.24784245
_cell_angle_gamma   119.82061563
_symmetry_Int_Tables_number   1
_chemical_formula_structural   Na3Ta2Nb2Si5PO24
_chemical_formula_sum   'Na9 Ta6 Nb6 Si15 P3 O72'
_cell_volume   1579.68982045
_cell_formula_units_Z   3
loop_
 _symmetry_equiv_pos_site_id
 _symmetry_equiv_pos_as_xyz
  1  'x, y, z'
loop_
 _atom_site_type_symbol
 _atom_site_label
 _atom_site_symmetry_multiplicity
 _atom_site_fract_x
 _atom_site_fract_y
 _atom_site_fract_z
 _atom_site_occupancy
  Na  Na0  1  0.99993301  0.63377439  0.24994874  1
  Na  Na1  1  0.99982274  0.36409164  0.75017924  1
  Na  Na2  1  0.66728249  0.96837710  0.58341027  1
  Na  Na3  1  0.00662683  0.99943771  0.49912561  1
  Na  Na4  1  0.00121983  0.00014377  0.99998830  1
  Na  Na5  1  0.65960409  0.33161809  0.83414072  1
  Na  Na6  1  0.66046503  0.32524892  0.33432999  1
  Na  Na7  1  0.34103739  0.66567346  0.16584375  1
  Na  Na8  1  0.33426608  0.66567711  0.66667204  1
  Ta  Ta0  1  0.99740034  0.99817741  0.35479947  1
  Ta  Ta1  1  0.00368378  0.00268431  0.85486812  1
  Ta  Ta2  1  0.00307440  0.99909556  0.64521866  1
  Ta  Ta3  1  0.00222374  0.00085898  0.14503835  1
  Ta  Ta4  1  0.66301429  0.33333233  0.68808268  1
  Ta  Ta5  1  0.66925750  0.33374321  0.47857054  1
  Nb  Nb0  1  0.66397200  0.33407144  0.18820282  1
  Nb  Nb1  1  0.66572293  0.33480112  0.97835441  1
  Nb  Nb2  1  0.32305882  0.66096022  0.02176477  1
  Nb  Nb3  1  0.32986716  0.66751161  0.52131394  1
  Nb  Nb4  1  0.33583606  0.67040267  0.31190899  1
  Nb  Nb5  1  0.33537194  0.67380834  0.81196982  1
  Si  Si0  1  0.28810980  0.00503718  0.25076092  1
  Si  Si1  1  0.71173314  0.71669896  0.24923056  1
  Si  Si2  1  0.00016567  0.28485555  0.24995283  1
  Si  Si3  1  0.28977044  0.28595412  0.75035569  1
  Si  Si4  1  0.99760519  0.71312573  0.75071729  1
  Si  Si5  1  0.71254563  0.99679934  0.74938114  1
  Si  Si6  1  0.95552405  0.33619212  0.58433629  1
  Si  Si7  1  0.37775329  0.05009391  0.58245515  1
  Si  Si8  1  0.66698079  0.61967209  0.58266498  1
  Si  Si9  1  0.95277379  0.62233232  0.08386499  1
  Si  Si10  1  0.37727960  0.33264507  0.08258259  1
  Si  Si11  1  0.04328011  0.37690791  0.91568177  1
  Si  Si12  1  0.33264721  0.95648101  0.91755900  1
  Si  Si13  1  0.62349061  0.95656227  0.41758482  1
  Si  Si14  1  0.04260751  0.66630945  0.41567144  1
  P  P0  1  0.66725078  0.04603378  0.08304275  1
  P  P1  1  0.62015517  0.66919870  0.91718096  1
  P  P2  1  0.33323360  0.37862161  0.41668642  1
  O  O0  1  0.19515127  0.02997313  0.30790833  1
  O  O1  1  0.83874516  0.80352686  0.30624386  1
  O  O2  1  0.97153936  0.16521692  0.30738012  1
  O  O3  1  0.19429547  0.16455732  0.80741183  1
  O  O4  1  0.96963423  0.80451642  0.80769491  1
  O  O5  1  0.83877602  0.03382294  0.80596235  1
  O  O6  1  0.80049100  0.97126213  0.69024784  1
  O  O7  1  0.16164658  0.19690209  0.69370828  1
  O  O8  1  0.02898714  0.83401199  0.69310565  1
  O  O9  1  0.80483709  0.83487021  0.19207047  1
  O  O10  1  0.02847831  0.19361181  0.19263768  1
  O  O11  1  0.16122251  0.96482032  0.19374073  1
  O  O12  1  0.86737370  0.36293939  0.64306498  1
  O  O13  1  0.50501232  0.13609454  0.63948402  1
  O  O14  1  0.63840787  0.49886791  0.64029658  1
  O  O15  1  0.86782050  0.50462302  0.14255125  1
  O  O16  1  0.64043866  0.13270426  0.13781250  1
  O  O17  1  0.50032261  0.35837143  0.13991065  1
  O  O18  1  0.47240217  0.30414651  0.02606860  1
  O  O19  1  0.83248776  0.52425120  0.02695362  1
  O  O20  1  0.69440188  0.16023463  0.02843648  1
  O  O21  1  0.47210877  0.16819809  0.52541653  1
  O  O22  1  0.69560028  0.52779121  0.52575782  1
  O  O23  1  0.82756649  0.29914213  0.52774734  1
  O  O24  1  0.53495779  0.69456309  0.97161140  1
  O  O25  1  0.16825971  0.47203789  0.97292443  1
  O  O26  1  0.30888860  0.83366853  0.97387551  1
  O  O27  1  0.53397153  0.83775945  0.47587815  1
  O  O28  1  0.30680557  0.46551088  0.47137167  1
  O  O29  1  0.16710246  0.69129839  0.47251154  1
  O  O30  1  0.13237886  0.63706594  0.35751460  1
  O  O31  1  0.49922201  0.85723126  0.36072506  1
  O  O32  1  0.35973422  0.49196860  0.36197927  1
  O  O33  1  0.13538887  0.49493014  0.85768005  1
  O  O34  1  0.36200046  0.86215040  0.86008483  1
  O  O35  1  0.50698423  0.63976901  0.86190407  1
  O  O36  1  0.02848827  0.84172107  0.41027623  1
  O  O37  1  0.81477259  0.97771327  0.40946277  1
  O  O38  1  0.17093514  0.19780325  0.40986728  1
  O  O39  1  0.02197200  0.18416590  0.91024310  1
  O  O40  1  0.15895435  0.97123597  0.91021065  1
  O  O41  1  0.80150070  0.82944448  0.90927243  1
  O  O42  1  0.96555174  0.15768504  0.59010090  1
  O  O43  1  0.18663288  0.02646100  0.59004939  1
  O  O44  1  0.83331323  0.81546076  0.59003991  1
  O  O45  1  0.97210449  0.81372278  0.08966956  1
  O  O46  1  0.83047427  0.02882905  0.09014883  1
  O  O47  1  0.18588092  0.16347345  0.09045701  1
  O  O48  1  0.70018340  0.17418509  0.74299722  1
  O  O49  1  0.47957505  0.30535586  0.74331980  1
  O  O50  1  0.83334994  0.51660778  0.74346789  1
  O  O51  1  0.70106821  0.52677590  0.24285624  1
  O  O52  1  0.83316137  0.31366115  0.24279640  1
  O  O53  1  0.48079091  0.16983879  0.24267435  1
  O  O54  1  0.63934954  0.50480466  0.92337709  1
  O  O55  1  0.85366719  0.35894963  0.92467120  1
  O  O56  1  0.50435149  0.14718814  0.92393842  1
  O  O57  1  0.63831123  0.14655559  0.42308181  1
  O  O58  1  0.49572241  0.36021230  0.42351210  1
  O  O59  1  0.85169247  0.49607799  0.42385838  1
  O  O60  1  0.36468412  0.50902203  0.07609077  1
  O  O61  1  0.14632486  0.64416379  0.07624425  1
  O  O62  1  0.50663301  0.86477161  0.07595006  1
  O  O63  1  0.36652145  0.85975042  0.57609033  1
  O  O64  1  0.49944721  0.64742595  0.57623721  1
  O  O65  1  0.14718693  0.50328551  0.57583464  1
  O  O66  1  0.29906184  0.82580583  0.25711986  1
  O  O67  1  0.51919521  0.68931321  0.25737968  1
  O  O68  1  0.16693356  0.48057853  0.25725271  1
  O  O69  1  0.30157609  0.47451344  0.75772134  1
  O  O70  1  0.16649932  0.68526216  0.75697294  1
  O  O71  1  0.52171132  0.82679109  0.75697643  1
loop_
_geom_bond_atom_site_label_1
_geom_bond_atom_site_label_2
_geom_bond_distance
_geom_bond_site_symmetry_2
Na0 O51 2.352910 1_555
Na0 O66 2.355520 1_655
Na0 O68 2.476910 1_655
Na0 O52 2.477418 1_555
Na0 O15 2.718956 1_555
Na0 O30 2.721684 1_655
Na0 O11 2.862522 1_655
Na0 O1 2.864122 1_555
Na1 O48 2.356124 1_555
Na1 O69 2.372925 1_655
Na1 O50 2.466799 1_555
Na1 O70 2.484883 1_655
Na1 O12 2.716333 1_555
Na1 O33 2.731114 1_655
Na1 O7 2.852618 1_655
Na1 O5 2.852779 1_555
Na2 O42 2.345050 1_565
Na2 O63 2.366776 1_555
Na2 O44 2.466256 1_555
Na2 O64 2.484079 1_555
Na2 O6 2.710313 1_555
Na2 O27 2.726825 1_555
Na2 O23 2.855039 1_565
Na2 O13 2.855195 1_565
Na3 O36 2.535389 1_555
Na3 O43 2.562681 1_565
Na3 O37 2.613981 1_455
Na3 O38 2.624381 1_565
Na3 O44 2.628595 1_455
Na3 O42 2.642583 1_465
Na4 O45 2.569405 1_446
Na4 O39 2.574920 1_555
Na4 O40 2.581801 1_545
Na4 O47 2.591959 1_556
Na4 O46 2.659169 1_456
Na4 O41 2.661941 1_445
Na5 O49 2.562375 1_555
Na5 O56 2.568457 1_555
Na5 O54 2.620948 1_555
Na5 O50 2.628281 1_555
Na5 O55 2.629538 1_555
Na5 O48 2.639471 1_555
Na6 O57 2.525569 1_555
Na6 O53 2.581414 1_555
Na6 O59 2.612734 1_555
Na6 O58 2.630045 1_555
Na6 O52 2.640421 1_555
Na6 O51 2.661426 1_555
Na7 O60 2.552134 1_555
Na7 O67 2.571189 1_555
Na7 O61 2.629152 1_555
Na7 O62 2.640932 1_555
Na7 O68 2.642854 1_555
Na7 O66 2.661442 1_555
Na8 O71 2.593246 1_555
Na8 O64 2.599772 1_555
Na8 O65 2.604427 1_555
Na8 O69 2.612699 1_555
Na8 O70 2.615486 1_555
Na8 O63 2.620521 1_555
Nb0 O17 1.925832 1_555
Nb0 O15 1.994458 1_555
Nb0 O53 2.001295 1_555
Nb0 O51 2.012843 1_555
Nb0 O52 2.034323 1_555
Nb0 O16 2.052628 1_555
Nb1 O19 1.947419 1_556
Nb1 O18 1.949489 1_556
Nb1 O56 2.003459 1_555
Nb1 O55 2.009258 1_555
Nb1 O20 2.045021 1_556
Nb1 O54 2.067704 1_555
Nb2 O25 1.915274 1_554
Nb2 O26 1.941108 1_554
Nb2 O61 1.963508 1_555
Nb2 O60 2.001304 1_555
Nb2 O24 2.109506 1_554
Nb2 O62 2.132654 1_555
Nb3 O29 1.923902 1_555
Nb3 O27 1.992266 1_555
Nb3 O65 1.999936 1_555
Nb3 O63 2.012441 1_555
Nb3 O64 2.040361 1_555
Nb3 O28 2.052945 1_555
Nb4 O31 1.928988 1_555
Nb4 O30 1.991134 1_555
Nb4 O67 2.003978 1_555
Nb4 O66 2.009407 1_555
Nb4 O68 2.037244 1_555
Nb4 O32 2.052102 1_555
Nb5 O34 1.919321 1_555
Nb5 O71 1.992830 1_555
Nb5 O33 2.001562 1_555
Nb5 O70 2.002619 1_555
Nb5 O35 2.048835 1_555
Nb5 O69 2.060927 1_555
O0 Si0 1.626309 1_555
O0 Ta0 1.968562 1_445
O1 Si1 1.645227 1_555
O1 Ta0 1.947973 1_555
O2 Si2 1.629698 1_655
O2 Ta0 1.943362 1_545
O3 Si3 1.640374 1_555
O3 Ta1 1.931162 1_555
O4 Si4 1.622630 1_555
O4 Ta1 1.958554 1_665
O5 Si5 1.636563 1_545
O5 Ta1 1.973399 1_655
O6 Si5 1.640123 1_555
O6 Ta2 1.993131 1_655
O7 Si3 1.645736 1_555
O7 Ta2 1.961882 1_545
O8 Si4 1.635564 1_455
O8 Ta2 1.935319 1_555
O9 Si1 1.626817 1_555
O9 Ta3 1.968395 1_665
O10 Si2 1.629344 1_555
O10 Ta3 1.945749 1_555
O11 Si0 1.644156 1_565
O11 Ta3 1.950530 1_565
O12 Si6 1.637602 1_555
O12 Ta4 2.001339 1_555
O13 Si7 1.645595 1_555
O13 Ta4 1.959175 1_555
O14 Si8 1.639515 1_555
O14 Ta4 1.931552 1_555
O15 Si9 1.641112 1_555
O16 P0 1.553436 1_555
O17 Si10 1.649991 1_555
O18 Si10 1.638905 1_555
O19 Si9 1.634827 1_555
O20 P0 1.551991 1_555
O21 Si7 1.626552 1_555
O21 Ta5 1.963736 1_555
O22 Si8 1.626234 1_555
O22 Ta5 1.949732 1_555
O23 Si6 1.645761 1_555
O23 Ta5 1.945088 1_555
O24 P1 1.537393 1_555
O25 Si11 1.652714 1_555
O26 Si12 1.633944 1_555
O27 Si13 1.644210 1_555
O28 P2 1.551603 1_555
O29 Si14 1.650232 1_555
O30 Si14 1.643809 1_555
O31 Si13 1.650269 1_555
O32 P2 1.550455 1_555
O33 Si11 1.640185 1_555
O34 Si12 1.652077 1_555
O35 P1 1.555536 1_555
O36 Si14 1.631684 1_555
O36 Ta0 2.001438 1_455
O37 Si13 1.635824 1_555
O37 Ta0 1.996405 1_555
O38 P2 1.547459 1_555
O38 Ta0 2.097283 1_445
O39 Si11 1.633472 1_555
O39 Ta1 1.995483 1_555
O40 Si12 1.629823 1_555
O40 Ta1 1.995008 1_565
O41 P1 1.548054 1_555
O41 Ta1 2.106589 1_665
O42 Si6 1.639838 1_555
O42 Ta2 2.039301 1_645
O43 Si7 1.624192 1_555
O43 Ta2 1.991603 1_545
O44 Si8 1.642027 1_555
O44 Ta2 2.022509 1_655
O45 Si9 1.629453 1_555
O45 Ta3 2.002012 1_665
O46 P0 1.548703 1_555
O46 Ta3 2.088165 1_655
O47 Si10 1.632756 1_555
O47 Ta3 2.000245 1_555
O48 Si5 1.642369 1_545
O48 Ta4 2.038676 1_555
O49 Si3 1.626363 1_555
O49 Ta4 1.990219 1_555
O50 Si4 1.638848 1_555
O50 Ta4 2.025850 1_555
O51 Si1 1.651134 1_555
O52 Si2 1.642909 1_655
O53 Si0 1.625119 1_555
O54 P1 1.561396 1_555
O55 Si11 1.635228 1_655
O56 Si12 1.632366 1_545
O57 Si13 1.633629 1_545
O57 Ta5 2.002033 1_555
O58 P2 1.547669 1_555
O58 Ta5 2.096693 1_555
O59 Si14 1.634859 1_655
O59 Ta5 1.996299 1_555
O60 Si10 1.634800 1_555
O61 Si9 1.652124 1_455
O62 P0 1.544135 1_565
O63 Si7 1.652553 1_565
O64 Si8 1.640394 1_555
O65 Si6 1.628552 1_455
O66 Si0 1.651821 1_565
O67 Si1 1.625291 1_555
O68 Si2 1.642973 1_555
O69 Si3 1.636691 1_555
O70 Si4 1.652662 1_455
O71 Si5 1.632085 1_555
