# generated using pymatgen
data_BaSrMg(FeO2)4
_symmetry_space_group_name_H-M   'P 1'
_cell_length_a   5.72941337
_cell_length_b   5.73695313
_cell_length_c   8.33828293
_cell_angle_alpha   83.96608091
_cell_angle_beta   93.01674478
_cell_angle_gamma   120.04353593
_symmetry_Int_Tables_number   1
_chemical_formula_structural   BaSrMg(FeO2)4
_chemical_formula_sum   'Ba1 Sr1 Mg1 Fe4 O8'
_cell_volume   235.93657844
_cell_formula_units_Z   1
loop_
 _symmetry_equiv_pos_site_id
 _symmetry_equiv_pos_as_xyz
  1  'x, y, z'
loop_
 _atom_site_type_symbol
 _atom_site_label
 _atom_site_symmetry_multiplicity
 _atom_site_fract_x
 _atom_site_fract_y
 _atom_site_fract_z
 _atom_site_occupancy
  Ba  Ba0  1  0.00000000  0.98271200  0.95309000  1
  Sr  Sr0  1  0.00000000  0.93458700  0.46081100  1
  Mg  Mg0  1  0.00000000  0.37655000  0.58915700  1
  Fe  Fe0  1  0.66728900  0.32375700  0.22978700  1
  Fe  Fe1  1  0.62015900  0.35001500  0.78029300  1
  Fe  Fe2  1  0.37984100  0.72985500  0.78029300  1
  Fe  Fe3  1  0.33271100  0.65646700  0.22978700  1
  O  O0  1  0.29850100  0.34740200  0.69137000  1
  O  O1  1  0.70149900  0.04890000  0.69137000  1
  O  O2  1  0.99999900  0.66307400  0.69338900  1
  O  O3  1  0.64783700  0.63042600  0.28816200  1
  O  O4  1  0.00000100  0.37432800  0.34881800  1
  O  O5  1  0.35216300  0.98259000  0.28816200  1
  O  O6  1  0.31013700  0.63926100  0.01119100  1
  O  O7  1  0.68986300  0.32912500  0.01119100  1
loop_
_geom_bond_atom_site_label_1
_geom_bond_atom_site_label_2
_geom_bond_distance
_geom_bond_site_symmetry_2
Ba0 O1 2.813310 1_465
Ba0 O0 2.813312 1_565
Ba0 O2 2.981050 1_455
Ba0 O7 3.238648 1_456
Ba0 O6 3.238653 1_556
Ba0 O6 3.342251 1_566
Ba0 O7 3.342256 1_466
Ba0 O5 3.359275 1_556
Ba0 O3 3.359277 1_456
Mg0 O2 1.938483 1_455
Mg0 O0 1.944796 1_555
Mg0 O1 1.944799 1_455
Mg0 O4 2.005395 1_555
Fe0 O7 1.830025 1_555
Fe0 O5 1.918678 1_545
Fe0 O3 1.930472 1_555
Fe0 O4 2.002660 1_655
Fe1 O0 1.943493 1_555
Fe1 O7 1.949126 1_556
Fe1 O2 2.113171 1_555
Fe1 O1 2.205204 1_555
Fe2 O1 1.943493 1_565
Fe2 O6 1.949126 1_556
Fe2 O2 2.113182 1_455
Fe2 O0 2.205193 1_555
Fe3 O6 1.830025 1_555
Fe3 O3 1.918678 1_555
Fe3 O5 1.930483 1_555
Fe3 O4 2.002650 1_555
O0 Sr0 2.963962 1_545
O1 Sr0 2.963959 1_645
O2 Sr0 2.356291 1_655
O3 Sr0 2.425974 1_655
O4 Sr0 2.596369 1_545
O5 Sr0 2.425972 1_555
