# generated using pymatgen
data_NaMgNiO2
_symmetry_space_group_name_H-M   'P 1'
_cell_length_a   5.82014112
_cell_length_b   12.83319226
_cell_length_c   12.47996105
_cell_angle_alpha   75.37772981
_cell_angle_beta   62.18992373
_cell_angle_gamma   63.16056387
_symmetry_Int_Tables_number   1
_chemical_formula_structural   NaMgNiO2
_chemical_formula_sum   'Na8 Mg8 Ni8 O16'
_cell_volume   734.62798380
_cell_formula_units_Z   8
loop_
 _symmetry_equiv_pos_site_id
 _symmetry_equiv_pos_as_xyz
  1  'x, y, z'
loop_
 _atom_site_type_symbol
 _atom_site_label
 _atom_site_symmetry_multiplicity
 _atom_site_fract_x
 _atom_site_fract_y
 _atom_site_fract_z
 _atom_site_occupancy
  Na  Na0_0  1  0.24999971  0.25000036  0.24999927  1
  Na  Na0_1  1  0.24999971  0.25000036  0.74999927  1
  Na  Na0_2  1  0.24999971  0.75000036  0.24999927  1
  Na  Na0_3  1  0.24999971  0.75000036  0.74999927  1
  Na  Na0_4  1  0.74999971  0.25000036  0.24999927  1
  Na  Na0_5  1  0.74999971  0.25000036  0.74999927  1
  Na  Na0_6  1  0.74999971  0.75000036  0.24999927  1
  Na  Na0_7  1  0.74999971  0.75000036  0.74999927  1
  Mg  Mg0_0  1  0.24999976  0.49999982  0.25000016  1
  Mg  Mg0_1  1  0.24999976  0.49999982  0.75000015  1
  Mg  Mg0_2  1  0.24999976  0.99999982  0.25000016  1
  Mg  Mg0_3  1  0.24999976  0.99999982  0.75000016  1
  Mg  Mg0_4  1  0.74999976  0.49999982  0.25000016  1
  Mg  Mg0_5  1  0.74999976  0.49999982  0.75000016  1
  Mg  Mg0_6  1  0.74999976  0.99999982  0.25000016  1
  Mg  Mg0_7  1  0.74999976  0.99999982  0.75000015  1
  Ni  Ni0_0  1  0.49999988  0.00000015  0.00000008  1
  Ni  Ni0_1  1  0.49999987  0.00000015  0.50000007  1
  Ni  Ni0_2  1  0.49999987  0.50000015  0.00000008  1
  Ni  Ni0_3  1  0.49999988  0.50000015  0.50000008  1
  Ni  Ni0_4  1  0.99999988  0.00000015  0.00000008  1
  Ni  Ni0_5  1  0.99999988  0.00000014  0.50000007  1
  Ni  Ni0_6  1  0.99999987  0.50000015  0.00000008  1
  Ni  Ni0_7  1  0.99999988  0.50000014  0.50000007  1
  O  O0_0  1  0.10398463  0.02050957  0.12563637  1
  O  O0_1  1  0.10398464  0.02050956  0.62563637  1
  O  O0_2  1  0.10398463  0.52050957  0.12563637  1
  O  O0_3  1  0.10398463  0.52050956  0.62563637  1
  O  O0_4  1  0.60398463  0.02050957  0.12563637  1
  O  O0_5  1  0.60398463  0.02050957  0.62563637  1
  O  O0_6  1  0.60398464  0.52050957  0.12563637  1
  O  O0_7  1  0.60398464  0.52050957  0.62563637  1
  O  O1_0  1  0.39601502  0.47949061  0.37436363  1
  O  O1_1  1  0.39601502  0.47949061  0.87436363  1
  O  O1_2  1  0.39601502  0.97949061  0.37436363  1
  O  O1_3  1  0.39601502  0.97949061  0.87436363  1
  O  O1_4  1  0.89601502  0.47949061  0.37436363  1
  O  O1_5  1  0.89601502  0.47949061  0.87436363  1
  O  O1_6  1  0.89601502  0.97949061  0.37436363  1
  O  O1_7  1  0.89601502  0.97949061  0.87436363  1
loop_
_geom_bond_atom_site_label_1
_geom_bond_atom_site_label_2
_geom_bond_distance
_geom_bond_site_symmetry_2
Na0_0 Na0_4 2.910071 1_555
Na0_0 Na0_4 2.910071 1_455
Na0_0 O0_4 3.028579 1_555
Na0_0 O1_4 3.028581 1_455
Na0_1 Na0_5 2.910071 1_555
Na0_1 Na0_5 2.910071 1_455
Na0_1 O0_5 3.028579 1_555
Na0_1 O1_5 3.028581 1_455
Na0_2 Na0_6 2.910071 1_455
Na0_2 Na0_6 2.910071 1_555
Na0_2 O0_6 3.028579 1_555
Na0_2 O1_6 3.028581 1_455
Na0_3 Na0_7 2.910071 1_555
Na0_3 Na0_7 2.910071 1_455
Na0_3 O0_7 3.028579 1_555
Na0_3 O1_7 3.028581 1_455
Na0_4 O0_0 3.028579 1_655
Na0_4 O1_0 3.028581 1_555
Na0_5 O0_1 3.028579 1_655
Na0_5 O1_1 3.028581 1_555
Na0_6 O0_2 3.028579 1_655
Na0_6 O1_2 3.028581 1_555
Na0_7 O0_3 3.028579 1_655
Na0_7 O1_3 3.028581 1_555
Mg0_0 O1_4 2.005617 1_455
Mg0_0 O0_6 2.005621 1_555
Mg0_0 O1_0 2.005703 1_555
Mg0_0 O0_2 2.005704 1_555
Mg0_0 Na0_0 3.208294 1_555
Mg0_0 Na0_2 3.208302 1_555
Mg0_0 Na0_4 3.214196 1_555
Mg0_0 Na0_6 3.214208 1_455
Mg0_1 O1_5 2.005617 1_455
Mg0_1 O0_7 2.005621 1_555
Mg0_1 O1_1 2.005703 1_555
Mg0_1 O0_3 2.005704 1_555
Mg0_1 Na0_1 3.208294 1_555
Mg0_1 Na0_3 3.208302 1_555
Mg0_1 Na0_5 3.214196 1_555
Mg0_1 Na0_7 3.214208 1_455
Mg0_2 O1_6 2.005617 1_455
Mg0_2 O0_4 2.005621 1_565
Mg0_2 O1_2 2.005703 1_555
Mg0_2 O0_0 2.005704 1_565
Mg0_2 Na0_2 3.208294 1_555
Mg0_2 Na0_0 3.208302 1_565
Mg0_2 Na0_6 3.214196 1_555
Mg0_2 Na0_4 3.214208 1_465
Mg0_3 O1_7 2.005617 1_455
Mg0_3 O0_5 2.005621 1_565
Mg0_3 O1_3 2.005703 1_555
Mg0_3 O0_1 2.005704 1_565
Mg0_3 Na0_3 3.208294 1_555
Mg0_3 Na0_1 3.208302 1_565
Mg0_3 Na0_7 3.214196 1_555
Mg0_3 Na0_5 3.214208 1_465
Mg0_4 O1_0 2.005617 1_555
Mg0_4 O0_2 2.005621 1_655
Mg0_4 O1_4 2.005703 1_555
Mg0_4 O0_6 2.005704 1_555
Mg0_4 Na0_4 3.208294 1_555
Mg0_4 Na0_6 3.208302 1_555
Mg0_4 Na0_0 3.214196 1_655
Mg0_4 Na0_2 3.214208 1_555
Mg0_5 O1_1 2.005617 1_555
Mg0_5 O0_3 2.005621 1_655
Mg0_5 O1_5 2.005703 1_555
Mg0_5 O0_7 2.005704 1_555
Mg0_5 Na0_5 3.208294 1_555
Mg0_5 Na0_7 3.208302 1_555
Mg0_5 Na0_1 3.214196 1_655
Mg0_5 Na0_3 3.214208 1_555
Mg0_6 O1_2 2.005617 1_555
Mg0_6 O0_0 2.005621 1_665
Mg0_6 O1_6 2.005703 1_555
Mg0_6 O0_4 2.005704 1_565
Mg0_6 Na0_6 3.208294 1_555
Mg0_6 Na0_4 3.208302 1_565
Mg0_6 Na0_2 3.214196 1_655
Mg0_6 Na0_0 3.214208 1_565
Mg0_7 O1_3 2.005617 1_555
Mg0_7 O0_1 2.005621 1_665
Mg0_7 O1_7 2.005703 1_555
Mg0_7 O0_5 2.005704 1_565
Mg0_7 Na0_7 3.208294 1_555
Mg0_7 Na0_5 3.208302 1_565
Mg0_7 Na0_3 3.214196 1_655
Mg0_7 Na0_1 3.214208 1_565
Ni0_0 O1_7 2.031899 1_544
Ni0_0 O0_0 2.031899 1_555
Ni0_0 O0_4 2.032633 1_555
Ni0_0 O1_3 2.032636 1_544
Ni0_1 O1_6 2.031899 1_545
Ni0_1 O0_1 2.031899 1_555
Ni0_1 O0_5 2.032633 1_555
Ni0_1 O1_2 2.032636 1_545
Ni0_2 O1_5 2.031899 1_554
Ni0_2 O0_2 2.031899 1_555
Ni0_2 O0_6 2.032633 1_555
Ni0_2 O1_1 2.032636 1_554
Ni0_3 O1_4 2.031899 1_555
Ni0_3 O0_3 2.031899 1_555
Ni0_3 O0_7 2.032633 1_555
Ni0_3 O1_0 2.032636 1_555
Ni0_4 O1_3 2.031899 1_644
Ni0_4 O0_4 2.031899 1_555
Ni0_4 O0_0 2.032633 1_655
Ni0_4 O1_7 2.032636 1_544
Ni0_5 O1_2 2.031899 1_645
Ni0_5 O0_5 2.031899 1_555
Ni0_5 O0_1 2.032633 1_655
Ni0_5 O1_6 2.032636 1_545
Ni0_6 O1_1 2.031899 1_654
Ni0_6 O0_6 2.031899 1_555
Ni0_6 O0_2 2.032633 1_655
Ni0_6 O1_5 2.032636 1_554
Ni0_7 O1_0 2.031899 1_655
Ni0_7 O0_7 2.031899 1_555
Ni0_7 O0_3 2.032633 1_655
Ni0_7 O1_4 2.032636 1_555
