# generated using pymatgen
data_MgFe2(CuS2)2
_symmetry_space_group_name_H-M   'P 1'
_cell_length_a   5.43962550
_cell_length_b   5.46700242
_cell_length_c   6.62628657
_cell_angle_alpha   114.52058084
_cell_angle_beta   114.39188268
_cell_angle_gamma   89.68889272
_symmetry_Int_Tables_number   1
_chemical_formula_structural   MgFe2(CuS2)2
_chemical_formula_sum   'Mg1 Fe2 Cu2 S4'
_cell_volume   159.97231922
_cell_formula_units_Z   1
loop_
 _symmetry_equiv_pos_site_id
 _symmetry_equiv_pos_as_xyz
  1  'x, y, z'
loop_
 _atom_site_type_symbol
 _atom_site_label
 _atom_site_symmetry_multiplicity
 _atom_site_fract_x
 _atom_site_fract_y
 _atom_site_fract_z
 _atom_site_occupancy
  Mg  Mg0  1  0.74180000  0.74205800  0.48300700  1
  Fe  Fe0  1  0.99975100  0.00000500  0.99966200  1
  Fe  Fe1  1  0.25122900  0.75066900  0.50157200  1
  Cu  Cu0  1  0.75256800  0.25245000  0.50366000  1
  Cu  Cu1  1  0.49306100  0.49333900  0.98564300  1
  S  S0  1  0.88867400  0.87609600  0.24302500  1
  S  S1  1  0.62193700  0.12314400  0.75475700  1
  S  S2  1  0.35502200  0.36713400  0.24251800  1
  S  S3  1  0.13345700  0.63260500  0.75490500  1
loop_
_geom_bond_atom_site_label_1
_geom_bond_atom_site_label_2
_geom_bond_distance
_geom_bond_site_symmetry_2
Mg0 S0 2.393095 1_555
Mg0 S2 2.394516 1_555
Mg0 S1 2.418509 1_565
Mg0 S3 2.419432 1_655
Fe0 S0 2.267236 1_546
Fe0 S2 2.268333 1_656
Fe0 S1 2.333995 1_555
Fe0 S3 2.334135 1_645
Fe0 Mg0 2.779292 1_545
Fe1 S3 2.331735 1_555
Fe1 S1 2.332858 1_565
Fe1 S2 2.337085 1_555
Fe1 S0 2.337618 1_455
Fe1 Mg0 2.720906 1_555
Fe1 Mg0 2.722391 1_455
Cu0 S3 2.389471 1_655
Cu0 S1 2.394011 1_555
Cu0 S0 2.419565 1_545
Cu0 S2 2.420517 1_555
Cu0 Mg0 2.735425 1_555
Cu0 Mg0 2.736093 1_545
Cu1 S3 2.285504 1_555
Cu1 S1 2.286583 1_555
Cu1 S2 2.444009 1_556
Cu1 S0 2.444115 1_556
Cu1 Mg0 2.675515 1_556
