# generated using pymatgen
data_K3NaSi3(SnO6)2
_symmetry_space_group_name_H-M   'P 1'
_cell_length_a   9.36119585
_cell_length_b   9.36119550
_cell_length_c   22.63364232
_cell_angle_alpha   90.00000000
_cell_angle_beta   90.00000000
_cell_angle_gamma   120.00000119
_symmetry_Int_Tables_number   1
_chemical_formula_structural   K3NaSi3(SnO6)2
_chemical_formula_sum   'K18 Na6 Si18 Sn12 O72'
_cell_volume   1717.70160623
_cell_formula_units_Z   6
loop_
 _symmetry_equiv_pos_site_id
 _symmetry_equiv_pos_as_xyz
  1  'x, y, z'
loop_
 _atom_site_type_symbol
 _atom_site_label
 _atom_site_symmetry_multiplicity
 _atom_site_fract_x
 _atom_site_fract_y
 _atom_site_fract_z
 _atom_site_occupancy
  K  K0  1  0.64852998  -0.00000000  0.25000000  1
  K  K1  1  0.35147002  0.35147002  0.25000000  1
  K  K2  1  1.00000000  0.64852998  0.25000000  1
  K  K3  1  0.64852998  0.64852998  0.75000000  1
  K  K4  1  0.00000000  0.35147002  0.75000000  1
  K  K5  1  0.35147002  -0.00000000  0.75000000  1
  K  K6  1  0.31519698  0.33333300  0.58333300  1
  K  K7  1  0.01813702  0.68480302  0.58333300  1
  K  K8  1  0.66666700  0.98186298  0.58333300  1
  K  K9  1  0.31519698  0.98186298  0.08333300  1
  K  K10  1  0.66666700  0.68480302  0.08333300  1
  K  K11  1  0.01813702  0.33333300  0.08333300  1
  K  K12  1  0.98186298  0.66666700  0.91666700  1
  K  K13  1  0.68480302  0.01813702  0.91666700  1
  K  K14  1  0.33333300  0.31519698  0.91666700  1
  K  K15  1  0.98186298  0.31519698  0.41666700  1
  K  K16  1  0.33333300  0.01813702  0.41666700  1
  K  K17  1  0.68480302  0.66666700  0.41666700  1
  Na  Na0  1  -0.00000000  -0.00000000  0.50000000  1
  Na  Na1  1  -0.00000000  -0.00000000  0.00000000  1
  Na  Na2  1  0.66666700  0.33333300  0.83333300  1
  Na  Na3  1  0.66666700  0.33333300  0.33333300  1
  Na  Na4  1  0.33333300  0.66666700  0.16666700  1
  Na  Na5  1  0.33333300  0.66666700  0.66666700  1
  Si  Si0  1  0.29595462  -0.00000000  0.25000000  1
  Si  Si1  1  0.70404538  0.70404538  0.25000000  1
  Si  Si2  1  0.00000000  0.29595462  0.25000000  1
  Si  Si3  1  0.29595462  0.29595462  0.75000000  1
  Si  Si4  1  1.00000000  0.70404538  0.75000000  1
  Si  Si5  1  0.70404538  -0.00000000  0.75000000  1
  Si  Si6  1  0.96262162  0.33333300  0.58333300  1
  Si  Si7  1  0.37071238  0.03737838  0.58333300  1
  Si  Si8  1  0.66666700  0.62928762  0.58333300  1
  Si  Si9  1  0.96262162  0.62928762  0.08333300  1
  Si  Si10  1  0.66666700  0.03737838  0.08333300  1
  Si  Si11  1  0.37071238  0.33333300  0.08333300  1
  Si  Si12  1  0.62928762  0.66666700  0.91666700  1
  Si  Si13  1  0.03737838  0.37071238  0.91666700  1
  Si  Si14  1  0.33333300  0.96262162  0.91666700  1
  Si  Si15  1  0.62928762  0.96262162  0.41666700  1
  Si  Si16  1  0.33333300  0.37071238  0.41666700  1
  Si  Si17  1  0.03737838  0.66666700  0.41666700  1
  Sn  Sn0  1  -0.00000000  -0.00000000  0.35096893  1
  Sn  Sn1  1  -0.00000000  -0.00000000  0.85096893  1
  Sn  Sn2  1  -0.00000000  -0.00000000  0.64903107  1
  Sn  Sn3  1  -0.00000000  -0.00000000  0.14903107  1
  Sn  Sn4  1  0.66666700  0.33333300  0.68430193  1
  Sn  Sn5  1  0.66666700  0.33333300  0.18430193  1
  Sn  Sn6  1  0.66666700  0.33333300  0.98236407  1
  Sn  Sn7  1  0.66666700  0.33333300  0.48236407  1
  Sn  Sn8  1  0.33333300  0.66666700  0.01763593  1
  Sn  Sn9  1  0.33333300  0.66666700  0.51763593  1
  Sn  Sn10  1  0.33333300  0.66666700  0.31569807  1
  Sn  Sn11  1  0.33333300  0.66666700  0.81569807  1
  O  O0  1  0.20949071  0.03413183  0.30762034  1
  O  O1  1  0.82464112  0.79050929  0.30762034  1
  O  O2  1  0.96586817  0.17535888  0.30762034  1
  O  O3  1  0.20949071  0.17535888  0.80762034  1
  O  O4  1  0.96586817  0.79050929  0.80762034  1
  O  O5  1  0.82464112  0.03413183  0.80762034  1
  O  O6  1  0.79050929  0.96586817  0.69237966  1
  O  O7  1  0.17535888  0.20949071  0.69237966  1
  O  O8  1  0.03413183  0.82464112  0.69237966  1
  O  O9  1  0.79050929  0.82464112  0.19237966  1
  O  O10  1  0.03413183  0.20949071  0.19237966  1
  O  O11  1  0.17535888  0.96586817  0.19237966  1
  O  O12  1  0.87615771  0.36746483  0.64095334  1
  O  O13  1  0.49130812  0.12384229  0.64095334  1
  O  O14  1  0.63253517  0.50869188  0.64095334  1
  O  O15  1  0.87615771  0.50869188  0.14095334  1
  O  O16  1  0.63253517  0.12384229  0.14095334  1
  O  O17  1  0.49130812  0.36746483  0.14095334  1
  O  O18  1  0.45717629  0.29920117  0.02571266  1
  O  O19  1  0.84202588  0.54282371  0.02571266  1
  O  O20  1  0.70079883  0.15797412  0.02571266  1
  O  O21  1  0.45717629  0.15797412  0.52571266  1
  O  O22  1  0.70079883  0.54282371  0.52571266  1
  O  O23  1  0.84202588  0.29920117  0.52571266  1
  O  O24  1  0.54282371  0.70079883  0.97428734  1
  O  O25  1  0.15797412  0.45717629  0.97428734  1
  O  O26  1  0.29920117  0.84202588  0.97428734  1
  O  O27  1  0.54282371  0.84202588  0.47428734  1
  O  O28  1  0.29920117  0.45717629  0.47428734  1
  O  O29  1  0.15797412  0.70079883  0.47428734  1
  O  O30  1  0.12384229  0.63253517  0.35904666  1
  O  O31  1  0.50869188  0.87615771  0.35904666  1
  O  O32  1  0.36746483  0.49130812  0.35904666  1
  O  O33  1  0.12384229  0.49130812  0.85904666  1
  O  O34  1  0.36746483  0.87615771  0.85904666  1
  O  O35  1  0.50869188  0.63253517  0.85904666  1
  O  O36  1  0.01608081  0.83198569  0.41112630  1
  O  O37  1  0.81590489  0.98391919  0.41112630  1
  O  O38  1  0.16801431  0.18409511  0.41112630  1
  O  O39  1  0.01608081  0.18409511  0.91112630  1
  O  O40  1  0.16801431  0.98391919  0.91112630  1
  O  O41  1  0.81590489  0.83198569  0.91112630  1
  O  O42  1  0.98391919  0.16801431  0.58887370  1
  O  O43  1  0.18409511  0.01608081  0.58887370  1
  O  O44  1  0.83198569  0.81590489  0.58887370  1
  O  O45  1  0.98391919  0.81590489  0.08887370  1
  O  O46  1  0.83198569  0.01608081  0.08887370  1
  O  O47  1  0.18409511  0.16801431  0.08887370  1
  O  O48  1  0.68274781  0.16531869  0.74445930  1
  O  O49  1  0.48257189  0.31725219  0.74445930  1
  O  O50  1  0.83468131  0.51742811  0.74445930  1
  O  O51  1  0.68274781  0.51742811  0.24445930  1
  O  O52  1  0.83468131  0.31725219  0.24445930  1
  O  O53  1  0.48257189  0.16531869  0.24445930  1
  O  O54  1  0.65058619  0.50134731  0.92220670  1
  O  O55  1  0.85076211  0.34941381  0.92220670  1
  O  O56  1  0.49865269  0.14923789  0.92220670  1
  O  O57  1  0.65058619  0.14923789  0.42220670  1
  O  O58  1  0.49865269  0.34941381  0.42220670  1
  O  O59  1  0.85076211  0.50134731  0.42220670  1
  O  O60  1  0.34941381  0.49865269  0.07779330  1
  O  O61  1  0.14923789  0.65058619  0.07779330  1
  O  O62  1  0.50134731  0.85076211  0.07779330  1
  O  O63  1  0.34941381  0.85076211  0.57779330  1
  O  O64  1  0.50134731  0.65058619  0.57779330  1
  O  O65  1  0.14923789  0.49865269  0.57779330  1
  O  O66  1  0.31725219  0.83468131  0.25554070  1
  O  O67  1  0.51742811  0.68274781  0.25554070  1
  O  O68  1  0.16531869  0.48257189  0.25554070  1
  O  O69  1  0.31725219  0.48257189  0.75554070  1
  O  O70  1  0.16531869  0.68274781  0.75554070  1
  O  O71  1  0.51742811  0.83468131  0.75554070  1
loop_
_geom_bond_atom_site_label_1
_geom_bond_atom_site_label_2
_geom_bond_distance
_geom_bond_site_symmetry_2
K0 O67 2.587888 1_545
K0 O52 2.587889 1_555
K0 O53 2.688600 1_555
K0 O66 2.688608 1_545
K0 O16 2.762542 1_555
K0 O31 2.762545 1_545
K0 O9 2.888577 1_545
K0 O2 2.888577 1_555
K1 O53 2.587897 1_555
K1 O68 2.587897 1_555
K1 O67 2.688608 1_555
K1 O51 2.688608 1_555
K1 O32 2.762546 1_555
K1 O17 2.762546 1_555
K1 O0 2.888577 1_555
K1 O10 2.888577 1_555
K2 O51 2.587888 1_555
K2 O66 2.587889 1_655
K2 O68 2.688600 1_655
K2 O52 2.688608 1_555
K2 O30 2.762542 1_655
K2 O15 2.762545 1_555
K2 O11 2.888577 1_655
K2 O1 2.888577 1_555
K3 O71 2.587897 1_555
K3 O50 2.587897 1_555
K3 O49 2.688608 1_555
K3 O69 2.688608 1_555
K3 O14 2.762546 1_555
K3 O35 2.762546 1_555
K3 O6 2.888577 1_555
K3 O4 2.888577 1_555
K4 O69 2.587888 1_555
K4 O48 2.587889 1_455
K4 O50 2.688600 1_455
K4 O70 2.688608 1_555
K4 O12 2.762542 1_455
K4 O33 2.762545 1_555
K4 O5 2.888577 1_455
K4 O7 2.888577 1_555
K5 O49 2.587888 1_555
K5 O70 2.587889 1_545
K5 O71 2.688600 1_545
K5 O48 2.688608 1_555
K5 O34 2.762542 1_545
K5 O13 2.762545 1_555
K5 O3 2.888577 1_555
K5 O8 2.888577 1_545
K6 O43 2.587888 1_555
K6 O64 2.587895 1_555
K6 O42 2.688608 1_455
K6 O65 2.688615 1_555
K6 O28 2.762529 1_555
K6 O7 2.762545 1_555
K6 O21 2.888577 1_555
K6 O14 2.888577 1_555
K7 O65 2.587880 1_555
K7 O44 2.587897 1_455
K7 O63 2.688599 1_555
K7 O43 2.688608 1_565
K7 O29 2.762520 1_555
K7 O8 2.762546 1_555
K7 O12 2.888577 1_455
K7 O22 2.888577 1_455
K8 O42 2.587889 1_565
K8 O63 2.587897 1_555
K8 O64 2.688599 1_555
K8 O44 2.688600 1_555
K8 O27 2.762524 1_555
K8 O6 2.762542 1_555
K8 O23 2.888577 1_565
K8 O13 2.888577 1_565
K9 O62 2.587880 1_555
K9 O47 2.587897 1_565
K9 O61 2.688599 1_555
K9 O45 2.688608 1_455
K9 O26 2.762520 1_554
K9 O11 2.762546 1_555
K9 O18 2.888577 1_565
K9 O16 2.888577 1_565
K10 O45 2.587888 1_555
K10 O60 2.587895 1_555
K10 O46 2.688608 1_565
K10 O62 2.688615 1_555
K10 O24 2.762529 1_554
K10 O9 2.762545 1_555
K10 O17 2.888577 1_555
K10 O19 2.888577 1_555
K11 O46 2.587889 1_455
K11 O61 2.587897 1_555
K11 O60 2.688599 1_555
K11 O47 2.688600 1_555
K11 O25 2.762524 1_554
K11 O10 2.762542 1_555
K11 O15 2.888577 1_455
K11 O20 2.888577 1_455
K12 O40 2.587889 1_655
K12 O55 2.587897 1_555
K12 O54 2.688599 1_555
K12 O41 2.688600 1_555
K12 O19 2.762524 1_556
K12 O4 2.762542 1_555
K12 O33 2.888577 1_655
K12 O26 2.888577 1_655
K13 O56 2.587880 1_555
K13 O41 2.587897 1_545
K13 O55 2.688599 1_555
K13 O39 2.688608 1_655
K13 O20 2.762520 1_556
K13 O5 2.762546 1_555
K13 O24 2.888577 1_545
K13 O34 2.888577 1_545
K14 O39 2.587888 1_555
K14 O54 2.587895 1_555
K14 O40 2.688608 1_545
K14 O56 2.688615 1_555
K14 O18 2.762529 1_556
K14 O3 2.762545 1_555
K14 O35 2.888577 1_555
K14 O25 2.888577 1_555
K15 O59 2.587880 1_555
K15 O38 2.587897 1_655
K15 O57 2.688599 1_555
K15 O37 2.688608 1_545
K15 O23 2.762520 1_555
K15 O2 2.762546 1_555
K15 O30 2.888577 1_655
K15 O28 2.888577 1_655
K16 O36 2.587889 1_545
K16 O57 2.587897 1_555
K16 O58 2.688599 1_555
K16 O38 2.688600 1_555
K16 O21 2.762524 1_555
K16 O0 2.762542 1_555
K16 O29 2.888577 1_545
K16 O31 2.888577 1_545
K17 O37 2.587888 1_555
K17 O58 2.587895 1_555
K17 O36 2.688608 1_655
K17 O59 2.688615 1_555
K17 O22 2.762529 1_555
K17 O1 2.762545 1_555
K17 O27 2.888577 1_555
K17 O32 2.888577 1_555
Na0 O38 2.603737 1_555
Na0 O44 2.603737 1_445
Na0 O37 2.603737 1_445
Na0 O43 2.603737 1_555
Na0 O36 2.603737 1_545
Na0 O42 2.603737 1_455
Na1 O45 2.603737 1_445
Na1 O39 2.603737 1_554
Na1 O47 2.603737 1_555
Na1 O41 2.603737 1_444
Na1 O46 2.603737 1_455
Na1 O40 2.603737 1_544
Na2 O50 2.603737 1_555
Na2 O56 2.603737 1_555
Na2 O49 2.603737 1_555
Na2 O55 2.603737 1_555
Na2 O48 2.603737 1_555
Na2 O54 2.603737 1_555
Na3 O57 2.603737 1_555
Na3 O51 2.603737 1_555
Na3 O53 2.603737 1_555
Na3 O59 2.603737 1_555
Na3 O58 2.603737 1_555
Na3 O52 2.603737 1_555
Na4 O68 2.603737 1_555
Na4 O62 2.603737 1_555
Na4 O61 2.603737 1_555
Na4 O67 2.603737 1_555
Na4 O66 2.603737 1_555
Na4 O60 2.603737 1_555
Na5 O69 2.603737 1_555
Na5 O63 2.603737 1_555
Na5 O71 2.603737 1_555
Na5 O65 2.603737 1_555
Na5 O70 2.603737 1_555
Na5 O64 2.603737 1_555
O0 Si0 1.648233 1_555
O0 Sn0 2.069776 1_555
O1 Si1 1.648233 1_555
O1 Sn0 2.069776 1_665
O2 Si2 1.648233 1_655
O2 Sn0 2.069776 1_655
O3 Si3 1.648233 1_555
O3 Sn1 2.069776 1_555
O4 Si4 1.648233 1_555
O4 Sn1 2.069776 1_665
O5 Si5 1.648233 1_555
O5 Sn1 2.069776 1_655
O6 Si5 1.648233 1_565
O6 Sn2 2.069776 1_665
O7 Si3 1.648233 1_555
O7 Sn2 2.069776 1_555
O8 Si4 1.648233 1_455
O8 Sn2 2.069776 1_565
O9 Si1 1.648233 1_555
O9 Sn3 2.069776 1_665
O10 Si2 1.648233 1_555
O10 Sn3 2.069776 1_555
O11 Si0 1.648233 1_565
O11 Sn3 2.069776 1_565
O12 Si6 1.648233 1_555
O12 Sn4 2.069776 1_555
O13 Si7 1.648233 1_555
O13 Sn4 2.069776 1_555
O14 Si8 1.648233 1_555
O14 Sn4 2.069776 1_555
O15 Si9 1.648233 1_555
O15 Sn5 2.069776 1_555
O16 Si10 1.648233 1_555
O16 Sn5 2.069776 1_555
O17 Si11 1.648233 1_555
O17 Sn5 2.069776 1_555
O18 Si11 1.648233 1_555
O18 Sn6 2.069776 1_554
O19 Si9 1.648233 1_555
O19 Sn6 2.069776 1_554
O20 Si10 1.648233 1_555
O20 Sn6 2.069776 1_554
O21 Si7 1.648233 1_555
O21 Sn7 2.069776 1_555
O22 Si8 1.648233 1_555
O22 Sn7 2.069776 1_555
O23 Si6 1.648233 1_555
O23 Sn7 2.069776 1_555
O24 Si12 1.648233 1_555
O24 Sn8 2.069776 1_556
O25 Si13 1.648233 1_555
O25 Sn8 2.069776 1_556
O26 Si14 1.648233 1_555
O26 Sn8 2.069776 1_556
O27 Si15 1.648233 1_555
O27 Sn9 2.069776 1_555
O28 Si16 1.648233 1_555
O28 Sn9 2.069776 1_555
O29 Si17 1.648233 1_555
O29 Sn9 2.069776 1_555
O30 Si17 1.648233 1_555
O30 Sn10 2.069776 1_555
O31 Si15 1.648233 1_555
O31 Sn10 2.069776 1_555
O32 Si16 1.648233 1_555
O32 Sn10 2.069776 1_555
O33 Si13 1.648233 1_555
O33 Sn11 2.069776 1_555
O34 Si14 1.648233 1_555
O34 Sn11 2.069776 1_555
O35 Si12 1.648233 1_555
O35 Sn11 2.069776 1_555
O36 Si17 1.661031 1_555
O36 Sn0 2.141745 1_565
O37 Si15 1.661040 1_555
O37 Sn0 2.141745 1_665
O38 Si16 1.661036 1_555
O38 Sn0 2.141745 1_555
O39 Si13 1.661040 1_555
O39 Sn1 2.141745 1_555
O40 Si14 1.661031 1_555
O40 Sn1 2.141745 1_565
O41 Si12 1.661036 1_555
O41 Sn1 2.141745 1_665
O42 Si6 1.661031 1_555
O42 Sn2 2.141745 1_655
O43 Si7 1.661040 1_555
O43 Sn2 2.141745 1_555
O44 Si8 1.661036 1_555
O44 Sn2 2.141745 1_665
O45 Si9 1.661040 1_555
O45 Sn3 2.141745 1_665
O46 Si10 1.661031 1_555
O46 Sn3 2.141745 1_655
O47 Si11 1.661036 1_555
O47 Sn3 2.141745 1_555
O48 Si5 1.661031 1_555
O48 Sn4 2.141745 1_555
O49 Si3 1.661040 1_555
O49 Sn4 2.141745 1_555
O50 Si4 1.661036 1_555
O50 Sn4 2.141745 1_555
O51 Si1 1.661040 1_555
O51 Sn5 2.141745 1_555
O52 Si2 1.661031 1_655
O52 Sn5 2.141745 1_555
O53 Si0 1.661036 1_555
O53 Sn5 2.141745 1_555
O54 Si12 1.661044 1_555
O54 Sn6 2.141745 1_555
O55 Si13 1.661025 1_655
O55 Sn6 2.141745 1_555
O56 Si14 1.661033 1_545
O56 Sn6 2.141745 1_555
O57 Si15 1.661025 1_545
O57 Sn7 2.141745 1_555
O58 Si16 1.661044 1_555
O58 Sn7 2.141745 1_555
O59 Si17 1.661033 1_655
O59 Sn7 2.141745 1_555
O60 Si11 1.661044 1_555
O60 Sn8 2.141745 1_555
O61 Si9 1.661025 1_455
O61 Sn8 2.141745 1_555
O62 Si10 1.661033 1_565
O62 Sn8 2.141745 1_555
O63 Si7 1.661025 1_565
O63 Sn9 2.141745 1_555
O64 Si8 1.661044 1_555
O64 Sn9 2.141745 1_555
O65 Si6 1.661033 1_455
O65 Sn9 2.141745 1_555
O66 Si0 1.661031 1_565
O66 Sn10 2.141745 1_555
O67 Si1 1.661040 1_555
O67 Sn10 2.141745 1_555
O68 Si2 1.661036 1_555
O68 Sn10 2.141745 1_555
O69 Si3 1.661040 1_555
O69 Sn11 2.141745 1_555
O70 Si4 1.661031 1_455
O70 Sn11 2.141745 1_555
O71 Si5 1.661036 1_565
O71 Sn11 2.141745 1_555
