# generated using pymatgen
data_Cd(InSe2)2
_symmetry_space_group_name_H-M   'P 1'
_cell_length_a   8.18582590
_cell_length_b   8.18582590
_cell_length_c   8.18582590
_cell_angle_alpha   60.00000000
_cell_angle_beta   60.00000000
_cell_angle_gamma   60.00000000
_symmetry_Int_Tables_number   1
_chemical_formula_structural   Cd(InSe2)2
_chemical_formula_sum   'Cd2 In4 Se8'
_cell_volume   387.85778440
_cell_formula_units_Z   2
loop_
 _symmetry_equiv_pos_site_id
 _symmetry_equiv_pos_as_xyz
  1  'x, y, z'
loop_
 _atom_site_type_symbol
 _atom_site_label
 _atom_site_symmetry_multiplicity
 _atom_site_fract_x
 _atom_site_fract_y
 _atom_site_fract_z
 _atom_site_occupancy
  Cd  Cd0  1  0.50000000  0.50000000  0.50000000  1
  Cd  Cd1  1  0.75000000  0.75000000  0.75000000  1
  In  In0  1  0.62500000  0.12500000  0.12500000  1
  In  In1  1  0.12500000  0.12500000  0.12500000  1
  In  In2  1  0.12500000  0.62500000  0.12500000  1
  In  In3  1  0.12500000  0.12500000  0.62500000  1
  Se  Se0  1  0.36548000  0.36548000  0.36548000  1
  Se  Se1  1  0.34644100  0.88452000  0.88452000  1
  Se  Se2  1  0.88452000  0.88452000  0.34644100  1
  Se  Se3  1  0.88452000  0.34644100  0.88452000  1
  Se  Se4  1  0.36548000  0.36548000  0.90355900  1
  Se  Se5  1  0.36548000  0.90355900  0.36548000  1
  Se  Se6  1  0.88452000  0.88452000  0.88452000  1
  Se  Se7  1  0.90355900  0.36548000  0.36548000  1
loop_
_geom_bond_atom_site_label_1
_geom_bond_atom_site_label_2
_geom_bond_distance
_geom_bond_site_symmetry_2
Cd0 Se5 2.697267 1_555
Cd0 Se7 2.697267 1_555
Cd0 Se4 2.697267 1_555
Cd0 Se0 2.697274 1_555
Cd1 Se3 2.697267 1_555
Cd1 Se2 2.697267 1_555
Cd1 Se1 2.697267 1_555
Cd1 Se6 2.697274 1_555
In0 Se6 2.788278 1_544
In0 Se0 2.788278 1_555
In0 Se5 2.788283 1_545
In0 Se4 2.788283 1_554
In0 Se3 2.788283 1_554
In0 Se2 2.788283 1_545
In1 Se3 2.788277 1_454
In1 Se2 2.788277 1_445
In1 Se1 2.788277 1_544
In1 Se7 2.788277 1_455
In1 Se4 2.788277 1_554
In1 Se5 2.788277 1_545
In2 Se6 2.788278 1_454
In2 Se0 2.788278 1_555
In2 Se4 2.788283 1_554
In2 Se7 2.788283 1_455
In2 Se1 2.788283 1_554
In2 Se2 2.788283 1_455
In3 Se6 2.788278 1_445
In3 Se0 2.788278 1_555
In3 Se7 2.788283 1_455
In3 Se5 2.788283 1_545
In3 Se1 2.788283 1_545
In3 Se3 2.788283 1_455
