# generated using pymatgen
data_MgCo4(NiO6)2
_symmetry_space_group_name_H-M   'P 1'
_cell_length_a   4.88937675
_cell_length_b   4.88537094
_cell_length_c   9.81752080
_cell_angle_alpha   82.64342624
_cell_angle_beta   85.11292409
_cell_angle_gamma   60.65776534
_symmetry_Int_Tables_number   1
_chemical_formula_structural   MgCo4(NiO6)2
_chemical_formula_sum   'Mg1 Co4 Ni2 O12'
_cell_volume   202.66927842
_cell_formula_units_Z   1
loop_
 _symmetry_equiv_pos_site_id
 _symmetry_equiv_pos_as_xyz
  1  'x, y, z'
loop_
 _atom_site_type_symbol
 _atom_site_label
 _atom_site_symmetry_multiplicity
 _atom_site_fract_x
 _atom_site_fract_y
 _atom_site_fract_z
 _atom_site_occupancy
  Mg  Mg0  1  0.68375495  0.23741562  0.24968968  1
  Co  Co0  1  0.35104531  0.31359508  0.99473588  1
  Co  Co1  1  0.33312730  0.84839316  0.50126278  1
  Co  Co2  1  0.66555624  0.17894863  0.51347657  1
  Co  Co3  1  0.68181304  0.64408125  0.99485040  1
  Ni  Ni0  1  0.01909972  0.97616113  0.99471128  1
  Ni  Ni1  1  0.99978604  0.51575947  0.49830355  1
  O  O0  1  0.00709738  0.15898182  0.59956198  1
  O  O1  1  0.00021573  0.28792495  0.09910844  1
  O  O2  1  0.02610243  0.66069109  0.90115473  1
  O  O3  1  0.36248407  0.99650305  0.90112766  1
  O  O4  1  0.99291432  0.88410208  0.40055993  1
  O  O5  1  0.34815683  0.20571230  0.40076573  1
  O  O6  1  0.31471895  0.50453697  0.59899431  1
  O  O7  1  0.37512426  0.58685590  0.10782063  1
  O  O8  1  0.67649403  0.96429999  0.09924680  1
  O  O9  1  0.66106473  0.36347948  0.89437900  1
  O  O10  1  0.67270467  0.52792396  0.40085423  1
  O  O11  1  0.66207299  0.81130106  0.59939642  1
loop_
_geom_bond_atom_site_label_1
_geom_bond_atom_site_label_2
_geom_bond_distance
_geom_bond_site_symmetry_2
Mg0 O7 2.087068 1_555
Mg0 O8 2.126740 1_545
Mg0 O1 2.128736 1_655
Mg0 O4 2.151233 1_545
Mg0 O10 2.161058 1_555
Mg0 O5 2.166071 1_555
Co0 O9 1.836808 1_555
Co0 O2 1.858241 1_555
Co0 O3 1.875725 1_545
Co0 O7 1.893267 1_556
Co0 O8 1.914511 1_546
Co0 O1 1.971425 1_556
Co1 O6 1.863158 1_555
Co1 O11 1.865868 1_555
Co1 O0 1.875398 1_565
Co1 O5 1.923121 1_565
Co1 O4 1.930416 1_455
Co1 O10 1.936062 1_555
Co2 O0 1.890011 1_655
Co2 O11 1.891380 1_545
Co2 O6 1.897365 1_555
Co2 O10 1.923385 1_555
Co2 O5 1.925241 1_555
Co2 O4 1.926832 1_545
Co3 O9 1.833594 1_555
Co3 O3 1.858281 1_555
Co3 O2 1.880785 1_655
Co3 O7 1.898649 1_556
Co3 O1 1.912962 1_656
Co3 O8 1.965864 1_556
Ni0 O2 1.877631 1_555
Ni0 O3 1.884180 1_555
Ni0 O1 1.903834 1_566
Ni0 O8 1.910405 1_456
Ni0 O9 2.045801 1_465
Ni0 O7 2.103412 1_556
Ni1 O6 1.874568 1_655
Ni1 O0 1.878512 1_655
Ni1 O11 1.883452 1_555
Ni1 O10 1.905080 1_555
Ni1 O4 1.914198 1_555
Ni1 O5 1.917693 1_655
