# generated using pymatgen
data_NdMgCu(WO4)2
_symmetry_space_group_name_H-M   'P 1'
_cell_length_a   5.31991260
_cell_length_b   6.00797468
_cell_length_c   6.51497449
_cell_angle_alpha   104.16316221
_cell_angle_beta   92.60874556
_cell_angle_gamma   112.98295067
_symmetry_Int_Tables_number   1
_chemical_formula_structural   NdMgCu(WO4)2
_chemical_formula_sum   'Nd1 Mg1 Cu1 W2 O8'
_cell_volume   183.53929652
_cell_formula_units_Z   1
loop_
 _symmetry_equiv_pos_site_id
 _symmetry_equiv_pos_as_xyz
  1  'x, y, z'
loop_
 _atom_site_type_symbol
 _atom_site_label
 _atom_site_symmetry_multiplicity
 _atom_site_fract_x
 _atom_site_fract_y
 _atom_site_fract_z
 _atom_site_occupancy
  Nd  Nd0  1  0.37125500  0.89863000  0.27472900  1
  Mg  Mg0  1  0.37072800  0.89838800  0.77487100  1
  Cu  Cu0  1  0.87065300  0.89827200  0.77431800  1
  W  W0  1  0.09302700  0.36456600  0.61332300  1
  W  W1  1  0.64918100  0.43224300  0.93573300  1
  O  O0  1  0.86315800  0.14043500  0.37307800  1
  O  O1  1  0.33877400  0.64505800  0.50478400  1
  O  O2  1  0.82947000  0.19299200  0.81820600  1
  O  O3  1  0.38363400  0.60955100  0.92173700  1
  O  O4  1  0.40380400  0.15222500  0.04483300  1
  O  O5  1  0.87978000  0.65656100  0.17586800  1
  O  O6  1  0.35862500  0.18749500  0.62766400  1
  O  O7  1  0.91275900  0.60401500  0.73079900  1
loop_
_geom_bond_atom_site_label_1
_geom_bond_atom_site_label_2
_geom_bond_distance
_geom_bond_site_symmetry_2
Nd0 O4 2.351370 1_565
Nd0 O1 2.352145 1_555
Nd0 O5 2.405194 1_455
Nd0 O0 2.406691 1_565
Nd0 O6 2.540828 1_565
Nd0 O3 2.541263 1_554
Mg0 O4 1.974780 1_566
Mg0 O1 1.975284 1_555
Mg0 O3 2.197999 1_555
Mg0 O6 2.199505 1_565
Mg0 O7 2.338609 1_455
Mg0 O2 2.342632 1_565
Cu0 O7 1.823659 1_555
Cu0 O2 1.823709 1_565
O0 W0 1.807468 1_655
O1 W0 1.998978 1_555
O2 W1 2.043822 1_555
O2 W0 2.127256 1_655
O3 W1 2.085611 1_555
O3 W0 2.255395 1_555
O4 W1 1.998546 1_554
O5 W1 1.808650 1_554
O6 W0 2.085040 1_555
O6 W1 2.253479 1_555
O7 W0 2.044609 1_655
O7 W1 2.128023 1_555
