# generated using pymatgen
data_LiH6ClO7
_symmetry_space_group_name_H-M   'P 1'
_cell_length_a   7.72899474
_cell_length_b   7.72899474
_cell_length_c   5.60790800
_cell_angle_alpha   90.00000000
_cell_angle_beta   90.00000000
_cell_angle_gamma   120.00000630
_symmetry_Int_Tables_number   1
_chemical_formula_structural   LiH6ClO7
_chemical_formula_sum   'Li2 H12 Cl2 O14'
_cell_volume   290.11989220
_cell_formula_units_Z   2
loop_
 _symmetry_equiv_pos_site_id
 _symmetry_equiv_pos_as_xyz
  1  'x, y, z'
loop_
 _atom_site_type_symbol
 _atom_site_label
 _atom_site_symmetry_multiplicity
 _atom_site_fract_x
 _atom_site_fract_y
 _atom_site_fract_z
 _atom_site_occupancy
  Li  Li0  1  0.00000000  0.00000000  0.77805100  1
  Li  Li1  1  0.00000000  0.00000000  0.27805100  1
  H  H0  1  0.06442500  0.33111200  0.03508800  1
  H  H1  1  0.93557500  0.26668700  0.53508800  1
  H  H2  1  0.66888800  0.73331300  0.03508800  1
  H  H3  1  0.26668700  0.93557500  0.03508800  1
  H  H4  1  0.73331300  0.06442500  0.53508800  1
  H  H5  1  0.93557500  0.66888800  0.53508800  1
  H  H6  1  0.33111200  0.26668700  0.53508800  1
  H  H7  1  0.06442500  0.73331300  0.03508800  1
  H  H8  1  0.33111200  0.06442500  0.53508800  1
  H  H9  1  0.73331300  0.66888800  0.53508800  1
  H  H10  1  0.26668700  0.33111200  0.03508800  1
  H  H11  1  0.66888800  0.93557500  0.03508800  1
  Cl  Cl0  1  0.66666700  0.33333300  0.99702300  1
  Cl  Cl1  1  0.33333300  0.66666700  0.49702300  1
  O  O0  1  0.12154700  0.24309400  0.02814600  1
  O  O1  1  0.43634100  0.87268300  0.58688700  1
  O  O2  1  0.24309400  0.12154700  0.52814600  1
  O  O3  1  0.12154700  0.87845300  0.02814600  1
  O  O4  1  0.87845300  0.12154700  0.52814600  1
  O  O5  1  0.43634100  0.56365900  0.58688700  1
  O  O6  1  0.87268300  0.43634100  0.08688700  1
  O  O7  1  0.56365900  0.12731700  0.08688700  1
  O  O8  1  0.87845300  0.75690600  0.52814600  1
  O  O9  1  0.12731700  0.56365900  0.58688700  1
  O  O10  1  0.56365900  0.43634100  0.08688700  1
  O  O11  1  0.33333300  0.66666700  0.23770100  1
  O  O12  1  0.66666700  0.33333300  0.73770100  1
  O  O13  1  0.75690600  0.87845300  0.02814600  1
loop_
_geom_bond_atom_site_label_1
_geom_bond_atom_site_label_2
_geom_bond_distance
_geom_bond_site_symmetry_2
Li0 O2 2.147479 1_555
Li0 O8 2.147479 1_445
Li0 O4 2.147479 1_455
Li0 O0 2.148175 1_556
Li0 O13 2.148175 1_446
Li0 O3 2.148175 1_546
Li1 O0 2.147479 1_555
Li1 O13 2.147479 1_445
Li1 O3 2.147479 1_545
Li1 O2 2.148175 1_555
Li1 O8 2.148175 1_445
Li1 O4 2.148175 1_455
H0 O0 0.979579 1_555
H1 O4 0.979579 1_555
H2 O13 0.979579 1_555
H3 O3 0.979579 1_555
H4 O4 0.979579 1_555
H5 O8 0.979579 1_555
H6 O2 0.979579 1_555
H7 O3 0.979579 1_555
H8 O2 0.979579 1_555
H9 O8 0.979579 1_555
H10 O0 0.979579 1_555
H11 O13 0.979579 1_555
Cl0 O12 1.454254 1_555
Cl0 O6 1.468169 1_556
Cl0 O7 1.468169 1_556
Cl0 O10 1.468169 1_556
Cl1 O11 1.454254 1_555
Cl1 O1 1.468169 1_555
Cl1 O9 1.468169 1_555
Cl1 O5 1.468169 1_555
