# generated using pymatgen
data_Na5NbAl3SiP5O24
_symmetry_space_group_name_H-M   'P 1'
_cell_length_a   8.64184470
_cell_length_b   8.65591421
_cell_length_c   21.78367878
_cell_angle_alpha   90.07315635
_cell_angle_beta   90.06364628
_cell_angle_gamma   119.85742696
_symmetry_Int_Tables_number   1
_chemical_formula_structural   Na5NbAl3SiP5O24
_chemical_formula_sum   'Na15 Nb3 Al9 Si3 P15 O72'
_cell_volume   1413.19523641
_cell_formula_units_Z   3
loop_
 _symmetry_equiv_pos_site_id
 _symmetry_equiv_pos_as_xyz
  1  'x, y, z'
loop_
 _atom_site_type_symbol
 _atom_site_label
 _atom_site_symmetry_multiplicity
 _atom_site_fract_x
 _atom_site_fract_y
 _atom_site_fract_z
 _atom_site_occupancy
  Na  Na0  1  0.63486208  0.99938539  0.25132560  1
  Na  Na1  1  0.36527193  0.36555681  0.25065745  1
  Na  Na2  1  0.00057316  0.63454377  0.25091995  1
  Na  Na3  1  0.30466759  0.33641905  0.58655779  1
  Na  Na4  1  0.03037043  0.70047136  0.58513554  1
  Na  Na5  1  0.66750887  0.96633757  0.58501069  1
  Na  Na6  1  0.30003933  0.96582594  0.08196322  1
  Na  Na7  1  0.97168559  0.66885115  0.91347967  1
  Na  Na8  1  0.70037033  0.02789442  0.91162333  1
  Na  Na9  1  0.99757264  0.99790070  0.49639183  1
  Na  Na10  1  0.00422555  0.01183980  0.99900750  1
  Na  Na11  1  0.65751904  0.33093398  0.82529625  1
  Na  Na12  1  0.66704361  0.33223843  0.33346610  1
  Na  Na13  1  0.33403159  0.65805652  0.16330467  1
  Na  Na14  1  0.33680075  0.66621325  0.66643254  1
  Nb  Nb0  1  0.66471801  0.33076789  0.97976624  1
  Nb  Nb1  1  0.66907578  0.34048246  0.47650291  1
  Nb  Nb2  1  0.32922508  0.66681959  0.80776284  1
  Al  Al0  1  0.99860514  0.99935291  0.35415147  1
  Al  Al1  1  0.01006674  0.00936420  0.85137714  1
  Al  Al2  1  0.99746985  0.99803268  0.64941935  1
  Al  Al3  1  0.99588380  0.00046467  0.14786526  1
  Al  Al4  1  0.66391784  0.33536564  0.68862867  1
  Al  Al5  1  0.66728124  0.33517637  0.18391646  1
  Al  Al6  1  0.32915097  0.66033102  0.01994621  1
  Al  Al7  1  0.33801881  0.66699795  0.51670572  1
  Al  Al8  1  0.33432066  0.66708072  0.31602956  1
  Si  Si0  1  0.66544218  0.62882421  0.58812494  1
  Si  Si1  1  0.05673119  0.37239977  0.91890567  1
  Si  Si2  1  0.32212153  0.95025858  0.91891409  1
  P  P0  1  0.28665976  0.00023123  0.25000916  1
  P  P1  1  0.71425518  0.71406186  0.25024969  1
  P  P2  1  0.99971374  0.28554791  0.25021093  1
  P  P3  1  0.28799469  0.27641415  0.74762003  1
  P  P4  1  0.98739222  0.71229609  0.74867755  1
  P  P5  1  0.72180954  0.01102454  0.74844578  1
  P  P6  1  0.95828491  0.33491849  0.58614724  1
  P  P7  1  0.37685540  0.04219730  0.58590397  1
  P  P8  1  0.96094644  0.62888955  0.08771780  1
  P  P9  1  0.67022926  0.03679529  0.08733243  1
  P  P10  1  0.37080802  0.33781651  0.08789429  1
  P  P11  1  0.61799973  0.67021421  0.91816780  1
  P  P12  1  0.62308916  0.94663507  0.41481714  1
  P  P13  1  0.32037912  0.37613725  0.41463205  1
  P  P14  1  0.05732015  0.67813941  0.41508277  1
  O  O0  1  0.20140934  0.03789762  0.30532382  1
  O  O1  1  0.83548285  0.79614622  0.30633843  1
  O  O2  1  0.96047934  0.16484267  0.30626371  1
  O  O3  1  0.19987293  0.16871128  0.80505197  1
  O  O4  1  0.96827214  0.79746722  0.80767881  1
  O  O5  1  0.82620564  0.02855261  0.80751656  1
  O  O6  1  0.80215780  0.97746591  0.69060071  1
  O  O7  1  0.17475299  0.19905057  0.68924967  1
  O  O8  1  0.02464264  0.82678434  0.69104126  1
  O  O9  1  0.79587733  0.83445518  0.19398057  1
  O  O10  1  0.03879193  0.20366132  0.19388604  1
  O  O11  1  0.17061048  0.96323362  0.19185549  1
  O  O12  1  0.86993463  0.37091333  0.64037369  1
  O  O13  1  0.50343122  0.12543503  0.64010466  1
  O  O14  1  0.62250383  0.48713429  0.64162627  1
  O  O15  1  0.86793145  0.50809548  0.14324222  1
  O  O16  1  0.63321812  0.12862350  0.14213007  1
  O  O17  1  0.48943982  0.36234627  0.14440458  1
  O  O18  1  0.46046836  0.29998951  0.03097597  1
  O  O19  1  0.84536370  0.54356693  0.02872966  1
  O  O20  1  0.69824869  0.15447771  0.02841227  1
  O  O21  1  0.46130405  0.16302627  0.52774116  1
  O  O22  1  0.70582939  0.53585103  0.52615354  1
  O  O23  1  0.83629858  0.29378868  0.52764477  1
  O  O24  1  0.53593009  0.70529281  0.97443771  1
  O  O25  1  0.17163160  0.46703188  0.97815076  1
  O  O26  1  0.29728996  0.83457543  0.97993307  1
  O  O27  1  0.53682960  0.83981543  0.47356488  1
  O  O28  1  0.30065160  0.46203801  0.47363444  1
  O  O29  1  0.16233234  0.69635757  0.47418197  1
  O  O30  1  0.13659084  0.64249124  0.35724348  1
  O  O31  1  0.50715612  0.86539540  0.35705945  1
  O  O32  1  0.35828767  0.49245110  0.35713657  1
  O  O33  1  0.13253562  0.50481204  0.85860433  1
  O  O34  1  0.37712676  0.86881693  0.85963507  1
  O  O35  1  0.50331658  0.63026706  0.85989389  1
  O  O36  1  0.03032966  0.83905470  0.40878869  1
  O  O37  1  0.80980402  0.96936012  0.40836901  1
  O  O38  1  0.15927589  0.18913306  0.40811003  1
  O  O39  1  0.01039268  0.17100454  0.90885674  1
  O  O40  1  0.14756389  0.96596264  0.90854922  1
  O  O41  1  0.80559573  0.83049477  0.91009768  1
  O  O42  1  0.98154411  0.16984840  0.59120718  1
  O  O43  1  0.19150834  0.02641596  0.59130067  1
  O  O44  1  0.84406552  0.82422695  0.59145048  1
  O  O45  1  0.98056016  0.81567579  0.09297989  1
  O  O46  1  0.83932127  0.02513913  0.09298349  1
  O  O47  1  0.18965845  0.16409935  0.09284983  1
  O  O48  1  0.69673190  0.17378533  0.74221753  1
  O  O49  1  0.47504717  0.29900400  0.74271230  1
  O  O50  1  0.82791104  0.52322878  0.74313770  1
  O  O51  1  0.69090007  0.52316288  0.24271225  1
  O  O52  1  0.83190703  0.30906990  0.24211206  1
  O  O53  1  0.47767797  0.16730836  0.24286362  1
  O  O54  1  0.64353024  0.50426377  0.92435521  1
  O  O55  1  0.85513732  0.35921761  0.92443625  1
  O  O56  1  0.50465781  0.14771219  0.92339360  1
  O  O57  1  0.64090356  0.13639430  0.42086507  1
  O  O58  1  0.49377978  0.35748126  0.42055091  1
  O  O59  1  0.86670820  0.50340717  0.42025333  1
  O  O60  1  0.36079724  0.50655218  0.07893308  1
  O  O61  1  0.14723982  0.64833875  0.08143652  1
  O  O62  1  0.49904660  0.85637834  0.07885910  1
  O  O63  1  0.35267072  0.85442224  0.57562770  1
  O  O64  1  0.48914617  0.64699755  0.57530689  1
  O  O65  1  0.14238924  0.50310362  0.57587296  1
  O  O66  1  0.31014540  0.83294511  0.25708666  1
  O  O67  1  0.52262306  0.68946557  0.25723916  1
  O  O68  1  0.16634986  0.47655861  0.25739171  1
  O  O69  1  0.30844204  0.46834693  0.75300248  1
  O  O70  1  0.16233014  0.69520735  0.75264746  1
  O  O71  1  0.53182723  0.83753167  0.75281071  1
loop_
_geom_bond_atom_site_label_1
_geom_bond_atom_site_label_2
_geom_bond_distance
_geom_bond_site_symmetry_2
Na0 O67 2.358878 1_555
Na0 O52 2.362785 1_565
Na0 O66 2.437562 1_555
Na0 O53 2.440879 1_565
Na0 O31 2.570251 1_555
Na0 O16 2.632926 1_565
Na0 O2 2.716072 1_565
Na0 O9 2.740800 1_555
Na1 O68 2.354703 1_555
Na1 O53 2.361468 1_555
Na1 O67 2.435769 1_555
Na1 O51 2.447262 1_555
Na1 O17 2.558223 1_555
Na1 O32 2.578764 1_555
Na1 O0 2.735099 1_555
Na1 O10 2.739442 1_555
Na2 O66 2.355520 1_555
Na2 O51 2.356431 1_455
Na2 O68 2.427559 1_555
Na2 O52 2.451060 1_455
Na2 O30 2.581440 1_555
Na2 O15 2.598480 1_455
Na2 O1 2.726916 1_455
Na2 O11 2.785717 1_555
Na3 O43 2.357026 1_555
Na3 O64 2.358817 1_555
Na3 O42 2.424615 1_455
Na3 O65 2.473323 1_555
Na3 O7 2.522237 1_555
Na3 O14 2.665732 1_555
Na3 O28 2.697922 1_555
Na3 O21 2.783579 1_555
Na4 O44 2.340074 1_455
Na4 O65 2.354292 1_555
Na4 O63 2.425446 1_555
Na4 O43 2.450292 1_565
Na4 O8 2.562791 1_555
Na4 O29 2.681395 1_555
Na4 O22 2.748703 1_455
Na4 O12 2.753567 1_455
Na5 O42 2.392670 1_565
Na5 O44 2.393644 1_555
Na5 O63 2.399332 1_555
Na5 O64 2.411791 1_555
Na5 O6 2.556522 1_555
Na5 O27 2.669106 1_555
Na5 O13 2.700225 1_565
Na5 O23 2.760356 1_565
Na6 O62 2.341389 1_555
Na6 O47 2.353962 1_565
Na6 O61 2.383853 1_555
Na6 O45 2.408058 1_455
Na6 O26 2.489527 1_554
Na6 O11 2.638789 1_555
Na6 O18 2.746091 1_565
Na6 O16 2.817948 1_565
Na7 O40 2.246049 1_655
Na7 O55 2.359881 1_555
Na7 O41 2.454159 1_555
Na7 O54 2.471348 1_555
Na7 O4 2.567328 1_555
Na7 O33 2.709590 1_655
Na7 O19 2.739525 1_556
Na7 O26 2.835059 1_655
Na8 O41 2.300992 1_545
Na8 O39 2.326394 1_655
Na8 O56 2.397661 1_555
Na8 O55 2.503905 1_555
Na8 O5 2.514949 1_555
Na8 O34 2.672249 1_545
Na8 O20 2.772414 1_556
Na8 O24 2.784296 1_545
Na9 O37 2.442022 1_555
Na9 O36 2.448340 1_655
Na9 O38 2.470228 1_665
Na9 O44 2.517152 1_555
Na9 O42 2.588139 1_565
Na9 O43 2.592931 1_665
Na10 O39 2.385696 1_555
Na10 O40 2.463376 1_545
Na10 O47 2.523248 1_556
Na10 O46 2.530635 1_456
Na10 O41 2.542362 1_445
Na10 O45 2.603743 1_446
Na11 O49 2.314692 1_555
Na11 O48 2.386301 1_555
Na11 O50 2.390593 1_555
Na11 O56 2.599161 1_555
Na11 O54 2.663625 1_555
Na11 O55 2.686010 1_555
Na12 O57 2.485437 1_555
Na12 O59 2.487317 1_555
Na12 O58 2.493878 1_555
Na12 O53 2.504175 1_555
Na12 O52 2.513968 1_555
Na12 O51 2.520322 1_555
Na13 O60 2.334111 1_555
Na13 O61 2.377247 1_555
Na13 O62 2.437378 1_555
Na13 O67 2.543064 1_555
Na13 O68 2.552795 1_555
Na13 O66 2.609971 1_555
Na14 O64 2.434006 1_555
Na14 O71 2.465247 1_555
Na14 O69 2.478121 1_555
Na14 O70 2.499064 1_555
Na14 O65 2.516218 1_555
Na14 O63 2.524272 1_555
Nb0 O56 1.934153 1_555
Nb0 O55 1.955239 1_555
Nb0 O18 1.991951 1_556
Nb0 O20 1.994780 1_556
Nb0 O54 2.005926 1_555
Nb0 O19 2.023792 1_556
Nb1 O22 1.894793 1_555
Nb1 O59 2.004510 1_555
Nb1 O58 2.005089 1_555
Nb1 O23 2.017913 1_555
Nb1 O21 2.022841 1_555
Nb1 O57 2.052954 1_555
Nb2 O33 1.927978 1_555
Nb2 O34 1.943858 1_555
Nb2 O70 1.982879 1_555
Nb2 O69 2.023287 1_555
Nb2 O71 2.028571 1_555
Nb2 O35 2.030817 1_555
Al0 O1 1.920700 1_555
Al0 O37 1.925536 1_555
Al0 O2 1.929171 1_565
Al0 O38 1.930912 1_665
Al0 O0 1.933159 1_665
Al0 O36 1.949160 1_655
Al1 O3 1.834632 1_555
Al1 O39 1.875368 1_555
Al1 O40 1.883206 1_545
Al1 O5 1.929990 1_455
Al1 O4 1.932849 1_445
Al1 O41 2.107549 1_445
Al2 O6 1.841167 1_555
Al2 O8 1.850403 1_655
Al2 O7 1.861856 1_665
Al2 O44 1.902899 1_555
Al2 O42 2.011719 1_565
Al2 O43 2.017512 1_665
Al3 O10 1.892449 1_655
Al3 O46 1.894799 1_555
Al3 O9 1.896321 1_545
Al3 O11 1.945304 1_645
Al3 O45 1.946619 1_545
Al3 O47 1.973272 1_655
Al4 O14 1.836568 1_555
Al4 O49 1.909146 1_555
Al4 O50 1.938919 1_555
Al4 O48 1.948753 1_555
Al4 O13 1.955844 1_555
Al4 O12 1.956750 1_555
Al5 O15 1.858685 1_555
Al5 O17 1.874992 1_555
Al5 O16 1.892893 1_555
Al5 O51 1.998311 1_555
Al5 O52 1.999746 1_555
Al5 O53 2.020851 1_555
Al6 O25 1.790821 1_554
Al6 O26 1.877942 1_554
Al6 O24 1.907850 1_554
Al6 O60 1.965644 1_555
Al6 O61 2.029503 1_555
Al6 O62 2.047388 1_555
Al7 O27 1.876400 1_555
Al7 O28 1.885929 1_555
Al7 O64 1.893996 1_555
Al7 O29 1.899845 1_555
Al7 O63 2.021198 1_555
Al7 O65 2.037989 1_555
Al8 O30 1.847411 1_555
Al8 O31 1.848425 1_555
Al8 O32 1.855907 1_555
Al8 O67 2.004251 1_555
Al8 O66 2.014028 1_555
Al8 O68 2.016268 1_555
O0 P0 1.530069 1_555
O1 P1 1.532644 1_555
O2 P2 1.532638 1_555
O3 P3 1.520677 1_555
O4 P4 1.530380 1_555
O5 P5 1.534070 1_555
O6 P5 1.534974 1_565
O7 P3 1.538001 1_555
O8 P4 1.532482 1_455
O9 P1 1.535996 1_555
O10 P2 1.535879 1_455
O11 P0 1.545790 1_565
O12 P6 1.520954 1_555
O13 P7 1.523120 1_555
O14 Si0 1.597388 1_555
O15 P8 1.539766 1_555
O16 P9 1.552599 1_555
O17 P10 1.546373 1_555
O18 P10 1.580697 1_555
O19 P8 1.566694 1_555
O20 P9 1.581797 1_555
O21 P7 1.573916 1_555
O22 Si0 1.694052 1_555
O23 P6 1.576172 1_555
O24 P11 1.520891 1_555
O25 Si1 1.583388 1_555
O26 Si2 1.614199 1_555
O27 P12 1.538574 1_555
O28 P13 1.535630 1_555
O29 P14 1.536298 1_555
O30 P14 1.537328 1_555
O31 P12 1.541009 1_555
O32 P13 1.537974 1_555
O33 Si1 1.651203 1_555
O34 Si2 1.650181 1_555
O35 P11 1.538859 1_555
O36 P14 1.528786 1_555
O37 P12 1.531845 1_555
O38 P13 1.527663 1_555
O39 Si1 1.597181 1_555
O40 Si2 1.596409 1_555
O41 P11 1.531569 1_555
O42 P6 1.542863 1_555
O43 P7 1.542937 1_555
O44 Si0 1.627473 1_555
O45 P8 1.543551 1_555
O46 P9 1.518902 1_555
O47 P10 1.542846 1_555
O48 P5 1.534484 1_555
O49 P3 1.532445 1_555
O50 P4 1.531558 1_555
O51 P1 1.570128 1_555
O52 P2 1.571321 1_555
O53 P0 1.569979 1_555
O54 P11 1.564042 1_555
O55 Si1 1.692681 1_655
O56 Si2 1.653424 1_545
O57 P12 1.576902 1_545
O58 P13 1.590212 1_555
O59 P14 1.591803 1_655
O60 P10 1.518332 1_555
O61 P8 1.539347 1_455
O62 P9 1.536134 1_565
O63 P7 1.548009 1_565
O64 Si0 1.631449 1_555
O65 P6 1.547953 1_455
O66 P0 1.566789 1_565
O67 P1 1.568634 1_555
O68 P2 1.568443 1_455
O69 P3 1.585000 1_555
O70 P4 1.592877 1_455
O71 P5 1.582895 1_565
