# generated using pymatgen
data_Dy2MgNb2O8
_symmetry_space_group_name_H-M   'P 1'
_cell_length_a   5.90250325
_cell_length_b   5.90250325
_cell_length_c   6.18639570
_cell_angle_alpha   106.82913811
_cell_angle_beta   106.82913811
_cell_angle_gamma   106.93643070
_symmetry_Int_Tables_number   1
_chemical_formula_structural   Dy2MgNb2O8
_chemical_formula_sum   'Dy2 Mg1 Nb2 O8'
_cell_volume   180.15369738
_cell_formula_units_Z   1
loop_
 _symmetry_equiv_pos_site_id
 _symmetry_equiv_pos_as_xyz
  1  'x, y, z'
loop_
 _atom_site_type_symbol
 _atom_site_label
 _atom_site_symmetry_multiplicity
 _atom_site_fract_x
 _atom_site_fract_y
 _atom_site_fract_z
 _atom_site_occupancy
  Dy  Dy0  1  0.64883162  0.35116838  0.25000000  1
  Dy  Dy1  1  0.37184465  0.62815535  0.75000000  1
  Mg  Mg0  1  0.34663026  0.65336974  0.25000000  1
  Nb  Nb0  1  0.90737840  0.09262160  0.75000000  1
  Nb  Nb1  1  0.04263544  0.95736456  0.25000000  1
  O  O0  1  0.76965301  0.09448410  0.00166045  1
  O  O1  1  0.26507167  0.33127884  0.95939835  1
  O  O2  1  0.90551590  0.23034699  0.49833955  1
  O  O3  1  0.66872116  0.73492833  0.54060165  1
  O  O4  1  0.33422948  0.30146548  0.41862716  1
  O  O5  1  0.69853452  0.66577052  0.08137284  1
  O  O6  1  0.14408810  0.73855124  0.44053405  1
  O  O7  1  0.26144876  0.85591190  0.05946595  1
loop_
_geom_bond_atom_site_label_1
_geom_bond_atom_site_label_2
_geom_bond_distance
_geom_bond_site_symmetry_2
Dy0 O0 2.253989 1_555
Dy0 O2 2.253989 1_555
Dy0 O4 2.367286 1_555
Dy0 O5 2.367286 1_555
Dy0 O3 2.396154 1_555
Dy0 O1 2.396154 1_554
Dy0 O6 2.777213 1_655
Dy0 O7 2.777213 1_545
Dy1 O5 2.273365 1_556
Dy1 O4 2.273365 1_555
Dy1 O7 2.374765 1_556
Dy1 O6 2.374765 1_555
Dy1 O1 2.507913 1_555
Dy1 O3 2.507913 1_555
Dy1 O2 2.673937 1_455
Dy1 O0 2.673937 1_566
Mg0 O7 1.973425 1_555
Mg0 O6 1.973425 1_555
Mg0 O3 2.016108 1_555
Mg0 O1 2.016108 1_554
Mg0 O4 2.572613 1_555
Mg0 O5 2.572613 1_555
Nb0 O3 1.935695 1_545
Nb0 O1 1.935695 1_655
Nb0 O0 1.952678 1_556
Nb0 O2 1.952678 1_555
Nb1 O5 1.967883 1_455
Nb1 O4 1.967883 1_565
Nb1 O7 2.083138 1_555
Nb1 O6 2.083138 1_555
Nb1 O2 2.378648 1_465
Nb1 O0 2.378648 1_465
