# generated using pymatgen
data_NaScSiGe(SO6)2
_symmetry_space_group_name_H-M   'P 1'
_cell_length_a   8.71830366
_cell_length_b   8.71872801
_cell_length_c   22.46820683
_cell_angle_alpha   90.98894297
_cell_angle_beta   90.00000000
_cell_angle_gamma   119.99838998
_symmetry_Int_Tables_number   1
_chemical_formula_structural   NaScSiGe(SO6)2
_chemical_formula_sum   'Na6 Sc6 Si6 Ge6 S12 O72'
_cell_volume   1478.78470357
_cell_formula_units_Z   6
loop_
 _symmetry_equiv_pos_site_id
 _symmetry_equiv_pos_as_xyz
  1  'x, y, z'
loop_
 _atom_site_type_symbol
 _atom_site_label
 _atom_site_symmetry_multiplicity
 _atom_site_fract_x
 _atom_site_fract_y
 _atom_site_fract_z
 _atom_site_occupancy
  Na  Na0  1  0.02285817  0.00718620  0.50106696  1
  Na  Na1  1  0.98432803  0.00718620  0.00106696  1
  Na  Na2  1  0.69156903  0.33659906  0.83313578  1
  Na  Na3  1  0.64503103  0.33659906  0.33313578  1
  Na  Na4  1  0.33551014  0.69132978  0.16637570  1
  Na  Na5  1  0.35581864  0.69132978  0.66637570  1
  Sc  Sc0  1  0.99579283  0.99599688  0.64480788  1
  Sc  Sc1  1  0.00020404  0.99599688  0.14480788  1
  Sc  Sc2  1  0.67576047  0.32279815  0.97742190  1
  Sc  Sc3  1  0.64703868  0.32279815  0.47742190  1
  Sc  Sc4  1  0.33734475  0.66957284  0.31045078  1
  Sc  Sc5  1  0.33222709  0.66957284  0.81045078  1
  Si  Si0  1  0.29406936  0.00658466  0.24837622  1
  Si  Si1  1  0.71251530  0.00658466  0.74837622  1
  Si  Si2  1  0.37255856  0.02846473  0.57965805  1
  Si  Si3  1  0.65590717  0.02846473  0.07965805  1
  Si  Si4  1  0.05604001  0.38024363  0.91558138  1
  Si  Si5  1  0.32420262  0.38024363  0.41558138  1
  Ge  Ge0  1  0.02859312  0.02130364  0.35285391  1
  Ge  Ge1  1  0.99271052  0.02130364  0.85285391  1
  Ge  Ge2  1  0.65772245  0.29718748  0.68422732  1
  Ge  Ge3  1  0.63946602  0.29718748  0.18422732  1
  Ge  Ge4  1  0.33489842  0.66795565  0.01740684  1
  Ge  Ge5  1  0.33305623  0.66795565  0.51740684  1
  S  S0  1  0.72193190  0.70516575  0.25028820  1
  S  S1  1  0.98372805  0.28332217  0.25035816  1
  S  S2  1  0.29959412  0.28332217  0.75035816  1
  S  S3  1  0.98323384  0.70516575  0.75028820  1
  S  S4  1  0.96022975  0.34497085  0.58360493  1
  S  S5  1  0.65190163  0.60913380  0.58519827  1
  S  S6  1  0.95723317  0.60913380  0.08519827  1
  S  S7  1  0.38474209  0.34497085  0.08360493  1
  S  S8  1  0.63188873  0.67973468  0.91605121  1
  S  S9  1  0.31367294  0.95276674  0.91594069  1
  S  S10  1  0.63909280  0.95276674  0.41594069  1
  S  S11  1  0.04784495  0.67973468  0.41605121  1
  O  O0  1  0.20679547  0.04189633  0.31015472  1
  O  O1  1  0.82999740  0.79264211  0.30603541  1
  O  O2  1  0.95592076  0.17540755  0.30539662  1
  O  O3  1  0.21948679  0.17540755  0.80539662  1
  O  O4  1  0.96264471  0.79264211  0.80603541  1
  O  O5  1  0.83510086  0.04189633  0.81015472  1
  O  O6  1  0.80544361  0.98573219  0.69088372  1
  O  O7  1  0.19623069  0.19678745  0.69680565  1
  O  O8  1  0.01315185  0.81145357  0.69763389  1
  O  O9  1  0.79830171  0.81145357  0.19763389  1
  O  O10  1  0.00055676  0.19678745  0.19680565  1
  O  O11  1  0.18028858  0.98573219  0.19088372  1
  O  O12  1  0.87835236  0.37261114  0.64002132  1
  O  O13  1  0.49952659  0.11630081  0.64091899  1
  O  O14  1  0.63309487  0.50444747  0.63942872  1
  O  O15  1  0.87135360  0.50444747  0.13942872  1
  O  O16  1  0.61677522  0.11630081  0.14091899  1
  O  O17  1  0.49425977  0.37261114  0.14002132  1
  O  O18  1  0.47168016  0.32775038  0.03099884  1
  O  O19  1  0.85417003  0.53090172  0.03072538  1
  O  O20  1  0.68088461  0.14524899  0.02328627  1
  O  O21  1  0.46436538  0.14524899  0.52328627  1
  O  O22  1  0.67673269  0.53090172  0.53072538  1
  O  O23  1  0.85607122  0.32775038  0.53099884  1
  O  O24  1  0.55405654  0.71563657  0.97140741  1
  O  O25  1  0.18132876  0.47643553  0.97758007  1
  O  O26  1  0.29421150  0.84803979  0.97070957  1
  O  O27  1  0.55382729  0.84803979  0.47070957  1
  O  O28  1  0.29510576  0.47643553  0.47758007  1
  O  O29  1  0.16157904  0.71563657  0.47140741  1
  O  O30  1  0.13211368  0.66266842  0.36267623  1
  O  O31  1  0.52608127  0.87808586  0.36303756  1
  O  O32  1  0.34015362  0.49116406  0.35887252  1
  O  O33  1  0.15100944  0.49116406  0.85887252  1
  O  O34  1  0.35200359  0.87808586  0.86303756  1
  O  O35  1  0.53055375  0.66266842  0.86267623  1
  O  O36  1  0.02535860  0.83974681  0.41237333  1
  O  O37  1  0.80763681  0.94971872  0.40962067  1
  O  O38  1  0.13737136  0.18231139  0.41188492  1
  O  O39  1  0.04494002  0.18231139  0.91188492  1
  O  O40  1  0.14208192  0.94971872  0.90962067  1
  O  O41  1  0.81438821  0.83974681  0.91237333  1
  O  O42  1  0.98051906  0.18862660  0.58830971  1
  O  O43  1  0.17649500  -0.00288649  0.58793233  1
  O  O44  1  0.80535863  0.78986898  0.58961662  1
  O  O45  1  0.98451034  0.78986898  0.08961662  1
  O  O46  1  0.82061851  -0.00288649  0.08793233  1
  O  O47  1  0.20810753  0.18862660  0.08830971  1
  O  O48  1  0.70746175  0.19628736  0.74386860  1
  O  O49  1  0.48009606  0.30287723  0.74624093  1
  O  O50  1  0.81476072  0.53119334  0.74463526  1
  O  O51  1  0.71643362  0.53119334  0.24463526  1
  O  O52  1  0.82278217  0.30287723  0.24624093  1
  O  O53  1  0.48882660  0.19628736  0.24386860  1
  O  O54  1  0.64674817  0.52149536  0.92290207  1
  O  O55  1  0.85875455  0.35140429  0.92042134  1
  O  O56  1  0.45883899  0.13717960  0.92281801  1
  O  O57  1  0.67834161  0.13717960  0.42281801  1
  O  O58  1  0.49265075  0.35140429  0.42042134  1
  O  O59  1  0.87474820  0.52149536  0.42290207  1
  O  O60  1  0.36940606  0.50782360  0.08147569  1
  O  O61  1  0.13417766  0.62031350  0.08081773  1
  O  O62  1  0.46522249  0.83288253  0.07194250  1
  O  O63  1  0.36765904  0.83288253  0.57194250  1
  O  O64  1  0.48613484  0.62031350  0.58081773  1
  O  O65  1  0.13841654  0.50782360  0.58147569  1
  O  O66  1  0.32717220  0.84203191  0.25457886  1
  O  O67  1  0.54132539  0.67587132  0.25565307  1
  O  O68  1  0.14149746  0.45972736  0.25553126  1
  O  O69  1  0.31822890  0.45972736  0.75553126  1
  O  O70  1  0.13454493  0.67587132  0.75565307  1
  O  O71  1  0.51485871  0.84203191  0.75457886  1
loop_
_geom_bond_atom_site_label_1
_geom_bond_atom_site_label_2
_geom_bond_distance
_geom_bond_site_symmetry_2
Na0 O43 2.394694 1_555
Na0 O38 2.434015 1_555
Na0 O36 2.456474 1_545
Na0 O42 2.637794 1_455
Na0 O37 2.649091 1_445
Na0 O44 2.771544 1_445
Na1 O46 2.394694 1_555
Na1 O39 2.434015 1_654
Na1 O41 2.456474 1_544
Na1 O47 2.637793 1_655
Na1 O40 2.649091 1_644
Na1 O45 2.771544 1_545
Na2 O48 2.371346 1_555
Na2 O55 2.406329 1_555
Na2 O50 2.506051 1_555
Na2 O49 2.595288 1_555
Na2 O54 2.708678 1_555
Na2 O56 2.791671 1_555
Na3 O53 2.371346 1_555
Na3 O58 2.406328 1_555
Na3 O51 2.506051 1_555
Na3 O52 2.595288 1_555
Na3 O59 2.708678 1_555
Na3 O57 2.791671 1_555
Na4 O66 2.380068 1_555
Na4 O62 2.449205 1_555
Na4 O61 2.455991 1_555
Na4 O60 2.579403 1_555
Na4 O67 2.740930 1_555
Na4 O68 2.770462 1_555
Na5 O71 2.380068 1_555
Na5 O63 2.449205 1_555
Na5 O64 2.455991 1_555
Na5 O65 2.579403 1_555
Na5 O70 2.740930 1_555
Na5 O69 2.770462 1_555
Ge0 O0 1.758805 1_555
Ge0 O38 1.798228 1_555
Ge0 O2 2.060169 1_455
Ge0 O36 2.079255 1_545
Ge0 O37 2.133640 1_445
Ge0 O1 2.134223 1_445
Ge1 O5 1.758805 1_555
Ge1 O39 1.798228 1_655
Ge1 O3 2.060169 1_655
Ge1 O41 2.079255 1_545
Ge1 O40 2.133640 1_645
Ge1 O4 2.134223 1_545
Ge2 O13 1.763032 1_555
Ge2 O48 1.783199 1_555
Ge2 O12 1.968900 1_555
Ge2 O49 2.101533 1_555
Ge2 O14 2.185268 1_555
Ge2 O50 2.233922 1_555
Ge3 O16 1.763032 1_555
Ge3 O53 1.783199 1_555
Ge3 O17 1.968900 1_555
Ge3 O52 2.101533 1_555
Ge3 O15 2.185268 1_555
Ge3 O51 2.233922 1_555
Ge4 O25 1.759103 1_554
Ge4 O62 1.779192 1_555
Ge4 O24 2.027877 1_554
Ge4 O26 2.075011 1_554
Ge4 O61 2.135011 1_555
Ge4 O60 2.145068 1_555
Ge5 O28 1.759103 1_555
Ge5 O63 1.779192 1_555
Ge5 O29 2.027877 1_555
Ge5 O27 2.075011 1_555
Ge5 O64 2.135011 1_555
Ge5 O65 2.145068 1_555
O0 Si0 1.679257 1_555
O1 S0 1.512178 1_555
O2 S1 1.511727 1_555
O3 S2 1.511727 1_555
O4 S3 1.512178 1_555
O5 Si1 1.679257 1_555
O6 Si1 1.580269 1_565
O6 Sc0 1.920530 1_555
O7 S2 1.455290 1_555
O7 Sc0 2.086547 1_445
O8 S3 1.456895 1_455
O8 Sc0 2.080839 1_455
O9 S0 1.456895 1_555
O9 Sc1 2.080839 1_655
O10 S1 1.455290 1_455
O10 Sc1 2.086547 1_545
O11 Si0 1.580269 1_565
O11 Sc1 1.920530 1_555
O12 S4 1.528349 1_555
O13 Si2 1.679966 1_555
O14 S5 1.494441 1_555
O15 S6 1.494441 1_555
O16 Si3 1.679966 1_555
O17 S7 1.528349 1_555
O18 S7 1.449739 1_555
O18 Sc2 2.166020 1_554
O19 S6 1.459073 1_555
O19 Sc2 2.061234 1_554
O20 Si3 1.584670 1_555
O20 Sc2 1.893260 1_554
O21 Si2 1.584670 1_555
O21 Sc3 1.893260 1_555
O22 S5 1.459073 1_555
O22 Sc3 2.061234 1_555
O23 S4 1.449739 1_555
O23 Sc3 2.166020 1_555
O24 S8 1.517996 1_555
O25 Si4 1.697227 1_555
O26 S9 1.503548 1_555
O27 S10 1.503548 1_555
O28 Si5 1.697227 1_555
O29 S11 1.517996 1_555
O30 S11 1.450250 1_555
O30 Sc4 2.115828 1_555
O31 S10 1.462656 1_555
O31 Sc4 2.084028 1_555
O32 Si5 1.576735 1_555
O32 Sc4 1.923620 1_555
O33 Si4 1.576735 1_555
O33 Sc5 1.923620 1_555
O34 S9 1.462656 1_555
O34 Sc5 2.084028 1_555
O35 S8 1.450250 1_555
O35 Sc5 2.115828 1_555
O36 S11 1.506333 1_555
O37 S10 1.489623 1_555
O38 Si5 1.680002 1_555
O39 Si4 1.680006 1_555
O40 S9 1.489614 1_555
O41 S8 1.506338 1_555
O42 S4 1.465145 1_555
O42 Sc0 2.178770 1_545
O43 Si2 1.601770 1_555
O43 Sc0 2.024878 1_445
O44 S5 1.472877 1_555
O44 Sc0 2.112691 1_555
O45 S6 1.472880 1_555
O45 Sc1 2.112691 1_655
O46 Si3 1.601762 1_555
O46 Sc1 2.024878 1_645
O47 S7 1.465150 1_555
O47 Sc1 2.178770 1_545
O48 Si1 1.681206 1_555
O49 S2 1.498773 1_555
O50 S3 1.496596 1_555
O51 S0 1.496600 1_555
O52 S1 1.498764 1_555
O53 Si0 1.681210 1_555
O54 S8 1.459436 1_555
O54 Sc2 2.253241 1_555
O55 Si4 1.613045 1_655
O55 Sc2 1.964900 1_555
O56 S9 1.472217 1_545
O56 Sc2 2.138184 1_555
O57 S10 1.472211 1_545
O57 Sc3 2.138184 1_555
O58 Si5 1.613063 1_555
O58 Sc3 1.964900 1_555
O59 S11 1.459426 1_655
O59 Sc3 2.253241 1_555
O60 S7 1.492773 1_555
O61 S6 1.499649 1_455
O62 Si3 1.690168 1_565
O63 Si2 1.690159 1_565
O64 S5 1.499666 1_555
O65 S4 1.492763 1_455
O66 Si0 1.606855 1_565
O66 Sc4 2.010755 1_555
O67 S0 1.469010 1_555
O67 Sc4 2.141529 1_555
O68 S1 1.466081 1_455
O68 Sc4 2.140956 1_555
O69 S2 1.466085 1_555
O69 Sc5 2.140956 1_555
O70 S3 1.469002 1_455
O70 Sc5 2.141529 1_555
O71 Si1 1.606861 1_565
O71 Sc5 2.010755 1_555
