# generated using pymatgen
data_NiH8(ClO2)2
_symmetry_space_group_name_H-M   'P 1'
_cell_length_a   9.37691200
_cell_length_b   5.96789300
_cell_length_c   10.94131546
_cell_angle_alpha   80.10204404
_cell_angle_beta   90.00000000
_cell_angle_gamma   90.00000000
_symmetry_Int_Tables_number   1
_chemical_formula_structural   NiH8(ClO2)2
_chemical_formula_sum   'Ni4 H32 Cl8 O16'
_cell_volume   603.16695772
_cell_formula_units_Z   4
loop_
 _symmetry_equiv_pos_site_id
 _symmetry_equiv_pos_as_xyz
  1  'x, y, z'
loop_
 _atom_site_type_symbol
 _atom_site_label
 _atom_site_symmetry_multiplicity
 _atom_site_fract_x
 _atom_site_fract_y
 _atom_site_fract_z
 _atom_site_occupancy
  Ni  Ni0  1  0.32843000  0.48643800  0.76236100  1
  Ni  Ni1  1  0.82843000  0.01356200  0.73763900  1
  Ni  Ni2  1  0.67157000  0.51356200  0.23763900  1
  Ni  Ni3  1  0.17157000  0.98643800  0.26236100  1
  H  H0  1  0.55964800  0.58573500  0.89951600  1
  H  H1  1  0.05964800  0.91426500  0.60048400  1
  H  H2  1  0.44035200  0.41426500  0.10048400  1
  H  H3  1  0.94035200  0.08573500  0.39951600  1
  H  H4  1  0.56835100  0.31917800  0.88765900  1
  H  H5  1  0.06835100  0.18082200  0.61234100  1
  H  H6  1  0.43164900  0.68082200  0.11234100  1
  H  H7  1  0.93164900  0.81917800  0.38765900  1
  H  H8  1  0.56068400  0.35171100  0.64498000  1
  H  H9  1  0.06068400  0.14828900  0.85502000  1
  H  H10  1  0.43931600  0.64828900  0.35502000  1
  H  H11  1  0.93931600  0.85171100  0.14498000  1
  H  H12  1  0.42439000  0.30626400  0.56361200  1
  H  H13  1  0.92439000  0.19373600  0.93638800  1
  H  H14  1  0.29990600  0.11089000  0.92359200  1
  H  H15  1  0.57561000  0.69373600  0.43638800  1
  H  H16  1  0.48666300  0.84796800  0.68281000  1
  H  H17  1  0.98666300  0.65203200  0.81719000  1
  H  H18  1  0.51333700  0.15203200  0.31719000  1
  H  H19  1  0.01333700  0.34796800  0.18281000  1
  H  H20  1  0.34351900  0.87625600  0.61032700  1
  H  H21  1  0.84351900  0.62374400  0.88967300  1
  H  H22  1  0.65648100  0.12374400  0.38967300  1
  H  H23  1  0.15648100  0.37625600  0.11032700  1
  H  H24  1  0.31093100  0.03506300  0.79169400  1
  H  H25  1  0.81093100  0.46493700  0.70830600  1
  H  H26  1  0.68906900  0.96493700  0.20830600  1
  H  H27  1  0.18906900  0.53506300  0.29169400  1
  H  H28  1  0.20009400  0.61089000  0.42359200  1
  H  H29  1  0.70009400  0.88911000  0.07640800  1
  H  H30  1  0.79990600  0.38911000  0.57640800  1
  H  H31  1  0.07561000  0.80626400  0.06361200  1
  Cl  Cl0  1  0.18743500  0.59253600  0.92679600  1
  Cl  Cl1  1  0.68743500  0.90746400  0.57320400  1
  Cl  Cl2  1  0.81256500  0.40746400  0.07320400  1
  Cl  Cl3  1  0.31256500  0.09253600  0.42679600  1
  Cl  Cl4  1  0.13891600  0.53106300  0.61642200  1
  Cl  Cl5  1  0.63891600  0.96893700  0.88357800  1
  Cl  Cl6  1  0.86108400  0.46893700  0.38357800  1
  Cl  Cl7  1  0.36108400  0.03106300  0.11642200  1
  O  O0  1  0.51254800  0.46088200  0.86755000  1
  O  O1  1  0.01254800  0.03911800  0.63245000  1
  O  O2  1  0.48745200  0.53911800  0.13245000  1
  O  O3  1  0.98745200  0.96088200  0.36755000  1
  O  O4  1  0.45900900  0.38732100  0.62853500  1
  O  O5  1  0.95900900  0.11267900  0.87146500  1
  O  O6  1  0.54099100  0.61267900  0.37146500  1
  O  O7  1  0.04099100  0.88732100  0.12853500  1
  O  O8  1  0.38195100  0.83099700  0.69567900  1
  O  O9  1  0.88195100  0.66900300  0.80432100  1
  O  O10  1  0.61804900  0.16900300  0.30432100  1
  O  O11  1  0.11804900  0.33099700  0.19567900  1
  O  O12  1  0.26901900  0.15221400  0.83556900  1
  O  O13  1  0.76901900  0.34778600  0.66443100  1
  O  O14  1  0.73098100  0.84778600  0.16443100  1
  O  O15  1  0.23098100  0.65221400  0.33556900  1
loop_
_geom_bond_atom_site_label_1
_geom_bond_atom_site_label_2
_geom_bond_distance
_geom_bond_site_symmetry_2
Ni0 O0 2.065952 1_555
Ni0 O4 2.071439 1_555
Ni0 O12 2.093122 1_555
Ni0 O8 2.120550 1_555
Ni1 O1 2.065952 1_655
Ni1 O5 2.071439 1_555
Ni1 O13 2.093122 1_555
Ni1 O9 2.120550 1_545
Ni2 O2 2.065952 1_555
Ni2 O6 2.071439 1_555
Ni2 O14 2.093122 1_555
Ni2 O10 2.120550 1_555
Ni3 O3 2.065952 1_455
Ni3 O7 2.071439 1_555
Ni3 O15 2.093122 1_555
Ni3 O11 2.120550 1_565
H0 O0 0.980899 1_555
H1 O1 0.980899 1_565
H2 O2 0.980899 1_555
H3 O3 0.980899 1_545
H4 O0 0.986614 1_555
H5 O1 0.986614 1_555
H6 O2 0.986614 1_555
H7 O3 0.986614 1_555
H8 O4 0.986590 1_555
H9 O5 0.986590 1_455
H10 O6 0.986590 1_555
H11 O7 0.986590 1_655
H12 O4 0.980868 1_555
H13 O5 0.980868 1_555
H14 O12 0.995282 1_555
H15 O6 0.980868 1_555
H16 O8 0.994615 1_555
H17 O9 0.994615 1_555
H18 O10 0.994615 1_555
H19 O11 0.994615 1_555
H20 O8 0.994086 1_555
H21 O9 0.994086 1_555
H22 O10 0.994086 1_555
H23 O11 0.994086 1_555
H24 O12 0.994529 1_555
H25 O13 0.994529 1_555
H26 O14 0.994529 1_555
H27 O15 0.994529 1_555
H28 O15 0.995282 1_555
H29 O14 0.995282 1_555
H30 O13 0.995282 1_555
H31 O7 0.980868 1_555
Cl0 Ni0 2.403619 1_555
Cl1 Ni1 2.403619 1_565
Cl2 Ni2 2.403619 1_555
Cl3 Ni3 2.403619 1_545
Cl4 Ni0 2.373250 1_555
Cl5 Ni1 2.373250 1_565
Cl6 Ni2 2.373250 1_555
Cl7 Ni3 2.373250 1_545
