# generated using pymatgen
data_BH2N
_symmetry_space_group_name_H-M   'P 1'
_cell_length_a   5.60885000
_cell_length_b   5.60885000
_cell_length_c   16.84195900
_cell_angle_alpha   90.00000000
_cell_angle_beta   90.00000000
_cell_angle_gamma   90.00000000
_symmetry_Int_Tables_number   1
_chemical_formula_structural   BH2N
_chemical_formula_sum   'B12 H24 N12'
_cell_volume   529.83452832
_cell_formula_units_Z   12
loop_
 _symmetry_equiv_pos_site_id
 _symmetry_equiv_pos_as_xyz
  1  'x, y, z'
loop_
 _atom_site_type_symbol
 _atom_site_label
 _atom_site_symmetry_multiplicity
 _atom_site_fract_x
 _atom_site_fract_y
 _atom_site_fract_z
 _atom_site_occupancy
  B  B0  1  0.34751400  0.55355700  0.05689200  1
  B  B1  1  0.67534100  0.32465900  0.25000000  1
  B  B2  1  0.32465900  0.67534100  0.75000000  1
  B  B3  1  0.17534100  0.17534100  0.00000000  1
  B  B4  1  0.44644300  0.65248600  0.44310800  1
  B  B5  1  0.55355700  0.34751400  0.94310800  1
  B  B6  1  0.65248600  0.44644300  0.55689200  1
  B  B7  1  0.15248600  0.05355700  0.69310800  1
  B  B8  1  0.84751400  0.94644300  0.19310800  1
  B  B9  1  0.05355700  0.15248600  0.30689200  1
  B  B10  1  0.94644300  0.84751400  0.80689200  1
  B  B11  1  0.82465900  0.82465900  0.50000000  1
  H  H0  1  0.97604100  0.97604100  0.50000000  1
  H  H1  1  0.52395900  0.47604100  0.25000000  1
  H  H2  1  0.47604100  0.52395900  0.75000000  1
  H  H3  1  0.02395900  0.02395900  0.00000000  1
  H  H4  1  0.62372600  0.96560800  0.40472000  1
  H  H5  1  0.37627400  0.03439200  0.90472000  1
  H  H6  1  0.96560800  0.62372600  0.59528000  1
  H  H7  1  0.46560800  0.87627400  0.65472000  1
  H  H8  1  0.53439200  0.12372600  0.15472000  1
  H  H9  1  0.87627400  0.46560800  0.34528000  1
  H  H10  1  0.12372600  0.53439200  0.84528000  1
  H  H11  1  0.03439200  0.37627400  0.09528000  1
  H  H12  1  0.28503200  0.66288600  0.39641000  1
  H  H13  1  0.71496800  0.33711400  0.89641000  1
  H  H14  1  0.66288600  0.28503200  0.60359000  1
  H  H15  1  0.16288600  0.21496800  0.64641000  1
  H  H16  1  0.83711400  0.78503200  0.14641000  1
  H  H17  1  0.66471600  0.66471600  0.00000000  1
  H  H18  1  0.78503200  0.83711400  0.85359000  1
  H  H19  1  0.33711400  0.71496800  0.10359000  1
  H  H20  1  0.33528400  0.33528400  0.50000000  1
  H  H21  1  0.16471600  0.83528400  0.25000000  1
  H  H22  1  0.83528400  0.16471600  0.75000000  1
  H  H23  1  0.21496800  0.16288600  0.35359000  1
  N  N0  1  0.63172600  0.82871500  0.44414000  1
  N  N1  1  0.36827400  0.17128500  0.94414000  1
  N  N2  1  0.82871500  0.63172600  0.55586000  1
  N  N3  1  0.32871500  0.86827400  0.69414000  1
  N  N4  1  0.67128500  0.13172600  0.19414000  1
  N  N5  1  0.86827400  0.32871500  0.30586000  1
  N  N6  1  0.13172600  0.67128500  0.80586000  1
  N  N7  1  0.17128500  0.36827400  0.05586000  1
  N  N8  1  0.46333800  0.46333800  0.50000000  1
  N  N9  1  0.03666200  0.96333800  0.25000000  1
  N  N10  1  0.96333800  0.03666200  0.75000000  1
  N  N11  1  0.53666200  0.53666200  0.00000000  1
loop_
_geom_bond_atom_site_label_1
_geom_bond_atom_site_label_2
_geom_bond_distance
_geom_bond_site_symmetry_2
B0 H19 1.200660 1_555
B0 N11 1.432686 1_555
B0 N7 1.434332 1_555
B1 H1 1.200779 1_555
B1 N5 1.434091 1_555
B1 N4 1.434091 1_555
B2 H2 1.200779 1_555
B2 N3 1.434091 1_555
B2 N6 1.434091 1_555
B3 H3 1.200779 1_555
B3 N1 1.434091 1_554
B3 N7 1.434091 1_555
B4 H12 1.200660 1_555
B4 N8 1.432686 1_555
B4 N0 1.434332 1_555
B5 H13 1.200660 1_555
B5 N11 1.432686 1_556
B5 N1 1.434332 1_555
B6 H14 1.200660 1_555
B6 N8 1.432686 1_555
B6 N2 1.434332 1_555
B7 H15 1.200660 1_555
B7 N10 1.432686 1_455
B7 N3 1.434332 1_545
B8 H16 1.200660 1_555
B8 N9 1.432686 1_655
B8 N4 1.434332 1_565
B9 H23 1.200660 1_555
B9 N9 1.432686 1_545
B9 N5 1.434332 1_455
B10 H18 1.200660 1_555
B10 N10 1.432686 1_565
B10 N6 1.434332 1_655
B11 H0 1.200779 1_555
B11 N0 1.434091 1_555
B11 N2 1.434091 1_555
H4 N0 1.016034 1_555
H5 N1 1.016034 1_555
H6 N2 1.016034 1_555
H7 N3 1.016034 1_555
H8 N4 1.016034 1_555
H9 N5 1.016034 1_555
H10 N6 1.016034 1_555
H11 N7 1.016034 1_555
H17 N11 1.015739 1_555
H20 N8 1.015739 1_555
H21 N9 1.015739 1_555
H22 N10 1.015739 1_555
