# generated using pymatgen
data_NaTi2Nb2SiP5O24
_symmetry_space_group_name_H-M   'P 1'
_cell_length_a   8.71937469
_cell_length_b   8.72062705
_cell_length_c   22.50462485
_cell_angle_alpha   90.00083375
_cell_angle_beta   89.91592882
_cell_angle_gamma   120.00805585
_symmetry_Int_Tables_number   1
_chemical_formula_structural   NaTi2Nb2SiP5O24
_chemical_formula_sum   'Na3 Ti6 Nb6 Si3 P15 O72'
_cell_volume   1481.83410532
_cell_formula_units_Z   3
loop_
 _symmetry_equiv_pos_site_id
 _symmetry_equiv_pos_as_xyz
  1  'x, y, z'
loop_
 _atom_site_type_symbol
 _atom_site_label
 _atom_site_symmetry_multiplicity
 _atom_site_fract_x
 _atom_site_fract_y
 _atom_site_fract_z
 _atom_site_occupancy
  Na  Na0  1  0.99988877  0.99950150  0.99945381  1
  Na  Na1  1  0.66644423  0.33307092  0.83010115  1
  Na  Na2  1  0.66650628  0.33309332  0.33703312  1
  Ti  Ti0  1  0.00014085  0.99559215  0.85515264  1
  Ti  Ti1  1  0.00200785  0.00436785  0.14950930  1
  Ti  Ti2  1  0.66597609  0.33340541  0.68497079  1
  Ti  Ti3  1  0.66736586  0.33362290  0.47977145  1
  Ti  Ti4  1  0.33338368  0.66707146  0.52219693  1
  Ti  Ti5  1  0.32964484  0.66321956  0.31025485  1
  Nb  Nb0  1  0.99827533  0.00300874  0.35951115  1
  Nb  Nb1  1  0.00033500  0.00041170  0.64168327  1
  Nb  Nb2  1  0.66805962  0.33411594  0.18989725  1
  Nb  Nb3  1  0.66491069  0.33371811  0.97675942  1
  Nb  Nb4  1  0.33617461  0.67144555  0.02284038  1
  Nb  Nb5  1  0.33851654  0.66989088  0.80820901  1
  Si  Si0  1  0.00644356  0.28993833  0.25048589  1
  Si  Si1  1  0.62447646  0.67298620  0.91543836  1
  Si  Si2  1  0.32782833  0.95211090  0.91548105  1
  P  P0  1  0.28235454  0.99459599  0.25051020  1
  P  P1  1  0.71212071  0.71813934  0.25056301  1
  P  P2  1  0.28806314  0.28244847  0.75009153  1
  P  P3  1  0.99393715  0.71034456  0.74985175  1
  P  P4  1  0.71883437  0.00748923  0.75005832  1
  P  P5  1  0.95313641  0.33905595  0.58249815  1
  P  P6  1  0.38588072  0.04693971  0.58243843  1
  P  P7  1  0.66121693  0.61442214  0.58242405  1
  P  P8  1  0.95452023  0.62586011  0.08381550  1
  P  P9  1  0.67211958  0.04630987  0.08403757  1
  P  P10  1  0.37357396  0.32841473  0.08406284  1
  P  P11  1  0.04927964  0.37791688  0.91590491  1
  P  P12  1  0.61130020  0.95116466  0.41717281  1
  P  P13  1  0.33994111  0.38784193  0.41732459  1
  P  P14  1  0.04850151  0.66171225  0.41727644  1
  O  O0  1  0.20111770  0.03241991  0.30538192  1
  O  O1  1  0.83175555  0.79650406  0.30551384  1
  O  O2  1  0.96680618  0.16150207  0.30781857  1
  O  O3  1  0.20180788  0.16860809  0.80521197  1
  O  O4  1  0.96633744  0.79771502  0.80517107  1
  O  O5  1  0.83066792  0.03338060  0.80523966  1
  O  O6  1  0.80228269  0.97394163  0.69441355  1
  O  O7  1  0.17148625  0.19711795  0.69443883  1
  O  O8  1  0.02665561  0.82823813  0.69458047  1
  O  O9  1  0.80091876  0.82906712  0.19453000  1
  O  O10  1  0.03063605  0.19368715  0.19183485  1
  O  O11  1  0.17044399  0.96891154  0.19440323  1
  O  O12  1  0.86487487  0.36446456  0.63837468  1
  O  O13  1  0.49929744  0.13486603  0.63828137  1
  O  O14  1  0.63543445  0.50049053  0.63827356  1
  O  O15  1  0.86504165  0.50583467  0.13861985  1
  O  O16  1  0.63966542  0.13376431  0.13863680  1
  O  O17  1  0.49239910  0.36020533  0.13842611  1
  O  O18  1  0.46469136  0.30169186  0.02864103  1
  O  O19  1  0.83779680  0.53550701  0.02876351  1
  O  O20  1  0.69905990  0.16165189  0.02875832  1
  O  O21  1  0.46909912  0.16653612  0.52787571  1
  O  O22  1  0.69760243  0.53097063  0.52790204  1
  O  O23  1  0.83358562  0.30254873  0.52799814  1
  O  O24  1  0.53032908  0.69775682  0.97452482  1
  O  O25  1  0.16090313  0.46313115  0.97218100  1
  O  O26  1  0.29862330  0.83201491  0.97468576  1
  O  O27  1  0.52988420  0.83625750  0.47275964  1
  O  O28  1  0.30534759  0.46877301  0.47261670  1
  O  O29  1  0.16359749  0.69399161  0.47255673  1
  O  O30  1  0.13261035  0.63335194  0.36144332  1
  O  O31  1  0.50220764  0.86891883  0.36136162  1
  O  O32  1  0.36726780  0.49885840  0.36143822  1
  O  O33  1  0.12908549  0.49491664  0.86079630  1
  O  O34  1  0.36439211  0.86223958  0.85819475  1
  O  O35  1  0.49725488  0.63170828  0.85804528  1
  O  O36  1  0.02705667  0.82693623  0.40738814  1
  O  O37  1  0.79926724  0.97064897  0.40861536  1
  O  O38  1  0.17385732  0.19914414  0.40808186  1
  O  O39  1  0.02597350  0.19345884  0.90888463  1
  O  O40  1  0.15937254  0.97921913  0.90793415  1
  O  O41  1  0.81748491  0.84500179  0.90790913  1
  O  O42  1  0.97234553  0.17225015  0.59306684  1
  O  O43  1  0.19978729  0.02750874  0.59302355  1
  O  O44  1  0.82791546  0.80022822  0.59315420  1
  O  O45  1  0.97437001  0.80880781  0.09093800  1
  O  O46  1  0.83417547  0.02369365  0.09094490  1
  O  O47  1  0.19106603  0.16213086  0.09020419  1
  O  O48  1  0.69301751  0.16833088  0.74160959  1
  O  O49  1  0.47440295  0.30664164  0.74152143  1
  O  O50  1  0.83050506  0.52513849  0.74173365  1
  O  O51  1  0.69090375  0.52967465  0.24166658  1
  O  O52  1  0.82919206  0.30907046  0.24178731  1
  O  O53  1  0.46881143  0.16411929  0.24160836  1
  O  O54  1  0.64555427  0.49805850  0.92465552  1
  O  O55  1  0.86352858  0.35963350  0.92474431  1
  O  O56  1  0.50602829  0.14535966  0.92474442  1
  O  O57  1  0.64087083  0.14068538  0.42543045  1
  O  O58  1  0.50118015  0.36040633  0.42515826  1
  O  O59  1  0.86011704  0.49919654  0.42529241  1
  O  O60  1  0.35632357  0.49329563  0.07487049  1
  O  O61  1  0.13473971  0.63724103  0.07570410  1
  O  O62  1  0.50363947  0.86399051  0.07621421  1
  O  O63  1  0.36093172  0.86221863  0.57300434  1
  O  O64  1  0.50127945  0.63890054  0.57290049  1
  O  O65  1  0.13783801  0.49878866  0.57295668  1
  O  O66  1  0.30861015  0.83674581  0.25989727  1
  O  O67  1  0.52958881  0.69570862  0.25994321  1
  O  O68  1  0.17497322  0.48315781  0.26128412  1
  O  O69  1  0.30422016  0.46643927  0.75783619  1
  O  O70  1  0.15941617  0.69108119  0.75833293  1
  O  O71  1  0.53286363  0.83898357  0.75715155  1
loop_
_geom_bond_atom_site_label_1
_geom_bond_atom_site_label_2
_geom_bond_distance
_geom_bond_site_symmetry_2
Na0 O40 2.538636 1_655
Na0 O41 2.540732 1_555
Na0 O47 2.570274 1_666
Na0 O46 2.582213 1_566
Na0 O39 2.584757 1_665
Na0 O45 2.585023 1_556
Na1 O50 2.530175 1_555
Na1 O48 2.532800 1_555
Na1 O49 2.540593 1_555
Na1 O56 2.621781 1_555
Na1 O54 2.625304 1_555
Na1 O55 2.675035 1_555
Na2 O58 2.530411 1_555
Na2 O57 2.539001 1_555
Na2 O59 2.541081 1_555
Na2 O52 2.634171 1_555
Na2 O51 2.687794 1_555
Na2 O53 2.687861 1_555
Nb0 O2 1.928551 1_555
Nb0 O37 1.953565 1_545
Nb0 O38 1.962095 1_655
Nb0 O36 1.991933 1_645
Nb0 O1 2.053688 1_545
Nb0 O0 2.053726 1_655
Nb1 O43 1.965412 1_555
Nb1 O42 1.966942 1_455
Nb1 O44 1.969797 1_445
Nb1 O7 2.005935 1_555
Nb1 O6 2.009704 1_445
Nb1 O8 2.017351 1_545
Nb2 O52 1.922783 1_555
Nb2 O15 1.986389 1_555
Nb2 O51 1.991541 1_555
Nb2 O53 1.997063 1_555
Nb2 O16 2.003214 1_555
Nb2 O17 2.023175 1_555
Nb3 O54 1.923517 1_555
Nb3 O56 1.927737 1_555
Nb3 O18 1.998835 1_556
Nb3 O55 2.005772 1_555
Nb3 O19 2.022499 1_556
Nb3 O20 2.039024 1_556
Nb4 O26 1.924068 1_554
Nb4 O24 1.925337 1_554
Nb4 O62 1.986711 1_555
Nb4 O61 2.014708 1_555
Nb4 O60 2.022174 1_555
Nb4 O25 2.040485 1_554
Nb5 O35 1.936497 1_555
Nb5 O34 1.937046 1_555
Nb5 O71 1.964998 1_555
Nb5 O69 1.998159 1_555
Nb5 O70 2.006628 1_555
Nb5 O33 2.066438 1_555
O0 P0 1.538362 1_545
O1 P1 1.541161 1_555
O2 Si0 1.627953 1_655
O3 P2 1.529848 1_555
O3 Ti0 1.993025 1_545
O4 P3 1.539746 1_555
O4 Ti0 1.954994 1_655
O5 P4 1.525553 1_555
O5 Ti0 2.011439 1_645
O6 P4 1.547068 1_565
O7 P2 1.550066 1_555
O8 P3 1.546350 1_455
O9 P1 1.540581 1_555
O9 Ti1 1.936904 1_665
O10 Si0 1.633243 1_555
O10 Ti1 1.812121 1_555
O11 P0 1.543261 1_555
O11 Ti1 1.931811 1_565
O12 P5 1.546070 1_555
O12 Ti2 1.924969 1_555
O13 P6 1.546098 1_555
O13 Ti2 1.923913 1_555
O14 P7 1.547001 1_555
O14 Ti2 1.920262 1_555
O15 P8 1.551071 1_555
O16 P9 1.544777 1_555
O17 P10 1.537366 1_555
O18 P10 1.556733 1_555
O19 P8 1.546982 1_555
O20 P9 1.541882 1_555
O21 P6 1.537042 1_555
O21 Ti3 1.938730 1_555
O22 P7 1.538040 1_555
O22 Ti3 1.936883 1_555
O23 P5 1.537554 1_555
O23 Ti3 1.936335 1_555
O24 Si1 1.631828 1_555
O25 P11 1.543895 1_555
O26 Si2 1.633777 1_555
O27 P12 1.535865 1_555
O27 Ti4 1.953503 1_555
O28 P13 1.532728 1_555
O28 Ti4 1.968012 1_555
O29 P14 1.534653 1_555
O29 Ti4 1.961444 1_555
O30 P14 1.535096 1_555
O30 Ti5 1.973091 1_555
O31 P12 1.522455 1_555
O31 Ti5 2.027282 1_555
O32 P13 1.531108 1_555
O32 Ti5 1.990055 1_555
O33 P11 1.533194 1_555
O34 Si2 1.620687 1_555
O35 Si1 1.622697 1_555
O36 P14 1.558900 1_555
O37 P12 1.572468 1_555
O38 P13 1.570207 1_555
O39 P11 1.525430 1_555
O39 Ti0 2.025425 1_545
O40 Si2 1.609422 1_555
O40 Ti0 1.887356 1_555
O41 Si1 1.607857 1_555
O41 Ti0 1.890286 1_655
O42 P5 1.563477 1_555
O43 P6 1.562753 1_555
O44 P7 1.562618 1_555
O45 P8 1.524757 1_555
O45 Ti1 2.072131 1_665
O46 P9 1.529414 1_555
O46 Ti1 2.039442 1_655
O47 P10 1.531495 1_555
O47 Ti1 2.028943 1_555
O48 P4 1.539538 1_555
O48 Ti2 2.023127 1_555
O49 P2 1.542006 1_555
O49 Ti2 2.016966 1_555
O50 P3 1.539897 1_555
O50 Ti2 2.022773 1_555
O51 P1 1.572093 1_555
O52 Si0 1.647304 1_655
O53 P0 1.569656 1_545
O54 Si1 1.638426 1_555
O55 P11 1.558512 1_655
O56 Si2 1.636940 1_545
O57 P12 1.551274 1_545
O57 Ti3 1.997953 1_555
O58 P13 1.549861 1_555
O58 Ti3 2.002145 1_555
O59 P14 1.552369 1_655
O59 Ti3 1.994831 1_555
O60 P10 1.532743 1_555
O61 P8 1.534808 1_455
O62 P9 1.543205 1_565
O63 P6 1.528710 1_565
O63 Ti4 1.962926 1_555
O64 P7 1.528047 1_555
O64 Ti4 1.967273 1_555
O65 P5 1.528143 1_455
O65 Ti4 1.963986 1_555
O66 P0 1.518980 1_555
O66 Ti5 1.971340 1_555
O67 P1 1.517734 1_555
O67 Ti5 1.975297 1_555
O68 Si0 1.606858 1_555
O68 Ti5 1.839882 1_555
O69 P2 1.548761 1_555
O70 P3 1.545894 1_455
O71 P4 1.558878 1_565
