# generated using pymatgen
data_LaLuO3
_symmetry_space_group_name_H-M   'P 1'
_cell_length_a   5.78622784
_cell_length_b   5.97112351
_cell_length_c   8.32190561
_cell_angle_alpha   90.00000000
_cell_angle_beta   90.00000000
_cell_angle_gamma   90.00000000
_symmetry_Int_Tables_number   1
_chemical_formula_structural   LaLuO3
_chemical_formula_sum   'La4 Lu4 O12'
_cell_volume   287.52417803
_cell_formula_units_Z   4
loop_
 _symmetry_equiv_pos_site_id
 _symmetry_equiv_pos_as_xyz
  1  'x, y, z'
loop_
 _atom_site_type_symbol
 _atom_site_label
 _atom_site_symmetry_multiplicity
 _atom_site_fract_x
 _atom_site_fract_y
 _atom_site_fract_z
 _atom_site_occupancy
  La  La0  1  0.01398753  0.95124309  0.75000000  1
  La  La1  1  0.51398753  0.54875691  0.25000000  1
  La  La2  1  0.98601247  0.04875691  0.25000000  1
  La  La3  1  0.48601247  0.45124309  0.75000000  1
  Lu  Lu0  1  0.50000000  0.00000000  0.50000000  1
  Lu  Lu1  1  -0.00000000  0.50000000  0.00000000  1
  Lu  Lu2  1  0.50000000  0.00000000  0.00000000  1
  Lu  Lu3  1  -0.00000000  0.50000000  0.50000000  1
  O  O0  1  0.69551722  0.30292009  0.06176970  1
  O  O1  1  0.80448278  0.80292009  0.06176970  1
  O  O2  1  0.30448278  0.69707991  0.93823030  1
  O  O3  1  0.69551722  0.30292009  0.43823030  1
  O  O4  1  0.19551722  0.19707991  0.56176970  1
  O  O5  1  0.80448278  0.80292009  0.43823030  1
  O  O6  1  0.11672518  0.45184460  0.25000000  1
  O  O7  1  0.19551722  0.19707991  0.93823030  1
  O  O8  1  0.30448278  0.69707991  0.56176970  1
  O  O9  1  0.61672518  0.04815540  0.75000000  1
  O  O10  1  0.38327482  0.95184460  0.25000000  1
  O  O11  1  0.88327482  0.54815540  0.75000000  1
loop_
_geom_bond_atom_site_label_1
_geom_bond_atom_site_label_2
_geom_bond_distance
_geom_bond_site_symmetry_2
La0 O9 2.370371 1_465
La0 O7 2.389936 1_565
La0 O4 2.389936 1_565
La0 O11 2.522923 1_455
La0 O2 2.753594 1_555
La0 O8 2.753594 1_555
La0 O1 2.997572 1_456
La0 O5 2.997572 1_455
La1 O6 2.370371 1_555
La1 O3 2.389936 1_555
La1 O0 2.389936 1_555
La1 O10 2.522923 1_555
La1 O5 2.753594 1_555
La1 O1 2.753594 1_555
La1 O8 2.997572 1_555
La1 O2 2.997572 1_554
La2 O10 2.370371 1_645
La2 O5 2.389936 1_545
La2 O1 2.389936 1_545
La2 O6 2.522923 1_655
La2 O3 2.753594 1_555
La2 O0 2.753594 1_555
La2 O4 2.997572 1_655
La2 O7 2.997572 1_654
La3 O11 2.370371 1_555
La3 O2 2.389936 1_555
La3 O8 2.389936 1_555
La3 O9 2.522923 1_555
La3 O7 2.753594 1_555
La3 O4 2.753594 1_555
La3 O0 2.997572 1_556
La3 O3 2.997572 1_555
Lu0 O4 2.180145 1_555
Lu0 O5 2.180145 1_545
Lu0 O8 2.194483 1_545
Lu0 O3 2.194483 1_555
Lu0 O9 2.206179 1_555
Lu0 O10 2.206179 1_545
Lu1 O0 2.180145 1_455
Lu1 O2 2.180145 1_554
Lu1 O7 2.194483 1_554
Lu1 O1 2.194483 1_455
Lu1 O6 2.206179 1_555
Lu1 O11 2.206179 1_454
Lu2 O7 2.180145 1_554
Lu2 O1 2.180145 1_545
Lu2 O2 2.194483 1_544
Lu2 O0 2.194483 1_555
Lu2 O9 2.206179 1_554
Lu2 O10 2.206179 1_545
Lu3 O8 2.180145 1_555
Lu3 O3 2.180145 1_455
Lu3 O4 2.194483 1_555
Lu3 O5 2.194483 1_455
Lu3 O6 2.206179 1_555
Lu3 O11 2.206179 1_455
