# generated using pymatgen
data_K3BiTe3
_symmetry_space_group_name_H-M   'P 1'
_cell_length_a   10.42660937
_cell_length_b   10.42660937
_cell_length_c   10.42660937
_cell_angle_alpha   90.00000000
_cell_angle_beta   90.00000000
_cell_angle_gamma   90.00000000
_symmetry_Int_Tables_number   1
_chemical_formula_structural   K3BiTe3
_chemical_formula_sum   'K12 Bi4 Te12'
_cell_volume   1133.52031865
_cell_formula_units_Z   4
loop_
 _symmetry_equiv_pos_site_id
 _symmetry_equiv_pos_as_xyz
  1  'x, y, z'
loop_
 _atom_site_type_symbol
 _atom_site_label
 _atom_site_symmetry_multiplicity
 _atom_site_fract_x
 _atom_site_fract_y
 _atom_site_fract_z
 _atom_site_occupancy
  K  K0  1  0.57504977  0.57504977  0.57504977  1
  K  K1  1  0.92495023  0.42495023  0.07504977  1
  K  K2  1  0.07504977  0.92495023  0.42495023  1
  K  K3  1  0.42495023  0.07504977  0.92495023  1
  K  K4  1  0.32621673  0.32621673  0.32621673  1
  K  K5  1  0.17378327  0.67378327  0.82621673  1
  K  K6  1  0.82621673  0.17378327  0.67378327  1
  K  K7  1  0.67378327  0.82621673  0.17378327  1
  K  K8  1  0.81835957  0.81835957  0.81835957  1
  K  K9  1  0.68164043  0.18164043  0.31835957  1
  K  K10  1  0.31835957  0.68164043  0.18164043  1
  K  K11  1  0.18164043  0.31835957  0.68164043  1
  Bi  Bi0  1  0.96426310  0.53573690  0.46426310  1
  Bi  Bi1  1  0.46426310  0.96426310  0.53573690  1
  Bi  Bi2  1  0.03573690  0.03573690  0.03573690  1
  Bi  Bi3  1  0.53573690  0.46426310  0.96426310  1
  Te  Te0  1  0.77220995  0.11703386  0.99969358  1
  Te  Te1  1  0.72779005  0.88296614  0.49969358  1
  Te  Te2  1  0.27220995  0.38296614  0.00030642  1
  Te  Te3  1  0.11703386  0.99969358  0.77220995  1
  Te  Te4  1  0.22779005  0.61703386  0.50030642  1
  Te  Te5  1  0.50030642  0.22779005  0.61703386  1
  Te  Te6  1  0.61703386  0.50030642  0.22779005  1
  Te  Te7  1  0.88296614  0.49969358  0.72779005  1
  Te  Te8  1  0.00030642  0.27220995  0.38296614  1
  Te  Te9  1  0.38296614  0.00030642  0.27220995  1
  Te  Te10  1  0.99969358  0.77220995  0.11703386  1
  Te  Te11  1  0.49969358  0.72779005  0.88296614  1
loop_
_geom_bond_atom_site_label_1
_geom_bond_atom_site_label_2
_geom_bond_distance
_geom_bond_site_symmetry_2
K0 Te1 3.668932 1_555
K0 Te7 3.668932 1_555
K0 Te11 3.668932 1_555
K0 Te6 3.729442 1_555
K0 Te4 3.729442 1_555
K0 Te5 3.729442 1_555
K1 Te6 3.668932 1_555
K1 Te0 3.668932 1_554
K1 Te8 3.668932 1_655
K1 Te2 3.729442 1_655
K1 Te7 3.729442 1_554
K1 Te10 3.729442 1_555
K2 Te4 3.668932 1_555
K2 Te10 3.668932 1_455
K2 Te9 3.668932 1_565
K2 Te8 3.729442 1_565
K2 Te3 3.729442 1_555
K2 Te1 3.729442 1_455
K3 Te5 3.668932 1_555
K3 Te3 3.668932 1_545
K3 Te2 3.668932 1_556
K3 Te9 3.729442 1_556
K3 Te0 3.729442 1_555
K3 Te11 3.729442 1_545
K4 Te8 3.494933 1_555
K4 Te9 3.494933 1_555
K4 Te2 3.494933 1_555
K4 Te4 3.680012 1_555
K4 Te5 3.680012 1_555
K4 Te6 3.680012 1_555
K5 Te3 3.494933 1_555
K5 Te4 3.494933 1_555
K5 Te11 3.494933 1_555
K5 Te7 3.680012 1_455
K5 Te2 3.680012 1_556
K5 Te10 3.680012 1_456
K6 Te0 3.494933 1_555
K6 Te5 3.494933 1_555
K6 Te7 3.494933 1_555
K6 Te1 3.680012 1_545
K6 Te3 3.680012 1_645
K6 Te8 3.680012 1_655
K7 Te10 3.494933 1_555
K7 Te6 3.494933 1_555
K7 Te1 3.494933 1_555
K7 Te9 3.680012 1_565
K7 Te11 3.680012 1_554
K7 Te0 3.680012 1_564
K8 Te1 3.519268 1_555
K8 Te7 3.519268 1_555
K8 Te11 3.519268 1_555
K8 Te0 3.674816 1_565
K8 Te3 3.674816 1_655
K8 Te10 3.674816 1_556
K9 Te0 3.519268 1_554
K9 Te6 3.519268 1_555
K9 Te8 3.519268 1_655
K9 Te9 3.674816 1_555
K9 Te5 3.674816 1_555
K9 Te1 3.674816 1_545
K10 Te10 3.519268 1_455
K10 Te9 3.519268 1_565
K10 Te4 3.519268 1_555
K10 Te2 3.674816 1_555
K10 Te6 3.674816 1_555
K10 Te11 3.674816 1_554
K11 Te3 3.519268 1_545
K11 Te5 3.519268 1_555
K11 Te2 3.519268 1_556
K11 Te8 3.674816 1_555
K11 Te7 3.674816 1_455
K11 Te4 3.674816 1_555
Bi0 Te8 2.899924 1_655
Bi0 Te7 2.899924 1_555
Bi0 Te4 2.899924 1_655
Bi1 Te9 2.899924 1_565
Bi1 Te1 2.899924 1_555
Bi1 Te5 2.899924 1_565
Bi2 Te10 2.899924 1_445
Bi2 Te0 2.899924 1_454
Bi2 Te3 2.899924 1_544
Bi3 Te2 2.899924 1_556
Bi3 Te11 2.899924 1_555
Bi3 Te6 2.899924 1_556
