# generated using pymatgen
data_Li2FeP2O7
_symmetry_space_group_name_H-M   'P 1'
_cell_length_a   5.70031001
_cell_length_b   7.85320289
_cell_length_c   7.95372867
_cell_angle_alpha   63.48971582
_cell_angle_beta   89.99872622
_cell_angle_gamma   68.71477312
_symmetry_Int_Tables_number   1
_chemical_formula_structural   Li2FeP2O7
_chemical_formula_sum   'Li4 Fe2 P4 O14'
_cell_volume   291.22408871
_cell_formula_units_Z   2
loop_
 _symmetry_equiv_pos_site_id
 _symmetry_equiv_pos_as_xyz
  1  'x, y, z'
loop_
 _atom_site_type_symbol
 _atom_site_label
 _atom_site_symmetry_multiplicity
 _atom_site_fract_x
 _atom_site_fract_y
 _atom_site_fract_z
 _atom_site_occupancy
  Li  Li0  1  0.04989400  0.54985800  0.80945900  1
  Li  Li1  1  0.95008000  0.45014400  0.19053100  1
  Li  Li2  1  0.40014200  0.54990000  0.30947800  1
  Li  Li3  1  0.59983900  0.45009600  0.69054000  1
  Fe  Fe0  1  0.99999700  0.99999300  0.00000800  1
  Fe  Fe1  1  0.00008000  0.00000300  0.49993000  1
  P  P0  1  0.75514800  0.77449100  0.36010300  1
  P  P1  1  0.24484700  0.22551000  0.63990300  1
  P  P2  1  0.47038200  0.77457700  0.86009900  1
  P  P3  1  0.52961700  0.22542000  0.13990600  1
  O  O0  1  0.88771500  0.77535000  0.52889300  1
  O  O1  1  0.51020100  0.99995400  0.24999400  1
  O  O2  1  0.30464600  0.76238300  0.71498400  1
  O  O3  1  0.74267600  0.61304700  0.92492500  1
  O  O4  1  0.66300600  0.22460100  0.97108100  1
  O  O5  1  0.93313300  0.76226900  0.21503100  1
  O  O6  1  0.69538500  0.23761300  0.28499500  1
  O  O7  1  0.33697800  0.77538500  0.02891500  1
  O  O8  1  0.48978400  0.00004900  0.75001600  1
  O  O9  1  0.35562000  0.38703300  0.57508000  1
  O  O10  1  0.06685700  0.23771800  0.78499300  1
  O  O11  1  0.11229900  0.22468000  0.47110500  1
  O  O12  1  0.25731300  0.38694700  0.07507300  1
  O  O13  1  0.64436200  0.61297600  0.42495600  1
loop_
_geom_bond_atom_site_label_1
_geom_bond_atom_site_label_2
_geom_bond_distance
_geom_bond_site_symmetry_2
Li0 O3 1.983016 1_455
Li0 O12 1.996732 1_556
Li0 O0 2.062543 1_455
Li0 O2 2.469614 1_555
Li0 O10 2.511938 1_555
Li1 O12 1.983056 1_655
Li1 O3 1.996655 1_554
Li1 O11 2.062571 1_655
Li1 O6 2.469379 1_555
Li1 O5 2.511988 1_555
Li2 O13 1.983400 1_555
Li2 O9 1.996655 1_555
Li2 O7 2.062651 1_555
Li2 O5 2.467959 1_455
Li2 O6 2.512882 1_555
Li3 O9 1.983240 1_555
Li3 O13 1.996568 1_555
Li3 O4 2.062551 1_555
Li3 O10 2.468012 1_655
Li3 O2 2.512633 1_555
Fe0 O4 2.007989 1_564
Fe0 O7 2.007997 1_655
Fe0 O10 2.054657 1_664
Fe0 O5 2.054692 1_555
Fe1 O11 2.008307 1_555
Fe1 O0 2.008355 1_445
Fe1 O6 2.054383 1_455
Fe1 O2 2.054426 1_545
O0 P0 1.544426 1_555
O1 P3 1.634716 1_565
O1 P0 1.634767 1_555
O2 P2 1.548648 1_555
O3 P2 1.506934 1_555
O4 P3 1.544468 1_556
O5 P0 1.548574 1_555
O6 P3 1.548598 1_555
O7 P2 1.544429 1_554
O8 P2 1.634718 1_545
O8 P1 1.634734 1_555
O9 P1 1.507060 1_555
O10 P1 1.548685 1_555
O11 P1 1.544298 1_555
O12 P3 1.506966 1_555
O13 P0 1.507053 1_555
