# generated using pymatgen
data_Na4Ta2Ti2Si5SO24
_symmetry_space_group_name_H-M   'P 1'
_cell_length_a   8.89250930
_cell_length_b   8.89438250
_cell_length_c   22.54498368
_cell_angle_alpha   90.10290087
_cell_angle_beta   89.90949272
_cell_angle_gamma   119.85290540
_symmetry_Int_Tables_number   1
_chemical_formula_structural   Na4Ta2Ti2Si5SO24
_chemical_formula_sum   'Na12 Ta6 Ti6 Si15 S3 O72'
_cell_volume   1546.54181166
_cell_formula_units_Z   3
loop_
 _symmetry_equiv_pos_site_id
 _symmetry_equiv_pos_as_xyz
  1  'x, y, z'
loop_
 _atom_site_type_symbol
 _atom_site_label
 _atom_site_symmetry_multiplicity
 _atom_site_fract_x
 _atom_site_fract_y
 _atom_site_fract_z
 _atom_site_occupancy
  Na  Na0  1  0.63821721  0.99983664  0.25038076  1
  Na  Na1  1  0.99750178  0.36314838  0.75012819  1
  Na  Na2  1  0.30058165  0.33751557  0.58128473  1
  Na  Na3  1  0.66537876  0.96755271  0.58100286  1
  Na  Na4  1  0.03038176  0.33142204  0.08406169  1
  Na  Na5  1  0.96378751  0.66720365  0.91502536  1
  Na  Na6  1  0.99939688  0.99761821  0.49325562  1
  Na  Na7  1  0.99058352  0.99685896  0.00110979  1
  Na  Na8  1  0.65409635  0.32932793  0.83544301  1
  Na  Na9  1  0.66205758  0.33791090  0.33398963  1
  Na  Na10  1  0.33059993  0.67153540  0.16483084  1
  Na  Na11  1  0.33044348  0.67460246  0.66397676  1
  Ta  Ta0  1  0.99954771  0.99535907  0.64606102  1
  Ta  Ta1  1  0.66457053  0.33482299  0.68817908  1
  Ta  Ta2  1  0.67284099  0.33197044  0.18911597  1
  Ta  Ta3  1  0.65865914  0.32570577  0.47802490  1
  Ta  Ta4  1  0.33960696  0.66617084  0.31063376  1
  Ta  Ta5  1  0.33628468  0.65944445  0.81158671  1
  Ti  Ti0  1  0.99972392  0.01224531  0.35132763  1
  Ti  Ti1  1  0.98812193  0.00588807  0.85230267  1
  Ti  Ti2  1  0.98781396  0.98300636  0.14938967  1
  Ti  Ti3  1  0.69164320  0.34578714  0.98078545  1
  Ti  Ti4  1  0.34417478  0.66979993  0.02038088  1
  Ti  Ti5  1  0.34201902  0.66260022  0.51934174  1
  Si  Si0  1  0.27952768  0.00029149  0.25051320  1
  Si  Si1  1  0.71987652  0.71219186  0.25216548  1
  Si  Si2  1  0.00777257  0.28743555  0.24787945  1
  Si  Si3  1  0.28700692  0.27953784  0.75187634  1
  Si  Si4  1  0.00037715  0.71547075  0.75328860  1
  Si  Si5  1  0.70708969  0.99679124  0.74990553  1
  Si  Si6  1  0.96006448  0.34167810  0.58267123  1
  Si  Si7  1  0.37504333  0.03751040  0.58303557  1
  Si  Si8  1  0.67076413  0.62260948  0.58165398  1
  Si  Si9  1  0.96291660  0.63198799  0.08295935  1
  Si  Si10  1  0.66459896  0.03941178  0.08179444  1
  Si  Si11  1  0.62537721  0.66459075  0.91860004  1
  Si  Si12  1  0.04880315  0.37311425  0.91873297  1
  Si  Si13  1  0.62738914  0.95314225  0.41676448  1
  Si  Si14  1  0.32823463  0.37230189  0.41689105  1
  S  S0  1  0.38121470  0.33263436  0.08219662  1
  S  S1  1  0.33768724  0.95821025  0.91760598  1
  S  S2  1  0.04722635  0.66794152  0.41759486  1
  O  O0  1  0.19219466  0.03129295  0.30881232  1
  O  O1  1  0.83647583  0.80404326  0.30957004  1
  O  O2  1  0.96029122  0.16226897  0.30590215  1
  O  O3  1  0.19017578  0.16102517  0.80869436  1
  O  O4  1  0.97085517  0.80223396  0.81186964  1
  O  O5  1  0.83589862  0.03688500  0.80638327  1
  O  O6  1  0.79639837  0.96854223  0.69039694  1
  O  O7  1  0.16675458  0.20320356  0.69163015  1
  O  O8  1  0.03006266  0.83514595  0.69389169  1
  O  O9  1  0.79755777  0.83709391  0.19334864  1
  O  O10  1  0.03246677  0.20243771  0.18769857  1
  O  O11  1  0.16010884  0.96941465  0.19181444  1
  O  O12  1  0.86763611  0.36345905  0.64278004  1
  O  O13  1  0.50345568  0.13469976  0.64000546  1
  O  O14  1  0.63222955  0.49698632  0.63964393  1
  O  O15  1  0.85892755  0.49576214  0.13815525  1
  O  O16  1  0.63504893  0.13153835  0.14143241  1
  O  O17  1  0.48690665  0.35968131  0.13620304  1
  O  O18  1  0.46393386  0.31018819  0.02889510  1
  O  O19  1  0.84058798  0.53674522  0.02395647  1
  O  O20  1  0.69319365  0.17369497  0.02674519  1
  O  O21  1  0.46612957  0.17027677  0.52657175  1
  O  O22  1  0.70009703  0.52968794  0.52474937  1
  O  O23  1  0.82739183  0.29842320  0.52705878  1
  O  O24  1  0.52472031  0.69517977  0.97433643  1
  O  O25  1  0.16628682  0.47402793  0.97627625  1
  O  O26  1  0.30455426  0.84312595  0.97009364  1
  O  O27  1  0.52574692  0.83525787  0.47559550  1
  O  O28  1  0.30615445  0.46820357  0.47646282  1
  O  O29  1  0.15296425  0.68931045  0.47091116  1
  O  O30  1  0.12653677  0.63922595  0.36346443  1
  O  O31  1  0.50210771  0.86572146  0.35846578  1
  O  O32  1  0.35684425  0.50129848  0.36057994  1
  O  O33  1  0.13229260  0.50061388  0.85958011  1
  O  O34  1  0.36166563  0.87334696  0.86315463  1
  O  O35  1  0.49993900  0.64150563  0.86073994  1
  O  O36  1  0.02689775  0.82080147  0.41218121  1
  O  O37  1  0.81627079  0.97034393  0.41096326  1
  O  O38  1  0.16027829  0.18157756  0.41060589  1
  O  O39  1  0.02758438  0.18252052  0.91050773  1
  O  O40  1  0.17554414  0.96764878  0.91170644  1
  O  O41  1  0.81966453  0.83267545  0.91087131  1
  O  O42  1  0.97506768  0.16397850  0.59022751  1
  O  O43  1  0.18981955  0.03314689  0.59011927  1
  O  O44  1  0.83583504  0.81789348  0.58918382  1
  O  O45  1  0.97848842  0.82033635  0.08951976  1
  O  O46  1  0.84550279  0.03606430  0.08819035  1
  O  O47  1  0.20440029  0.18086076  0.08750168  1
  O  O48  1  0.69746074  0.17481463  0.74338930  1
  O  O49  1  0.48058542  0.30830654  0.74386745  1
  O  O50  1  0.83401295  0.51956404  0.74339711  1
  O  O51  1  0.68698397  0.51736694  0.24087339  1
  O  O52  1  0.82820171  0.30245417  0.24221624  1
  O  O53  1  0.47813972  0.16669186  0.24127368  1
  O  O54  1  0.64210829  0.49055546  0.92474518  1
  O  O55  1  0.85657800  0.36108722  0.92364754  1
  O  O56  1  0.48930351  0.12846858  0.92318772  1
  O  O57  1  0.64512160  0.14695461  0.42381421  1
  O  O58  1  0.50863683  0.36340759  0.42304509  1
  O  O59  1  0.87201394  0.50711692  0.42267132  1
  O  O60  1  0.36022445  0.49094228  0.07818717  1
  O  O61  1  0.14641398  0.63389314  0.07558340  1
  O  O62  1  0.49147255  0.84929884  0.07418434  1
  O  O63  1  0.36190012  0.85192200  0.57568293  1
  O  O64  1  0.49741464  0.64230870  0.57688337  1
  O  O65  1  0.15368883  0.50516963  0.57629447  1
  O  O66  1  0.31225502  0.83359086  0.25809125  1
  O  O67  1  0.52606287  0.69768949  0.25758732  1
  O  O68  1  0.16906421  0.48278409  0.25827905  1
  O  O69  1  0.30092459  0.47247155  0.75799594  1
  O  O70  1  0.16927577  0.68708125  0.75837004  1
  O  O71  1  0.51594139  0.82914396  0.75820280  1
loop_
_geom_bond_atom_site_label_1
_geom_bond_atom_site_label_2
_geom_bond_distance
_geom_bond_site_symmetry_2
Na0 O67 2.361354 1_555
Na0 O52 2.367809 1_565
Na0 O66 2.520117 1_555
Na0 O53 2.525102 1_565
Na0 O31 2.718368 1_555
Na0 O16 2.729378 1_565
Na0 O2 2.782499 1_565
Na0 O9 2.790278 1_555
Na1 O48 2.344951 1_555
Na1 O69 2.376159 1_655
Na1 O50 2.467221 1_555
Na1 O70 2.507299 1_655
Na1 O12 2.683814 1_555
Na1 O33 2.749572 1_655
Na1 O5 2.819670 1_555
Na1 O7 2.854301 1_655
Na2 O43 2.384392 1_555
Na2 O64 2.387304 1_555
Na2 O65 2.425448 1_555
Na2 O42 2.520564 1_455
Na2 O28 2.624978 1_555
Na2 O7 2.760103 1_555
Na2 O21 2.840606 1_555
Na2 O14 2.877789 1_555
Na3 O63 2.364839 1_555
Na3 O42 2.426970 1_565
Na3 O44 2.472651 1_555
Na3 O64 2.511168 1_555
Na3 O27 2.668028 1_555
Na3 O6 2.727432 1_555
Na3 O23 2.828718 1_565
Na3 O13 2.858488 1_565
Na4 O46 2.305096 1_455
Na4 O61 2.361471 1_555
Na4 O47 2.501557 1_555
Na4 O60 2.547591 1_555
Na4 O10 2.608952 1_555
Na4 O25 2.729487 1_554
Na4 O15 2.855668 1_455
Na4 O20 2.906291 1_455
Na5 O40 2.383938 1_655
Na5 O41 2.386658 1_555
Na5 O55 2.403540 1_555
Na5 O54 2.494820 1_555
Na5 O4 2.605652 1_555
Na5 O19 2.704443 1_556
Na5 O33 2.863757 1_655
Na5 O26 2.908046 1_655
Na6 O37 2.401543 1_555
Na6 O38 2.422405 1_665
Na6 O36 2.499039 1_655
Na6 O44 2.652525 1_555
Na6 O43 2.685640 1_665
Na6 O42 2.705812 1_565
Na7 O46 2.465304 1_565
Na7 O45 2.508377 1_555
Na7 O41 2.524071 1_554
Na7 O39 2.544911 1_664
Na7 O47 2.643767 1_665
Na7 O40 2.692293 1_654
Na8 O54 2.502471 1_555
Na8 O49 2.529736 1_555
Na8 O56 2.578678 1_555
Na8 O55 2.603688 1_555
Na8 O48 2.619027 1_555
Na8 O50 2.652565 1_555
Na9 O58 2.498306 1_555
Na9 O51 2.581133 1_555
Na9 O57 2.600984 1_555
Na9 O53 2.623560 1_555
Na9 O59 2.636616 1_555
Na9 O52 2.648589 1_555
Na10 O61 2.511029 1_555
Na10 O62 2.544278 1_555
Na10 O66 2.597509 1_555
Na10 O60 2.621745 1_555
Na10 O68 2.631110 1_555
Na10 O67 2.656236 1_555
Na11 O63 2.469488 1_555
Na11 O65 2.508041 1_555
Na11 O64 2.560443 1_555
Na11 O70 2.596730 1_555
Na11 O71 2.620387 1_555
Na11 O69 2.708535 1_555
O0 Si0 1.617201 1_555
O0 Ti0 1.893029 1_455
O1 Si1 1.604542 1_555
O1 Ti0 1.935119 1_565
O2 Si2 1.632289 1_655
O2 Ti0 1.850453 1_555
O3 Si3 1.609714 1_555
O3 Ti1 1.905253 1_455
O4 Si4 1.614203 1_655
O4 Ti1 1.962965 1_565
O5 Si5 1.629963 1_545
O5 Ti1 1.832241 1_555
O6 Si5 1.639473 1_555
O6 Ta0 1.971205 1_555
O7 Si3 1.651601 1_555
O7 Ta0 1.986278 1_445
O8 Si4 1.649294 1_555
O8 Ta0 1.912713 1_455
O9 Si1 1.645625 1_555
O9 Ti2 1.828183 1_555
O10 Si2 1.619029 1_555
O10 Ti2 1.984001 1_445
O11 Si0 1.633158 1_565
O11 Ti2 1.861804 1_455
O12 Si6 1.644256 1_555
O12 Ta1 1.977489 1_555
O13 Si7 1.648873 1_555
O13 Ta1 1.964601 1_555
O14 Si8 1.642491 1_555
O14 Ta1 1.944225 1_555
O15 Si9 1.660733 1_555
O15 Ta2 1.944384 1_555
O16 Si10 1.660587 1_555
O16 Ta2 1.960745 1_555
O17 S0 1.483636 1_555
O17 Ta2 2.151885 1_555
O18 S0 1.472251 1_555
O18 Ti3 2.175530 1_554
O19 Si9 1.659381 1_555
O19 Ti3 1.828900 1_554
O20 Si10 1.653310 1_555
O20 Ti3 1.855660 1_554
O21 Si7 1.649520 1_555
O21 Ta3 1.919231 1_555
O22 Si8 1.614538 1_555
O22 Ta3 1.966189 1_555
O23 Si6 1.631857 1_555
O23 Ta3 1.975096 1_555
O24 Si11 1.640689 1_555
O24 Ti4 1.827828 1_556
O25 Si12 1.626854 1_555
O25 Ti4 1.944117 1_556
O26 S1 1.495946 1_555
O26 Ti4 2.081913 1_556
O27 Si13 1.653251 1_555
O27 Ti5 1.871590 1_555
O28 Si14 1.652784 1_555
O28 Ti5 1.863275 1_555
O29 S2 1.479836 1_555
O29 Ti5 2.116436 1_555
O30 S2 1.492457 1_555
O30 Ta4 2.146602 1_555
O31 Si13 1.646753 1_555
O31 Ta4 1.961100 1_555
O32 Si14 1.645130 1_555
O32 Ta4 1.916285 1_555
O33 Si12 1.667282 1_555
O33 Ta5 1.976138 1_555
O34 S1 1.509400 1_555
O34 Ta5 2.141866 1_555
O35 Si11 1.662418 1_555
O35 Ta5 1.899542 1_555
O36 S2 1.463360 1_555
O36 Ti0 2.293280 1_465
O37 Si13 1.614069 1_555
O37 Ti0 1.999364 1_565
O38 Si14 1.614287 1_555
O38 Ti0 1.987678 1_455
O39 Si12 1.619962 1_555
O39 Ti1 1.938672 1_455
O40 S1 1.491592 1_555
O40 Ti1 2.293478 1_465
O41 Si11 1.636739 1_555
O41 Ti1 2.016070 1_565
O42 Si6 1.660078 1_555
O42 Ta0 2.052767 1_545
O43 Si7 1.635700 1_555
O43 Ta0 1.998770 1_445
O44 Si8 1.631534 1_555
O44 Ta0 1.991508 1_555
O45 Si9 1.617319 1_555
O45 Ti2 1.948335 1_555
O46 Si10 1.630335 1_555
O46 Ti2 2.080935 1_545
O47 S0 1.481798 1_555
O47 Ti2 2.319299 1_445
O48 Si5 1.634609 1_545
O48 Ta1 2.020443 1_555
O49 Si3 1.619248 1_555
O49 Ta1 1.979672 1_555
O50 Si4 1.645557 1_655
O50 Ta1 2.013407 1_555
O51 Si1 1.627015 1_555
O51 Ta2 1.970698 1_555
O52 Si2 1.672451 1_655
O52 Ta2 1.943755 1_555
O53 Si0 1.658555 1_555
O53 Ta2 2.001836 1_555
O54 Si11 1.633264 1_555
O54 Ti3 2.005123 1_555
O55 Si12 1.662241 1_655
O55 Ti3 1.903951 1_555
O56 S1 1.447091 1_545
O56 Ti3 2.279431 1_555
O57 Si13 1.658383 1_545
O57 Ta3 1.959306 1_555
O58 Si14 1.651104 1_555
O58 Ta3 1.969949 1_555
O59 S2 1.506009 1_655
O59 Ta3 2.170840 1_555
O60 S0 1.512541 1_555
O60 Ti4 2.117455 1_555
O61 Si9 1.631619 1_455
O61 Ti4 2.044233 1_555
O62 Si10 1.633090 1_565
O62 Ti4 1.911056 1_555
O63 Si7 1.604039 1_565
O63 Ti5 2.043737 1_555
O64 Si8 1.639514 1_555
O64 Ti5 1.969725 1_555
O65 Si6 1.614680 1_455
O65 Ti5 2.019684 1_555
O66 Si0 1.656181 1_565
O66 Ta4 2.011865 1_555
O67 Si1 1.667353 1_555
O67 Ta4 1.946843 1_555
O68 Si2 1.627784 1_555
O68 Ta4 1.972240 1_555
O69 Si3 1.663390 1_555
O69 Ta5 1.948748 1_555
O70 Si4 1.646479 1_555
O70 Ta5 2.018812 1_555
O71 Si5 1.619999 1_555
O71 Ta5 1.969478 1_555
