# generated using pymatgen
data_ThP7
_symmetry_space_group_name_H-M   'P 1'
_cell_length_a   5.63346000
_cell_length_b   10.26069200
_cell_length_c   10.45611500
_cell_angle_alpha   90.00000000
_cell_angle_beta   90.00000000
_cell_angle_gamma   90.00000000
_symmetry_Int_Tables_number   1
_chemical_formula_structural   ThP7
_chemical_formula_sum   'Th4 P28'
_cell_volume   604.39688518
_cell_formula_units_Z   4
loop_
 _symmetry_equiv_pos_site_id
 _symmetry_equiv_pos_as_xyz
  1  'x, y, z'
loop_
 _atom_site_type_symbol
 _atom_site_label
 _atom_site_symmetry_multiplicity
 _atom_site_fract_x
 _atom_site_fract_y
 _atom_site_fract_z
 _atom_site_occupancy
  Th  Th0  1  0.63716600  0.48929000  0.66921400  1
  Th  Th1  1  0.13716600  0.01071000  0.33078600  1
  Th  Th2  1  0.36283400  0.98929000  0.83078600  1
  Th  Th3  1  0.86283400  0.51071000  0.16921400  1
  P  P0  1  0.00992100  0.75892100  0.49871700  1
  P  P1  1  0.50992100  0.74107900  0.50128300  1
  P  P2  1  0.99007900  0.25892100  0.00128300  1
  P  P3  1  0.49007900  0.24107900  0.99871700  1
  P  P4  1  0.67793300  0.75416900  0.79535300  1
  P  P5  1  0.17793300  0.74583100  0.20464700  1
  P  P6  1  0.32206700  0.25416900  0.70464700  1
  P  P7  1  0.82206700  0.24583100  0.29535300  1
  P  P8  1  0.54943100  0.73178100  0.28620300  1
  P  P9  1  0.04943100  0.76821900  0.71379700  1
  P  P10  1  0.45056900  0.23178100  0.21379700  1
  P  P11  1  0.95056900  0.26821900  0.78620300  1
  P  P12  1  0.27204700  0.75905500  0.00037600  1
  P  P13  1  0.77204700  0.74094500  0.99962400  1
  P  P14  1  0.72795300  0.25905500  0.49962400  1
  P  P15  1  0.22795300  0.24094500  0.50037600  1
  P  P16  1  0.63673000  0.94145700  0.26012100  1
  P  P17  1  0.13673000  0.55854300  0.73987900  1
  P  P18  1  0.36327000  0.44145700  0.23987900  1
  P  P19  1  0.86327000  0.05854300  0.76012100  1
  P  P20  1  0.20792900  0.55076200  0.94830300  1
  P  P21  1  0.70792900  0.94923800  0.05169700  1
  P  P22  1  0.79207100  0.05076200  0.55169700  1
  P  P23  1  0.29207100  0.44923800  0.44830300  1
  P  P24  1  0.55854200  0.44858100  0.94855500  1
  P  P25  1  0.05854200  0.05141900  0.05144500  1
  P  P26  1  0.44145800  0.94858100  0.55144500  1
  P  P27  1  0.94145800  0.55141900  0.44855500  1
loop_
_geom_bond_atom_site_label_1
_geom_bond_atom_site_label_2
_geom_bond_distance
_geom_bond_site_symmetry_2
P0 P27 2.226427 1_455
P0 P9 2.261902 1_555
P0 Th1 3.204945 1_565
P1 P26 2.226427 1_555
P1 P8 2.261902 1_555
P1 Th0 3.204945 1_555
P2 P25 2.226427 1_655
P2 Th3 3.204945 1_555
P3 Th2 3.204945 1_545
P4 P9 2.264481 1_655
P4 Th2 3.018015 1_555
P4 Th0 3.029681 1_555
P5 P8 2.264481 1_555
P5 Th3 3.018015 1_455
P5 Th1 3.029681 1_565
P6 Th0 3.018015 1_555
P6 Th2 3.029681 1_545
P7 Th1 3.018015 1_655
P7 Th3 3.029681 1_555
P8 Th3 3.123917 1_555
P9 Th2 3.123917 1_555
P10 P18 2.223702 1_555
P10 P3 2.261902 1_554
P10 P7 2.264481 1_555
P10 Th1 3.123917 1_555
P11 P19 2.223702 1_555
P11 P2 2.261902 1_556
P11 P6 2.264481 1_655
P11 Th0 3.123917 1_555
P12 P5 2.204880 1_555
P12 P20 2.234879 1_554
P12 Th2 2.997798 1_554
P13 P4 2.204880 1_555
P13 P21 2.234879 1_556
P13 Th3 2.997798 1_556
P14 P7 2.204880 1_555
P14 P22 2.234879 1_555
P14 Th0 2.997798 1_555
P15 P6 2.204880 1_555
P15 P23 2.234879 1_555
P15 Th1 2.997798 1_555
P16 P21 2.217346 1_555
P16 P8 2.223702 1_555
P16 Th1 2.995165 1_565
P16 Th1 2.999781 1_665
P17 P20 2.217346 1_555
P17 P9 2.223702 1_555
P17 Th0 2.995165 1_455
P17 Th0 2.999781 1_555
P18 P23 2.217346 1_555
P18 Th3 2.995165 1_555
P18 Th3 2.999781 1_455
P19 P22 2.217346 1_555
P19 Th2 2.995165 1_645
P19 Th2 2.999781 1_545
P20 P24 2.236185 1_555
P20 Th3 3.046939 1_456
P21 P25 2.236185 1_665
P21 Th2 3.046939 1_554
P22 P26 2.236185 1_545
P22 Th1 3.046939 1_655
P23 P27 2.236185 1_455
P23 Th0 3.046939 1_555
P24 P3 2.226427 1_555
P24 Th3 2.944192 1_556
P24 Th0 2.983598 1_555
P25 Th2 2.944192 1_544
P25 Th1 2.983598 1_555
P26 Th1 2.944192 1_565
P26 Th2 2.983598 1_555
P27 Th0 2.944192 1_555
P27 Th3 2.983598 1_555
