# generated using pymatgen
data_Na3MgInSi(SO6)2
_symmetry_space_group_name_H-M   'P 1'
_cell_length_a   9.12700923
_cell_length_b   9.09744777
_cell_length_c   22.62335914
_cell_angle_alpha   90.40594716
_cell_angle_beta   90.00000000
_cell_angle_gamma   120.10754842
_symmetry_Int_Tables_number   1
_chemical_formula_structural   Na3MgInSi(SO6)2
_chemical_formula_sum   'Na18 Mg6 In6 Si6 S12 O72'
_cell_volume   1624.98567963
_cell_formula_units_Z   6
loop_
 _symmetry_equiv_pos_site_id
 _symmetry_equiv_pos_as_xyz
  1  'x, y, z'
loop_
 _atom_site_type_symbol
 _atom_site_label
 _atom_site_symmetry_multiplicity
 _atom_site_fract_x
 _atom_site_fract_y
 _atom_site_fract_z
 _atom_site_occupancy
  Na  Na0  1  0.62375636  0.00340263  0.25416412  1
  Na  Na1  1  0.00932821  0.64611192  0.24011865  1
  Na  Na2  1  0.63678371  0.64611192  0.74011865  1
  Na  Na3  1  0.37964627  0.00340263  0.75416412  1
  Na  Na4  1  0.31703237  0.34760063  0.58550105  1
  Na  Na5  1  0.65974471  0.94738215  0.58096257  1
  Na  Na6  1  0.28763844  0.94738215  0.08096257  1
  Na  Na7  1  0.03056926  0.34760063  0.08550105  1
  Na  Na8  1  0.98210761  0.67975909  0.92493990  1
  Na  Na9  1  0.68903079  0.02845065  0.90613688  1
  Na  Na10  1  0.33941886  0.02845065  0.40613688  1
  Na  Na11  1  0.69765049  0.67975909  0.42493990  1
  Na  Na12  1  0.97513439  0.98647374  0.49701045  1
  Na  Na13  1  0.01133936  0.98647374  0.99701045  1
  Na  Na14  1  0.66018025  0.31013243  0.83084936  1
  Na  Na15  1  0.64995318  0.31013243  0.33084936  1
  Na  Na16  1  0.32752206  0.66775180  0.16414541  1
  Na  Na17  1  0.34022873  0.66775180  0.66414541  1
  Mg  Mg0  1  0.00561057  0.01186198  0.35039973  1
  Mg  Mg1  1  0.00625141  0.01186198  0.85039973  1
  Mg  Mg2  1  0.67722075  0.33460313  0.68360439  1
  Mg  Mg3  1  0.65738338  0.33460313  0.18360439  1
  Mg  Mg4  1  0.32207462  0.67308991  0.01670390  1
  Mg  Mg5  1  0.35101429  0.67308991  0.51670390  1
  In  In0  1  0.98062943  0.98199377  0.65161374  1
  In  In1  1  0.00136434  0.98199377  0.15161374  1
  In  In2  1  0.65766904  0.33514311  0.98588500  1
  In  In3  1  0.67747507  0.33514311  0.48588500  1
  In  In4  1  0.33874658  0.68043528  0.31965136  1
  In  In5  1  0.34168769  0.68043528  0.81965136  1
  Si  Si0  1  0.30315713  0.00637313  0.25288395  1
  Si  Si1  1  0.70321601  0.00637313  0.75288395  1
  Si  Si2  1  0.66440863  0.62497063  0.58454723  1
  Si  Si3  1  0.96056300  0.62497063  0.08454723  1
  Si  Si4  1  0.32970584  0.97180008  0.91876317  1
  Si  Si5  1  0.64209323  0.97180008  0.41876317  1
  S  S0  1  0.70308844  0.70198218  0.25218493  1
  S  S1  1  0.00019749  0.29255820  0.24986487  1
  S  S2  1  0.29236071  0.29255820  0.74986487  1
  S  S3  1  0.99889374  0.70198218  0.75218493  1
  S  S4  1  0.96999573  0.33850479  0.58485479  1
  S  S5  1  0.36654944  0.03534630  0.58492303  1
  S  S6  1  0.66879786  0.03534630  0.08492303  1
  S  S7  1  0.36851006  0.33850479  0.08485479  1
  S  S8  1  0.62620292  0.66559212  0.91726312  1
  S  S9  1  0.04412233  0.37129019  0.91761835  1
  S  S10  1  0.32716686  0.37129019  0.41761835  1
  S  S11  1  0.03938820  0.66559212  0.41726312  1
  O  O0  1  0.20790218  0.01937144  0.31142109  1
  O  O1  1  0.80828886  0.78571612  0.30486430  1
  O  O2  1  0.97564136  0.18059933  0.29958709  1
  O  O3  1  0.20495796  0.18059933  0.79958709  1
  O  O4  1  0.97742726  0.78571612  0.80486430  1
  O  O5  1  0.81146926  0.01937144  0.81142109  1
  O  O6  1  0.77502639  0.96326637  0.69179534  1
  O  O7  1  0.19896843  0.21953164  0.69277695  1
  O  O8  1  0.04192135  0.81467087  0.69915330  1
  O  O9  1  0.77274952  0.81467087  0.19915330  1
  O  O10  1  0.02056321  0.21953164  0.19277695  1
  O  O11  1  0.18823998  0.96326637  0.19179534  1
  O  O12  1  0.88388832  0.35565669  0.63677165  1
  O  O13  1  0.47883510  0.11829638  0.63647921  1
  O  O14  1  0.64082057  0.50781247  0.64162019  1
  O  O15  1  0.86699290  0.50781247  0.14162019  1
  O  O16  1  0.63946228  0.11829638  0.13647921  1
  O  O17  1  0.47176937  0.35565669  0.13677165  1
  O  O18  1  0.43363799  0.29430434  0.03090447  1
  O  O19  1  0.85712939  0.54315227  0.02168634  1
  O  O20  1  0.69934413  0.13803468  0.02995788  1
  O  O21  1  0.43869155  0.13803468  0.52995788  1
  O  O22  1  0.68602388  0.54315227  0.52168634  1
  O  O23  1  0.86066735  0.29430434  0.53090447  1
  O  O24  1  0.53335928  0.68041209  0.96752094  1
  O  O25  1  0.14342887  0.45219866  0.97151323  1
  O  O26  1  0.30428962  0.85247898  0.97552209  1
  O  O27  1  0.54818836  0.85247898  0.47552209  1
  O  O28  1  0.30876879  0.45219866  0.47151323  1
  O  O29  1  0.14705181  0.68041209  0.46752094  1
  O  O30  1  0.10546441  0.63557928  0.36046020  1
  O  O31  1  0.52492963  0.89870060  0.35749083  1
  O  O32  1  0.35078350  0.47681006  0.36432005  1
  O  O33  1  0.12602557  0.47681006  0.86432005  1
  O  O34  1  0.37376998  0.89870060  0.85749083  1
  O  O35  1  0.53011387  0.63557928  0.86046020  1
  O  O36  1  0.03039093  0.82496982  0.41394452  1
  O  O37  1  0.82262165  0.97739762  0.41036813  1
  O  O38  1  0.17962854  0.19801431  0.41231875  1
  O  O39  1  0.01838577  0.19801431  0.91231875  1
  O  O40  1  0.15477598  0.97739762  0.91036813  1
  O  O41  1  0.79457889  0.82496982  0.91394452  1
  O  O42  1  0.99934845  0.18930530  0.58993241  1
  O  O43  1  0.20033127  0.02962052  0.59210754  1
  O  O44  1  0.83131099  0.82132518  0.58322234  1
  O  O45  1  0.99001419  0.82132518  0.08322234  1
  O  O46  1  0.82928925  0.02962052  0.09210754  1
  O  O47  1  0.18995685  0.18930530  0.08993241  1
  O  O48  1  0.66941783  0.16595282  0.74536459  1
  O  O49  1  0.46511862  0.31295145  0.74619963  1
  O  O50  1  0.84010430  0.53823982  0.74383843  1
  O  O51  1  0.69813652  0.53823982  0.24383843  1
  O  O52  1  0.84783383  0.31295145  0.24619963  1
  O  O53  1  0.49653599  0.16595282  0.24536459  1
  O  O54  1  0.65831024  0.51984291  0.92023011  1
  O  O55  1  0.87262518  0.35775720  0.91969269  1
  O  O56  1  0.51314313  0.15623241  0.92299389  1
  O  O57  1  0.64309028  0.15623241  0.42299389  1
  O  O58  1  0.48513301  0.35775720  0.41969269  1
  O  O59  1  0.86153367  0.51984291  0.42023011  1
  O  O60  1  0.35584454  0.49272517  0.07720521  1
  O  O61  1  0.15040274  0.64210444  0.08102841  1
  O  O62  1  0.51928935  0.86376300  0.07819550  1
  O  O63  1  0.34447264  0.86376300  0.57819550  1
  O  O64  1  0.49170070  0.64210444  0.58102841  1
  O  O65  1  0.13687963  0.49272517  0.57720521  1
  O  O66  1  0.31410139  0.82386678  0.25195963  1
  O  O67  1  0.52846527  0.67575418  0.25702215  1
  O  O68  1  0.15331370  0.46567495  0.25594098  1
  O  O69  1  0.31236025  0.46567495  0.75594098  1
  O  O70  1  0.14728792  0.67575418  0.75702215  1
  O  O71  1  0.50976439  0.82386678  0.75195963  1
loop_
_geom_bond_atom_site_label_1
_geom_bond_atom_site_label_2
_geom_bond_distance
_geom_bond_site_symmetry_2
Na0 O53 2.302508 1_555
Na0 O66 2.454685 1_545
Na0 O31 2.520881 1_545
Na0 O52 2.524812 1_555
Na0 O67 2.654699 1_545
Na0 O16 2.844418 1_555
Na0 O9 2.942490 1_545
Na0 O2 2.958345 1_555
Na1 O66 2.430116 1_555
Na1 O51 2.498394 1_455
Na1 O15 2.560612 1_455
Na1 O68 2.592732 1_555
Na1 O52 2.627137 1_455
Na1 O11 2.739427 1_555
Na1 O30 2.877376 1_555
Na2 O71 2.430124 1_555
Na2 O50 2.498402 1_555
Na2 O14 2.560615 1_555
Na2 O69 2.592740 1_555
Na2 O49 2.627137 1_555
Na2 O6 2.739427 1_555
Na2 O35 2.877379 1_555
Na3 O48 2.302516 1_555
Na3 O71 2.454678 1_545
Na3 O34 2.520879 1_545
Na3 O49 2.524810 1_555
Na3 O70 2.654701 1_545
Na3 O13 2.844419 1_555
Na3 O8 2.942490 1_545
Na3 O3 2.958345 1_555
Na4 O64 2.334252 1_555
Na4 O42 2.510770 1_455
Na4 O43 2.537730 1_555
Na4 O65 2.581339 1_555
Na4 O7 2.681263 1_555
Na4 O28 2.769134 1_555
Na4 O14 2.849923 1_555
Na4 O21 2.921751 1_555
Na5 O44 2.360546 1_555
Na5 O64 2.406680 1_555
Na5 O27 2.561486 1_555
Na5 O63 2.581824 1_555
Na5 O6 2.693954 1_555
Na5 O42 2.764435 1_565
Na5 O23 2.974984 1_565
Na5 O13 3.044587 1_565
Na6 O45 2.360554 1_455
Na6 O61 2.406679 1_555
Na6 O26 2.561482 1_554
Na6 O62 2.581806 1_555
Na6 O11 2.693957 1_555
Na6 O47 2.764441 1_565
Na6 O18 2.974984 1_565
Na6 O16 3.044587 1_565
Na7 O61 2.334254 1_555
Na7 O47 2.510762 1_555
Na7 O46 2.537731 1_455
Na7 O60 2.581322 1_555
Na7 O10 2.681261 1_555
Na7 O25 2.769130 1_554
Na7 O15 2.849923 1_455
Na7 O20 2.921751 1_455
Na8 O40 2.378174 1_655
Na8 O19 2.500500 1_556
Na8 O54 2.558527 1_555
Na8 O55 2.579208 1_555
Na8 O41 2.647567 1_555
Na8 O26 2.786465 1_655
Na8 O4 2.896354 1_555
Na9 O5 2.436650 1_555
Na9 O56 2.437181 1_555
Na9 O41 2.485904 1_545
Na9 O39 2.603871 1_655
Na9 O55 2.612977 1_555
Na9 O34 2.730930 1_545
Na9 O20 2.952288 1_556
Na10 O0 2.436646 1_555
Na10 O57 2.437197 1_555
Na10 O36 2.485897 1_545
Na10 O38 2.603863 1_555
Na10 O58 2.612975 1_555
Na10 O31 2.730930 1_545
Na10 O21 2.952291 1_555
Na11 O37 2.378173 1_555
Na11 O22 2.500504 1_555
Na11 O59 2.558543 1_555
Na11 O58 2.579205 1_555
Na11 O36 2.647576 1_655
Na11 O27 2.786465 1_555
Na11 O1 2.896355 1_555
Na12 O37 2.380964 1_555
Na12 O44 2.418139 1_555
Na12 O36 2.578545 1_655
Na12 O38 2.703134 1_665
Na12 O42 2.721941 1_565
Na12 O43 2.861093 1_665
Na13 O40 2.380964 1_555
Na13 O45 2.418139 1_456
Na13 O41 2.578545 1_455
Na13 O39 2.703134 1_565
Na13 O47 2.721941 1_566
Na13 O46 2.861093 1_466
Na14 O48 2.354305 1_555
Na14 O56 2.502640 1_555
Na14 O49 2.623774 1_555
Na14 O55 2.670592 1_555
Na14 O50 2.741725 1_555
Na14 O54 2.776143 1_555
Na15 O53 2.354305 1_555
Na15 O57 2.502640 1_555
Na15 O52 2.623774 1_555
Na15 O58 2.670592 1_555
Na15 O51 2.741725 1_555
Na15 O59 2.776143 1_555
Na16 O61 2.412252 1_555
Na16 O66 2.472539 1_555
Na16 O60 2.615226 1_555
Na16 O62 2.634793 1_555
Na16 O68 2.709633 1_555
Na16 O67 2.765456 1_555
Na17 O64 2.412252 1_555
Na17 O71 2.472539 1_555
Na17 O65 2.615226 1_555
Na17 O63 2.634793 1_555
Na17 O69 2.709633 1_555
Na17 O70 2.765456 1_555
Mg0 O0 2.016305 1_555
Mg0 O2 2.049150 1_455
Mg0 O37 2.051573 1_445
Mg0 O38 2.149593 1_555
Mg0 O1 2.188630 1_445
Mg0 O36 2.330040 1_545
Mg1 O5 2.016305 1_455
Mg1 O3 2.049150 1_555
Mg1 O40 2.051573 1_545
Mg1 O39 2.149593 1_555
Mg1 O4 2.188630 1_445
Mg1 O41 2.330040 1_445
Mg2 O14 2.010469 1_555
Mg2 O48 2.057206 1_555
Mg2 O12 2.087496 1_555
Mg2 O13 2.164055 1_555
Mg2 O50 2.168003 1_555
Mg2 O49 2.326612 1_555
Mg3 O15 2.010469 1_555
Mg3 O53 2.057206 1_555
Mg3 O17 2.087496 1_555
Mg3 O16 2.164055 1_555
Mg3 O51 2.168003 1_555
Mg3 O52 2.326612 1_555
Mg4 O26 1.960878 1_554
Mg4 O61 2.053021 1_555
Mg4 O25 2.103738 1_554
Mg4 O24 2.198498 1_554
Mg4 O62 2.239985 1_555
Mg4 O60 2.280369 1_555
Mg5 O27 1.960878 1_555
Mg5 O64 2.053021 1_555
Mg5 O28 2.103738 1_555
Mg5 O29 2.198498 1_555
Mg5 O63 2.239985 1_555
Mg5 O65 2.280369 1_555
In0 O6 2.014507 1_555
In0 O44 2.087397 1_555
In0 O8 2.159696 1_655
In0 O43 2.271034 1_665
In0 O7 2.271429 1_665
In0 O42 2.290738 1_565
In1 O11 2.014507 1_555
In1 O45 2.087397 1_455
In1 O9 2.159696 1_455
In1 O46 2.271034 1_465
In1 O10 2.271429 1_565
In1 O47 2.290738 1_565
In2 O19 2.018229 1_556
In2 O56 2.055913 1_555
In2 O18 2.144647 1_556
In2 O54 2.248366 1_555
In2 O20 2.250327 1_556
In2 O55 2.394434 1_555
In3 O22 2.018229 1_555
In3 O57 2.055913 1_555
In3 O23 2.144647 1_555
In3 O59 2.248366 1_555
In3 O21 2.250327 1_555
In3 O58 2.394435 1_555
In4 O31 2.038137 1_555
In4 O66 2.102681 1_555
In4 O30 2.164693 1_555
In4 O32 2.166942 1_555
In4 O67 2.254065 1_555
In4 O68 2.324170 1_555
In5 O34 2.038137 1_555
In5 O71 2.102681 1_555
In5 O35 2.164694 1_555
In5 O33 2.166942 1_555
In5 O70 2.254065 1_555
In5 O69 2.324170 1_555
O0 Si0 1.620042 1_555
O1 S0 1.475090 1_555
O2 S1 1.462953 1_655
O3 S2 1.462953 1_555
O4 S3 1.475090 1_555
O5 Si1 1.620042 1_555
O6 Si1 1.656366 1_565
O7 S2 1.501891 1_555
O8 S3 1.502712 1_455
O9 S0 1.502712 1_555
O10 S1 1.501891 1_555
O11 Si0 1.656366 1_565
O12 S4 1.463542 1_555
O13 S5 1.480481 1_555
O14 Si2 1.624441 1_555
O15 Si3 1.624441 1_555
O16 S6 1.480481 1_555
O17 S7 1.463542 1_555
O18 S7 1.495858 1_555
O19 Si3 1.657625 1_555
O20 S6 1.500636 1_555
O21 S5 1.500636 1_555
O22 Si2 1.657625 1_555
O23 S4 1.495858 1_555
O24 S8 1.463371 1_555
O25 S9 1.472385 1_555
O26 Si4 1.627310 1_555
O27 Si5 1.627310 1_555
O28 S10 1.472385 1_555
O29 S11 1.463371 1_555
O30 S11 1.499965 1_555
O31 Si5 1.667563 1_555
O32 S10 1.493559 1_555
O33 S9 1.493559 1_555
O34 Si4 1.667563 1_555
O35 S8 1.499965 1_555
O36 S11 1.495217 1_555
O37 Si5 1.633857 1_555
O38 S10 1.476588 1_555
O39 S9 1.476591 1_555
O40 Si4 1.633847 1_555
O41 S8 1.495222 1_555
O42 S4 1.514711 1_555
O43 S5 1.500495 1_555
O44 Si2 1.668272 1_555
O45 Si3 1.668275 1_555
O46 S6 1.500486 1_555
O47 S7 1.514717 1_555
O48 Si1 1.638450 1_555
O49 S2 1.494729 1_555
O50 S3 1.478234 1_555
O51 S0 1.478238 1_555
O52 S1 1.494720 1_655
O53 Si0 1.638455 1_555
O54 S8 1.496528 1_555
O55 S9 1.508023 1_655
O56 Si4 1.675382 1_545
O57 Si5 1.675373 1_545
O58 S10 1.508041 1_555
O59 S11 1.496516 1_655
O60 S7 1.475774 1_555
O61 Si3 1.661926 1_455
O62 S6 1.476989 1_565
O63 S5 1.476982 1_565
O64 Si2 1.661944 1_555
O65 S4 1.475764 1_455
O66 Si0 1.712614 1_565
O67 S0 1.492619 1_555
O68 S1 1.497030 1_555
O69 S2 1.497033 1_555
O70 S3 1.492610 1_455
O71 Si1 1.712619 1_565
