# generated using pymatgen
data_MgCoP2O7
_symmetry_space_group_name_H-M   'P 1'
_cell_length_a   4.55394319
_cell_length_b   5.31926032
_cell_length_c   5.33297237
_cell_angle_alpha   76.00181915
_cell_angle_beta   81.73553143
_cell_angle_gamma   98.37781962
_symmetry_Int_Tables_number   1
_chemical_formula_structural   MgCoP2O7
_chemical_formula_sum   'Mg1 Co1 P2 O7'
_cell_volume   121.83524294
_cell_formula_units_Z   1
loop_
 _symmetry_equiv_pos_site_id
 _symmetry_equiv_pos_as_xyz
  1  'x, y, z'
loop_
 _atom_site_type_symbol
 _atom_site_label
 _atom_site_symmetry_multiplicity
 _atom_site_fract_x
 _atom_site_fract_y
 _atom_site_fract_z
 _atom_site_occupancy
  Mg  Mg0  1  0.73152058  0.28768556  0.90307042  1
  Co  Co0  1  0.72642378  0.90922835  0.52902287  1
  P  P0  1  0.13452146  0.82164103  0.99700200  1
  P  P1  1  0.32185706  0.38380073  0.43089190  1
  O  O0  1  0.22784879  0.60674930  0.21857527  1
  O  O1  1  0.44086824  0.98234507  0.83674249  1
  O  O2  1  0.01704750  0.22234427  0.59351641  1
  O  O3  1  0.95084321  0.98476413  0.13795496  1
  O  O4  1  0.50645983  0.22765815  0.28334906  1
  O  O5  1  0.50749476  0.52510164  0.59350481  1
  O  O6  1  0.94886279  0.67247978  0.84158980  1
loop_
_geom_bond_atom_site_label_1
_geom_bond_atom_site_label_2
_geom_bond_distance
_geom_bond_site_symmetry_2
Mg0 O4 2.063750 1_556
Mg0 O6 2.065989 1_555
Mg0 O1 2.073920 1_545
Mg0 O2 2.080619 1_655
Mg0 O3 2.239460 1_546
Mg0 O5 2.283015 1_555
Co0 O5 2.062787 1_555
Co0 O1 2.092377 1_555
Co0 O2 2.099906 1_665
Co0 O3 2.101819 1_555
Co0 O6 2.287406 1_555
Co0 O4 2.321006 1_565
O0 P1 1.584115 1_555
O0 P0 1.586194 1_554
O1 P0 1.537435 1_555
O2 P1 1.537113 1_555
O3 P0 1.537494 1_654
O4 P1 1.531386 1_555
O5 P1 1.540322 1_555
O6 P0 1.534730 1_655
