# generated using pymatgen
data_CdTeO3
_symmetry_space_group_name_H-M   'P 1'
_cell_length_a   11.30735991
_cell_length_b   7.45163265
_cell_length_c   7.83188501
_cell_angle_alpha   66.44744827
_cell_angle_beta   90.00000000
_cell_angle_gamma   90.00000000
_symmetry_Int_Tables_number   1
_chemical_formula_structural   CdTeO3
_chemical_formula_sum   'Cd8 Te8 O24'
_cell_volume   604.92749316
_cell_formula_units_Z   8
loop_
 _symmetry_equiv_pos_site_id
 _symmetry_equiv_pos_as_xyz
  1  'x, y, z'
loop_
 _atom_site_type_symbol
 _atom_site_label
 _atom_site_symmetry_multiplicity
 _atom_site_fract_x
 _atom_site_fract_y
 _atom_site_fract_z
 _atom_site_occupancy
  Cd  Cd0  1  0.99147828  0.69148816  0.26900127  1
  Cd  Cd1  1  0.49147828  0.80851184  0.73099873  1
  Cd  Cd2  1  0.00852172  0.30851184  0.73099873  1
  Cd  Cd3  1  0.50852172  0.19148816  0.26900127  1
  Cd  Cd4  1  0.76686178  0.02499847  0.00259339  1
  Cd  Cd5  1  0.26686178  0.47500153  0.99740661  1
  Cd  Cd6  1  0.23313822  0.97500153  0.99740661  1
  Cd  Cd7  1  0.73313822  0.52499847  0.00259339  1
  Te  Te0  1  0.74472768  0.87594096  0.50373149  1
  Te  Te1  1  0.24472768  0.62405904  0.49626851  1
  Te  Te2  1  0.25527232  0.12405904  0.49626851  1
  Te  Te3  1  0.75527232  0.37594096  0.50373149  1
  Te  Te4  1  0.99964343  0.76037188  0.83246775  1
  Te  Te5  1  0.49964343  0.73962812  0.16753225  1
  Te  Te6  1  0.00035657  0.23962812  0.16753225  1
  Te  Te7  1  0.50035657  0.26037188  0.83246775  1
  O  O0  1  0.92415117  0.00574086  0.19457554  1
  O  O1  1  0.42415117  0.49425914  0.80542446  1
  O  O2  1  0.07584883  0.99425914  0.80542446  1
  O  O3  1  0.57584883  0.50574086  0.19457554  1
  O  O4  1  0.62727202  0.05705820  0.51158386  1
  O  O5  1  0.12727202  0.44294180  0.48841614  1
  O  O6  1  0.37272798  0.94294180  0.48841614  1
  O  O7  1  0.87272798  0.55705820  0.51158386  1
  O  O8  1  0.83153704  0.16837889  0.69736255  1
  O  O9  1  0.33153704  0.33162111  0.30263745  1
  O  O10  1  0.16846296  0.83162111  0.30263745  1
  O  O11  1  0.66846296  0.66837889  0.69736255  1
  O  O12  1  0.62931750  0.26234378  0.99271467  1
  O  O13  1  0.12931750  0.23765622  0.00728533  1
  O  O14  1  0.37068250  0.73765622  0.00728533  1
  O  O15  1  0.87068250  0.76234378  0.99271467  1
  O  O16  1  0.58958138  0.88518369  0.95297312  1
  O  O17  1  0.08958138  0.61481631  0.04702688  1
  O  O18  1  0.41041862  0.11481631  0.04702688  1
  O  O19  1  0.91041862  0.38518369  0.95297312  1
  O  O20  1  0.67979178  0.84221928  0.29866991  1
  O  O21  1  0.17979178  0.65778072  0.70133009  1
  O  O22  1  0.32020822  0.15778072  0.70133009  1
  O  O23  1  0.82020822  0.34221928  0.29866991  1
loop_
_geom_bond_atom_site_label_1
_geom_bond_atom_site_label_2
_geom_bond_distance
_geom_bond_site_symmetry_2
Cd0 O7 2.212467 1_555
Cd0 O0 2.304782 1_565
Cd0 O17 2.317978 1_655
Cd0 O10 2.320464 1_655
Cd0 O15 2.431785 1_554
Cd0 O5 2.489445 1_655
Cd1 O6 2.212467 1_555
Cd1 O1 2.304782 1_555
Cd1 O16 2.317978 1_555
Cd1 O11 2.320464 1_555
Cd1 O14 2.431785 1_556
Cd1 O4 2.489445 1_565
Cd2 O5 2.212467 1_555
Cd2 O2 2.304782 1_545
Cd2 O19 2.317978 1_455
Cd2 O8 2.320464 1_455
Cd2 O13 2.431785 1_556
Cd2 O7 2.489445 1_455
Cd3 O4 2.212467 1_555
Cd3 O3 2.304782 1_555
Cd3 O18 2.317978 1_555
Cd3 O9 2.320464 1_555
Cd3 O12 2.431785 1_554
Cd3 O6 2.489445 1_545
Cd4 O0 2.296100 1_555
Cd4 O15 2.309933 1_544
Cd4 O8 2.312963 1_554
Cd4 O12 2.333121 1_554
Cd4 O16 2.361856 1_544
Cd4 O20 2.382717 1_545
Cd5 O1 2.296100 1_555
Cd5 O14 2.309933 1_556
Cd5 O9 2.312963 1_556
Cd5 O13 2.333121 1_556
Cd5 O17 2.361856 1_556
Cd5 O21 2.382717 1_555
Cd6 O2 2.296100 1_555
Cd6 O13 2.309933 1_566
Cd6 O10 2.312963 1_556
Cd6 O14 2.333121 1_556
Cd6 O18 2.361856 1_566
Cd6 O22 2.382717 1_565
Cd7 O3 2.296100 1_555
Cd7 O12 2.309933 1_554
Cd7 O11 2.312963 1_554
Cd7 O15 2.333121 1_554
Cd7 O19 2.361856 1_554
Cd7 O23 2.382717 1_555
O0 Te6 1.878789 1_655
O1 Te7 1.878789 1_555
O2 Te4 1.878789 1_455
O3 Te5 1.878789 1_555
O4 Te0 1.911929 1_545
O5 Te1 1.911929 1_555
O6 Te2 1.911929 1_565
O7 Te3 1.911929 1_555
O8 Te3 1.887093 1_555
O9 Te2 1.887093 1_555
O10 Te1 1.887093 1_555
O11 Te0 1.887093 1_555
O12 Te7 1.927806 1_555
O13 Te6 1.927806 1_555
O14 Te5 1.927806 1_555
O15 Te4 1.927806 1_555
O16 Te5 1.891503 1_556
O17 Te4 1.891503 1_454
O18 Te7 1.891503 1_554
O19 Te6 1.891503 1_656
O20 Te0 1.871920 1_555
O20 Te5 2.533006 1_555
O21 Te1 1.871920 1_555
O21 Te4 2.533006 1_455
O22 Te2 1.871920 1_555
O22 Te7 2.533006 1_555
O23 Te3 1.871920 1_555
O23 Te6 2.533006 1_655
