# generated using pymatgen
data_USe2
_symmetry_space_group_name_H-M   'P 1'
_cell_length_a   4.20720759
_cell_length_b   7.52985700
_cell_length_c   9.08159945
_cell_angle_alpha   89.98129870
_cell_angle_beta   90.00000000
_cell_angle_gamma   90.00000000
_symmetry_Int_Tables_number   1
_chemical_formula_structural   USe2
_chemical_formula_sum   'U4 Se8'
_cell_volume   287.70207213
_cell_formula_units_Z   4
loop_
 _symmetry_equiv_pos_site_id
 _symmetry_equiv_pos_as_xyz
  1  'x, y, z'
loop_
 _atom_site_type_symbol
 _atom_site_label
 _atom_site_symmetry_multiplicity
 _atom_site_fract_x
 _atom_site_fract_y
 _atom_site_fract_z
 _atom_site_occupancy
  U  U0  1  0.25000000  0.25584020  0.62822088  1
  U  U1  1  0.75000000  0.74418612  0.37186121  1
  U  U2  1  0.25000000  0.75564393  0.87189463  1
  U  U3  1  0.75000000  0.24426650  0.12813534  1
  Se  Se0  1  0.25000000  0.53454574  0.16234552  1
  Se  Se1  1  0.75000000  0.46525061  0.83748675  1
  Se  Se2  1  0.25000000  0.03469474  0.33751521  1
  Se  Se3  1  0.75000000  0.96538814  0.66249666  1
  Se  Se4  1  0.25000000  0.13839714  0.92908912  1
  Se  Se5  1  0.75000000  0.86156604  0.07097625  1
  Se  Se6  1  0.25000000  0.63854115  0.57087419  1
  Se  Se7  1  0.75000000  0.36167869  0.42910422  1
loop_
_geom_bond_atom_site_label_1
_geom_bond_atom_site_label_2
_geom_bond_distance
_geom_bond_site_symmetry_2
Se0 U3 3.049536 1_455
Se0 U3 3.049536 1_555
Se0 U2 3.118748 1_554
Se0 U1 3.246441 1_455
Se0 U1 3.246441 1_555
Se1 U2 3.050335 1_555
Se1 U2 3.050335 1_655
Se1 U3 3.119808 1_556
Se1 U0 3.244269 1_555
Se1 U0 3.244269 1_655
Se2 U1 3.050754 1_445
Se2 U1 3.050754 1_545
Se2 U0 3.121814 1_555
Se2 U3 3.244863 1_455
Se2 U3 3.244863 1_555
Se3 U0 3.050384 1_665
Se3 U0 3.050384 1_565
Se3 U1 3.121502 1_555
Se3 U2 3.245591 1_555
Se3 U2 3.245591 1_655
Se4 U0 2.871633 1_555
Se4 U3 2.886038 1_456
Se4 U3 2.886038 1_556
Se4 U2 2.928675 1_545
Se5 U1 2.871632 1_555
Se5 U2 2.886349 1_554
Se5 U2 2.886349 1_654
Se5 U3 2.928227 1_565
Se6 U2 2.872710 1_555
Se6 U1 2.885057 1_555
Se6 U1 2.885057 1_455
Se6 U0 2.928199 1_555
Se7 U3 2.872981 1_555
Se7 U0 2.886049 1_655
Se7 U0 2.886049 1_555
Se7 U1 2.926598 1_555
