# generated using pymatgen
data_Na4MgV2O6
_symmetry_space_group_name_H-M   'P 1'
_cell_length_a   6.69955749
_cell_length_b   6.66799808
_cell_length_c   4.52725129
_cell_angle_alpha   89.78093741
_cell_angle_beta   89.56288135
_cell_angle_gamma   59.84206180
_symmetry_Int_Tables_number   1
_chemical_formula_structural   Na4MgV2O6
_chemical_formula_sum   'Na4 Mg1 V2 O6'
_cell_volume   174.86415781
_cell_formula_units_Z   1
loop_
 _symmetry_equiv_pos_site_id
 _symmetry_equiv_pos_as_xyz
  1  'x, y, z'
loop_
 _atom_site_type_symbol
 _atom_site_label
 _atom_site_symmetry_multiplicity
 _atom_site_fract_x
 _atom_site_fract_y
 _atom_site_fract_z
 _atom_site_occupancy
  Na  Na0  1  0.49944400  0.65281900  0.97942100  1
  Na  Na1  1  0.88144300  0.60594500  0.51528000  1
  Na  Na2  1  0.48739100  0.39404700  0.51528000  1
  Na  Na3  1  0.15226900  0.34717700  0.97942100  1
  Mg  Mg0  1  0.53672700  0.99999500  0.31545700  1
  V  V0  1  0.83851000  0.99999800  0.95876500  1
  V  V1  1  0.14655200  0.00003200  0.49780700  1
  O  O0  1  0.79834500  0.73752900  0.02347600  1
  O  O1  1  0.46125500  0.75119900  0.47238600  1
  O  O2  1  0.53587500  0.26247000  0.02347900  1
  O  O3  1  0.21245900  0.24879500  0.47239100  1
  O  O4  1  0.84537800  0.99999400  0.49128700  1
  O  O5  1  0.12518600  0.00000100  0.97155500  1
loop_
_geom_bond_atom_site_label_1
_geom_bond_atom_site_label_2
_geom_bond_distance
_geom_bond_site_symmetry_2
Na0 O1 2.304444 1_556
Na0 O0 2.347832 1_556
Na0 O1 2.365123 1_555
Na0 O5 2.411613 1_565
Na0 O2 2.496523 1_556
Na1 O3 2.305995 1_655
Na1 O0 2.355916 1_555
Na1 O0 2.424506 1_556
Na1 O1 2.483504 1_555
Na1 O4 2.516815 1_555
Na2 O1 2.306047 1_555
Na2 O2 2.355876 1_555
Na2 O2 2.424523 1_556
Na2 O3 2.483512 1_555
Na2 O4 2.516794 1_545
Na3 O3 2.304479 1_556
Na3 O2 2.347787 1_556
Na3 O3 2.365091 1_555
Na3 O5 2.411647 1_555
Na3 O0 2.496505 1_456
Mg0 O3 2.083453 1_565
Mg0 O1 2.083489 1_555
Mg0 O0 2.186902 1_555
Mg0 O2 2.186977 1_565
Mg0 O4 2.221410 1_555
O0 V0 1.920755 1_554
O1 V1 1.922056 1_565
O2 V0 1.920724 1_544
O3 V1 1.921806 1_555
O4 V1 2.018301 1_665
O4 V0 2.116539 1_555
O4 V0 2.411651 1_554
O5 V0 1.921927 1_445
O5 V1 2.148464 1_555
O5 V1 2.387868 1_556
