# generated using pymatgen
data_NaHO
_symmetry_space_group_name_H-M   'P 1'
_cell_length_a   3.35314460
_cell_length_b   3.36858739
_cell_length_c   5.70552898
_cell_angle_alpha   107.16974880
_cell_angle_beta   90.00000000
_cell_angle_gamma   90.00000000
_symmetry_Int_Tables_number   1
_chemical_formula_structural   NaHO
_chemical_formula_sum   'Na2 H2 O2'
_cell_volume   61.57392962
_cell_formula_units_Z   2
loop_
 _symmetry_equiv_pos_site_id
 _symmetry_equiv_pos_as_xyz
  1  'x, y, z'
loop_
 _atom_site_type_symbol
 _atom_site_label
 _atom_site_symmetry_multiplicity
 _atom_site_fract_x
 _atom_site_fract_y
 _atom_site_fract_z
 _atom_site_occupancy
  Na  Na0  1  0.25000000  0.66068800  0.32137700  1
  Na  Na1  1  0.75000000  0.33931200  0.67862300  1
  H  H0  1  0.25000000  0.95804266  0.91608631  1
  H  H1  1  0.75000000  0.04195734  0.08391369  1
  O  O0  1  0.75000000  0.13047435  0.26094770  1
  O  O1  1  0.25000000  0.86952565  0.73905230  1
loop_
_geom_bond_atom_site_label_1
_geom_bond_atom_site_label_2
_geom_bond_distance
_geom_bond_site_symmetry_2
Na0 O1 2.276856 1_555
Na0 O0 2.399217 1_455
Na0 O0 2.399217 1_555
Na0 O0 2.399222 1_465
Na0 O0 2.399222 1_565
Na1 O0 2.276856 1_555
Na1 O1 2.399217 1_655
Na1 O1 2.399217 1_555
Na1 O1 2.399222 1_545
Na1 O1 2.399222 1_645
H0 O1 0.965058 1_555
H1 O0 0.965058 1_555
