# generated using pymatgen
data_LaIn5Rh
_symmetry_space_group_name_H-M   'P 1'
_cell_length_a   4.71134027
_cell_length_b   4.71134027
_cell_length_c   7.64190701
_cell_angle_alpha   90.00000000
_cell_angle_beta   90.00000000
_cell_angle_gamma   90.00000000
_symmetry_Int_Tables_number   1
_chemical_formula_structural   LaIn5Rh
_chemical_formula_sum   'La1 In5 Rh1'
_cell_volume   169.62532473
_cell_formula_units_Z   1
loop_
 _symmetry_equiv_pos_site_id
 _symmetry_equiv_pos_as_xyz
  1  'x, y, z'
loop_
 _atom_site_type_symbol
 _atom_site_label
 _atom_site_symmetry_multiplicity
 _atom_site_fract_x
 _atom_site_fract_y
 _atom_site_fract_z
 _atom_site_occupancy
  La  La0  1  -0.00000000  0.00000000  -0.00000000  1
  In  In0  1  0.50000000  0.50000000  -0.00000000  1
  In  In1  1  0.50000000  -0.00000000  0.69223005  1
  In  In2  1  0.00000000  0.50000000  0.30776995  1
  In  In3  1  0.50000000  -0.00000000  0.30776995  1
  In  In4  1  -0.00000000  0.50000000  0.69223005  1
  Rh  Rh0  1  0.00000000  0.00000000  0.50000000  1
loop_
_geom_bond_atom_site_label_1
_geom_bond_atom_site_label_2
_geom_bond_distance
_geom_bond_site_symmetry_2
In0 In1 3.328791 1_564
In0 In4 3.328791 1_554
In0 In1 3.328791 1_554
In0 In4 3.328791 1_654
In0 In2 3.328791 1_555
In0 In3 3.328791 1_565
In0 In3 3.328791 1_555
In0 In2 3.328791 1_655
In0 La0 3.331421 1_655
In0 La0 3.331421 1_565
In0 La0 3.331421 1_665
In0 La0 3.331421 1_555
In1 Rh0 2.776176 1_655
In1 Rh0 2.776176 1_555
In1 In3 2.938008 1_555
In1 La0 3.328791 1_556
In1 La0 3.328791 1_656
In1 In4 3.331421 1_645
In1 In4 3.331421 1_545
In1 In4 3.331421 1_555
In1 In4 3.331421 1_655
In2 Rh0 2.776176 1_565
In2 Rh0 2.776176 1_555
In2 In4 2.938008 1_555
In2 La0 3.328791 1_555
In2 La0 3.328791 1_565
In2 In3 3.331421 1_455
In2 In3 3.331421 1_555
In2 In3 3.331421 1_465
In2 In3 3.331421 1_565
In3 Rh0 2.776176 1_655
In3 Rh0 2.776176 1_555
In3 La0 3.328791 1_555
In3 La0 3.328791 1_655
In4 Rh0 2.776176 1_565
In4 Rh0 2.776176 1_555
In4 La0 3.328791 1_566
In4 La0 3.328791 1_556
