# generated using pymatgen
data_K2PuCl5
_symmetry_space_group_name_H-M   'P 1'
_cell_length_a   7.95272854
_cell_length_b   8.75951939
_cell_length_c   12.76508059
_cell_angle_alpha   90.00000000
_cell_angle_beta   90.00000000
_cell_angle_gamma   90.00000000
_symmetry_Int_Tables_number   1
_chemical_formula_structural   K2PuCl5
_chemical_formula_sum   'K8 Pu4 Cl20'
_cell_volume   889.24206335
_cell_formula_units_Z   4
loop_
 _symmetry_equiv_pos_site_id
 _symmetry_equiv_pos_as_xyz
  1  'x, y, z'
loop_
 _atom_site_type_symbol
 _atom_site_label
 _atom_site_symmetry_multiplicity
 _atom_site_fract_x
 _atom_site_fract_y
 _atom_site_fract_z
 _atom_site_occupancy
  K  K0  1  0.54832177  0.49575992  0.32915412  1
  K  K1  1  0.95167823  0.49575992  0.82915412  1
  K  K2  1  0.04832177  0.50424008  0.17084588  1
  K  K3  1  0.54832177  0.00424008  0.32915412  1
  K  K4  1  0.45167823  0.50424008  0.67084588  1
  K  K5  1  0.45167823  0.99575992  0.67084588  1
  K  K6  1  0.95167823  0.00424008  0.82915412  1
  K  K7  1  0.04832177  0.99575992  0.17084588  1
  Pu  Pu0  1  0.06911178  0.25000000  0.49729715  1
  Pu  Pu1  1  0.43088822  0.25000000  0.99729715  1
  Pu  Pu2  1  0.56911178  0.75000000  0.00270285  1
  Pu  Pu3  1  0.93088822  0.75000000  0.50270285  1
  Cl  Cl0  1  0.83478826  0.75000000  0.29544347  1
  Cl  Cl1  1  0.16466832  0.96004805  0.42008217  1
  Cl  Cl2  1  0.66466832  0.46004805  0.07991783  1
  Cl  Cl3  1  0.13019168  0.75000000  0.67864422  1
  Cl  Cl4  1  0.07722127  0.25000000  0.99217418  1
  Cl  Cl5  1  0.36980832  0.75000000  0.17864422  1
  Cl  Cl6  1  0.16521174  0.25000000  0.70455653  1
  Cl  Cl7  1  0.42277873  0.25000000  0.49217418  1
  Cl  Cl8  1  0.33533168  0.53995195  0.92008217  1
  Cl  Cl9  1  0.33533168  0.96004805  0.92008217  1
  Cl  Cl10  1  0.66521174  0.75000000  0.79544347  1
  Cl  Cl11  1  0.63019168  0.25000000  0.82135578  1
  Cl  Cl12  1  0.66466832  0.03995195  0.07991783  1
  Cl  Cl13  1  0.86980832  0.25000000  0.32135578  1
  Cl  Cl14  1  0.83533168  0.46004805  0.57991783  1
  Cl  Cl15  1  0.33478826  0.25000000  0.20455653  1
  Cl  Cl16  1  0.16466832  0.53995195  0.42008217  1
  Cl  Cl17  1  0.57722127  0.75000000  0.50782582  1
  Cl  Cl18  1  0.83533168  0.03995195  0.57991783  1
  Cl  Cl19  1  0.92277873  0.75000000  0.00782582  1
loop_
_geom_bond_atom_site_label_1
_geom_bond_atom_site_label_2
_geom_bond_distance
_geom_bond_site_symmetry_2
Cl0 Pu3 2.753856 1_555
Cl0 K7 3.169821 1_655
Cl0 K2 3.169821 1_655
Cl0 K3 3.214801 1_565
Cl0 K0 3.214801 1_555
Cl1 Pu3 2.820319 1_455
Cl1 Pu0 2.828392 1_565
Cl1 K3 3.287285 1_565
Cl1 K7 3.328072 1_555
Cl2 Pu1 2.820319 1_554
Cl2 Pu2 2.828392 1_555
Cl2 K2 3.287285 1_655
Cl2 K0 3.328072 1_555
Cl3 Pu3 2.748879 1_455
Cl3 K6 3.265940 1_465
Cl3 K1 3.265940 1_455
Cl3 K4 3.343783 1_555
Cl3 K5 3.343783 1_555
Cl4 Pu1 2.813377 1_555
Cl4 K6 3.156187 1_455
Cl4 K1 3.156187 1_455
Cl4 K2 3.195982 1_556
Cl4 K7 3.195982 1_546
Cl5 Pu2 2.748879 1_555
Cl5 K0 3.265940 1_555
Cl5 K3 3.265940 1_565
Cl5 K7 3.343783 1_555
Cl5 K2 3.343783 1_555
Cl6 Pu0 2.753856 1_555
Cl6 K1 3.169821 1_455
Cl6 K6 3.169821 1_455
Cl6 K4 3.214801 1_555
Cl6 K5 3.214801 1_545
Cl7 Pu0 2.813377 1_555
Cl7 K3 3.156187 1_555
Cl7 K0 3.156187 1_555
Cl7 K5 3.195982 1_545
Cl7 K4 3.195982 1_555
Cl8 Pu2 2.820319 1_556
Cl8 Pu1 2.828392 1_555
Cl8 K1 3.287285 1_455
Cl8 K4 3.328072 1_555
Cl9 Pu2 2.820319 1_556
Cl9 Pu1 2.828392 1_565
Cl9 K6 3.287285 1_465
Cl9 K5 3.328072 1_555
Cl10 Pu2 2.753856 1_556
Cl10 K5 3.169821 1_555
Cl10 K4 3.169821 1_555
Cl10 K6 3.214801 1_565
Cl10 K1 3.214801 1_555
Cl11 Pu1 2.748879 1_555
Cl11 K4 3.265940 1_555
Cl11 K5 3.265940 1_545
Cl11 K6 3.343783 1_555
Cl11 K1 3.343783 1_555
Cl12 Pu1 2.820319 1_554
Cl12 Pu2 2.828392 1_545
Cl12 K7 3.287285 1_645
Cl12 K3 3.328072 1_555
Cl13 Pu0 2.748879 1_655
Cl13 K2 3.265940 1_655
Cl13 K7 3.265940 1_645
Cl13 K3 3.343783 1_555
Cl13 K0 3.343783 1_555
Cl14 Pu0 2.820319 1_655
Cl14 Pu3 2.828392 1_555
Cl14 K4 3.287285 1_555
Cl14 K1 3.328072 1_555
Cl15 Pu1 2.753856 1_554
Cl15 K0 3.169821 1_555
Cl15 K3 3.169821 1_555
Cl15 K2 3.214801 1_555
Cl15 K7 3.214801 1_545
Cl16 Pu3 2.820319 1_455
Cl16 Pu0 2.828392 1_555
Cl16 K0 3.287285 1_555
Cl16 K2 3.328072 1_555
Cl17 Pu3 2.813377 1_555
Cl17 K5 3.156187 1_555
Cl17 K4 3.156187 1_555
Cl17 K3 3.195982 1_565
Cl17 K0 3.195982 1_555
Cl18 Pu0 2.820319 1_655
Cl18 Pu3 2.828392 1_545
Cl18 K5 3.287285 1_545
Cl18 K6 3.328072 1_555
Cl19 Pu2 2.813377 1_555
Cl19 K7 3.156187 1_655
Cl19 K2 3.156187 1_655
Cl19 K6 3.195982 1_564
Cl19 K1 3.195982 1_554
