# generated using pymatgen
data_Li2FeP2O7
_symmetry_space_group_name_H-M   'P 1'
_cell_length_a   5.04084460
_cell_length_b   14.29715651
_cell_length_c   8.93376291
_cell_angle_alpha   80.40520477
_cell_angle_beta   90.00620700
_cell_angle_gamma   89.99037380
_symmetry_Int_Tables_number   1
_chemical_formula_structural   Li2FeP2O7
_chemical_formula_sum   'Li8 Fe4 P8 O28'
_cell_volume   634.84723621
_cell_formula_units_Z   4
loop_
 _symmetry_equiv_pos_site_id
 _symmetry_equiv_pos_as_xyz
  1  'x, y, z'
loop_
 _atom_site_type_symbol
 _atom_site_label
 _atom_site_symmetry_multiplicity
 _atom_site_fract_x
 _atom_site_fract_y
 _atom_site_fract_z
 _atom_site_occupancy
  Li  Li0  1  0.10781000  0.94039900  0.61194000  1
  Li  Li1  1  0.60731200  0.44033800  0.11209200  1
  Li  Li2  1  0.39221600  0.55960400  0.88802100  1
  Li  Li3  1  0.89272200  0.05965300  0.38790900  1
  Li  Li4  1  0.60786000  0.05959400  0.88805500  1
  Li  Li5  1  0.10727500  0.55966900  0.38794500  1
  Li  Li6  1  0.89218500  0.44040300  0.61193700  1
  Li  Li7  1  0.39275900  0.94032600  0.11207300  1
  Fe  Fe0  1  0.25003100  0.74999700  0.24998600  1
  Fe  Fe1  1  0.75000300  0.24999900  0.24999700  1
  Fe  Fe2  1  0.74979500  0.25003600  0.74990500  1
  Fe  Fe3  1  0.24995200  0.75003100  0.75006100  1
  P  P0  1  0.11549200  0.14704800  0.03714600  1
  P  P1  1  0.61495300  0.64708300  0.53740900  1
  P  P2  1  0.38511700  0.14703700  0.53728600  1
  P  P3  1  0.88455100  0.64702700  0.03720900  1
  P  P4  1  0.38451100  0.35295000  0.46282200  1
  P  P5  1  0.88501300  0.85294200  0.96263100  1
  P  P6  1  0.11492400  0.35294400  0.96268800  1
  P  P7  1  0.61545900  0.85296300  0.46281200  1
  O  O0  1  0.23223000  0.24994500  0.50014200  1
  O  O1  1  0.73213100  0.75004400  0.99988300  1
  O  O2  1  0.26780700  0.25004400  0.99985100  1
  O  O3  1  0.76787000  0.74994600  0.50013300  1
  O  O4  1  0.97906100  0.35579600  0.80710000  1
  O  O5  1  0.47947400  0.85576800  0.30722500  1
  O  O6  1  0.52095600  0.14418500  0.69289500  1
  O  O7  1  0.02055100  0.64421400  0.19279600  1
  O  O8  1  0.97940100  0.14421600  0.19271000  1
  O  O9  1  0.47947800  0.64425400  0.69308500  1
  O  O10  1  0.52061900  0.35577800  0.30728200  1
  O  O11  1  0.02046400  0.85580700  0.80691600  1
  O  O12  1  0.32778500  0.42712700  0.96130200  1
  O  O13  1  0.82881900  0.92701200  0.46118000  1
  O  O14  1  0.32901100  0.07301900  0.03889500  1
  O  O15  1  0.82775800  0.57286800  0.53872900  1
  O  O16  1  0.17099600  0.42697200  0.46108800  1
  O  O17  1  0.67212500  0.92712500  0.96136100  1
  O  O18  1  0.17224600  0.07286100  0.53868300  1
  O  O19  1  0.67121600  0.57297300  0.03882300  1
  O  O20  1  0.09371400  0.85178000  0.08939300  1
  O  O21  1  0.59274500  0.35195200  0.58975100  1
  O  O22  1  0.40628100  0.64820300  0.41062600  1
  O  O23  1  0.90726400  0.14806700  0.91021700  1
  O  O24  1  0.40710100  0.85190100  0.58965800  1
  O  O25  1  0.90651800  0.35181900  0.08957000  1
  O  O26  1  0.09292800  0.64809600  0.91036500  1
  O  O27  1  0.59352100  0.14818000  0.41041700  1
loop_
_geom_bond_atom_site_label_1
_geom_bond_atom_site_label_2
_geom_bond_distance
_geom_bond_site_symmetry_2
Li0 O18 1.925484 1_565
Li0 O13 1.978404 1_455
Li0 O11 1.997186 1_555
Li0 O24 2.000008 1_555
Li1 O19 1.927345 1_555
Li1 O12 1.979985 1_554
Li1 O10 1.997727 1_555
Li1 O25 2.000321 1_555
Li2 O12 1.925716 1_555
Li2 O19 1.978644 1_556
Li2 O9 1.997199 1_555
Li2 O26 2.000055 1_555
Li3 O13 1.927427 1_545
Li3 O18 1.979866 1_655
Li3 O8 1.997794 1_555
Li3 O27 2.000350 1_555
Li4 O17 1.925378 1_545
Li4 O14 1.978670 1_556
Li4 O6 1.997785 1_555
Li4 O23 2.000275 1_555
Li5 O16 1.927686 1_555
Li5 O15 1.980039 1_455
Li5 O7 1.997209 1_555
Li5 O22 2.000281 1_555
Li6 O15 1.925308 1_555
Li6 O16 1.978608 1_655
Li6 O4 1.997880 1_555
Li6 O21 2.000251 1_555
Li7 O14 1.927711 1_565
Li7 O17 1.979055 1_554
Li7 O5 1.997305 1_555
Li7 O20 2.000539 1_555
Fe0 O20 2.024914 1_555
Fe0 O22 2.025125 1_555
Fe0 O5 2.035742 1_555
Fe0 O7 2.035819 1_555
Fe1 O27 2.024949 1_555
Fe1 O25 2.025059 1_555
Fe1 O10 2.035592 1_555
Fe1 O8 2.035683 1_555
Fe2 O21 2.025193 1_555
Fe2 O23 2.027303 1_555
Fe2 O6 2.034146 1_555
Fe2 O4 2.034965 1_555
Fe3 O26 2.026404 1_555
Fe3 O24 2.026611 1_555
Fe3 O11 2.034417 1_555
Fe3 O9 2.034941 1_555
O0 P2 1.644862 1_555
O0 P4 1.644976 1_555
O1 P5 1.645043 1_555
O1 P3 1.645189 1_556
O2 P6 1.644763 1_555
O2 P0 1.644933 1_556
O3 P1 1.644707 1_555
O3 P7 1.645166 1_555
O4 P6 1.543909 1_655
O5 P7 1.544257 1_555
O6 P2 1.544023 1_555
O7 P3 1.544276 1_455
O8 P0 1.544402 1_655
O9 P1 1.543927 1_555
O10 P4 1.544255 1_555
O11 P5 1.544122 1_455
O12 P6 1.507439 1_555
O13 P7 1.507650 1_555
O14 P0 1.507654 1_555
O15 P1 1.507369 1_555
O16 P4 1.507584 1_555
O17 P5 1.507394 1_555
O18 P2 1.507394 1_555
O19 P3 1.507628 1_555
O20 P5 1.543689 1_454
O21 P4 1.543443 1_555
O22 P1 1.543794 1_555
O23 P0 1.543388 1_656
O24 P7 1.543392 1_555
O25 P6 1.543691 1_654
O26 P3 1.543433 1_456
O27 P2 1.543570 1_555
