# generated using pymatgen
data_Li2BPd3
_symmetry_space_group_name_H-M   'P 1'
_cell_length_a   6.77236878
_cell_length_b   6.77210620
_cell_length_c   6.77205153
_cell_angle_alpha   90.01014018
_cell_angle_beta   90.01200884
_cell_angle_gamma   90.01465684
_symmetry_Int_Tables_number   1
_chemical_formula_structural   Li2BPd3
_chemical_formula_sum   'Li8 B4 Pd12'
_cell_volume   310.58793634
_cell_formula_units_Z   4
loop_
 _symmetry_equiv_pos_site_id
 _symmetry_equiv_pos_as_xyz
  1  'x, y, z'
loop_
 _atom_site_type_symbol
 _atom_site_label
 _atom_site_symmetry_multiplicity
 _atom_site_fract_x
 _atom_site_fract_y
 _atom_site_fract_z
 _atom_site_occupancy
  Li  Li0  1  0.30634626  0.30633422  0.30631660  1
  Li  Li1  1  0.05586914  0.44424181  0.55585624  1
  Li  Li2  1  0.55586401  0.05592061  0.44427441  1
  Li  Li3  1  0.44421035  0.55587468  0.05585321  1
  Li  Li4  1  0.19431191  0.69422436  0.80594229  1
  Li  Li5  1  0.94315701  0.94322771  0.94330099  1
  Li  Li6  1  0.80590509  0.19422038  0.69418995  1
  Li  Li7  1  0.69414480  0.80593454  0.19433485  1
  B  B0  1  0.87498461  0.37501124  0.12498067  1
  B  B1  1  0.37496382  0.12491316  0.87490683  1
  B  B2  1  0.62502356  0.62502659  0.62496867  1
  B  B3  1  0.12495656  0.87488442  0.37505239  1
  Pd  Pd0  1  0.19436200  0.05573803  0.62485732  1
  Pd  Pd1  1  0.44439040  0.37505314  0.69444569  1
  Pd  Pd2  1  0.05572983  0.62491944  0.19437458  1
  Pd  Pd3  1  0.94455757  0.12506172  0.30549242  1
  Pd  Pd4  1  0.30551573  0.94458242  0.12513489  1
  Pd  Pd5  1  0.69448418  0.44434437  0.37505243  1
  Pd  Pd6  1  0.55553678  0.87495953  0.80565935  1
  Pd  Pd7  1  0.62492976  0.19443084  0.05563299  1
  Pd  Pd8  1  0.37511185  0.69442736  0.44433991  1
  Pd  Pd9  1  0.87496506  0.80565202  0.55556802  1
  Pd  Pd10  1  0.12507345  0.30551573  0.94450132  1
  Pd  Pd11  1  0.80560629  0.55550266  0.87496296  1
loop_
_geom_bond_atom_site_label_1
_geom_bond_atom_site_label_2
_geom_bond_distance
_geom_bond_site_symmetry_2
Li0 Li3 2.570086 1_555
Li0 Li2 2.570126 1_555
Li0 Li1 2.570395 1_555
Li0 Pd4 2.739716 1_545
Li0 Pd3 2.740218 1_455
Li0 Pd10 2.740349 1_554
Li0 Pd8 2.827781 1_555
Li0 Pd1 2.827993 1_555
Li0 Pd5 2.828051 1_555
Li0 Pd0 2.847792 1_555
Li0 Pd2 2.848172 1_555
Li0 Pd7 2.848383 1_555
Li1 Li6 2.570978 1_455
Li1 Li4 2.571144 1_555
Li1 Pd5 2.736395 1_455
Li1 Pd2 2.736923 1_555
Li1 Pd9 2.737303 1_455
Li1 Pd0 2.832255 1_555
Li1 Pd1 2.832561 1_555
Li1 Pd10 2.833702 1_555
Li1 Pd11 2.848135 1_455
Li1 Pd3 2.848233 1_455
Li1 Pd8 2.848605 1_555
Li2 Li6 2.570305 1_555
Li2 Li7 2.570681 1_545
Li2 Pd8 2.736784 1_545
Li2 Pd0 2.736894 1_555
Li2 Pd6 2.737197 1_545
Li2 Pd5 2.831904 1_555
Li2 Pd7 2.833142 1_555
Li2 Pd3 2.834167 1_555
Li2 Pd1 2.847984 1_555
Li2 Pd4 2.848018 1_545
Li2 Pd9 2.848229 1_545
Li3 Li4 2.570306 1_554
Li3 Li7 2.570905 1_555
Li3 Pd1 2.736523 1_554
Li3 Pd7 2.736946 1_555
Li3 Pd11 2.737184 1_554
Li3 Pd8 2.832072 1_555
Li3 Pd2 2.832301 1_555
Li3 Pd4 2.834216 1_555
Li3 Pd6 2.847728 1_554
Li3 Pd10 2.848065 1_554
Li3 Pd5 2.848802 1_555
Li4 Li5 2.569725 1_455
Li4 Pd6 2.735172 1_555
Li4 Pd8 2.738082 1_555
Li4 Pd0 2.738365 1_565
Li4 Pd2 2.832279 1_556
Li4 Pd10 2.833755 1_555
Li4 Pd11 2.833771 1_455
Li4 Pd4 2.848081 1_556
Li4 Pd1 2.848197 1_555
Li4 Pd9 2.849820 1_455
Li5 Li7 2.568934 1_556
Li5 Li6 2.569098 1_565
Li5 Pd3 2.744353 1_566
Li5 Pd10 2.745137 1_665
Li5 Pd4 2.745427 1_656
Li5 Pd6 2.823467 1_555
Li5 Pd9 2.823873 1_555
Li5 Pd11 2.823910 1_555
Li5 Pd7 2.849469 1_566
Li5 Pd2 2.849645 1_656
Li5 Pd0 2.850758 1_665
Li6 Pd11 2.735632 1_555
Li6 Pd7 2.737649 1_556
Li6 Pd1 2.737783 1_555
Li6 Pd0 2.832410 1_655
Li6 Pd9 2.832728 1_545
Li6 Pd3 2.833867 1_555
Li6 Pd5 2.847929 1_555
Li6 Pd10 2.847960 1_655
Li6 Pd6 2.849321 1_545
Li7 Pd9 2.735449 1_555
Li7 Pd5 2.737716 1_555
Li7 Pd2 2.738761 1_655
Li7 Pd7 2.832871 1_565
Li7 Pd6 2.833268 1_554
Li7 Pd4 2.833588 1_555
Li7 Pd8 2.847108 1_555
Li7 Pd3 2.847864 1_565
Li7 Pd11 2.850231 1_554
B0 Pd2 2.140526 1_655
B0 Pd11 2.140605 1_554
B0 Pd7 2.140626 1_555
B0 Pd3 2.140662 1_555
B0 Pd5 2.140929 1_555
B0 Pd10 2.141255 1_654
B1 Pd0 2.140425 1_555
B1 Pd6 2.140492 1_545
B1 Pd10 2.140849 1_555
B1 Pd7 2.140989 1_556
B1 Pd1 2.141190 1_555
B1 Pd4 2.141234 1_546
B2 Pd8 2.140433 1_555
B2 Pd9 2.140523 1_555
B2 Pd5 2.140736 1_555
B2 Pd1 2.140809 1_555
B2 Pd11 2.140843 1_555
B2 Pd6 2.140907 1_555
B3 Pd2 2.140340 1_555
B3 Pd9 2.140388 1_455
B3 Pd0 2.140428 1_565
B3 Pd4 2.140868 1_555
B3 Pd8 2.141188 1_555
B3 Pd3 2.141501 1_465
