# generated using pymatgen
data_Na2ScNbSi2SO12
_symmetry_space_group_name_H-M   'P 1'
_cell_length_a   9.01287823
_cell_length_b   9.01287792
_cell_length_c   22.81325978
_cell_angle_alpha   90.21057906
_cell_angle_beta   89.78942093
_cell_angle_gamma   119.65287573
_symmetry_Int_Tables_number   1
_chemical_formula_structural   Na2ScNbSi2SO12
_chemical_formula_sum   'Na12 Sc6 Nb6 Si12 S6 O72'
_cell_volume   1610.45851189
_cell_formula_units_Z   6
loop_
 _symmetry_equiv_pos_site_id
 _symmetry_equiv_pos_as_xyz
  1  'x, y, z'
loop_
 _atom_site_type_symbol
 _atom_site_label
 _atom_site_symmetry_multiplicity
 _atom_site_fract_x
 _atom_site_fract_y
 _atom_site_fract_z
 _atom_site_occupancy
  Na  Na0  1  0.98163481  0.62080804  0.24956756  1
  Na  Na1  1  0.37919196  0.01836519  0.74956756  1
  Na  Na2  1  0.64830181  0.95414104  0.58290056  1
  Na  Na3  1  0.04585896  0.35169819  0.08290056  1
  Na  Na4  1  0.31496781  0.28747504  0.91623456  1
  Na  Na5  1  0.71252496  0.68503219  0.41623456  1
  Na  Na6  1  0.01332610  0.99045102  0.49421443  1
  Na  Na7  1  0.00954898  0.98667390  0.99421443  1
  Na  Na8  1  0.67999310  0.32378402  0.82754743  1
  Na  Na9  1  0.67621598  0.32000690  0.32754743  1
  Na  Na10  1  0.34665910  0.65711802  0.16088143  1
  Na  Na11  1  0.34288198  0.65334090  0.66088143  1
  Sc  Sc0  1  0.98800746  0.99880193  0.35301621  1
  Sc  Sc1  1  0.00119807  0.01199254  0.85301621  1
  Sc  Sc2  1  0.65467446  0.33213493  0.68634921  1
  Sc  Sc3  1  0.66786507  0.34532554  0.18634921  1
  Sc  Sc4  1  0.32134046  0.66546893  0.01968321  1
  Sc  Sc5  1  0.33453107  0.67865954  0.51968321  1
  Nb  Nb0  1  0.99876641  0.00313055  0.64581243  1
  Nb  Nb1  1  0.99686945  0.00123359  0.14581243  1
  Nb  Nb2  1  0.66543341  0.33646355  0.97914543  1
  Nb  Nb3  1  0.66353645  0.33456659  0.47914543  1
  Nb  Nb4  1  0.33209941  0.66979755  0.31247943  1
  Nb  Nb5  1  0.33020245  0.66790059  0.81247943  1
  Si  Si0  1  0.70560454  0.71001341  0.25239255  1
  Si  Si1  1  0.99845981  0.29181972  0.25120953  1
  Si  Si2  1  0.28998659  0.29439546  0.75239255  1
  Si  Si3  1  0.70818028  0.00154019  0.75120953  1
  Si  Si4  1  0.37227154  0.04334641  0.58572555  1
  Si  Si5  1  0.66512681  0.62515272  0.58454253  1
  Si  Si6  1  0.95665359  0.62772846  0.08572555  1
  Si  Si7  1  0.37484728  0.33487319  0.08454253  1
  Si  Si8  1  0.03893754  0.37668041  0.91905955  1
  Si  Si9  1  0.33179281  0.95848672  0.91787653  1
  Si  Si10  1  0.62331959  0.96106246  0.41905955  1
  Si  Si11  1  0.04151328  0.66820719  0.41787653  1
  S  S0  1  0.28820841  0.99883850  0.25007130  1
  S  S1  1  0.00116150  0.71179159  0.75007130  1
  S  S2  1  0.95487541  0.33217150  0.58340430  1
  S  S3  1  0.66782850  0.04512459  0.08340430  1
  S  S4  1  0.62154141  0.66550550  0.91673830  1
  S  S5  1  0.33449450  0.37845859  0.41673830  1
  O  O0  1  0.21112434  0.01986123  0.30341820  1
  O  O1  1  0.82190277  0.78917091  0.30995177  1
  O  O2  1  0.99010425  0.18008865  0.30617621  1
  O  O3  1  0.21082909  0.17809723  0.80995177  1
  O  O4  1  0.98013877  0.78887566  0.80341820  1
  O  O5  1  0.81991135  0.00989575  0.80617621  1
  O  O6  1  0.80073361  0.97471507  0.69040017  1
  O  O7  1  0.16178374  0.18546890  0.69552413  1
  O  O8  1  0.02730228  0.82171455  0.69741215  1
  O  O9  1  0.81453110  0.83821626  0.19552413  1
  O  O10  1  0.02528493  0.19926639  0.19040017  1
  O  O11  1  0.17828545  0.97269772  0.19741215  1
  O  O12  1  0.87779134  0.35319423  0.63675120  1
  O  O13  1  0.48856977  0.12250391  0.64328477  1
  O  O14  1  0.65677125  0.51342165  0.63950921  1
  O  O15  1  0.87749609  0.51143023  0.14328477  1
  O  O16  1  0.64680577  0.12220866  0.13675120  1
  O  O17  1  0.48657835  0.34322875  0.13950921  1
  O  O18  1  0.46740061  0.30804807  0.02373317  1
  O  O19  1  0.82845074  0.51880190  0.02885713  1
  O  O20  1  0.69396928  0.15504755  0.03074515  1
  O  O21  1  0.48119810  0.17154926  0.52885713  1
  O  O22  1  0.69195193  0.53259939  0.52373317  1
  O  O23  1  0.84495245  0.30603072  0.53074515  1
  O  O24  1  0.54445734  0.68652823  0.97008520  1
  O  O25  1  0.15523577  0.45583791  0.97661877  1
  O  O26  1  0.32343725  0.84675565  0.97284321  1
  O  O27  1  0.54416209  0.84476423  0.47661877  1
  O  O28  1  0.31347177  0.45554266  0.47008520  1
  O  O29  1  0.15324435  0.67656275  0.47284321  1
  O  O30  1  0.13406661  0.64138207  0.35706717  1
  O  O31  1  0.49511674  0.85213590  0.36219113  1
  O  O32  1  0.36063528  0.48838155  0.36407915  1
  O  O33  1  0.14786410  0.50488326  0.86219113  1
  O  O34  1  0.35861793  0.86593339  0.85706717  1
  O  O35  1  0.51161845  0.63936472  0.86407915  1
  O  O36  1  0.01331976  0.83093731  0.41251004  1
  O  O37  1  0.81145853  0.98281115  0.41154633  1
  O  O38  1  0.19361238  0.20498956  0.40931414  1
  O  O39  1  0.01718885  0.18854147  0.91154633  1
  O  O40  1  0.16906269  0.98668024  0.91251004  1
  O  O41  1  0.79501044  0.80638762  0.90931414  1
  O  O42  1  0.95878623  0.16539469  0.58626368  1
  O  O43  1  0.18343727  0.03165325  0.59063165  1
  O  O44  1  0.83946436  0.82106862  0.59056753  1
  O  O45  1  0.96834675  0.81656273  0.09063165  1
  O  O46  1  0.83460531  0.04121377  0.08626368  1
  O  O47  1  0.17893138  0.16053564  0.09056753  1
  O  O48  1  0.67998676  0.16427031  0.74584304  1
  O  O49  1  0.47812553  0.31614415  0.74487933  1
  O  O50  1  0.86027938  0.53832256  0.74264714  1
  O  O51  1  0.68385585  0.52187447  0.24487933  1
  O  O52  1  0.83572969  0.32001324  0.24584304  1
  O  O53  1  0.46167744  0.13972062  0.24264714  1
  O  O54  1  0.62545323  0.49872769  0.91959668  1
  O  O55  1  0.85010427  0.36498625  0.92396465  1
  O  O56  1  0.50613136  0.15440162  0.92390053  1
  O  O57  1  0.63501375  0.14989573  0.42396465  1
  O  O58  1  0.50127231  0.37454677  0.41959668  1
  O  O59  1  0.84559838  0.49386864  0.42390053  1
  O  O60  1  0.34665276  0.49760431  0.07917704  1
  O  O61  1  0.14479153  0.64947815  0.07821333  1
  O  O62  1  0.52694538  0.87165656  0.07598114  1
  O  O63  1  0.35052185  0.85520847  0.57821333  1
  O  O64  1  0.50239569  0.65334724  0.57917704  1
  O  O65  1  0.12834344  0.47305462  0.57598114  1
  O  O66  1  0.29211923  0.83206169  0.25293068  1
  O  O67  1  0.51677027  0.69832025  0.25729865  1
  O  O68  1  0.17279736  0.48773562  0.25723453  1
  O  O69  1  0.30167975  0.48322973  0.75729865  1
  O  O70  1  0.16793831  0.70788077  0.75293068  1
  O  O71  1  0.51226438  0.82720264  0.75723453  1
loop_
_geom_bond_atom_site_label_1
_geom_bond_atom_site_label_2
_geom_bond_distance
_geom_bond_site_symmetry_2
Na0 O52 2.357480 1_555
Na0 O51 2.375499 1_555
Na0 O66 2.488042 1_655
Na0 O68 2.546761 1_655
Na0 O15 2.610622 1_555
Na0 O30 2.775885 1_655
Na0 O1 2.899055 1_555
Na0 O11 3.010956 1_655
Na1 O48 2.357480 1_555
Na1 O49 2.375499 1_555
Na1 O70 2.488042 1_545
Na1 O71 2.546761 1_545
Na1 O13 2.610622 1_555
Na1 O34 2.775885 1_545
Na1 O3 2.899055 1_555
Na1 O8 3.010956 1_545
Na2 O64 2.357471 1_555
Na2 O63 2.375508 1_555
Na2 O42 2.488042 1_565
Na2 O44 2.546761 1_555
Na2 O27 2.610600 1_555
Na2 O6 2.775885 1_555
Na2 O13 2.899055 1_565
Na2 O23 3.010956 1_565
Na3 O60 2.357471 1_555
Na3 O61 2.375508 1_555
Na3 O46 2.488042 1_455
Na3 O47 2.546761 1_555
Na3 O25 2.610600 1_554
Na3 O10 2.775885 1_555
Na3 O15 2.899055 1_455
Na3 O20 3.010956 1_455
Na4 O40 2.357480 1_545
Na4 O39 2.375499 1_555
Na4 O54 2.488046 1_555
Na4 O56 2.546775 1_555
Na4 O3 2.610622 1_555
Na4 O18 2.775871 1_556
Na4 O25 2.899055 1_555
Na4 O35 3.010956 1_555
Na5 O36 2.357480 1_655
Na5 O37 2.375499 1_555
Na5 O58 2.488046 1_555
Na5 O59 2.546775 1_555
Na5 O1 2.610622 1_555
Na5 O22 2.775871 1_555
Na5 O27 2.899055 1_555
Na5 O32 3.010956 1_555
Na6 O36 2.349771 1_555
Na6 O37 2.602310 1_455
Na6 O43 2.604265 1_565
Na6 O38 2.650668 1_565
Na6 O44 2.692601 1_455
Na6 O42 2.805801 1_465
Na7 O40 2.349771 1_555
Na7 O39 2.602310 1_565
Na7 O45 2.604265 1_456
Na7 O41 2.650668 1_455
Na7 O47 2.692601 1_566
Na7 O46 2.805801 1_466
Na8 O48 2.349771 1_555
Na8 O49 2.602310 1_555
Na8 O55 2.604265 1_555
Na8 O50 2.650668 1_555
Na8 O56 2.692601 1_555
Na8 O54 2.805801 1_555
Na9 O52 2.349771 1_555
Na9 O51 2.602310 1_555
Na9 O57 2.604265 1_555
Na9 O53 2.650668 1_555
Na9 O59 2.692601 1_555
Na9 O58 2.805801 1_555
Na10 O60 2.349771 1_555
Na10 O61 2.602310 1_555
Na10 O67 2.604265 1_555
Na10 O62 2.650668 1_555
Na10 O68 2.692601 1_555
Na10 O66 2.805801 1_555
Na11 O64 2.349771 1_555
Na11 O63 2.602310 1_555
Na11 O69 2.604265 1_555
Na11 O65 2.650668 1_555
Na11 O71 2.692601 1_555
Na11 O70 2.805801 1_555
Nb0 O7 1.937774 1_655
Nb0 O6 1.955047 1_545
Nb0 O43 1.996166 1_655
Nb0 O44 2.002323 1_545
Nb0 O8 2.134904 1_645
Nb0 O42 2.157271 1_555
Nb1 O9 1.937774 1_545
Nb1 O10 1.955047 1_655
Nb1 O45 1.996166 1_545
Nb1 O47 2.002323 1_655
Nb1 O11 2.134904 1_645
Nb1 O46 2.157271 1_555
Nb2 O19 1.937774 1_556
Nb2 O18 1.955047 1_556
Nb2 O55 1.996166 1_555
Nb2 O56 2.002323 1_555
Nb2 O20 2.134904 1_556
Nb2 O54 2.157271 1_555
Nb3 O21 1.937774 1_555
Nb3 O22 1.955047 1_555
Nb3 O57 1.996166 1_555
Nb3 O59 2.002323 1_555
Nb3 O23 2.134904 1_555
Nb3 O58 2.157271 1_555
Nb4 O31 1.937774 1_555
Nb4 O30 1.955047 1_555
Nb4 O67 1.996166 1_555
Nb4 O68 2.002323 1_555
Nb4 O32 2.134904 1_555
Nb4 O66 2.157271 1_555
Nb5 O33 1.937774 1_555
Nb5 O34 1.955047 1_555
Nb5 O69 1.996166 1_555
Nb5 O71 2.002323 1_555
Nb5 O35 2.134904 1_555
Nb5 O70 2.157271 1_555
O0 S0 1.456726 1_545
O0 Sc0 2.228745 1_445
O1 Si0 1.610970 1_555
O1 Sc0 1.993625 1_555
O2 Si1 1.589259 1_555
O2 Sc0 1.947823 1_545
O3 Si2 1.610970 1_555
O3 Sc1 1.993625 1_555
O4 S1 1.456726 1_655
O4 Sc1 2.228745 1_665
O5 Si3 1.589259 1_555
O5 Sc1 1.947823 1_655
O6 Si3 1.693332 1_565
O7 Si2 1.691530 1_555
O8 S1 1.501975 1_555
O9 Si0 1.691530 1_555
O10 Si1 1.693332 1_455
O11 S0 1.501975 1_555
O12 S2 1.456726 1_555
O12 Sc2 2.228745 1_555
O13 Si4 1.610970 1_555
O13 Sc2 1.993625 1_555
O14 Si5 1.589259 1_555
O14 Sc2 1.947823 1_555
O15 Si6 1.610970 1_555
O15 Sc3 1.993625 1_555
O16 S3 1.456726 1_555
O16 Sc3 2.228745 1_555
O17 Si7 1.589259 1_555
O17 Sc3 1.947823 1_555
O18 Si7 1.693332 1_555
O19 Si6 1.691530 1_555
O20 S3 1.501975 1_555
O21 Si4 1.691530 1_555
O22 Si5 1.693332 1_555
O23 S2 1.501975 1_555
O24 S4 1.456726 1_555
O24 Sc4 2.228745 1_556
O25 Si8 1.610970 1_555
O25 Sc4 1.993625 1_556
O26 Si9 1.589259 1_555
O26 Sc4 1.947823 1_556
O27 Si10 1.610970 1_555
O27 Sc5 1.993625 1_555
O28 S5 1.456726 1_555
O28 Sc5 2.228745 1_555
O29 Si11 1.589259 1_555
O29 Sc5 1.947823 1_555
O30 Si11 1.693332 1_555
O31 Si10 1.691530 1_555
O32 S5 1.501975 1_555
O33 Si8 1.691530 1_555
O34 Si9 1.693332 1_555
O35 S4 1.501975 1_555
O36 Si11 1.612758 1_555
O36 Sc0 2.131212 1_455
O37 Si10 1.616271 1_555
O37 Sc0 2.023496 1_555
O38 S5 1.456246 1_555
O38 Sc0 2.264815 1_445
O39 Si8 1.616271 1_555
O39 Sc1 2.023496 1_555
O40 Si9 1.612758 1_555
O40 Sc1 2.131212 1_565
O41 S4 1.456246 1_555
O41 Sc1 2.264815 1_665
O42 S2 1.522527 1_555
O43 Si4 1.655730 1_555
O44 Si5 1.691214 1_555
O45 Si6 1.655730 1_555
O46 S3 1.522527 1_555
O47 Si7 1.691214 1_555
O48 Si3 1.612758 1_555
O48 Sc2 2.131212 1_555
O49 Si2 1.616271 1_555
O49 Sc2 2.023496 1_555
O50 S1 1.456246 1_655
O50 Sc2 2.264815 1_555
O51 Si0 1.616271 1_555
O51 Sc3 2.023496 1_555
O52 Si1 1.612758 1_555
O52 Sc3 2.131212 1_555
O53 S0 1.456246 1_545
O53 Sc3 2.264815 1_555
O54 S4 1.522539 1_555
O55 Si8 1.655715 1_655
O56 Si9 1.691210 1_545
O57 Si10 1.655715 1_545
O58 S5 1.522539 1_555
O59 Si11 1.691210 1_655
O60 Si7 1.612770 1_555
O60 Sc4 2.131212 1_555
O61 Si6 1.616256 1_455
O61 Sc4 2.023496 1_555
O62 S3 1.456240 1_565
O62 Sc4 2.264815 1_555
O63 Si4 1.616256 1_565
O63 Sc5 2.023496 1_555
O64 Si5 1.612770 1_555
O64 Sc5 2.131212 1_555
O65 S2 1.456240 1_455
O65 Sc5 2.264815 1_555
O66 S0 1.522527 1_555
O67 Si0 1.655730 1_555
O68 Si1 1.691214 1_455
O69 Si2 1.655730 1_555
O70 S1 1.522527 1_555
O71 Si3 1.691214 1_565
