# generated using pymatgen
data_Na4NbIn3(PO4)6
_symmetry_space_group_name_H-M   'P 1'
_cell_length_a   8.98864552
_cell_length_b   8.98224176
_cell_length_c   22.84194009
_cell_angle_alpha   89.93457061
_cell_angle_beta   90.09898390
_cell_angle_gamma   120.02773585
_symmetry_Int_Tables_number   1
_chemical_formula_structural   Na4NbIn3(PO4)6
_chemical_formula_sum   'Na12 Nb3 In9 P18 O72'
_cell_volume   1596.68960221
_cell_formula_units_Z   3
loop_
 _symmetry_equiv_pos_site_id
 _symmetry_equiv_pos_as_xyz
  1  'x, y, z'
loop_
 _atom_site_type_symbol
 _atom_site_label
 _atom_site_symmetry_multiplicity
 _atom_site_fract_x
 _atom_site_fract_y
 _atom_site_fract_z
 _atom_site_occupancy
  Na  Na0  1  0.63622662  0.99945190  0.25075077  1
  Na  Na1  1  0.36299715  0.36351282  0.25061937  1
  Na  Na2  1  0.99971283  0.63716633  0.24995046  1
  Na  Na3  1  0.29846021  0.33379121  0.58608349  1
  Na  Na4  1  0.03672828  0.69965595  0.58594671  1
  Na  Na5  1  0.66454268  0.70266218  0.08020962  1
  Na  Na6  1  0.98765645  0.99892722  0.49672916  1
  Na  Na7  1  0.01261008  0.01173695  0.99547432  1
  Na  Na8  1  0.66680278  0.33348081  0.82635191  1
  Na  Na9  1  0.66653609  0.33307013  0.33488204  1
  Na  Na10  1  0.32009819  0.66617096  0.16110119  1
  Na  Na11  1  0.35002985  0.68201399  0.66723843  1
  Nb  Nb0  1  0.66656291  0.33124397  0.97767116  1
  Nb  Nb1  1  0.66686187  0.33137039  0.48001845  1
  Nb  Nb2  1  0.33189391  0.66582118  0.81403180  1
  In  In0  1  0.00139494  0.00043455  0.35298549  1
  In  In1  1  0.99914551  0.99929623  0.85061606  1
  In  In2  1  0.99185689  0.99929252  0.65303293  1
  In  In3  1  0.00708090  0.00643555  0.14453069  1
  In  In4  1  0.66675214  0.33035902  0.68750434  1
  In  In5  1  0.66657777  0.33034122  0.17945568  1
  In  In6  1  0.32695895  0.66637566  0.01556103  1
  In  In7  1  0.33953098  0.67275270  0.51439332  1
  In  In8  1  0.33431664  0.66754594  0.32291554  1
  P  P0  1  0.29438496  0.99875338  0.24997256  1
  P  P1  1  0.70421680  0.70495852  0.24824578  1
  P  P2  1  0.00137431  0.29597454  0.25017281  1
  P  P3  1  0.29665209  0.29787574  0.75015990  1
  P  P4  1  0.00115496  0.70360960  0.74997219  1
  P  P5  1  0.70199065  0.99839108  0.75222551  1
  P  P6  1  0.95825287  0.33238762  0.58294099  1
  P  P7  1  0.37506531  0.04067996  0.58366855  1
  P  P8  1  0.66603423  0.62346792  0.58328793  1
  P  P9  1  0.96076528  0.62547093  0.08307760  1
  P  P10  1  0.66585788  0.03802281  0.08252821  1
  P  P11  1  0.37436255  0.33388683  0.08189690  1
  P  P12  1  0.62634224  0.66718206  0.91895068  1
  P  P13  1  0.04068558  0.37259959  0.91739783  1
  P  P14  1  0.33194654  0.95926324  0.91706464  1
  P  P15  1  0.63548441  0.96862645  0.41625643  1
  P  P16  1  0.33382981  0.36584239  0.41853000  1
  P  P17  1  0.03165448  0.66607977  0.41829253  1
  O  O0  1  0.21809776  0.03683965  0.30395752  1
  O  O1  1  0.82214927  0.78739410  0.30111818  1
  O  O2  1  0.96439652  0.18124722  0.30405442  1
  O  O3  1  0.20826793  0.18501331  0.80252687  1
  O  O4  1  0.97611053  0.79078648  0.80256301  1
  O  O5  1  0.81140663  0.02513469  0.80588409  1
  O  O6  1  0.76602521  0.95662000  0.69532255  1
  O  O7  1  0.19555042  0.23461746  0.69142509  1
  O  O8  1  0.03853145  0.80518360  0.69134318  1
  O  O9  1  0.77794168  0.81130511  0.19121904  1
  O  O10  1  0.03769054  0.21993399  0.19516317  1
  O  O11  1  0.18128954  0.96217770  0.19502512  1
  O  O12  1  0.88156184  0.36752268  0.63669887  1
  O  O13  1  0.47875217  0.11963187  0.63846297  1
  O  O14  1  0.63396985  0.51276446  0.63733575  1
  O  O15  1  0.88828741  0.53264080  0.14205453  1
  O  O16  1  0.64342675  0.10829579  0.14136548  1
  O  O17  1  0.47362128  0.36191513  0.14023947  1
  O  O18  1  0.48171763  0.32060518  0.02967211  1
  O  O19  1  0.83771997  0.51764386  0.03097849  1
  O  O20  1  0.67809569  0.15751785  0.03017952  1
  O  O21  1  0.47472088  0.15700750  0.52908979  1
  O  O22  1  0.68547559  0.52449515  0.52886432  1
  O  O23  1  0.84376778  0.31607173  0.52811365  1
  O  O24  1  0.55327335  0.69069219  0.97649792  1
  O  O25  1  0.14315913  0.44777719  0.97326944  1
  O  O26  1  0.30679995  0.85870906  0.97322686  1
  O  O27  1  0.54855421  0.85616989  0.46914851  1
  O  O28  1  0.31095529  0.44997961  0.47344006  1
  O  O29  1  0.13767735  0.68791447  0.47348847  1
  O  O30  1  0.10265534  0.63121517  0.36138465  1
  O  O31  1  0.53221457  0.90259483  0.35836191  1
  O  O32  1  0.36987068  0.47183833  0.36142691  1
  O  O33  1  0.13245985  0.49443016  0.86396467  1
  O  O34  1  0.35983399  0.86624933  0.86378712  1
  O  O35  1  0.50261399  0.63980914  0.86648837  1
  O  O36  1  0.00459262  0.82032067  0.41392618  1
  O  O37  1  0.81705781  0.99676178  0.41285282  1
  O  O38  1  0.17956124  0.18485600  0.41415639  1
  O  O39  1  0.00879991  0.19159861  0.90994092  1
  O  O40  1  0.18325062  0.99222609  0.90976367  1
  O  O41  1  0.80726300  0.81694871  0.91099053  1
  O  O42  1  0.97715251  0.17055696  0.58446978  1
  O  O43  1  0.19805459  0.03401688  0.58391395  1
  O  O44  1  0.83673292  0.79750868  0.58467639  1
  O  O45  1  0.95786710  0.79654457  0.08196713  1
  O  O46  1  0.83110711  0.02499501  0.08148203  1
  O  O47  1  0.20004572  0.16811928  0.08116307  1
  O  O48  1  0.67109158  0.15069415  0.74712277  1
  O  O49  1  0.48022839  0.32954377  0.74653277  1
  O  O50  1  0.84913454  0.51981018  0.74619833  1
  O  O51  1  0.68131013  0.52082658  0.24461595  1
  O  O52  1  0.83981059  0.31760451  0.24485297  1
  O  O53  1  0.47759765  0.16027164  0.24447212  1
  O  O54  1  0.63630589  0.49553021  0.92475975  1
  O  O55  1  0.86027400  0.36387404  0.92471374  1
  O  O56  1  0.50411072  0.13996995  0.92407218  1
  O  O57  1  0.64918321  0.14921966  0.42602379  1
  O  O58  1  0.50025810  0.35029712  0.42682967  1
  O  O59  1  0.84974681  0.49921638  0.42620162  1
  O  O60  1  0.36436272  0.49930465  0.07625107  1
  O  O61  1  0.13978034  0.64816150  0.07797755  1
  O  O62  1  0.50939704  0.85545508  0.07729673  1
  O  O63  1  0.34208380  0.85526641  0.57740341  1
  O  O64  1  0.50390042  0.63932139  0.57633516  1
  O  O65  1  0.13989892  0.49401768  0.57600542  1
  O  O66  1  0.31463249  0.83668887  0.25626633  1
  O  O67  1  0.52256841  0.68559629  0.25547872  1
  O  O68  1  0.16303554  0.47892412  0.25654600  1
  O  O69  1  0.31301891  0.48153284  0.76145607  1
  O  O70  1  0.16863297  0.68797162  0.76101962  1
  O  O71  1  0.51812106  0.83132062  0.76242736  1
loop_
_geom_bond_atom_site_label_1
_geom_bond_atom_site_label_2
_geom_bond_distance
_geom_bond_site_symmetry_2
Na0 O67 2.473870 1_555
Na0 O53 2.490084 1_565
Na0 O66 2.506100 1_555
Na0 O52 2.509889 1_565
Na0 O31 2.619536 1_555
Na0 O16 2.671054 1_565
Na0 O2 2.832229 1_565
Na0 O9 2.914371 1_555
Na1 O51 2.481229 1_555
Na1 O68 2.487880 1_555
Na1 O67 2.507269 1_555
Na1 O53 2.509319 1_555
Na1 O32 2.702173 1_555
Na1 O17 2.714571 1_555
Na1 O0 2.821879 1_555
Na1 O10 2.834555 1_555
Na2 O66 2.483420 1_655
Na2 O52 2.487892 1_555
Na2 O68 2.507050 1_655
Na2 O51 2.510728 1_555
Na2 O15 2.648444 1_555
Na2 O30 2.716439 1_655
Na2 O1 2.810657 1_555
Na2 O11 2.826721 1_655
Na3 O43 2.373877 1_555
Na3 O64 2.432908 1_555
Na3 O65 2.491315 1_555
Na3 O42 2.500797 1_455
Na3 O7 2.572375 1_555
Na3 O28 2.756744 1_555
Na3 O14 2.861765 1_555
Na4 O44 2.363513 1_455
Na4 O63 2.384723 1_555
Na4 O65 2.457513 1_555
Na4 O8 2.585400 1_555
Na4 O43 2.601150 1_565
Na4 O29 2.745449 1_555
Na4 O12 2.832416 1_455
Na5 O45 2.332125 1_555
Na5 O60 2.385758 1_555
Na5 O62 2.397441 1_555
Na5 O46 2.507320 1_565
Na5 O24 2.551216 1_554
Na5 O9 2.724352 1_555
Na6 O37 2.445935 1_555
Na6 O36 2.535072 1_655
Na6 O38 2.538285 1_665
Na6 O42 2.560385 1_565
Na6 O44 2.587250 1_555
Na6 O43 2.652123 1_665
Na7 O47 2.503788 1_556
Na7 O39 2.544854 1_555
Na7 O40 2.548823 1_545
Na7 O46 2.596441 1_456
Na7 O45 2.631395 1_446
Na7 O41 2.637315 1_445
Na8 O48 2.458183 1_555
Na8 O49 2.463356 1_555
Na8 O50 2.469275 1_555
Na8 O56 2.756911 1_555
Na8 O54 2.766855 1_555
Na8 O55 2.767589 1_555
Na9 O57 2.611706 1_555
Na9 O59 2.612611 1_555
Na9 O51 2.623342 1_555
Na9 O52 2.627226 1_555
Na9 O58 2.629063 1_555
Na9 O53 2.629662 1_555
Na10 O61 2.446619 1_555
Na10 O62 2.561001 1_555
Na10 O60 2.601414 1_555
Na10 O66 2.675222 1_555
Na10 O68 2.683418 1_555
Na10 O67 2.767565 1_555
Na11 O63 2.596347 1_555
Na11 O71 2.603137 1_555
Na11 O64 2.629452 1_555
Na11 O70 2.711065 1_555
Na11 O69 2.716447 1_555
Na11 O65 2.750291 1_555
Nb0 O18 2.007055 1_556
Nb0 O20 2.010345 1_556
Nb0 O56 2.017597 1_555
Nb0 O19 2.018160 1_556
Nb0 O55 2.019070 1_555
Nb0 O54 2.026995 1_555
Nb1 O23 1.991646 1_555
Nb1 O57 1.991734 1_555
Nb1 O21 1.996898 1_555
Nb1 O22 1.998828 1_555
Nb1 O58 1.998911 1_555
Nb1 O59 2.002186 1_555
Nb2 O71 1.978300 1_555
Nb2 O69 1.983399 1_555
Nb2 O70 1.986186 1_555
Nb2 O33 2.031120 1_555
Nb2 O34 2.036408 1_555
Nb2 O35 2.048650 1_555
In0 O0 2.127084 1_555
In0 O2 2.129005 1_455
In0 O37 2.137657 1_445
In0 O1 2.138737 1_445
In0 O36 2.144090 1_545
In0 O38 2.145594 1_555
In1 O5 2.081121 1_565
In1 O4 2.090729 1_555
In1 O3 2.094601 1_665
In1 O40 2.159899 1_655
In1 O39 2.163867 1_665
In1 O41 2.176016 1_555
In2 O6 2.104240 1_555
In2 O8 2.170031 1_655
In2 O7 2.171310 1_665
In2 O42 2.243647 1_565
In2 O44 2.266457 1_555
In2 O43 2.335716 1_665
In3 O11 2.134507 1_545
In3 O10 2.136993 1_555
In3 O47 2.166900 1_555
In3 O9 2.200408 1_445
In3 O46 2.204384 1_455
In3 O45 2.227452 1_445
In4 O13 2.119017 1_555
In4 O48 2.125594 1_555
In4 O12 2.132635 1_555
In4 O14 2.135919 1_555
In4 O50 2.141567 1_555
In4 O49 2.150466 1_555
In5 O16 2.089531 1_555
In5 O17 2.092224 1_555
In5 O15 2.093155 1_555
In5 O53 2.197967 1_555
In5 O52 2.199782 1_555
In5 O51 2.222313 1_555
In6 O26 2.064303 1_554
In6 O25 2.066444 1_554
In6 O24 2.131482 1_554
In6 O61 2.149986 1_555
In6 O62 2.184539 1_555
In6 O60 2.187561 1_555
In7 O27 2.053582 1_555
In7 O29 2.103501 1_555
In7 O28 2.105730 1_555
In7 O64 2.170429 1_555
In7 O63 2.174220 1_555
In7 O65 2.213212 1_555
In8 O31 2.125427 1_555
In8 O32 2.126948 1_555
In8 O30 2.130787 1_555
In8 O66 2.218117 1_555
In8 O68 2.219517 1_555
In8 O67 2.235226 1_555
O0 P0 1.531828 1_545
O1 P1 1.530551 1_555
O2 P2 1.530655 1_655
O3 P3 1.511332 1_555
O4 P4 1.512086 1_655
O5 P5 1.512380 1_545
O6 P5 1.543153 1_555
O7 P3 1.558647 1_555
O8 P4 1.559077 1_555
O9 P1 1.554021 1_555
O10 P2 1.542223 1_555
O11 P0 1.542376 1_555
O12 P6 1.517948 1_555
O13 P7 1.508169 1_555
O14 P8 1.519064 1_555
O15 P9 1.546378 1_555
O16 P10 1.541281 1_555
O17 P11 1.551526 1_555
O18 P11 1.577333 1_555
O19 P9 1.582244 1_555
O20 P10 1.572676 1_555
O21 P7 1.585096 1_555
O22 P8 1.589029 1_555
O23 P6 1.579207 1_555
O24 P12 1.531758 1_555
O25 P13 1.519385 1_555
O26 P14 1.518753 1_555
O27 P15 1.516925 1_555
O28 P16 1.531386 1_555
O29 P17 1.531535 1_555
O30 P17 1.548839 1_555
O31 P15 1.552022 1_555
O32 P16 1.550050 1_555
O33 P13 1.569913 1_555
O34 P14 1.566789 1_555
O35 P12 1.567081 1_555
O36 P17 1.524933 1_555
O37 P15 1.523563 1_555
O38 P16 1.522943 1_555
O39 P13 1.512769 1_555
O40 P14 1.515615 1_555
O41 P12 1.516021 1_555
O42 P6 1.545979 1_555
O43 P7 1.562016 1_555
O44 P8 1.548674 1_555
O45 P9 1.550003 1_555
O46 P10 1.547472 1_555
O47 P11 1.528848 1_555
O48 P5 1.530363 1_545
O49 P3 1.530120 1_555
O50 P4 1.530461 1_655
O51 P1 1.563375 1_555
O52 P2 1.563084 1_655
O53 P0 1.562604 1_545
O54 P12 1.593902 1_555
O55 P13 1.592965 1_655
O56 P14 1.594000 1_545
O57 P15 1.580214 1_545
O58 P16 1.581571 1_555
O59 P17 1.581223 1_655
O60 P11 1.538040 1_555
O61 P9 1.522067 1_455
O62 P10 1.540453 1_565
O63 P7 1.545404 1_565
O64 P8 1.541512 1_555
O65 P6 1.557771 1_455
O66 P0 1.561233 1_555
O67 P1 1.562099 1_555
O68 P2 1.563034 1_555
O69 P3 1.602349 1_555
O70 P4 1.599962 1_555
O71 P5 1.598778 1_555
