# generated using pymatgen
data_Na10Nb4Zn4Si7S5O48
_symmetry_space_group_name_H-M   'P 1'
_cell_length_a   18.05330441
_cell_length_b   9.10647238
_cell_length_c   22.44185422
_cell_angle_alpha   89.87031211
_cell_angle_beta   89.38154531
_cell_angle_gamma   120.26266461
_symmetry_Int_Tables_number   1
_chemical_formula_structural   Na10Nb4Zn4Si7S5O48
_chemical_formula_sum   'Na30 Nb12 Zn12 Si21 S15 O144'
_cell_volume   3186.38386284
_cell_formula_units_Z   3
loop_
 _symmetry_equiv_pos_site_id
 _symmetry_equiv_pos_as_xyz
  1  'x, y, z'
loop_
 _atom_site_type_symbol
 _atom_site_label
 _atom_site_symmetry_multiplicity
 _atom_site_fract_x
 _atom_site_fract_y
 _atom_site_fract_z
 _atom_site_occupancy
  Na  Na0  1  0.32111911  0.02105255  0.25124011  1
  Na  Na1  1  0.81937688  0.02247281  0.24483023  1
  Na  Na2  1  0.17920486  0.34426575  0.25110171  1
  Na  Na3  1  0.68068884  0.34817574  0.25098926  1
  Na  Na4  1  0.82199592  0.62280755  0.75022640  1
  Na  Na5  1  0.49670795  0.36523671  0.73944876  1
  Na  Na6  1  0.18014508  0.01008035  0.75124613  1
  Na  Na7  1  0.67779320  0.01332279  0.75105592  1
  Na  Na8  1  0.65538901  0.95140624  0.07605392  1
  Na  Na9  1  0.82911939  0.69834167  0.07199441  1
  Na  Na10  1  0.01300560  0.34359642  0.08389434  1
  Na  Na11  1  0.49011349  0.69559658  0.91150429  1
  Na  Na12  1  0.98982063  0.69316268  0.91287508  1
  Na  Na13  1  0.16111306  0.29292584  0.90626787  1
  Na  Na14  1  0.49231284  0.28739812  0.41427732  1
  Na  Na15  1  0.99193728  0.28628987  0.41415700  1
  Na  Na16  1  0.16145803  0.02948641  0.40835306  1
  Na  Na17  1  0.66114314  0.02950438  0.40799061  1
  Na  Na18  1  0.99064447  0.99925932  0.49466066  1
  Na  Na19  1  0.49086716  0.99928309  0.49439861  1
  Na  Na20  1  0.99590371  0.98494962  0.99011004  1
  Na  Na21  1  0.49367626  0.99793867  0.98865242  1
  Na  Na22  1  0.33128571  0.34962090  0.82173594  1
  Na  Na23  1  0.83290168  0.33790572  0.82649922  1
  Na  Na24  1  0.33927707  0.34376095  0.32414883  1
  Na  Na25  1  0.83876683  0.34380099  0.32324765  1
  Na  Na26  1  0.15744154  0.68106641  0.15966783  1
  Na  Na27  1  0.65072436  0.66105489  0.15890532  1
  Na  Na28  1  0.15508913  0.63633336  0.65865420  1
  Na  Na29  1  0.65929562  0.65344381  0.65535012  1
  Nb  Nb0  1  0.00814892  0.01677759  0.64672993  1
  Nb  Nb1  1  0.50544235  0.01106478  0.64617697  1
  Nb  Nb2  1  0.00633828  0.00177641  0.14533036  1
  Nb  Nb3  1  0.50356962  0.99690456  0.14787154  1
  Nb  Nb4  1  0.33631928  0.34418403  0.97703592  1
  Nb  Nb5  1  0.83518726  0.33534616  0.97837414  1
  Nb  Nb6  1  0.33401878  0.32508928  0.48017673  1
  Nb  Nb7  1  0.83421578  0.32414592  0.48001062  1
  Nb  Nb8  1  0.16732134  0.66605723  0.31387773  1
  Nb  Nb9  1  0.66800721  0.66719879  0.31339206  1
  Nb  Nb10  1  0.17040633  0.66872849  0.81175589  1
  Nb  Nb11  1  0.66992435  0.67331622  0.81488146  1
  Zn  Zn0  1  0.00463827  0.01976231  0.35078984  1
  Zn  Zn1  1  0.50320973  0.02034550  0.35141701  1
  Zn  Zn2  1  0.00406975  0.98745765  0.84984250  1
  Zn  Zn3  1  0.50601363  0.98874316  0.85127739  1
  Zn  Zn4  1  0.34112024  0.36332712  0.68503657  1
  Zn  Zn5  1  0.84405436  0.35490913  0.68491505  1
  Zn  Zn6  1  0.34187160  0.32977494  0.18498577  1
  Zn  Zn7  1  0.84304284  0.32315874  0.18295323  1
  Zn  Zn8  1  0.17054850  0.69572880  0.01604645  1
  Zn  Zn9  1  0.67141729  0.68775031  0.01591576  1
  Zn  Zn10  1  0.16718690  0.64554391  0.51810336  1
  Zn  Zn11  1  0.66654634  0.64464176  0.51789310  1
  Si  Si0  1  0.14813746  0.99975452  0.25289192  1
  Si  Si1  1  0.64742445  -0.00000895  0.25402571  1
  Si  Si2  1  0.00072168  0.29759202  0.25195133  1
  Si  Si3  1  0.49972548  0.29684358  0.25223692  1
  Si  Si4  1  0.15035503  0.29806576  0.75313631  1
  Si  Si5  1  0.64837836  0.29509010  0.75184984  1
  Si  Si6  1  0.00021296  0.70394172  0.75166002  1
  Si  Si7  1  0.49819610  0.70442966  0.75322028  1
  Si  Si8  1  0.48279104  0.33929652  0.58768913  1
  Si  Si9  1  0.98388660  0.34047362  0.58605817  1
  Si  Si10  1  0.47960903  0.62300102  0.08598644  1
  Si  Si11  1  0.98332306  0.62650527  0.08369094  1
  Si  Si12  1  0.83285941  0.03670095  0.08681855  1
  Si  Si13  1  0.31157509  0.67854699  0.92159750  1
  Si  Si14  1  0.81447912  0.67141092  0.92081653  1
  Si  Si15  1  0.16716567  0.96003900  0.91793135  1
  Si  Si16  1  0.66758020  0.96770375  0.92017992  1
  Si  Si17  1  0.31218519  0.94656632  0.42137322  1
  Si  Si18  1  0.81210473  0.94605326  0.42131981  1
  Si  Si19  1  0.16783113  0.37263726  0.41905833  1
  Si  Si20  1  0.66790425  0.37314286  0.41902712  1
  S  S0  1  0.35481119  0.71114479  0.25220461  1
  S  S1  1  0.85595132  0.71283106  0.25094561  1
  S  S2  1  0.35491875  0.99363875  0.75100456  1
  S  S3  1  0.85600889  -0.00004798  0.75136142  1
  S  S4  1  0.18700766  0.04022670  0.58566131  1
  S  S5  1  0.68629318  0.03991199  0.58597264  1
  S  S6  1  0.33561982  0.62865370  0.58394131  1
  S  S7  1  0.83579043  0.62938226  0.58517853  1
  S  S8  1  0.33517588  0.04145835  0.08561760  1
  S  S9  1  0.18865086  0.33302986  0.08526823  1
  S  S10  1  0.68552978  0.32912805  0.08540285  1
  S  S11  1  0.02000498  0.37509928  0.91766139  1
  S  S12  1  0.52205011  0.37600495  0.91803202  1
  S  S13  1  0.01962797  0.66394419  0.41814234  1
  S  S14  1  0.51985061  0.66353984  0.41820835  1
  O  O0  1  0.10548606  0.02251255  0.31213672  1
  O  O1  1  0.59990215  0.01467810  0.31181508  1
  O  O2  1  0.40449940  0.78878325  0.30494613  1
  O  O3  1  0.90625762  0.79119497  0.30332625  1
  O  O4  1  0.48381147  0.18826749  0.31219603  1
  O  O5  1  0.98603336  0.18738804  0.31113536  1
  O  O6  1  0.10557409  0.18729290  0.81174368  1
  O  O7  1  0.59872953  0.17434229  0.80641447  1
  O  O8  1  0.48619570  0.77788007  0.81446799  1
  O  O9  1  0.98377652  0.78058558  0.81135033  1
  O  O10  1  0.40624133  0.01779041  0.80405547  1
  O  O11  1  0.90509927  0.02138102  0.80448430  1
  O  O12  1  0.39727094  0.97470508  0.69569338  1
  O  O13  1  0.89740618  0.97550259  0.69642803  1
  O  O14  1  0.08409184  0.19674688  0.69399386  1
  O  O15  1  0.58299140  0.19933717  0.69134563  1
  O  O16  1  0.01403837  0.84121427  0.69471530  1
  O  O17  1  0.51281845  0.83965441  0.69578020  1
  O  O18  1  0.39730039  0.81820119  0.19679453  1
  O  O19  1  0.89656855  0.81825454  0.19490489  1
  O  O20  1  0.01568065  0.19569724  0.19294435  1
  O  O21  1  0.51239976  0.18593970  0.19521174  1
  O  O22  1  0.08379210  0.97432678  0.19447858  1
  O  O23  1  0.58450197  0.97282339  0.19307884  1
  O  O24  1  0.43295604  0.34055849  0.64673493  1
  O  O25  1  0.92920521  0.33899365  0.64155615  1
  O  O26  1  0.23502943  0.12500136  0.63861928  1
  O  O27  1  0.73287642  0.12371119  0.63955556  1
  O  O28  1  0.32331971  0.53053295  0.63862435  1
  O  O29  1  0.82392472  0.53574524  0.64139199  1
  O  O30  1  0.42730637  0.51731378  0.14239553  1
  O  O31  1  0.93165030  0.51200916  0.13965332  1
  O  O32  1  0.32322531  0.11115265  0.14170219  1
  O  O33  1  0.81113243  0.10681268  0.14590946  1
  O  O34  1  0.23474608  0.34388627  0.13937087  1
  O  O35  1  0.73245118  0.34918700  0.14035989  1
  O  O36  1  0.23199726  0.31356526  0.03022232  1
  O  O37  1  0.73052320  0.30466618  0.03257314  1
  O  O38  1  0.41951169  0.52623749  0.02447664  1
  O  O39  1  0.92087866  0.53716724  0.02299805  1
  O  O40  1  0.34506995  0.15389385  0.03319423  1
  O  O41  1  0.84812955  0.17423967  0.03042010  1
  O  O42  1  0.23054906  0.15143220  0.52985078  1
  O  O43  1  0.73052723  0.15079493  0.53053799  1
  O  O44  1  0.34472978  0.53564601  0.53057526  1
  O  O45  1  0.84392538  0.53189797  0.53309732  1
  O  O46  1  0.41861403  0.31507192  0.52762890  1
  O  O47  1  0.92080707  0.31399323  0.52434733  1
  O  O48  1  0.25856915  0.66635818  0.97964343  1
  O  O49  1  0.76643106  0.67228482  0.98050683  1
  O  O50  1  0.06671484  0.44331378  0.97313563  1
  O  O51  1  0.57132693  0.45617574  0.97045463  1
  O  O52  1  0.13738212  0.82869391  0.97187762  1
  O  O53  1  0.64902647  0.85028196  0.97768370  1
  O  O54  1  0.25733167  0.84548350  0.47766810  1
  O  O55  1  0.75738376  0.84506375  0.47778021  1
  O  O56  1  0.13868542  0.45169689  0.47028274  1
  O  O57  1  0.63822039  0.45063952  0.47060867  1
  O  O58  1  0.06983150  0.69177663  0.47094808  1
  O  O59  1  0.57006033  0.69122716  0.47111107  1
  O  O60  1  0.06294748  0.63394348  0.36363687  1
  O  O61  1  0.56293100  0.63397014  0.36367195  1
  O  O62  1  0.25075621  0.86383317  0.35935830  1
  O  O63  1  0.75028020  0.86222667  0.35949400  1
  O  O64  1  0.18136481  0.49670275  0.35691146  1
  O  O65  1  0.68094439  0.49654969  0.35691784  1
  O  O66  1  0.06542979  0.49262914  0.86527364  1
  O  O67  1  0.56221423  0.48768877  0.86221297  1
  O  O68  1  0.18136400  0.86589987  0.85702974  1
  O  O69  1  0.67893895  0.86151615  0.85997479  1
  O  O70  1  0.24844630  0.63776877  0.86151352  1
  O  O71  1  0.75161549  0.64462176  0.86042250  1
  O  O72  1  0.00493990  0.80518005  0.40713805  1
  O  O73  1  0.50455715  0.80410536  0.40772137  1
  O  O74  1  0.40856049  0.98550990  0.41395918  1
  O  O75  1  0.90847219  0.98552366  0.41354615  1
  O  O76  1  0.09115227  0.17755991  0.41276295  1
  O  O77  1  0.59130975  0.17787521  0.41265130  1
  O  O78  1  0.00545578  0.20467563  0.90784922  1
  O  O79  1  0.50415293  0.20360348  0.90893439  1
  O  O80  1  0.09167359  0.00533568  0.91202979  1
  O  O81  1  0.58729718  0.99481725  0.91350295  1
  O  O82  1  0.40722666  0.83199227  0.91365917  1
  O  O83  1  0.90931935  0.83271547  0.91300178  1
  O  O84  1  0.48617407  0.15418025  0.59033419  1
  O  O85  1  0.98846228  0.15648060  0.59005039  1
  O  O86  1  0.10020607  0.03313872  0.58589370  1
  O  O87  1  0.59909413  0.03071140  0.58579287  1
  O  O88  1  0.41852839  0.79817972  0.58567278  1
  O  O89  1  0.91810488  0.79890430  0.58583664  1
  O  O90  1  0.48802271  0.82066262  0.09074000  1
  O  O91  1  0.98757756  0.81657165  0.08992537  1
  O  O92  1  0.41720967  0.03404057  0.08764304  1
  O  O93  1  0.92567284  0.03528738  0.09032605  1
  O  O94  1  0.10090110  0.16739289  0.08503736  1
  O  O95  1  0.59964575  0.16072467  0.08667852  1
  O  O96  1  0.33764340  0.13400586  0.74502010  1
  O  O97  1  0.83316625  0.13220894  0.74467046  1
  O  O98  1  0.24003745  0.30423897  0.74116749  1
  O  O99  1  0.74162337  0.31519385  0.74118225  1
  O  O100  1  0.42407913  0.50950103  0.74685246  1
  O  O101  1  0.91748189  0.51848275  0.74564294  1
  O  O102  1  0.33305976  0.53413601  0.24534961  1
  O  O103  1  0.83462278  0.53587238  0.24387173  1
  O  O104  1  0.41727880  0.31742085  0.24577258  1
  O  O105  1  0.91933737  0.32185636  0.24635294  1
  O  O106  1  0.24132033  0.16943878  0.24223512  1
  O  O107  1  0.73943750  0.17215095  0.24602789  1
  O  O108  1  0.31888395  0.49113532  0.92466429  1
  O  O109  1  0.82349713  0.49380029  0.92358816  1
  O  O110  1  0.43520278  0.37233466  0.92052081  1
  O  O111  1  0.93521377  0.37310218  0.91876648  1
  O  O112  1  0.25779920  0.14914193  0.92724425  1
  O  O113  1  0.75942156  0.15264222  0.92444984  1
  O  O114  1  0.32021058  0.14761124  0.42579967  1
  O  O115  1  0.81900423  0.14625226  0.42554330  1
  O  O116  1  0.25838604  0.36554412  0.42594869  1
  O  O117  1  0.75846548  0.36633694  0.42615449  1
  O  O118  1  0.43453064  0.49647106  0.42062377  1
  O  O119  1  0.93411039  0.49787054  0.42032070  1
  O  O120  1  0.17082693  0.47199267  0.08007037  1
  O  O121  1  0.67004337  0.47008582  0.07716646  1
  O  O122  1  0.07524422  0.63759217  0.07773325  1
  O  O123  1  0.57540653  0.65727012  0.07904582  1
  O  O124  1  0.26172139  0.86868719  0.07965671  1
  O  O125  1  0.75594310  0.84350720  0.08009346  1
  O  O126  1  0.17297013  0.87017419  0.57855846  1
  O  O127  1  0.67303207  0.86994243  0.57912060  1
  O  O128  1  0.26324022  0.65630306  0.57793659  1
  O  O129  1  0.76246401  0.65525215  0.57863976  1
  O  O130  1  0.07733112  0.50342101  0.57882199  1
  O  O131  1  0.57615196  0.50315586  0.57976126  1
  O  O132  1  0.15955835  0.82894712  0.25580998  1
  O  O133  1  0.65846733  0.82861829  0.25644334  1
  O  O134  1  0.26994090  0.71196273  0.25324083  1
  O  O135  1  0.77009942  0.71110343  0.25320935  1
  O  O136  1  0.09385210  0.48420547  0.25494709  1
  O  O137  1  0.59290130  0.48203109  0.25454110  1
  O  O138  1  0.15653792  0.48629376  0.75752165  1
  O  O139  1  0.65509036  0.48521468  0.75604359  1
  O  O140  1  0.09293591  0.70357424  0.75515988  1
  O  O141  1  0.59271218  0.70210901  0.75533784  1
  O  O142  1  0.26859542  0.83053985  0.75298338  1
  O  O143  1  0.76969736  0.82870493  0.75356428  1
loop_
_geom_bond_atom_site_label_1
_geom_bond_atom_site_label_2
_geom_bond_distance
_geom_bond_site_symmetry_2
Na0 O104 2.363083 1_555
Na0 O106 2.430921 1_555
Na0 O134 2.481048 1_545
Na0 O132 2.535325 1_545
Na0 O32 2.583598 1_555
Na0 O62 2.763212 1_545
Na0 O4 2.899143 1_555
Na1 O33 2.378007 1_555
Na1 O105 2.394459 1_555
Na1 O107 2.433796 1_555
Na1 O135 2.513600 1_545
Na1 O133 2.536879 1_545
Na1 O63 2.895893 1_545
Na2 O106 2.372308 1_555
Na2 O102 2.423191 1_555
Na2 O136 2.445947 1_555
Na2 O34 2.691091 1_555
Na2 O64 2.743984 1_555
Na2 O0 2.871336 1_555
Na2 O20 2.883488 1_555
Na2 O134 2.893353 1_555
Na3 O107 2.327797 1_555
Na3 O103 2.423110 1_555
Na3 O137 2.439026 1_555
Na3 O35 2.641669 1_555
Na3 O65 2.735946 1_555
Na3 O135 2.855933 1_555
Na3 O21 2.923418 1_555
Na3 O1 2.947465 1_555
Na4 O101 2.352032 1_555
Na4 O99 2.430183 1_555
Na4 O143 2.489201 1_555
Na4 O29 2.574896 1_555
Na4 O139 2.617577 1_555
Na4 O71 2.821070 1_555
Na4 O9 2.888269 1_555
Na5 O100 2.281500 1_555
Na5 O24 2.344664 1_555
Na5 O139 2.526695 1_555
Na5 O96 2.567531 1_555
Na5 O141 2.683503 1_555
Na5 O15 2.866575 1_555
Na5 O67 2.997901 1_555
Na6 O98 2.338495 1_555
Na6 O140 2.417396 1_545
Na6 O96 2.476746 1_555
Na6 O26 2.711884 1_555
Na6 O68 2.715936 1_545
Na6 O142 2.803043 1_545
Na6 O16 2.899973 1_545
Na6 O6 2.901762 1_555
Na7 O99 2.394312 1_555
Na7 O97 2.447528 1_555
Na7 O141 2.451197 1_545
Na7 O27 2.681067 1_555
Na7 O7 2.794711 1_555
Na7 O69 2.810861 1_545
Na7 O17 2.872544 1_545
Na7 O143 2.897526 1_545
Na8 O123 2.315779 1_555
Na8 O53 2.375464 1_554
Na8 O125 2.463762 1_555
Na8 O95 2.575530 1_565
Na8 O90 2.646976 1_555
Na8 O33 2.908703 1_565
Na8 O37 2.949559 1_565
Na8 O23 2.958774 1_555
Na9 O125 2.298250 1_555
Na9 O49 2.309598 1_554
Na9 O91 2.535170 1_555
Na9 O121 2.560570 1_555
Na9 O93 2.693125 1_565
Na9 O39 2.919951 1_555
Na9 O19 3.004916 1_555
Na10 O122 2.326430 1_555
Na10 O93 2.433281 1_455
Na10 O120 2.475654 1_555
Na10 O50 2.644507 1_554
Na10 O94 2.767739 1_555
Na10 O20 2.803337 1_555
Na10 O41 2.852555 1_455
Na10 O31 2.883483 1_455
Na11 O8 2.314756 1_555
Na11 O82 2.378307 1_555
Na11 O81 2.385090 1_555
Na11 O110 2.596360 1_555
Na11 O108 2.699321 1_555
Na11 O38 2.891738 1_556
Na11 O53 2.906685 1_555
Na11 O67 2.994152 1_555
Na12 O83 2.364031 1_555
Na12 O9 2.433422 1_555
Na12 O80 2.488621 1_665
Na12 O111 2.565871 1_555
Na12 O109 2.618741 1_555
Na12 O52 2.672622 1_655
Na12 O39 2.794702 1_556
Na12 O66 2.971371 1_655
Na13 O80 2.265585 1_555
Na13 O6 2.348100 1_555
Na13 O78 2.503075 1_555
Na13 O108 2.527455 1_555
Na13 O112 2.702110 1_555
Na13 O70 2.883956 1_555
Na14 O74 2.377943 1_545
Na14 O4 2.442125 1_555
Na14 O77 2.446557 1_555
Na14 O118 2.594846 1_555
Na14 O57 2.623002 1_555
Na14 O114 2.708418 1_555
Na14 O46 2.927896 1_555
Na14 O61 2.961883 1_555
Na15 O75 2.369220 1_545
Na15 O76 2.444610 1_655
Na15 O5 2.466950 1_555
Na15 O119 2.616655 1_555
Na15 O56 2.632969 1_655
Na15 O115 2.721564 1_555
Na15 O47 2.844040 1_555
Na15 O60 2.968735 1_655
Na16 O76 2.272005 1_555
Na16 O0 2.381303 1_555
Na16 O72 2.518303 1_545
Na16 O114 2.538336 1_555
Na16 O116 2.684438 1_555
Na16 O62 2.916162 1_545
Na16 O42 2.985723 1_555
Na16 O58 2.995019 1_545
Na17 O77 2.267297 1_555
Na17 O1 2.408624 1_555
Na17 O73 2.521200 1_545
Na17 O115 2.525802 1_555
Na17 O117 2.692754 1_555
Na17 O63 2.921480 1_545
Na17 O59 3.004061 1_545
Na17 O43 3.007685 1_555
Na18 O75 2.324300 1_555
Na18 O76 2.500347 1_665
Na18 O85 2.589016 1_565
Na18 O89 2.597615 1_555
Na18 O72 2.740931 1_655
Na18 O86 2.770321 1_665
Na19 O74 2.313767 1_555
Na19 O77 2.498190 1_565
Na19 O84 2.600468 1_565
Na19 O88 2.601878 1_555
Na19 O73 2.729834 1_555
Na19 O87 2.762577 1_565
Na20 O83 2.290152 1_555
Na20 O80 2.388267 1_665
Na20 O78 2.658966 1_665
Na20 O91 2.671395 1_556
Na20 O93 2.721171 1_566
Na20 O94 2.796553 1_666
Na21 O82 2.289743 1_555
Na21 O81 2.385129 1_555
Na21 O79 2.522803 1_565
Na21 O92 2.709899 1_566
Na21 O90 2.770838 1_556
Na21 O95 2.818532 1_566
Na22 O100 2.284752 1_555
Na22 O98 2.352708 1_555
Na22 O96 2.659084 1_555
Na22 O108 2.709179 1_555
Na22 O112 2.858484 1_555
Na22 O110 2.859683 1_555
Na23 O101 2.392522 1_555
Na23 O99 2.480043 1_555
Na23 O97 2.627836 1_555
Na23 O109 2.653414 1_555
Na23 O113 2.665068 1_555
Na23 O111 2.700157 1_555
Na24 O104 2.328773 1_555
Na24 O106 2.506102 1_555
Na24 O102 2.516327 1_555
Na24 O118 2.694857 1_555
Na24 O116 2.759217 1_555
Na24 O114 2.803215 1_555
Na25 O105 2.318179 1_555
Na25 O107 2.432330 1_555
Na25 O103 2.521660 1_555
Na25 O119 2.708829 1_555
Na25 O117 2.776135 1_555
Na25 O115 2.819671 1_555
Na26 O122 2.282521 1_555
Na26 O124 2.521631 1_555
Na26 O132 2.536399 1_555
Na26 O136 2.638010 1_555
Na26 O120 2.709991 1_555
Na26 O134 2.851779 1_555
Na27 O123 2.251152 1_555
Na27 O125 2.496025 1_555
Na27 O137 2.564048 1_555
Na27 O133 2.635548 1_555
Na27 O121 2.668866 1_555
Na27 O135 2.905860 1_555
Na28 O130 2.235378 1_555
Na28 O128 2.586678 1_555
Na28 O138 2.610370 1_555
Na28 O140 2.640189 1_555
Na28 O126 2.673407 1_555
Na28 O142 2.875063 1_555
Na29 O131 2.235760 1_555
Na29 O129 2.516480 1_555
Na29 O127 2.521477 1_555
Na29 O141 2.675755 1_555
Na29 O139 2.706024 1_555
Na29 O143 2.877908 1_555
Nb0 O14 1.861506 1_555
Nb0 O85 1.954726 1_455
Nb0 O16 1.973077 1_545
Nb0 O86 2.085361 1_555
Nb0 O13 2.138888 1_445
Nb0 O89 2.292575 1_445
Nb1 O15 1.883140 1_555
Nb1 O84 1.961899 1_555
Nb1 O17 1.974413 1_545
Nb1 O87 2.090811 1_555
Nb1 O12 2.111367 1_545
Nb1 O88 2.248538 1_545
Nb2 O22 1.902269 1_545
Nb2 O91 1.986971 1_445
Nb2 O20 2.000248 1_555
Nb2 O93 2.054907 1_455
Nb2 O94 2.089412 1_555
Nb2 O19 2.136299 1_445
Nb3 O23 1.888417 1_555
Nb3 O21 1.962859 1_565
Nb3 O90 1.965081 1_555
Nb3 O18 2.081823 1_555
Nb3 O95 2.109773 1_565
Nb3 O92 2.224159 1_565
Nb4 O38 1.915863 1_556
Nb4 O108 1.922674 1_555
Nb4 O112 1.979444 1_555
Nb4 O110 2.085556 1_555
Nb4 O36 2.114268 1_556
Nb4 O40 2.210541 1_556
Nb5 O113 1.963327 1_555
Nb5 O41 1.978610 1_556
Nb5 O109 1.985661 1_555
Nb5 O39 1.987446 1_556
Nb5 O111 2.118628 1_555
Nb5 O37 2.131804 1_556
Nb6 O46 1.910463 1_555
Nb6 O114 1.942379 1_555
Nb6 O116 2.005488 1_555
Nb6 O42 2.050001 1_555
Nb6 O118 2.144377 1_555
Nb6 O44 2.152672 1_555
Nb7 O47 1.902942 1_555
Nb7 O115 1.939511 1_555
Nb7 O117 2.010411 1_555
Nb7 O43 2.061433 1_555
Nb7 O119 2.147582 1_555
Nb7 O45 2.170200 1_555
Nb8 O64 1.941148 1_555
Nb8 O62 1.965073 1_555
Nb8 O136 2.021034 1_555
Nb8 O132 2.030492 1_555
Nb8 O60 2.068998 1_555
Nb8 O134 2.149685 1_555
Nb9 O65 1.946156 1_555
Nb9 O63 1.952800 1_555
Nb9 O133 2.018724 1_555
Nb9 O137 2.042156 1_555
Nb9 O61 2.082541 1_555
Nb9 O135 2.140584 1_555
Nb10 O70 1.935004 1_555
Nb10 O138 1.974989 1_555
Nb10 O68 1.987456 1_555
Nb10 O140 2.038092 1_555
Nb10 O142 2.088344 1_555
Nb10 O66 2.117713 1_555
Nb11 O71 1.925511 1_555
Nb11 O69 1.928238 1_555
Nb11 O141 2.050471 1_555
Nb11 O139 2.074832 1_555
Nb11 O67 2.097884 1_555
Nb11 O143 2.123441 1_555
O0 Si0 1.594860 1_545
O0 Zn0 1.996912 1_555
O1 Si1 1.590067 1_555
O1 Zn1 1.974140 1_555
O2 S0 1.446705 1_555
O2 Zn1 2.229898 1_565
O3 S1 1.445515 1_555
O3 Zn0 2.224012 1_665
O4 Si3 1.603151 1_555
O4 Zn1 1.943217 1_555
O5 Si2 1.599911 1_655
O5 Zn0 1.937007 1_655
O6 Si4 1.596908 1_555
O6 Zn2 1.999660 1_545
O7 Si5 1.577585 1_555
O7 Zn3 1.943306 1_545
O8 Si7 1.589781 1_555
O8 Zn3 1.954159 1_555
O9 Si6 1.604374 1_655
O9 Zn2 1.935966 1_655
O10 S2 1.464203 1_545
O10 Zn3 2.226567 1_545
O11 S3 1.447183 1_555
O11 Zn2 2.217709 1_645
O12 S2 1.506148 1_555
O13 S3 1.508973 1_565
O14 Si4 1.723750 1_555
O15 Si5 1.732043 1_555
O16 Si6 1.711581 1_555
O17 Si7 1.704576 1_555
O18 S0 1.518325 1_555
O19 S1 1.518597 1_555
O20 Si2 1.714038 1_555
O21 Si3 1.715387 1_555
O22 Si0 1.698422 1_555
O23 Si1 1.724583 1_565
O24 Si8 1.596936 1_555
O24 Zn4 1.961409 1_555
O25 Si9 1.576671 1_555
O25 Zn5 1.877207 1_555
O26 S4 1.453225 1_555
O26 Zn4 2.308086 1_555
O27 S5 1.454212 1_555
O27 Zn5 2.300432 1_555
O28 S6 1.463854 1_555
O28 Zn4 1.999969 1_555
O29 S7 1.472972 1_555
O29 Zn5 2.097985 1_555
O30 Si10 1.572621 1_555
O30 Zn6 1.874815 1_555
O31 Si11 1.588415 1_555
O31 Zn7 1.909653 1_555
O32 S8 1.472854 1_555
O32 Zn6 2.088247 1_555
O33 Si12 1.601591 1_555
O33 Zn7 1.943772 1_555
O34 S9 1.454616 1_555
O34 Zn6 2.257724 1_555
O35 S10 1.462757 1_555
O35 Zn7 2.339493 1_555
O36 S9 1.513200 1_555
O37 S10 1.509253 1_555
O38 Si10 1.712690 1_555
O39 Si11 1.703437 1_555
O40 S8 1.506662 1_555
O41 Si12 1.698224 1_555
O42 S4 1.543641 1_555
O43 S5 1.537890 1_555
O44 S6 1.522983 1_555
O45 S7 1.519256 1_555
O46 Si8 1.727777 1_555
O47 Si9 1.741187 1_555
O48 Si13 1.578079 1_555
O48 Zn8 1.914528 1_556
O49 Si14 1.590232 1_555
O49 Zn9 1.951451 1_556
O50 S11 1.464598 1_555
O50 Zn8 2.330421 1_556
O51 S12 1.442332 1_555
O51 Zn9 2.227529 1_556
O52 Si15 1.586377 1_555
O52 Zn8 1.882905 1_556
O53 Si16 1.595110 1_555
O53 Zn9 1.922240 1_556
O54 Si17 1.572583 1_555
O54 Zn10 1.939348 1_555
O55 Si18 1.574535 1_555
O55 Zn11 1.942861 1_555
O56 Si19 1.577728 1_555
O56 Zn10 1.907254 1_555
O57 Si20 1.580102 1_555
O57 Zn11 1.902180 1_555
O58 S13 1.443282 1_555
O58 Zn10 2.273816 1_555
O59 S14 1.445331 1_555
O59 Zn11 2.258025 1_555
O60 S13 1.542303 1_555
O61 S14 1.538620 1_555
O62 Si17 1.711818 1_555
O63 Si18 1.712616 1_555
O64 Si19 1.728752 1_555
O65 Si20 1.726362 1_555
O66 S11 1.512964 1_555
O67 S12 1.536451 1_555
O68 Si15 1.699365 1_555
O69 Si16 1.732755 1_555
O70 Si13 1.692281 1_555
O71 Si14 1.714681 1_555
O72 S13 1.459191 1_555
O72 Zn0 2.327506 1_565
O73 S14 1.458226 1_555
O73 Zn1 2.347889 1_565
O74 Si17 1.597572 1_555
O74 Zn1 2.095289 1_565
O75 Si18 1.596634 1_555
O75 Zn0 2.120009 1_665
O76 Si19 1.618265 1_555
O76 Zn0 2.057281 1_555
O77 Si20 1.619141 1_555
O77 Zn1 2.057286 1_555
O78 S11 1.455328 1_555
O78 Zn2 2.360204 1_545
O79 S12 1.449991 1_555
O79 Zn3 2.362311 1_545
O80 Si15 1.617227 1_545
O80 Zn2 2.065095 1_545
O81 Si16 1.596660 1_555
O81 Zn3 2.017250 1_555
O82 Si13 1.589455 1_555
O82 Zn3 2.132895 1_555
O83 Si14 1.605425 1_555
O83 Zn2 2.104719 1_655
O84 Si8 1.718263 1_555
O85 Si9 1.720822 1_555
O86 S4 1.535490 1_555
O87 S5 1.533765 1_555
O88 S6 1.515790 1_555
O89 S7 1.509972 1_555
O90 Si10 1.732078 1_555
O91 Si11 1.699587 1_555
O92 S8 1.517302 1_555
O93 Si12 1.684798 1_555
O94 S9 1.541608 1_555
O95 S10 1.535860 1_555
O96 S2 1.466687 1_545
O96 Zn4 2.455687 1_555
O97 S3 1.464344 1_555
O97 Zn5 2.351598 1_555
O98 Si4 1.611049 1_555
O98 Zn4 2.040612 1_555
O99 Si5 1.614024 1_555
O99 Zn5 2.101985 1_555
O100 Si7 1.604083 1_555
O100 Zn4 1.995808 1_555
O101 Si6 1.601318 1_655
O101 Zn5 1.972655 1_555
O102 S0 1.463079 1_555
O102 Zn6 2.372545 1_555
O103 S1 1.465387 1_555
O103 Zn7 2.438990 1_555
O104 Si3 1.599144 1_555
O104 Zn6 1.980063 1_555
O105 Si2 1.598251 1_655
O105 Zn7 1.995084 1_555
O106 Si0 1.626183 1_545
O106 Zn6 2.085054 1_555
O107 Si1 1.617670 1_555
O107 Zn7 2.175938 1_555
O108 Si13 1.778054 1_555
O109 Si14 1.706327 1_555
O110 S12 1.551699 1_555
O111 S11 1.521609 1_655
O112 Si15 1.689796 1_545
O113 Si16 1.668607 1_545
O114 Si17 1.765361 1_545
O115 Si18 1.766457 1_545
O116 Si19 1.677067 1_555
O117 Si20 1.676351 1_555
O118 S14 1.525114 1_555
O119 S13 1.522425 1_655
O120 S9 1.459148 1_555
O120 Zn8 2.492565 1_555
O121 S10 1.456639 1_555
O121 Zn9 2.399250 1_555
O122 Si11 1.614999 1_455
O122 Zn8 2.045535 1_555
O123 Si10 1.600830 1_555
O123 Zn9 2.132813 1_555
O124 S8 1.467534 1_565
O124 Zn8 2.162336 1_555
O125 Si12 1.609204 1_565
O125 Zn9 2.071207 1_555
O126 S4 1.447121 1_565
O126 Zn10 2.415863 1_555
O127 S5 1.450894 1_565
O127 Zn11 2.425963 1_555
O128 S6 1.457485 1_555
O128 Zn10 2.167781 1_555
O129 S7 1.465541 1_555
O129 Zn11 2.179288 1_555
O130 Si9 1.595005 1_455
O130 Zn10 1.997872 1_555
O131 Si8 1.598883 1_555
O131 Zn11 2.018582 1_555
O132 Si0 1.670125 1_555
O133 Si1 1.670809 1_565
O134 S0 1.535882 1_555
O135 S1 1.542326 1_555
O136 Si2 1.685928 1_555
O137 Si3 1.679055 1_555
O138 Si4 1.663855 1_555
O139 Si5 1.676510 1_555
O140 Si6 1.678330 1_555
O141 Si7 1.718240 1_555
O142 S2 1.517179 1_555
O143 S3 1.552779 1_565
