# generated using pymatgen
data_MgFeCo3O8
_symmetry_space_group_name_H-M   'P 1'
_cell_length_a   5.94456862
_cell_length_b   5.83155099
_cell_length_c   5.74087423
_cell_angle_alpha   60.50695815
_cell_angle_beta   61.12535490
_cell_angle_gamma   89.50946411
_symmetry_Int_Tables_number   1
_chemical_formula_structural   MgFeCo3O8
_chemical_formula_sum   'Mg1 Fe1 Co3 O8'
_cell_volume   144.66965275
_cell_formula_units_Z   1
loop_
 _symmetry_equiv_pos_site_id
 _symmetry_equiv_pos_as_xyz
  1  'x, y, z'
loop_
 _atom_site_type_symbol
 _atom_site_label
 _atom_site_symmetry_multiplicity
 _atom_site_fract_x
 _atom_site_fract_y
 _atom_site_fract_z
 _atom_site_occupancy
  Mg  Mg0  1  0.50000000  0.50000000  0.50000000  1
  Fe  Fe0  1  0.00000000  0.00000000  0.00000000  1
  Co  Co0  1  0.00000000  0.00000000  0.50000000  1
  Co  Co1  1  0.00000000  0.50000000  0.00000000  1
  Co  Co2  1  0.00000000  0.50000000  0.50000000  1
  O  O0  1  0.21028600  0.25507600  0.01579300  1
  O  O1  1  0.21032400  0.25514000  0.51885100  1
  O  O2  1  0.19307300  0.70536800  0.05074800  1
  O  O3  1  0.20875300  0.71297200  0.53910900  1
  O  O4  1  0.79124700  0.28702800  0.46089100  1
  O  O5  1  0.80692700  0.29463200  0.94925200  1
  O  O6  1  0.78967600  0.74486000  0.48114900  1
  O  O7  1  0.78971400  0.74492400  0.98420700  1
loop_
_geom_bond_atom_site_label_1
_geom_bond_atom_site_label_2
_geom_bond_distance
_geom_bond_site_symmetry_2
Mg0 O3 2.110146 1_555
Mg0 O4 2.110146 1_555
Mg0 O6 2.173912 1_555
Mg0 O1 2.173912 1_555
Mg0 O7 2.174112 1_554
Mg0 O0 2.174112 1_556
Fe0 O6 2.014094 1_445
Fe0 O1 2.014094 1_554
Fe0 O7 2.014344 1_444
Fe0 O0 2.014344 1_555
Fe0 O2 2.037291 1_545
Fe0 O5 2.037291 1_454
Co0 O0 2.026546 1_555
Co0 O7 2.026546 1_445
Co0 O1 2.027248 1_555
Co0 O6 2.027248 1_445
Co0 O3 2.062890 1_545
Co0 O4 2.062890 1_455
Co1 O2 1.877892 1_555
Co1 O5 1.877892 1_454
Co1 O7 1.887393 1_454
Co1 O0 1.887393 1_555
Co1 O4 1.924300 1_455
Co1 O3 1.924300 1_554
Co2 O5 1.877951 1_455
Co2 O2 1.877951 1_555
Co2 O6 1.887277 1_455
Co2 O1 1.887277 1_555
Co2 O4 1.924279 1_455
Co2 O3 1.924279 1_555
