# generated using pymatgen
data_BaLi4
_symmetry_space_group_name_H-M   'P 1'
_cell_length_a   10.85303619
_cell_length_b   10.85304495
_cell_length_c   8.89665977
_cell_angle_alpha   90.00000000
_cell_angle_beta   90.00000000
_cell_angle_gamma   120.00002726
_symmetry_Int_Tables_number   1
_chemical_formula_structural   BaLi4
_chemical_formula_sum   'Ba6 Li24'
_cell_volume   907.52865756
_cell_formula_units_Z   6
loop_
 _symmetry_equiv_pos_site_id
 _symmetry_equiv_pos_as_xyz
  1  'x, y, z'
loop_
 _atom_site_type_symbol
 _atom_site_label
 _atom_site_symmetry_multiplicity
 _atom_site_fract_x
 _atom_site_fract_y
 _atom_site_fract_z
 _atom_site_occupancy
  Ba  Ba0  1  0.47174010  0.52826090  0.25000000  1
  Ba  Ba1  1  0.47174010  0.94347820  0.25000000  1
  Ba  Ba2  1  0.05652280  0.52826090  0.25000000  1
  Ba  Ba3  1  0.52825990  0.47173910  0.75000000  1
  Ba  Ba4  1  0.52825990  0.05652180  0.75000000  1
  Ba  Ba5  1  0.94347720  0.47173910  0.75000000  1
  Li  Li0  1  -0.00000000  -0.00000000  0.50000000  1
  Li  Li1  1  -0.00000000  -0.00000000  -0.00000000  1
  Li  Li2  1  0.33333300  0.66666700  0.91510041  1
  Li  Li3  1  0.66666700  0.33333300  0.08489959  1
  Li  Li4  1  0.66666700  0.33333300  0.41510041  1
  Li  Li5  1  0.33333300  0.66666700  0.58489959  1
  Li  Li6  1  0.09959767  0.90040233  0.25000000  1
  Li  Li7  1  0.09959767  0.19919633  0.25000000  1
  Li  Li8  1  0.80080367  0.90040233  0.25000000  1
  Li  Li9  1  0.90040233  0.09959767  0.75000000  1
  Li  Li10  1  0.90040233  0.80080367  0.75000000  1
  Li  Li11  1  0.19919633  0.09959767  0.75000000  1
  Li  Li12  1  0.16353823  0.83646177  0.93277007  1
  Li  Li13  1  0.16353823  0.32707746  0.93277007  1
  Li  Li14  1  0.67292254  0.83646177  0.93277007  1
  Li  Li15  1  0.83646177  0.16353823  0.06722993  1
  Li  Li16  1  0.83646177  0.67292254  0.06722993  1
  Li  Li17  1  0.32707746  0.16353823  0.06722993  1
  Li  Li18  1  0.83646177  0.16353823  0.43277007  1
  Li  Li19  1  0.83646177  0.67292254  0.43277007  1
  Li  Li20  1  0.32707746  0.16353823  0.43277007  1
  Li  Li21  1  0.16353823  0.83646177  0.56722993  1
  Li  Li22  1  0.16353823  0.32707746  0.56722993  1
  Li  Li23  1  0.67292254  0.83646177  0.56722993  1
loop_
_geom_bond_atom_site_label_1
_geom_bond_atom_site_label_2
_geom_bond_distance
_geom_bond_site_symmetry_2
Ba0 Li19 3.816116 1_555
Ba0 Li16 3.816116 1_555
Ba0 Li20 3.816127 1_555
Ba0 Li17 3.816127 1_555
Ba0 Li8 3.826583 1_555
Ba0 Li7 3.826593 1_555
Ba0 Li4 3.947685 1_555
Ba0 Li3 3.947685 1_555
Ba0 Li2 3.955573 1_554
Ba0 Li5 3.955573 1_555
Ba0 Li14 4.076488 1_554
Ba0 Li23 4.076488 1_555
Ba0 Li22 4.076494 1_555
Ba0 Li13 4.076494 1_554
Ba0 Ba2 4.506368 1_555
Ba0 Ba1 4.506372 1_555
Ba0 Ba3 4.573456 1_554
Ba0 Ba3 4.573456 1_555
Ba1 Li15 3.816116 1_565
Ba1 Li18 3.816116 1_565
Ba1 Li20 3.816127 1_565
Ba1 Li17 3.816127 1_565
Ba1 Li8 3.826570 1_555
Ba1 Li6 3.826602 1_555
Ba1 Li4 3.947685 1_565
Ba1 Li3 3.947685 1_565
Ba1 Li2 3.955560 1_554
Ba1 Li5 3.955560 1_555
Ba1 Li23 4.076476 1_555
Ba1 Li14 4.076476 1_554
Ba1 Li12 4.076497 1_554
Ba1 Li21 4.076497 1_555
Ba1 Ba2 4.506368 1_555
Ba1 Ba4 4.573460 1_565
Ba1 Ba4 4.573460 1_564
Ba2 Li15 3.816127 1_455
Ba2 Li18 3.816127 1_455
Ba2 Li19 3.816127 1_455
Ba2 Li16 3.816127 1_455
Ba2 Li7 3.826577 1_555
Ba2 Li6 3.826599 1_555
Ba2 Li4 3.947691 1_455
Ba2 Li3 3.947691 1_455
Ba2 Li2 3.955553 1_554
Ba2 Li5 3.955553 1_555
Ba2 Li22 4.076478 1_555
Ba2 Li13 4.076478 1_554
Ba2 Li12 4.076493 1_554
Ba2 Li21 4.076493 1_555
Ba2 Ba5 4.573465 1_454
Ba2 Ba5 4.573465 1_455
Ba3 Li22 3.816116 1_555
Ba3 Li13 3.816116 1_555
Ba3 Li23 3.816127 1_555
Ba3 Li14 3.816127 1_555
Ba3 Li11 3.826583 1_555
Ba3 Li10 3.826593 1_555
Ba3 Li5 3.947685 1_555
Ba3 Li2 3.947685 1_555
Ba3 Li3 3.955573 1_556
Ba3 Li4 3.955573 1_555
Ba3 Li20 4.076488 1_555
Ba3 Li17 4.076488 1_556
Ba3 Li16 4.076494 1_556
Ba3 Li19 4.076494 1_555
Ba3 Ba5 4.506368 1_555
Ba3 Ba4 4.506372 1_555
Ba4 Li12 3.816116 1_545
Ba4 Li21 3.816116 1_545
Ba4 Li14 3.816127 1_545
Ba4 Li23 3.816127 1_545
Ba4 Li11 3.826570 1_555
Ba4 Li9 3.826602 1_555
Ba4 Li5 3.947685 1_545
Ba4 Li2 3.947685 1_545
Ba4 Li3 3.955560 1_556
Ba4 Li4 3.955560 1_555
Ba4 Li17 4.076476 1_556
Ba4 Li20 4.076476 1_555
Ba4 Li15 4.076497 1_556
Ba4 Li18 4.076497 1_555
Ba4 Ba5 4.506368 1_555
Ba5 Li12 3.816127 1_655
Ba5 Li21 3.816127 1_655
Ba5 Li22 3.816127 1_655
Ba5 Li13 3.816127 1_655
Ba5 Li10 3.826577 1_555
Ba5 Li9 3.826599 1_555
Ba5 Li5 3.947691 1_655
Ba5 Li2 3.947691 1_655
Ba5 Li3 3.955553 1_556
Ba5 Li4 3.955553 1_555
Ba5 Li16 4.076478 1_556
Ba5 Li19 4.076478 1_555
Ba5 Li15 4.076493 1_556
Ba5 Li18 4.076493 1_555
Li0 Li6 2.907265 1_545
Li0 Li9 2.907265 1_455
Li0 Li8 2.907270 1_445
Li0 Li11 2.907270 1_555
Li0 Li10 2.907271 1_445
Li0 Li7 2.907271 1_555
Li0 Li21 3.131840 1_545
Li0 Li18 3.131840 1_455
Li0 Li20 3.131847 1_555
Li0 Li23 3.131847 1_445
Li0 Li22 3.131850 1_555
Li0 Li19 3.131850 1_445
Li1 Li6 2.907265 1_545
Li1 Li9 2.907265 1_454
Li1 Li8 2.907270 1_445
Li1 Li11 2.907270 1_554
Li1 Li10 2.907271 1_444
Li1 Li7 2.907271 1_555
Li1 Li12 3.131840 1_544
Li1 Li15 3.131840 1_455
Li1 Li17 3.131847 1_555
Li1 Li14 3.131847 1_444
Li1 Li13 3.131850 1_554
Li1 Li16 3.131850 1_445
Li2 Li5 2.937684 1_555
Li3 Li4 2.937684 1_555
Li6 Li8 3.242822 1_455
Li6 Li7 3.242825 1_565
Li7 Li8 3.242822 1_445
Li10 Li16 3.067572 1_556
Li10 Li19 3.067572 1_555
Li10 Li12 3.137564 1_655
Li10 Li21 3.137564 1_655
Li10 Li23 3.137583 1_555
Li10 Li14 3.137583 1_555
Li10 Li11 3.242822 1_665
Li10 Li9 3.242825 1_565
Li11 Li17 3.067572 1_556
Li11 Li20 3.067572 1_555
Li11 Li12 3.137566 1_545
Li11 Li21 3.137566 1_545
Li11 Li22 3.137585 1_555
Li11 Li13 3.137585 1_555
Li11 Li9 3.242822 1_455
Li12 Li6 3.067572 1_556
Li12 Li2 3.195674 1_555
Li12 Li21 3.252086 1_555
Li12 Li16 3.298736 1_456
Li12 Li17 3.298738 1_566
Li13 Li7 3.067572 1_556
Li13 Li9 3.137572 1_455
Li13 Li2 3.195674 1_555
Li13 Li22 3.252086 1_555
Li13 Li15 3.298736 1_456
Li13 Li17 3.298756 1_556
Li14 Li8 3.067572 1_556
Li14 Li9 3.137572 1_565
Li14 Li2 3.195672 1_555
Li14 Li23 3.252086 1_555
Li14 Li15 3.298738 1_566
Li14 Li16 3.298756 1_556
Li15 Li9 3.067572 1_554
Li15 Li7 3.137564 1_655
Li15 Li8 3.137566 1_545
Li15 Li3 3.195674 1_555
Li15 Li18 3.252086 1_555
Li16 Li6 3.137572 1_655
Li16 Li8 3.137585 1_555
Li16 Li3 3.195674 1_555
Li16 Li19 3.252086 1_555
Li17 Li6 3.137572 1_545
Li17 Li7 3.137583 1_555
Li17 Li3 3.195672 1_555
Li17 Li20 3.252086 1_555
Li18 Li9 3.067572 1_555
Li18 Li7 3.137564 1_655
Li18 Li8 3.137566 1_545
Li18 Li4 3.195674 1_555
Li18 Li22 3.298736 1_655
Li18 Li23 3.298738 1_545
Li19 Li6 3.137572 1_655
Li19 Li8 3.137585 1_555
Li19 Li4 3.195674 1_555
Li19 Li21 3.298736 1_655
Li19 Li23 3.298756 1_555
Li20 Li6 3.137572 1_545
Li20 Li7 3.137583 1_555
Li20 Li4 3.195672 1_555
Li20 Li21 3.298738 1_545
Li20 Li22 3.298756 1_555
Li21 Li6 3.067572 1_555
Li21 Li5 3.195674 1_555
Li22 Li7 3.067572 1_555
Li22 Li9 3.137572 1_455
Li22 Li5 3.195674 1_555
Li23 Li8 3.067572 1_555
Li23 Li9 3.137572 1_565
Li23 Li5 3.195672 1_555
