# generated using pymatgen
data_Na7La2Si3Sn2(PO8)3
_symmetry_space_group_name_H-M   'P 1'
_cell_length_a   9.39250923
_cell_length_b   9.41890612
_cell_length_c   23.04661185
_cell_angle_alpha   89.91232474
_cell_angle_beta   89.76452673
_cell_angle_gamma   120.03026113
_symmetry_Int_Tables_number   1
_chemical_formula_structural   Na7La2Si3Sn2(PO8)3
_chemical_formula_sum   'Na21 La6 Si9 Sn6 P9 O72'
_cell_volume   1765.14306972
_cell_formula_units_Z   3
loop_
 _symmetry_equiv_pos_site_id
 _symmetry_equiv_pos_as_xyz
  1  'x, y, z'
loop_
 _atom_site_type_symbol
 _atom_site_label
 _atom_site_symmetry_multiplicity
 _atom_site_fract_x
 _atom_site_fract_y
 _atom_site_fract_z
 _atom_site_occupancy
  Na  Na0  1  0.63307355  0.00407271  0.25516832  1
  Na  Na1  1  0.36584517  0.37143619  0.24671364  1
  Na  Na2  1  0.00079798  0.61922449  0.25039626  1
  Na  Na3  1  0.63465884  0.63526320  0.74498141  1
  Na  Na4  1  0.99092658  0.36328066  0.74466139  1
  Na  Na5  1  0.37843454  0.00327696  0.74258753  1
  Na  Na6  1  0.03543596  0.69334501  0.58080070  1
  Na  Na7  1  0.66284663  0.96985306  0.58019037  1
  Na  Na8  1  0.66798118  0.68872058  0.08163846  1
  Na  Na9  1  0.03027578  0.34128189  0.08760953  1
  Na  Na10  1  0.95651116  0.66381624  0.92438752  1
  Na  Na11  1  0.69999443  0.03167416  0.92056703  1
  Na  Na12  1  0.34133947  0.30427747  0.92176693  1
  Na  Na13  1  0.96338769  0.30386437  0.41743826  1
  Na  Na14  1  0.33592805  0.02773715  0.42105224  1
  Na  Na15  1  0.99883958  0.99987525  0.49997301  1
  Na  Na16  1  0.01101157  0.99499361  0.00549304  1
  Na  Na17  1  0.66651257  0.33330059  0.83310631  1
  Na  Na18  1  0.67834434  0.34327843  0.33925574  1
  Na  Na19  1  0.32289065  0.66470522  0.16225498  1
  Na  Na20  1  0.33353690  0.66061966  0.66027935  1
  La  La0  1  0.99416875  0.99802046  0.85108601  1
  La  La1  1  0.66764734  0.33057642  0.66900698  1
  La  La2  1  0.66880414  0.33296100  0.18004450  1
  La  La3  1  0.66212645  0.33650330  0.99558090  1
  La  La4  1  0.32973747  0.66238691  0.32356920  1
  La  La5  1  0.34012650  0.67015407  0.81418825  1
  Si  Si0  1  0.99883421  0.28208002  0.25228546  1
  Si  Si1  1  0.70546841  0.00316649  0.74461923  1
  Si  Si2  1  0.98120199  0.33710100  0.58053876  1
  Si  Si3  1  0.35784871  0.02132303  0.58131688  1
  Si  Si4  1  0.99022963  0.65797787  0.08381823  1
  Si  Si5  1  0.34558446  0.33507159  0.08292749  1
  Si  Si6  1  0.63063788  0.66335994  0.91957379  1
  Si  Si7  1  0.63720387  0.97504706  0.41818680  1
  Si  Si8  1  0.02050512  0.66389848  0.41808997  1
  Sn  Sn0  1  0.99058184  0.99443949  0.35655510  1
  Sn  Sn1  1  0.00509040  0.00747439  0.64353040  1
  Sn  Sn2  1  0.00714407  0.00436031  0.14918710  1
  Sn  Sn3  1  0.66502292  0.33154112  0.48675315  1
  Sn  Sn4  1  0.33433785  0.66870677  0.01862203  1
  Sn  Sn5  1  0.33343681  0.66831252  0.51203193  1
  P  P0  1  0.27939055  0.00039932  0.25346897  1
  P  P1  1  0.72023617  0.71958677  0.25019278  1
  P  P2  1  0.29504156  0.29397210  0.74650350  1
  P  P3  1  0.99861606  0.70500243  0.74400419  1
  P  P4  1  0.66422368  0.63967002  0.58164430  1
  P  P5  1  0.66766976  0.01172728  0.08422767  1
  P  P6  1  0.03642353  0.37100469  0.91993678  1
  P  P7  1  0.33638506  0.96340001  0.91922647  1
  P  P8  1  0.33636420  0.36121696  0.41827270  1
  O  O0  1  0.19489152  0.01305591  0.31027395  1
  O  O1  1  0.82470674  0.80570176  0.30457318  1
  O  O2  1  0.98605116  0.17656836  0.31166195  1
  O  O3  1  0.22714150  0.21097821  0.80535874  1
  O  O4  1  0.99114139  0.78295711  0.80187698  1
  O  O5  1  0.79670908  0.01976513  0.80647913  1
  O  O6  1  0.81087973  0.98637750  0.68897814  1
  O  O7  1  0.18210352  0.18644086  0.69567608  1
  O  O8  1  0.00981580  0.81530793  0.69054167  1
  O  O9  1  0.80502719  0.81548246  0.19373165  1
  O  O10  1  0.00898774  0.18868380  0.19345514  1
  O  O11  1  0.17600180  0.98327131  0.19929119  1
  O  O12  1  0.92573616  0.38478489  0.64096720  1
  O  O13  1  0.45830489  0.08078435  0.64147002  1
  O  O14  1  0.63397636  0.55865076  0.64164358  1
  O  O15  1  0.91018784  0.53088744  0.13933820  1
  O  O16  1  0.63966254  0.08991636  0.13878055  1
  O  O17  1  0.46831055  0.37332901  0.13840476  1
  O  O18  1  0.41676164  0.30439775  0.02336894  1
  O  O19  1  0.87373002  0.58455335  0.02680054  1
  O  O20  1  0.70404527  0.11807240  0.03049442  1
  O  O21  1  0.45681780  0.15078354  0.52766559  1
  O  O22  1  0.69575760  0.53810037  0.53552421  1
  O  O23  1  0.84110044  0.30008693  0.52961400  1
  O  O24  1  0.52412166  0.67797572  0.97479427  1
  O  O25  1  0.14344840  0.47426829  0.97300774  1
  O  O26  1  0.32337187  0.84605674  0.96970434  1
  O  O27  1  0.54018600  0.85005608  0.47262252  1
  O  O28  1  0.30330673  0.45916057  0.46478796  1
  O  O29  1  0.15616271  0.70197085  0.47021511  1
  O  O30  1  0.08124773  0.61636603  0.35827771  1
  O  O31  1  0.53388695  0.91000702  0.35810934  1
  O  O32  1  0.36747018  0.44673474  0.35826548  1
  O  O33  1  0.10930376  0.45964927  0.86236758  1
  O  O34  1  0.34423849  0.89174928  0.86017830  1
  O  O35  1  0.53852167  0.64782060  0.85818585  1
  O  O36  1  0.02201931  0.84203525  0.41306366  1
  O  O37  1  0.82760952  0.00393953  0.41547515  1
  O  O38  1  0.17615670  0.18613674  0.41640695  1
  O  O39  1  0.03327015  0.20487697  0.92399996  1
  O  O40  1  0.18045885  0.97991623  0.92411577  1
  O  O41  1  0.81082242  0.83058719  0.92469915  1
  O  O42  1  0.98029397  0.15955328  0.58412327  1
  O  O43  1  0.16663605  0.99112597  0.58579995  1
  O  O44  1  0.82669094  0.81360984  0.58241418  1
  O  O45  1  0.99445620  0.83299925  0.09346842  1
  O  O46  1  0.82067593  0.98833566  0.09185619  1
  O  O47  1  0.15736157  0.17816433  0.09069445  1
  O  O48  1  0.68725903  0.16757622  0.74278071  1
  O  O49  1  0.46995648  0.31960059  0.74183927  1
  O  O50  1  0.84080079  0.53583768  0.74252156  1
  O  O51  1  0.70110085  0.54601828  0.24960021  1
  O  O52  1  0.83180545  0.29758625  0.25298018  1
  O  O53  1  0.44975748  0.15813289  0.25112125  1
  O  O54  1  0.65011431  0.49990516  0.92110684  1
  O  O55  1  0.86118093  0.34417606  0.92381554  1
  O  O56  1  0.49406009  0.13130716  0.92304009  1
  O  O57  1  0.65334883  0.15888786  0.42705373  1
  O  O58  1  0.48517676  0.33579685  0.43006435  1
  O  O59  1  0.83963155  0.49944714  0.43064891  1
  O  O60  1  0.32913666  0.50287515  0.07852859  1
  O  O61  1  0.17041368  0.67068597  0.07575237  1
  O  O62  1  0.51459060  0.83610286  0.07804084  1
  O  O63  1  0.34214252  0.83879875  0.57125457  1
  O  O64  1  0.51642288  0.66643705  0.56869850  1
  O  O65  1  0.16100688  0.50068614  0.56706881  1
  O  O66  1  0.29874820  0.84596647  0.25345452  1
  O  O67  1  0.54939627  0.70655997  0.25174582  1
  O  O68  1  0.16616088  0.46439790  0.25026412  1
  O  O69  1  0.29853854  0.46069887  0.74208241  1
  O  O70  1  0.15424875  0.68898143  0.74079498  1
  O  O71  1  0.52540652  0.83513267  0.74049418  1
loop_
_geom_bond_atom_site_label_1
_geom_bond_atom_site_label_2
_geom_bond_distance
_geom_bond_site_symmetry_2
Na0 O52 2.441994 1_555
Na0 O67 2.504650 1_545
Na0 O31 2.535865 1_545
Na0 O66 2.720377 1_545
Na0 O53 2.753284 1_555
Na0 O16 2.791858 1_555
Na1 O68 2.435914 1_555
Na1 O53 2.500569 1_555
Na1 O32 2.666045 1_555
Na1 O17 2.668383 1_555
Na1 O51 2.728237 1_555
Na1 O67 2.739543 1_555
Na2 O66 2.533296 1_555
Na2 O51 2.541108 1_455
Na2 O30 2.605569 1_555
Na2 O68 2.608835 1_555
Na2 O52 2.624194 1_455
Na2 O15 2.698768 1_455
Na3 O14 2.488668 1_555
Na3 O50 2.538338 1_555
Na3 O71 2.557639 1_555
Na3 O49 2.576079 1_555
Na3 O69 2.735169 1_555
Na3 O35 2.779315 1_555
Na4 O12 2.502351 1_555
Na4 O48 2.504733 1_555
Na4 O69 2.556976 1_655
Na4 O50 2.631820 1_555
Na4 O70 2.657060 1_655
Na4 O33 2.905376 1_655
Na5 O13 2.441071 1_555
Na5 O48 2.513118 1_555
Na5 O71 2.569840 1_545
Na5 O70 2.638366 1_545
Na5 O49 2.655637 1_555
Na5 O34 2.863136 1_545
Na6 O43 2.437469 1_555
Na6 O63 2.503523 1_555
Na6 O65 2.631536 1_555
Na6 O44 2.711299 1_455
Na6 O29 2.769706 1_555
Na6 O8 2.838092 1_555
Na6 O12 2.899935 1_455
Na6 O22 2.961152 1_455
Na7 O64 2.490021 1_555
Na7 O42 2.600235 1_565
Na7 O44 2.608410 1_555
Na7 O63 2.631312 1_555
Na7 O27 2.734445 1_555
Na7 O6 2.838430 1_555
Na7 O23 2.932074 1_565
Na7 O13 2.961166 1_565
Na8 O62 2.451946 1_555
Na8 O46 2.455617 1_555
Na8 O45 2.676022 1_555
Na8 O60 2.761221 1_555
Na8 O24 2.791169 1_554
Na8 O19 2.859363 1_555
Na8 O9 2.873103 1_555
Na8 O17 2.906050 1_555
Na9 O47 2.371985 1_555
Na9 O60 2.440859 1_555
Na9 O61 2.709310 1_555
Na9 O10 2.784606 1_555
Na9 O15 2.809714 1_455
Na9 O25 2.882507 1_554
Na9 O46 2.895429 1_445
Na9 O20 3.022468 1_455
Na10 O19 2.476149 1_556
Na10 O54 2.495248 1_555
Na10 O41 2.547805 1_555
Na10 O40 2.649604 1_655
Na10 O55 2.677314 1_555
Na10 O4 2.992387 1_555
Na11 O56 2.537965 1_555
Na11 O55 2.550046 1_555
Na11 O41 2.579460 1_545
Na11 O20 2.656724 1_556
Na11 O39 2.712465 1_655
Na11 O5 2.799008 1_555
Na12 O18 2.449017 1_556
Na12 O54 2.541103 1_555
Na12 O39 2.557124 1_555
Na12 O40 2.645403 1_545
Na12 O56 2.655562 1_555
Na12 O3 2.864900 1_555
Na13 O37 2.450256 1_555
Na13 O57 2.531290 1_555
Na13 O59 2.641877 1_555
Na13 O38 2.727930 1_655
Na13 O2 2.772332 1_555
Na13 O23 2.817542 1_555
Na13 O30 2.908977 1_655
Na13 O28 2.980419 1_655
Na14 O58 2.521994 1_555
Na14 O36 2.574871 1_545
Na14 O38 2.594441 1_555
Na14 O57 2.598338 1_555
Na14 O21 2.717384 1_555
Na14 O0 2.852646 1_555
Na14 O29 2.887491 1_545
Na14 O31 2.972789 1_545
Na15 O42 2.514338 1_565
Na15 O44 2.535262 1_555
Na15 O37 2.543127 1_565
Na15 O43 2.560927 1_655
Na15 O36 2.568850 1_655
Na15 O38 2.568952 1_665
Na16 O45 2.492717 1_455
Na16 O40 2.504605 1_554
Na16 O47 2.525993 1_565
Na16 O41 2.554173 1_454
Na16 O46 2.649466 1_455
Na16 O39 2.655349 1_564
Na17 O54 2.616973 1_555
Na17 O48 2.668153 1_555
Na17 O56 2.723075 1_555
Na17 O50 2.740689 1_555
Na17 O55 2.751108 1_555
Na17 O49 2.764691 1_555
Na18 O59 2.588518 1_555
Na18 O57 2.596730 1_555
Na18 O52 2.610812 1_555
Na18 O58 2.741726 1_555
Na18 O51 2.745431 1_555
Na18 O53 2.841769 1_555
Na19 O61 2.476385 1_555
Na19 O60 2.479473 1_555
Na19 O62 2.582120 1_555
Na19 O68 2.650376 1_555
Na19 O66 2.789001 1_555
Na19 O67 2.852072 1_555
Na20 O71 2.537499 1_555
Na20 O69 2.563718 1_555
Na20 O70 2.603170 1_555
Na20 O63 2.623917 1_555
Na20 O65 2.665542 1_555
Na20 O64 2.698904 1_555
La0 O5 2.221200 1_565
La0 O4 2.310832 1_555
La0 O3 2.345973 1_665
La0 O41 2.362280 1_555
La0 O39 2.460424 1_665
La0 O40 2.499079 1_655
La1 O13 2.277912 1_555
La1 O12 2.302573 1_555
La1 O48 2.357853 1_555
La1 O14 2.406247 1_555
La1 O49 2.461229 1_555
La1 O50 2.477668 1_555
La2 O15 2.289630 1_555
La2 O17 2.311302 1_555
La2 O16 2.366739 1_555
La2 O52 2.410490 1_555
La2 O51 2.468472 1_555
La2 O53 2.490145 1_555
La3 O18 2.258862 1_556
La3 O19 2.301204 1_556
La3 O54 2.344079 1_555
La3 O20 2.417352 1_556
La3 O56 2.449516 1_555
La3 O55 2.464798 1_555
La4 O30 2.290420 1_555
La4 O31 2.300444 1_555
La4 O32 2.368270 1_555
La4 O68 2.419824 1_555
La4 O66 2.486923 1_555
La4 O67 2.506052 1_555
La5 O35 2.225314 1_555
La5 O34 2.325440 1_555
La5 O33 2.352733 1_555
La5 O71 2.364028 1_555
La5 O69 2.459732 1_555
La5 O70 2.504748 1_555
O0 P0 1.563537 1_555
O0 Sn0 2.120549 1_445
O1 P1 1.551789 1_555
O1 Sn0 2.066992 1_555
O2 Si0 1.658226 1_555
O2 Sn0 2.020659 1_545
O3 P2 1.532420 1_555
O4 P3 1.541694 1_555
O5 Si1 1.633397 1_555
O6 Si1 1.672287 1_565
O6 Sn1 2.021103 1_665
O7 P2 1.568986 1_555
O7 Sn1 2.065783 1_555
O8 P3 1.579325 1_455
O8 Sn1 2.127611 1_565
O9 P1 1.552802 1_555
O9 Sn2 2.102553 1_665
O10 Si0 1.645542 1_455
O10 Sn2 2.007678 1_555
O11 P0 1.543320 1_565
O11 Sn2 2.053757 1_565
O12 Si2 1.625668 1_555
O13 Si3 1.615560 1_555
O14 P4 1.533518 1_555
O15 Si4 1.649853 1_555
O16 P5 1.544762 1_555
O17 Si5 1.640450 1_555
O18 Si5 1.612915 1_555
O19 Si4 1.630809 1_555
O20 P5 1.517824 1_555
O21 Si3 1.652655 1_555
O21 Sn3 2.063829 1_555
O22 P4 1.554628 1_555
O22 Sn3 2.139895 1_555
O23 Si2 1.668937 1_555
O23 Sn3 2.074017 1_555
O24 Si6 1.663553 1_555
O24 Sn4 2.008612 1_556
O25 P6 1.577220 1_555
O25 Sn4 2.099659 1_556
O26 P7 1.565106 1_555
O26 Sn4 2.058978 1_556
O27 Si7 1.643953 1_555
O27 Sn5 2.044442 1_555
O28 P8 1.543912 1_555
O28 Sn5 2.144183 1_555
O29 Si8 1.658854 1_555
O29 Sn5 2.083813 1_555
O30 Si8 1.636216 1_555
O31 Si7 1.628699 1_555
O32 P8 1.550636 1_555
O33 P6 1.530723 1_555
O34 P7 1.537740 1_555
O35 Si6 1.629588 1_555
O36 Si8 1.674611 1_555
O36 Sn0 2.065321 1_455
O37 Si7 1.669788 1_545
O37 Sn0 2.077354 1_545
O38 P8 1.581956 1_555
O38 Sn0 2.253500 1_445
O39 P6 1.552805 1_555
O40 P7 1.551936 1_555
O41 Si6 1.641084 1_555
O42 Si2 1.669970 1_555
O42 Sn1 2.076324 1_655
O43 Si3 1.674566 1_565
O43 Sn1 2.077033 1_565
O44 P4 1.584614 1_555
O44 Sn1 2.256254 1_665
O45 Si4 1.644481 1_555
O45 Sn2 2.020734 1_665
O46 P5 1.569592 1_565
O46 Sn2 2.142668 1_665
O47 Si5 1.650177 1_555
O47 Sn2 2.038045 1_555
O48 Si1 1.641353 1_555
O49 P2 1.539623 1_555
O50 P3 1.540686 1_555
O51 P1 1.552784 1_555
O52 Si0 1.646791 1_555
O53 P0 1.546042 1_555
O54 Si6 1.639132 1_555
O55 P6 1.537357 1_655
O56 P7 1.536012 1_545
O57 Si7 1.673810 1_545
O57 Sn3 2.092652 1_555
O58 P8 1.556501 1_555
O58 Sn3 2.155848 1_555
O59 Si8 1.652233 1_655
O59 Sn3 2.059833 1_555
O60 Si5 1.666204 1_555
O60 Sn4 2.065122 1_555
O61 Si4 1.645486 1_455
O61 Sn4 2.028949 1_555
O62 P5 1.563898 1_565
O62 Sn4 2.140419 1_555
O63 Si3 1.666965 1_565
O63 Sn5 2.079510 1_555
O64 P4 1.559879 1_555
O64 Sn5 2.169923 1_555
O65 Si2 1.646891 1_455
O65 Sn5 2.035243 1_555
O66 P0 1.553576 1_565
O67 P1 1.547119 1_555
O68 Si0 1.648907 1_455
O69 P2 1.557377 1_555
O70 P3 1.544337 1_455
O71 Si1 1.642211 1_565
