# generated using pymatgen
data_SrEu2Fe2O7
_symmetry_space_group_name_H-M   'P 1'
_cell_length_a   5.42667200
_cell_length_b   5.42667200
_cell_length_c   20.04357200
_cell_angle_alpha   90.00000000
_cell_angle_beta   90.00000000
_cell_angle_gamma   90.00000000
_symmetry_Int_Tables_number   1
_chemical_formula_structural   SrEu2Fe2O7
_chemical_formula_sum   'Sr4 Eu8 Fe8 O28'
_cell_volume   590.25852167
_cell_formula_units_Z   4
loop_
 _symmetry_equiv_pos_site_id
 _symmetry_equiv_pos_as_xyz
  1  'x, y, z'
loop_
 _atom_site_type_symbol
 _atom_site_label
 _atom_site_symmetry_multiplicity
 _atom_site_fract_x
 _atom_site_fract_y
 _atom_site_fract_z
 _atom_site_occupancy
  Sr  Sr0  1  0.75182200  0.75182200  0.00000000  1
  Sr  Sr1  1  0.74817800  0.25182200  0.50000000  1
  Sr  Sr2  1  0.25182200  0.74817800  0.50000000  1
  Sr  Sr3  1  0.24817800  0.24817800  0.00000000  1
  Eu  Eu0  1  0.75762200  0.75762200  0.81663400  1
  Eu  Eu1  1  0.24237800  0.24237800  0.81663400  1
  Eu  Eu2  1  0.75762200  0.75762200  0.18336600  1
  Eu  Eu3  1  0.25762200  0.74237800  0.31663400  1
  Eu  Eu4  1  0.74237800  0.25762200  0.31663400  1
  Eu  Eu5  1  0.74237800  0.25762200  0.68336600  1
  Eu  Eu6  1  0.25762200  0.74237800  0.68336600  1
  Eu  Eu7  1  0.24237800  0.24237800  0.18336600  1
  Fe  Fe0  1  0.75110300  0.75110300  0.59661200  1
  Fe  Fe1  1  0.24889700  0.24889700  0.59661200  1
  Fe  Fe2  1  0.75110300  0.75110300  0.40338800  1
  Fe  Fe3  1  0.25110300  0.74889700  0.09661200  1
  Fe  Fe4  1  0.74889700  0.25110300  0.09661200  1
  Fe  Fe5  1  0.74889700  0.25110300  0.90338800  1
  Fe  Fe6  1  0.25110300  0.74889700  0.90338800  1
  Fe  Fe7  1  0.24889700  0.24889700  0.40338800  1
  O  O0  1  0.73680800  0.26319200  0.00000000  1
  O  O1  1  0.23680800  0.23680800  0.50000000  1
  O  O2  1  0.76319200  0.76319200  0.50000000  1
  O  O3  1  0.26319200  0.73680800  0.00000000  1
  O  O4  1  0.00000000  0.00000000  0.60560100  1
  O  O5  1  0.50000000  0.50000000  0.10560100  1
  O  O6  1  0.50000000  0.50000000  0.89439900  1
  O  O7  1  0.00000000  0.00000000  0.39439900  1
  O  O8  1  0.00000000  0.00000000  0.90557200  1
  O  O9  1  0.50000000  0.50000000  0.40557200  1
  O  O10  1  0.50000000  0.50000000  0.59442800  1
  O  O11  1  0.00000000  0.00000000  0.09442800  1
  O  O12  1  0.73147000  0.73147000  0.69999000  1
  O  O13  1  0.26853000  0.26853000  0.69999000  1
  O  O14  1  0.73147000  0.73147000  0.30001000  1
  O  O15  1  0.23147000  0.76853000  0.19999000  1
  O  O16  1  0.76853000  0.23147000  0.19999000  1
  O  O17  1  0.76853000  0.23147000  0.80001000  1
  O  O18  1  0.23147000  0.76853000  0.80001000  1
  O  O19  1  0.26853000  0.26853000  0.30001000  1
  O  O20  1  0.00000000  0.50000000  0.40006600  1
  O  O21  1  0.00000000  0.50000000  0.90006600  1
  O  O22  1  0.50000000  0.00000000  0.09993400  1
  O  O23  1  0.50000000  0.00000000  0.59993400  1
  O  O24  1  0.00000000  0.50000000  0.59993400  1
  O  O25  1  0.00000000  0.50000000  0.09993400  1
  O  O26  1  0.50000000  0.00000000  0.90006600  1
  O  O27  1  0.50000000  0.00000000  0.40006600  1
loop_
_geom_bond_atom_site_label_1
_geom_bond_atom_site_label_2
_geom_bond_distance
_geom_bond_site_symmetry_2
Eu0 O12 2.346561 1_555
Eu0 O6 2.517635 1_555
Eu0 O26 2.545785 1_565
Eu0 O21 2.545785 1_655
Eu0 O8 2.576402 1_665
Eu0 O17 2.593592 1_565
Eu0 O18 2.593592 1_655
Eu0 O18 2.875240 1_555
Eu0 O17 2.875240 1_555
Eu1 O13 2.346561 1_555
Eu1 O6 2.517635 1_555
Eu1 O21 2.545785 1_555
Eu1 O26 2.545785 1_555
Eu1 O8 2.576402 1_555
Eu1 O17 2.593592 1_455
Eu1 O18 2.593592 1_545
Eu1 O18 2.875240 1_555
Eu1 O17 2.875240 1_555
Eu2 O14 2.346561 1_555
Eu2 O5 2.517635 1_555
Eu2 O22 2.545785 1_565
Eu2 O25 2.545785 1_655
Eu2 O11 2.576402 1_665
Eu2 O16 2.593592 1_565
Eu2 O15 2.593592 1_655
Eu2 O15 2.875240 1_555
Eu2 O16 2.875240 1_555
Eu3 O15 2.346561 1_555
Eu3 O7 2.517635 1_565
Eu3 O20 2.545785 1_555
Eu3 O27 2.545785 1_565
Eu3 O9 2.576402 1_555
Eu3 O19 2.593592 1_555
Eu3 O14 2.593592 1_555
Eu3 O14 2.875240 1_455
Eu3 O19 2.875240 1_565
Eu4 O16 2.346561 1_555
Eu4 O7 2.517635 1_655
Eu4 O27 2.545785 1_555
Eu4 O20 2.545785 1_655
Eu4 O9 2.576402 1_555
Eu4 O19 2.593592 1_555
Eu4 O14 2.593592 1_555
Eu4 O14 2.875240 1_545
Eu4 O19 2.875240 1_655
Eu5 O17 2.346561 1_555
Eu5 O4 2.517635 1_655
Eu5 O23 2.545785 1_555
Eu5 O24 2.545785 1_655
Eu5 O10 2.576402 1_555
Eu5 O13 2.593592 1_555
Eu5 O12 2.593592 1_555
Eu5 O12 2.875240 1_545
Eu5 O13 2.875240 1_655
Eu6 O18 2.346561 1_555
Eu6 O4 2.517635 1_565
Eu6 O24 2.545785 1_555
Eu6 O23 2.545785 1_565
Eu6 O10 2.576402 1_555
Eu6 O13 2.593592 1_555
Eu6 O12 2.593592 1_555
Eu6 O12 2.875240 1_455
Eu6 O13 2.875240 1_565
Eu7 O19 2.346561 1_555
Eu7 O5 2.517635 1_555
Eu7 O25 2.545785 1_555
Eu7 O22 2.545785 1_555
Eu7 O11 2.576402 1_555
Eu7 O16 2.593592 1_455
Eu7 O15 2.593592 1_545
Eu7 O15 2.875240 1_555
Eu7 O16 2.875240 1_555
Fe0 O4 1.918632 1_665
Fe0 O23 1.919792 1_565
Fe0 O24 1.919792 1_655
Fe0 O10 1.927580 1_555
Fe0 O2 1.938671 1_555
Fe0 O12 2.077535 1_555
Fe1 O4 1.918632 1_555
Fe1 O24 1.919792 1_555
Fe1 O23 1.919792 1_555
Fe1 O10 1.927580 1_555
Fe1 O1 1.938671 1_555
Fe1 O13 2.077535 1_555
Fe2 O7 1.918632 1_665
Fe2 O20 1.919792 1_655
Fe2 O27 1.919792 1_565
Fe2 O9 1.927580 1_555
Fe2 O2 1.938671 1_555
Fe2 O14 2.077535 1_555
Fe3 O5 1.918632 1_555
Fe3 O25 1.919792 1_555
Fe3 O22 1.919792 1_565
Fe3 O11 1.927580 1_565
Fe3 O3 1.938671 1_555
Fe3 O15 2.077535 1_555
Fe4 O5 1.918632 1_555
Fe4 O22 1.919792 1_555
Fe4 O25 1.919792 1_655
Fe4 O11 1.927580 1_655
Fe4 O0 1.938671 1_555
Fe4 O16 2.077535 1_555
Fe5 O6 1.918632 1_555
Fe5 O26 1.919792 1_555
Fe5 O21 1.919792 1_655
Fe5 O8 1.927580 1_655
Fe5 O0 1.938671 1_556
Fe5 O17 2.077535 1_555
Fe6 O6 1.918632 1_555
Fe6 O21 1.919792 1_555
Fe6 O26 1.919792 1_565
Fe6 O8 1.927580 1_565
Fe6 O3 1.938671 1_556
Fe6 O18 2.077535 1_555
Fe7 O7 1.918632 1_555
Fe7 O27 1.919792 1_555
Fe7 O20 1.919792 1_555
Fe7 O9 1.927580 1_555
Fe7 O1 1.938671 1_555
Fe7 O19 2.077535 1_555
O0 Sr0 2.652886 1_555
O0 Sr3 2.652886 1_555
O0 Sr3 2.776233 1_655
O0 Sr0 2.776233 1_545
O1 Sr2 2.652886 1_545
O1 Sr1 2.652886 1_455
O1 Sr1 2.776233 1_555
O1 Sr2 2.776233 1_555
O2 Sr2 2.652886 1_655
O2 Sr1 2.652886 1_565
O2 Sr1 2.776233 1_555
O2 Sr2 2.776233 1_555
O3 Sr0 2.652886 1_555
O3 Sr3 2.652886 1_555
O3 Sr3 2.776233 1_565
O3 Sr0 2.776233 1_455
O4 Sr1 2.866188 1_455
O4 Sr2 2.866188 1_545
O5 Sr0 2.866188 1_555
O5 Sr3 2.866188 1_555
O6 Sr0 2.866188 1_556
O6 Sr3 2.866188 1_556
O7 Sr1 2.866188 1_455
O7 Sr2 2.866188 1_545
O8 Sr3 2.685117 1_556
O8 Sr0 2.685117 1_446
O9 Sr2 2.685117 1_555
O9 Sr1 2.685117 1_555
O10 Sr2 2.685117 1_555
O10 Sr1 2.685117 1_555
O11 Sr3 2.685117 1_555
O11 Sr0 2.685117 1_445
O20 Sr1 2.773705 1_455
O20 Sr2 2.773705 1_555
O21 Sr0 2.773705 1_456
O21 Sr3 2.773705 1_556
O22 Sr3 2.773705 1_555
O22 Sr0 2.773705 1_545
O23 Sr1 2.773705 1_555
O23 Sr2 2.773705 1_545
O24 Sr1 2.773705 1_455
O24 Sr2 2.773705 1_555
O25 Sr0 2.773705 1_455
O25 Sr3 2.773705 1_555
O26 Sr3 2.773705 1_556
O26 Sr0 2.773705 1_546
O27 Sr1 2.773705 1_555
O27 Sr2 2.773705 1_545
