# generated using pymatgen
data_MgGe4(BiO6)2
_symmetry_space_group_name_H-M   'P 1'
_cell_length_a   5.65643612
_cell_length_b   7.59848596
_cell_length_c   7.59848734
_cell_angle_alpha   83.18987735
_cell_angle_beta   76.88236440
_cell_angle_gamma   76.88235691
_symmetry_Int_Tables_number   1
_chemical_formula_structural   MgGe4(BiO6)2
_chemical_formula_sum   'Mg1 Ge4 Bi2 O12'
_cell_volume   308.98878619
_cell_formula_units_Z   1
loop_
 _symmetry_equiv_pos_site_id
 _symmetry_equiv_pos_as_xyz
  1  'x, y, z'
loop_
 _atom_site_type_symbol
 _atom_site_label
 _atom_site_symmetry_multiplicity
 _atom_site_fract_x
 _atom_site_fract_y
 _atom_site_fract_z
 _atom_site_occupancy
  Mg  Mg0  1  0.75000000  0.58438100  0.41561900  1
  Ge  Ge0  1  0.72278700  0.36131200  0.18344100  1
  Ge  Ge1  1  0.77721300  0.81655900  0.63868800  1
  Ge  Ge2  1  0.26400000  0.63966200  0.80894200  1
  Ge  Ge3  1  0.23600000  0.19105800  0.36033800  1
  Bi  Bi0  1  0.75000000  0.90328500  0.09671500  1
  Bi  Bi1  1  0.25000000  0.14587800  0.85412200  1
  O  O0  1  0.45217300  0.33571900  0.34809000  1
  O  O1  1  0.04782700  0.65191000  0.66428100  1
  O  O2  1  0.56300400  0.65542000  0.66193400  1
  O  O3  1  0.93699600  0.33806600  0.34458000  1
  O  O4  1  0.20390300  0.08425300  0.57645300  1
  O  O5  1  0.29609700  0.42354800  0.91574700  1
  O  O6  1  0.81026700  0.84053300  0.40117000  1
  O  O7  1  0.68973300  0.59883100  0.15946700  1
  O  O8  1  0.83569300  0.19801500  0.02594800  1
  O  O9  1  0.66430700  0.97405200  0.80198500  1
  O  O10  1  0.16285900  0.83304700  0.93663800  1
  O  O11  1  0.33714100  0.06336200  0.16695300  1
loop_
_geom_bond_atom_site_label_1
_geom_bond_atom_site_label_2
_geom_bond_distance
_geom_bond_site_symmetry_2
Mg0 O3 1.998748 1_555
Mg0 O2 1.998749 1_555
Mg0 O7 2.037182 1_555
Mg0 O6 2.037182 1_555
Ge0 O8 1.739295 1_555
Ge0 O7 1.763438 1_555
Ge0 O0 1.776028 1_555
Ge0 O3 1.877090 1_555
Ge1 O9 1.739295 1_555
Ge1 O6 1.763431 1_555
Ge1 O1 1.776027 1_655
Ge1 O2 1.877090 1_555
Ge2 O5 1.733119 1_555
Ge2 O10 1.769916 1_555
Ge2 O1 1.801732 1_555
Ge2 O2 1.823531 1_555
Ge3 O4 1.733126 1_555
Ge3 O11 1.769916 1_555
Ge3 O0 1.801732 1_555
Ge3 O3 1.823531 1_455
Bi0 O11 2.348809 1_565
Bi0 O10 2.348810 1_654
Bi0 O8 2.372401 1_565
Bi0 O9 2.372401 1_554
Bi0 O7 2.391216 1_555
Bi0 O6 2.391224 1_555
Bi1 O4 2.297436 1_555
Bi1 O5 2.297443 1_555
Bi1 O9 2.380342 1_545
Bi1 O8 2.380342 1_456
Bi1 O10 2.514854 1_545
Bi1 O11 2.514854 1_556
