# generated using pymatgen
data_MgTe2Mo3(SeS)2
_symmetry_space_group_name_H-M   'P 1'
_cell_length_a   6.68485200
_cell_length_b   6.68502170
_cell_length_c   61.92381200
_cell_angle_alpha   89.99973867
_cell_angle_beta   89.99995880
_cell_angle_gamma   119.99879355
_symmetry_Int_Tables_number   1
_chemical_formula_structural   MgTe2Mo3(SeS)2
_chemical_formula_sum   'Mg8 Te16 Mo24 Se16 S16'
_cell_volume   2396.55948379
_cell_formula_units_Z   8
loop_
 _symmetry_equiv_pos_site_id
 _symmetry_equiv_pos_as_xyz
  1  'x, y, z'
loop_
 _atom_site_type_symbol
 _atom_site_label
 _atom_site_symmetry_multiplicity
 _atom_site_fract_x
 _atom_site_fract_y
 _atom_site_fract_z
 _atom_site_occupancy
  Mg  Mg0_0  1  0.32521650  0.11108100  0.43182450  1
  Mg  Mg0_1  1  0.32521650  0.11108100  0.93182450  1
  Mg  Mg0_2  1  0.32521650  0.61108100  0.43182450  1
  Mg  Mg0_3  1  0.32521650  0.61108100  0.93182450  1
  Mg  Mg0_4  1  0.82521650  0.11108100  0.43182450  1
  Mg  Mg0_5  1  0.82521650  0.11108100  0.93182450  1
  Mg  Mg0_6  1  0.82521650  0.61108100  0.43182450  1
  Mg  Mg0_7  1  0.82521650  0.61108100  0.93182450  1
  Te  Te0_0  1  0.33332550  0.16665000  0.25859950  1
  Te  Te0_1  1  0.33332550  0.16665000  0.75859950  1
  Te  Te0_2  1  0.33332550  0.66665000  0.25859950  1
  Te  Te0_3  1  0.33332550  0.66665000  0.75859950  1
  Te  Te0_4  1  0.83332550  0.16665000  0.25859950  1
  Te  Te0_5  1  0.83332550  0.16665000  0.75859950  1
  Te  Te0_6  1  0.83332550  0.66665000  0.25859950  1
  Te  Te0_7  1  0.83332550  0.66665000  0.75859950  1
  Te  Te1_0  1  0.33332150  0.16664250  0.31974650  1
  Te  Te1_1  1  0.33332150  0.16664250  0.81974650  1
  Te  Te1_2  1  0.33332150  0.66664250  0.31974650  1
  Te  Te1_3  1  0.33332150  0.66664250  0.81974650  1
  Te  Te1_4  1  0.83332150  0.16664250  0.31974650  1
  Te  Te1_5  1  0.83332150  0.16664250  0.81974650  1
  Te  Te1_6  1  0.83332150  0.66664250  0.31974650  1
  Te  Te1_7  1  0.83332150  0.66664250  0.81974650  1
  Mo  Mo0_0  1  0.16665200  0.33330350  0.05782000  1
  Mo  Mo0_1  1  0.16665200  0.33330350  0.55782000  1
  Mo  Mo0_2  1  0.16665200  0.83330350  0.05782000  1
  Mo  Mo0_3  1  0.16665200  0.83330350  0.55782000  1
  Mo  Mo0_4  1  0.66665200  0.33330350  0.05782000  1
  Mo  Mo0_5  1  0.66665200  0.33330350  0.55782000  1
  Mo  Mo0_6  1  0.66665200  0.83330350  0.05782000  1
  Mo  Mo0_7  1  0.66665200  0.83330350  0.55782000  1
  Mo  Mo1_0  1  0.16665950  0.33331900  0.28919850  1
  Mo  Mo1_1  1  0.16665950  0.33331900  0.78919850  1
  Mo  Mo1_2  1  0.16665950  0.83331900  0.28919850  1
  Mo  Mo1_3  1  0.16665950  0.83331900  0.78919850  1
  Mo  Mo1_4  1  0.66665950  0.33331900  0.28919850  1
  Mo  Mo1_5  1  0.66665950  0.33331900  0.78919850  1
  Mo  Mo1_6  1  0.66665950  0.83331900  0.28919850  1
  Mo  Mo1_7  1  0.66665950  0.83331900  0.78919850  1
  Mo  Mo2_0  1  0.33334000  0.16668100  0.17346500  1
  Mo  Mo2_1  1  0.33334000  0.16668100  0.67346500  1
  Mo  Mo2_2  1  0.33334000  0.66668100  0.17346500  1
  Mo  Mo2_3  1  0.33334000  0.66668100  0.67346500  1
  Mo  Mo2_4  1  0.83334000  0.16668100  0.17346500  1
  Mo  Mo2_5  1  0.83334000  0.16668100  0.67346500  1
  Mo  Mo2_6  1  0.83334000  0.66668100  0.17346500  1
  Mo  Mo2_7  1  0.83334000  0.66668100  0.67346500  1
  Se  Se0_0  1  0.16667600  0.33335200  0.20034700  1
  Se  Se0_1  1  0.16667600  0.33335200  0.70034700  1
  Se  Se0_2  1  0.16667600  0.83335200  0.20034700  1
  Se  Se0_3  1  0.16667600  0.83335200  0.70034700  1
  Se  Se0_4  1  0.66667600  0.33335200  0.20034700  1
  Se  Se0_5  1  0.66667600  0.33335200  0.70034700  1
  Se  Se0_6  1  0.66667600  0.83335200  0.20034700  1
  Se  Se0_7  1  0.66667600  0.83335200  0.70034700  1
  Se  Se1_0  1  0.16667650  0.33335300  0.14657800  1
  Se  Se1_1  1  0.16667650  0.33335300  0.64657800  1
  Se  Se1_2  1  0.16667650  0.83335300  0.14657800  1
  Se  Se1_3  1  0.16667650  0.83335300  0.64657800  1
  Se  Se1_4  1  0.66667650  0.33335300  0.14657800  1
  Se  Se1_5  1  0.66667650  0.33335300  0.64657800  1
  Se  Se1_6  1  0.66667650  0.83335300  0.14657800  1
  Se  Se1_7  1  0.66667650  0.83335300  0.64657800  1
  S  S0_0  1  0.33332550  0.16665050  0.03336050  1
  S  S0_1  1  0.33332550  0.16665050  0.53336050  1
  S  S0_2  1  0.33332550  0.66665050  0.03336050  1
  S  S0_3  1  0.33332550  0.66665050  0.53336050  1
  S  S0_4  1  0.83332550  0.16665050  0.03336050  1
  S  S0_5  1  0.83332550  0.16665050  0.53336050  1
  S  S0_6  1  0.83332550  0.66665050  0.03336050  1
  S  S0_7  1  0.83332550  0.66665050  0.53336050  1
  S  S1_0  1  0.33332550  0.16665050  0.08230200  1
  S  S1_1  1  0.33332550  0.16665050  0.58230200  1
  S  S1_2  1  0.33332550  0.66665050  0.08230200  1
  S  S1_3  1  0.33332550  0.66665050  0.58230200  1
  S  S1_4  1  0.83332550  0.16665050  0.08230200  1
  S  S1_5  1  0.83332550  0.16665050  0.58230200  1
  S  S1_6  1  0.83332550  0.66665050  0.08230200  1
  S  S1_7  1  0.83332550  0.66665050  0.58230200  1
loop_
_geom_bond_atom_site_label_1
_geom_bond_atom_site_label_2
_geom_bond_distance
_geom_bond_site_symmetry_2
Mg0_0 Mg0_4 3.342426 1_555
Mg0_0 Mg0_4 3.342426 1_455
Mg0_0 Mg0_2 3.342511 1_545
Mg0_0 Mg0_2 3.342511 1_555
Mg0_0 Mg0_6 3.342529 1_445
Mg0_0 Mg0_6 3.342529 1_555
Mg0_1 Mg0_5 3.342426 1_555
Mg0_1 Mg0_5 3.342426 1_455
Mg0_1 Mg0_3 3.342511 1_545
Mg0_1 Mg0_3 3.342511 1_555
Mg0_1 Mg0_7 3.342529 1_555
Mg0_1 Mg0_7 3.342529 1_445
Mg0_2 Mg0_6 3.342426 1_555
Mg0_2 Mg0_6 3.342426 1_455
Mg0_2 Mg0_4 3.342529 1_565
Mg0_2 Mg0_4 3.342529 1_455
Mg0_3 Mg0_7 3.342426 1_555
Mg0_3 Mg0_7 3.342426 1_455
Mg0_3 Mg0_5 3.342529 1_565
Mg0_3 Mg0_5 3.342529 1_455
Mg0_4 Mg0_6 3.342511 1_555
Mg0_4 Mg0_6 3.342511 1_545
Mg0_5 Mg0_7 3.342511 1_545
Mg0_5 Mg0_7 3.342511 1_555
Mo0_0 S0_0 2.453148 1_555
Mo0_0 S0_4 2.453158 1_455
Mo0_0 S0_2 2.453279 1_555
Mo0_0 S1_0 2.454004 1_555
Mo0_0 S1_4 2.454011 1_455
Mo0_0 S1_2 2.454153 1_555
Mo0_1 S0_1 2.453148 1_555
Mo0_1 S0_5 2.453158 1_455
Mo0_1 S0_3 2.453279 1_555
Mo0_1 S1_1 2.454004 1_555
Mo0_1 S1_5 2.454011 1_455
Mo0_1 S1_3 2.454153 1_555
Mo0_2 S0_2 2.453148 1_555
Mo0_2 S0_6 2.453158 1_455
Mo0_2 S0_0 2.453279 1_565
Mo0_2 S1_2 2.454004 1_555
Mo0_2 S1_6 2.454011 1_455
Mo0_2 S1_0 2.454153 1_565
Mo0_3 S0_3 2.453148 1_555
Mo0_3 S0_7 2.453158 1_455
Mo0_3 S0_1 2.453279 1_565
Mo0_3 S1_3 2.454004 1_555
Mo0_3 S1_7 2.454011 1_455
Mo0_3 S1_1 2.454153 1_565
Mo0_4 S0_4 2.453148 1_555
Mo0_4 S0_0 2.453158 1_555
Mo0_4 S0_6 2.453279 1_555
Mo0_4 S1_4 2.454004 1_555
Mo0_4 S1_0 2.454011 1_555
Mo0_4 S1_6 2.454153 1_555
Mo0_5 S0_5 2.453148 1_555
Mo0_5 S0_1 2.453158 1_555
Mo0_5 S0_7 2.453279 1_555
Mo0_5 S1_5 2.454004 1_555
Mo0_5 S1_1 2.454011 1_555
Mo0_5 S1_7 2.454153 1_555
Mo0_6 S0_6 2.453148 1_555
Mo0_6 S0_2 2.453158 1_555
Mo0_6 S0_4 2.453279 1_565
Mo0_6 S1_6 2.454004 1_555
Mo0_6 S1_2 2.454011 1_555
Mo0_6 S1_4 2.454153 1_565
Mo0_7 S0_7 2.453148 1_555
Mo0_7 S0_3 2.453158 1_555
Mo0_7 S0_5 2.453279 1_565
Mo0_7 S1_7 2.454004 1_555
Mo0_7 S1_3 2.454011 1_555
Mo0_7 S1_5 2.454153 1_565
Mo1_0 Te1_2 2.702290 1_555
Mo1_0 Te1_0 2.702299 1_555
Mo1_0 Te1_4 2.702303 1_455
Mo1_0 Te0_0 2.704502 1_555
Mo1_0 Te0_4 2.704507 1_455
Mo1_0 Te0_2 2.704518 1_555
Mo1_1 Te1_3 2.702290 1_555
Mo1_1 Te1_1 2.702299 1_555
Mo1_1 Te1_5 2.702303 1_455
Mo1_1 Te0_1 2.704502 1_555
Mo1_1 Te0_5 2.704507 1_455
Mo1_1 Te0_3 2.704518 1_555
Mo1_2 Te1_0 2.702290 1_565
Mo1_2 Te1_2 2.702299 1_555
Mo1_2 Te1_6 2.702303 1_455
Mo1_2 Te0_2 2.704502 1_555
Mo1_2 Te0_6 2.704507 1_455
Mo1_2 Te0_0 2.704518 1_565
Mo1_3 Te1_1 2.702290 1_565
Mo1_3 Te1_3 2.702299 1_555
Mo1_3 Te1_7 2.702303 1_455
Mo1_3 Te0_3 2.704502 1_555
Mo1_3 Te0_7 2.704507 1_455
Mo1_3 Te0_1 2.704518 1_565
Mo1_4 Te1_6 2.702290 1_555
Mo1_4 Te1_4 2.702299 1_555
Mo1_4 Te1_0 2.702303 1_555
Mo1_4 Te0_4 2.704502 1_555
Mo1_4 Te0_0 2.704507 1_555
Mo1_4 Te0_6 2.704518 1_555
Mo1_5 Te1_7 2.702290 1_555
Mo1_5 Te1_5 2.702299 1_555
Mo1_5 Te1_1 2.702303 1_555
Mo1_5 Te0_5 2.704502 1_555
Mo1_5 Te0_1 2.704507 1_555
Mo1_5 Te0_7 2.704518 1_555
Mo1_6 Te1_4 2.702290 1_565
Mo1_6 Te1_6 2.702299 1_555
Mo1_6 Te1_2 2.702303 1_555
Mo1_6 Te0_6 2.704502 1_555
Mo1_6 Te0_2 2.704507 1_555
Mo1_6 Te0_4 2.704518 1_565
Mo1_7 Te1_5 2.702290 1_565
Mo1_7 Te1_7 2.702299 1_555
Mo1_7 Te1_3 2.702303 1_555
Mo1_7 Te0_7 2.704502 1_555
Mo1_7 Te0_3 2.704507 1_555
Mo1_7 Te0_5 2.704518 1_565
Mo2_0 Se0_0 2.548539 1_555
Mo2_0 Se0_2 2.548548 1_545
Mo2_0 Se0_4 2.548553 1_555
Mo2_0 Se1_0 2.548738 1_555
Mo2_0 Se1_4 2.548749 1_555
Mo2_0 Se1_2 2.548760 1_545
Mo2_1 Se0_1 2.548539 1_555
Mo2_1 Se0_3 2.548548 1_545
Mo2_1 Se0_5 2.548553 1_555
Mo2_1 Se1_1 2.548738 1_555
Mo2_1 Se1_5 2.548749 1_555
Mo2_1 Se1_3 2.548760 1_545
Mo2_2 Se0_2 2.548539 1_555
Mo2_2 Se0_0 2.548548 1_555
Mo2_2 Se0_6 2.548553 1_555
Mo2_2 Se1_2 2.548738 1_555
Mo2_2 Se1_6 2.548749 1_555
Mo2_2 Se1_0 2.548760 1_555
Mo2_3 Se0_3 2.548539 1_555
Mo2_3 Se0_1 2.548548 1_555
Mo2_3 Se0_7 2.548553 1_555
Mo2_3 Se1_3 2.548738 1_555
Mo2_3 Se1_7 2.548749 1_555
Mo2_3 Se1_1 2.548760 1_555
Mo2_4 Se0_4 2.548539 1_555
Mo2_4 Se0_6 2.548548 1_545
Mo2_4 Se0_0 2.548553 1_655
Mo2_4 Se1_4 2.548738 1_555
Mo2_4 Se1_0 2.548749 1_655
Mo2_4 Se1_6 2.548760 1_545
Mo2_5 Se0_5 2.548539 1_555
Mo2_5 Se0_7 2.548548 1_545
Mo2_5 Se0_1 2.548553 1_655
Mo2_5 Se1_5 2.548738 1_555
Mo2_5 Se1_1 2.548749 1_655
Mo2_5 Se1_7 2.548760 1_545
Mo2_6 Se0_6 2.548539 1_555
Mo2_6 Se0_4 2.548548 1_555
Mo2_6 Se0_2 2.548553 1_655
Mo2_6 Se1_6 2.548738 1_555
Mo2_6 Se1_2 2.548749 1_655
Mo2_6 Se1_4 2.548760 1_555
Mo2_7 Se0_7 2.548539 1_555
Mo2_7 Se0_5 2.548548 1_555
Mo2_7 Se0_3 2.548553 1_655
Mo2_7 Se1_7 2.548738 1_555
Mo2_7 Se1_3 2.548749 1_655
Mo2_7 Se1_5 2.548760 1_555
