# generated using pymatgen
data_Ca2Nb4P6(SO12)3
_symmetry_space_group_name_H-M   'P 1'
_cell_length_a   8.96391645
_cell_length_b   8.96391614
_cell_length_c   22.81395840
_cell_angle_alpha   90.00000000
_cell_angle_beta   90.00000000
_cell_angle_gamma   120.00000110
_symmetry_Int_Tables_number   1
_chemical_formula_structural   Ca2Nb4P6(SO12)3
_chemical_formula_sum   'Ca4 Nb8 P12 S6 O72'
_cell_volume   1587.54797060
_cell_formula_units_Z   2
loop_
 _symmetry_equiv_pos_site_id
 _symmetry_equiv_pos_as_xyz
  1  'x, y, z'
loop_
 _atom_site_type_symbol
 _atom_site_label
 _atom_site_symmetry_multiplicity
 _atom_site_fract_x
 _atom_site_fract_y
 _atom_site_fract_z
 _atom_site_occupancy
  Ca  Ca0  1  0.00000000  -0.00000000  0.36755904  1
  Ca  Ca1  1  0.00000000  -0.00000000  0.86755904  1
  Ca  Ca2  1  0.66666700  0.33333300  0.68727171  1
  Ca  Ca3  1  0.66666700  0.33333300  0.18727171  1
  Nb  Nb0  1  0.00000000  -0.00000000  0.64133193  1
  Nb  Nb1  1  0.00000000  -0.00000000  0.14133193  1
  Nb  Nb2  1  0.66666700  0.33333300  0.97840885  1
  Nb  Nb3  1  0.66666700  0.33333300  0.47840885  1
  Nb  Nb4  1  0.33333300  0.66666700  0.02352878  1
  Nb  Nb5  1  0.33333300  0.66666700  0.52352878  1
  Nb  Nb6  1  0.33333300  0.66666700  0.31208382  1
  Nb  Nb7  1  0.33333300  0.66666700  0.81208382  1
  P  P0  1  0.95583221  0.33011413  0.58273643  1
  P  P1  1  0.37428292  0.04416779  0.58273643  1
  P  P2  1  0.66988587  0.62571708  0.58273643  1
  P  P3  1  0.95583221  0.62571708  0.08273643  1
  P  P4  1  0.66988587  0.04416779  0.08273643  1
  P  P5  1  0.37428292  0.33011413  0.08273643  1
  P  P6  1  0.60039690  0.64331737  0.91775888  1
  P  P7  1  0.04291947  0.39960310  0.91775888  1
  P  P8  1  0.35668263  0.95708053  0.91775888  1
  P  P9  1  0.60039690  0.95708053  0.41775888  1
  P  P10  1  0.35668263  0.39960310  0.41775888  1
  P  P11  1  0.04291947  0.64331737  0.41775888  1
  S  S0  1  0.27500764  0.98188844  0.25028545  1
  S  S1  1  0.70688080  0.72499236  0.25028545  1
  S  S2  1  0.01811156  0.29311920  0.25028545  1
  S  S3  1  0.27500764  0.29311920  0.75028545  1
  S  S4  1  0.01811156  0.72499236  0.75028545  1
  S  S5  1  0.70688080  0.98188844  0.75028545  1
  O  O0  1  0.19718422  0.00630320  0.30198121  1
  O  O1  1  0.80911899  0.80281578  0.30198121  1
  O  O2  1  0.99369680  0.19088101  0.30198121  1
  O  O3  1  0.19718422  0.19088101  0.80198121  1
  O  O4  1  0.99369680  0.80281578  0.80198121  1
  O  O5  1  0.80911899  0.00630320  0.80198121  1
  O  O6  1  0.79380646  0.95695645  0.69653191  1
  O  O7  1  0.16314999  0.20619354  0.69653191  1
  O  O8  1  0.04304355  0.83685001  0.69653191  1
  O  O9  1  0.79380646  0.83685001  0.19653191  1
  O  O10  1  0.04304355  0.20619354  0.19653191  1
  O  O11  1  0.16314999  0.95695645  0.19653191  1
  O  O12  1  0.90059140  0.38035879  0.63701251  1
  O  O13  1  0.47976839  0.09940860  0.63701251  1
  O  O14  1  0.61964121  0.52023161  0.63701251  1
  O  O15  1  0.90059140  0.52023161  0.13701251  1
  O  O16  1  0.61964121  0.09940860  0.13701251  1
  O  O17  1  0.47976839  0.38035879  0.13701251  1
  O  O18  1  0.46164868  0.29195857  0.02995764  1
  O  O19  1  0.83031090  0.53835132  0.02995764  1
  O  O20  1  0.70804143  0.16968910  0.02995764  1
  O  O21  1  0.46164868  0.16968910  0.52995764  1
  O  O22  1  0.70804143  0.53835132  0.52995764  1
  O  O23  1  0.83031090  0.29195857  0.52995764  1
  O  O24  1  0.50187704  0.65532815  0.97115617  1
  O  O25  1  0.15345011  0.49812296  0.97115617  1
  O  O26  1  0.34467185  0.84654989  0.97115617  1
  O  O27  1  0.50187704  0.84654989  0.47115617  1
  O  O28  1  0.34467185  0.49812296  0.47115617  1
  O  O29  1  0.15345011  0.65532815  0.47115617  1
  O  O30  1  0.13162656  0.61670483  0.36159610  1
  O  O31  1  0.48507727  0.86837344  0.36159610  1
  O  O32  1  0.38329517  0.51492273  0.36159610  1
  O  O33  1  0.13162656  0.51492273  0.86159610  1
  O  O34  1  0.38329517  0.86837344  0.86159610  1
  O  O35  1  0.48507727  0.61670483  0.86159610  1
  O  O36  1  0.02449614  0.79840407  0.41380719  1
  O  O37  1  0.77390793  0.97550386  0.41380719  1
  O  O38  1  0.20159593  0.22609207  0.41380719  1
  O  O39  1  0.02449614  0.22609207  0.91380719  1
  O  O40  1  0.20159593  0.97550386  0.91380719  1
  O  O41  1  0.77390793  0.79840407  0.91380719  1
  O  O42  1  0.96666614  0.16048247  0.59361933  1
  O  O43  1  0.19381633  0.03333386  0.59361933  1
  O  O44  1  0.83951753  0.80618367  0.59361933  1
  O  O45  1  0.96666614  0.80618367  0.09361933  1
  O  O46  1  0.83951753  0.03333386  0.09361933  1
  O  O47  1  0.19381633  0.16048247  0.09361933  1
  O  O48  1  0.67006670  0.11877292  0.74063842  1
  O  O49  1  0.44870721  0.32993330  0.74063842  1
  O  O50  1  0.88122708  0.55129279  0.74063842  1
  O  O51  1  0.67006670  0.55129279  0.24063842  1
  O  O52  1  0.88122708  0.32993330  0.24063842  1
  O  O53  1  0.44870721  0.11877292  0.24063842  1
  O  O54  1  0.60871129  0.47492237  0.92691944  1
  O  O55  1  0.86621208  0.39128871  0.92691944  1
  O  O56  1  0.52507763  0.13378792  0.92691944  1
  O  O57  1  0.60871129  0.13378792  0.42691944  1
  O  O58  1  0.52507763  0.39128871  0.42691944  1
  O  O59  1  0.86621208  0.47492237  0.42691944  1
  O  O60  1  0.32727259  0.47060244  0.06609484  1
  O  O61  1  0.14332886  0.67272741  0.06609484  1
  O  O62  1  0.52939756  0.85667114  0.06609484  1
  O  O63  1  0.32727259  0.85667114  0.56609484  1
  O  O64  1  0.52939756  0.67272741  0.56609484  1
  O  O65  1  0.14332886  0.47060244  0.56609484  1
  O  O66  1  0.27669621  0.81203732  0.25650979  1
  O  O67  1  0.53534011  0.72330379  0.25650979  1
  O  O68  1  0.18796268  0.46465989  0.25650979  1
  O  O69  1  0.27669621  0.46465989  0.75650979  1
  O  O70  1  0.18796268  0.72330379  0.75650979  1
  O  O71  1  0.53534011  0.81203732  0.75650979  1
loop_
_geom_bond_atom_site_label_1
_geom_bond_atom_site_label_2
_geom_bond_distance
_geom_bond_site_symmetry_2
Ca0 O38 2.196323 1_555
Ca0 O36 2.196323 1_545
Ca0 O37 2.196323 1_445
Ca0 O2 2.294737 1_455
Ca0 O1 2.294737 1_445
Ca0 O0 2.294737 1_555
Ca1 O39 2.196323 1_555
Ca1 O41 2.196323 1_445
Ca1 O40 2.196323 1_545
Ca1 O3 2.294737 1_555
Ca1 O5 2.294737 1_455
Ca1 O4 2.294737 1_445
Ca2 O13 2.237275 1_555
Ca2 O14 2.237275 1_555
Ca2 O12 2.237276 1_555
Ca2 O48 2.289310 1_555
Ca2 O50 2.289310 1_555
Ca2 O49 2.289310 1_555
Ca3 O16 2.237275 1_555
Ca3 O15 2.237275 1_555
Ca3 O17 2.237276 1_555
Ca3 O53 2.289310 1_555
Ca3 O52 2.289310 1_555
Ca3 O51 2.289310 1_555
Nb0 O44 1.942528 1_445
Nb0 O42 1.942528 1_455
Nb0 O43 1.942528 1_555
Nb0 O7 2.106622 1_555
Nb0 O8 2.106622 1_545
Nb0 O6 2.106622 1_445
Nb1 O45 1.942528 1_445
Nb1 O47 1.942528 1_555
Nb1 O46 1.942528 1_455
Nb1 O10 2.106622 1_555
Nb1 O9 2.106622 1_445
Nb1 O11 2.106622 1_545
Nb2 O56 1.979892 1_555
Nb2 O54 1.979892 1_555
Nb2 O55 1.979892 1_555
Nb2 O19 2.053388 1_556
Nb2 O18 2.053388 1_556
Nb2 O20 2.053388 1_556
Nb3 O57 1.979892 1_555
Nb3 O59 1.979892 1_555
Nb3 O58 1.979892 1_555
Nb3 O22 2.053388 1_555
Nb3 O21 2.053388 1_555
Nb3 O23 2.053388 1_555
Nb4 O26 1.968264 1_554
Nb4 O25 1.968264 1_554
Nb4 O24 1.968264 1_554
Nb4 O62 1.984777 1_555
Nb4 O61 1.984777 1_555
Nb4 O60 1.984777 1_555
Nb5 O27 1.968264 1_555
Nb5 O28 1.968264 1_555
Nb5 O29 1.968264 1_555
Nb5 O63 1.984777 1_555
Nb5 O65 1.984777 1_555
Nb5 O64 1.984777 1_555
Nb6 O31 1.983910 1_555
Nb6 O32 1.983910 1_555
Nb6 O30 1.983910 1_555
Nb6 O68 2.055437 1_555
Nb6 O66 2.055437 1_555
Nb6 O67 2.055437 1_555
Nb7 O34 1.983910 1_555
Nb7 O33 1.983910 1_555
Nb7 O35 1.983910 1_555
Nb7 O69 2.055437 1_555
Nb7 O71 2.055437 1_555
Nb7 O70 2.055437 1_555
O0 S0 1.441585 1_545
O1 S1 1.441585 1_555
O2 S2 1.441585 1_655
O3 S3 1.441585 1_555
O4 S4 1.441585 1_655
O5 S5 1.441585 1_545
O6 S5 1.528110 1_555
O7 S3 1.528110 1_555
O8 S4 1.528110 1_555
O9 S1 1.528110 1_555
O10 S2 1.528110 1_555
O11 S0 1.528110 1_555
O12 P0 1.484701 1_555
O13 P1 1.484701 1_555
O14 P2 1.484701 1_555
O15 P3 1.484701 1_555
O16 P4 1.484701 1_555
O17 P5 1.484701 1_555
O18 P5 1.564602 1_555
O19 P3 1.564602 1_555
O20 P4 1.564602 1_555
O21 P1 1.564602 1_555
O22 P2 1.564602 1_555
O23 P0 1.564602 1_555
O24 P6 1.539675 1_555
O25 P7 1.539675 1_555
O26 P8 1.539675 1_555
O27 P9 1.539675 1_555
O28 P10 1.539675 1_555
O29 P11 1.539675 1_555
O30 P11 1.587639 1_555
O31 P9 1.587639 1_555
O32 P10 1.587639 1_555
O33 P7 1.587639 1_555
O34 P8 1.587639 1_555
O35 P6 1.587639 1_555
O36 P11 1.482429 1_555
O37 P9 1.482438 1_555
O38 P10 1.482434 1_555
O39 P7 1.482438 1_555
O40 P8 1.482429 1_555
O41 P6 1.482434 1_555
O42 P0 1.590867 1_555
O43 P1 1.590876 1_555
O44 P2 1.590872 1_555
O45 P3 1.590876 1_555
O46 P4 1.590867 1_555
O47 P5 1.590872 1_555
O48 S5 1.437996 1_545
O49 S3 1.438005 1_555
O50 S4 1.438002 1_655
O51 S1 1.438005 1_555
O52 S2 1.437996 1_655
O53 S0 1.438002 1_545
O54 P6 1.562132 1_555
O55 P7 1.562115 1_655
O56 P8 1.562123 1_545
O57 P9 1.562115 1_545
O58 P10 1.562132 1_555
O59 P11 1.562123 1_655
O60 P5 1.561504 1_555
O61 P3 1.561487 1_455
O62 P4 1.561492 1_565
O63 P1 1.561487 1_565
O64 P2 1.561504 1_555
O65 P0 1.561492 1_455
O66 S0 1.536730 1_555
O67 S1 1.536739 1_555
O68 S2 1.536735 1_555
O69 S3 1.536739 1_555
O70 S4 1.536730 1_555
O71 S5 1.536735 1_555
