# generated using pymatgen
data_MgCu6OF11
_symmetry_space_group_name_H-M   'P 1'
_cell_length_a   5.64194054
_cell_length_b   4.80751488
_cell_length_c   8.54982538
_cell_angle_alpha   91.65130213
_cell_angle_beta   91.21306517
_cell_angle_gamma   84.74710916
_symmetry_Int_Tables_number   1
_chemical_formula_structural   MgCu6OF11
_chemical_formula_sum   'Mg1 Cu6 O1 F11'
_cell_volume   230.79317747
_cell_formula_units_Z   1
loop_
 _symmetry_equiv_pos_site_id
 _symmetry_equiv_pos_as_xyz
  1  'x, y, z'
loop_
 _atom_site_type_symbol
 _atom_site_label
 _atom_site_symmetry_multiplicity
 _atom_site_fract_x
 _atom_site_fract_y
 _atom_site_fract_z
 _atom_site_occupancy
  Mg  Mg0  1  0.21146900  0.70797400  0.40328500  1
  Cu  Cu0  1  0.98018000  0.99151600  0.00053300  1
  Cu  Cu1  1  0.49406800  0.53890800  0.02386800  1
  Cu  Cu2  1  0.46885200  0.08206000  0.24748800  1
  Cu  Cu3  1  0.77833900  0.49834300  0.33733900  1
  Cu  Cu4  1  0.17290600  0.48224900  0.69977100  1
  Cu  Cu5  1  0.67898400  0.99698200  0.68052900  1
  O  O0  1  0.48345900  0.67525900  0.24930700  1
  F  F0  1  0.24197300  0.18578800  0.08259700  1
  F  F1  1  0.95680900  0.79300300  0.25401600  1
  F  F2  1  0.75095500  0.27082300  0.08832200  1
  F  F3  1  0.11352100  0.32319900  0.40116100  1
  F  F4  1  0.62975800  0.20047300  0.44055000  1
  F  F5  1  0.39219200  0.75035800  0.59749300  1
  F  F6  1  0.92780400  0.72535800  0.58101200  1
  F  F7  1  0.45684800  0.27762200  0.78291100  1
  F  F8  1  0.21186200  0.70869400  0.92338100  1
  F  F9  1  0.95539000  0.21746800  0.74960500  1
  F  F10  1  0.72587800  0.79614400  0.90605500  1
loop_
_geom_bond_atom_site_label_1
_geom_bond_atom_site_label_2
_geom_bond_distance
_geom_bond_site_symmetry_2
Mg0 O0 2.035222 1_555
Cu0 F8 1.910974 1_654
Cu0 F2 1.924580 1_565
Cu0 F0 1.927982 1_665
Cu0 F10 1.935761 1_554
Cu0 F1 2.404045 1_555
Cu0 F9 2.428174 1_564
Cu1 F8 1.919373 1_554
Cu1 F2 1.931430 1_555
Cu1 O0 2.018236 1_555
Cu1 F10 2.162908 1_554
Cu1 F0 2.382961 1_555
Cu1 F7 2.397288 1_554
Cu2 F0 1.929225 1_555
Cu2 O0 1.950382 1_545
Cu2 F4 1.962108 1_555
Cu2 F2 2.374021 1_555
Cu3 O0 1.944879 1_555
Cu3 F4 1.963679 1_555
Cu3 F1 1.969215 1_555
Cu3 F3 2.067398 1_655
Cu3 F2 2.374014 1_555
Cu3 F6 2.491124 1_555
Cu4 F9 1.909816 1_455
Cu4 F7 1.934662 1_555
Cu4 F6 2.005552 1_455
Cu4 F5 2.087932 1_555
Cu4 F8 2.189655 1_555
Cu5 F7 1.956018 1_565
Cu5 F6 2.012653 1_555
Cu5 F9 2.032709 1_565
Cu5 F10 2.181550 1_555
Cu5 F5 2.186787 1_555
Cu5 F4 2.299082 1_565
F1 Mg0 1.924854 1_655
F3 Mg0 1.977962 1_555
F5 Mg0 1.945532 1_555
F6 Mg0 2.224517 1_655
