# generated using pymatgen
data_Na6Zr4Nb4Si9(SO16)3
_symmetry_space_group_name_H-M   'P 1'
_cell_length_a   18.08773015
_cell_length_b   9.01828548
_cell_length_c   23.11096471
_cell_angle_alpha   89.99572450
_cell_angle_beta   89.92280441
_cell_angle_gamma   119.85126083
_symmetry_Int_Tables_number   1
_chemical_formula_structural   Na6Zr4Nb4Si9(SO16)3
_chemical_formula_sum   'Na18 Zr12 Nb12 Si27 S9 O144'
_cell_volume   3269.67938859
_cell_formula_units_Z   3
loop_
 _symmetry_equiv_pos_site_id
 _symmetry_equiv_pos_as_xyz
  1  'x, y, z'
loop_
 _atom_site_type_symbol
 _atom_site_label
 _atom_site_symmetry_multiplicity
 _atom_site_fract_x
 _atom_site_fract_y
 _atom_site_fract_z
 _atom_site_occupancy
  Na  Na0  1  0.00230957  0.64648015  0.24450219  1
  Na  Na1  1  0.49988404  0.62160610  0.24771341  1
  Na  Na2  1  0.99951394  0.37831251  0.74811484  1
  Na  Na3  1  0.50291201  0.36546683  0.74633292  1
  Na  Na4  1  0.33389383  0.97534489  0.58753919  1
  Na  Na5  1  0.83189758  0.69093873  0.08124442  1
  Na  Na6  1  0.99748791  0.00912207  0.50339242  1
  Na  Na7  1  0.50571029  0.00229271  0.50383916  1
  Na  Na8  1  0.00518336  0.01137193  0.99849475  1
  Na  Na9  1  0.49811848  0.98766606  0.99635118  1
  Na  Na10  1  0.32770235  0.33911099  0.82956148  1
  Na  Na11  1  0.82687947  0.33921265  0.83138736  1
  Na  Na12  1  0.32920101  0.31825505  0.33354531  1
  Na  Na13  1  0.82090581  0.31263770  0.33390721  1
  Na  Na14  1  0.17220243  0.68083053  0.15962692  1
  Na  Na15  1  0.66218283  0.65309686  0.16870800  1
  Na  Na16  1  0.16455112  0.67463227  0.67099909  1
  Na  Na17  1  0.66570657  0.66250485  0.66631698  1
  Zr  Zr0  1  0.50721811  0.01282600  0.64867492  1
  Zr  Zr1  1  0.00547511  0.98891021  0.14450225  1
  Zr  Zr2  1  0.33416107  0.32507103  0.69071578  1
  Zr  Zr3  1  0.82763584  0.34389651  0.68601105  1
  Zr  Zr4  1  0.32876037  0.31203693  0.18579104  1
  Zr  Zr5  1  0.82944556  0.34177101  0.18769349  1
  Zr  Zr6  1  0.66277476  0.67185336  0.01811615  1
  Zr  Zr7  1  0.16472584  0.65492308  0.52043471  1
  Zr  Zr8  1  0.17701567  0.67726095  0.31645332  1
  Zr  Zr9  1  0.66709619  0.67687185  0.31080425  1
  Zr  Zr10  1  0.16812559  0.65753165  0.81078384  1
  Zr  Zr11  1  0.67175170  0.67806684  0.81438662  1
  Nb  Nb0  1  0.99977208  0.99811934  0.35534756  1
  Nb  Nb1  1  0.50478610  0.01009295  0.35648670  1
  Nb  Nb2  1  0.00341258  0.99832186  0.85573717  1
  Nb  Nb3  1  0.49880963  0.98474754  0.85084492  1
  Nb  Nb4  1  0.00642365  0.99658343  0.64047851  1
  Nb  Nb5  1  0.50619937  0.01593458  0.13963065  1
  Nb  Nb6  1  0.33512283  0.34772446  0.98634994  1
  Nb  Nb7  1  0.83231364  0.34368316  0.97381996  1
  Nb  Nb8  1  0.33280059  0.32319618  0.47559115  1
  Nb  Nb9  1  0.83407564  0.32098816  0.48734716  1
  Nb  Nb10  1  0.16859112  0.65222599  0.02149871  1
  Nb  Nb11  1  0.66794493  0.68424426  0.52281774  1
  Si  Si0  1  0.14693621  0.00054946  0.25318600  1
  Si  Si1  1  0.64277291  0.00355977  0.24821539  1
  Si  Si2  1  0.85484516  0.71401463  0.24925384  1
  Si  Si3  1  0.49912774  0.28601821  0.25026277  1
  Si  Si4  1  0.14196844  0.28108704  0.74822709  1
  Si  Si5  1  0.64696430  0.29097956  0.75384665  1
  Si  Si6  1  0.99915457  0.71132216  0.75026987  1
  Si  Si7  1  0.50129157  0.70787993  0.74798455  1
  Si  Si8  1  0.35533560  0.99393122  0.74935427  1
  Si  Si9  1  0.47925046  0.33618616  0.58209435  1
  Si  Si10  1  0.97903059  0.33157960  0.58938225  1
  Si  Si11  1  0.19160880  0.04620470  0.58180315  1
  Si  Si12  1  0.68566782  0.04396703  0.58568775  1
  Si  Si13  1  0.83282170  0.62568854  0.57996483  1
  Si  Si14  1  0.47947959  0.62582958  0.08916187  1
  Si  Si15  1  0.97893886  0.61519838  0.08248879  1
  Si  Si16  1  0.33241291  0.03971534  0.08003249  1
  Si  Si17  1  0.18749562  0.33027258  0.08551905  1
  Si  Si18  1  0.69004675  0.33772853  0.08059467  1
  Si  Si19  1  0.31356985  0.66688873  0.91651507  1
  Si  Si20  1  0.81372080  0.67509580  0.91810264  1
  Si  Si21  1  0.02210171  0.37631545  0.91562536  1
  Si  Si22  1  0.66522953  0.96451747  0.91653701  1
  Si  Si23  1  0.31575868  0.95769010  0.41931790  1
  Si  Si24  1  0.81158678  0.96065296  0.41623928  1
  Si  Si25  1  0.16677416  0.37114157  0.41597719  1
  Si  Si26  1  0.52196844  0.66697402  0.41573993  1
  S  S0  1  0.35851821  0.71776089  0.25017028  1
  S  S1  1  0.00070807  0.28760454  0.25107656  1
  S  S2  1  0.85937097  0.99976842  0.74985100  1
  S  S3  1  0.33345839  0.61990298  0.58226433  1
  S  S4  1  0.83369247  0.04643935  0.08315583  1
  S  S5  1  0.51741244  0.37047117  0.91633346  1
  S  S6  1  0.16923725  0.96029299  0.91737311  1
  S  S7  1  0.66939227  0.37839328  0.41693076  1
  S  S8  1  0.01854752  0.66406279  0.41555020  1
  O  O0  1  0.09292601  0.01483384  0.30883817  1
  O  O1  1  0.59311084  0.02076288  0.30596350  1
  O  O2  1  0.40906354  0.80054562  0.30312306  1
  O  O3  1  0.91927616  0.81991399  0.30424739  1
  O  O4  1  0.48984267  0.16530013  0.30726809  1
  O  O5  1  0.99107635  0.18467699  0.30377572  1
  O  O6  1  0.09083341  0.16495228  0.80603522  1
  O  O7  1  0.59388227  0.16778511  0.80907003  1
  O  O8  1  0.48954434  0.80334793  0.80651785  1
  O  O9  1  0.98960629  0.81368876  0.80734387  1
  O  O10  1  0.41839826  0.02058955  0.80505897  1
  O  O11  1  0.91047767  0.01934868  0.80312724  1
  O  O12  1  0.39628783  0.97257786  0.68907887  1
  O  O13  1  0.89810137  0.97715646  0.69745596  1
  O  O14  1  0.07894592  0.18378087  0.69250172  1
  O  O15  1  0.58774359  0.21118562  0.69581225  1
  O  O16  1  0.00561081  0.82948335  0.69331720  1
  O  O17  1  0.51552780  0.82736626  0.69233876  1
  O  O18  1  0.39639072  0.81793423  0.19742934  1
  O  O19  1  0.89800914  0.82202099  0.19023747  1
  O  O20  1  0.01251918  0.20980225  0.19888461  1
  O  O21  1  0.50554728  0.18100205  0.19335655  1
  O  O22  1  0.08653959  0.96731476  0.19607442  1
  O  O23  1  0.58067111  0.97706283  0.19249902  1
  O  O24  1  0.44151855  0.36849019  0.64184371  1
  O  O25  1  0.93600304  0.35861178  0.64644743  1
  O  O26  1  0.25094647  0.13326885  0.63764368  1
  O  O27  1  0.74490334  0.12863413  0.64095422  1
  O  O28  1  0.32259748  0.52104902  0.63487467  1
  O  O29  1  0.81482763  0.50996447  0.63746271  1
  O  O30  1  0.43597127  0.51274708  0.14634540  1
  O  O31  1  0.94085798  0.51187246  0.14353015  1
  O  O32  1  0.31425584  0.11829488  0.13800229  1
  O  O33  1  0.82330919  0.12653764  0.13594554  1
  O  O34  1  0.24500144  0.36186291  0.14175548  1
  O  O35  1  0.74906758  0.36807769  0.13792446  1
  O  O36  1  0.23754869  0.30964065  0.02814922  1
  O  O37  1  0.73667597  0.30801822  0.02533418  1
  O  O38  1  0.41777822  0.52787247  0.03102360  1
  O  O39  1  0.91233639  0.51353406  0.02984087  1
  O  O40  1  0.34765815  0.16724987  0.02458827  1
  O  O41  1  0.84313018  0.14633291  0.03087370  1
  O  O42  1  0.23636685  0.16622290  0.52472725  1
  O  O43  1  0.73809178  0.16401267  0.52783665  1
  O  O44  1  0.34117300  0.53695778  0.52976775  1
  O  O45  1  0.84777176  0.52780029  0.52385211  1
  O  O46  1  0.41332418  0.31408753  0.52844496  1
  O  O47  1  0.91740922  0.30683308  0.53078207  1
  O  O48  1  0.26365228  0.68759652  0.97344532  1
  O  O49  1  0.77313739  0.70041713  0.97741711  1
  O  O50  1  0.08539124  0.47705199  0.97095853  1
  O  O51  1  0.57117155  0.45621822  0.96791769  1
  O  O52  1  0.15476799  0.85447058  0.96942267  1
  O  O53  1  0.64963219  0.84295321  0.97269454  1
  O  O54  1  0.27229166  0.84405412  0.47616478  1
  O  O55  1  0.76589690  0.84076452  0.47300858  1
  O  O56  1  0.14798508  0.45679658  0.47147240  1
  O  O57  1  0.65509741  0.45462336  0.46896200  1
  O  O58  1  0.07143171  0.68920207  0.46651625  1
  O  O59  1  0.58624383  0.69582609  0.47036363  1
  O  O60  1  0.05854462  0.64391652  0.36218519  1
  O  O61  1  0.55867076  0.62948935  0.35700885  1
  O  O62  1  0.25606080  0.87276572  0.36213229  1
  O  O63  1  0.75306734  0.87414281  0.36001831  1
  O  O64  1  0.17822324  0.48782474  0.35904168  1
  O  O65  1  0.67946433  0.47660207  0.36445179  1
  O  O66  1  0.05823203  0.48748544  0.85728572  1
  O  O67  1  0.55692971  0.47406904  0.86364498  1
  O  O68  1  0.17921880  0.88175453  0.86494624  1
  O  O69  1  0.68007265  0.87438801  0.86045675  1
  O  O70  1  0.25312937  0.63270488  0.86110610  1
  O  O71  1  0.75431662  0.64055965  0.86224502  1
  O  O72  1  0.00962693  0.82063151  0.41094288  1
  O  O73  1  0.51302132  0.84050915  0.40741538  1
  O  O74  1  0.41064594  0.98126259  0.40760330  1
  O  O75  1  0.90804991  0.98222650  0.40707116  1
  O  O76  1  0.08191396  0.17925491  0.40588468  1
  O  O77  1  0.59099778  0.20104872  0.41175150  1
  O  O78  1  0.01295569  0.18503271  0.90875474  1
  O  O79  1  0.50859388  0.19992949  0.91243225  1
  O  O80  1  0.09046257  0.97997240  0.91226042  1
  O  O81  1  0.58204835  0.98948005  0.90993752  1
  O  O82  1  0.40774982  0.83798519  0.91126530  1
  O  O83  1  0.91002774  0.84045322  0.90797426  1
  O  O84  1  0.47980018  0.15534782  0.58307557  1
  O  O85  1  0.98482506  0.15624655  0.59155938  1
  O  O86  1  0.09560473  0.02533672  0.58838593  1
  O  O87  1  0.59234527  0.02308201  0.58371208  1
  O  O88  1  0.40867030  0.79490794  0.58510937  1
  O  O89  1  0.91769243  0.81366382  0.58881696  1
  O  O90  1  0.48506266  0.81285981  0.09256707  1
  O  O91  1  0.98054629  0.80094242  0.08523697  1
  O  O92  1  0.41727132  0.02095933  0.08987500  1
  O  O93  1  0.90966213  0.02389947  0.08789753  1
  O  O94  1  0.09199055  0.16654101  0.08677229  1
  O  O95  1  0.59526353  0.16681222  0.08800399  1
  O  O96  1  0.35434470  0.17516347  0.74783973  1
  O  O97  1  0.85308551  0.15692331  0.74761827  1
  O  O98  1  0.23503127  0.30126246  0.74470783  1
  O  O99  1  0.73882135  0.30192239  0.75038498  1
  O  O100  1  0.41672951  0.52012532  0.74714293  1
  O  O101  1  0.91647659  0.51967430  0.74771443  1
  O  O102  1  0.35149951  0.54762681  0.24772939  1
  O  O103  1  0.85689411  0.53219261  0.24802676  1
  O  O104  1  0.41659250  0.31350945  0.24783346  1
  O  O105  1  0.92342024  0.30524762  0.24798627  1
  O  O106  1  0.23863246  0.17021312  0.25066565  1
  O  O107  1  0.73809420  0.16849721  0.24475368  1
  O  O108  1  0.32560797  0.49649747  0.92714356  1
  O  O109  1  0.82670712  0.50522848  0.92353921  1
  O  O110  1  0.43204717  0.35552735  0.92292955  1
  O  O111  1  0.92695916  0.34795174  0.93075926  1
  O  O112  1  0.24399459  0.13394196  0.92357246  1
  O  O113  1  0.75202056  0.15095046  0.92601908  1
  O  O114  1  0.32674494  0.14995971  0.42334008  1
  O  O115  1  0.82623301  0.15701788  0.42551262  1
  O  O116  1  0.25141785  0.35380433  0.42426213  1
  O  O117  1  0.74444449  0.35384803  0.42261818  1
  O  O118  1  0.42647659  0.50702023  0.42978650  1
  O  O119  1  0.93259876  0.51254235  0.42069812  1
  O  O120  1  0.17918142  0.50270592  0.07572791  1
  O  O121  1  0.68313355  0.50905353  0.07568311  1
  O  O122  1  0.07481722  0.64768572  0.07148834  1
  O  O123  1  0.57269304  0.64645459  0.07818806  1
  O  O124  1  0.24847604  0.85285537  0.06943110  1
  O  O125  1  0.75744705  0.87081183  0.07953156  1
  O  O126  1  0.18270665  0.85863396  0.57443062  1
  O  O127  1  0.67860348  0.85580597  0.57554442  1
  O  O128  1  0.25629494  0.64229655  0.57836125  1
  O  O129  1  0.74880588  0.64397795  0.56838285  1
  O  O130  1  0.07159137  0.49790007  0.57726484  1
  O  O131  1  0.57480377  0.50029559  0.56908965  1
  O  O132  1  0.14763882  0.81905210  0.25835429  1
  O  O133  1  0.64474450  0.82516615  0.25256841  1
  O  O134  1  0.27123998  0.69677568  0.25510753  1
  O  O135  1  0.76064471  0.68410558  0.25711287  1
  O  O136  1  0.07538515  0.46344742  0.25720239  1
  O  O137  1  0.58376970  0.47266210  0.25438800  1
  O  O138  1  0.14341172  0.46313420  0.75263301  1
  O  O139  1  0.65223856  0.47631885  0.75994146  1
  O  O140  1  0.08406784  0.69530640  0.75445083  1
  O  O141  1  0.58317278  0.68005355  0.75638382  1
  O  O142  1  0.26097946  0.83234053  0.75743099  1
  O  O143  1  0.77315230  0.84725973  0.75492302  1
loop_
_geom_bond_atom_site_label_1
_geom_bond_atom_site_label_2
_geom_bond_distance
_geom_bond_site_symmetry_2
Na0 O103 2.299512 1_455
Na0 O132 2.316083 1_555
Na0 O136 2.594373 1_555
Na0 O31 2.611281 1_455
Na0 O105 2.672239 1_455
Na0 O22 2.748095 1_555
Na0 O60 2.909149 1_555
Na0 O3 2.990275 1_455
Na1 O133 2.336761 1_555
Na1 O104 2.413017 1_555
Na1 O102 2.421995 1_555
Na1 O137 2.481881 1_555
Na1 O30 2.581926 1_555
Na1 O61 2.729102 1_555
Na2 O138 2.321475 1_655
Na2 O97 2.395226 1_555
Na2 O101 2.405693 1_555
Na2 O140 2.486179 1_655
Na2 O25 2.583827 1_555
Na2 O66 2.725753 1_655
Na3 O96 2.361460 1_555
Na3 O139 2.389125 1_555
Na3 O141 2.472077 1_555
Na3 O100 2.557350 1_555
Na3 O24 2.665094 1_555
Na3 O15 2.788232 1_555
Na3 O67 2.884330 1_555
Na4 O84 2.311953 1_565
Na4 O126 2.411382 1_555
Na4 O88 2.582864 1_555
Na4 O12 2.610815 1_555
Na4 O128 2.615410 1_555
Na4 O26 2.782615 1_565
Na4 O54 2.821984 1_555
Na5 O121 2.356825 1_555
Na5 O91 2.359497 1_555
Na5 O125 2.573155 1_555
Na5 O93 2.610478 1_565
Na5 O49 2.644249 1_554
Na5 O19 2.788144 1_555
Na5 O35 2.844253 1_555
Na5 O39 2.898406 1_555
Na6 O85 2.503292 1_555
Na6 O89 2.558716 1_545
Na6 O86 2.603935 1_655
Na6 O75 2.692670 1_545
Na6 O76 2.724346 1_655
Na6 O72 2.805998 1_645
Na7 O87 2.369305 1_555
Na7 O84 2.473922 1_555
Na7 O88 2.613252 1_545
Na7 O73 2.702579 1_545
Na7 O77 2.712917 1_555
Na7 O74 2.761341 1_545
Na8 O94 2.531332 1_556
Na8 O78 2.559968 1_555
Na8 O80 2.618783 1_545
Na8 O91 2.640807 1_446
Na8 O83 2.661566 1_445
Na8 O93 2.729795 1_456
Na9 O82 2.484608 1_555
Na9 O81 2.502083 1_555
Na9 O79 2.664414 1_565
Na9 O90 2.667023 1_556
Na9 O92 2.707217 1_566
Na9 O95 2.714565 1_566
Na10 O98 2.492247 1_555
Na10 O100 2.502091 1_555
Na10 O96 2.587005 1_555
Na10 O108 2.675029 1_555
Na10 O112 2.763728 1_555
Na10 O110 2.823672 1_555
Na11 O99 2.372648 1_555
Na11 O101 2.525847 1_555
Na11 O109 2.604296 1_555
Na11 O113 2.683648 1_555
Na11 O97 2.729283 1_555
Na11 O111 2.902856 1_555
Na12 O106 2.442646 1_555
Na12 O104 2.546234 1_555
Na12 O114 2.558181 1_555
Na12 O116 2.630383 1_555
Na12 O102 2.746206 1_555
Na12 O118 2.823171 1_555
Na13 O107 2.499821 1_555
Na13 O115 2.568205 1_555
Na13 O117 2.599673 1_555
Na13 O103 2.645065 1_555
Na13 O105 2.738409 1_555
Na13 O119 2.782194 1_555
Na14 O124 2.552721 1_555
Na14 O120 2.560807 1_555
Na14 O122 2.612852 1_555
Na14 O132 2.739769 1_555
Na14 O134 2.802361 1_555
Na14 O136 2.926830 1_555
Na15 O137 2.504967 1_555
Na15 O133 2.598028 1_555
Na15 O123 2.629214 1_555
Na15 O135 2.634091 1_555
Na15 O121 2.634651 1_555
Na15 O125 2.773718 1_555
Na16 O140 2.477171 1_555
Na16 O142 2.568144 1_555
Na16 O138 2.571982 1_555
Na16 O126 2.701346 1_555
Na16 O130 2.720804 1_555
Na16 O128 2.809750 1_555
Na17 O141 2.610227 1_555
Na17 O127 2.662248 1_555
Na17 O139 2.674194 1_555
Na17 O131 2.740166 1_555
Na17 O143 2.744845 1_555
Na17 O129 2.766011 1_555
Nb0 O0 1.938910 1_665
Nb0 O3 1.942398 1_555
Nb0 O76 1.956755 1_665
Nb0 O75 1.989932 1_555
Nb0 O72 2.128150 1_655
Nb0 O5 2.130614 1_565
Nb1 O4 1.924403 1_555
Nb1 O1 1.940842 1_555
Nb1 O74 1.979006 1_545
Nb1 O73 1.993353 1_545
Nb1 O77 2.088287 1_555
Nb1 O2 2.199733 1_545
Nb2 O9 1.916450 1_455
Nb2 O6 1.925434 1_565
Nb2 O83 1.984382 1_455
Nb2 O78 2.019377 1_565
Nb2 O80 2.116100 1_555
Nb2 O11 2.159348 1_465
Nb3 O8 1.865895 1_555
Nb3 O7 1.945128 1_565
Nb3 O10 1.952368 1_565
Nb3 O81 2.018745 1_555
Nb3 O82 2.058598 1_555
Nb3 O79 2.341420 1_565
Nb4 O86 1.922758 1_565
Nb4 O16 1.933900 1_555
Nb4 O14 1.953531 1_565
Nb4 O85 2.016189 1_465
Nb4 O89 2.022976 1_455
Nb4 O13 2.292342 1_455
Nb5 O95 1.919026 1_555
Nb5 O21 1.943084 1_555
Nb5 O23 1.976034 1_545
Nb5 O90 1.996898 1_545
Nb5 O92 1.997287 1_555
Nb5 O18 2.319393 1_545
Nb6 O38 1.878026 1_556
Nb6 O36 1.886250 1_556
Nb6 O40 1.961902 1_556
Nb6 O108 1.982986 1_555
Nb6 O110 2.257654 1_555
Nb6 O112 2.319951 1_555
Nb7 O109 1.905308 1_555
Nb7 O113 1.960196 1_555
Nb7 O111 1.962736 1_555
Nb7 O39 1.978837 1_556
Nb7 O37 1.988415 1_556
Nb7 O41 2.300310 1_556
Nb8 O114 1.934240 1_555
Nb8 O46 1.934957 1_555
Nb8 O42 1.967821 1_555
Nb8 O118 1.984543 1_555
Nb8 O116 2.014805 1_555
Nb8 O44 2.239897 1_555
Nb9 O43 1.855418 1_555
Nb9 O47 1.868572 1_555
Nb9 O45 1.947444 1_555
Nb9 O115 2.010226 1_555
Nb9 O117 2.332121 1_555
Nb9 O119 2.336691 1_555
Nb10 O120 1.919160 1_555
Nb10 O48 1.934003 1_554
Nb10 O50 1.939847 1_554
Nb10 O124 1.997667 1_555
Nb10 O122 2.034438 1_555
Nb10 O52 2.300448 1_554
Nb11 O127 1.902589 1_555
Nb11 O59 1.955203 1_555
Nb11 O129 1.978074 1_555
Nb11 O131 1.986576 1_555
Nb11 O55 1.990286 1_555
Nb11 O57 2.326682 1_555
O0 Si0 1.657449 1_555
O1 Si1 1.657617 1_555
O2 S0 1.488139 1_555
O3 Si2 1.667863 1_555
O4 Si3 1.663205 1_555
O5 S1 1.487813 1_655
O6 Si4 1.664153 1_555
O7 Si5 1.649125 1_555
O8 Si7 1.672684 1_555
O9 Si6 1.667398 1_555
O10 Si8 1.657493 1_545
O11 S2 1.497438 1_545
O12 Si8 1.632649 1_555
O12 Zr0 2.073528 1_565
O13 S2 1.462392 1_555
O14 Si4 1.654211 1_555
O15 Si5 1.643411 1_555
O15 Zr0 1.979654 1_555
O16 Si6 1.660459 1_455
O17 Si7 1.613688 1_555
O17 Zr0 2.022045 1_565
O18 S0 1.467176 1_555
O19 Si2 1.630482 1_555
O19 Zr1 2.059774 1_655
O20 S1 1.463397 1_555
O20 Zr1 2.304847 1_545
O21 Si3 1.658102 1_555
O22 Si0 1.644199 1_565
O22 Zr1 1.974188 1_555
O23 Si1 1.647319 1_565
O24 Si9 1.628772 1_555
O24 Zr2 2.106401 1_555
O25 Si10 1.609537 1_555
O25 Zr3 2.105211 1_555
O26 Si11 1.612098 1_555
O26 Zr2 2.043373 1_555
O27 Si12 1.597436 1_555
O27 Zr3 2.050568 1_555
O28 S3 1.461696 1_555
O28 Zr2 2.280633 1_555
O29 Si13 1.619067 1_555
O29 Zr3 1.975185 1_555
O30 Si14 1.613666 1_555
O30 Zr4 2.090120 1_555
O31 Si15 1.640462 1_555
O31 Zr5 2.091116 1_555
O32 Si16 1.623450 1_555
O32 Zr4 1.971332 1_555
O33 S4 1.476510 1_555
O33 Zr5 2.235276 1_555
O34 Si17 1.600294 1_555
O34 Zr4 2.052966 1_555
O35 Si18 1.638004 1_555
O35 Zr5 1.959793 1_555
O36 Si17 1.666345 1_555
O37 Si18 1.623668 1_555
O38 Si14 1.689388 1_555
O39 Si15 1.636128 1_555
O40 Si16 1.650417 1_555
O41 S4 1.465217 1_555
O42 Si11 1.640573 1_555
O43 Si12 1.683199 1_555
O44 S3 1.467844 1_555
O45 Si13 1.664644 1_555
O46 Si9 1.663262 1_555
O47 Si10 1.697867 1_555
O48 Si19 1.657072 1_555
O49 Si20 1.623063 1_555
O49 Zr6 2.102125 1_556
O50 Si21 1.655281 1_555
O51 S5 1.489786 1_555
O51 Zr6 2.161211 1_556
O52 S6 1.475330 1_555
O53 Si22 1.629969 1_555
O53 Zr6 1.976102 1_556
O54 Si23 1.609135 1_555
O54 Zr7 2.105280 1_555
O55 Si24 1.637266 1_555
O56 Si25 1.617850 1_555
O56 Zr7 2.006806 1_555
O57 S7 1.470268 1_555
O58 S8 1.463206 1_555
O58 Zr7 2.240728 1_555
O59 Si26 1.647988 1_555
O60 S8 1.485244 1_555
O60 Zr8 2.269746 1_555
O61 Si26 1.618143 1_555
O61 Zr9 2.080645 1_555
O62 Si23 1.637047 1_555
O62 Zr8 1.939615 1_555
O63 Si24 1.612162 1_555
O63 Zr9 2.031700 1_555
O64 Si25 1.632093 1_555
O64 Zr8 1.981109 1_555
O65 S7 1.458495 1_555
O65 Zr9 2.291695 1_555
O66 Si21 1.610984 1_555
O66 Zr10 2.101720 1_555
O67 S5 1.482976 1_555
O67 Zr11 2.276744 1_555
O68 S6 1.459164 1_555
O68 Zr10 2.300692 1_555
O69 Si22 1.621419 1_555
O69 Zr11 2.006573 1_555
O70 Si19 1.611936 1_555
O70 Zr10 2.028336 1_555
O71 Si20 1.608931 1_555
O71 Zr11 2.018742 1_555
O72 S8 1.502628 1_555
O73 Si26 1.662697 1_555
O74 Si23 1.643071 1_555
O75 Si24 1.669771 1_555
O76 Si25 1.661867 1_555
O77 S7 1.525040 1_555
O78 Si21 1.656615 1_555
O79 S5 1.467936 1_555
O80 S6 1.525732 1_555
O81 Si22 1.635675 1_555
O82 Si19 1.637139 1_555
O83 Si20 1.651030 1_555
O84 Si9 1.635979 1_555
O84 Zr0 2.198336 1_555
O85 Si10 1.636674 1_555
O86 Si11 1.657690 1_555
O87 Si12 1.603306 1_555
O87 Zr0 2.117887 1_555
O88 S3 1.486188 1_555
O88 Zr0 2.391203 1_565
O89 Si13 1.637818 1_555
O90 Si14 1.640670 1_555
O91 Si15 1.662033 1_555
O91 Zr1 2.047915 1_655
O92 Si16 1.641843 1_555
O93 S4 1.489965 1_555
O93 Zr1 2.316201 1_645
O94 Si17 1.620452 1_555
O94 Zr1 2.072097 1_545
O95 Si18 1.647081 1_555
O96 Si8 1.643770 1_545
O96 Zr2 2.048463 1_555
O97 S2 1.478054 1_545
O97 Zr3 2.420003 1_555
O98 Si4 1.602479 1_555
O98 Zr2 2.104465 1_555
O99 Si5 1.616505 1_555
O99 Zr3 2.079777 1_555
O100 Si7 1.621345 1_555
O100 Zr2 2.101354 1_555
O101 Si6 1.629188 1_555
O101 Zr3 2.144602 1_555
O102 S0 1.476331 1_555
O102 Zr4 2.421641 1_555
O103 Si2 1.658725 1_555
O103 Zr5 2.072012 1_555
O104 Si3 1.631555 1_555
O104 Zr4 2.136630 1_555
O105 S1 1.485399 1_655
O105 Zr5 2.345863 1_555
O106 Si0 1.602747 1_555
O106 Zr4 2.111598 1_555
O107 Si1 1.624241 1_555
O107 Zr5 2.081945 1_555
O108 Si19 1.673970 1_555
O109 Si20 1.666128 1_555
O110 S5 1.489209 1_555
O111 Si21 1.646041 1_655
O112 S6 1.481177 1_545
O113 Si22 1.647029 1_545
O114 Si23 1.646738 1_545
O115 Si24 1.668921 1_545
O116 Si25 1.626097 1_555
O117 S7 1.486193 1_555
O118 Si26 1.639399 1_555
O119 S8 1.477468 1_655
O120 Si17 1.650713 1_555
O121 Si18 1.614951 1_555
O121 Zr6 2.144860 1_555
O122 Si15 1.628186 1_455
O123 Si14 1.621181 1_555
O123 Zr6 2.063269 1_555
O124 Si16 1.630620 1_565
O125 S4 1.497802 1_565
O125 Zr6 2.261543 1_555
O126 Si11 1.626445 1_565
O126 Zr7 2.108240 1_555
O127 Si12 1.653786 1_565
O128 S3 1.509260 1_555
O128 Zr7 2.177646 1_555
O129 Si13 1.630588 1_555
O130 Si10 1.621719 1_455
O130 Zr7 2.046246 1_555
O131 Si9 1.649236 1_555
O132 Si0 1.647486 1_565
O132 Zr8 2.097243 1_555
O133 Si1 1.629952 1_565
O133 Zr9 2.074329 1_555
O134 S0 1.497702 1_555
O134 Zr8 2.154189 1_555
O135 Si2 1.597050 1_555
O135 Zr9 2.071610 1_555
O136 S1 1.492477 1_555
O136 Zr8 2.334723 1_555
O137 Si3 1.619023 1_555
O137 Zr9 2.146076 1_555
O138 Si4 1.632106 1_555
O138 Zr10 2.073942 1_555
O139 Si5 1.632175 1_555
O139 Zr11 2.092941 1_555
O140 Si6 1.615669 1_455
O140 Zr10 2.154894 1_555
O141 Si7 1.632454 1_555
O141 Zr11 2.097294 1_555
O142 Si8 1.610730 1_555
O142 Zr10 2.045667 1_555
O143 S2 1.483801 1_555
O143 Zr11 2.188070 1_555
