# generated using pymatgen
data_Na3Ti2Al2P5SO24
_symmetry_space_group_name_H-M   'P 1'
_cell_length_a   8.53264806
_cell_length_b   8.51559662
_cell_length_c   21.96048564
_cell_angle_alpha   90.16788349
_cell_angle_beta   89.95069536
_cell_angle_gamma   119.98070622
_symmetry_Int_Tables_number   1
_chemical_formula_structural   Na3Ti2Al2P5SO24
_chemical_formula_sum   'Na9 Ti6 Al6 P15 S3 O72'
_cell_volume   1382.14598625
_cell_formula_units_Z   3
loop_
 _symmetry_equiv_pos_site_id
 _symmetry_equiv_pos_as_xyz
  1  'x, y, z'
loop_
 _atom_site_type_symbol
 _atom_site_label
 _atom_site_symmetry_multiplicity
 _atom_site_fract_x
 _atom_site_fract_y
 _atom_site_fract_z
 _atom_site_occupancy
  Na  Na0  1  0.00059331  0.36461099  0.75062446  1
  Na  Na1  1  0.66701633  0.96823594  0.58334463  1
  Na  Na2  1  0.03247815  0.33342629  0.08329861  1
  Na  Na3  1  0.00457964  0.99821731  0.50047889  1
  Na  Na4  1  0.00188312  0.99617484  0.00014313  1
  Na  Na5  1  0.66199847  0.33095467  0.83400062  1
  Na  Na6  1  0.67028260  0.33441651  0.33328883  1
  Na  Na7  1  0.33855371  0.66986578  0.16730990  1
  Na  Na8  1  0.33344254  0.66716949  0.66676078  1
  Ti  Ti0  1  0.98313607  0.98947357  0.35379311  1
  Ti  Ti1  1  0.00868187  0.00553673  0.85315708  1
  Ti  Ti2  1  0.66165081  0.33389125  0.68603146  1
  Ti  Ti3  1  0.67290164  0.33942084  0.18597323  1
  Ti  Ti4  1  0.66537061  0.32597117  0.98042923  1
  Ti  Ti5  1  0.67355437  0.33429778  0.48022331  1
  Al  Al0  1  0.00399640  0.99844746  0.64786817  1
  Al  Al1  1  0.99453387  0.99707895  0.14734956  1
  Al  Al2  1  0.33081511  0.67044665  0.01947363  1
  Al  Al3  1  0.32906870  0.66955872  0.51937633  1
  Al  Al4  1  0.33068637  0.66545685  0.31393935  1
  Al  Al5  1  0.33343066  0.67437571  0.81363922  1
  P  P0  1  0.70529019  0.71285327  0.24819589  1
  P  P1  1  0.00625330  0.29184326  0.24908740  1
  P  P2  1  0.28929553  0.29145220  0.74882815  1
  P  P3  1  0.00434832  0.71677219  0.74905566  1
  P  P4  1  0.70642107  0.99069027  0.74922321  1
  P  P5  1  0.96649704  0.33780039  0.58381134  1
  P  P6  1  0.36871848  0.04060213  0.58272973  1
  P  P7  1  0.66593985  0.62593447  0.58279530  1
  P  P8  1  0.96031929  0.63247688  0.08267490  1
  P  P9  1  0.66118060  0.03395972  0.08387617  1
  P  P10  1  0.37473566  0.33345858  0.08343814  1
  P  P11  1  0.05129117  0.38510374  0.91674211  1
  P  P12  1  0.33282325  0.94741589  0.91696549  1
  P  P13  1  0.61130696  0.94720895  0.41665341  1
  P  P14  1  0.05334520  0.66764618  0.41623823  1
  S  S0  1  0.28578785  0.99683175  0.24948618  1
  S  S1  1  0.61626277  0.66683800  0.91675459  1
  S  S2  1  0.33304240  0.38288723  0.41670284  1
  O  O0  1  0.20774395  0.03167559  0.30491709  1
  O  O1  1  0.82883125  0.79593916  0.30599462  1
  O  O2  1  0.97073547  0.16880300  0.30586079  1
  O  O3  1  0.20468411  0.17133884  0.80623671  1
  O  O4  1  0.96712289  0.79798035  0.80663837  1
  O  O5  1  0.83258991  0.03522139  0.80550346  1
  O  O6  1  0.79479790  0.96726068  0.69153985  1
  O  O7  1  0.16578231  0.20453820  0.69376113  1
  O  O8  1  0.03351754  0.83214806  0.69301722  1
  O  O9  1  0.79896725  0.83139879  0.19345322  1
  O  O10  1  0.03359579  0.20439794  0.19184013  1
  O  O11  1  0.17493916  0.96746531  0.19502268  1
  O  O12  1  0.87599727  0.36785337  0.64059060  1
  O  O13  1  0.49743626  0.12783244  0.63866824  1
  O  O14  1  0.63339151  0.50405128  0.63922764  1
  O  O15  1  0.87325913  0.50324853  0.13868580  1
  O  O16  1  0.63240032  0.12822050  0.13951852  1
  O  O17  1  0.49678705  0.36611398  0.13972844  1
  O  O18  1  0.46396073  0.30057484  0.02701265  1
  O  O19  1  0.83742536  0.53837743  0.02706461  1
  O  O20  1  0.70358436  0.16330119  0.02791620  1
  O  O21  1  0.46297198  0.16285941  0.52695452  1
  O  O22  1  0.69907558  0.53587221  0.52686067  1
  O  O23  1  0.83644423  0.29671794  0.52825715  1
  O  O24  1  0.53784638  0.69763255  0.97180493  1
  O  O25  1  0.16398462  0.46482491  0.97464533  1
  O  O26  1  0.30182282  0.83482552  0.97383256  1
  O  O27  1  0.53650833  0.83625732  0.47513821  1
  O  O28  1  0.30221760  0.46182188  0.47183135  1
  O  O29  1  0.16527817  0.69837452  0.47363529  1
  O  O30  1  0.13388659  0.63378715  0.35917806  1
  O  O31  1  0.49938243  0.86358475  0.35957940  1
  O  O32  1  0.36497079  0.49261979  0.36162855  1
  O  O33  1  0.13306895  0.49646800  0.85856885  1
  O  O34  1  0.36735650  0.86792923  0.85956445  1
  O  O35  1  0.50646260  0.63521490  0.86139909  1
  O  O36  1  0.02789694  0.83615694  0.40875503  1
  O  O37  1  0.80752405  0.97577739  0.40990686  1
  O  O38  1  0.17247128  0.19851110  0.41012190  1
  O  O39  1  0.02354231  0.19055664  0.90971360  1
  O  O40  1  0.16539395  0.97360101  0.90966857  1
  O  O41  1  0.80017234  0.82834323  0.91067094  1
  O  O42  1  0.97301540  0.16157438  0.59151146  1
  O  O43  1  0.18523041  0.02513846  0.59193493  1
  O  O44  1  0.83431372  0.81402940  0.59152902  1
  O  O45  1  0.97704957  0.81640886  0.09289904  1
  O  O46  1  0.83736000  0.02715145  0.09136280  1
  O  O47  1  0.18623993  0.16485202  0.09219939  1
  O  O48  1  0.69369937  0.16709697  0.74283190  1
  O  O49  1  0.47666134  0.30819826  0.74294700  1
  O  O50  1  0.83511632  0.52288083  0.74300940  1
  O  O51  1  0.69028773  0.52369697  0.24257722  1
  O  O52  1  0.83240837  0.30710051  0.24263823  1
  O  O53  1  0.46826133  0.16058651  0.24355194  1
  O  O54  1  0.63893107  0.50510707  0.92258418  1
  O  O55  1  0.85827380  0.36034646  0.92378745  1
  O  O56  1  0.49982005  0.14258997  0.92418091  1
  O  O57  1  0.64028021  0.14188922  0.42373258  1
  O  O58  1  0.49489860  0.36087427  0.42272205  1
  O  O59  1  0.85820977  0.50080128  0.42414070  1
  O  O60  1  0.35451632  0.50186701  0.07463143  1
  O  O61  1  0.14326021  0.63935536  0.07542579  1
  O  O62  1  0.49432135  0.85035132  0.07398141  1
  O  O63  1  0.36107703  0.85675520  0.57528386  1
  O  O64  1  0.49726806  0.64503660  0.57460197  1
  O  O65  1  0.14974917  0.50572894  0.57401327  1
  O  O66  1  0.30677238  0.83560787  0.25689773  1
  O  O67  1  0.51897735  0.69151892  0.25947521  1
  O  O68  1  0.17164544  0.48037729  0.25889634  1
  O  O69  1  0.30713672  0.47840240  0.75918474  1
  O  O70  1  0.16721060  0.68698542  0.75769784  1
  O  O71  1  0.51930116  0.82607692  0.75876066  1
loop_
_geom_bond_atom_site_label_1
_geom_bond_atom_site_label_2
_geom_bond_distance
_geom_bond_site_symmetry_2
Na0 O69 2.298373 1_555
Na0 O48 2.304923 1_455
Na0 O70 2.383030 1_555
Na0 O50 2.396174 1_455
Na0 O33 2.622662 1_555
Na0 O12 2.646534 1_455
Na0 O7 2.703946 1_555
Na0 O5 2.715397 1_455
Na1 O42 2.294098 1_565
Na1 O63 2.295689 1_555
Na1 O44 2.381108 1_555
Na1 O64 2.392257 1_555
Na1 O6 2.616859 1_555
Na1 O27 2.624481 1_555
Na1 O23 2.711681 1_565
Na1 O13 2.714679 1_565
Na2 O61 2.291624 1_555
Na2 O46 2.295207 1_455
Na2 O47 2.388430 1_555
Na2 O60 2.388691 1_555
Na2 O10 2.629615 1_555
Na2 O25 2.638316 1_554
Na2 O15 2.714189 1_455
Na2 O20 2.717689 1_455
Na3 O43 2.472200 1_565
Na3 O36 2.501786 1_555
Na3 O44 2.510938 1_455
Na3 O42 2.522170 1_465
Na3 O38 2.543956 1_565
Na3 O37 2.549942 1_455
Na4 O40 2.488402 1_554
Na4 O45 2.496170 1_455
Na4 O47 2.520879 1_565
Na4 O41 2.529127 1_454
Na4 O46 2.532857 1_465
Na4 O39 2.535883 1_564
Na5 O56 2.491059 1_555
Na5 O49 2.496729 1_555
Na5 O54 2.509295 1_555
Na5 O55 2.517765 1_555
Na5 O48 2.527549 1_555
Na5 O50 2.539142 1_555
Na6 O52 2.498991 1_555
Na6 O59 2.505534 1_555
Na6 O57 2.509410 1_555
Na6 O51 2.517689 1_555
Na6 O58 2.544964 1_555
Na6 O53 2.546509 1_555
Na7 O67 2.494006 1_555
Na7 O66 2.510284 1_555
Na7 O62 2.510285 1_555
Na7 O60 2.526796 1_555
Na7 O68 2.528760 1_555
Na7 O61 2.546745 1_555
Na8 O70 2.502156 1_555
Na8 O71 2.504541 1_555
Na8 O65 2.516091 1_555
Na8 O63 2.517007 1_555
Na8 O64 2.518280 1_555
Na8 O69 2.532122 1_555
Al0 O8 1.848547 1_555
Al0 O7 1.890007 1_565
Al0 O43 1.897075 1_565
Al0 O6 1.923893 1_455
Al0 O44 1.952572 1_455
Al0 O42 1.977091 1_465
Al1 O9 1.858145 1_555
Al1 O45 1.891892 1_555
Al1 O10 1.893370 1_665
Al1 O46 1.929699 1_565
Al1 O47 1.963361 1_665
Al1 O11 1.980272 1_655
Al2 O26 1.838457 1_554
Al2 O25 1.887512 1_554
Al2 O62 1.892698 1_555
Al2 O61 1.927704 1_555
Al2 O24 1.964579 1_554
Al2 O60 1.967158 1_555
Al3 O29 1.835489 1_555
Al3 O27 1.893623 1_555
Al3 O65 1.897465 1_555
Al3 O63 1.917574 1_555
Al3 O28 1.963812 1_555
Al3 O64 1.969316 1_555
Al4 O30 1.850835 1_555
Al4 O31 1.867751 1_555
Al4 O68 1.908084 1_555
Al4 O67 1.924301 1_555
Al4 O32 1.946398 1_555
Al4 O66 2.004190 1_555
Al5 O34 1.825242 1_555
Al5 O71 1.895983 1_555
Al5 O33 1.899692 1_555
Al5 O70 1.920492 1_555
Al5 O69 1.969759 1_555
Al5 O35 1.971763 1_555
O0 S0 1.485681 1_545
O0 Ti0 2.065082 1_445
O1 P0 1.573064 1_555
O1 Ti0 1.837134 1_555
O2 P1 1.560046 1_655
O2 Ti0 1.903240 1_545
O3 P2 1.557180 1_555
O3 Ti1 1.870243 1_555
O4 P3 1.546575 1_655
O4 Ti1 1.912314 1_665
O5 P4 1.556234 1_545
O5 Ti1 1.949487 1_655
O6 P4 1.536348 1_555
O7 P2 1.529141 1_555
O8 P3 1.517848 1_555
O9 P0 1.517308 1_555
O10 P1 1.535274 1_555
O11 S0 1.466787 1_555
O12 P5 1.552588 1_555
O12 Ti2 1.973423 1_555
O13 P6 1.564838 1_555
O13 Ti2 1.912788 1_555
O14 P7 1.552116 1_555
O14 Ti2 1.890126 1_555
O15 P8 1.570083 1_555
O15 Ti3 1.889216 1_555
O16 P9 1.545468 1_555
O16 Ti3 1.939961 1_555
O17 P10 1.549437 1_555
O17 Ti3 1.920044 1_555
O18 P10 1.550125 1_555
O18 Ti4 1.916653 1_554
O19 P8 1.545892 1_555
O19 Ti4 1.952849 1_554
O20 P9 1.569439 1_555
O20 Ti4 1.890280 1_554
O21 P6 1.549164 1_555
O21 Ti5 1.948592 1_555
O22 P7 1.545176 1_555
O22 Ti5 1.912937 1_555
O23 P5 1.566538 1_555
O23 Ti5 1.896288 1_555
O24 S1 1.466317 1_555
O25 P11 1.532010 1_555
O26 P12 1.517160 1_555
O27 P13 1.533828 1_555
O28 S2 1.469028 1_555
O29 P14 1.523090 1_555
O30 P14 1.523167 1_555
O31 P13 1.518962 1_555
O32 S2 1.470311 1_555
O33 P11 1.537041 1_555
O34 P12 1.525673 1_555
O35 S1 1.475104 1_555
O36 P14 1.564016 1_555
O36 Ti0 1.953361 1_455
O37 P13 1.573838 1_555
O37 Ti0 1.897483 1_555
O38 S2 1.487378 1_555
O38 Ti0 2.103628 1_445
O39 P11 1.559175 1_555
O39 Ti1 1.957084 1_555
O40 P12 1.560549 1_555
O40 Ti1 1.941746 1_565
O41 S1 1.488496 1_555
O41 Ti1 2.088468 1_665
O42 P5 1.539031 1_555
O43 P6 1.517562 1_555
O44 P7 1.537930 1_555
O45 P8 1.516110 1_555
O46 P9 1.542018 1_555
O47 P10 1.542241 1_555
O48 P4 1.565996 1_545
O48 Ti2 2.011779 1_555
O49 P2 1.537805 1_555
O49 Ti2 1.937696 1_555
O50 P3 1.563695 1_655
O50 Ti2 1.989267 1_555
O51 P0 1.555315 1_555
O51 Ti3 1.945731 1_555
O52 P1 1.558964 1_655
O52 Ti3 1.963647 1_555
O53 S0 1.488805 1_545
O53 Ti3 2.077706 1_555
O54 S1 1.489256 1_555
O54 Ti4 2.085031 1_555
O55 P11 1.559989 1_655
O55 Ti4 1.964493 1_555
O56 P12 1.565187 1_545
O56 Ti4 1.935692 1_555
O57 P13 1.556470 1_545
O57 Ti5 1.956522 1_555
O58 S2 1.489677 1_555
O58 Ti5 2.078309 1_555
O59 P14 1.567716 1_655
O59 Ti5 1.945230 1_555
O60 P10 1.540377 1_555
O61 P8 1.540665 1_455
O62 P9 1.514160 1_565
O63 P6 1.542234 1_565
O64 P7 1.537782 1_555
O65 P5 1.517459 1_455
O66 S0 1.480032 1_555
O67 P0 1.527278 1_555
O68 P1 1.532859 1_555
O69 P2 1.537878 1_555
O70 P3 1.544180 1_555
O71 P4 1.523945 1_555
