# generated using pymatgen
data_BaU2O7
_symmetry_space_group_name_H-M   'P 1'
_cell_length_a   7.84426004
_cell_length_b   7.84426004
_cell_length_c   7.84426004
_cell_angle_alpha   125.68624552
_cell_angle_beta   125.68624552
_cell_angle_gamma   80.40443122
_symmetry_Int_Tables_number   1
_chemical_formula_structural   BaU2O7
_chemical_formula_sum   'Ba2 U4 O14'
_cell_volume   307.20228778
_cell_formula_units_Z   2
loop_
 _symmetry_equiv_pos_site_id
 _symmetry_equiv_pos_as_xyz
  1  'x, y, z'
loop_
 _atom_site_type_symbol
 _atom_site_label
 _atom_site_symmetry_multiplicity
 _atom_site_fract_x
 _atom_site_fract_y
 _atom_site_fract_z
 _atom_site_occupancy
  Ba  Ba0  1  -0.00000000  -0.00000000  -0.00000000  1
  Ba  Ba1  1  0.75000000  0.25000000  0.50000000  1
  U  U0  1  0.87500000  0.62500000  0.25000000  1
  U  U1  1  0.37500000  0.62500000  0.25000000  1
  U  U2  1  0.37500000  0.12500000  0.75000000  1
  U  U3  1  0.37500000  0.62500000  0.75000000  1
  O  O0  1  0.25000000  0.75000000  0.50000000  1
  O  O1  1  0.50000000  0.50000000  -0.00000000  1
  O  O2  1  0.72048137  0.72048137  0.00000000  1
  O  O3  1  0.47048137  0.97048137  0.50000000  1
  O  O4  1  0.02951863  0.52951863  0.50000000  1
  O  O5  1  0.27951863  0.27951863  -0.00000000  1
  O  O6  1  0.87500000  0.36234151  0.98734151  1
  O  O7  1  0.11234151  0.62500000  0.98734151  1
  O  O8  1  0.63765849  0.12500000  0.01265849  1
  O  O9  1  0.37500000  0.88765849  0.01265849  1
  O  O10  1  0.87500000  0.88765849  0.51265849  1
  O  O11  1  0.63765849  0.62500000  0.51265849  1
  O  O12  1  0.11234151  0.12500000  0.48734151  1
  O  O13  1  0.37500000  0.36234151  0.48734151  1
loop_
_geom_bond_atom_site_label_1
_geom_bond_atom_site_label_2
_geom_bond_distance
_geom_bond_site_symmetry_2
Ba0 O11 2.887305 1_444
Ba0 O13 2.887305 1_555
Ba0 O10 2.887305 1_444
Ba0 O6 2.887305 1_454
Ba0 O12 2.887305 1_555
Ba0 O8 2.887305 1_455
Ba0 O9 2.887305 1_545
Ba0 O7 2.887305 1_544
Ba1 O8 2.887305 1_555
Ba1 O11 2.887305 1_555
Ba1 O12 2.887305 1_655
Ba1 O13 2.887305 1_555
Ba1 O7 2.887305 1_655
Ba1 O9 2.887305 1_545
Ba1 O10 2.887305 1_545
Ba1 O6 2.887305 1_555
O0 U3 2.334124 1_555
O0 U2 2.334124 1_565
O0 U1 2.334124 1_555
O0 U0 2.334124 1_455
O1 U0 2.334124 1_555
O1 U1 2.334124 1_555
O1 U3 2.334124 1_554
O1 U2 2.334124 1_554
O2 U3 2.124542 1_554
O2 U0 2.124542 1_555
O3 U1 2.124542 1_555
O3 U2 2.124542 1_565
O4 U3 2.124542 1_555
O4 U0 2.124542 1_455
O5 U1 2.124542 1_555
O5 U2 2.124542 1_554
O6 U0 1.880815 1_556
O7 U1 1.880815 1_556
O8 U2 1.880815 1_554
O9 U3 1.880815 1_554
O10 U0 1.880815 1_555
O11 U1 1.880815 1_555
O12 U2 1.880815 1_555
O13 U3 1.880815 1_555
