# generated using pymatgen
data_Ba(PN2)2
_symmetry_space_group_name_H-M   'P 1'
_cell_length_a   10.26982667
_cell_length_b   10.26982667
_cell_length_c   10.26982667
_cell_angle_alpha   90.00000000
_cell_angle_beta   90.00000000
_cell_angle_gamma   90.00000000
_symmetry_Int_Tables_number   1
_chemical_formula_structural   Ba(PN2)2
_chemical_formula_sum   'Ba12 P24 N48'
_cell_volume   1083.15183907
_cell_formula_units_Z   12
loop_
 _symmetry_equiv_pos_site_id
 _symmetry_equiv_pos_as_xyz
  1  'x, y, z'
loop_
 _atom_site_type_symbol
 _atom_site_label
 _atom_site_symmetry_multiplicity
 _atom_site_fract_x
 _atom_site_fract_y
 _atom_site_fract_z
 _atom_site_occupancy
  Ba  Ba0  1  0.36787136  0.13212864  0.86787136  1
  Ba  Ba1  1  0.13212864  0.86787136  0.36787136  1
  Ba  Ba2  1  0.86787136  0.36787136  0.13212864  1
  Ba  Ba3  1  0.63212864  0.63212864  0.63212864  1
  Ba  Ba4  1  0.63212864  0.86787136  0.13212864  1
  Ba  Ba5  1  0.86787136  0.13212864  0.63212864  1
  Ba  Ba6  1  0.13212864  0.63212864  0.86787136  1
  Ba  Ba7  1  0.36787136  0.36787136  0.36787136  1
  Ba  Ba8  1  -0.00000000  0.50000000  0.50000000  1
  Ba  Ba9  1  0.50000000  0.50000000  0.00000000  1
  Ba  Ba10  1  0.50000000  -0.00000000  0.50000000  1
  Ba  Ba11  1  -0.00000000  -0.00000000  0.00000000  1
  P  P0  1  0.68464908  0.33356907  0.39235890  1
  P  P1  1  0.18464908  0.16643093  0.60764110  1
  P  P2  1  0.31535092  0.83356907  0.10764110  1
  P  P3  1  0.16643093  0.60764110  0.18464908  1
  P  P4  1  0.10764110  0.31535092  0.83356907  1
  P  P5  1  0.60764110  0.18464908  0.16643093  1
  P  P6  1  0.33356907  0.39235890  0.68464908  1
  P  P7  1  0.39235890  0.68464908  0.33356907  1
  P  P8  1  0.83356907  0.10764110  0.31535092  1
  P  P9  1  0.66643093  0.89235890  0.81535092  1
  P  P10  1  0.89235890  0.81535092  0.66643093  1
  P  P11  1  0.81535092  0.66643093  0.89235890  1
  P  P12  1  0.31535092  0.66643093  0.60764110  1
  P  P13  1  0.81535092  0.83356907  0.39235890  1
  P  P14  1  0.68464908  0.16643093  0.89235890  1
  P  P15  1  0.83356907  0.39235890  0.81535092  1
  P  P16  1  0.89235890  0.68464908  0.16643093  1
  P  P17  1  0.39235890  0.81535092  0.83356907  1
  P  P18  1  0.66643093  0.60764110  0.31535092  1
  P  P19  1  0.60764110  0.31535092  0.66643093  1
  P  P20  1  0.16643093  0.89235890  0.68464908  1
  P  P21  1  0.33356907  0.10764110  0.18464908  1
  P  P22  1  0.10764110  0.18464908  0.33356907  1
  P  P23  1  0.18464908  0.33356907  0.10764110  1
  N  N0  1  0.71924643  0.48867531  0.40780322  1
  N  N1  1  0.21924643  0.01132469  0.59219678  1
  N  N2  1  0.28075357  0.98867531  0.09219678  1
  N  N3  1  0.01132469  0.59219678  0.21924643  1
  N  N4  1  0.09219678  0.28075357  0.98867531  1
  N  N5  1  0.59219678  0.21924643  0.01132469  1
  N  N6  1  0.48867531  0.40780322  0.71924643  1
  N  N7  1  0.40780322  0.71924643  0.48867531  1
  N  N8  1  0.98867531  0.09219678  0.28075357  1
  N  N9  1  0.51132469  0.90780322  0.78075357  1
  N  N10  1  0.90780322  0.78075357  0.51132469  1
  N  N11  1  0.78075357  0.51132469  0.90780322  1
  N  N12  1  0.28075357  0.51132469  0.59219678  1
  N  N13  1  0.78075357  0.98867531  0.40780322  1
  N  N14  1  0.71924643  0.01132469  0.90780322  1
  N  N15  1  0.98867531  0.40780322  0.78075357  1
  N  N16  1  0.90780322  0.71924643  0.01132469  1
  N  N17  1  0.40780322  0.78075357  0.98867531  1
  N  N18  1  0.51132469  0.59219678  0.28075357  1
  N  N19  1  0.59219678  0.28075357  0.51132469  1
  N  N20  1  0.18086618  0.75083629  0.61110842  1
  N  N21  1  0.01132469  0.90780322  0.71924643  1
  N  N22  1  0.09219678  0.21924643  0.48867531  1
  N  N23  1  0.21924643  0.48867531  0.09219678  1
  N  N24  1  0.81913382  0.24916371  0.38889158  1
  N  N25  1  0.31913382  0.25083629  0.61110842  1
  N  N26  1  0.18086618  0.74916371  0.11110842  1
  N  N27  1  0.25083629  0.61110842  0.31913382  1
  N  N28  1  0.11110842  0.18086618  0.74916371  1
  N  N29  1  0.61110842  0.31913382  0.25083629  1
  N  N30  1  0.24916371  0.38889158  0.81913382  1
  N  N31  1  0.38889158  0.81913382  0.24916371  1
  N  N32  1  0.74916371  0.11110842  0.18086618  1
  N  N33  1  0.75083629  0.88889158  0.68086618  1
  N  N34  1  0.88889158  0.68086618  0.75083629  1
  N  N35  1  0.68086618  0.75083629  0.88889158  1
  N  N36  1  0.31913382  0.24916371  0.11110842  1
  N  N37  1  0.11110842  0.31913382  0.24916371  1
  N  N38  1  0.24916371  0.11110842  0.31913382  1
  N  N39  1  0.25083629  0.88889158  0.81913382  1
  N  N40  1  0.61110842  0.18086618  0.75083629  1
  N  N41  1  0.75083629  0.61110842  0.18086618  1
  N  N42  1  0.38889158  0.68086618  0.74916371  1
  N  N43  1  0.88889158  0.81913382  0.25083629  1
  N  N44  1  0.74916371  0.38889158  0.68086618  1
  N  N45  1  0.81913382  0.25083629  0.88889158  1
  N  N46  1  0.68086618  0.74916371  0.38889158  1
  N  N47  1  0.48867531  0.09219678  0.21924643  1
loop_
_geom_bond_atom_site_label_1
_geom_bond_atom_site_label_2
_geom_bond_distance
_geom_bond_site_symmetry_2
Ba0 N39 2.816945 1_545
Ba0 N40 2.816945 1_555
Ba0 N36 2.816945 1_556
Ba0 N5 2.877206 1_556
Ba0 N9 2.877206 1_545
Ba0 N2 2.877206 1_546
Ba0 N25 2.947889 1_555
Ba0 N30 2.947889 1_555
Ba0 N28 2.947889 1_555
Ba1 N43 2.816945 1_455
Ba1 N20 2.816945 1_555
Ba1 N38 2.816945 1_565
Ba1 N1 2.877206 1_565
Ba1 N10 2.877206 1_455
Ba1 N8 2.877206 1_465
Ba1 N31 2.947889 1_555
Ba1 N26 2.947889 1_555
Ba1 N27 2.947889 1_555
Ba2 N45 2.816945 1_554
Ba2 N41 2.816945 1_555
Ba2 N37 2.816945 1_655
Ba2 N3 2.877206 1_655
Ba2 N11 2.877206 1_554
Ba2 N4 2.877206 1_654
Ba2 N32 2.947889 1_555
Ba2 N24 2.947889 1_555
Ba2 N29 2.947889 1_555
Ba3 N42 2.816945 1_555
Ba3 N46 2.816945 1_555
Ba3 N44 2.816945 1_555
Ba3 N0 2.877206 1_555
Ba3 N7 2.877206 1_555
Ba3 N6 2.877206 1_555
Ba3 N35 2.947889 1_555
Ba3 N33 2.947889 1_555
Ba3 N34 2.947889 1_555
Ba4 N35 2.816945 1_554
Ba4 N31 2.816945 1_555
Ba4 N32 2.816945 1_565
Ba4 N14 2.877206 1_564
Ba4 N17 2.877206 1_554
Ba4 N47 2.877206 1_565
Ba4 N41 2.947889 1_555
Ba4 N43 2.947889 1_555
Ba4 N46 2.947889 1_555
Ba5 N33 2.816945 1_545
Ba5 N24 2.816945 1_555
Ba5 N28 2.816945 1_655
Ba5 N21 2.877206 1_645
Ba5 N13 2.877206 1_545
Ba5 N22 2.877206 1_655
Ba5 N40 2.947889 1_555
Ba5 N44 2.947889 1_555
Ba5 N45 2.947889 1_555
Ba6 N34 2.816945 1_455
Ba6 N30 2.816945 1_555
Ba6 N26 2.816945 1_556
Ba6 N16 2.877206 1_456
Ba6 N15 2.877206 1_455
Ba6 N23 2.877206 1_556
Ba6 N20 2.947889 1_555
Ba6 N39 2.947889 1_555
Ba6 N42 2.947889 1_555
Ba7 N29 2.816945 1_555
Ba7 N25 2.816945 1_555
Ba7 N27 2.816945 1_555
Ba7 N18 2.877206 1_555
Ba7 N12 2.877206 1_555
Ba7 N19 2.877206 1_555
Ba7 N38 2.947889 1_555
Ba7 N36 2.947889 1_555
Ba7 N37 2.947889 1_555
Ba8 N0 3.037006 1_455
Ba8 N10 3.037006 1_455
Ba8 N22 3.037006 1_555
Ba8 N3 3.037006 1_555
Ba8 N12 3.037006 1_555
Ba8 N15 3.037006 1_455
Ba8 N34 3.374642 1_455
Ba8 N24 3.374642 1_455
Ba8 N37 3.374642 1_555
Ba8 N44 3.374642 1_455
Ba8 N20 3.374642 1_555
Ba8 N27 3.374642 1_555
Ba9 N5 3.037006 1_555
Ba9 N18 3.037006 1_555
Ba9 N11 3.037006 1_554
Ba9 N17 3.037006 1_554
Ba9 N23 3.037006 1_555
Ba9 N6 3.037006 1_554
Ba9 N35 3.374642 1_554
Ba9 N30 3.374642 1_554
Ba9 N42 3.374642 1_554
Ba9 N36 3.374642 1_555
Ba9 N29 3.374642 1_555
Ba9 N41 3.374642 1_555
Ba10 N47 3.037006 1_555
Ba10 N9 3.037006 1_545
Ba10 N13 3.037006 1_545
Ba10 N19 3.037006 1_555
Ba10 N7 3.037006 1_545
Ba10 N1 3.037006 1_555
Ba10 N40 3.374642 1_555
Ba10 N38 3.374642 1_555
Ba10 N33 3.374642 1_545
Ba10 N31 3.374642 1_545
Ba10 N46 3.374642 1_545
Ba10 N25 3.374642 1_555
Ba11 N21 3.037006 1_544
Ba11 N14 3.037006 1_454
Ba11 N2 3.037006 1_545
Ba11 N4 3.037006 1_554
Ba11 N16 3.037006 1_445
Ba11 N8 3.037006 1_455
Ba11 N26 3.374642 1_545
Ba11 N28 3.374642 1_554
Ba11 N32 3.374642 1_455
Ba11 N43 3.374642 1_445
Ba11 N39 3.374642 1_544
Ba11 N45 3.374642 1_454
N0 P18 1.639631 1_555
N0 P0 1.639749 1_555
N1 P20 1.639631 1_545
N1 P1 1.639749 1_555
N2 P21 1.639631 1_565
N2 P2 1.639749 1_555
N3 P16 1.639631 1_455
N3 P3 1.639749 1_555
N4 P23 1.639631 1_556
N4 P4 1.639749 1_555
N5 P14 1.639631 1_554
N5 P5 1.639749 1_555
N6 P19 1.639631 1_555
N6 P6 1.639749 1_555
N7 P12 1.639631 1_555
N7 P7 1.639749 1_555
N8 P22 1.639631 1_655
N8 P8 1.639749 1_555
N9 P17 1.639631 1_555
N9 P9 1.639749 1_555
N10 P13 1.639631 1_555
N10 P10 1.639749 1_555
N11 P15 1.639631 1_555
N11 P11 1.639749 1_555
N12 P6 1.639631 1_555
N12 P12 1.639749 1_555
N13 P8 1.639631 1_565
N13 P13 1.639749 1_555
N14 P9 1.639631 1_545
N14 P14 1.639749 1_555
N15 P4 1.639631 1_655
N15 P15 1.639749 1_555
N16 P11 1.639631 1_554
N16 P16 1.639749 1_555
N17 P2 1.639631 1_556
N17 P17 1.639749 1_555
N18 P7 1.639631 1_555
N18 P18 1.639749 1_555
N19 P0 1.639631 1_555
N19 P19 1.639749 1_555
N20 P12 1.631010 1_555
N20 P20 1.644624 1_555
N21 P10 1.639631 1_455
N21 P20 1.639749 1_555
N22 P1 1.639631 1_555
N22 P22 1.639749 1_555
N23 P3 1.639631 1_555
N23 P23 1.639749 1_555
N24 P0 1.631010 1_555
N24 P8 1.644624 1_555
N25 P1 1.631010 1_555
N25 P6 1.644624 1_555
N26 P2 1.631010 1_555
N26 P3 1.644624 1_555
N27 P3 1.631010 1_555
N27 P7 1.644624 1_555
N28 P4 1.631010 1_555
N28 P1 1.644624 1_555
N29 P5 1.631010 1_555
N29 P0 1.644624 1_555
N30 P6 1.631010 1_555
N30 P4 1.644624 1_555
N31 P7 1.631010 1_555
N31 P2 1.644624 1_555
N32 P8 1.631010 1_555
N32 P5 1.644624 1_555
N33 P9 1.631010 1_555
N33 P10 1.644624 1_555
N34 P10 1.631010 1_555
N34 P11 1.644624 1_555
N35 P11 1.631010 1_555
N35 P9 1.644624 1_555
N36 P23 1.631010 1_555
N36 P21 1.644624 1_555
N37 P22 1.631010 1_555
N37 P23 1.644624 1_555
N38 P21 1.631010 1_555
N38 P22 1.644624 1_555
N39 P20 1.631010 1_555
N39 P17 1.644624 1_555
N40 P19 1.631010 1_555
N40 P14 1.644624 1_555
N41 P18 1.631010 1_555
N41 P16 1.644624 1_555
N42 P17 1.631010 1_555
N42 P12 1.644624 1_555
N43 P16 1.631010 1_555
N43 P13 1.644624 1_555
N44 P15 1.631010 1_555
N44 P19 1.644624 1_555
N45 P14 1.631010 1_555
N45 P15 1.644624 1_555
N46 P13 1.631010 1_555
N46 P18 1.644624 1_555
N47 P5 1.639631 1_555
N47 P21 1.639749 1_555
