# generated using pymatgen
data_Na14Mg5Si6Ge3(SO8)6
_symmetry_space_group_name_H-M   'P 1'
_cell_length_a   18.11698754
_cell_length_b   9.00581784
_cell_length_c   21.90241315
_cell_angle_alpha   90.20326627
_cell_angle_beta   89.32238435
_cell_angle_gamma   120.30224480
_symmetry_Int_Tables_number   1
_chemical_formula_structural   Na14Mg5Si6Ge3(SO8)6
_chemical_formula_sum   'Na42 Mg15 Si18 Ge9 S18 O144'
_cell_volume   3085.09750984
_cell_formula_units_Z   3
loop_
 _symmetry_equiv_pos_site_id
 _symmetry_equiv_pos_as_xyz
  1  'x, y, z'
loop_
 _atom_site_type_symbol
 _atom_site_label
 _atom_site_symmetry_multiplicity
 _atom_site_fract_x
 _atom_site_fract_y
 _atom_site_fract_z
 _atom_site_occupancy
  Na  Na0  1  0.19474366  0.36445951  0.24955919  1
  Na  Na1  1  0.68841306  0.35633008  0.24550819  1
  Na  Na2  1  0.99839606  0.64139169  0.25520071  1
  Na  Na3  1  0.49600258  0.62815238  0.24218603  1
  Na  Na4  1  0.32231699  0.64063665  0.74620981  1
  Na  Na5  1  0.82235147  0.64010045  0.73317229  1
  Na  Na6  1  0.18968128  0.02781827  0.74548779  1
  Na  Na7  1  0.69186614  0.02535122  0.74780342  1
  Na  Na8  1  0.15375436  0.32705730  0.57483918  1
  Na  Na9  1  0.66818702  0.35164767  0.57775353  1
  Na  Na10  1  0.00762438  0.69317643  0.57981125  1
  Na  Na11  1  0.51070846  0.69195418  0.58411301  1
  Na  Na12  1  0.32235257  0.97119280  0.59590768  1
  Na  Na13  1  0.82192765  0.96348212  0.59556073  1
  Na  Na14  1  0.15489247  0.97364607  0.07881133  1
  Na  Na15  1  0.64987932  0.96062424  0.06793594  1
  Na  Na16  1  0.82122174  0.67492391  0.09473925  1
  Na  Na17  1  0.01326066  0.33205223  0.08281633  1
  Na  Na18  1  0.51625011  0.34392058  0.09319822  1
  Na  Na19  1  0.48816699  0.66705080  0.92571120  1
  Na  Na20  1  0.99273931  0.67814200  0.91712140  1
  Na  Na21  1  0.84711651  0.03427466  0.90494218  1
  Na  Na22  1  0.16532213  0.28579209  0.90594198  1
  Na  Na23  1  0.66208167  0.27246699  0.91467173  1
  Na  Na24  1  0.49191009  0.31306184  0.41907499  1
  Na  Na25  1  0.98726437  0.30283642  0.42354959  1
  Na  Na26  1  0.16305005  0.05493150  0.41508304  1
  Na  Na27  1  0.66487011  0.05424139  0.41461751  1
  Na  Na28  1  0.35200314  0.65996835  0.40336512  1
  Na  Na29  1  0.85097349  0.66259663  0.41678928  1
  Na  Na30  1  0.00573124  0.99881535  0.50224165  1
  Na  Na31  1  0.51629964  0.02356372  0.50031848  1
  Na  Na32  1  0.00827588  0.00393700  0.99861154  1
  Na  Na33  1  0.49730016  0.99506262  0.00058315  1
  Na  Na34  1  0.33915430  0.30615583  0.83113660  1
  Na  Na35  1  0.83010773  0.31701718  0.82590908  1
  Na  Na36  1  0.32577741  0.32547750  0.32528448  1
  Na  Na37  1  0.81992628  0.32182098  0.32713769  1
  Na  Na38  1  0.19060497  0.67905404  0.16170882  1
  Na  Na39  1  0.66201124  0.66695463  0.16190930  1
  Na  Na40  1  0.15726909  0.66312354  0.66602705  1
  Na  Na41  1  0.66900068  0.66760439  0.66303783  1
  Mg  Mg0  1  0.00502766  0.00578165  0.34944625  1
  Mg  Mg1  1  0.50671519  0.00786862  0.34760318  1
  Mg  Mg2  1  0.00548922  0.00870716  0.84829365  1
  Mg  Mg3  1  0.50203197  0.00428799  0.85268468  1
  Mg  Mg4  1  0.32835268  0.31758035  0.68622243  1
  Mg  Mg5  1  0.82628718  0.32427958  0.68449915  1
  Mg  Mg6  1  0.32853726  0.33447660  0.18645529  1
  Mg  Mg7  1  0.82581788  0.32872374  0.18528244  1
  Mg  Mg8  1  0.81323925  0.30220206  0.98194675  1
  Mg  Mg9  1  0.31659216  0.32437156  0.48031600  1
  Mg  Mg10  1  0.81635184  0.34483314  0.48696348  1
  Mg  Mg11  1  0.16983049  0.66461477  0.01882447  1
  Mg  Mg12  1  0.65836074  0.65653538  0.01925133  1
  Mg  Mg13  1  0.16310381  0.66562226  0.51828393  1
  Mg  Mg14  1  0.66889947  0.66712671  0.52126022  1
  Si  Si0  1  0.15455227  0.99300506  0.25656404  1
  Si  Si1  1  0.65255846  0.98818793  0.25485949  1
  Si  Si2  1  0.36073076  0.72149345  0.25259272  1
  Si  Si3  1  0.85875887  0.71614767  0.25153137  1
  Si  Si4  1  0.14613735  0.30676262  0.75240336  1
  Si  Si5  1  0.64992450  0.30959353  0.75922960  1
  Si  Si6  1  0.35990088  0.00628298  0.75273446  1
  Si  Si7  1  0.85902842  0.00898419  0.75501993  1
  Si  Si8  1  0.17930045  0.02859006  0.58541185  1
  Si  Si9  1  0.67605136  0.03231806  0.58702915  1
  Si  Si10  1  0.84003663  0.64649795  0.58570801  1
  Si  Si11  1  0.47048503  0.61050122  0.08305086  1
  Si  Si12  1  0.18003685  0.32850772  0.09110794  1
  Si  Si13  1  0.67647249  0.31932228  0.08708774  1
  Si  Si14  1  0.17103596  0.96001730  0.92044061  1
  Si  Si15  1  0.66536233  0.95360454  0.91529758  1
  Si  Si16  1  0.16540903  0.38070019  0.41531526  1
  Si  Si17  1  0.66510709  0.37980946  0.41527297  1
  Ge  Ge0  1  0.00170394  0.01306288  0.65188469  1
  Ge  Ge1  1  0.51335092  0.03805026  0.66138598  1
  Ge  Ge2  1  0.01444012  0.99548961  0.16057534  1
  Ge  Ge3  1  0.50939845  0.95343497  0.14984770  1
  Ge  Ge4  1  0.31631380  0.30858451  0.99132645  1
  Ge  Ge5  1  0.18957967  0.69118948  0.30948910  1
  Ge  Ge6  1  0.68463295  0.67780881  0.30629600  1
  Ge  Ge7  1  0.18080917  0.69167579  0.80923036  1
  Ge  Ge8  1  0.67921856  0.68395847  0.80952477  1
  S  S0  1  0.00240810  0.29285161  0.24891950  1
  S  S1  1  0.50167251  0.29689963  0.25216464  1
  S  S2  1  0.00524375  0.70802852  0.75268328  1
  S  S3  1  0.50334938  0.70950590  0.75002292  1
  S  S4  1  0.47578405  0.32726642  0.58243911  1
  S  S5  1  0.97729281  0.33002966  0.58273105  1
  S  S6  1  0.33559187  0.63360768  0.58138363  1
  S  S7  1  0.97867504  0.62636978  0.08314154  1
  S  S8  1  0.33251607  0.04269597  0.08300321  1
  S  S9  1  0.83900979  0.04331972  0.08115942  1
  S  S10  1  0.31221629  0.66263406  0.91459340  1
  S  S11  1  0.81460770  0.66436480  0.91858784  1
  S  S12  1  0.02111919  0.38140419  0.91832040  1
  S  S13  1  0.51703578  0.37351797  0.91686025  1
  S  S14  1  0.31321904  0.96408868  0.41800283  1
  S  S15  1  0.81220287  0.96260314  0.41569297  1
  S  S16  1  0.01912390  0.66104567  0.41573852  1
  S  S17  1  0.51787227  0.66063350  0.41918869  1
  O  O0  1  0.10858551  0.02619605  0.31313760  1
  O  O1  1  0.60917421  0.02276484  0.31273257  1
  O  O2  1  0.40655178  0.80899714  0.31492649  1
  O  O3  1  0.90965403  0.80657156  0.31177434  1
  O  O4  1  0.49592018  0.20631048  0.30961639  1
  O  O5  1  0.99047768  0.19666632  0.30498117  1
  O  O6  1  0.11001446  0.18664766  0.81163494  1
  O  O7  1  0.60665545  0.18143330  0.81495214  1
  O  O8  1  0.49111971  0.77870632  0.80718367  1
  O  O9  1  0.99357754  0.78401082  0.80918772  1
  O  O10  1  0.40753257  0.98861182  0.80908677  1
  O  O11  1  0.90364676  0.00379810  0.81680692  1
  O  O12  1  0.40651896  0.97239878  0.68760201  1
  O  O13  1  0.90615002  0.97146997  0.69512866  1
  O  O14  1  0.08352768  0.21274542  0.69126602  1
  O  O15  1  0.59129282  0.23185270  0.69476472  1
  O  O16  1  0.01843627  0.82042431  0.69814643  1
  O  O17  1  0.51661510  0.82995710  0.69631988  1
  O  O18  1  0.41271582  0.84979742  0.19263129  1
  O  O19  1  0.90991910  0.84117960  0.18807903  1
  O  O20  1  0.01583884  0.20147338  0.19374125  1
  O  O21  1  0.51180162  0.21146486  0.19798490  1
  O  O22  1  0.08757149  0.94121678  0.19439978  1
  O  O23  1  0.58757026  0.93016673  0.19256995  1
  O  O24  1  0.43200602  0.34982217  0.63506445  1
  O  O25  1  0.93293950  0.34386240  0.63570199  1
  O  O26  1  0.24369510  0.11312778  0.64180162  1
  O  O27  1  0.73612532  0.11321397  0.64517930  1
  O  O28  1  0.33285986  0.53809218  0.63679596  1
  O  O29  1  0.83113212  0.52457802  0.64217557  1
  O  O30  1  0.43175719  0.49416116  0.14206035  1
  O  O31  1  0.93693302  0.52459713  0.13819673  1
  O  O32  1  0.31922178  0.12376757  0.13522228  1
  O  O33  1  0.83557782  0.13931167  0.13392640  1
  O  O34  1  0.23115089  0.34508930  0.15061479  1
  O  O35  1  0.73969743  0.36174230  0.14377823  1
  O  O36  1  0.21842213  0.27487171  0.02831593  1
  O  O37  1  0.70843250  0.26481482  0.02511630  1
  O  O38  1  0.40517501  0.50772484  0.02046853  1
  O  O39  1  0.93002893  0.54076208  0.02743255  1
  O  O40  1  0.34277561  0.14851586  0.02467957  1
  O  O41  1  0.84821149  0.14080629  0.02363222  1
  O  O42  1  0.21350532  0.14200456  0.52231703  1
  O  O43  1  0.70884976  0.15391325  0.52580882  1
  O  O44  1  0.34229619  0.54551698  0.52595960  1
  O  O45  1  0.86166336  0.57660349  0.52262409  1
  O  O46  1  0.42816900  0.30830889  0.52542387  1
  O  O47  1  0.93105047  0.31449282  0.52517777  1
  O  O48  1  0.26608126  0.67274693  0.96858951  1
  O  O49  1  0.76976951  0.67901401  0.97248968  1
  O  O50  1  0.06950104  0.45755346  0.97513643  1
  O  O51  1  0.56420061  0.44975210  0.97377943  1
  O  O52  1  0.15691030  0.84663250  0.97999548  1
  O  O53  1  0.66230553  0.84713874  0.97439679  1
  O  O54  1  0.26867416  0.86099875  0.47217622  1
  O  O55  1  0.76906994  0.86218923  0.47050081  1
  O  O56  1  0.15678848  0.47029734  0.47636884  1
  O  O57  1  0.65263442  0.46768232  0.47519081  1
  O  O58  1  0.06963498  0.68156635  0.47095227  1
  O  O59  1  0.56920169  0.68038523  0.47376169  1
  O  O60  1  0.06396884  0.65091446  0.35987006  1
  O  O61  1  0.55890670  0.64376222  0.36282165  1
  O  O62  1  0.25805072  0.88704735  0.36124574  1
  O  O63  1  0.75790449  0.88264527  0.35925778  1
  O  O64  1  0.17906150  0.51359428  0.35287550  1
  O  O65  1  0.67978005  0.50965576  0.35194267  1
  O  O66  1  0.06707450  0.49071080  0.86460925  1
  O  O67  1  0.56348642  0.48634552  0.86348308  1
  O  O68  1  0.18364866  0.86588804  0.85555177  1
  O  O69  1  0.67791808  0.85168268  0.85150173  1
  O  O70  1  0.26174796  0.64357829  0.85665211  1
  O  O71  1  0.76444857  0.64188180  0.86106669  1
  O  O72  1  0.00645473  0.81244100  0.41434673  1
  O  O73  1  0.50543456  0.81265385  0.41784479  1
  O  O74  1  0.39686263  0.97587733  0.41253713  1
  O  O75  1  0.89682611  0.97513322  0.41061474  1
  O  O76  1  0.07821456  0.19196631  0.41103375  1
  O  O77  1  0.57900703  0.18983812  0.41011313  1
  O  O78  1  0.00934634  0.20502500  0.91463938  1
  O  O79  1  0.50675166  0.19958617  0.91292044  1
  O  O80  1  0.08724201  0.98303697  0.91362365  1
  O  O81  1  0.57793272  0.96456536  0.91381525  1
  O  O82  1  0.39927690  0.80812960  0.91258487  1
  O  O83  1  0.90156425  0.81986667  0.91559742  1
  O  O84  1  0.48088189  0.16474818  0.58755568  1
  O  O85  1  0.98564910  0.17064298  0.58525473  1
  O  O86  1  0.08518452  0.02337328  0.59732786  1
  O  O87  1  0.57634112  0.02203164  0.59908241  1
  O  O88  1  0.41205325  0.80907273  0.58075350  1
  O  O89  1  0.92635913  0.84637578  0.59468987  1
  O  O90  1  0.47951650  0.80606166  0.08508337  1
  O  O91  1  0.98394509  0.80010115  0.08535433  1
  O  O92  1  0.41185377  0.03575392  0.08275899  1
  O  O93  1  0.91600579  0.02293580  0.08266771  1
  O  O94  1  0.08054253  0.13413608  0.09640775  1
  O  O95  1  0.57692376  0.13783281  0.10081077  1
  O  O96  1  0.34392778  0.16495028  0.74665521  1
  O  O97  1  0.84208663  0.16555986  0.74652052  1
  O  O98  1  0.24322088  0.34476671  0.74023416  1
  O  O99  1  0.74577816  0.34419816  0.74922700  1
  O  O100  1  0.42714994  0.54081562  0.73860969  1
  O  O101  1  0.93234979  0.53567400  0.74506832  1
  O  O102  1  0.34713997  0.53002193  0.24743681  1
  O  O103  1  0.84858151  0.52723997  0.24439932  1
  O  O104  1  0.42817887  0.32345660  0.24926404  1
  O  O105  1  0.93003245  0.31967477  0.23885517  1
  O  O106  1  0.24787047  0.15136062  0.24527613  1
  O  O107  1  0.74556777  0.15026105  0.24287267  1
  O  O108  1  0.31502154  0.49828504  0.91523707  1
  O  O109  1  0.82486267  0.51051078  0.92187327  1
  O  O110  1  0.43173198  0.36259971  0.91825060  1
  O  O111  1  0.93560146  0.36765077  0.92111339  1
  O  O112  1  0.25991731  0.16414795  0.92526310  1
  O  O113  1  0.75240708  0.14409578  0.91099661  1
  O  O114  1  0.32502012  0.13933298  0.42048300  1
  O  O115  1  0.82448615  0.13862123  0.41874747  1
  O  O116  1  0.25157047  0.36415298  0.41102487  1
  O  O117  1  0.75187259  0.36545863  0.41350226  1
  O  O118  1  0.43154778  0.50051699  0.42352058  1
  O  O119  1  0.93466408  0.49912949  0.41770445  1
  O  O120  1  0.16053783  0.48174468  0.07834985  1
  O  O121  1  0.66452488  0.48644594  0.07853090  1
  O  O122  1  0.06734507  0.65615541  0.08134104  1
  O  O123  1  0.56814992  0.65206761  0.07490008  1
  O  O124  1  0.25594960  0.86792133  0.07695745  1
  O  O125  1  0.76091215  0.86868923  0.08074077  1
  O  O126  1  0.16107092  0.83086022  0.57905077  1
  O  O127  1  0.65757213  0.83702046  0.57813125  1
  O  O128  1  0.25658955  0.64790181  0.58127018  1
  O  O129  1  0.75446768  0.66498566  0.58173037  1
  O  O130  1  0.06604874  0.48178724  0.58108307  1
  O  O131  1  0.56407724  0.47631043  0.58064979  1
  O  O132  1  0.15183358  0.80132048  0.26089339  1
  O  O133  1  0.65118026  0.79940943  0.26103128  1
  O  O134  1  0.26156150  0.69773937  0.25073256  1
  O  O135  1  0.76021521  0.69113175  0.24790655  1
  O  O136  1  0.08286656  0.46373159  0.24823539  1
  O  O137  1  0.58330770  0.47501011  0.25192840  1
  O  O138  1  0.15280678  0.50206318  0.76085195  1
  O  O139  1  0.65365033  0.50079210  0.76301975  1
  O  O140  1  0.08802714  0.70485890  0.75463796  1
  O  O141  1  0.58264922  0.69821998  0.74881741  1
  O  O142  1  0.25924096  0.82489002  0.74962964  1
  O  O143  1  0.75929551  0.82252272  0.75211029  1
loop_
_geom_bond_atom_site_label_1
_geom_bond_atom_site_label_2
_geom_bond_distance
_geom_bond_site_symmetry_2
Na0 O34 2.289437 1_555
Na0 O102 2.385679 1_555
Na0 O106 2.545360 1_555
Na0 O136 2.595869 1_555
Na0 O134 2.609305 1_555
Na0 O64 2.711733 1_555
Na1 O35 2.395060 1_555
Na1 O103 2.506280 1_555
Na1 O107 2.540985 1_555
Na1 O135 2.613162 1_555
Na1 O137 2.614281 1_555
Na1 O65 2.748085 1_555
Na2 O103 2.382724 1_555
Na2 O132 2.405006 1_655
Na2 O105 2.537435 1_555
Na2 O60 2.575747 1_655
Na2 O22 2.692007 1_655
Na2 O136 2.718230 1_655
Na2 O31 2.789266 1_555
Na2 O3 2.947260 1_555
Na3 O102 2.378226 1_555
Na3 O104 2.378992 1_555
Na3 O133 2.469855 1_555
Na3 O30 2.498871 1_555
Na3 O137 2.580863 1_555
Na3 O23 2.599200 1_555
Na3 O61 2.864738 1_555
Na4 O98 2.306355 1_555
Na4 O142 2.444493 1_555
Na4 O100 2.481420 1_555
Na4 O28 2.604547 1_555
Na4 O70 2.649955 1_555
Na4 O138 2.683925 1_555
Na4 O12 2.878062 1_555
Na5 O29 2.285765 1_555
Na5 O99 2.326817 1_555
Na5 O143 2.460476 1_555
Na5 O101 2.613236 1_555
Na5 O13 2.705679 1_555
Na5 O139 2.726130 1_555
Na5 O71 2.982377 1_555
Na6 O96 2.419465 1_555
Na6 O26 2.430294 1_555
Na6 O98 2.511440 1_555
Na6 O140 2.545855 1_545
Na6 O142 2.695222 1_545
Na6 O68 2.794247 1_545
Na6 O6 2.871819 1_555
Na6 O16 2.898911 1_545
Na7 O97 2.352147 1_555
Na7 O27 2.377187 1_555
Na7 O99 2.523926 1_555
Na7 O141 2.590747 1_545
Na7 O143 2.663382 1_545
Na7 O69 2.698404 1_545
Na7 O7 2.939977 1_555
Na7 O17 2.980161 1_545
Na8 O86 2.415000 1_555
Na8 O56 2.502799 1_555
Na8 O128 2.531959 1_555
Na8 O130 2.590972 1_555
Na8 O85 2.639765 1_455
Na8 O42 2.655184 1_555
Na8 O14 2.793088 1_555
Na9 O129 2.442168 1_555
Na9 O43 2.509549 1_555
Na9 O57 2.558579 1_555
Na9 O87 2.608784 1_555
Na9 O131 2.637345 1_555
Na9 O15 2.844509 1_555
Na9 O29 2.928238 1_555
Na9 O84 2.935285 1_555
Na10 O126 2.405545 1_555
Na10 O89 2.492513 1_455
Na10 O86 2.598565 1_565
Na10 O130 2.603814 1_555
Na10 O45 2.632726 1_455
Na10 O58 2.647874 1_555
Na10 O16 2.798856 1_555
Na11 O127 2.299695 1_555
Na11 O88 2.493697 1_555
Na11 O131 2.569873 1_555
Na11 O87 2.606386 1_565
Na11 O59 2.650398 1_555
Na11 O17 2.728776 1_555
Na12 O84 2.501706 1_565
Na12 O12 2.532628 1_555
Na12 O26 2.543657 1_565
Na12 O128 2.549713 1_555
Na12 O126 2.562614 1_555
Na12 O88 2.694615 1_555
Na12 O54 2.888621 1_555
Na13 O129 2.345094 1_555
Na13 O89 2.589362 1_555
Na13 O85 2.594702 1_565
Na13 O127 2.628828 1_555
Na13 O13 2.656319 1_555
Na13 O27 2.735091 1_565
Na13 O55 2.900813 1_555
Na14 O94 2.449563 1_565
Na14 O52 2.452903 1_554
Na14 O124 2.453023 1_555
Na14 O122 2.473209 1_555
Na14 O36 2.597588 1_565
Na14 O91 2.676093 1_455
Na14 O22 2.748625 1_555
Na14 O32 2.869010 1_565
Na15 O53 2.344984 1_554
Na15 O123 2.404796 1_555
Na15 O125 2.550742 1_555
Na15 O37 2.563548 1_565
Na15 O95 2.628747 1_565
Na15 O90 2.691786 1_555
Na15 O23 2.901937 1_555
Na16 O121 2.494654 1_555
Na16 O125 2.503734 1_555
Na16 O19 2.575170 1_555
Na16 O91 2.576379 1_555
Na16 O35 2.659001 1_555
Na16 O93 2.721318 1_565
Na16 O49 2.852016 1_554
Na17 O120 2.304616 1_555
Na17 O93 2.429941 1_455
Na17 O122 2.567968 1_555
Na17 O50 2.584155 1_554
Na17 O94 2.637459 1_555
Na17 O20 2.714048 1_555
Na18 O121 2.338789 1_555
Na18 O92 2.457747 1_555
Na18 O123 2.472208 1_555
Na18 O21 2.571939 1_555
Na18 O95 2.597321 1_555
Na18 O30 2.712988 1_555
Na18 O51 2.762723 1_554
Na19 O81 2.342956 1_555
Na19 O110 2.400327 1_555
Na19 O82 2.523619 1_555
Na19 O38 2.529251 1_556
Na19 O108 2.721401 1_555
Na19 O8 2.777474 1_555
Na19 O67 2.923917 1_555
Na19 O53 2.936757 1_555
Na20 O80 2.393972 1_655
Na20 O111 2.444735 1_555
Na20 O83 2.547117 1_555
Na20 O9 2.549183 1_555
Na20 O109 2.626855 1_555
Na20 O39 2.682677 1_556
Na20 O66 2.868680 1_655
Na20 O52 2.927961 1_655
Na21 O11 2.254710 1_555
Na21 O113 2.376152 1_555
Na21 O78 2.549466 1_655
Na21 O83 2.585863 1_545
Na21 O111 2.618831 1_555
Na21 O41 2.764612 1_556
Na21 O69 2.907759 1_545
Na22 O6 2.280524 1_555
Na22 O80 2.359865 1_545
Na22 O108 2.414945 1_555
Na22 O112 2.496253 1_555
Na22 O78 2.542567 1_555
Na22 O36 2.877047 1_556
Na22 O70 2.983181 1_555
Na23 O7 2.378900 1_555
Na23 O81 2.397481 1_545
Na23 O113 2.434386 1_555
Na23 O79 2.547542 1_555
Na23 O37 2.582462 1_556
Na23 O109 2.635635 1_555
Na24 O77 2.349062 1_555
Na24 O118 2.432018 1_555
Na24 O46 2.578413 1_555
Na24 O4 2.593667 1_555
Na24 O114 2.610571 1_555
Na24 O74 2.633027 1_545
Na24 O57 2.812342 1_555
Na24 O61 2.864246 1_555
Na25 O76 2.331260 1_655
Na25 O119 2.398759 1_555
Na25 O47 2.460785 1_555
Na25 O115 2.549549 1_555
Na25 O75 2.569058 1_545
Na25 O5 2.774285 1_555
Na25 O56 2.905686 1_655
Na26 O76 2.410651 1_555
Na26 O0 2.411756 1_555
Na26 O116 2.413815 1_555
Na26 O42 2.506226 1_555
Na26 O72 2.562585 1_545
Na26 O114 2.638043 1_555
Na27 O1 2.416269 1_555
Na27 O77 2.417069 1_555
Na27 O117 2.425296 1_555
Na27 O43 2.584610 1_555
Na27 O115 2.595401 1_555
Na27 O73 2.595473 1_545
Na28 O2 2.272598 1_555
Na28 O116 2.353816 1_555
Na28 O73 2.424623 1_555
Na28 O118 2.538028 1_555
Na28 O74 2.541950 1_555
Na28 O44 2.851091 1_555
Na28 O64 2.946376 1_555
Na29 O117 2.354335 1_555
Na29 O72 2.433022 1_655
Na29 O45 2.487020 1_555
Na29 O75 2.504229 1_555
Na29 O3 2.583425 1_555
Na29 O119 2.592291 1_555
Na30 O89 2.451772 1_455
Na30 O86 2.490907 1_565
Na30 O85 2.522955 1_465
Na30 O76 2.529516 1_565
Na30 O72 2.553842 1_555
Na30 O75 2.762566 1_455
Na31 O77 2.384871 1_555
Na31 O87 2.435928 1_555
Na31 O84 2.540917 1_555
Na31 O73 2.552700 1_545
Na31 O88 2.581837 1_545
Na31 O74 2.778112 1_545
Na32 O80 2.398612 1_545
Na32 O94 2.485238 1_556
Na32 O91 2.522308 1_446
Na32 O93 2.535096 1_456
Na32 O83 2.572777 1_445
Na32 O78 2.578747 1_555
Na33 O90 2.425105 1_555
Na33 O81 2.481241 1_554
Na33 O92 2.504403 1_565
Na33 O95 2.595441 1_565
Na33 O82 2.596854 1_554
Na33 O79 2.609112 1_564
Na34 O96 2.266916 1_555
Na34 O110 2.433195 1_555
Na34 O112 2.458166 1_555
Na34 O108 2.701803 1_555
Na34 O100 2.769243 1_555
Na34 O98 2.793255 1_555
Na35 O97 2.281223 1_555
Na35 O113 2.371966 1_555
Na35 O99 2.378211 1_555
Na35 O101 2.590396 1_555
Na35 O111 2.723390 1_555
Na35 O109 2.756759 1_555
Na36 O106 2.308115 1_555
Na36 O102 2.395313 1_555
Na36 O116 2.421469 1_555
Na36 O104 2.485004 1_555
Na36 O114 2.675614 1_555
Na36 O118 2.794912 1_555
Na37 O107 2.355082 1_555
Na37 O117 2.383525 1_555
Na37 O103 2.451166 1_555
Na37 O115 2.630545 1_555
Na37 O119 2.744281 1_555
Na37 O105 2.768716 1_555
Na38 O134 2.306814 1_555
Na38 O124 2.383005 1_555
Na38 O120 2.410675 1_555
Na38 O132 2.674418 1_555
Na38 O136 2.698295 1_555
Na38 O122 2.784495 1_555
Na39 O121 2.455887 1_555
Na39 O125 2.516807 1_555
Na39 O137 2.525666 1_555
Na39 O133 2.526355 1_555
Na39 O123 2.527080 1_555
Na39 O135 2.538898 1_555
Na40 O126 2.414121 1_555
Na40 O140 2.427890 1_555
Na40 O130 2.487408 1_555
Na40 O142 2.496679 1_555
Na40 O138 2.514555 1_555
Na40 O128 2.621228 1_555
Na41 O129 2.353890 1_555
Na41 O127 2.485373 1_555
Na41 O143 2.486286 1_555
Na41 O141 2.532854 1_555
Na41 O131 2.567475 1_555
Na41 O139 2.591708 1_555
Mg0 O3 1.944228 1_445
Mg0 O0 1.950347 1_555
Mg0 O76 2.042513 1_555
Mg0 O5 2.109123 1_455
Mg0 O75 2.260156 1_445
Mg0 O72 2.262050 1_545
Mg1 O2 1.937734 1_545
Mg1 O1 1.939813 1_555
Mg1 O77 2.033721 1_555
Mg1 O4 2.071574 1_555
Mg1 O74 2.328929 1_545
Mg1 O73 2.331392 1_545
Mg2 O6 1.926023 1_555
Mg2 O11 1.956893 1_455
Mg2 O9 2.103910 1_445
Mg2 O80 2.166236 1_545
Mg2 O78 2.258718 1_555
Mg2 O83 2.308926 1_445
Mg3 O10 1.912241 1_545
Mg3 O7 1.934344 1_555
Mg3 O81 2.086835 1_545
Mg3 O79 2.162354 1_555
Mg3 O8 2.178174 1_545
Mg3 O82 2.224321 1_545
Mg4 O26 1.965194 1_555
Mg4 O96 2.033263 1_555
Mg4 O98 2.043047 1_555
Mg4 O24 2.066046 1_555
Mg4 O100 2.227781 1_555
Mg4 O28 2.229772 1_555
Mg5 O27 1.977724 1_555
Mg5 O29 1.992750 1_555
Mg5 O99 2.093518 1_555
Mg5 O97 2.099113 1_555
Mg5 O25 2.124964 1_555
Mg5 O101 2.329676 1_555
Mg6 O30 1.940028 1_555
Mg6 O34 1.985379 1_555
Mg6 O106 2.013358 1_555
Mg6 O102 2.096148 1_555
Mg6 O32 2.134188 1_555
Mg6 O104 2.324126 1_555
Mg7 O35 1.962852 1_555
Mg7 O107 1.975078 1_555
Mg7 O103 2.072439 1_555
Mg7 O33 2.119513 1_555
Mg7 O31 2.146640 1_555
Mg7 O105 2.270801 1_555
Mg8 O37 1.981763 1_556
Mg8 O113 2.024385 1_555
Mg8 O41 2.073673 1_556
Mg8 O109 2.215220 1_555
Mg8 O39 2.352144 1_556
Mg8 O111 2.377856 1_555
Mg9 O42 1.976466 1_555
Mg9 O44 2.060024 1_555
Mg9 O116 2.071545 1_555
Mg9 O114 2.180412 1_555
Mg9 O118 2.240562 1_555
Mg9 O46 2.329496 1_555
Mg10 O45 1.978681 1_555
Mg10 O43 2.016259 1_555
Mg10 O117 2.062396 1_555
Mg10 O47 2.389350 1_555
Mg10 O119 2.399755 1_555
Mg10 O115 2.440116 1_555
Mg11 O52 1.966441 1_554
Mg11 O48 2.020648 1_554
Mg11 O120 2.042209 1_555
Mg11 O50 2.074822 1_554
Mg11 O124 2.134366 1_555
Mg11 O122 2.264064 1_555
Mg12 O53 1.950199 1_554
Mg12 O123 2.011259 1_555
Mg12 O51 2.047244 1_554
Mg12 O121 2.057859 1_555
Mg12 O49 2.168895 1_554
Mg12 O125 2.318379 1_555
Mg13 O56 1.933420 1_555
Mg13 O126 2.006814 1_555
Mg13 O58 2.061742 1_555
Mg13 O54 2.084417 1_555
Mg13 O130 2.178512 1_555
Mg13 O128 2.264236 1_555
Mg14 O57 1.947108 1_555
Mg14 O127 2.057170 1_555
Mg14 O129 2.058316 1_555
Mg14 O55 2.089128 1_555
Mg14 O59 2.149873 1_555
Mg14 O131 2.217149 1_555
Ge0 O13 1.828563 1_445
Ge0 O14 1.872032 1_555
Ge0 O86 1.881542 1_555
Ge0 O89 1.909271 1_445
Ge0 O85 2.160915 1_455
Ge0 O16 2.163045 1_545
Ge1 O15 1.761529 1_555
Ge1 O12 1.801852 1_545
Ge1 O87 1.820209 1_555
Ge1 O17 2.055255 1_545
Ge1 O84 2.230638 1_555
Ge2 O19 1.789773 1_455
Ge2 O22 1.795112 1_555
Ge2 O94 1.852606 1_565
Ge2 O20 1.978124 1_565
Ge2 O91 2.266230 1_455
Ge3 O18 1.770576 1_555
Ge3 O23 1.804835 1_555
Ge3 O95 1.827396 1_565
Ge3 O90 1.829331 1_555
Ge4 O38 1.821580 1_556
Ge4 O36 1.821604 1_556
Ge4 O112 1.873511 1_555
Ge4 O40 1.885390 1_556
Ge4 O108 2.399594 1_555
Ge4 O110 2.463871 1_555
Ge5 O64 1.787823 1_555
Ge5 O134 1.800970 1_555
Ge5 O132 1.814763 1_555
Ge5 O62 1.935489 1_555
Ge5 O60 2.374543 1_555
Ge5 O136 2.403991 1_555
Ge6 O65 1.781812 1_555
Ge6 O133 1.800319 1_555
Ge6 O135 1.821763 1_555
Ge6 O63 2.015149 1_555
Ge6 O137 2.185501 1_555
Ge6 O61 2.458918 1_555
Ge7 O68 1.844444 1_555
Ge7 O142 1.846461 1_555
Ge7 O138 1.849798 1_555
Ge7 O70 2.024063 1_555
Ge7 O140 2.125858 1_555
Ge7 O66 2.277222 1_555
Ge8 O69 1.775664 1_555
Ge8 O139 1.789211 1_555
Ge8 O143 1.839658 1_555
Ge8 O71 2.106416 1_555
Ge8 O141 2.264582 1_555
Ge8 O67 2.269569 1_555
O0 Si0 1.594489 1_545
O1 Si1 1.594389 1_545
O2 Si2 1.591570 1_555
O3 Si3 1.586750 1_555
O4 S1 1.475880 1_555
O5 S0 1.455027 1_655
O6 Si4 1.599047 1_555
O7 Si5 1.584460 1_555
O8 S3 1.460178 1_555
O9 S2 1.475899 1_655
O10 Si6 1.567974 1_565
O11 Si7 1.597313 1_555
O12 Si6 1.752140 1_565
O13 Si7 1.680800 1_565
O14 Si4 1.689767 1_555
O15 Si5 1.700015 1_555
O16 S2 1.505390 1_555
O17 S3 1.535337 1_555
O18 Si2 1.682333 1_555
O19 Si3 1.727968 1_555
O20 S0 1.544360 1_555
O21 S1 1.471292 1_555
O22 Si0 1.734168 1_555
O23 Si1 1.712506 1_555
O24 S4 1.462240 1_555
O25 S5 1.444019 1_555
O26 Si8 1.611577 1_555
O27 Si9 1.601087 1_555
O28 S6 1.475936 1_555
O29 Si10 1.608536 1_555
O30 Si11 1.583286 1_555
O31 S7 1.467252 1_555
O32 S8 1.436731 1_555
O33 S9 1.460258 1_555
O34 Si12 1.570401 1_555
O35 Si13 1.608850 1_555
O36 Si12 1.708808 1_555
O37 Si13 1.637702 1_555
O38 Si11 1.749213 1_555
O39 S7 1.480879 1_555
O40 S8 1.548819 1_555
O41 S9 1.497106 1_555
O42 Si8 1.639518 1_555
O43 Si9 1.638637 1_555
O44 S6 1.484804 1_555
O45 Si10 1.639726 1_555
O46 S4 1.485959 1_555
O47 S5 1.488582 1_555
O48 S10 1.469090 1_555
O49 S11 1.468134 1_555
O50 S12 1.483345 1_555
O51 S13 1.477430 1_555
O52 Si14 1.596083 1_555
O53 Si15 1.597318 1_555
O54 S14 1.466342 1_555
O55 S15 1.463504 1_555
O56 Si16 1.605679 1_555
O57 Si17 1.601763 1_555
O58 S16 1.479171 1_555
O59 S17 1.477488 1_555
O60 S16 1.488703 1_555
O61 S17 1.480162 1_555
O62 S14 1.532702 1_555
O63 S15 1.523717 1_555
O64 Si16 1.751777 1_555
O65 Si17 1.746769 1_555
O66 S12 1.484631 1_555
O67 S13 1.493216 1_555
O68 Si14 1.723352 1_555
O69 Si15 1.743774 1_555
O70 S10 1.530854 1_555
O71 S11 1.514467 1_555
O72 S16 1.492930 1_555
O73 S17 1.495908 1_555
O74 S14 1.468128 1_555
O75 S15 1.482239 1_555
O76 Si16 1.638931 1_555
O77 Si17 1.637902 1_555
O78 S12 1.494236 1_555
O79 S13 1.483467 1_555
O80 Si14 1.641051 1_555
O81 Si15 1.636689 1_555
O82 S10 1.455966 1_555
O83 S11 1.489697 1_555
O84 S4 1.516924 1_555
O85 S5 1.518690 1_555
O86 Si8 1.698941 1_555
O87 Si9 1.778076 1_555
O88 S6 1.485568 1_555
O89 Si10 1.699612 1_555
O90 Si11 1.685032 1_555
O91 S7 1.519290 1_555
O92 S8 1.469843 1_555
O93 S9 1.496723 1_555
O94 Si12 1.771776 1_555
O95 Si13 1.740828 1_555
O96 Si6 1.600891 1_555
O97 Si7 1.599122 1_555
O98 Si4 1.632133 1_555
O99 Si5 1.614367 1_555
O100 S3 1.471500 1_555
O101 S2 1.454638 1_655
O102 Si2 1.617904 1_555
O103 Si3 1.623256 1_555
O104 S1 1.468859 1_555
O105 S0 1.467350 1_655
O106 Si0 1.585175 1_545
O107 Si1 1.596581 1_545
O108 S10 1.506500 1_555
O109 S11 1.490077 1_555
O110 S13 1.498188 1_555
O111 S12 1.491190 1_655
O112 Si14 1.731783 1_545
O113 Si15 1.645111 1_545
O114 S14 1.482767 1_545
O115 S15 1.486753 1_545
O116 Si16 1.642829 1_555
O117 Si17 1.640946 1_555
O118 S17 1.501977 1_555
O119 S16 1.488900 1_655
O120 Si12 1.613808 1_555
O121 Si13 1.636757 1_555
O122 S7 1.489251 1_455
O123 Si11 1.620913 1_555
O124 S8 1.489548 1_565
O125 S9 1.493345 1_565
O126 Si8 1.644780 1_565
O127 Si9 1.627391 1_565
O128 S6 1.500389 1_555
O129 Si10 1.643884 1_555
O130 S5 1.495357 1_455
O131 S4 1.481269 1_555
O132 Si0 1.704904 1_555
O133 Si1 1.693507 1_555
O134 Si2 1.699760 1_555
O135 Si3 1.685749 1_555
O136 S0 1.493060 1_555
O137 S1 1.538257 1_555
O138 Si4 1.710592 1_555
O139 Si5 1.690625 1_555
O140 S2 1.515498 1_555
O141 S3 1.490469 1_555
O142 Si6 1.730556 1_565
O143 Si7 1.740339 1_565
