# generated using pymatgen
data_Hf(MnGe)6
_symmetry_space_group_name_H-M   'P 1'
_cell_length_a   5.09122898
_cell_length_b   5.09117821
_cell_length_c   8.13814838
_cell_angle_alpha   90.00000000
_cell_angle_beta   90.00000000
_cell_angle_gamma   119.99925322
_symmetry_Int_Tables_number   1
_chemical_formula_structural   Hf(MnGe)6
_chemical_formula_sum   'Hf1 Mn6 Ge6'
_cell_volume   182.68396648
_cell_formula_units_Z   1
loop_
 _symmetry_equiv_pos_site_id
 _symmetry_equiv_pos_as_xyz
  1  'x, y, z'
loop_
 _atom_site_type_symbol
 _atom_site_label
 _atom_site_symmetry_multiplicity
 _atom_site_fract_x
 _atom_site_fract_y
 _atom_site_fract_z
 _atom_site_occupancy
  Hf  Hf0  1  -0.00000000  -0.00000000  -0.00000000  1
  Mn  Mn0  1  -0.00000000  0.50000000  0.75003256  1
  Mn  Mn1  1  -0.00000000  0.50000000  0.24996744  1
  Mn  Mn2  1  0.50000000  0.50000000  0.24996601  1
  Mn  Mn3  1  0.50000000  -0.00000000  0.24996501  1
  Mn  Mn4  1  0.50000000  0.50000000  0.75003399  1
  Mn  Mn5  1  0.50000000  -0.00000000  0.75003499  1
  Ge  Ge0  1  -0.00000000  -0.00000000  0.66302896  1
  Ge  Ge1  1  0.33335825  0.66668063  -0.00000000  1
  Ge  Ge2  1  0.66664101  0.33332100  0.50000000  1
  Ge  Ge3  1  0.33335899  0.66667900  0.50000000  1
  Ge  Ge4  1  -0.00000000  -0.00000000  0.33697104  1
  Ge  Ge5  1  0.66664175  0.33331937  -0.00000000  1
loop_
_geom_bond_atom_site_label_1
_geom_bond_atom_site_label_2
_geom_bond_distance
_geom_bond_site_symmetry_2
Ge0 Mn0 2.642226 1_555
Ge0 Mn0 2.642226 1_545
Ge0 Mn5 2.642255 1_455
Ge0 Mn5 2.642255 1_555
Ge0 Mn4 2.642269 1_555
Ge0 Mn4 2.642269 1_445
Ge0 Ge4 2.653508 1_555
Ge0 Hf0 2.742320 1_556
Ge1 Mn5 2.509590 1_564
Ge1 Mn3 2.509590 1_565
Ge1 Mn2 2.509599 1_555
Ge1 Mn4 2.509599 1_554
Ge1 Mn0 2.509715 1_554
Ge1 Mn1 2.509715 1_555
Ge1 Hf0 2.939335 1_665
Ge1 Hf0 2.939445 1_565
Ge1 Hf0 2.939477 1_555
Ge2 Mn2 2.510041 1_555
Ge2 Mn4 2.510041 1_555
Ge2 Mn3 2.510056 1_555
Ge2 Mn5 2.510056 1_555
Ge2 Mn1 2.510147 1_655
Ge2 Mn0 2.510147 1_655
Ge3 Mn2 2.510041 1_555
Ge3 Mn4 2.510041 1_555
Ge3 Mn3 2.510056 1_565
Ge3 Mn5 2.510056 1_565
Ge3 Mn1 2.510147 1_555
Ge3 Mn0 2.510147 1_555
Ge4 Mn1 2.642226 1_555
Ge4 Mn1 2.642226 1_545
Ge4 Mn3 2.642255 1_455
Ge4 Mn3 2.642255 1_555
Ge4 Mn2 2.642269 1_445
Ge4 Mn2 2.642269 1_555
Ge4 Hf0 2.742320 1_555
Ge5 Mn5 2.509590 1_554
Ge5 Mn3 2.509590 1_555
Ge5 Mn2 2.509599 1_555
Ge5 Mn4 2.509599 1_554
Ge5 Mn0 2.509715 1_654
Ge5 Mn1 2.509715 1_655
Ge5 Hf0 2.939335 1_555
Ge5 Hf0 2.939445 1_655
Ge5 Hf0 2.939477 1_665
