# generated using pymatgen
data_Na3In4P3(SO8)3
_symmetry_space_group_name_H-M   'P 1'
_cell_length_a   8.95796394
_cell_length_b   8.95911166
_cell_length_c   23.35295145
_cell_angle_alpha   89.05842435
_cell_angle_beta   90.84429191
_cell_angle_gamma   120.09709281
_symmetry_Int_Tables_number   1
_chemical_formula_structural   Na3In4P3(SO8)3
_chemical_formula_sum   'Na9 In12 P9 S9 O72'
_cell_volume   1621.25022109
_cell_formula_units_Z   3
loop_
 _symmetry_equiv_pos_site_id
 _symmetry_equiv_pos_as_xyz
  1  'x, y, z'
loop_
 _atom_site_type_symbol
 _atom_site_label
 _atom_site_symmetry_multiplicity
 _atom_site_fract_x
 _atom_site_fract_y
 _atom_site_fract_z
 _atom_site_occupancy
  Na  Na0  1  0.35842085  0.35878127  0.25169377  1
  Na  Na1  1  0.69227152  0.02552756  0.91672238  1
  Na  Na2  1  0.97420946  0.30743555  0.41674408  1
  Na  Na3  1  0.00529092  0.99806269  0.50006378  1
  Na  Na4  1  0.00115713  0.99393898  0.00039671  1
  Na  Na5  1  0.66101576  0.33494217  0.83313397  1
  Na  Na6  1  0.66688208  0.33338362  0.33335510  1
  Na  Na7  1  0.33207942  0.67932534  0.16639272  1
  Na  Na8  1  0.33334053  0.66661084  0.66672526  1
  In  In0  1  0.01094650  0.99966399  0.35015026  1
  In  In1  1  0.99956891  0.99353127  0.85026447  1
  In  In2  1  0.99345780  0.00587008  0.64938648  1
  In  In3  1  0.99768574  0.00350818  0.14950053  1
  In  In4  1  0.67347652  0.32755717  0.68404537  1
  In  In5  1  0.67135122  0.31995838  0.18373097  1
  In  In6  1  0.66106797  0.33269762  0.98301331  1
  In  In7  1  0.66593606  0.33916352  0.48321775  1
  In  In8  1  0.34257917  0.67808591  0.01715928  1
  In  In9  1  0.32255561  0.65749974  0.51738870  1
  In  In10  1  0.32236198  0.66743971  0.31647658  1
  In  In11  1  0.34459785  0.67652973  0.81619527  1
  P  P0  1  0.29376309  0.99874240  0.24841051  1
  P  P1  1  0.99936071  0.29318219  0.25123002  1
  P  P2  1  0.70537935  0.99951188  0.75071187  1
  P  P3  1  0.96127740  0.33371369  0.58264229  1
  P  P4  1  0.66805291  0.03725622  0.08225194  1
  P  P5  1  0.62696360  0.66316105  0.91692691  1
  P  P6  1  0.33008811  0.96072066  0.91632230  1
  P  P7  1  0.33659005  0.37425537  0.41595771  1
  P  P8  1  0.03754890  0.66886342  0.41729186  1
  S  S0  1  0.70473239  0.70460257  0.24987378  1
  S  S1  1  0.29612656  0.29591844  0.74978449  1
  S  S2  1  0.00027441  0.70532549  0.74905066  1
  S  S3  1  0.37060923  0.03753393  0.58361672  1
  S  S4  1  0.66639585  0.62791874  0.58433356  1
  S  S5  1  0.96107820  0.62762890  0.08335622  1
  S  S6  1  0.37158837  0.33461522  0.08407805  1
  S  S7  1  0.04274713  0.37594331  0.91659071  1
  S  S8  1  0.62611992  0.95836140  0.41723091  1
  O  O0  1  0.21967972  0.03634337  0.30205766  1
  O  O1  1  0.80938874  0.78022738  0.30204247  1
  O  O2  1  0.96884530  0.18552267  0.30701728  1
  O  O3  1  0.21970995  0.18854746  0.80192006  1
  O  O4  1  0.97378572  0.78127709  0.80109501  1
  O  O5  1  0.81298306  0.02956768  0.80670260  1
  O  O6  1  0.78732951  0.97024853  0.69789691  1
  O  O7  1  0.19153556  0.21761529  0.69760724  1
  O  O8  1  0.02956765  0.81325296  0.69712050  1
  O  O9  1  0.78005520  0.80873115  0.19772478  1
  O  O10  1  0.03422679  0.21367374  0.19861217  1
  O  O11  1  0.18192943  0.96864122  0.19454276  1
  O  O12  1  0.87946707  0.36313595  0.63542617  1
  O  O13  1  0.47522493  0.11589442  0.63565710  1
  O  O14  1  0.63708614  0.52001513  0.63617322  1
  O  O15  1  0.88217914  0.52357841  0.13580542  1
  O  O16  1  0.63725804  0.11793436  0.13497568  1
  O  O17  1  0.47630555  0.36326952  0.13715907  1
  O  O18  1  0.45117426  0.30909922  0.03300382  1
  O  O19  1  0.85481886  0.55066884  0.03130170  1
  O  O20  1  0.69757228  0.14506799  0.02631721  1
  O  O21  1  0.44682043  0.14481261  0.53134546  1
  O  O22  1  0.69277241  0.55191646  0.53218244  1
  O  O23  1  0.85367659  0.30373382  0.52665518  1
  O  O24  1  0.54933584  0.69939489  0.96987685  1
  O  O25  1  0.14627244  0.45163836  0.96900172  1
  O  O26  1  0.29684710  0.85051274  0.97079628  1
  O  O27  1  0.54951284  0.85452530  0.46935488  1
  O  O28  1  0.30281120  0.45493909  0.46840404  1
  O  O29  1  0.14922047  0.70208957  0.47112952  1
  O  O30  1  0.11288812  0.63017426  0.36420379  1
  O  O31  1  0.52278913  0.88311908  0.36472673  1
  O  O32  1  0.36639147  0.48052210  0.35985291  1
  O  O33  1  0.11848858  0.47957627  0.86425616  1
  O  O34  1  0.36658807  0.88340766  0.86343391  1
  O  O35  1  0.51710191  0.63053687  0.86254869  1
  O  O36  1  0.01301250  0.82661823  0.41098374  1
  O  O37  1  0.80239014  0.98166423  0.41199503  1
  O  O38  1  0.16536746  0.19670881  0.41182132  1
  O  O39  1  0.01936282  0.19911797  0.91188091  1
  O  O40  1  0.17174087  0.98480241  0.90979230  1
  O  O41  1  0.80482517  0.83427050  0.91147181  1
  O  O42  1  0.97926430  0.16996893  0.58747396  1
  O  O43  1  0.19636656  0.01802372  0.58937359  1
  O  O44  1  0.82513312  0.79955657  0.58945553  1
  O  O45  1  0.97987905  0.80139882  0.08827864  1
  O  O46  1  0.83205764  0.02030872  0.08799719  1
  O  O47  1  0.19978836  0.17673227  0.08860014  1
  O  O48  1  0.68752986  0.16327581  0.74589912  1
  O  O49  1  0.47037615  0.31542345  0.74392550  1
  O  O50  1  0.84154537  0.53374100  0.74384659  1
  O  O51  1  0.68168323  0.52825206  0.24403313  1
  O  O52  1  0.84127873  0.31762976  0.24581025  1
  O  O53  1  0.47102705  0.17124149  0.24336528  1
  O  O54  1  0.65113248  0.50491101  0.92347698  1
  O  O55  1  0.86592301  0.35257669  0.92135696  1
  O  O56  1  0.50105662  0.13842760  0.92183392  1
  O  O57  1  0.64841605  0.13491683  0.42179656  1
  O  O58  1  0.49534657  0.35073150  0.42271525  1
  O  O59  1  0.86003242  0.49778240  0.42250056  1
  O  O60  1  0.35155706  0.48862255  0.07776677  1
  O  O61  1  0.13246574  0.64076182  0.07822625  1
  O  O62  1  0.50400082  0.85622004  0.07894004  1
  O  O63  1  0.35804319  0.86682780  0.57814533  1
  O  O64  1  0.51284649  0.64889491  0.57801978  1
  O  O65  1  0.14301700  0.49691555  0.57926655  1
  O  O66  1  0.31914073  0.84144978  0.25491751  1
  O  O67  1  0.52924343  0.68285648  0.25521623  1
  O  O68  1  0.17017125  0.47080353  0.25523425  1
  O  O69  1  0.30876298  0.46671121  0.75519375  1
  O  O70  1  0.15379235  0.68428779  0.75531593  1
  O  O71  1  0.52380071  0.83622208  0.75406275  1
loop_
_geom_bond_atom_site_label_1
_geom_bond_atom_site_label_2
_geom_bond_distance
_geom_bond_site_symmetry_2
Na0 O68 2.358399 1_555
Na0 O53 2.365317 1_555
Na0 O51 2.513868 1_555
Na0 O67 2.515243 1_555
Na0 O32 2.753483 1_555
Na0 O0 2.757446 1_555
Na0 O10 2.796601 1_555
Na0 O17 2.882365 1_555
Na1 O41 2.389752 1_545
Na1 O56 2.391444 1_555
Na1 O39 2.539788 1_655
Na1 O55 2.539878 1_555
Na1 O20 2.781202 1_556
Na1 O5 2.794885 1_555
Na1 O24 2.809458 1_545
Na1 O34 2.810854 1_545
Na2 O38 2.375461 1_655
Na2 O59 2.394425 1_555
Na2 O37 2.529796 1_545
Na2 O57 2.529881 1_555
Na2 O30 2.781187 1_655
Na2 O2 2.792332 1_555
Na2 O23 2.792503 1_555
Na2 O28 2.812996 1_655
Na3 O38 2.622437 1_565
Na3 O36 2.628200 1_555
Na3 O43 2.629012 1_565
Na3 O42 2.659074 1_465
Na3 O37 2.680858 1_455
Na3 O44 2.687746 1_455
Na4 O45 2.605624 1_455
Na4 O41 2.630347 1_454
Na4 O46 2.646040 1_465
Na4 O40 2.654263 1_554
Na4 O47 2.677899 1_565
Na4 O39 2.694989 1_564
Na5 O56 2.623182 1_555
Na5 O49 2.625765 1_555
Na5 O54 2.650307 1_555
Na5 O48 2.656225 1_555
Na5 O50 2.687706 1_555
Na5 O55 2.692083 1_555
Na6 O59 2.633575 1_555
Na6 O52 2.639121 1_555
Na6 O53 2.653361 1_555
Na6 O57 2.655011 1_555
Na6 O51 2.659508 1_555
Na6 O58 2.661736 1_555
Na7 O62 2.567642 1_555
Na7 O66 2.582934 1_555
Na7 O61 2.617503 1_555
Na7 O68 2.672427 1_555
Na7 O67 2.694672 1_555
Na7 O60 2.767474 1_555
Na8 O71 2.603655 1_555
Na8 O65 2.605645 1_555
Na8 O69 2.649638 1_555
Na8 O63 2.653134 1_555
Na8 O70 2.693778 1_555
Na8 O64 2.695752 1_555
In0 O0 2.073427 1_565
In0 O36 2.092301 1_555
In0 O2 2.119674 1_465
In0 O38 2.163290 1_565
In0 O1 2.199981 1_455
In0 O37 2.317738 1_455
In1 O40 2.090828 1_655
In1 O5 2.100741 1_565
In1 O4 2.147417 1_555
In1 O41 2.152278 1_555
In1 O3 2.182037 1_665
In1 O39 2.290521 1_665
In2 O6 2.062402 1_545
In2 O42 2.092903 1_555
In2 O7 2.156540 1_655
In2 O8 2.193449 1_645
In2 O44 2.208276 1_545
In2 O43 2.269671 1_655
In3 O11 2.093586 1_645
In3 O10 2.099904 1_655
In3 O46 2.107363 1_555
In3 O9 2.168458 1_545
In3 O47 2.212294 1_655
In3 O45 2.266476 1_545
In4 O12 2.062923 1_555
In4 O48 2.092647 1_555
In4 O13 2.158826 1_555
In4 O14 2.195170 1_555
In4 O50 2.205177 1_555
In4 O49 2.269139 1_555
In5 O16 2.041731 1_555
In5 O52 2.094061 1_555
In5 O53 2.132976 1_555
In5 O15 2.164972 1_555
In5 O17 2.235231 1_555
In5 O51 2.320220 1_555
In6 O54 2.094049 1_555
In6 O20 2.107377 1_556
In6 O18 2.144925 1_556
In6 O56 2.155083 1_555
In6 O19 2.170932 1_556
In6 O55 2.283440 1_555
In7 O23 2.105384 1_555
In7 O58 2.105387 1_555
In7 O59 2.140428 1_555
In7 O22 2.145324 1_555
In7 O21 2.172715 1_555
In7 O57 2.285182 1_555
In8 O26 2.071989 1_554
In8 O24 2.093975 1_554
In8 O62 2.102185 1_555
In8 O25 2.216226 1_554
In8 O60 2.223863 1_555
In8 O61 2.262829 1_555
In9 O29 2.072698 1_555
In9 O28 2.091312 1_555
In9 O65 2.103355 1_555
In9 O27 2.215939 1_555
In9 O64 2.230149 1_555
In9 O63 2.259981 1_555
In10 O30 2.072660 1_555
In10 O66 2.113795 1_555
In10 O32 2.140305 1_555
In10 O68 2.150390 1_555
In10 O31 2.181609 1_555
In10 O67 2.305456 1_555
In11 O35 2.074640 1_555
In11 O34 2.094191 1_555
In11 O71 2.103852 1_555
In11 O33 2.212065 1_555
In11 O70 2.234244 1_555
In11 O69 2.266136 1_555
O0 P0 1.544681 1_545
O1 S0 1.476015 1_555
O2 P1 1.551480 1_555
O3 S1 1.483893 1_555
O4 S2 1.481255 1_655
O5 P2 1.557378 1_545
O6 P2 1.535977 1_555
O7 S1 1.479842 1_555
O8 S2 1.480162 1_555
O9 S0 1.471142 1_555
O10 P1 1.542100 1_455
O11 P0 1.536840 1_555
O12 P3 1.535270 1_555
O13 S3 1.477389 1_555
O14 S4 1.478310 1_555
O15 S5 1.481880 1_555
O16 P4 1.534200 1_555
O17 S6 1.489000 1_555
O18 S6 1.476690 1_555
O19 S5 1.481356 1_555
O20 P4 1.556180 1_555
O21 S3 1.485877 1_555
O22 S4 1.483173 1_555
O23 P3 1.557378 1_555
O24 P5 1.543665 1_555
O25 S7 1.476841 1_555
O26 P6 1.535213 1_555
O27 S8 1.471453 1_555
O28 P7 1.540632 1_555
O29 P8 1.531867 1_555
O30 P8 1.544677 1_555
O31 S8 1.477334 1_555
O32 P7 1.552011 1_555
O33 S7 1.473574 1_555
O34 P6 1.542500 1_555
O35 P5 1.534099 1_555
O36 P8 1.539906 1_555
O37 S8 1.492004 1_555
O38 P7 1.563922 1_555
O39 S7 1.495956 1_555
O40 P6 1.543158 1_555
O41 P5 1.566760 1_555
O42 P3 1.556244 1_555
O43 S3 1.488856 1_555
O44 S4 1.486240 1_555
O45 S5 1.485808 1_555
O46 P4 1.554572 1_555
O47 S6 1.482233 1_555
O48 P2 1.555682 1_545
O49 S1 1.489186 1_555
O50 S2 1.486103 1_655
O51 S0 1.495506 1_555
O52 P1 1.540842 1_555
O53 P0 1.569094 1_545
O54 P5 1.542765 1_555
O55 S7 1.495687 1_655
O56 P6 1.565998 1_545
O57 S8 1.497114 1_545
O58 P7 1.544241 1_555
O59 P8 1.564561 1_655
O60 S6 1.482745 1_555
O61 S5 1.486297 1_455
O62 P4 1.551292 1_565
O63 S3 1.483686 1_565
O64 S4 1.483709 1_555
O65 P3 1.551494 1_455
O66 P0 1.540734 1_555
O67 S0 1.490836 1_555
O68 P1 1.562350 1_455
O69 S1 1.484032 1_555
O70 S2 1.483662 1_555
O71 P2 1.550960 1_555
