# generated using pymatgen
data_MgNi2(MoO4)2
_symmetry_space_group_name_H-M   'P 1'
_cell_length_a   4.85777043
_cell_length_b   5.09936229
_cell_length_c   5.89546900
_cell_angle_alpha   90.00000000
_cell_angle_beta   90.00000000
_cell_angle_gamma   88.48171087
_symmetry_Int_Tables_number   1
_chemical_formula_structural   MgNi2(MoO4)2
_chemical_formula_sum   'Mg1 Ni2 Mo2 O8'
_cell_volume   145.98852324
_cell_formula_units_Z   1
loop_
 _symmetry_equiv_pos_site_id
 _symmetry_equiv_pos_as_xyz
  1  'x, y, z'
loop_
 _atom_site_type_symbol
 _atom_site_label
 _atom_site_symmetry_multiplicity
 _atom_site_fract_x
 _atom_site_fract_y
 _atom_site_fract_z
 _atom_site_occupancy
  Mg  Mg0  1  0.00000000  0.25000000  0.61491000  1
  Ni  Ni0  1  0.50000000  0.25000000  0.64914700  1
  Ni  Ni1  1  0.50000000  0.75000000  0.35459200  1
  Mo  Mo0  1  0.00000000  0.25000000  0.15070300  1
  Mo  Mo1  1  0.00000000  0.75000000  0.84730700  1
  O  O0  1  0.74991500  0.92168000  0.63722600  1
  O  O1  1  0.25008500  0.57832000  0.63722600  1
  O  O2  1  0.25636400  0.09717800  0.38001900  1
  O  O3  1  0.74363600  0.40282200  0.38001900  1
  O  O4  1  0.78672600  0.93335000  0.11381300  1
  O  O5  1  0.21327400  0.56665000  0.11381300  1
  O  O6  1  0.22035000  0.07939100  0.87311300  1
  O  O7  1  0.77965000  0.42060900  0.87311300  1
loop_
_geom_bond_atom_site_label_1
_geom_bond_atom_site_label_2
_geom_bond_distance
_geom_bond_site_symmetry_2
Mg0 O2 2.006100 1_555
Mg0 O3 2.006100 1_455
Mg0 O6 2.042180 1_555
Mg0 O7 2.042180 1_455
Mg0 O0 2.098568 1_445
Mg0 O1 2.098568 1_555
Ni0 O0 2.043066 1_545
Ni0 O1 2.043066 1_555
Ni0 O6 2.099618 1_555
Ni0 O7 2.099618 1_555
Ni0 O3 2.138768 1_555
Ni0 O2 2.138768 1_555
Ni1 O3 2.108659 1_555
Ni1 O2 2.108659 1_565
Ni1 O5 2.213187 1_555
Ni1 O4 2.213187 1_555
Ni1 O1 2.252341 1_555
Ni1 O0 2.252341 1_555
Mo0 O4 1.953617 1_445
Mo0 O5 1.953617 1_555
Mo0 O2 1.983555 1_555
Mo0 O3 1.983555 1_455
Mo0 O6 2.128739 1_554
Mo0 O7 2.128739 1_454
Mo1 O1 1.928701 1_555
Mo1 O0 1.928701 1_455
Mo1 O6 2.021272 1_565
Mo1 O7 2.021272 1_455
Mo1 O4 2.089211 1_456
Mo1 O5 2.089211 1_556
