# generated using pymatgen
data_Al7(TlS4)3
_symmetry_space_group_name_H-M   'P 1'
_cell_length_a   12.45791197
_cell_length_b   9.12346657
_cell_length_c   9.63630231
_cell_angle_alpha   83.96901155
_cell_angle_beta   90.00000000
_cell_angle_gamma   90.00000000
_symmetry_Int_Tables_number   1
_chemical_formula_structural   Al7(TlS4)3
_chemical_formula_sum   'Al14 Tl6 S24'
_cell_volume   1089.19378786
_cell_formula_units_Z   2
loop_
 _symmetry_equiv_pos_site_id
 _symmetry_equiv_pos_as_xyz
  1  'x, y, z'
loop_
 _atom_site_type_symbol
 _atom_site_label
 _atom_site_symmetry_multiplicity
 _atom_site_fract_x
 _atom_site_fract_y
 _atom_site_fract_z
 _atom_site_occupancy
  Al  Al0  1  0.28458747  0.03161958  0.02912074  1
  Al  Al1  1  0.78458747  0.96838042  0.97087926  1
  Al  Al2  1  0.76576889  0.28861213  0.19338389  1
  Al  Al3  1  0.26576889  0.71138787  0.80661611  1
  Al  Al4  1  0.37223925  0.69517860  0.17870495  1
  Al  Al5  1  0.87223925  0.30482140  0.82129505  1
  Al  Al6  1  0.76653185  0.48014926  0.48004590  1
  Al  Al7  1  0.26653185  0.51985074  0.51995410  1
  Al  Al8  1  0.67181453  0.66749238  0.17463608  1
  Al  Al9  1  0.17181453  0.33250762  0.82536392  1
  Al  Al10  1  0.53880691  0.01941075  0.20087347  1
  Al  Al11  1  0.03880691  0.98058925  0.79912653  1
  Al  Al12  1  0.51390500  0.36986728  0.35992300  1
  Al  Al13  1  0.01390500  0.63013272  0.64007700  1
  Tl  Tl0  1  0.25129099  0.03823692  0.47846032  1
  Tl  Tl1  1  0.75129099  0.96176308  0.52153968  1
  Tl  Tl2  1  0.02769107  0.12022762  0.23155959  1
  Tl  Tl3  1  0.52769107  0.87977238  0.76844041  1
  Tl  Tl4  1  0.02520183  0.61974479  0.16530281  1
  Tl  Tl5  1  0.52520183  0.38025521  0.83469719  1
  S  S0  1  0.96077123  0.92781418  0.00551253  1
  S  S1  1  0.20397047  0.24654334  0.04636759  1
  S  S2  1  0.30879058  0.32738395  0.67729155  1
  S  S3  1  0.80879058  0.67261605  0.32270845  1
  S  S4  1  0.70397047  0.75345666  0.95363241  1
  S  S5  1  0.61330481  0.42826966  0.15829407  1
  S  S6  1  0.84578723  0.52686331  0.68842909  1
  S  S7  1  0.34578723  0.47313669  0.31157091  1
  S  S8  1  0.33109487  0.72828869  0.59129240  1
  S  S9  1  0.83109487  0.27171131  0.40870760  1
  S  S10  1  0.59191669  0.47173248  0.53183771  1
  S  S11  1  0.09191669  0.52826752  0.46816229  1
  S  S12  1  0.39634492  0.64476156  0.95758577  1
  S  S13  1  0.89634492  0.35523844  0.04241423  1
  S  S14  1  0.74462534  0.13903180  0.79359163  1
  S  S15  1  0.24462534  0.86096820  0.20640837  1
  S  S16  1  0.52779581  0.77414217  0.27286195  1
  S  S17  1  0.02779581  0.22585783  0.72713805  1
  S  S18  1  0.72094218  0.04904827  0.17443336  1
  S  S19  1  0.22094218  0.95095173  0.82556664  1
  S  S20  1  0.49377510  0.12466529  0.39139853  1
  S  S21  1  0.99377510  0.87533471  0.60860147  1
  S  S22  1  0.11330481  0.57173034  0.84170593  1
  S  S23  1  0.46077123  0.07218582  0.99448747  1
loop_
_geom_bond_atom_site_label_1
_geom_bond_atom_site_label_2
_geom_bond_distance
_geom_bond_site_symmetry_2
Al0 S1 2.224790 1_555
Al0 S15 2.243119 1_545
Al0 S23 2.244974 1_554
Al0 S19 2.306770 1_544
Al1 S4 2.224790 1_555
Al1 S14 2.243119 1_565
Al1 S0 2.244974 1_556
Al1 S18 2.306770 1_566
Al2 S9 2.219047 1_555
Al2 S13 2.224018 1_555
Al2 S18 2.281701 1_555
Al2 S5 2.292367 1_555
Al3 S8 2.219047 1_555
Al3 S12 2.224018 1_555
Al3 S19 2.281701 1_555
Al3 S22 2.292367 1_555
Al4 S15 2.229681 1_555
Al4 S12 2.246754 1_554
Al4 S16 2.288033 1_555
Al4 S7 2.303621 1_555
Al5 S14 2.229681 1_555
Al5 S13 2.246754 1_556
Al5 S17 2.288033 1_655
Al5 S6 2.303621 1_555
Al6 S10 2.231374 1_555
Al6 S9 2.238432 1_555
Al6 S3 2.258283 1_555
Al6 S6 2.317021 1_555
Al7 S11 2.231374 1_555
Al7 S8 2.238432 1_555
Al7 S2 2.258283 1_555
Al7 S7 2.317021 1_555
Al8 S4 2.227118 1_554
Al8 S3 2.228022 1_555
Al8 S16 2.292438 1_555
Al8 S5 2.322028 1_555
Al9 S1 2.227118 1_556
Al9 S2 2.228022 1_555
Al9 S17 2.292438 1_555
Al9 S22 2.322028 1_555
Al10 S23 2.220592 1_554
Al10 S20 2.231162 1_555
Al10 S16 2.276214 1_545
Al10 S18 2.296090 1_555
Al11 S0 2.220592 1_456
Al11 S21 2.231162 1_455
Al11 S17 2.276214 1_565
Al11 S19 2.296090 1_555
Al12 S10 2.208201 1_555
Al12 S20 2.239840 1_555
Al12 S5 2.318377 1_555
Al12 S7 2.323583 1_555
Al13 S11 2.208201 1_555
Al13 S21 2.239840 1_455
Al13 S22 2.318377 1_555
Al13 S6 2.323583 1_455
S0 Tl2 3.053695 1_665
S0 Tl4 3.163167 1_655
S1 Tl2 2.983851 1_555
S2 Tl5 3.155269 1_555
S3 Tl4 3.155269 1_655
S4 Tl3 2.983851 1_555
S8 Tl0 3.085610 1_565
S9 Tl1 3.085610 1_545
S10 Tl5 3.064770 1_555
S11 Tl4 3.064770 1_555
S12 Tl3 3.126595 1_555
S12 Tl5 3.225424 1_555
S13 Tl2 3.126595 1_655
S13 Tl4 3.225424 1_655
S14 Tl1 3.222757 1_545
S15 Tl0 3.222757 1_565
S20 Tl0 3.211248 1_555
S21 Tl1 3.211248 1_555
S23 Tl3 3.053695 1_545
S23 Tl5 3.163167 1_555
