# generated using pymatgen
data_Nb3Se12I
_symmetry_space_group_name_H-M   'P 1'
_cell_length_a   9.72472281
_cell_length_b   9.72472281
_cell_length_c   19.34223283
_cell_angle_alpha   90.00000000
_cell_angle_beta   90.00000000
_cell_angle_gamma   90.00000000
_symmetry_Int_Tables_number   1
_chemical_formula_structural   Nb3Se12I
_chemical_formula_sum   'Nb12 Se48 I4'
_cell_volume   1829.19947962
_cell_formula_units_Z   4
loop_
 _symmetry_equiv_pos_site_id
 _symmetry_equiv_pos_as_xyz
  1  'x, y, z'
loop_
 _atom_site_type_symbol
 _atom_site_label
 _atom_site_symmetry_multiplicity
 _atom_site_fract_x
 _atom_site_fract_y
 _atom_site_fract_z
 _atom_site_occupancy
  Nb  Nb0  1  0.50000000  -0.00000000  0.75000000  1
  Nb  Nb1  1  0.00000000  0.50000000  0.75000000  1
  Nb  Nb2  1  0.50000000  -0.00000000  0.25000000  1
  Nb  Nb3  1  0.00000000  0.50000000  0.25000000  1
  Nb  Nb4  1  0.00000000  0.50000000  0.57950475  1
  Nb  Nb5  1  0.50000000  -0.00000000  0.57950475  1
  Nb  Nb6  1  0.50000000  -0.00000000  0.92049525  1
  Nb  Nb7  1  0.00000000  0.50000000  0.92049525  1
  Nb  Nb8  1  0.00000000  0.50000000  0.42049525  1
  Nb  Nb9  1  0.50000000  -0.00000000  0.42049525  1
  Nb  Nb10  1  0.50000000  -0.00000000  0.07950475  1
  Nb  Nb11  1  0.00000000  0.50000000  0.07950475  1
  Se  Se0  1  0.95397620  0.28890071  0.67196762  1
  Se  Se1  1  0.04602380  0.71109929  0.67196762  1
  Se  Se2  1  0.78890071  0.45397620  0.82803238  1
  Se  Se3  1  0.28890071  0.04602380  0.67196762  1
  Se  Se4  1  0.71109929  0.95397620  0.67196762  1
  Se  Se5  1  0.54602380  0.78890071  0.82803238  1
  Se  Se6  1  0.45397620  0.21109929  0.82803238  1
  Se  Se7  1  0.21109929  0.54602380  0.82803238  1
  Se  Se8  1  0.04602380  0.71109929  0.32803238  1
  Se  Se9  1  0.95397620  0.28890071  0.32803238  1
  Se  Se10  1  0.21109929  0.54602380  0.17196762  1
  Se  Se11  1  0.71109929  0.95397620  0.32803238  1
  Se  Se12  1  0.28890071  0.04602380  0.32803238  1
  Se  Se13  1  0.45397620  0.21109929  0.17196762  1
  Se  Se14  1  0.54602380  0.78890071  0.17196762  1
  Se  Se15  1  0.19626744  0.60719229  0.50000000  1
  Se  Se16  1  0.78890071  0.45397620  0.17196762  1
  Se  Se17  1  0.68191520  0.12488001  0.16036430  1
  Se  Se18  1  0.31808480  0.87511999  0.16036430  1
  Se  Se19  1  0.62488001  0.18191520  0.33963570  1
  Se  Se20  1  0.37511999  0.81808480  0.33963570  1
  Se  Se21  1  0.87511999  0.68191520  0.16036430  1
  Se  Se22  1  0.81808480  0.62488001  0.33963570  1
  Se  Se23  1  0.18191520  0.37511999  0.33963570  1
  Se  Se24  1  0.87511999  0.68191520  0.83963570  1
  Se  Se25  1  0.31808480  0.87511999  0.83963570  1
  Se  Se26  1  0.68191520  0.12488001  0.83963570  1
  Se  Se27  1  0.37511999  0.81808480  0.66036430  1
  Se  Se28  1  0.62488001  0.18191520  0.66036430  1
  Se  Se29  1  0.12488001  0.31808480  0.83963570  1
  Se  Se30  1  0.18191520  0.37511999  0.66036430  1
  Se  Se31  1  0.81808480  0.62488001  0.66036430  1
  Se  Se32  1  0.22060896  0.48346682  -0.00000000  1
  Se  Se33  1  0.51653318  0.22060896  -0.00000000  1
  Se  Se34  1  0.48346682  0.77939104  -0.00000000  1
  Se  Se35  1  0.72060896  0.01653318  0.50000000  1
  Se  Se36  1  0.27939104  0.98346682  0.50000000  1
  Se  Se37  1  0.77939104  0.51653318  -0.00000000  1
  Se  Se38  1  0.98346682  0.72060896  0.50000000  1
  Se  Se39  1  0.01653318  0.27939104  0.50000000  1
  Se  Se40  1  0.89280771  0.30373256  -0.00000000  1
  Se  Se41  1  0.69626744  0.89280771  -0.00000000  1
  Se  Se42  1  0.30373256  0.10719229  -0.00000000  1
  Se  Se43  1  0.39280771  0.19626744  0.50000000  1
  Se  Se44  1  0.60719229  0.80373256  0.50000000  1
  Se  Se45  1  0.10719229  0.69626744  -0.00000000  1
  Se  Se46  1  0.80373256  0.39280771  0.50000000  1
  Se  Se47  1  0.12488001  0.31808480  0.16036430  1
  I  I0  1  0.50000000  0.50000000  0.63235945  1
  I  I1  1  0.00000000  -0.00000000  0.86764055  1
  I  I2  1  0.50000000  0.50000000  0.36764055  1
  I  I3  1  0.00000000  -0.00000000  0.13235945  1
loop_
_geom_bond_atom_site_label_1
_geom_bond_atom_site_label_2
_geom_bond_distance
_geom_bond_site_symmetry_2
Nb0 Se5 2.587024 1_545
Nb0 Se3 2.587024 1_555
Nb0 Se6 2.587024 1_555
Nb0 Se4 2.587024 1_545
Nb0 Se26 2.758687 1_555
Nb0 Se25 2.758687 1_545
Nb0 Se27 2.758687 1_545
Nb0 Se28 2.758687 1_555
Nb1 Se2 2.587024 1_455
Nb1 Se7 2.587024 1_555
Nb1 Se1 2.587024 1_555
Nb1 Se0 2.587024 1_455
Nb1 Se24 2.758687 1_455
Nb1 Se30 2.758687 1_555
Nb1 Se29 2.758687 1_555
Nb1 Se31 2.758687 1_455
Nb2 Se14 2.587024 1_545
Nb2 Se13 2.587024 1_555
Nb2 Se12 2.587024 1_555
Nb2 Se11 2.587024 1_545
Nb2 Se17 2.758687 1_555
Nb2 Se18 2.758687 1_545
Nb2 Se20 2.758687 1_545
Nb2 Se19 2.758687 1_555
Nb3 Se16 2.587024 1_455
Nb3 Se10 2.587024 1_555
Nb3 Se8 2.587024 1_555
Nb3 Se9 2.587024 1_455
Nb3 Se21 2.758687 1_455
Nb3 Se23 2.758687 1_555
Nb3 Se47 2.758687 1_555
Nb3 Se22 2.758687 1_455
Nb4 Se38 2.644476 1_455
Nb4 Se39 2.644476 1_555
Nb4 Se30 2.655289 1_555
Nb4 Se31 2.655289 1_455
Nb4 Se46 2.663529 1_455
Nb4 Se15 2.663529 1_555
Nb4 Se1 2.759195 1_555
Nb4 Se0 2.759195 1_455
Nb5 Se36 2.644476 1_545
Nb5 Se35 2.644476 1_555
Nb5 Se28 2.655289 1_555
Nb5 Se27 2.655289 1_545
Nb5 Se44 2.663529 1_545
Nb5 Se43 2.663529 1_555
Nb5 Se3 2.759195 1_555
Nb5 Se4 2.759195 1_545
Nb6 Se33 2.644476 1_556
Nb6 Se34 2.644476 1_546
Nb6 Se26 2.655289 1_555
Nb6 Se25 2.655289 1_545
Nb6 Se41 2.663529 1_546
Nb6 Se42 2.663529 1_556
Nb6 Se5 2.759195 1_545
Nb6 Se6 2.759195 1_555
Nb7 Se32 2.644476 1_556
Nb7 Se37 2.644476 1_456
Nb7 Se24 2.655289 1_455
Nb7 Se29 2.655289 1_555
Nb7 Se45 2.663529 1_556
Nb7 Se40 2.663529 1_456
Nb7 Se2 2.759195 1_455
Nb7 Se7 2.759195 1_555
Nb8 Se38 2.644476 1_455
Nb8 Se39 2.644476 1_555
Nb8 Se23 2.655289 1_555
Nb8 Se22 2.655289 1_455
Nb8 Se46 2.663529 1_455
Nb8 Se15 2.663529 1_555
Nb8 Se8 2.759195 1_555
Nb8 Se9 2.759195 1_455
Nb9 Se36 2.644476 1_545
Nb9 Se35 2.644476 1_555
Nb9 Se19 2.655289 1_555
Nb9 Se20 2.655289 1_545
Nb9 Se44 2.663529 1_545
Nb9 Se43 2.663529 1_555
Nb9 Se12 2.759195 1_555
Nb9 Se11 2.759195 1_545
Nb10 Se34 2.644476 1_545
Nb10 Se33 2.644476 1_555
Nb10 Se17 2.655289 1_555
Nb10 Se18 2.655289 1_545
Nb10 Se41 2.663529 1_545
Nb10 Se42 2.663529 1_555
Nb10 Se14 2.759195 1_545
Nb10 Se13 2.759195 1_555
Nb11 Se32 2.644476 1_555
Nb11 Se37 2.644476 1_455
Nb11 Se21 2.655289 1_455
Nb11 Se47 2.655289 1_555
Nb11 Se45 2.663529 1_555
Nb11 Se40 2.663529 1_455
Nb11 Se16 2.759195 1_455
Nb11 Se10 2.759195 1_555
Se0 Se30 2.380524 1_655
Se1 Se31 2.380524 1_455
Se2 Se24 2.380524 1_555
Se10 Se47 2.380524 1_555
Se11 Se19 2.380524 1_565
Se12 Se20 2.380524 1_545
Se13 Se17 2.380524 1_555
Se14 Se18 2.380524 1_555
Se15 Se38 2.344998 1_455
Se16 Se21 2.380524 1_555
Se22 Se8 2.380524 1_655
Se23 Se9 2.380524 1_455
Se25 Se5 2.380524 1_555
Se26 Se6 2.380524 1_555
Se27 Se3 2.380524 1_565
Se28 Se4 2.380524 1_545
Se29 Se7 2.380524 1_555
Se32 Se45 2.344998 1_555
Se33 Se42 2.344998 1_555
Se34 Se41 2.344998 1_555
Se35 Se44 2.344998 1_545
Se36 Se43 2.344998 1_565
Se37 Se40 2.344998 1_555
Se39 Se46 2.344998 1_455
I0 Se27 3.366996 1_555
I0 Se28 3.366996 1_555
I0 Se31 3.366996 1_555
I0 Se30 3.366996 1_555
I1 Se29 3.366996 1_555
I1 Se25 3.366996 1_545
I1 Se26 3.366996 1_455
I1 Se24 3.366996 1_445
I2 Se22 3.366996 1_555
I2 Se20 3.366996 1_555
I2 Se23 3.366996 1_555
I2 Se19 3.366996 1_555
I3 Se18 3.366996 1_545
I3 Se47 3.366996 1_555
I3 Se21 3.366996 1_445
I3 Se17 3.366996 1_455
