# generated using pymatgen
data_Fe4P3(HO5)3
_symmetry_space_group_name_H-M   'P 1'
_cell_length_a   10.62396206
_cell_length_b   10.62396206
_cell_length_c   7.56410368
_cell_angle_alpha   78.35073554
_cell_angle_beta   78.35073554
_cell_angle_gamma   41.36760873
_symmetry_Int_Tables_number   1
_chemical_formula_structural   Fe4P3(HO5)3
_chemical_formula_sum   'Fe8 P6 H6 O30'
_cell_volume   550.93393775
_cell_formula_units_Z   2
loop_
 _symmetry_equiv_pos_site_id
 _symmetry_equiv_pos_as_xyz
  1  'x, y, z'
loop_
 _atom_site_type_symbol
 _atom_site_label
 _atom_site_symmetry_multiplicity
 _atom_site_fract_x
 _atom_site_fract_y
 _atom_site_fract_z
 _atom_site_occupancy
  Fe  Fe0  1  0.17953600  0.15841400  0.64817000  1
  Fe  Fe1  1  0.84158600  0.82046400  0.85183000  1
  Fe  Fe2  1  0.82046400  0.84158600  0.35183000  1
  Fe  Fe3  1  0.15841400  0.17953600  0.14817000  1
  Fe  Fe4  1  0.64823000  0.19976300  0.65571300  1
  Fe  Fe5  1  0.80023700  0.35177000  0.84428700  1
  Fe  Fe6  1  0.35177000  0.80023700  0.34428700  1
  Fe  Fe7  1  0.19976300  0.64823000  0.15571300  1
  P  P0  1  0.88682300  0.11317700  0.25000000  1
  P  P1  1  0.11317700  0.88682300  0.75000000  1
  P  P2  1  0.46705700  0.19527100  0.08653200  1
  P  P3  1  0.80472900  0.53294300  0.41346800  1
  P  P4  1  0.53294300  0.80472900  0.91346800  1
  P  P5  1  0.19527100  0.46705700  0.58653200  1
  H  H0  1  0.49176900  0.50823100  0.75000000  1
  H  H1  1  0.50823100  0.49176900  0.25000000  1
  H  H2  1  0.41169300  0.99537500  0.37627900  1
  H  H3  1  0.00462500  0.58830700  0.12372100  1
  H  H4  1  0.58830700  0.00462500  0.62372100  1
  H  H5  1  0.99537500  0.41169300  0.87627900  1
  O  O0  1  0.22893700  0.30262400  0.56364500  1
  O  O1  1  0.69737600  0.77106300  0.93635500  1
  O  O2  1  0.77106300  0.69737600  0.43635500  1
  O  O3  1  0.30262400  0.22893700  0.06364500  1
  O  O4  1  0.05311900  0.07225800  0.76022800  1
  O  O5  1  0.92774200  0.94688100  0.73977200  1
  O  O6  1  0.94688100  0.92774200  0.23977200  1
  O  O7  1  0.07225800  0.05311900  0.26022800  1
  O  O8  1  0.37756800  0.62243200  0.25000000  1
  O  O9  1  0.62243200  0.37756800  0.75000000  1
  O  O10  1  0.29114000  0.03555600  0.40079400  1
  O  O11  1  0.96444400  0.70886000  0.09920600  1
  O  O12  1  0.70886000  0.96444400  0.59920600  1
  O  O13  1  0.03555600  0.29114000  0.90079400  1
  O  O14  1  0.74747800  0.21307000  0.41653300  1
  O  O15  1  0.78693000  0.25252200  0.08346700  1
  O  O16  1  0.25252200  0.78693000  0.58346700  1
  O  O17  1  0.21307000  0.74747800  0.91653300  1
  O  O18  1  0.38911000  0.38524900  0.10500900  1
  O  O19  1  0.61475100  0.61089000  0.39499100  1
  O  O20  1  0.61089000  0.61475100  0.89499100  1
  O  O21  1  0.38524900  0.38911000  0.60500900  1
  O  O22  1  0.94601100  0.42644200  0.24670000  1
  O  O23  1  0.57355800  0.05398900  0.25330000  1
  O  O24  1  0.05398900  0.57355800  0.75330000  1
  O  O25  1  0.42644200  0.94601100  0.74670000  1
  O  O26  1  0.10371000  0.61247400  0.41494900  1
  O  O27  1  0.38752600  0.89629000  0.08505100  1
  O  O28  1  0.89629000  0.38752600  0.58505100  1
  O  O29  1  0.61247400  0.10371000  0.91494900  1
loop_
_geom_bond_atom_site_label_1
_geom_bond_atom_site_label_2
_geom_bond_distance
_geom_bond_site_symmetry_2
Fe0 O0 1.925441 1_555
Fe0 O25 1.937531 1_545
Fe0 O28 2.079615 1_455
Fe0 O10 2.092425 1_555
Fe0 O4 2.105272 1_555
Fe0 O13 2.156347 1_555
Fe1 O1 1.925441 1_555
Fe1 O24 1.937531 1_655
Fe1 O29 2.079615 1_565
Fe1 O11 2.092425 1_556
Fe1 O5 2.105272 1_555
Fe1 O12 2.156347 1_555
Fe2 O2 1.925441 1_555
Fe2 O23 1.937531 1_565
Fe2 O26 2.079615 1_655
Fe2 O12 2.092425 1_555
Fe2 O6 2.105272 1_555
Fe2 O11 2.156347 1_555
Fe3 O3 1.925441 1_555
Fe3 O22 1.937531 1_455
Fe3 O27 2.079615 1_545
Fe3 O13 2.092425 1_554
Fe3 O7 2.105272 1_555
Fe3 O10 2.156347 1_555
Fe4 O21 1.919611 1_555
Fe4 O14 1.937777 1_555
Fe4 O9 1.959615 1_555
Fe4 O29 2.122184 1_555
Fe4 O5 2.130307 1_545
Fe4 O12 2.179673 1_545
Fe5 O20 1.919611 1_555
Fe5 O15 1.937777 1_556
Fe5 O9 1.959615 1_555
Fe5 O28 2.122184 1_555
Fe5 O4 2.130307 1_655
Fe5 O13 2.179673 1_655
Fe6 O19 1.919611 1_555
Fe6 O16 1.937777 1_555
Fe6 O8 1.959615 1_555
Fe6 O27 2.122184 1_555
Fe6 O7 2.130307 1_565
Fe6 O10 2.179673 1_565
Fe7 O18 1.919611 1_555
Fe7 O17 1.937777 1_554
Fe7 O8 1.959615 1_555
Fe7 O26 2.122184 1_555
Fe7 O6 2.130307 1_455
Fe7 O11 2.179673 1_455
H0 O9 0.980624 1_555
H1 O8 0.980624 1_555
H2 O10 0.986088 1_565
H3 O11 0.986088 1_455
H4 O12 0.986088 1_545
H5 O13 0.986088 1_655
O0 P5 1.539141 1_555
O1 P4 1.539141 1_555
O2 P3 1.539141 1_555
O3 P2 1.539141 1_555
O4 P1 1.564963 1_545
O5 P1 1.564963 1_655
O6 P0 1.564963 1_565
O7 P0 1.564963 1_455
O14 P0 1.527499 1_555
O15 P0 1.527499 1_555
O16 P1 1.527499 1_555
O17 P1 1.527499 1_555
O18 P2 1.528852 1_555
O19 P3 1.528852 1_555
O20 P4 1.528852 1_555
O21 P5 1.528852 1_555
O22 P3 1.545011 1_555
O23 P2 1.545011 1_555
O24 P5 1.545011 1_555
O25 P4 1.545011 1_555
O26 P5 1.569041 1_555
O27 P4 1.569041 1_554
O28 P3 1.569041 1_555
O29 P2 1.569041 1_556
