# generated using pymatgen
data_Y2Co7
_symmetry_space_group_name_H-M   'P 1'
_cell_length_a   4.96081049
_cell_length_b   4.95870854
_cell_length_c   12.24759193
_cell_angle_alpha   78.13703081
_cell_angle_beta   78.11719341
_cell_angle_gamma   61.98458792
_symmetry_Int_Tables_number   1
_chemical_formula_structural   Y2Co7
_chemical_formula_sum   'Y4 Co14'
_cell_volume   258.20328896
_cell_formula_units_Z   2
loop_
 _symmetry_equiv_pos_site_id
 _symmetry_equiv_pos_as_xyz
  1  'x, y, z'
loop_
 _atom_site_type_symbol
 _atom_site_label
 _atom_site_symmetry_multiplicity
 _atom_site_fract_x
 _atom_site_fract_y
 _atom_site_fract_z
 _atom_site_occupancy
  Y  Y0  1  0.05197313  0.05192662  0.84421752  1
  Y  Y1  1  0.94802687  0.94807338  0.15578248  1
  Y  Y2  1  0.15099074  0.15093680  0.55219867  1
  Y  Y3  1  0.84900926  0.84906320  0.44780133  1
  Co  Co0  1  0.50000000  0.50000000  0.50000000  1
  Co  Co1  1  0.27448954  0.27448538  0.16672146  1
  Co  Co2  1  0.72551046  0.72551462  0.83327854  1
  Co  Co3  1  0.38316228  0.38308397  0.84067217  1
  Co  Co4  1  0.61683772  0.61691603  0.15932783  1
  Co  Co5  1  0.50000000  0.50000000  -0.00000000  1
  Co  Co6  1  0.50000000  0.00000000  -0.00000000  1
  Co  Co7  1  0.00000000  0.50000000  -0.00000000  1
  Co  Co8  1  0.11494262  0.60844736  0.67419487  1
  Co  Co9  1  0.60433393  0.60423136  0.67480168  1
  Co  Co10  1  0.60849392  0.11496218  0.67418651  1
  Co  Co11  1  0.88505738  0.39155264  0.32580513  1
  Co  Co12  1  0.39566607  0.39576864  0.32519832  1
  Co  Co13  1  0.39150608  0.88503782  0.32581349  1
loop_
_geom_bond_atom_site_label_1
_geom_bond_atom_site_label_2
_geom_bond_distance
_geom_bond_site_symmetry_2
Y0 Y2 3.472030 1_555
Y0 Y1 3.704528 1_446
Y1 Y3 3.472030 1_555
Y2 Y3 3.130840 1_445
Y2 Y3 3.155994 1_455
Y2 Y3 3.156000 1_545
Co0 Co9 2.506205 1_555
Co0 Co12 2.506205 1_555
Co0 Co11 2.513586 1_555
Co0 Co8 2.513586 1_555
Co0 Co10 2.513790 1_555
Co0 Co13 2.513790 1_555
Co0 Y3 2.882162 1_555
Co0 Y2 2.882162 1_555
Co0 Y2 2.994613 1_565
Co0 Y3 2.994613 1_545
Co0 Y3 2.996350 1_455
Co0 Y2 2.996350 1_655
Co1 Co11 2.393074 1_455
Co1 Co13 2.393448 1_545
Co1 Co12 2.406333 1_555
Co1 Co5 2.442787 1_555
Co1 Co6 2.458680 1_555
Co1 Co7 2.459672 1_555
Co1 Y1 2.810984 1_445
Co1 Co4 2.891069 1_555
Co1 Co4 2.894904 1_545
Co1 Co4 2.896476 1_455
Co1 Y1 2.936140 1_455
Co1 Y1 2.937051 1_545
Co2 Co8 2.393074 1_655
Co2 Co9 2.406333 1_555
Co2 Co5 2.442787 1_556
Co2 Co6 2.458680 1_566
Co2 Co7 2.459672 1_656
Co2 Y0 2.810984 1_665
Co2 Co3 2.891069 1_555
Co2 Co3 2.894904 1_565
Co2 Co3 2.896476 1_655
Co2 Y0 2.936140 1_655
Co2 Y0 2.937051 1_565
Co3 Co7 2.378953 1_556
Co3 Co6 2.379021 1_556
Co3 Co5 2.393020 1_556
Co3 Co9 2.414508 1_555
Co3 Co8 2.441350 1_555
Co3 Y0 2.805985 1_555
Co3 Y0 2.934607 1_565
Co3 Y0 2.935697 1_655
Co4 Co7 2.378953 1_655
Co4 Co6 2.379021 1_565
Co4 Co5 2.393020 1_555
Co4 Y1 2.805985 1_555
Co4 Y1 2.934607 1_545
Co4 Y1 2.935697 1_455
Co5 Co6 2.479354 1_555
Co5 Co6 2.479354 1_565
Co5 Co7 2.480405 1_655
Co5 Co7 2.480405 1_555
Co5 Y1 3.154507 1_455
Co5 Y0 3.154507 1_654
Co5 Y0 3.155249 1_564
Co5 Y1 3.155249 1_545
Co6 Co7 2.553893 1_645
Co6 Co7 2.553893 1_555
Co6 Y0 3.084375 1_654
Co6 Y1 3.084375 1_445
Co6 Y1 3.106963 1_545
Co6 Y0 3.106963 1_554
Co7 Y0 3.083909 1_564
Co7 Y1 3.083909 1_445
Co7 Y0 3.105747 1_554
Co7 Y1 3.105747 1_455
Co8 Co9 2.419562 1_555
Co8 Co9 2.541393 1_455
Co8 Y2 2.861850 1_565
Co8 Y2 2.883371 1_555
Co8 Y3 3.085422 1_455
Co8 Y0 3.198225 1_555
Co8 Y0 3.199897 1_565
Co9 Y2 2.940369 1_655
Co9 Y2 2.941333 1_565
Co9 Y3 3.046903 1_555
Co9 Y0 3.252688 1_565
Co9 Y0 3.253475 1_655
Co10 Co2 2.393448 1_545
Co10 Co9 2.418072 1_555
Co10 Co3 2.440228 1_555
Co10 Co8 2.520786 1_555
Co10 Co9 2.540779 1_545
Co10 Co8 2.587001 1_645
Co10 Y2 2.862213 1_655
Co10 Y2 2.884714 1_555
Co10 Y3 3.084250 1_545
Co10 Y0 3.198711 1_555
Co10 Y0 3.201182 1_655
Co11 Co12 2.419562 1_555
Co11 Co4 2.441350 1_555
Co11 Co13 2.520786 1_555
Co11 Co12 2.541393 1_655
Co11 Co13 2.587001 1_645
Co11 Y3 2.861850 1_545
Co11 Y3 2.883371 1_555
Co11 Y2 3.085422 1_655
Co11 Y1 3.198225 1_555
Co11 Y1 3.199897 1_545
Co12 Co4 2.414508 1_555
Co12 Co13 2.418072 1_555
Co12 Co13 2.540779 1_545
Co12 Y3 2.940369 1_455
Co12 Y3 2.941333 1_545
Co12 Y2 3.046903 1_555
Co12 Y1 3.252688 1_545
Co12 Y1 3.253475 1_455
Co13 Co4 2.440228 1_555
Co13 Y3 2.862213 1_455
Co13 Y3 2.884714 1_555
Co13 Y2 3.084250 1_565
Co13 Y1 3.198711 1_555
Co13 Y1 3.201182 1_455
