# generated using pymatgen
data_Na7Ca3TiP5SO24
_symmetry_space_group_name_H-M   'P 1'
_cell_length_a   9.33675300
_cell_length_b   9.34274689
_cell_length_c   22.58420082
_cell_angle_alpha   90.17196889
_cell_angle_beta   90.06769012
_cell_angle_gamma   120.09519850
_symmetry_Int_Tables_number   1
_chemical_formula_structural   Na7Ca3TiP5SO24
_chemical_formula_sum   'Na21 Ca9 Ti3 P15 S3 O72'
_cell_volume   1704.45033400
_cell_formula_units_Z   3
loop_
 _symmetry_equiv_pos_site_id
 _symmetry_equiv_pos_as_xyz
  1  'x, y, z'
loop_
 _atom_site_type_symbol
 _atom_site_label
 _atom_site_symmetry_multiplicity
 _atom_site_fract_x
 _atom_site_fract_y
 _atom_site_fract_z
 _atom_site_occupancy
  Na  Na0  1  0.62274058  0.99934853  0.25119652  1
  Na  Na1  1  0.36535538  0.35194193  0.25301045  1
  Na  Na2  1  0.01231748  0.64777125  0.24954207  1
  Na  Na3  1  0.65124454  0.64685738  0.75246036  1
  Na  Na4  1  0.99503047  0.35171353  0.75284842  1
  Na  Na5  1  0.29841159  0.34403339  0.58442324  1
  Na  Na6  1  0.02927923  0.69386432  0.58695471  1
  Na  Na7  1  0.66968990  0.95594756  0.58382917  1
  Na  Na8  1  0.29763876  0.96069272  0.07766557  1
  Na  Na9  1  0.66024221  0.69825853  0.07248841  1
  Na  Na10  1  0.04206600  0.34029974  0.07350554  1
  Na  Na11  1  0.97698411  0.67255013  0.90911756  1
  Na  Na12  1  0.32519195  0.29959479  0.90905435  1
  Na  Na13  1  0.33561932  0.02162531  0.41501948  1
  Na  Na14  1  0.68866779  0.67346953  0.42084517  1
  Na  Na15  1  0.99380938  0.01373032  0.49640250  1
  Na  Na16  1  0.98340867  0.00060040  0.99279958  1
  Na  Na17  1  0.65245380  0.30674534  0.83002389  1
  Na  Na18  1  0.66465422  0.31909813  0.33886929  1
  Na  Na19  1  0.33139186  0.67594785  0.16021265  1
  Na  Na20  1  0.33362105  0.67184122  0.67342124  1
  Ca  Ca0  1  0.00670450  0.00979672  0.35239863  1
  Ca  Ca1  1  0.99719096  0.00079605  0.84890385  1
  Ca  Ca2  1  0.99845860  0.99778585  0.65804591  1
  Ca  Ca3  1  0.00582266  0.99958258  0.14406379  1
  Ca  Ca4  1  0.66176421  0.33123916  0.68694883  1
  Ca  Ca5  1  0.66283021  0.33042763  0.17930204  1
  Ca  Ca6  1  0.33780747  0.67034854  0.01001402  1
  Ca  Ca7  1  0.32908687  0.65997165  0.51185675  1
  Ca  Ca8  1  0.32986175  0.66628501  0.32787239  1
  Ti  Ti0  1  0.66757874  0.32796542  0.98063420  1
  Ti  Ti1  1  0.68531385  0.34590221  0.48149545  1
  Ti  Ti2  1  0.33656805  0.67869568  0.81908607  1
  P  P0  1  0.30581755  0.99577871  0.25010989  1
  P  P1  1  0.30684586  0.32488695  0.75489529  1
  P  P2  1  0.01310657  0.69328929  0.75316971  1
  P  P3  1  0.68188861  0.98710014  0.75080062  1
  P  P4  1  0.95774057  0.33128954  0.58297929  1
  P  P5  1  0.66928749  0.62693398  0.58126862  1
  P  P6  1  0.95707613  0.62421318  0.08069284  1
  P  P7  1  0.66858491  0.04223642  0.08111270  1
  P  P8  1  0.37469029  0.33402938  0.07995236  1
  P  P9  1  0.62979613  0.65228577  0.91874466  1
  P  P10  1  0.02751942  0.37262419  0.91939102  1
  P  P11  1  0.34490644  0.97193166  0.91950071  1
  P  P12  1  0.64187478  0.98662969  0.42069779  1
  P  P13  1  0.35046315  0.35668319  0.42013931  1
  P  P14  1  0.01644320  0.66206281  0.41820223  1
  S  S0  1  0.69405803  0.69799754  0.25032827  1
  S  S1  1  0.00273567  0.30671335  0.24783782  1
  S  S2  1  0.37213148  0.04195100  0.57892429  1
  O  O0  1  0.21601784  0.00769103  0.30547069  1
  O  O1  1  0.79003671  0.78526594  0.30375270  1
  O  O2  1  0.98426973  0.20086026  0.29875125  1
  O  O3  1  0.22074061  0.21750331  0.80849657  1
  O  O4  1  0.98365517  0.77870328  0.80559056  1
  O  O5  1  0.80599408  0.01350604  0.79914190  1
  O  O6  1  0.73493174  0.94121241  0.69131007  1
  O  O7  1  0.20329083  0.25325879  0.69694182  1
  O  O8  1  0.04013662  0.78768615  0.69419422  1
  O  O9  1  0.77591166  0.79504717  0.19619636  1
  O  O10  1  0.01369005  0.22794819  0.19201869  1
  O  O11  1  0.20590634  0.98230090  0.19330390  1
  O  O12  1  0.88028401  0.34273033  0.64074655  1
  O  O13  1  0.46905451  0.12108011  0.63230639  1
  O  O14  1  0.65249631  0.53358783  0.63845327  1
  O  O15  1  0.88569655  0.53879043  0.14004939  1
  O  O16  1  0.65572727  0.11200045  0.14109044  1
  O  O17  1  0.46031708  0.34940609  0.13959190  1
  O  O18  1  0.48614731  0.32727579  0.02777768  1
  O  O19  1  0.84058978  0.51134631  0.02794356  1
  O  O20  1  0.67140469  0.16208526  0.03018260  1
  O  O21  1  0.46049701  0.13906806  0.52502911  1
  O  O22  1  0.67228845  0.51614607  0.52752566  1
  O  O23  1  0.84051712  0.33021972  0.53077536  1
  O  O24  1  0.56307963  0.67569146  0.97709065  1
  O  O25  1  0.11998847  0.44363053  0.97751070  1
  O  O26  1  0.31391656  0.87978973  0.97767150  1
  O  O27  1  0.55393218  0.87593711  0.47410550  1
  O  O28  1  0.33171076  0.44324909  0.47446273  1
  O  O29  1  0.12918677  0.69234577  0.47146746  1
  O  O30  1  0.08382645  0.63216288  0.36018647  1
  O  O31  1  0.53417206  0.91772880  0.36362654  1
  O  O32  1  0.37951474  0.46041907  0.36302281  1
  O  O33  1  0.12333760  0.49632475  0.86708861  1
  O  O34  1  0.35884652  0.86113285  0.86866563  1
  O  O35  1  0.50885166  0.63528841  0.86651951  1
  O  O36  1  0.97919303  0.80540909  0.41496267  1
  O  O37  1  0.81192117  0.00021605  0.41495943  1
  O  O38  1  0.20462593  0.17773578  0.41694994  1
  O  O39  1  0.01028810  0.20188070  0.91089455  1
  O  O40  1  0.19831694  0.00046581  0.90852442  1
  O  O41  1  0.81018879  0.79201078  0.91098339  1
  O  O42  1  0.96595851  0.16991468  0.57726552  1
  O  O43  1  0.20649380  0.03186652  0.58085617  1
  O  O44  1  0.83392953  0.79540331  0.57756525  1
  O  O45  1  0.95956498  0.79156700  0.07552870  1
  O  O46  1  0.83207767  0.03806846  0.07519082  1
  O  O47  1  0.20488254  0.17081343  0.07513255  1
  O  O48  1  0.66013277  0.13857950  0.74802795  1
  O  O49  1  0.48690449  0.36159652  0.75088807  1
  O  O50  1  0.86559935  0.51322371  0.75047969  1
  O  O51  1  0.68138239  0.53193422  0.24917325  1
  O  O52  1  0.85673105  0.33181557  0.24819780  1
  O  O53  1  0.48199450  0.15468941  0.25098083  1
  O  O54  1  0.63159424  0.48146827  0.92066068  1
  O  O55  1  0.85171180  0.36219867  0.92327053  1
  O  O56  1  0.50813275  0.14631520  0.92179212  1
  O  O57  1  0.65719018  0.16180148  0.42985681  1
  O  O58  1  0.51349009  0.34352731  0.42615624  1
  O  O59  1  0.84013932  0.50004361  0.42731051  1
  O  O60  1  0.35134285  0.48624786  0.07606156  1
  O  O61  1  0.13375759  0.65000780  0.07692421  1
  O  O62  1  0.51580087  0.86728272  0.07651610  1
  O  O63  1  0.34639946  0.87057386  0.57643668  1
  O  O64  1  0.51806219  0.65228786  0.57628363  1
  O  O65  1  0.13166842  0.48662839  0.57763309  1
  O  O66  1  0.32353937  0.83749788  0.25127665  1
  O  O67  1  0.52374351  0.67570604  0.25251734  1
  O  O68  1  0.15798364  0.47169481  0.25235359  1
  O  O69  1  0.31570654  0.49950334  0.76386657  1
  O  O70  1  0.17471616  0.67969057  0.76426318  1
  O  O71  1  0.50913220  0.82521425  0.76580721  1
loop_
_geom_bond_atom_site_label_1
_geom_bond_atom_site_label_2
_geom_bond_distance
_geom_bond_site_symmetry_2
Na0 O53 2.397063 1_565
Na0 O66 2.419546 1_555
Na0 O16 2.660540 1_565
Na0 O31 2.663972 1_555
Na0 O67 2.682495 1_555
Na0 O52 2.760759 1_565
Na1 O51 2.562634 1_555
Na1 O53 2.568391 1_555
Na1 O67 2.617422 1_555
Na1 O32 2.658438 1_555
Na1 O68 2.678296 1_555
Na1 O17 2.715486 1_555
Na2 O66 2.533966 1_555
Na2 O52 2.554162 1_455
Na2 O68 2.608468 1_555
Na2 O30 2.609023 1_555
Na2 O15 2.705534 1_455
Na2 O51 2.713824 1_455
Na3 O49 2.314452 1_555
Na3 O71 2.615998 1_555
Na3 O69 2.730380 1_555
Na3 O14 2.783079 1_555
Na3 O6 2.819767 1_555
Na3 O50 2.841140 1_555
Na3 O35 2.877553 1_555
Na3 O4 2.955998 1_555
Na4 O50 2.359930 1_555
Na4 O69 2.604435 1_655
Na4 O70 2.666293 1_655
Na4 O12 2.732519 1_555
Na4 O48 2.740037 1_555
Na4 O7 2.830872 1_655
Na4 O33 2.874998 1_655
Na4 O5 2.936609 1_555
Na5 O65 2.510537 1_555
Na5 O64 2.571880 1_555
Na5 O43 2.595615 1_555
Na5 O28 2.617182 1_555
Na5 O7 2.688551 1_555
Na5 O42 2.690853 1_455
Na6 O44 2.450956 1_455
Na6 O8 2.557709 1_555
Na6 O65 2.561482 1_555
Na6 O63 2.578863 1_555
Na6 O43 2.737137 1_565
Na6 O29 2.773406 1_555
Na7 O64 2.459780 1_555
Na7 O42 2.475288 1_565
Na7 O6 2.522846 1_555
Na7 O44 2.631964 1_555
Na7 O27 2.653265 1_555
Na7 O63 2.712708 1_555
Na8 O26 2.408328 1_554
Na8 O61 2.512448 1_555
Na8 O47 2.512501 1_565
Na8 O62 2.587295 1_555
Na8 O45 2.731271 1_455
Na8 O11 2.787525 1_555
Na9 O24 2.304357 1_554
Na9 O45 2.476069 1_555
Na9 O62 2.540859 1_555
Na9 O60 2.553505 1_555
Na9 O46 2.747232 1_565
Na9 O9 2.964445 1_555
Na10 O25 2.339506 1_554
Na10 O60 2.500288 1_555
Na10 O46 2.503464 1_455
Na10 O61 2.574020 1_555
Na10 O47 2.689601 1_555
Na10 O10 2.841730 1_555
Na11 O41 2.327164 1_555
Na11 O4 2.531082 1_555
Na11 O55 2.546136 1_555
Na11 O40 2.703254 1_665
Na11 O33 2.780084 1_655
Na11 O54 2.808139 1_555
Na12 O40 2.427622 1_555
Na12 O3 2.435370 1_555
Na12 O54 2.502134 1_555
Na12 O39 2.605466 1_555
Na12 O56 2.739606 1_555
Na12 O35 2.885841 1_555
Na12 O18 3.018453 1_556
Na13 O38 2.326732 1_555
Na13 O58 2.617552 1_555
Na13 O57 2.625566 1_555
Na13 O0 2.689000 1_555
Na13 O21 2.725766 1_555
Na13 O31 2.743914 1_545
Na13 O36 2.900599 1_445
Na13 O29 2.981115 1_545
Na14 O36 2.354494 1_555
Na14 O59 2.635473 1_555
Na14 O58 2.671727 1_555
Na14 O37 2.672207 1_565
Na14 O22 2.790196 1_555
Na14 O1 2.830350 1_555
Na14 O32 2.865760 1_555
Na14 O27 2.997320 1_555
Na15 O42 2.428502 1_555
Na15 O37 2.461562 1_555
Na15 O38 2.538135 1_655
Na15 O44 2.593095 1_545
Na15 O36 2.626990 1_545
Na15 O43 2.694731 1_655
Na16 O46 2.465689 1_556
Na16 O39 2.563121 1_655
Na16 O41 2.576461 1_545
Na16 O47 2.633945 1_656
Na16 O45 2.634622 1_546
Na16 O40 2.767719 1_655
Na17 O48 2.449208 1_555
Na17 O56 2.521379 1_555
Na17 O49 2.576682 1_555
Na17 O50 2.662360 1_555
Na17 O55 2.679919 1_555
Na17 O54 2.681866 1_555
Na18 O58 2.501413 1_555
Na18 O57 2.510542 1_555
Na18 O53 2.560132 1_555
Na18 O59 2.593474 1_555
Na18 O52 2.687006 1_555
Na18 O51 2.792024 1_555
Na19 O61 2.557826 1_555
Na19 O66 2.570167 1_555
Na19 O62 2.583452 1_555
Na19 O60 2.664464 1_555
Na19 O68 2.743441 1_555
Na19 O67 2.750696 1_555
Na20 O70 2.555592 1_555
Na20 O69 2.557978 1_555
Na20 O71 2.590567 1_555
Na20 O65 2.815183 1_555
Na20 O63 2.839361 1_555
Na20 O64 2.851948 1_555
Ca0 O0 2.232995 1_555
Ca0 O38 2.252578 1_555
Ca0 O2 2.255131 1_455
Ca0 O37 2.270528 1_455
Ca0 O36 2.287778 1_445
Ca0 O1 2.329151 1_445
Ca1 O5 2.161607 1_555
Ca1 O4 2.236698 1_545
Ca1 O3 2.250781 1_655
Ca1 O39 2.292999 1_655
Ca1 O40 2.310684 1_655
Ca1 O41 2.329316 1_545
Ca2 O8 2.333628 1_655
Ca2 O7 2.351953 1_665
Ca2 O6 2.366483 1_555
Ca2 O44 2.509666 1_555
Ca2 O43 2.510831 1_665
Ca2 O42 2.551907 1_565
Ca3 O11 2.247510 1_555
Ca3 O47 2.340297 1_565
Ca3 O45 2.344735 1_455
Ca3 O9 2.356155 1_455
Ca3 O10 2.357793 1_565
Ca3 O46 2.400547 1_465
Ca4 O14 2.226488 1_555
Ca4 O12 2.247000 1_555
Ca4 O13 2.247826 1_555
Ca4 O48 2.265037 1_555
Ca4 O49 2.301862 1_555
Ca4 O50 2.303307 1_555
Ca5 O17 2.178092 1_555
Ca5 O16 2.183390 1_555
Ca5 O15 2.204014 1_555
Ca5 O53 2.325795 1_555
Ca5 O52 2.380842 1_555
Ca5 O51 2.391401 1_555
Ca6 O25 2.197383 1_554
Ca6 O26 2.204112 1_554
Ca6 O24 2.208596 1_554
Ca6 O62 2.305170 1_555
Ca6 O60 2.330730 1_555
Ca6 O61 2.365302 1_555
Ca7 O28 2.202972 1_555
Ca7 O29 2.229533 1_555
Ca7 O27 2.229744 1_555
Ca7 O65 2.292217 1_555
Ca7 O64 2.314523 1_555
Ca7 O63 2.384958 1_555
Ca8 O30 2.276431 1_555
Ca8 O31 2.302254 1_555
Ca8 O32 2.333864 1_555
Ca8 O66 2.380265 1_555
Ca8 O68 2.416265 1_555
Ca8 O67 2.455461 1_555
O0 P0 1.540709 1_545
O1 S0 1.477283 1_555
O2 S1 1.471799 1_655
O3 P1 1.522817 1_555
O4 P2 1.526160 1_655
O5 P3 1.517949 1_545
O6 P3 1.563725 1_555
O7 P1 1.561592 1_555
O8 P2 1.549230 1_555
O9 S0 1.488182 1_555
O10 S1 1.487075 1_555
O11 P0 1.552526 1_555
O12 P4 1.521644 1_555
O13 S2 1.462893 1_555
O14 P5 1.524194 1_555
O15 P6 1.534017 1_555
O16 P7 1.532187 1_555
O17 P8 1.534627 1_555
O18 P8 1.594890 1_555
O18 Ti0 1.999137 1_554
O19 P6 1.597891 1_555
O19 Ti0 1.973753 1_554
O20 P7 1.598654 1_555
O20 Ti0 1.929016 1_554
O21 S2 1.497914 1_555
O21 Ti1 2.248386 1_555
O22 P5 1.602166 1_555
O22 Ti1 1.951836 1_555
O23 P4 1.604342 1_555
O23 Ti1 1.889468 1_555
O24 P9 1.519535 1_555
O25 P10 1.525145 1_555
O26 P11 1.519407 1_555
O27 P12 1.535184 1_555
O28 P13 1.525280 1_555
O29 P14 1.526930 1_555
O30 P14 1.538371 1_555
O31 P12 1.558735 1_555
O32 P13 1.556114 1_555
O33 P10 1.582737 1_555
O33 Ti2 2.157833 1_555
O34 P11 1.592140 1_555
O34 Ti2 1.958228 1_555
O35 P9 1.583477 1_555
O35 Ti2 2.133609 1_555
O36 P14 1.545171 1_655
O37 P12 1.533660 1_545
O38 P13 1.539610 1_555
O39 P10 1.532356 1_555
O40 P11 1.539900 1_545
O41 P9 1.539057 1_555
O42 P4 1.552586 1_555
O43 S2 1.502184 1_555
O44 P5 1.556283 1_555
O45 P6 1.556752 1_555
O46 P7 1.552303 1_555
O47 P8 1.557175 1_555
O48 P3 1.528683 1_545
O49 P1 1.540918 1_555
O50 P2 1.551200 1_655
O51 S0 1.495796 1_555
O52 S1 1.494672 1_655
O53 P0 1.568740 1_545
O54 P9 1.605101 1_555
O54 Ti0 2.120847 1_555
O55 P10 1.597386 1_655
O55 Ti0 2.047589 1_555
O56 P11 1.577610 1_545
O56 Ti0 2.076159 1_555
O57 P12 1.582671 1_545
O57 Ti1 1.980335 1_555
O58 P13 1.593025 1_555
O58 Ti1 2.023752 1_555
O59 P14 1.595952 1_655
O59 Ti1 1.894219 1_555
O60 P8 1.545745 1_555
O61 P6 1.545434 1_455
O62 P7 1.541972 1_565
O63 S2 1.496045 1_565
O64 P5 1.548418 1_555
O65 P4 1.547869 1_455
O66 P0 1.568588 1_555
O67 S0 1.497539 1_555
O68 S1 1.498456 1_555
O69 P1 1.603737 1_555
O69 Ti2 2.013904 1_555
O70 P2 1.596017 1_555
O70 Ti2 1.956126 1_555
O71 P3 1.600590 1_555
O71 Ti2 1.928783 1_555
