# generated using pymatgen
data_MgCuPdO2
_symmetry_space_group_name_H-M   'P 1'
_cell_length_a   4.44051674
_cell_length_b   2.94609987
_cell_length_c   5.75054160
_cell_angle_alpha   90.00000000
_cell_angle_beta   90.00000000
_cell_angle_gamma   90.00000000
_symmetry_Int_Tables_number   1
_chemical_formula_structural   MgCuPdO2
_chemical_formula_sum   'Mg1 Cu1 Pd1 O2'
_cell_volume   75.22976862
_cell_formula_units_Z   1
loop_
 _symmetry_equiv_pos_site_id
 _symmetry_equiv_pos_as_xyz
  1  'x, y, z'
loop_
 _atom_site_type_symbol
 _atom_site_label
 _atom_site_symmetry_multiplicity
 _atom_site_fract_x
 _atom_site_fract_y
 _atom_site_fract_z
 _atom_site_occupancy
  Mg  Mg0  1  0.00000000  0.00000000  0.50000000  1
  Cu  Cu0  1  0.50000000  0.50000000  0.50000000  1
  Pd  Pd0  1  0.00000000  0.00000000  -0.00000000  1
  O  O0  1  0.00000000  0.50000000  0.74403459  1
  O  O1  1  0.00000000  0.50000000  0.25596541  1
loop_
_geom_bond_atom_site_label_1
_geom_bond_atom_site_label_2
_geom_bond_distance
_geom_bond_site_symmetry_2
Mg0 O1 2.034506 1_555
Mg0 O0 2.034506 1_545
Mg0 O1 2.034506 1_545
Mg0 O0 2.034506 1_555
Cu0 O1 2.626573 1_655
Cu0 O0 2.626573 1_555
Cu0 O1 2.626573 1_555
Cu0 O0 2.626573 1_655
Cu0 Mg0 2.664474 1_555
Cu0 Mg0 2.664474 1_565
Cu0 Mg0 2.664474 1_655
Cu0 Mg0 2.664474 1_665
O0 Pd0 2.082422 1_556
O0 Pd0 2.082422 1_566
O1 Pd0 2.082422 1_565
O1 Pd0 2.082422 1_555
