# generated using pymatgen
data_V3H4NO8
_symmetry_space_group_name_H-M   'P 1'
_cell_length_a   8.58215500
_cell_length_b   5.09855300
_cell_length_c   8.05296867
_cell_angle_alpha   83.56886832
_cell_angle_beta   90.00000000
_cell_angle_gamma   90.00000000
_symmetry_Int_Tables_number   1
_chemical_formula_structural   V3H4NO8
_chemical_formula_sum   'V6 H8 N2 O16'
_cell_volume   350.15291079
_cell_formula_units_Z   2
loop_
 _symmetry_equiv_pos_site_id
 _symmetry_equiv_pos_as_xyz
  1  'x, y, z'
loop_
 _atom_site_type_symbol
 _atom_site_label
 _atom_site_symmetry_multiplicity
 _atom_site_fract_x
 _atom_site_fract_y
 _atom_site_fract_z
 _atom_site_occupancy
  V  V0  1  0.25000000  0.42299800  0.42665300  1
  V  V1  1  0.75000000  0.57700200  0.57334700  1
  V  V2  1  0.05499600  0.93789200  0.32038700  1
  V  V3  1  0.55499600  0.06210800  0.67961300  1
  V  V4  1  0.94500400  0.06210800  0.67961300  1
  V  V5  1  0.44500400  0.93789200  0.32038700  1
  H  H0  1  0.34644100  0.54467400  0.87373600  1
  H  H1  1  0.84644100  0.45532600  0.12626400  1
  H  H2  1  0.65355900  0.45532600  0.12626400  1
  H  H3  1  0.15355900  0.54467400  0.87373600  1
  H  H4  1  0.75000000  0.49974300  0.94325700  1
  H  H5  1  0.25000000  0.50025700  0.05674300  1
  H  H6  1  0.75000000  0.74267900  0.06876300  1
  H  H7  1  0.25000000  0.25732100  0.93123700  1
  N  N0  1  0.25000000  0.45876500  0.93422300  1
  N  N1  1  0.75000000  0.54123500  0.06577700  1
  O  O0  1  0.56313100  0.06440200  0.17377500  1
  O  O1  1  0.25000000  0.61009900  0.57759100  1
  O  O2  1  0.06313100  0.93559800  0.82622500  1
  O  O3  1  0.89904500  0.38993400  0.72304200  1
  O  O4  1  0.60095500  0.38993400  0.72304200  1
  O  O5  1  0.10095500  0.61006600  0.27695800  1
  O  O6  1  0.75000000  0.38990100  0.42240900  1
  O  O7  1  0.08793800  0.17933300  0.49488200  1
  O  O8  1  0.41206200  0.17933300  0.49488200  1
  O  O9  1  0.91206200  0.82066700  0.50511800  1
  O  O10  1  0.25000000  0.07928600  0.24928100  1
  O  O11  1  0.75000000  0.92071400  0.75071900  1
  O  O12  1  0.43686900  0.93559800  0.82622500  1
  O  O13  1  0.93686900  0.06440200  0.17377500  1
  O  O14  1  0.39904500  0.61006600  0.27695800  1
  O  O15  1  0.58793800  0.82066700  0.50511800  1
loop_
_geom_bond_atom_site_label_1
_geom_bond_atom_site_label_2
_geom_bond_distance
_geom_bond_site_symmetry_2
H0 N0 1.032650 1_555
H1 N1 1.032650 1_555
H2 N1 1.032650 1_555
H3 N0 1.032650 1_555
H4 N1 1.031983 1_556
H5 N0 1.031983 1_554
H6 N1 1.030043 1_555
H7 N0 1.030043 1_555
O0 V5 1.633147 1_545
O1 V0 1.627022 1_555
O2 V4 1.633147 1_465
O3 V4 1.789565 1_555
O3 V1 1.934294 1_555
O4 V3 1.789565 1_555
O4 V1 1.934294 1_555
O5 V2 1.789565 1_555
O5 V0 1.934294 1_555
O6 V1 1.627022 1_555
O7 V0 1.904422 1_555
O7 V4 1.968715 1_455
O7 V2 1.989319 1_545
O8 V0 1.904422 1_555
O8 V3 1.968715 1_555
O8 V5 1.989319 1_545
O9 V1 1.904422 1_555
O9 V2 1.968715 1_655
O9 V4 1.989319 1_565
O10 V5 1.885710 1_545
O10 V2 1.885710 1_545
O10 V0 2.381599 1_555
O11 V3 1.885710 1_565
O11 V4 1.885710 1_565
O11 V1 2.381599 1_555
O12 V3 1.633147 1_565
O13 V2 1.633147 1_645
O14 V5 1.789565 1_555
O14 V0 1.934294 1_555
O15 V1 1.904422 1_555
O15 V5 1.968715 1_555
O15 V3 1.989319 1_565
