# generated using pymatgen
data_Na2ZnBr4
_symmetry_space_group_name_H-M   'P 1'
_cell_length_a   6.73163069
_cell_length_b   8.49460869
_cell_length_c   14.41521580
_cell_angle_alpha   90.00000000
_cell_angle_beta   90.00000000
_cell_angle_gamma   90.00000000
_symmetry_Int_Tables_number   1
_chemical_formula_structural   Na2ZnBr4
_chemical_formula_sum   'Na8 Zn4 Br16'
_cell_volume   824.29906575
_cell_formula_units_Z   4
loop_
 _symmetry_equiv_pos_site_id
 _symmetry_equiv_pos_as_xyz
  1  'x, y, z'
loop_
 _atom_site_type_symbol
 _atom_site_label
 _atom_site_symmetry_multiplicity
 _atom_site_fract_x
 _atom_site_fract_y
 _atom_site_fract_z
 _atom_site_occupancy
  Na  Na0  1  -0.00000000  -0.00000000  -0.00000000  1
  Na  Na1  1  0.50000000  0.00000000  0.50000000  1
  Na  Na2  1  -0.00000000  0.50000000  -0.00000000  1
  Na  Na3  1  0.50000000  0.50000000  0.50000000  1
  Na  Na4  1  0.00983486  0.75000000  0.26932530  1
  Na  Na5  1  0.50983486  0.25000000  0.23067470  1
  Na  Na6  1  0.99016514  0.25000000  0.73067470  1
  Na  Na7  1  0.49016514  0.75000000  0.76932530  1
  Zn  Zn0  1  0.59438627  0.75000000  0.09123330  1
  Zn  Zn1  1  0.09438627  0.25000000  0.40876670  1
  Zn  Zn2  1  0.40561373  0.25000000  0.90876670  1
  Zn  Zn3  1  0.90561373  0.75000000  0.59123330  1
  Br  Br0  1  0.23971323  0.75000000  0.09142369  1
  Br  Br1  1  0.73971323  0.25000000  0.40857631  1
  Br  Br2  1  0.76028677  0.25000000  0.90857631  1
  Br  Br3  1  0.26028677  0.75000000  0.59142369  1
  Br  Br4  1  0.76325077  0.75000000  0.43541743  1
  Br  Br5  1  0.26325077  0.25000000  0.06458257  1
  Br  Br6  1  0.23674923  0.25000000  0.56458257  1
  Br  Br7  1  0.73674923  0.75000000  0.93541743  1
  Br  Br8  1  0.74386084  0.97633334  0.16685370  1
  Br  Br9  1  0.24386084  0.02366666  0.33314630  1
  Br  Br10  1  0.25613916  0.47633334  0.83314630  1
  Br  Br11  1  0.75613916  0.52366666  0.66685370  1
  Br  Br12  1  0.25613916  0.02366666  0.83314630  1
  Br  Br13  1  0.75613916  0.97633334  0.66685370  1
  Br  Br14  1  0.74386084  0.52366666  0.16685370  1
  Br  Br15  1  0.24386084  0.47633334  0.33314630  1
loop_
_geom_bond_atom_site_label_1
_geom_bond_atom_site_label_2
_geom_bond_distance
_geom_bond_site_symmetry_2
Br0 Zn0 2.387529 1_555
Br0 Na0 2.975003 1_565
Br0 Na2 2.975003 1_555
Br0 Na4 2.995201 1_555
Br1 Zn1 2.387529 1_655
Br1 Na3 2.975003 1_555
Br1 Na1 2.975003 1_555
Br1 Na5 2.995201 1_555
Br2 Zn2 2.387529 1_555
Br2 Na0 2.975003 1_656
Br2 Na2 2.975003 1_656
Br2 Na6 2.995201 1_555
Br3 Zn3 2.387529 1_455
Br3 Na1 2.975003 1_565
Br3 Na3 2.975003 1_555
Br3 Na7 2.995201 1_555
Br4 Zn3 2.442019 1_555
Br4 Na4 2.913377 1_655
Br4 Na1 2.918385 1_565
Br4 Na3 2.918385 1_555
Br5 Zn2 2.442019 1_554
Br5 Na5 2.913377 1_555
Br5 Na2 2.918385 1_555
Br5 Na0 2.918385 1_555
Br6 Zn1 2.442019 1_555
Br6 Na6 2.913377 1_455
Br6 Na3 2.918385 1_555
Br6 Na1 2.918385 1_555
Br7 Zn0 2.442019 1_556
Br7 Na7 2.913377 1_555
Br7 Na2 2.918385 1_656
Br7 Na0 2.918385 1_666
Br8 Zn0 2.428411 1_555
Br8 Na5 2.955061 1_565
Br8 Na0 2.966234 1_665
Br8 Na4 3.013982 1_655
Br9 Zn1 2.428411 1_555
Br9 Na4 2.955061 1_545
Br9 Na1 2.966234 1_555
Br9 Na5 3.013982 1_555
Br10 Zn2 2.428411 1_555
Br10 Na7 2.955061 1_555
Br10 Na2 2.966234 1_556
Br10 Na6 3.013982 1_455
Br11 Zn3 2.428411 1_555
Br11 Na6 2.955061 1_555
Br11 Na3 2.966234 1_555
Br11 Na7 3.013982 1_555
Br12 Zn2 2.428411 1_555
Br12 Na7 2.955061 1_545
Br12 Na0 2.966234 1_556
Br12 Na6 3.013982 1_455
Br13 Zn3 2.428411 1_555
Br13 Na6 2.955061 1_565
Br13 Na1 2.966234 1_565
Br13 Na7 3.013982 1_555
Br14 Zn0 2.428411 1_555
Br14 Na5 2.955061 1_555
Br14 Na2 2.966234 1_655
Br14 Na4 3.013982 1_655
Br15 Zn1 2.428411 1_555
Br15 Na4 2.955061 1_555
Br15 Na3 2.966234 1_555
Br15 Na5 3.013982 1_555
