# generated using pymatgen
data_Al2Te3
_symmetry_space_group_name_H-M   'P 1'
_cell_length_a   7.24797312
_cell_length_b   13.03847237
_cell_length_c   14.77426399
_cell_angle_alpha   90.00000000
_cell_angle_beta   90.23019326
_cell_angle_gamma   90.00000000
_symmetry_Int_Tables_number   1
_chemical_formula_structural   Al2Te3
_chemical_formula_sum   'Al16 Te24'
_cell_volume   1396.19357423
_cell_formula_units_Z   8
loop_
 _symmetry_equiv_pos_site_id
 _symmetry_equiv_pos_as_xyz
  1  'x, y, z'
loop_
 _atom_site_type_symbol
 _atom_site_label
 _atom_site_symmetry_multiplicity
 _atom_site_fract_x
 _atom_site_fract_y
 _atom_site_fract_z
 _atom_site_occupancy
  Al  Al0  1  0.58056369  0.74919516  0.30814837  1
  Al  Al1  1  0.41943631  0.24919516  0.19185163  1
  Al  Al2  1  0.41943631  0.25080484  0.69185163  1
  Al  Al3  1  0.58056369  0.75080484  0.80814837  1
  Al  Al4  1  0.07030404  0.90703012  0.31994333  1
  Al  Al5  1  0.92969596  0.40703012  0.18005667  1
  Al  Al6  1  0.92969596  0.09296988  0.68005667  1
  Al  Al7  1  0.07030404  0.59296988  0.81994333  1
  Al  Al8  1  0.07864452  0.59093692  0.30309933  1
  Al  Al9  1  0.92135548  0.09093692  0.19690067  1
  Al  Al10  1  0.92135548  0.40906308  0.69690067  1
  Al  Al11  1  0.07864452  0.90906308  0.80309933  1
  Al  Al12  1  0.43049900  0.93163258  0.18591204  1
  Al  Al13  1  0.56950100  0.43163258  0.31408896  1
  Al  Al14  1  0.56950100  0.06836742  0.81408896  1
  Al  Al15  1  0.43049900  0.56836742  0.68591104  1
  Te  Te0  1  0.91111950  0.74297006  0.39131445  1
  Te  Te1  1  0.08888050  0.24297006  0.10868555  1
  Te  Te2  1  0.08888050  0.25702994  0.60868555  1
  Te  Te3  1  0.91111950  0.75702994  0.89131445  1
  Te  Te4  1  0.57903236  0.76208192  0.13567430  1
  Te  Te5  1  0.42096764  0.26208192  0.36432570  1
  Te  Te6  1  0.42096764  0.23791808  0.86432570  1
  Te  Te7  1  0.57903236  0.73791808  0.63567430  1
  Te  Te8  1  0.07548748  0.91713980  0.13896372  1
  Te  Te9  1  0.92451252  0.41713980  0.36103628  1
  Te  Te10  1  0.92451252  0.08286020  0.86103628  1
  Te  Te11  1  0.07548748  0.58286020  0.63896372  1
  Te  Te12  1  0.08130317  0.57623875  0.13052438  1
  Te  Te13  1  0.91869683  0.07623875  0.36947562  1
  Te  Te14  1  0.91869683  0.42376125  0.86947562  1
  Te  Te15  1  0.08130317  0.92376125  0.63052438  1
  Te  Te16  1  0.40742389  0.59356082  0.38853407  1
  Te  Te17  1  0.59257611  0.09356082  0.11146593  1
  Te  Te18  1  0.59257611  0.40643918  0.61146593  1
  Te  Te19  1  0.40742389  0.90643918  0.88853407  1
  Te  Te20  1  0.42512490  0.92220868  0.36702457  1
  Te  Te21  1  0.57487510  0.42220868  0.13297543  1
  Te  Te22  1  0.57487510  0.07779132  0.63297543  1
  Te  Te23  1  0.42512490  0.57779132  0.86702457  1
loop_
_geom_bond_atom_site_label_1
_geom_bond_atom_site_label_2
_geom_bond_distance
_geom_bond_site_symmetry_2
Al0 Te4 2.553691 1_555
Al0 Te16 2.667407 1_555
Al0 Te20 2.668812 1_555
Al0 Te0 2.689391 1_555
Al1 Te5 2.553691 1_555
Al1 Te17 2.667407 1_555
Al1 Te21 2.668812 1_555
Al1 Te1 2.689391 1_555
Al2 Te6 2.553691 1_555
Al2 Te18 2.667407 1_555
Al2 Te22 2.668812 1_555
Al2 Te2 2.689391 1_555
Al3 Te7 2.553691 1_555
Al3 Te19 2.667407 1_555
Al3 Te23 2.668812 1_555
Al3 Te3 2.689391 1_555
Al4 Te13 2.572328 1_465
Al4 Te0 2.651140 1_455
Al4 Te20 2.668791 1_555
Al4 Te8 2.677502 1_555
Al5 Te12 2.572328 1_655
Al5 Te1 2.651140 1_655
Al5 Te21 2.668791 1_555
Al5 Te9 2.677502 1_555
Al6 Te15 2.572328 1_645
Al6 Te2 2.651140 1_655
Al6 Te22 2.668791 1_555
Al6 Te10 2.677502 1_555
Al7 Te14 2.572328 1_455
Al7 Te3 2.651140 1_455
Al7 Te23 2.668791 1_555
Al7 Te11 2.677502 1_555
Al8 Te12 2.557010 1_555
Al8 Te0 2.667414 1_455
Al8 Te9 2.668964 1_455
Al8 Te16 2.692369 1_555
Al9 Te13 2.557010 1_555
Al9 Te1 2.667414 1_655
Al9 Te8 2.668964 1_645
Al9 Te17 2.692369 1_555
Al10 Te14 2.557010 1_555
Al10 Te2 2.667414 1_655
Al10 Te11 2.668964 1_655
Al10 Te18 2.692369 1_555
Al11 Te15 2.557010 1_555
Al11 Te3 2.667414 1_455
Al11 Te10 2.668964 1_465
Al11 Te19 2.692369 1_555
Al12 Te4 2.569713 1_555
Al12 Te17 2.656633 1_565
Al12 Te8 2.668970 1_555
Al12 Te20 2.679064 1_555
Al13 Te5 2.569709 1_555
Al13 Te16 2.656627 1_555
Al13 Te9 2.668966 1_555
Al13 Te21 2.679078 1_555
Al14 Te6 2.569709 1_555
Al14 Te19 2.656627 1_545
Al14 Te10 2.668966 1_555
Al14 Te22 2.679078 1_555
Al15 Te7 2.569709 1_555
Al15 Te18 2.656627 1_555
Al15 Te11 2.668966 1_555
Al15 Te23 2.679078 1_555
