# generated using pymatgen
data_Ba2PrMgNbO6
_symmetry_space_group_name_H-M   'P 1'
_cell_length_a   6.95755497
_cell_length_b   6.97286800
_cell_length_c   6.96066636
_cell_angle_alpha   49.50520656
_cell_angle_beta   49.58806284
_cell_angle_gamma   49.57661740
_symmetry_Int_Tables_number   1
_chemical_formula_structural   Ba2PrMgNbO6
_chemical_formula_sum   'Ba2 Pr1 Mg1 Nb1 O6'
_cell_volume   179.81197523
_cell_formula_units_Z   1
loop_
 _symmetry_equiv_pos_site_id
 _symmetry_equiv_pos_as_xyz
  1  'x, y, z'
loop_
 _atom_site_type_symbol
 _atom_site_label
 _atom_site_symmetry_multiplicity
 _atom_site_fract_x
 _atom_site_fract_y
 _atom_site_fract_z
 _atom_site_occupancy
  Ba  Ba0  1  0.22557116  0.22652339  0.22603086  1
  Ba  Ba1  1  0.68753971  0.68755578  0.68784734  1
  Pr  Pr0  1  0.02343750  0.02357430  0.02389046  1
  Mg  Mg0  1  0.85369234  0.85777198  0.85550497  1
  Nb  Nb0  1  0.50308853  0.50309511  0.50314482  1
  O  O0  1  0.78602280  0.70384819  0.24787129  1
  O  O1  1  0.24725831  0.78513055  0.70376565  1
  O  O2  1  0.70383035  0.24849294  0.78591999  1
  O  O3  1  0.16693507  0.41193283  0.76143861  1
  O  O4  1  0.41533979  0.76243034  0.16431211  1
  O  O5  1  0.76228743  0.16464659  0.41527390  1
loop_
_geom_bond_atom_site_label_1
_geom_bond_atom_site_label_2
_geom_bond_distance
_geom_bond_site_symmetry_2
Ba0 O0 2.703225 1_455
Ba0 O1 2.703581 1_545
Ba0 O2 2.704711 1_554
Ba0 O5 2.805613 1_455
Ba0 O3 2.809342 1_554
Ba0 O4 2.815848 1_545
Ba0 O1 3.173447 1_554
Ba0 O2 3.178153 1_455
Ba0 O0 3.182715 1_545
Ba1 O2 2.605335 1_555
Ba1 O0 2.605726 1_555
Ba1 O1 2.610330 1_555
Ba1 O4 2.771534 1_556
Ba1 O5 2.775614 1_565
Ba1 O3 2.775687 1_655
Mg0 O2 2.000330 1_565
Mg0 O0 2.003446 1_556
Mg0 O1 2.004103 1_655
Mg0 O5 2.572755 1_565
Mg0 O4 2.576375 1_556
Mg0 O3 2.617227 1_655
Nb0 O3 2.024431 1_555
Nb0 O4 2.025179 1_555
Nb0 O5 2.030006 1_555
Nb0 O2 2.187935 1_555
Nb0 O1 2.188652 1_555
Nb0 O0 2.190885 1_555
O0 Pr0 2.655572 1_665
O1 Pr0 2.666366 1_566
O2 Pr0 2.650887 1_656
O3 Pr0 2.526593 1_556
O4 Pr0 2.531965 1_565
O5 Pr0 2.536811 1_655
