# generated using pymatgen
data_Ba4MgTi3O10
_symmetry_space_group_name_H-M   'P 1'
_cell_length_a   4.03974901
_cell_length_b   16.79650698
_cell_length_c   5.73395998
_cell_angle_alpha   100.09513779
_cell_angle_beta   135.05983609
_cell_angle_gamma   82.86206054
_symmetry_Int_Tables_number   1
_chemical_formula_structural   Ba4MgTi3O10
_chemical_formula_sum   'Ba4 Mg1 Ti3 O10'
_cell_volume   270.57188324
_cell_formula_units_Z   1
loop_
 _symmetry_equiv_pos_site_id
 _symmetry_equiv_pos_as_xyz
  1  'x, y, z'
loop_
 _atom_site_type_symbol
 _atom_site_label
 _atom_site_symmetry_multiplicity
 _atom_site_fract_x
 _atom_site_fract_y
 _atom_site_fract_z
 _atom_site_occupancy
  Ba  Ba0  1  0.01294800  0.82429300  0.96817600  1
  Ba  Ba1  1  0.00760300  0.58804500  0.82650500  1
  Ba  Ba2  1  0.01674800  0.17593500  0.14139400  1
  Ba  Ba3  1  0.00867300  0.41151000  0.23949400  1
  Mg  Mg0  1  0.98660800  0.99958200  0.89164600  1
  Ti  Ti0  1  0.98905200  0.00217500  0.42188100  1
  Ti  Ti1  1  0.00977400  0.30223000  0.68629800  1
  Ti  Ti2  1  0.00813100  0.69744300  0.38397900  1
  O  O0  1  0.00774400  0.58067900  0.32221100  1
  O  O1  1  0.99465900  0.12208200  0.54073900  1
  O  O2  1  0.52562100  0.00160000  0.93404400  1
  O  O3  1  0.45395900  0.00166700  0.39732700  1
  O  O4  1  0.50904200  0.29124800  0.17995500  1
  O  O5  1  0.51273300  0.29049400  0.68202000  1
  O  O6  1  0.50777700  0.70889000  0.88886300  1
  O  O7  1  0.51005100  0.71013600  0.39098700  1
  O  O8  1  0.00828300  0.41951200  0.74308700  1
  O  O9  1  0.99437700  0.88146300  0.42052900  1
loop_
_geom_bond_atom_site_label_1
_geom_bond_atom_site_label_2
_geom_bond_distance
_geom_bond_site_symmetry_2
Ba0 O9 2.653264 1_456
Ba0 O7 2.714273 1_556
Ba0 O6 2.736595 1_455
Ba0 O6 2.824012 1_555
Ba0 O7 2.825240 1_455
Ba0 O9 2.980505 1_556
Ba0 Mg0 3.030086 1_455
Ba0 O9 3.081722 1_355
Ba0 O3 3.263110 1_566
Ba0 O2 3.314382 1_465
Ba0 O9 3.390304 1_455
Ba1 O8 2.786986 1_555
Ba1 O6 2.841229 1_555
Ba1 O6 2.841480 1_455
Ba1 O7 2.854230 1_455
Ba1 O0 2.855799 1_455
Ba1 O0 2.856520 1_656
Ba1 O7 2.865038 1_556
Ba1 O0 2.866231 1_556
Ba1 O0 2.872902 1_555
Ba2 O1 2.665504 1_455
Ba2 O5 2.720413 1_555
Ba2 O4 2.740722 1_455
Ba2 O4 2.817804 1_555
Ba2 O5 2.827885 1_454
Ba2 O1 2.949543 1_555
Ba2 Mg0 3.032396 1_444
Ba2 O1 3.071251 1_354
Ba2 O3 3.223767 1_555
Ba2 O2 3.287595 1_454
Ba2 O1 3.343805 1_454
Ba3 O0 2.797537 1_555
Ba3 O4 2.829003 1_555
Ba3 O5 2.833961 1_454
Ba3 O4 2.840197 1_455
Ba3 O8 2.855545 1_655
Ba3 O8 2.857707 1_454
Ba3 O5 2.860309 1_555
Ba3 O8 2.868193 1_555
Ba3 O8 2.871872 1_554
Mg0 O3 2.011713 1_565
Mg0 O2 2.016853 1_665
Mg0 O2 2.037317 1_565
Mg0 O3 2.050374 1_666
O0 Ti2 1.930887 1_555
O1 Ti0 2.007375 1_555
O2 Ti0 1.977587 1_556
O2 Ti0 2.077472 1_455
O3 Ti0 1.979171 1_455
O3 Ti0 2.065405 1_555
O4 Ti1 2.030417 1_554
O4 Ti1 2.036166 1_655
O5 Ti1 2.024388 1_655
O5 Ti1 2.033989 1_555
O6 Ti2 2.030011 1_555
O6 Ti2 2.037978 1_656
O7 Ti2 2.024979 1_655
O7 Ti2 2.036525 1_555
O8 Ti1 1.939494 1_555
O9 Ti0 2.023692 1_565
