# generated using pymatgen
data_K6Ge2O7
_symmetry_space_group_name_H-M   'P 1'
_cell_length_a   9.08749409
_cell_length_b   6.52111094
_cell_length_c   11.13492754
_cell_angle_alpha   55.95812926
_cell_angle_beta   90.00000000
_cell_angle_gamma   90.00000000
_symmetry_Int_Tables_number   1
_chemical_formula_structural   K6Ge2O7
_chemical_formula_sum   'K12 Ge4 O14'
_cell_volume   546.78060140
_cell_formula_units_Z   2
loop_
 _symmetry_equiv_pos_site_id
 _symmetry_equiv_pos_as_xyz
  1  'x, y, z'
loop_
 _atom_site_type_symbol
 _atom_site_label
 _atom_site_symmetry_multiplicity
 _atom_site_fract_x
 _atom_site_fract_y
 _atom_site_fract_z
 _atom_site_occupancy
  K  K0  1  0.53906321  0.40527627  0.21660857  1
  K  K1  1  0.03789676  0.59874173  0.27601735  1
  K  K2  1  0.89847917  0.95789042  0.91849148  1
  K  K3  1  0.10152083  0.95789042  0.41849148  1
  K  K4  1  0.72343547  0.79417431  0.45293033  1
  K  K5  1  0.27656453  0.79417431  0.95293033  1
  K  K6  1  0.77710467  0.20797120  0.54013365  1
  K  K7  1  0.22289533  0.20797120  0.04013365  1
  K  K8  1  0.60032369  0.04708619  0.07342844  1
  K  K9  1  0.39967631  0.04708619  0.57342844  1
  K  K10  1  0.96210324  0.59874173  0.77601735  1
  K  K11  1  0.46093679  0.40527627  0.71660857  1
  Ge  Ge0  1  0.39301193  0.68708911  0.36506062  1
  Ge  Ge1  1  0.89236809  0.31689481  0.12750638  1
  Ge  Ge2  1  0.10763191  0.31689481  0.62750638  1
  Ge  Ge3  1  0.60698807  0.68708911  0.86506062  1
  O  O0  1  0.66380636  0.75091918  0.69730089  1
  O  O1  1  0.54646693  0.49048069  0.43164124  1
  O  O2  1  0.74923182  0.50544579  -0.00213273  1
  O  O3  1  0.25076818  0.50544579  0.49786727  1
  O  O4  1  0.04630240  0.51207323  0.06066761  1
  O  O5  1  0.95369760  0.51207323  0.56066761  1
  O  O6  1  0.91181820  0.05206075  0.12429142  1
  O  O7  1  0.08818180  0.05206075  0.62429142  1
  O  O8  1  0.83847113  0.24887618  0.29683779  1
  O  O9  1  0.16152887  0.24887618  0.79683779  1
  O  O10  1  0.45353307  0.49048069  0.93164124  1
  O  O11  1  0.41539692  0.95482114  0.36481595  1
  O  O12  1  0.33619364  0.75091918  0.19730089  1
  O  O13  1  0.58460308  0.95482114  0.86481595  1
loop_
_geom_bond_atom_site_label_1
_geom_bond_atom_site_label_2
_geom_bond_distance
_geom_bond_site_symmetry_2
K0 O11 2.680988 1_545
K0 O1 2.745134 1_555
K0 O12 2.825396 1_555
K0 O8 2.867280 1_555
K0 O2 2.868033 1_555
K0 O10 3.001239 1_554
K1 O6 2.704475 1_465
K1 O4 2.755452 1_555
K1 O8 2.819789 1_455
K1 O12 2.850875 1_555
K1 O3 2.920952 1_555
K1 O5 2.990887 1_455
K2 O6 2.686751 1_566
K2 O4 2.758597 1_656
K2 O9 2.876129 1_665
K2 O2 2.899342 1_556
K2 O13 2.916658 1_555
K3 O7 2.686751 1_565
K3 O5 2.758597 1_455
K3 O8 2.876129 1_465
K3 O3 2.899342 1_555
K3 O11 2.916658 1_555
K4 O5 2.594433 1_555
K4 O0 2.630205 1_555
K4 O1 2.662738 1_555
K4 O8 2.671307 1_565
K4 O11 2.957263 1_555
K5 O4 2.594433 1_556
K5 O12 2.630205 1_556
K5 O10 2.662738 1_555
K5 O9 2.671307 1_565
K5 O13 2.957263 1_555
K6 O1 2.598944 1_555
K6 O8 2.629108 1_555
K6 O5 2.658550 1_555
K6 O0 2.676981 1_545
K6 O7 2.972637 1_655
K7 O10 2.598944 1_554
K7 O9 2.629108 1_554
K7 O4 2.658550 1_555
K7 O12 2.676981 1_545
K7 O6 2.972637 1_455
K8 O13 2.709792 1_544
K8 O10 2.742527 1_554
K8 O6 2.890548 1_555
K8 O12 2.900241 1_545
K8 O2 2.942385 1_555
K9 O11 2.709792 1_545
K9 O1 2.742527 1_555
K9 O7 2.890548 1_555
K9 O0 2.900241 1_545
K9 O3 2.942385 1_555
K10 O7 2.704475 1_665
K10 O5 2.755452 1_555
K10 O9 2.819789 1_655
K10 O0 2.850875 1_555
K10 O2 2.920952 1_556
K10 O4 2.990887 1_656
K11 O13 2.680988 1_545
K11 O10 2.745134 1_555
K11 O0 2.825396 1_555
K11 O9 2.867280 1_555
K11 O3 2.868033 1_555
K11 O1 3.001239 1_555
Ge0 O12 1.748922 1_555
Ge0 O1 1.753260 1_555
Ge0 O11 1.756208 1_555
Ge0 O3 1.816501 1_555
Ge1 O8 1.747963 1_555
Ge1 O4 1.752192 1_655
Ge1 O6 1.756221 1_555
Ge1 O2 1.816688 1_555
Ge2 O9 1.747963 1_555
Ge2 O5 1.752192 1_455
Ge2 O7 1.756221 1_555
Ge2 O3 1.816688 1_555
Ge3 O0 1.748922 1_555
Ge3 O10 1.753260 1_555
Ge3 O13 1.756208 1_555
Ge3 O2 1.816501 1_556
