# generated using pymatgen
data_Na10Mg3Ti5(PO4)12
_symmetry_space_group_name_H-M   'P 1'
_cell_length_a   17.56668188
_cell_length_b   8.79323097
_cell_length_c   22.07690237
_cell_angle_alpha   89.95653757
_cell_angle_beta   90.00518226
_cell_angle_gamma   120.05939984
_symmetry_Int_Tables_number   1
_chemical_formula_structural   Na10Mg3Ti5(PO4)12
_chemical_formula_sum   'Na30 Mg9 Ti15 P36 O144'
_cell_volume   2951.52575931
_cell_formula_units_Z   3
loop_
 _symmetry_equiv_pos_site_id
 _symmetry_equiv_pos_as_xyz
  1  'x, y, z'
loop_
 _atom_site_type_symbol
 _atom_site_label
 _atom_site_symmetry_multiplicity
 _atom_site_fract_x
 _atom_site_fract_y
 _atom_site_fract_z
 _atom_site_occupancy
  Na  Na0  1  0.31929883  0.00733066  0.25004593  1
  Na  Na1  1  0.68516398  0.36156810  0.24985761  1
  Na  Na2  1  0.31640981  0.62687839  0.74965013  1
  Na  Na3  1  0.81630290  0.62653355  0.74975230  1
  Na  Na4  1  0.15268664  0.34139814  0.58050796  1
  Na  Na5  1  0.65271928  0.34053198  0.57988837  1
  Na  Na6  1  0.01737347  0.69381199  0.58075511  1
  Na  Na7  1  0.51732831  0.69425396  0.58085579  1
  Na  Na8  1  0.32924038  0.96387402  0.58107199  1
  Na  Na9  1  0.82948105  0.96597812  0.58067934  1
  Na  Na10  1  0.15270286  0.96454924  0.08060562  1
  Na  Na11  1  0.65297163  0.96521447  0.08085599  1
  Na  Na12  1  0.32954049  0.69396466  0.08100720  1
  Na  Na13  1  0.82960930  0.69458998  0.08052936  1
  Na  Na14  1  0.01711835  0.34132808  0.08066771  1
  Na  Na15  1  0.51735230  0.34064983  0.08124733  1
  Na  Na16  1  0.66319363  0.02883906  0.41433513  1
  Na  Na17  1  0.35090785  0.67324343  0.41372902  1
  Na  Na18  1  0.99993802  0.99944584  0.49470664  1
  Na  Na19  1  0.49973984  0.01164811  0.49377058  1
  Na  Na20  1  0.99984379  0.99937296  0.99575265  1
  Na  Na21  1  0.49987442  0.99958349  0.99618211  1
  Na  Na22  1  0.33366220  0.32304934  0.83176697  1
  Na  Na23  1  0.83354975  0.32322595  0.83172464  1
  Na  Na24  1  0.33423621  0.33719959  0.32832183  1
  Na  Na25  1  0.84204532  0.33942937  0.32890690  1
  Na  Na26  1  0.16281099  0.65659670  0.16710225  1
  Na  Na27  1  0.66594439  0.67577978  0.16705466  1
  Na  Na28  1  0.16244204  0.66735708  0.66795789  1
  Na  Na29  1  0.66245584  0.66790970  0.66802720  1
  Mg  Mg0  1  0.49959865  0.00545263  0.35187130  1
  Mg  Mg1  1  0.33364186  0.32793174  0.68815625  1
  Mg  Mg2  1  0.83357155  0.32713470  0.68797829  1
  Mg  Mg3  1  0.33316662  0.33934890  0.18640835  1
  Mg  Mg4  1  0.83664534  0.33176397  0.18735061  1
  Mg  Mg5  1  0.16681058  0.66716472  0.01483280  1
  Mg  Mg6  1  0.66675701  0.66684199  0.01477440  1
  Mg  Mg7  1  0.16456360  0.66419561  0.51544663  1
  Mg  Mg8  1  0.66822450  0.66707863  0.51579058  1
  Ti  Ti0  1  0.00004621  0.99892204  0.35266071  1
  Ti  Ti1  1  -0.00000059  0.00132497  0.85465287  1
  Ti  Ti2  1  0.50006079  0.00178782  0.85456229  1
  Ti  Ti3  1  0.00105529  0.00211582  0.65079779  1
  Ti  Ti4  1  0.50121832  0.00051135  0.65041829  1
  Ti  Ti5  1  -0.00003541  0.00123449  0.15018956  1
  Ti  Ti6  1  0.50004276  0.99787167  0.15197862  1
  Ti  Ti7  1  0.33330707  0.33557337  0.97828458  1
  Ti  Ti8  1  0.83363541  0.33478278  0.97829689  1
  Ti  Ti9  1  0.33209921  0.32130259  0.47878006  1
  Ti  Ti10  1  0.83689178  0.34217023  0.47773080  1
  Ti  Ti11  1  0.16376472  0.66019334  0.31444233  1
  Ti  Ti12  1  0.66521052  0.66966915  0.31559259  1
  Ti  Ti13  1  0.16385573  0.66801486  0.81712368  1
  Ti  Ti14  1  0.66366020  0.66743674  0.81720563  1
  P  P0  1  0.14409885  0.99759630  0.25124072  1
  P  P1  1  0.64674602  0.99793908  0.25248408  1
  P  P2  1  0.35288803  0.70375275  0.25324979  1
  P  P3  1  0.85471177  0.71118588  0.25140463  1
  P  P4  1  0.00031947  0.28920733  0.25177084  1
  P  P5  1  0.49980050  0.29484815  0.25107270  1
  P  P6  1  0.14421047  0.29114751  0.75189886  1
  P  P7  1  0.64411139  0.29094018  0.75172103  1
  P  P8  1  0.00233836  0.71274179  0.75150102  1
  P  P9  1  0.50233745  0.71260029  0.75165562  1
  P  P10  1  0.35496813  0.00061259  0.75172119  1
  P  P11  1  0.85480210  0.00052794  0.75187410  1
  P  P12  1  0.47855021  0.33389341  0.58483784  1
  P  P13  1  0.97816494  0.33374626  0.58430569  1
  P  P14  1  0.18794332  0.04237688  0.58476598  1
  P  P15  1  0.68836245  0.04341558  0.58345185  1
  P  P16  1  0.33333506  0.62400253  0.58448389  1
  P  P17  1  0.83358912  0.62457134  0.58567013  1
  P  P18  1  0.47843564  0.62325636  0.08378307  1
  P  P19  1  0.97829253  0.62329160  0.08406790  1
  P  P20  1  0.33334620  0.04305199  0.08484272  1
  P  P21  1  0.83327195  0.04383912  0.08371892  1
  P  P22  1  0.18812054  0.33312029  0.08365341  1
  P  P23  1  0.68824408  0.33330485  0.08498243  1
  P  P24  1  0.31304521  0.66677569  0.91683124  1
  P  P25  1  0.81301289  0.66638475  0.91684070  1
  P  P26  1  0.01999316  0.37344786  0.91796325  1
  P  P27  1  0.51987677  0.37330592  0.91807409  1
  P  P28  1  0.16658489  0.96039733  0.91786755  1
  P  P29  1  0.66648845  0.96030007  0.91784565  1
  P  P30  1  0.31179716  0.95733916  0.41758062  1
  P  P31  1  0.81460287  0.95963522  0.41772278  1
  P  P32  1  0.16506051  0.37098643  0.41784682  1
  P  P33  1  0.66692566  0.37542283  0.41808782  1
  P  P34  1  0.02149781  0.66925422  0.41745996  1
  P  P35  1  0.51957231  0.66326017  0.41872807  1
  O  O0  1  0.09513763  0.01801707  0.30532223  1
  O  O1  1  0.60470553  0.02652668  0.30801331  1
  O  O2  1  0.40588771  0.79114105  0.30939465  1
  O  O3  1  0.91408366  0.80988791  0.30537985  1
  O  O4  1  0.48556304  0.17722310  0.30454320  1
  O  O5  1  0.99168319  0.17130951  0.30585208  1
  O  O6  1  0.09486640  0.17135294  0.80530927  1
  O  O7  1  0.59489528  0.17147826  0.80531385  1
  O  O8  1  0.48941009  0.80928981  0.80492277  1
  O  O9  1  0.98947666  0.80947600  0.80483609  1
  O  O10  1  0.41385575  0.01718233  0.80569660  1
  O  O11  1  0.91392325  0.01726001  0.80564444  1
  O  O12  1  0.39898372  0.96819282  0.69351302  1
  O  O13  1  0.89905500  0.96828530  0.69349038  1
  O  O14  1  0.08686790  0.20181140  0.69290578  1
  O  O15  1  0.58688083  0.20194277  0.69287718  1
  O  O16  1  0.01567680  0.82792774  0.69245267  1
  O  O17  1  0.51567869  0.82745434  0.69260442  1
  O  O18  1  0.39906716  0.83028253  0.19530048  1
  O  O19  1  0.89917807  0.82663012  0.19293359  1
  O  O20  1  0.01470133  0.20250939  0.19302759  1
  O  O21  1  0.51714479  0.20592674  0.19251424  1
  O  O22  1  0.08688091  0.97199218  0.19274850  1
  O  O23  1  0.58623426  0.96961771  0.19414498  1
  O  O24  1  0.43721100  0.36752354  0.63912196  1
  O  O25  1  0.93742564  0.36759184  0.63905961  1
  O  O26  1  0.24578169  0.12591230  0.63914082  1
  O  O27  1  0.74634908  0.12782959  0.63800159  1
  O  O28  1  0.31835035  0.51400123  0.64125940  1
  O  O29  1  0.81825150  0.51513760  0.64240825  1
  O  O30  1  0.43745944  0.50763732  0.13847721  1
  O  O31  1  0.93725135  0.50886432  0.13918571  1
  O  O32  1  0.31738749  0.11972007  0.14212379  1
  O  O33  1  0.81673033  0.12496334  0.13876298  1
  O  O34  1  0.24508492  0.36446251  0.13866665  1
  O  O35  1  0.74288275  0.36517558  0.14207657  1
  O  O36  1  0.23166601  0.29870941  0.02675149  1
  O  O37  1  0.73406586  0.30074787  0.02897168  1
  O  O38  1  0.41721386  0.53559516  0.02681027  1
  O  O39  1  0.91745910  0.53572329  0.02712046  1
  O  O40  1  0.34987960  0.16769032  0.02908757  1
  O  O41  1  0.85112765  0.16617818  0.02694942  1
  O  O42  1  0.23190368  0.16414264  0.52744242  1
  O  O43  1  0.72888967  0.15956376  0.52490042  1
  O  O44  1  0.35035100  0.53892188  0.52707746  1
  O  O45  1  0.85015067  0.53318421  0.52951284  1
  O  O46  1  0.41681817  0.29834598  0.52762516  1
  O  O47  1  0.91738528  0.29971595  0.52716790  1
  O  O48  1  0.27638008  0.69903254  0.97446119  1
  O  O49  1  0.77644325  0.69896964  0.97443218  1
  O  O50  1  0.07246498  0.44510927  0.97573245  1
  O  O51  1  0.57251444  0.44505987  0.97576047  1
  O  O52  1  0.14977551  0.85497356  0.97559571  1
  O  O53  1  0.64985218  0.85502767  0.97556013  1
  O  O54  1  0.27139861  0.84801071  0.47457740  1
  O  O55  1  0.77812590  0.85773275  0.47622164  1
  O  O56  1  0.15009645  0.44447460  0.47599181  1
  O  O57  1  0.65533289  0.45560324  0.47568184  1
  O  O58  1  0.07188608  0.69998996  0.47605306  1
  O  O59  1  0.57522725  0.69626771  0.47522514  1
  O  O60  1  0.06798554  0.63897659  0.36224916  1
  O  O61  1  0.56796472  0.63845029  0.36257721  1
  O  O62  1  0.25303409  0.86883215  0.36010348  1
  O  O63  1  0.75060385  0.86557327  0.36306231  1
  O  O64  1  0.18179882  0.49883572  0.36309050  1
  O  O65  1  0.68058651  0.49264849  0.36059105  1
  O  O66  1  0.06853544  0.49694661  0.86250385  1
  O  O67  1  0.56841185  0.49696929  0.86259920  1
  O  O68  1  0.17949269  0.86275872  0.86242592  1
  O  O69  1  0.67961826  0.86297236  0.86239445  1
  O  O70  1  0.25421948  0.64000637  0.85975138  1
  O  O71  1  0.75425686  0.63991530  0.85975532  1
  O  O72  1  0.00854886  0.82838609  0.40640029  1
  O  O73  1  0.50773934  0.82350435  0.41060402  1
  O  O74  1  0.40291450  0.97864715  0.41088195  1
  O  O75  1  0.90638816  0.98299826  0.40688971  1
  O  O76  1  0.08546316  0.18677444  0.40718653  1
  O  O77  1  0.59019026  0.18820256  0.41119621  1
  O  O78  1  0.00881204  0.18923505  0.90648766  1
  O  O79  1  0.50881506  0.18932796  0.90649601  1
  O  O80  1  0.08569641  0.98278376  0.90611386  1
  O  O81  1  0.58568259  0.98280134  0.90609999  1
  O  O82  1  0.40614637  0.82874644  0.90656702  1
  O  O83  1  0.90614004  0.82856224  0.90653334  1
  O  O84  1  0.48525025  0.16174824  0.58885941  1
  O  O85  1  0.98531572  0.16150933  0.58899129  1
  O  O86  1  0.09496406  0.02925750  0.58856245  1
  O  O87  1  0.59456682  0.02816546  0.58901304  1
  O  O88  1  0.41934759  0.81198610  0.58911620  1
  O  O89  1  0.91971672  0.81083417  0.58865142  1
  O  O90  1  0.48527188  0.80944048  0.08863508  1
  O  O91  1  0.98554291  0.80988274  0.08859631  1
  O  O92  1  0.41930142  0.02798113  0.08883476  1
  O  O93  1  0.91943183  0.02887228  0.08882075  1
  O  O94  1  0.09455811  0.16097241  0.08858720  1
  O  O95  1  0.59504991  0.16059861  0.08854609  1
  O  O96  1  0.34644852  0.16226236  0.74701985  1
  O  O97  1  0.84650926  0.16229849  0.74697280  1
  O  O98  1  0.23593274  0.31508832  0.74690040  1
  O  O99  1  0.73594844  0.31506995  0.74696569  1
  O  O100  1  0.41871415  0.53497399  0.74620805  1
  O  O101  1  0.91875759  0.53509743  0.74616655  1
  O  O102  1  0.34077426  0.52392635  0.24424450  1
  O  O103  1  0.84303043  0.52853263  0.24722300  1
  O  O104  1  0.41884982  0.31149650  0.24265635  1
  O  O105  1  0.91996411  0.30735091  0.24738020  1
  O  O106  1  0.23595966  0.15523238  0.24723731  1
  O  O107  1  0.73601416  0.16176401  0.24330989  1
  O  O108  1  0.32169713  0.49891005  0.92153626  1
  O  O109  1  0.82172102  0.49870585  0.92162648  1
  O  O110  1  0.42774812  0.35668929  0.92164535  1
  O  O111  1  0.92793415  0.35728310  0.92145490  1
  O  O112  1  0.25084702  0.14400788  0.92150095  1
  O  O113  1  0.75062972  0.14435301  0.92165822  1
  O  O114  1  0.31838109  0.14209866  0.42301758  1
  O  O115  1  0.81949660  0.14253326  0.42107811  1
  O  O116  1  0.25200760  0.36269543  0.42156397  1
  O  O117  1  0.75318319  0.35964913  0.42260591  1
  O  O118  1  0.42642087  0.49531450  0.42235980  1
  O  O119  1  0.92868363  0.49960962  0.42199604  1
  O  O120  1  0.17416276  0.49117393  0.07636110  1
  O  O121  1  0.67490887  0.49204985  0.07674098  1
  O  O122  1  0.07138856  0.65116179  0.07662120  1
  O  O123  1  0.57167277  0.65202009  0.07615777  1
  O  O124  1  0.25379511  0.85717637  0.07684537  1
  O  O125  1  0.75442551  0.85733244  0.07623629  1
  O  O126  1  0.17385307  0.85679955  0.57711029  1
  O  O127  1  0.67381759  0.85653585  0.57706159  1
  O  O128  1  0.25371629  0.65104886  0.57745177  1
  O  O129  1  0.75425742  0.65104327  0.57780334  1
  O  O130  1  0.07143470  0.49130871  0.57678925  1
  O  O131  1  0.57141427  0.49142000  0.57677075  1
  O  O132  1  0.15090367  0.82745688  0.25661896  1
  O  O133  1  0.65269894  0.82705309  0.25629900  1
  O  O134  1  0.26197790  0.70121339  0.25535771  1
  O  O135  1  0.76256075  0.69546119  0.25699920  1
  O  O136  1  0.08631833  0.47088518  0.25808590  1
  O  O137  1  0.58771500  0.47570633  0.25496147  1
  O  O138  1  0.15181302  0.47497657  0.75636931  1
  O  O139  1  0.65189218  0.47509949  0.75645244  1
  O  O140  1  0.08659709  0.69967149  0.75694174  1
  O  O141  1  0.58660005  0.69951366  0.75702148  1
  O  O142  1  0.26505882  0.82575886  0.75645037  1
  O  O143  1  0.76508875  0.82567037  0.75633525  1
loop_
_geom_bond_atom_site_label_1
_geom_bond_atom_site_label_2
_geom_bond_distance
_geom_bond_site_symmetry_2
Na0 O104 2.356277 1_555
Na0 O134 2.357433 1_545
Na0 O106 2.397031 1_555
Na0 O132 2.566296 1_545
Na0 O32 2.585376 1_555
Na0 O62 2.705106 1_545
Na0 O4 2.800146 1_555
Na0 O18 2.834887 1_545
Na1 O107 2.340563 1_555
Na1 O137 2.381560 1_555
Na1 O103 2.402199 1_555
Na1 O135 2.548563 1_555
Na1 O35 2.580512 1_555
Na1 O65 2.721852 1_555
Na1 O21 2.853514 1_555
Na1 O1 2.854590 1_555
Na2 O100 2.311637 1_555
Na2 O142 2.339949 1_555
Na2 O98 2.374080 1_555
Na2 O138 2.509418 1_555
Na2 O28 2.598069 1_555
Na2 O70 2.691162 1_555
Na2 O12 2.877669 1_555
Na2 O8 2.901123 1_555
Na3 O101 2.311220 1_555
Na3 O143 2.339938 1_555
Na3 O99 2.371606 1_555
Na3 O139 2.506685 1_555
Na3 O29 2.571739 1_555
Na3 O71 2.688672 1_555
Na3 O13 2.881835 1_555
Na3 O9 2.901855 1_555
Na4 O130 2.380408 1_555
Na4 O128 2.393079 1_555
Na4 O86 2.409249 1_555
Na4 O56 2.487121 1_555
Na4 O85 2.553866 1_455
Na4 O14 2.752255 1_555
Na4 O42 2.813235 1_555
Na4 O28 2.854643 1_555
Na5 O131 2.388157 1_555
Na5 O129 2.399924 1_555
Na5 O87 2.411810 1_555
Na5 O57 2.503689 1_555
Na5 O84 2.555731 1_555
Na5 O15 2.762050 1_555
Na5 O43 2.816493 1_555
Na5 O29 2.871913 1_555
Na6 O126 2.381126 1_555
Na6 O130 2.403046 1_555
Na6 O89 2.408516 1_455
Na6 O58 2.492202 1_555
Na6 O86 2.561454 1_565
Na6 O16 2.740828 1_555
Na6 O45 2.783742 1_455
Na6 O25 2.795813 1_455
Na7 O127 2.381245 1_555
Na7 O131 2.406208 1_555
Na7 O88 2.419279 1_555
Na7 O59 2.540734 1_555
Na7 O87 2.550333 1_565
Na7 O17 2.738155 1_555
Na7 O24 2.798864 1_555
Na7 O44 2.804868 1_555
Na8 O128 2.382743 1_555
Na8 O126 2.402184 1_555
Na8 O84 2.406467 1_565
Na8 O88 2.537383 1_555
Na8 O54 2.562048 1_555
Na8 O12 2.759982 1_555
Na8 O46 2.805587 1_565
Na8 O26 2.814050 1_565
Na9 O129 2.398636 1_555
Na9 O85 2.401865 1_565
Na9 O127 2.402863 1_555
Na9 O55 2.486095 1_555
Na9 O89 2.563334 1_555
Na9 O13 2.769749 1_555
Na9 O27 2.800852 1_565
Na9 O47 2.801344 1_565
Na10 O122 2.387245 1_555
Na10 O124 2.394122 1_555
Na10 O94 2.413579 1_565
Na10 O52 2.501847 1_554
Na10 O91 2.549985 1_455
Na10 O22 2.747226 1_555
Na10 O36 2.807737 1_565
Na10 O32 2.850120 1_565
Na11 O123 2.386434 1_555
Na11 O95 2.401574 1_565
Na11 O125 2.404255 1_555
Na11 O53 2.509136 1_554
Na11 O90 2.557637 1_555
Na11 O23 2.770815 1_555
Na11 O37 2.798389 1_565
Na11 O33 2.799429 1_565
Na12 O124 2.398213 1_555
Na12 O90 2.400153 1_555
Na12 O120 2.400962 1_555
Na12 O48 2.539305 1_554
Na12 O92 2.550262 1_565
Na12 O18 2.798691 1_555
Na12 O38 2.809690 1_555
Na12 O34 2.811543 1_555
Na13 O125 2.386280 1_555
Na13 O121 2.390741 1_555
Na13 O91 2.404389 1_555
Na13 O49 2.528953 1_554
Na13 O93 2.552997 1_565
Na13 O19 2.753534 1_555
Na13 O39 2.808172 1_555
Na13 O35 2.851524 1_555
Na14 O120 2.390441 1_555
Na14 O122 2.395218 1_555
Na14 O93 2.408723 1_455
Na14 O50 2.500654 1_554
Na14 O94 2.560678 1_555
Na14 O20 2.754723 1_555
Na14 O41 2.790010 1_455
Na14 O31 2.807396 1_455
Na15 O121 2.398168 1_555
Na15 O123 2.408689 1_555
Na15 O92 2.410209 1_555
Na15 O51 2.512216 1_554
Na15 O95 2.561230 1_555
Na15 O21 2.725567 1_555
Na15 O30 2.791002 1_555
Na15 O40 2.795312 1_555
Na16 O77 2.326644 1_555
Na16 O73 2.405175 1_545
Na16 O115 2.410572 1_555
Na16 O117 2.527457 1_555
Na16 O1 2.558197 1_555
Na16 O43 2.699288 1_555
Na16 O63 2.812702 1_545
Na16 O59 2.866048 1_545
Na17 O74 2.364815 1_555
Na17 O73 2.386176 1_555
Na17 O116 2.398279 1_555
Na17 O2 2.511339 1_555
Na17 O118 2.514453 1_555
Na17 O44 2.764237 1_555
Na17 O64 2.804402 1_555
Na17 O54 2.875898 1_555
Na18 O76 2.494053 1_665
Na18 O75 2.498391 1_555
Na18 O72 2.513664 1_655
Na18 O89 2.586886 1_555
Na18 O86 2.590454 1_665
Na18 O85 2.607831 1_565
Na19 O77 2.404823 1_555
Na19 O74 2.414885 1_545
Na19 O73 2.522980 1_545
Na19 O84 2.560197 1_555
Na19 O87 2.640946 1_555
Na19 O88 2.649264 1_545
Na20 O83 2.524329 1_555
Na20 O78 2.535205 1_665
Na20 O80 2.536411 1_655
Na20 O91 2.572213 1_556
Na20 O94 2.573563 1_666
Na20 O93 2.579274 1_566
Na21 O82 2.531369 1_555
Na21 O79 2.541917 1_565
Na21 O81 2.544173 1_555
Na21 O95 2.567145 1_566
Na21 O90 2.567593 1_556
Na21 O92 2.570036 1_566
Na22 O96 2.423238 1_555
Na22 O112 2.494168 1_555
Na22 O110 2.503375 1_555
Na22 O98 2.518294 1_555
Na22 O100 2.545333 1_555
Na22 O108 2.587172 1_555
Na23 O97 2.425270 1_555
Na23 O113 2.497660 1_555
Na23 O111 2.503163 1_555
Na23 O99 2.514487 1_555
Na23 O101 2.545720 1_555
Na23 O109 2.586370 1_555
Na24 O102 2.441513 1_555
Na24 O106 2.445729 1_555
Na24 O104 2.484926 1_555
Na24 O118 2.571717 1_555
Na24 O116 2.588410 1_555
Na24 O114 2.628173 1_555
Na25 O105 2.362329 1_555
Na25 O103 2.446205 1_555
Na25 O119 2.525872 1_555
Na25 O107 2.563151 1_555
Na25 O115 2.569608 1_555
Na25 O117 2.650773 1_555
Na26 O134 2.510133 1_555
Na26 O136 2.510813 1_555
Na26 O120 2.542411 1_555
Na26 O122 2.548398 1_555
Na26 O132 2.554599 1_555
Na26 O124 2.609014 1_555
Na27 O133 2.453463 1_555
Na27 O137 2.514610 1_555
Na27 O123 2.542927 1_555
Na27 O125 2.548406 1_555
Na27 O135 2.561091 1_555
Na27 O121 2.621094 1_555
Na28 O140 2.468942 1_555
Na28 O138 2.526832 1_555
Na28 O142 2.548418 1_555
Na28 O126 2.549149 1_555
Na28 O130 2.555025 1_555
Na28 O128 2.610584 1_555
Na29 O141 2.466835 1_555
Na29 O139 2.529758 1_555
Na29 O143 2.544337 1_555
Na29 O127 2.547019 1_555
Na29 O131 2.557886 1_555
Na29 O129 2.613577 1_555
Mg0 O4 1.950517 1_555
Mg0 O2 2.008789 1_545
Mg0 O1 2.009539 1_555
Mg0 O74 2.058225 1_545
Mg0 O77 2.066669 1_555
Mg0 O73 2.118364 1_545
Mg1 O26 1.991145 1_555
Mg1 O24 1.992087 1_555
Mg1 O96 2.046204 1_555
Mg1 O28 2.063673 1_555
Mg1 O98 2.108738 1_555
Mg1 O100 2.113743 1_555
Mg2 O27 1.987194 1_555
Mg2 O25 1.992692 1_555
Mg2 O97 2.043506 1_555
Mg2 O29 2.064121 1_555
Mg2 O99 2.113291 1_555
Mg2 O101 2.120235 1_555
Mg3 O34 1.973692 1_555
Mg3 O30 1.986968 1_555
Mg3 O102 2.016988 1_555
Mg3 O32 2.056433 1_555
Mg3 O104 2.058163 1_555
Mg3 O106 2.137289 1_555
Mg4 O31 1.979870 1_555
Mg4 O33 1.986284 1_555
Mg4 O107 2.058176 1_555
Mg4 O105 2.063643 1_555
Mg4 O35 2.069373 1_555
Mg4 O103 2.135990 1_555
Mg5 O48 2.009292 1_554
Mg5 O52 2.014957 1_554
Mg5 O50 2.016158 1_554
Mg5 O124 2.108611 1_555
Mg5 O120 2.110368 1_555
Mg5 O122 2.110495 1_555
Mg6 O49 2.010048 1_554
Mg6 O51 2.013392 1_554
Mg6 O53 2.016425 1_554
Mg6 O123 2.103672 1_555
Mg6 O125 2.106519 1_555
Mg6 O121 2.114619 1_555
Mg7 O54 1.976858 1_555
Mg7 O58 2.004644 1_555
Mg7 O56 2.016622 1_555
Mg7 O130 2.080208 1_555
Mg7 O126 2.115370 1_555
Mg7 O128 2.126186 1_555
Mg8 O57 1.968216 1_555
Mg8 O59 1.989012 1_555
Mg8 O55 2.014089 1_555
Mg8 O129 2.095486 1_555
Mg8 O127 2.110488 1_555
Mg8 O131 2.110947 1_555
O0 P0 1.533865 1_545
O0 Ti0 1.905214 1_545
O1 P1 1.515937 1_545
O2 P2 1.509367 1_555
O3 P3 1.534760 1_555
O3 Ti0 1.902793 1_655
O4 P5 1.504953 1_555
O5 P4 1.537488 1_655
O5 Ti0 1.899459 1_645
O6 P6 1.528043 1_555
O6 Ti1 1.923806 1_555
O7 P7 1.529473 1_555
O7 Ti2 1.921329 1_555
O8 P9 1.533732 1_555
O8 Ti2 1.945932 1_565
O9 P8 1.534639 1_655
O9 Ti1 1.944219 1_665
O10 P10 1.536333 1_555
O10 Ti2 1.918384 1_555
O11 P11 1.535053 1_555
O11 Ti1 1.920507 1_655
O12 P10 1.597511 1_565
O12 Ti4 1.923504 1_565
O13 P11 1.602364 1_565
O13 Ti3 1.911363 1_665
O14 P6 1.592665 1_555
O14 Ti3 1.889561 1_555
O15 P7 1.588685 1_555
O15 Ti4 1.900650 1_555
O16 P8 1.593884 1_555
O16 Ti3 1.910400 1_565
O17 P9 1.592291 1_555
O17 Ti4 1.905947 1_565
O18 P2 1.620654 1_555
O18 Ti6 1.900596 1_555
O19 P3 1.584547 1_555
O19 Ti5 1.912406 1_665
O20 P4 1.587888 1_555
O20 Ti5 1.907175 1_555
O21 P5 1.617337 1_555
O21 Ti6 1.920915 1_545
O22 P0 1.581772 1_555
O22 Ti5 1.916456 1_565
O23 P1 1.608047 1_555
O23 Ti6 1.896585 1_555
O24 P12 1.505608 1_555
O25 P13 1.508640 1_555
O26 P14 1.505442 1_555
O27 P15 1.510817 1_555
O28 P16 1.522867 1_555
O29 P17 1.518578 1_555
O30 P18 1.508282 1_555
O31 P19 1.511439 1_555
O32 P20 1.524126 1_555
O33 P21 1.509652 1_555
O34 P22 1.508767 1_555
O35 P23 1.522959 1_555
O36 P22 1.577154 1_555
O36 Ti7 1.964173 1_554
O37 P23 1.578128 1_555
O37 Ti8 1.968747 1_554
O38 P18 1.582263 1_555
O38 Ti7 1.954281 1_554
O39 P19 1.578735 1_555
O39 Ti8 1.961686 1_554
O40 P20 1.574727 1_555
O40 Ti7 1.987439 1_554
O41 P21 1.576825 1_555
O41 Ti8 1.974856 1_554
O42 P14 1.585600 1_555
O42 Ti9 1.929570 1_555
O43 P15 1.578160 1_555
O43 Ti10 2.051383 1_555
O44 P16 1.575050 1_555
O44 Ti9 2.071201 1_555
O45 P17 1.582161 1_555
O45 Ti10 1.947623 1_555
O46 P12 1.590544 1_555
O46 Ti9 1.928407 1_555
O47 P13 1.581447 1_555
O47 Ti10 1.964147 1_555
O48 P24 1.515828 1_555
O49 P25 1.515403 1_555
O50 P26 1.514065 1_555
O51 P27 1.513785 1_555
O52 P28 1.514875 1_555
O53 P29 1.514279 1_555
O54 P30 1.525135 1_555
O55 P31 1.518092 1_555
O56 P32 1.518535 1_555
O57 P33 1.516743 1_555
O58 P34 1.513437 1_555
O59 P35 1.520477 1_555
O60 P34 1.562669 1_555
O60 Ti11 1.914465 1_555
O61 P35 1.579032 1_555
O61 Ti12 1.897271 1_555
O62 P30 1.574125 1_555
O62 Ti11 1.990351 1_555
O63 P31 1.572888 1_555
O63 Ti12 1.931242 1_555
O64 P32 1.574316 1_555
O64 Ti11 1.927411 1_555
O65 P33 1.575320 1_555
O65 Ti12 1.975249 1_555
O66 P26 1.573535 1_555
O66 Ti13 1.882811 1_555
O67 P27 1.574382 1_555
O67 Ti14 1.880489 1_555
O68 P28 1.575859 1_555
O68 Ti13 1.881342 1_555
O69 P29 1.575965 1_555
O69 Ti14 1.884102 1_555
O70 P24 1.570914 1_555
O70 Ti13 1.963961 1_555
O71 P25 1.570772 1_555
O71 Ti14 1.964436 1_555
O72 P34 1.545215 1_555
O72 Ti0 1.974892 1_555
O73 P35 1.534233 1_555
O74 P30 1.522678 1_555
O75 P31 1.538596 1_555
O75 Ti0 1.982199 1_655
O76 P32 1.538135 1_555
O76 Ti0 1.987144 1_545
O77 P33 1.525658 1_555
O78 P26 1.551929 1_555
O78 Ti1 1.952000 1_555
O79 P27 1.551109 1_555
O79 Ti2 1.951013 1_555
O80 P28 1.550880 1_555
O80 Ti1 1.956746 1_565
O81 P29 1.550020 1_555
O81 Ti2 1.958494 1_565
O82 P24 1.555856 1_555
O82 Ti2 1.959088 1_565
O83 P25 1.556972 1_555
O83 Ti1 1.956176 1_665
O84 P12 1.578396 1_555
O84 Ti4 2.081154 1_555
O85 P13 1.584486 1_555
O85 Ti3 2.070746 1_655
O86 P14 1.580940 1_555
O86 Ti3 2.066791 1_555
O87 P15 1.589517 1_555
O87 Ti4 2.046054 1_555
O88 P16 1.588697 1_555
O88 Ti4 2.064636 1_565
O89 P17 1.579131 1_555
O89 Ti3 2.085328 1_665
O90 P18 1.584138 1_555
O90 Ti6 2.083521 1_555
O91 P19 1.584026 1_555
O91 Ti5 2.078634 1_665
O92 P20 1.582937 1_555
O92 Ti6 2.097715 1_545
O93 P21 1.587550 1_555
O93 Ti5 2.059021 1_655
O94 P22 1.584925 1_555
O94 Ti5 2.059859 1_555
O95 P23 1.581707 1_555
O95 Ti6 2.097375 1_545
O96 P10 1.505491 1_555
O97 P11 1.504578 1_555
O98 P6 1.520800 1_555
O99 P7 1.521765 1_555
O100 P9 1.521070 1_555
O101 P8 1.520622 1_655
O102 P2 1.499517 1_555
O103 P3 1.516667 1_555
O104 P5 1.512150 1_555
O105 P4 1.500986 1_655
O106 P0 1.514003 1_545
O107 P1 1.520478 1_545
O108 P24 1.561158 1_555
O108 Ti7 1.991150 1_555
O109 P25 1.560208 1_555
O109 Ti8 1.996544 1_555
O110 P27 1.552378 1_555
O110 Ti7 2.010419 1_555
O111 P26 1.552777 1_655
O111 Ti8 2.007391 1_555
O112 P28 1.552482 1_545
O112 Ti7 2.016368 1_555
O113 P29 1.553972 1_545
O113 Ti8 2.012567 1_555
O114 P30 1.574570 1_545
O114 Ti9 1.918111 1_555
O115 P31 1.568779 1_545
O115 Ti10 2.050649 1_555
O116 P32 1.567302 1_555
O116 Ti9 2.054148 1_555
O117 P33 1.592386 1_555
O117 Ti10 1.973019 1_555
O118 P35 1.563315 1_555
O118 Ti9 2.023804 1_555
O119 P34 1.567440 1_655
O119 Ti10 1.947335 1_555
O120 P22 1.535780 1_555
O121 P23 1.537417 1_555
O122 P19 1.536251 1_455
O123 P18 1.536197 1_555
O124 P20 1.538730 1_565
O125 P21 1.536255 1_565
O126 P14 1.532469 1_565
O127 P15 1.537943 1_565
O128 P16 1.539475 1_555
O129 P17 1.533402 1_555
O130 P13 1.535311 1_455
O131 P12 1.532178 1_555
O132 P0 1.563814 1_555
O132 Ti11 2.043000 1_555
O133 P1 1.559865 1_555
O133 Ti12 1.994734 1_555
O134 P2 1.586609 1_555
O134 Ti11 2.045590 1_555
O135 P3 1.559046 1_555
O135 Ti12 2.064136 1_555
O136 P4 1.560885 1_555
O136 Ti11 1.975840 1_555
O137 P5 1.568855 1_555
O137 Ti12 2.056941 1_555
O138 P6 1.557069 1_555
O138 Ti13 2.090141 1_555
O139 P7 1.558982 1_555
O139 Ti14 2.086907 1_555
O140 P8 1.545586 1_555
O140 Ti13 2.015505 1_555
O141 P9 1.545606 1_555
O141 Ti14 2.014706 1_555
O142 P10 1.560919 1_565
O142 Ti13 2.099049 1_555
O143 P11 1.558772 1_565
O143 Ti14 2.104884 1_555
