# generated using pymatgen
data_Na3YTaSi2PO12
_symmetry_space_group_name_H-M   'P 1'
_cell_length_a   16.09647482
_cell_length_b   27.73962145
_cell_length_c   9.13624077
_cell_angle_alpha   90.00000000
_cell_angle_beta   125.27671146
_cell_angle_gamma   90.00000000
_symmetry_Int_Tables_number   1
_chemical_formula_structural   Na3YTaSi2PO12
_chemical_formula_sum   'Na36 Y12 Ta12 Si24 P12 O144'
_cell_volume   3330.32911697
_cell_formula_units_Z   12
loop_
 _symmetry_equiv_pos_site_id
 _symmetry_equiv_pos_as_xyz
  1  'x, y, z'
loop_
 _atom_site_type_symbol
 _atom_site_label
 _atom_site_symmetry_multiplicity
 _atom_site_fract_x
 _atom_site_fract_y
 _atom_site_fract_z
 _atom_site_occupancy
  Na  Na0  1  0.24818631  0.25672428  0.99864475  1
  Na  Na1  1  0.23981486  0.58841086  0.00802042  1
  Na  Na2  1  0.24136262  0.92003370  0.00783690  1
  Na  Na3  1  0.74818631  0.24327572  0.49864475  1
  Na  Na4  1  0.74136262  0.57996630  0.50783690  1
  Na  Na5  1  0.73981486  0.91158914  0.50802042  1
  Na  Na6  1  0.73981486  0.08841086  0.00802042  1
  Na  Na7  1  0.74136262  0.42003370  0.00783690  1
  Na  Na8  1  0.74818631  0.75672428  0.99864475  1
  Na  Na9  1  0.24136262  0.07996630  0.50783690  1
  Na  Na10  1  0.23981486  0.41158914  0.50802042  1
  Na  Na11  1  0.24818631  0.74327572  0.49864475  1
  Na  Na12  1  0.49284189  0.03150747  0.75270462  1
  Na  Na13  1  0.49573768  0.36548459  0.76096519  1
  Na  Na14  1  0.49257441  0.69781064  0.75056330  1
  Na  Na15  1  0.49257441  0.30218936  0.25056330  1
  Na  Na16  1  0.49573768  0.63451541  0.26096519  1
  Na  Na17  1  0.49284189  0.96849253  0.25270462  1
  Na  Na18  1  0.99257441  0.19781064  0.75056330  1
  Na  Na19  1  0.99284189  0.53150747  0.75270462  1
  Na  Na20  1  0.99573768  0.86548459  0.76096519  1
  Na  Na21  1  0.99573768  0.13451541  0.26096519  1
  Na  Na22  1  0.99284189  0.46849253  0.25270462  1
  Na  Na23  1  0.99257441  0.80218936  0.25056330  1
  Na  Na24  1  0.81977201  0.64382399  0.19944692  1
  Na  Na25  1  0.81994396  0.97710686  0.20544776  1
  Na  Na26  1  0.19187725  0.30584637  0.28879298  1
  Na  Na27  1  0.19187725  0.69415363  0.78879298  1
  Na  Na28  1  0.81994396  0.02289314  0.70544776  1
  Na  Na29  1  0.81977201  0.35617601  0.69944692  1
  Na  Na30  1  0.31977201  0.14382399  0.19944692  1
  Na  Na31  1  0.31994396  0.47710686  0.20544776  1
  Na  Na32  1  0.69187725  0.80584637  0.28879298  1
  Na  Na33  1  0.69187725  0.19415363  0.78879298  1
  Na  Na34  1  0.31994396  0.52289314  0.70544776  1
  Na  Na35  1  0.31977201  0.85617601  0.69944692  1
  Y  Y0  1  0.89916312  0.25136464  0.94471509  1
  Y  Y1  1  0.89193976  0.58364563  0.92939455  1
  Y  Y2  1  0.89196706  0.91521090  0.93355904  1
  Y  Y3  1  0.89196706  0.08478910  0.43355904  1
  Y  Y4  1  0.89193976  0.41635437  0.42939455  1
  Y  Y5  1  0.89916312  0.74863536  0.44471509  1
  Y  Y6  1  0.39193976  0.08364563  0.92939455  1
  Y  Y7  1  0.39196706  0.41521090  0.93355904  1
  Y  Y8  1  0.39916312  0.75136464  0.94471509  1
  Y  Y9  1  0.39916312  0.24863536  0.44471509  1
  Y  Y10  1  0.39196706  0.58478910  0.43355904  1
  Y  Y11  1  0.39193976  0.91635437  0.42939455  1
  Ta  Ta0  1  0.10526874  0.24809801  0.56223172  1
  Ta  Ta1  1  0.10540676  0.58247119  0.56380444  1
  Ta  Ta2  1  0.10598251  0.91659304  0.56421197  1
  Ta  Ta3  1  0.10598251  0.08340696  0.06421197  1
  Ta  Ta4  1  0.10540676  0.41752881  0.06380444  1
  Ta  Ta5  1  0.10526874  0.75190199  0.06223172  1
  Ta  Ta6  1  0.60540676  0.08247119  0.56380444  1
  Ta  Ta7  1  0.60598251  0.41659304  0.56421197  1
  Ta  Ta8  1  0.60526874  0.74809801  0.56223172  1
  Ta  Ta9  1  0.60526874  0.25190199  0.06223172  1
  Ta  Ta10  1  0.60598251  0.58340696  0.06421197  1
  Ta  Ta11  1  0.60540676  0.91752881  0.06380444  1
  Si  Si0  1  0.34525932  0.29466618  0.74622591  1
  Si  Si1  1  0.35000232  0.62839822  0.76077763  1
  Si  Si2  1  0.34930647  0.96118487  0.75584896  1
  Si  Si3  1  0.64521497  0.30405429  0.74255321  1
  Si  Si4  1  0.64284880  0.63588825  0.73920203  1
  Si  Si5  1  0.64390902  0.97022632  0.74036826  1
  Si  Si6  1  0.64390902  0.02977368  0.24036826  1
  Si  Si7  1  0.64284880  0.36411175  0.23920203  1
  Si  Si8  1  0.64521497  0.69594571  0.24255321  1
  Si  Si9  1  0.34930647  0.03881513  0.25584896  1
  Si  Si10  1  0.35000232  0.37160178  0.26077763  1
  Si  Si11  1  0.34525932  0.70533382  0.24622591  1
  Si  Si12  1  0.85000232  0.12839822  0.76077763  1
  Si  Si13  1  0.84930647  0.46118487  0.75584896  1
  Si  Si14  1  0.84525932  0.79466618  0.74622591  1
  Si  Si15  1  0.14284880  0.13588825  0.73920203  1
  Si  Si16  1  0.14390902  0.47022632  0.74036826  1
  Si  Si17  1  0.14521497  0.80405429  0.74255321  1
  Si  Si18  1  0.14521497  0.19594571  0.24255321  1
  Si  Si19  1  0.14390902  0.52977368  0.24036826  1
  Si  Si20  1  0.14284880  0.86411175  0.23920203  1
  Si  Si21  1  0.84525932  0.20533382  0.24622591  1
  Si  Si22  1  0.84930647  0.53881513  0.25584896  1
  Si  Si23  1  0.85000232  0.87160178  0.26077763  1
  P  P0  1  0.01289770  0.31934299  0.75497349  1
  P  P1  1  0.00952394  0.65179246  0.74925050  1
  P  P2  1  0.01009766  0.98653247  0.74954499  1
  P  P3  1  0.01009766  0.01346753  0.24954499  1
  P  P4  1  0.00952394  0.34820754  0.24925050  1
  P  P5  1  0.01289770  0.68065701  0.25497349  1
  P  P6  1  0.50952394  0.15179246  0.74925050  1
  P  P7  1  0.51009766  0.48653247  0.74954499  1
  P  P8  1  0.51289770  0.81934299  0.75497349  1
  P  P9  1  0.51289770  0.18065701  0.25497349  1
  P  P10  1  0.51009766  0.51346753  0.24954499  1
  P  P11  1  0.50952394  0.84820754  0.24925050  1
  O  O0  1  0.14007087  0.19678668  0.74157146  1
  O  O1  1  0.14270810  0.53111189  0.74881531  1
  O  O2  1  0.14342606  0.86405432  0.74679536  1
  O  O3  1  0.83848611  0.18684813  0.75288724  1
  O  O4  1  0.84380519  0.51911130  0.74911391  1
  O  O5  1  0.83972871  0.85331414  0.74777308  1
  O  O6  1  0.83972871  0.14668586  0.24777308  1
  O  O7  1  0.84380519  0.48088870  0.24911391  1
  O  O8  1  0.83848611  0.81315187  0.25288724  1
  O  O9  1  0.14342606  0.13594568  0.24679536  1
  O  O10  1  0.14270810  0.46888811  0.24881531  1
  O  O11  1  0.14007087  0.80321332  0.24157146  1
  O  O12  1  0.64270810  0.03111189  0.74881531  1
  O  O13  1  0.64342606  0.36405432  0.74679536  1
  O  O14  1  0.64007087  0.69678668  0.74157146  1
  O  O15  1  0.34380519  0.01911130  0.74911391  1
  O  O16  1  0.33972871  0.35331414  0.74777308  1
  O  O17  1  0.33848611  0.68684813  0.75288724  1
  O  O18  1  0.33848611  0.31315187  0.25288724  1
  O  O19  1  0.33972871  0.64668586  0.24777308  1
  O  O20  1  0.34380519  0.98088870  0.24911391  1
  O  O21  1  0.64007087  0.30321332  0.24157146  1
  O  O22  1  0.64342606  0.63594568  0.24679536  1
  O  O23  1  0.64270810  0.96888811  0.24881531  1
  O  O24  1  0.44566641  0.17782098  0.57159743  1
  O  O25  1  0.44259661  0.51442200  0.57638595  1
  O  O26  1  0.44925868  0.85049780  0.59136554  1
  O  O27  1  0.56724676  0.18921806  0.90804500  1
  O  O28  1  0.56754086  0.52344452  0.91282889  1
  O  O29  1  0.57473743  0.85314853  0.92860014  1
  O  O30  1  0.57473743  0.14685147  0.42860014  1
  O  O31  1  0.56754086  0.47655548  0.41282889  1
  O  O32  1  0.56724676  0.81078194  0.40804500  1
  O  O33  1  0.44925868  0.14950220  0.09136554  1
  O  O34  1  0.44259661  0.48557800  0.07638595  1
  O  O35  1  0.44566641  0.82217902  0.07159743  1
  O  O36  1  0.94259661  0.01442200  0.57638595  1
  O  O37  1  0.94925868  0.35049780  0.59136554  1
  O  O38  1  0.94566641  0.67782098  0.57159743  1
  O  O39  1  0.06754086  0.02344452  0.91282889  1
  O  O40  1  0.07473743  0.35314853  0.92860014  1
  O  O41  1  0.06724676  0.68921806  0.90804500  1
  O  O42  1  0.06724676  0.31078194  0.40804500  1
  O  O43  1  0.07473743  0.64685147  0.42860014  1
  O  O44  1  0.06754086  0.97655548  0.41282889  1
  O  O45  1  0.94566641  0.32217902  0.07159743  1
  O  O46  1  0.94925868  0.64950220  0.09136554  1
  O  O47  1  0.94259661  0.98557800  0.07638595  1
  O  O48  1  0.24865044  0.26992351  0.73700464  1
  O  O49  1  0.25372076  0.60248921  0.75177592  1
  O  O50  1  0.25277610  0.93515857  0.74625168  1
  O  O51  1  0.74366117  0.28567720  0.75189113  1
  O  O52  1  0.74023880  0.61746082  0.75049736  1
  O  O53  1  0.74429907  0.95584402  0.75031039  1
  O  O54  1  0.74429907  0.04415598  0.25031039  1
  O  O55  1  0.74023880  0.38253918  0.25049736  1
  O  O56  1  0.74366117  0.71432280  0.25189113  1
  O  O57  1  0.25277610  0.06484143  0.24625168  1
  O  O58  1  0.25372076  0.39751079  0.25177592  1
  O  O59  1  0.24865044  0.73007649  0.23700464  1
  O  O60  1  0.75372076  0.10248921  0.75177592  1
  O  O61  1  0.75277610  0.43515857  0.74625168  1
  O  O62  1  0.74865044  0.76992351  0.73700464  1
  O  O63  1  0.24023880  0.11746082  0.75049736  1
  O  O64  1  0.24429907  0.45584402  0.75031039  1
  O  O65  1  0.24366117  0.78567720  0.75189113  1
  O  O66  1  0.24366117  0.21432280  0.25189113  1
  O  O67  1  0.24429907  0.54415598  0.25031039  1
  O  O68  1  0.24023880  0.88253918  0.25049736  1
  O  O69  1  0.74865044  0.23007649  0.23700464  1
  O  O70  1  0.75277610  0.56484143  0.24625168  1
  O  O71  1  0.75372076  0.89751079  0.25177592  1
  O  O72  1  0.33360812  0.28126523  0.56427681  1
  O  O73  1  0.34461032  0.60810178  0.59269599  1
  O  O74  1  0.34742416  0.93885630  0.59416522  1
  O  O75  1  0.63511760  0.28541347  0.91082966  1
  O  O76  1  0.63698189  0.61985911  0.91816222  1
  O  O77  1  0.64026047  0.95224123  0.92009732  1
  O  O78  1  0.64026047  0.04775877  0.42009732  1
  O  O79  1  0.63698189  0.38014089  0.41816222  1
  O  O80  1  0.63511760  0.71458653  0.41082966  1
  O  O81  1  0.34742416  0.06114370  0.09416522  1
  O  O82  1  0.34461032  0.39189822  0.09269599  1
  O  O83  1  0.33360812  0.71873477  0.06427681  1
  O  O84  1  0.84461032  0.10810178  0.59269599  1
  O  O85  1  0.84742416  0.43885630  0.59416522  1
  O  O86  1  0.83360812  0.78126523  0.56427681  1
  O  O87  1  0.13698189  0.11985911  0.91816222  1
  O  O88  1  0.14026047  0.45224123  0.92009732  1
  O  O89  1  0.13511760  0.78541347  0.91082966  1
  O  O90  1  0.13511760  0.21458653  0.41082966  1
  O  O91  1  0.14026047  0.54775877  0.42009732  1
  O  O92  1  0.13698189  0.88014089  0.41816222  1
  O  O93  1  0.83360812  0.21873477  0.06427681  1
  O  O94  1  0.84742416  0.56114370  0.09416522  1
  O  O95  1  0.84461032  0.89189822  0.09269599  1
  O  O96  1  0.45890689  0.27251551  0.92114932  1
  O  O97  1  0.46205972  0.60688120  0.94274543  1
  O  O98  1  0.46332874  0.93858880  0.93993976  1
  O  O99  1  0.54358316  0.28525866  0.56061179  1
  O  O100  1  0.53722190  0.62080908  0.55912741  1
  O  O101  1  0.54065901  0.95359332  0.56084894  1
  O  O102  1  0.54065901  0.04640668  0.06084894  1
  O  O103  1  0.53722190  0.37919092  0.05912741  1
  O  O104  1  0.54358316  0.71474134  0.06061179  1
  O  O105  1  0.46332874  0.06141120  0.43993976  1
  O  O106  1  0.46205972  0.39311880  0.44274543  1
  O  O107  1  0.45890689  0.72748449  0.42114932  1
  O  O108  1  0.96205972  0.10688120  0.94274543  1
  O  O109  1  0.96332874  0.43858880  0.93993976  1
  O  O110  1  0.95890689  0.77251551  0.92114932  1
  O  O111  1  0.03722190  0.12080908  0.55912741  1
  O  O112  1  0.04065901  0.45359332  0.56084894  1
  O  O113  1  0.04358316  0.78525866  0.56061179  1
  O  O114  1  0.04358316  0.21474134  0.06061179  1
  O  O115  1  0.04065901  0.54640668  0.06084894  1
  O  O116  1  0.03722190  0.87919092  0.05912741  1
  O  O117  1  0.95890689  0.22748449  0.42114932  1
  O  O118  1  0.96332874  0.56141120  0.43993976  1
  O  O119  1  0.96205972  0.89311880  0.44274543  1
  O  O120  1  0.09089239  0.28841233  0.74762113  1
  O  O121  1  0.09749459  0.62484112  0.75270666  1
  O  O122  1  0.09164641  0.95654271  0.74821725  1
  O  O123  1  0.93991233  0.28520708  0.76352719  1
  O  O124  1  0.94580956  0.61403692  0.76367152  1
  O  O125  1  0.94096548  0.95257426  0.76701131  1
  O  O126  1  0.94096548  0.04742574  0.26701131  1
  O  O127  1  0.94580956  0.38596308  0.26367152  1
  O  O128  1  0.93991233  0.71479292  0.26352719  1
  O  O129  1  0.09164641  0.04345729  0.24821725  1
  O  O130  1  0.09749459  0.37515888  0.25270666  1
  O  O131  1  0.09089239  0.71158767  0.24762113  1
  O  O132  1  0.59749459  0.12484112  0.75270666  1
  O  O133  1  0.59164641  0.45654271  0.74821725  1
  O  O134  1  0.59089239  0.78841233  0.74762113  1
  O  O135  1  0.44580956  0.11403692  0.76367152  1
  O  O136  1  0.44096548  0.45257426  0.76701131  1
  O  O137  1  0.43991233  0.78520708  0.76352719  1
  O  O138  1  0.43991233  0.21479292  0.26352719  1
  O  O139  1  0.44096548  0.54742574  0.26701131  1
  O  O140  1  0.44580956  0.88596308  0.26367152  1
  O  O141  1  0.59089239  0.21158767  0.24762113  1
  O  O142  1  0.59164641  0.54345729  0.24821725  1
  O  O143  1  0.59749459  0.87515888  0.25270666  1
loop_
_geom_bond_atom_site_label_1
_geom_bond_atom_site_label_2
_geom_bond_distance
_geom_bond_site_symmetry_2
Na0 O120 2.394962 1_555
Na0 O48 2.422558 1_555
Na0 O18 2.461413 1_556
Na0 O0 2.566741 1_555
Na0 O66 2.633764 1_556
Na0 O138 2.847296 1_556
Na1 O121 2.353317 1_554
Na1 O19 2.434886 1_555
Na1 O67 2.495557 1_555
Na1 O49 2.507727 1_554
Na1 O1 2.510416 1_554
Na1 O139 2.919881 1_555
Na2 O122 2.420115 1_554
Na2 O68 2.458360 1_555
Na2 O20 2.495887 1_555
Na2 O2 2.498352 1_554
Na2 O50 2.535463 1_554
Na2 O140 2.881272 1_555
Na3 O141 2.394962 1_555
Na3 O69 2.422558 1_555
Na3 O3 2.461413 1_555
Na3 O21 2.566741 1_555
Na3 O51 2.633764 1_555
Na3 O123 2.847296 1_555
Na4 O142 2.420115 1_555
Na4 O52 2.458360 1_555
Na4 O4 2.495887 1_555
Na4 O22 2.498352 1_555
Na4 O70 2.535463 1_555
Na4 O124 2.881272 1_555
Na5 O143 2.353317 1_555
Na5 O5 2.434886 1_555
Na5 O53 2.495557 1_555
Na5 O71 2.507727 1_555
Na5 O23 2.510416 1_555
Na5 O125 2.919881 1_555
Na6 O132 2.353317 1_554
Na6 O6 2.434886 1_555
Na6 O54 2.495557 1_555
Na6 O60 2.507727 1_554
Na6 O12 2.510416 1_554
Na6 O126 2.919881 1_555
Na7 O133 2.420115 1_554
Na7 O55 2.458360 1_555
Na7 O7 2.495887 1_555
Na7 O13 2.498352 1_554
Na7 O61 2.535463 1_554
Na7 O127 2.881272 1_555
Na8 O134 2.394962 1_555
Na8 O62 2.422558 1_555
Na8 O8 2.461413 1_556
Na8 O14 2.566741 1_555
Na8 O56 2.633764 1_556
Na8 O128 2.847296 1_556
Na9 O129 2.420115 1_555
Na9 O63 2.458360 1_555
Na9 O15 2.495887 1_555
Na9 O9 2.498352 1_555
Na9 O57 2.535463 1_555
Na9 O135 2.881272 1_555
Na10 O130 2.353317 1_555
Na10 O16 2.434886 1_555
Na10 O64 2.495557 1_555
Na10 O58 2.507727 1_555
Na10 O10 2.510416 1_555
Na10 O136 2.919881 1_555
Na11 O131 2.394962 1_555
Na11 O59 2.422558 1_555
Na11 O17 2.461413 1_555
Na11 O11 2.566741 1_555
Na11 O65 2.633764 1_555
Na11 O137 2.847296 1_555
Na12 O15 2.404881 1_555
Na12 O135 2.431428 1_555
Na12 O12 2.433037 1_555
Na12 O102 2.487202 1_556
Na12 O105 2.740639 1_555
Na12 O77 2.934746 1_545
Na13 O103 2.431054 1_556
Na13 O13 2.454625 1_555
Na13 O16 2.466781 1_555
Na13 O136 2.583185 1_555
Na13 O106 2.741103 1_555
Na13 O75 2.879837 1_555
Na14 O14 2.422713 1_555
Na14 O104 2.496469 1_556
Na14 O17 2.511082 1_555
Na14 O137 2.593451 1_555
Na14 O107 2.853961 1_555
Na14 O76 2.883112 1_555
Na15 O21 2.422713 1_555
Na15 O99 2.496469 1_555
Na15 O18 2.511082 1_555
Na15 O138 2.593451 1_555
Na15 O96 2.853961 1_554
Na15 O79 2.883112 1_555
Na16 O100 2.431054 1_555
Na16 O22 2.454625 1_555
Na16 O19 2.466781 1_555
Na16 O139 2.583185 1_555
Na16 O97 2.741103 1_554
Na16 O80 2.879837 1_555
Na17 O20 2.404881 1_555
Na17 O140 2.431428 1_555
Na17 O23 2.433037 1_555
Na17 O101 2.487202 1_555
Na17 O98 2.740639 1_554
Na17 O78 2.934746 1_565
Na18 O0 2.422713 1_655
Na18 O114 2.496469 1_656
Na18 O3 2.511082 1_555
Na18 O123 2.593451 1_555
Na18 O117 2.853961 1_555
Na18 O87 2.883112 1_655
Na19 O4 2.404881 1_555
Na19 O124 2.431428 1_555
Na19 O1 2.433037 1_655
Na19 O115 2.487202 1_656
Na19 O118 2.740639 1_555
Na19 O88 2.934746 1_655
Na20 O116 2.431054 1_656
Na20 O2 2.454625 1_655
Na20 O5 2.466781 1_555
Na20 O125 2.583185 1_555
Na20 O119 2.741103 1_555
Na20 O89 2.879837 1_655
Na21 O111 2.431054 1_655
Na21 O9 2.454625 1_655
Na21 O6 2.466781 1_555
Na21 O126 2.583185 1_555
Na21 O108 2.741103 1_554
Na21 O90 2.879837 1_655
Na22 O7 2.404881 1_555
Na22 O127 2.431428 1_555
Na22 O10 2.433037 1_655
Na22 O112 2.487202 1_655
Na22 O109 2.740639 1_554
Na22 O91 2.934746 1_655
Na23 O11 2.422713 1_655
Na23 O113 2.496469 1_655
Na23 O8 2.511082 1_555
Na23 O128 2.593451 1_555
Na23 O110 2.853961 1_554
Na23 O92 2.883112 1_655
Na24 O56 2.496582 1_555
Na24 O128 2.578827 1_555
Na24 O70 2.584316 1_555
Na24 O94 2.622609 1_555
Na24 O76 2.639985 1_554
Na24 O46 2.778733 1_555
Na24 O38 2.932217 1_555
Na25 O54 2.384603 1_565
Na25 O126 2.578854 1_565
Na25 O71 2.590690 1_555
Na25 O77 2.632156 1_554
Na25 O95 2.697794 1_555
Na25 O47 2.834123 1_555
Na25 O36 2.954015 1_565
Na26 O72 2.317771 1_555
Na26 O130 2.352657 1_555
Na26 O18 2.571365 1_555
Na26 O66 2.752944 1_555
Na26 O42 2.784754 1_555
Na26 O58 2.821293 1_555
Na26 O40 2.989877 1_554
Na27 O83 2.317771 1_556
Na27 O121 2.352657 1_555
Na27 O17 2.571365 1_555
Na27 O65 2.752944 1_555
Na27 O41 2.784754 1_555
Na27 O49 2.821293 1_555
Na27 O43 2.989877 1_555
Na28 O53 2.384603 1_545
Na28 O125 2.578854 1_545
Na28 O60 2.590690 1_555
Na28 O78 2.632156 1_555
Na28 O84 2.697794 1_555
Na28 O36 2.834123 1_555
Na28 O47 2.954015 1_546
Na29 O51 2.496582 1_555
Na29 O123 2.578827 1_555
Na29 O61 2.584316 1_555
Na29 O85 2.622609 1_555
Na29 O79 2.639985 1_555
Na29 O37 2.778733 1_555
Na29 O45 2.932217 1_556
Na30 O66 2.496582 1_555
Na30 O138 2.578827 1_555
Na30 O57 2.584316 1_555
Na30 O81 2.622609 1_555
Na30 O87 2.639985 1_554
Na30 O33 2.778733 1_555
Na30 O24 2.932217 1_555
Na31 O67 2.384603 1_555
Na31 O139 2.578854 1_555
Na31 O58 2.590690 1_555
Na31 O88 2.632156 1_554
Na31 O82 2.697794 1_555
Na31 O34 2.834123 1_555
Na31 O25 2.954015 1_555
Na32 O86 2.317771 1_555
Na32 O143 2.352657 1_555
Na32 O8 2.571365 1_555
Na32 O56 2.752944 1_555
Na32 O32 2.784754 1_555
Na32 O71 2.821293 1_555
Na32 O29 2.989877 1_554
Na33 O93 2.317771 1_556
Na33 O132 2.352657 1_555
Na33 O3 2.571365 1_555
Na33 O51 2.752944 1_555
Na33 O27 2.784754 1_555
Na33 O60 2.821293 1_555
Na33 O30 2.989877 1_555
Na34 O64 2.384603 1_555
Na34 O136 2.578854 1_555
Na34 O49 2.590690 1_555
Na34 O91 2.632156 1_555
Na34 O73 2.697794 1_555
Na34 O25 2.834123 1_555
Na34 O34 2.954015 1_556
Na35 O65 2.496582 1_555
Na35 O137 2.578827 1_555
Na35 O50 2.584316 1_555
Na35 O74 2.622609 1_555
Na35 O92 2.639985 1_555
Na35 O26 2.778733 1_555
Na35 O35 2.932217 1_556
O0 Si15 1.690360 1_555
O0 Ta0 1.991036 1_555
O1 Si16 1.691325 1_555
O1 Ta1 2.018691 1_555
O2 Si17 1.665465 1_555
O2 Ta2 2.026980 1_555
O3 Si12 1.628801 1_555
O3 Y0 2.291557 1_555
O4 Si13 1.608516 1_555
O4 Y1 2.245850 1_555
O5 Si14 1.629813 1_555
O5 Y2 2.210806 1_555
O6 Si21 1.629813 1_555
O6 Y3 2.210806 1_555
O7 Si22 1.608516 1_555
O7 Y4 2.245850 1_555
O8 Si23 1.628801 1_555
O8 Y5 2.291557 1_555
O9 Si18 1.665465 1_555
O9 Ta3 2.026980 1_555
O10 Si19 1.691325 1_555
O10 Ta4 2.018691 1_555
O11 Si20 1.690360 1_555
O11 Ta5 1.991036 1_555
O12 Si5 1.691325 1_545
O12 Ta6 2.018691 1_555
O13 Si3 1.665465 1_555
O13 Ta7 2.026980 1_555
O14 Si4 1.690360 1_555
O14 Ta8 1.991036 1_555
O15 Si2 1.608516 1_545
O15 Y6 2.245850 1_555
O16 Si0 1.629813 1_555
O16 Y7 2.210806 1_555
O17 Si1 1.628801 1_555
O17 Y8 2.291557 1_555
O18 Si10 1.628801 1_555
O18 Y9 2.291557 1_555
O19 Si11 1.629813 1_555
O19 Y10 2.210806 1_555
O20 Si9 1.608516 1_565
O20 Y11 2.245850 1_555
O21 Si7 1.690360 1_555
O21 Ta9 1.991036 1_555
O22 Si8 1.665465 1_555
O22 Ta10 2.026980 1_555
O23 Si6 1.691325 1_565
O23 Ta11 2.018691 1_555
O24 P6 1.511699 1_555
O24 Y9 2.181874 1_555
O25 P7 1.515399 1_555
O25 Y10 2.224574 1_555
O26 P8 1.503969 1_555
O26 Y11 2.191209 1_555
O27 P6 1.577621 1_555
O27 Ta9 2.094438 1_556
O28 P7 1.592357 1_555
O28 Ta10 2.018403 1_556
O29 P8 1.600846 1_555
O29 Ta11 2.062667 1_556
O30 P9 1.600846 1_555
O30 Ta6 2.062667 1_555
O31 P10 1.592357 1_555
O31 Ta7 2.018403 1_555
O32 P11 1.577621 1_555
O32 Ta8 2.094438 1_555
O33 P9 1.503969 1_555
O33 Y6 2.191209 1_554
O34 P10 1.515399 1_555
O34 Y7 2.224574 1_554
O35 P11 1.511699 1_555
O35 Y8 2.181874 1_554
O36 P2 1.515399 1_645
O36 Y3 2.224574 1_555
O37 P0 1.503969 1_655
O37 Y4 2.191209 1_555
O38 P1 1.511699 1_655
O38 Y5 2.181874 1_555
O39 P2 1.592357 1_545
O39 Ta3 2.018403 1_556
O40 P0 1.600846 1_555
O40 Ta4 2.062667 1_556
O41 P1 1.577621 1_555
O41 Ta5 2.094438 1_556
O42 P4 1.577621 1_555
O42 Ta0 2.094438 1_555
O43 P5 1.600846 1_555
O43 Ta1 2.062667 1_555
O44 P3 1.592357 1_565
O44 Ta2 2.018403 1_555
O45 P4 1.511699 1_655
O45 Y0 2.181874 1_554
O46 P5 1.503969 1_655
O46 Y1 2.191209 1_554
O47 P3 1.515399 1_665
O47 Y2 2.224574 1_554
O48 Si0 1.656826 1_555
O48 Ta0 1.996535 1_555
O49 Si1 1.666716 1_555
O49 Ta1 2.054609 1_555
O50 Si2 1.669083 1_555
O50 Ta2 2.018736 1_555
O51 Si3 1.619280 1_555
O51 Y0 2.276269 1_555
O52 Si4 1.594543 1_555
O52 Y1 2.214506 1_555
O53 Si5 1.615270 1_555
O53 Y2 2.264230 1_555
O54 Si6 1.615270 1_555
O54 Y3 2.264230 1_555
O55 Si7 1.594543 1_555
O55 Y4 2.214506 1_555
O56 Si8 1.619280 1_555
O56 Y5 2.276269 1_555
O57 Si9 1.669083 1_555
O57 Ta3 2.018736 1_555
O58 Si10 1.666716 1_555
O58 Ta4 2.054609 1_555
O59 Si11 1.656826 1_555
O59 Ta5 1.996535 1_555
O60 Si12 1.666716 1_555
O60 Ta6 2.054609 1_555
O61 Si13 1.669083 1_555
O61 Ta7 2.018736 1_555
O62 Si14 1.656826 1_555
O62 Ta8 1.996535 1_555
O63 Si15 1.594543 1_555
O63 Y6 2.214506 1_555
O64 Si16 1.615270 1_555
O64 Y7 2.264230 1_555
O65 Si17 1.619280 1_555
O65 Y8 2.276269 1_555
O66 Si18 1.619280 1_555
O66 Y9 2.276269 1_555
O67 Si19 1.615270 1_555
O67 Y10 2.264230 1_555
O68 Si20 1.594543 1_555
O68 Y11 2.214506 1_555
O69 Si21 1.656826 1_555
O69 Ta9 1.996535 1_555
O70 Si22 1.669083 1_555
O70 Ta10 2.018736 1_555
O71 Si23 1.666716 1_555
O71 Ta11 2.054609 1_555
O72 Si0 1.605181 1_555
O72 Y9 2.111236 1_555
O73 Si1 1.590203 1_555
O73 Y10 2.096010 1_555
O74 Si2 1.585852 1_555
O74 Y11 2.101229 1_555
O75 Si3 1.716410 1_555
O75 Ta9 1.943194 1_556
O76 Si4 1.748792 1_555
O76 Ta10 1.954730 1_556
O77 Si5 1.749303 1_555
O77 Ta11 1.953601 1_556
O78 Si6 1.749303 1_555
O78 Ta6 1.953601 1_555
O79 Si7 1.748792 1_555
O79 Ta7 1.954730 1_555
O80 Si8 1.716410 1_555
O80 Ta8 1.943194 1_555
O81 Si9 1.585852 1_555
O81 Y6 2.101229 1_554
O82 Si10 1.590203 1_555
O82 Y7 2.096010 1_554
O83 Si11 1.605181 1_555
O83 Y8 2.111236 1_554
O84 Si12 1.590203 1_555
O84 Y3 2.096010 1_555
O85 Si13 1.585852 1_555
O85 Y4 2.101229 1_555
O86 Si14 1.605181 1_555
O86 Y5 2.111236 1_555
O87 Si15 1.748792 1_555
O87 Ta3 1.954730 1_556
O88 Si16 1.749303 1_555
O88 Ta4 1.953601 1_556
O89 Si17 1.716410 1_555
O89 Ta5 1.943194 1_556
O90 Si18 1.716410 1_555
O90 Ta0 1.943194 1_555
O91 Si19 1.749303 1_555
O91 Ta1 1.953601 1_555
O92 Si20 1.748792 1_555
O92 Ta2 1.954730 1_555
O93 Si21 1.605181 1_555
O93 Y0 2.111236 1_554
O94 Si22 1.585852 1_555
O94 Y1 2.101229 1_554
O95 Si23 1.590203 1_555
O95 Y2 2.096010 1_554
O96 Si0 1.703297 1_555
O96 Ta9 2.007780 1_556
O97 Si1 1.705858 1_555
O97 Ta10 2.013183 1_556
O98 Si2 1.739164 1_555
O98 Ta11 1.965392 1_556
O99 Si3 1.603189 1_555
O99 Y9 2.171208 1_555
O100 Si4 1.594206 1_555
O100 Y10 2.164011 1_555
O101 Si5 1.586364 1_555
O101 Y11 2.217933 1_555
O102 Si6 1.586364 1_555
O102 Y6 2.217933 1_554
O103 Si7 1.594206 1_555
O103 Y7 2.164011 1_554
O104 Si8 1.603189 1_555
O104 Y8 2.171208 1_554
O105 Si9 1.739164 1_555
O105 Ta6 1.965392 1_555
O106 Si10 1.705858 1_555
O106 Ta7 2.013183 1_555
O107 Si11 1.703297 1_555
O107 Ta8 2.007780 1_555
O108 Si12 1.705858 1_555
O108 Ta3 2.013183 1_656
O109 Si13 1.739164 1_555
O109 Ta4 1.965392 1_656
O110 Si14 1.703297 1_555
O110 Ta5 2.007780 1_656
O111 Si15 1.594206 1_555
O111 Y3 2.164011 1_455
O112 Si16 1.586364 1_555
O112 Y4 2.217933 1_455
O113 Si17 1.603189 1_555
O113 Y5 2.171208 1_455
O114 Si18 1.603189 1_555
O114 Y0 2.171208 1_454
O115 Si19 1.586364 1_555
O115 Y1 2.217933 1_454
O116 Si20 1.594206 1_555
O116 Y2 2.164011 1_454
O117 Si21 1.703297 1_555
O117 Ta0 2.007780 1_655
O118 Si22 1.739164 1_555
O118 Ta1 1.965392 1_655
O119 Si23 1.705858 1_555
O119 Ta2 2.013183 1_655
O120 P0 1.553776 1_555
O120 Ta0 2.150746 1_555
O121 P1 1.585368 1_555
O121 Ta1 2.151760 1_555
O122 P2 1.560015 1_555
O122 Ta2 2.134378 1_555
O123 P0 1.545631 1_655
O123 Y0 2.303464 1_555
O124 P1 1.523854 1_655
O124 Y1 2.295977 1_555
O125 P2 1.534993 1_655
O125 Y2 2.323312 1_555
O126 P3 1.534993 1_655
O126 Y3 2.323312 1_555
O127 P4 1.523854 1_655
O127 Y4 2.295977 1_555
O128 P5 1.545631 1_655
O128 Y5 2.303464 1_555
O129 P3 1.560015 1_555
O129 Ta3 2.134378 1_555
O130 P4 1.585368 1_555
O130 Ta4 2.151760 1_555
O131 P5 1.553776 1_555
O131 Ta5 2.150746 1_555
O132 P6 1.585368 1_555
O132 Ta6 2.151760 1_555
O133 P7 1.560015 1_555
O133 Ta7 2.134378 1_555
O134 P8 1.553776 1_555
O134 Ta8 2.150746 1_555
O135 P6 1.523854 1_555
O135 Y6 2.295977 1_555
O136 P7 1.534993 1_555
O136 Y7 2.323312 1_555
O137 P8 1.545631 1_555
O137 Y8 2.303464 1_555
O138 P9 1.545631 1_555
O138 Y9 2.303464 1_555
O139 P10 1.534993 1_555
O139 Y10 2.323312 1_555
O140 P11 1.523854 1_555
O140 Y11 2.295977 1_555
O141 P9 1.553776 1_555
O141 Ta9 2.150746 1_555
O142 P10 1.560015 1_555
O142 Ta10 2.134378 1_555
O143 P11 1.585368 1_555
O143 Ta11 2.151760 1_555
