# generated using pymatgen
data_LiMoP4O13
_symmetry_space_group_name_H-M   'P 1'
_cell_length_a   5.20805700
_cell_length_b   8.04758730
_cell_length_c   14.39408647
_cell_angle_alpha   81.71016381
_cell_angle_beta   82.37524967
_cell_angle_gamma   80.36415469
_symmetry_Int_Tables_number   1
_chemical_formula_structural   LiMoP4O13
_chemical_formula_sum   'Li2 Mo2 P8 O26'
_cell_volume   584.90843115
_cell_formula_units_Z   2
loop_
 _symmetry_equiv_pos_site_id
 _symmetry_equiv_pos_as_xyz
  1  'x, y, z'
loop_
 _atom_site_type_symbol
 _atom_site_label
 _atom_site_symmetry_multiplicity
 _atom_site_fract_x
 _atom_site_fract_y
 _atom_site_fract_z
 _atom_site_occupancy
  Li  Li0  1  0.41343200  0.48166100  0.49655500  1
  Li  Li1  1  0.98898900  0.62652600  0.01044700  1
  Mo  Mo0  1  0.42065200  0.05868700  0.25604200  1
  Mo  Mo1  1  0.57469100  0.94105800  0.73904800  1
  P  P0  1  0.35259900  0.57815800  0.81386700  1
  P  P1  1  0.98720700  0.10010200  0.84857400  1
  P  P2  1  0.71219400  0.33109000  0.70474600  1
  P  P3  1  0.83849100  0.22514500  0.35690200  1
  P  P4  1  0.00062800  0.88704700  0.15451900  1
  P  P5  1  0.28039200  0.66821600  0.29870600  1
  P  P6  1  0.15743100  0.77259500  0.63718700  1
  P  P7  1  0.64754800  0.42752000  0.18213100  1
  O  O0  1  0.47870900  0.60122100  0.21187800  1
  O  O1  1  0.70225000  0.96240400  0.16696700  1
  O  O2  1  0.58977500  0.18128100  0.68037600  1
  O  O3  1  0.83421500  0.96153400  0.82471500  1
  O  O4  1  0.16795900  0.63410400  0.73087000  1
  O  O5  1  0.79696200  0.47003000  0.09045900  1
  O  O6  1  0.39365900  0.82260900  0.32092200  1
  O  O7  1  0.45935600  0.29470600  0.19018100  1
  O  O8  1  0.50925200  0.39833900  0.79145200  1
  O  O9  1  0.02179100  0.74316100  0.24806000  1
  O  O10  1  0.55370200  0.70302500  0.80235000  1
  O  O11  1  0.96371100  0.24995600  0.75790700  1
  O  O12  1  0.31721400  0.91211200  0.65218300  1
  O  O13  1  0.08228200  0.80831500  0.06693300  1
  O  O14  1  0.86202500  0.85770300  0.64755300  1
  O  O15  1  0.90578900  0.16080300  0.94051600  1
  O  O16  1  0.76402900  0.46337700  0.62591700  1
  O  O17  1  0.28581900  0.02338600  0.82904800  1
  O  O18  1  0.73118600  0.29700300  0.44496200  1
  O  O19  1  0.23825400  0.53351000  0.37746000  1
  O  O20  1  0.13902100  0.14869500  0.34791500  1
  O  O21  1  0.15535700  0.02676000  0.17297100  1
  O  O22  1  0.19709000  0.55507400  0.90622600  1
  O  O23  1  0.83495400  0.36701400  0.26435000  1
  O  O24  1  0.69481200  0.08158000  0.33501800  1
  O  O25  1  0.23982100  0.69057300  0.55058400  1
loop_
_geom_bond_atom_site_label_1
_geom_bond_atom_site_label_2
_geom_bond_distance
_geom_bond_site_symmetry_2
Li0 O25 1.982534 1_555
Li0 O19 2.006613 1_555
Li0 O18 2.160395 1_555
Li1 O22 1.834237 1_654
Li1 O5 1.900120 1_555
Li1 O13 1.929561 1_655
Mo0 O1 1.949927 1_545
Mo0 O20 1.957210 1_555
Mo0 O24 1.985988 1_555
Mo0 O6 2.011049 1_545
Mo0 O21 2.012625 1_555
Mo0 O7 2.026139 1_555
Mo1 O17 1.943506 1_565
Mo1 O14 1.954357 1_555
Mo1 O3 1.987458 1_555
Mo1 O2 2.004785 1_565
Mo1 O12 2.012280 1_555
Mo1 O10 2.012966 1_555
O0 P7 1.603679 1_555
O0 P5 1.607734 1_555
O1 P4 1.567373 1_655
O2 P2 1.556160 1_555
O3 P1 1.573803 1_565
O4 P0 1.599830 1_555
O4 P6 1.621525 1_555
O5 P7 1.466356 1_555
O6 P5 1.550492 1_555
O7 P7 1.549613 1_555
O8 P0 1.591662 1_555
O8 P2 1.618908 1_555
O9 P5 1.603411 1_555
O9 P4 1.647098 1_555
O10 P0 1.546751 1_555
O11 P2 1.601040 1_555
O11 P1 1.646712 1_555
O12 P6 1.558860 1_555
O13 P4 1.472949 1_555
O14 P6 1.572933 1_655
O15 P1 1.462202 1_555
O16 P2 1.469799 1_555
O17 P1 1.578410 1_455
O18 P3 1.472614 1_555
O19 P5 1.472291 1_555
O20 P3 1.578570 1_455
O21 P4 1.558946 1_545
O22 P0 1.466712 1_555
O23 P7 1.603609 1_555
O23 P3 1.624643 1_555
O24 P3 1.565540 1_555
O25 P6 1.474542 1_555
