# generated using pymatgen
data_Y6Te2Rh
_symmetry_space_group_name_H-M   'P 1'
_cell_length_a   4.02410900
_cell_length_b   11.54528400
_cell_length_c   21.88124900
_cell_angle_alpha   90.00000000
_cell_angle_beta   90.00000000
_cell_angle_gamma   90.00000000
_symmetry_Int_Tables_number   1
_chemical_formula_structural   Y6Te2Rh
_chemical_formula_sum   'Y24 Te8 Rh4'
_cell_volume   1016.59147768
_cell_formula_units_Z   4
loop_
 _symmetry_equiv_pos_site_id
 _symmetry_equiv_pos_as_xyz
  1  'x, y, z'
loop_
 _atom_site_type_symbol
 _atom_site_label
 _atom_site_symmetry_multiplicity
 _atom_site_fract_x
 _atom_site_fract_y
 _atom_site_fract_z
 _atom_site_occupancy
  Y  Y0  1  0.25000000  0.31657400  0.10960900  1
  Y  Y1  1  0.75000000  0.68342600  0.89039100  1
  Y  Y2  1  0.75000000  0.81657400  0.39039100  1
  Y  Y3  1  0.25000000  0.18342600  0.60960900  1
  Y  Y4  1  0.25000000  0.03681700  0.15092300  1
  Y  Y5  1  0.75000000  0.96318300  0.84907700  1
  Y  Y6  1  0.75000000  0.53681700  0.34907700  1
  Y  Y7  1  0.25000000  0.46318300  0.65092300  1
  Y  Y8  1  0.25000000  0.74616800  0.26556400  1
  Y  Y9  1  0.75000000  0.25383200  0.73443600  1
  Y  Y10  1  0.75000000  0.24616800  0.23443600  1
  Y  Y11  1  0.25000000  0.75383200  0.76556400  1
  Y  Y12  1  0.25000000  0.38011700  0.47747000  1
  Y  Y13  1  0.75000000  0.61988300  0.52253000  1
  Y  Y14  1  0.75000000  0.88011700  0.02253000  1
  Y  Y15  1  0.25000000  0.11988300  0.97747000  1
  Y  Y16  1  0.25000000  0.06933800  0.35517900  1
  Y  Y17  1  0.75000000  0.93066200  0.64482100  1
  Y  Y18  1  0.75000000  0.56933800  0.14482100  1
  Y  Y19  1  0.25000000  0.43066200  0.85517900  1
  Y  Y20  1  0.25000000  0.61745400  0.00860200  1
  Y  Y21  1  0.75000000  0.38254600  0.99139800  1
  Y  Y22  1  0.75000000  0.11745400  0.49139800  1
  Y  Y23  1  0.25000000  0.88254600  0.50860200  1
  Te  Te0  1  0.25000000  0.46347000  0.23967400  1
  Te  Te1  1  0.75000000  0.53653000  0.76032600  1
  Te  Te2  1  0.75000000  0.96347000  0.26032600  1
  Te  Te3  1  0.25000000  0.03653000  0.73967400  1
  Te  Te4  1  0.25000000  0.77228300  0.12617700  1
  Te  Te5  1  0.75000000  0.22771700  0.87382300  1
  Te  Te6  1  0.75000000  0.27228300  0.37382300  1
  Te  Te7  1  0.25000000  0.72771700  0.62617700  1
  Rh  Rh0  1  0.25000000  0.64698500  0.42767600  1
  Rh  Rh1  1  0.75000000  0.35301500  0.57232400  1
  Rh  Rh2  1  0.75000000  0.14698500  0.07232400  1
  Rh  Rh3  1  0.25000000  0.85301500  0.92767600  1
loop_
_geom_bond_atom_site_label_1
_geom_bond_atom_site_label_2
_geom_bond_distance
_geom_bond_site_symmetry_2
Te0 Y18 3.138476 1_555
Te0 Y18 3.138476 1_455
Te0 Y10 3.218019 1_455
Te0 Y10 3.218019 1_555
Te0 Y6 3.239767 1_455
Te0 Y6 3.239767 1_555
Te0 Y8 3.312628 1_555
Te0 Y0 3.312989 1_555
Te1 Y19 3.138476 1_655
Te1 Y19 3.138476 1_555
Te1 Y11 3.218019 1_555
Te1 Y11 3.218019 1_655
Te1 Y7 3.239767 1_655
Te1 Y7 3.239767 1_555
Te1 Y9 3.312628 1_555
Te1 Y1 3.312989 1_555
Te2 Y16 3.138476 1_565
Te2 Y16 3.138476 1_665
Te2 Y8 3.218019 1_655
Te2 Y8 3.218019 1_555
Te2 Y4 3.239767 1_565
Te2 Y4 3.239767 1_665
Te2 Y10 3.312628 1_565
Te2 Y2 3.312989 1_555
Te3 Y17 3.138476 1_445
Te3 Y17 3.138476 1_545
Te3 Y9 3.218019 1_455
Te3 Y9 3.218019 1_555
Te3 Y5 3.239767 1_545
Te3 Y5 3.239767 1_445
Te3 Y11 3.312628 1_545
Te3 Y3 3.312989 1_555
Te4 Y8 3.064828 1_555
Te4 Y4 3.101748 1_565
Te4 Y18 3.115238 1_555
Te4 Y18 3.115238 1_455
Te4 Y20 3.132737 1_555
Te4 Y14 3.277470 1_555
Te4 Y14 3.277470 1_455
Te5 Y9 3.064828 1_555
Te5 Y5 3.101748 1_545
Te5 Y19 3.115238 1_655
Te5 Y19 3.115238 1_555
Te5 Y21 3.132737 1_555
Te5 Y15 3.277470 1_555
Te5 Y15 3.277470 1_655
Te6 Y10 3.064828 1_555
Te6 Y6 3.101748 1_555
Te6 Y16 3.115238 1_655
Te6 Y16 3.115238 1_555
Te6 Y22 3.132737 1_555
Te6 Y12 3.277470 1_655
Te6 Y12 3.277470 1_555
Te7 Y11 3.064828 1_555
Te7 Y7 3.101748 1_555
Te7 Y17 3.115238 1_555
Te7 Y17 3.115238 1_455
Te7 Y23 3.132737 1_555
Te7 Y13 3.277470 1_455
Te7 Y13 3.277470 1_555
Rh0 Y13 2.907588 1_555
Rh0 Y13 2.907588 1_455
Rh0 Y2 2.923618 1_455
Rh0 Y2 2.923618 1_555
Rh0 Y6 2.936667 1_455
Rh0 Y6 2.936667 1_555
Rh0 Y23 3.245293 1_555
Rh0 Y12 3.268043 1_555
Rh1 Y12 2.907588 1_555
Rh1 Y12 2.907588 1_655
Rh1 Y3 2.923618 1_555
Rh1 Y3 2.923618 1_655
Rh1 Y7 2.936667 1_555
Rh1 Y7 2.936667 1_655
Rh1 Y22 3.245293 1_555
Rh1 Y13 3.268043 1_555
Rh2 Y15 2.907588 1_654
Rh2 Y15 2.907588 1_554
Rh2 Y0 2.923618 1_555
Rh2 Y0 2.923618 1_655
Rh2 Y4 2.936667 1_555
Rh2 Y4 2.936667 1_655
Rh2 Y21 3.245293 1_554
Rh2 Y14 3.268043 1_545
Rh3 Y14 2.907588 1_456
Rh3 Y14 2.907588 1_556
Rh3 Y1 2.923618 1_455
Rh3 Y1 2.923618 1_555
Rh3 Y5 2.936667 1_455
Rh3 Y5 2.936667 1_555
Rh3 Y20 3.245293 1_556
Rh3 Y15 3.268043 1_565
