# generated using pymatgen
data_BaYb2CoO5
_symmetry_space_group_name_H-M   'P 1'
_cell_length_a   5.65861100
_cell_length_b   7.02725400
_cell_length_c   12.16243600
_cell_angle_alpha   90.00000000
_cell_angle_beta   90.00000000
_cell_angle_gamma   90.00000000
_symmetry_Int_Tables_number   1
_chemical_formula_structural   BaYb2CoO5
_chemical_formula_sum   'Ba4 Yb8 Co4 O20'
_cell_volume   483.63314721
_cell_formula_units_Z   4
loop_
 _symmetry_equiv_pos_site_id
 _symmetry_equiv_pos_as_xyz
  1  'x, y, z'
loop_
 _atom_site_type_symbol
 _atom_site_label
 _atom_site_symmetry_multiplicity
 _atom_site_fract_x
 _atom_site_fract_y
 _atom_site_fract_z
 _atom_site_occupancy
  Ba  Ba0  1  0.25000000  0.92842400  0.89458300  1
  Ba  Ba1  1  0.75000000  0.07157600  0.10541700  1
  Ba  Ba2  1  0.75000000  0.42842400  0.60541700  1
  Ba  Ba3  1  0.25000000  0.57157600  0.39458300  1
  Yb  Yb0  1  0.25000000  0.10581000  0.57440300  1
  Yb  Yb1  1  0.75000000  0.89419000  0.42559700  1
  Yb  Yb2  1  0.75000000  0.60581000  0.92559700  1
  Yb  Yb3  1  0.25000000  0.39419000  0.07440300  1
  Yb  Yb4  1  0.25000000  0.38322300  0.79816800  1
  Yb  Yb5  1  0.75000000  0.61677700  0.20183200  1
  Yb  Yb6  1  0.75000000  0.88322300  0.70183200  1
  Yb  Yb7  1  0.25000000  0.11677700  0.29816800  1
  Co  Co0  1  0.25000000  0.69246100  0.65327000  1
  Co  Co1  1  0.75000000  0.30753900  0.34673000  1
  Co  Co2  1  0.75000000  0.19246100  0.84673000  1
  Co  Co3  1  0.25000000  0.80753900  0.15327000  1
  O  O0  1  0.25000000  0.44500400  0.60252000  1
  O  O1  1  0.75000000  0.55499600  0.39748000  1
  O  O2  1  0.75000000  0.94500400  0.89748000  1
  O  O3  1  0.25000000  0.05499600  0.10252000  1
  O  O4  1  0.01855000  0.84246100  0.26558400  1
  O  O5  1  0.51855000  0.15753900  0.73441600  1
  O  O6  1  0.98145000  0.34246100  0.23441600  1
  O  O7  1  0.48145000  0.65753900  0.76558400  1
  O  O8  1  0.98145000  0.15753900  0.73441600  1
  O  O9  1  0.48145000  0.84246100  0.26558400  1
  O  O10  1  0.01855000  0.65753900  0.76558400  1
  O  O11  1  0.51855000  0.34246100  0.23441600  1
  O  O12  1  0.47650200  0.68158000  0.06580600  1
  O  O13  1  0.97650200  0.31842000  0.93419400  1
  O  O14  1  0.52349800  0.18158000  0.43419400  1
  O  O15  1  0.02349800  0.81842000  0.56580600  1
  O  O16  1  0.97650200  0.18158000  0.43419400  1
  O  O17  1  0.47650200  0.81842000  0.56580600  1
  O  O18  1  0.02349800  0.68158000  0.06580600  1
  O  O19  1  0.52349800  0.31842000  0.93419400  1
loop_
_geom_bond_atom_site_label_1
_geom_bond_atom_site_label_2
_geom_bond_distance
_geom_bond_site_symmetry_2
Ba0 O3 2.680872 1_566
Ba0 O7 2.792931 1_555
Ba0 O10 2.792931 1_555
Ba0 O2 2.831923 1_555
Ba0 O2 2.831923 1_455
Ba0 O8 2.948947 1_465
Ba0 O5 2.948947 1_565
Ba0 O18 2.998073 1_556
Ba0 O12 2.998073 1_556
Ba0 O19 3.184041 1_565
Ba0 O13 3.184041 1_465
Ba1 O2 2.680872 1_544
Ba1 O11 2.792931 1_555
Ba1 O6 2.792931 1_555
Ba1 O3 2.831923 1_655
Ba1 O3 2.831923 1_555
Ba1 O4 2.948947 1_645
Ba1 O9 2.948947 1_545
Ba1 O13 2.998073 1_554
Ba1 O19 2.998073 1_554
Ba1 O12 3.184041 1_545
Ba1 O18 3.184041 1_645
Ba2 O1 2.680872 1_555
Ba2 O8 2.792931 1_555
Ba2 O5 2.792931 1_555
Ba2 O0 2.831923 1_555
Ba2 O0 2.831923 1_655
Ba2 O10 2.948947 1_655
Ba2 O7 2.948947 1_555
Ba2 O14 2.998073 1_555
Ba2 O16 2.998073 1_555
Ba2 O15 3.184041 1_655
Ba2 O17 3.184041 1_555
Ba3 O0 2.680872 1_555
Ba3 O9 2.792931 1_555
Ba3 O4 2.792931 1_555
Ba3 O1 2.831923 1_455
Ba3 O1 2.831923 1_555
Ba3 O11 2.948947 1_555
Ba3 O6 2.948947 1_455
Ba3 O15 2.998073 1_555
Ba3 O17 2.998073 1_555
Ba3 O14 3.184041 1_555
Ba3 O16 3.184041 1_455
Co0 O0 1.845241 1_555
Co0 O15 1.886219 1_555
Co0 O17 1.886219 1_555
Co0 O7 1.908268 1_555
Co0 O10 1.908268 1_555
Co1 O1 1.845241 1_555
Co1 O16 1.886219 1_555
Co1 O14 1.886219 1_555
Co1 O11 1.908268 1_555
Co1 O6 1.908268 1_555
Co2 O2 1.845241 1_545
Co2 O19 1.886219 1_555
Co2 O13 1.886219 1_555
Co2 O8 1.908268 1_555
Co2 O5 1.908268 1_555
Co3 O3 1.845241 1_565
Co3 O18 1.886219 1_555
Co3 O12 1.886219 1_555
Co3 O4 1.908268 1_555
Co3 O9 1.908268 1_555
O0 Yb0 2.408008 1_555
O0 Yb4 2.418838 1_555
O1 Yb1 2.408008 1_555
O1 Yb5 2.418838 1_555
O2 Yb2 2.408008 1_555
O2 Yb6 2.418838 1_555
O3 Yb3 2.408008 1_555
O3 Yb7 2.418838 1_555
O4 Yb5 2.329305 1_455
O4 Yb7 2.363961 1_565
O4 Yb1 2.495772 1_455
O5 Yb4 2.329305 1_555
O5 Yb6 2.363961 1_545
O5 Yb0 2.495772 1_555
O6 Yb7 2.329305 1_655
O6 Yb5 2.363961 1_555
O6 Yb3 2.495772 1_655
O7 Yb6 2.329305 1_555
O7 Yb4 2.363961 1_555
O7 Yb2 2.495772 1_555
O8 Yb4 2.329305 1_655
O8 Yb6 2.363961 1_545
O8 Yb0 2.495772 1_655
O9 Yb5 2.329305 1_555
O9 Yb7 2.363961 1_565
O9 Yb1 2.495772 1_555
O10 Yb6 2.329305 1_455
O10 Yb4 2.363961 1_555
O10 Yb2 2.495772 1_455
O11 Yb7 2.329305 1_555
O11 Yb5 2.363961 1_555
O11 Yb3 2.495772 1_555
O12 Yb5 2.310750 1_555
O12 Yb2 2.363604 1_554
O12 Yb3 2.394219 1_555
O13 Yb4 2.310750 1_655
O13 Yb3 2.363604 1_656
O13 Yb2 2.394219 1_555
O14 Yb7 2.310750 1_555
O14 Yb0 2.363604 1_555
O14 Yb1 2.394219 1_545
O15 Yb6 2.310750 1_455
O15 Yb1 2.363604 1_455
O15 Yb0 2.394219 1_565
O16 Yb7 2.310750 1_655
O16 Yb0 2.363604 1_655
O16 Yb1 2.394219 1_545
O17 Yb6 2.310750 1_555
O17 Yb1 2.363604 1_555
O17 Yb0 2.394219 1_565
O18 Yb5 2.310750 1_455
O18 Yb2 2.363604 1_454
O18 Yb3 2.394219 1_555
O19 Yb4 2.310750 1_555
O19 Yb3 2.363604 1_556
O19 Yb2 2.394219 1_555
