# generated using pymatgen
data_NaMg2Sn2PS5O24
_symmetry_space_group_name_H-M   'P 1'
_cell_length_a   8.67849929
_cell_length_b   8.71064504
_cell_length_c   22.65698476
_cell_angle_alpha   89.93750619
_cell_angle_beta   89.80338651
_cell_angle_gamma   120.08097483
_symmetry_Int_Tables_number   1
_chemical_formula_structural   NaMg2Sn2PS5O24
_chemical_formula_sum   'Na3 Mg6 Sn6 P3 S15 O72'
_cell_volume   1482.06721758
_cell_formula_units_Z   3
loop_
 _symmetry_equiv_pos_site_id
 _symmetry_equiv_pos_as_xyz
  1  'x, y, z'
loop_
 _atom_site_type_symbol
 _atom_site_label
 _atom_site_symmetry_multiplicity
 _atom_site_fract_x
 _atom_site_fract_y
 _atom_site_fract_z
 _atom_site_occupancy
  Na  Na0  1  0.67528483  0.33447317  0.82765869  1
  Na  Na1  1  0.65735059  0.33481710  0.33275802  1
  Na  Na2  1  0.34043037  0.67475967  0.16324582  1
  Mg  Mg0  1  0.00073656  0.00600153  0.85571178  1
  Mg  Mg1  1  0.66590035  0.33311454  0.68143415  1
  Mg  Mg2  1  0.66030753  0.33400414  0.18820283  1
  Mg  Mg3  1  0.66767278  0.33460709  0.48810749  1
  Mg  Mg4  1  0.32820864  0.66055134  0.01563354  1
  Mg  Mg5  1  0.33439094  0.66733579  0.52737675  1
  Sn  Sn0  1  0.00161850  0.99423212  0.35454983  1
  Sn  Sn1  1  0.99855082  0.99992261  0.64629351  1
  Sn  Sn2  1  0.99894724  0.99354120  0.14751666  1
  Sn  Sn3  1  0.67160882  0.33280416  0.98083392  1
  Sn  Sn4  1  0.33978529  0.67446310  0.31684388  1
  Sn  Sn5  1  0.32594390  0.66158114  0.81446084  1
  P  P0  1  0.29577013  0.00045101  0.25047404  1
  P  P1  1  0.70571429  0.70466224  0.25057676  1
  P  P2  1  0.04092527  0.37232618  0.91770728  1
  S  S0  1  0.00050625  0.29415446  0.25019937  1
  S  S1  1  0.29548156  0.29110755  0.75107015  1
  S  S2  1  0.99729055  0.70823038  0.75177198  1
  S  S3  1  0.70528426  -0.00003613  0.75205231  1
  S  S4  1  0.95785517  0.33294876  0.58381912  1
  S  S5  1  0.37533918  0.04193984  0.58363035  1
  S  S6  1  0.66698790  0.62482904  0.58369317  1
  S  S7  1  0.96111506  0.62425922  0.08532397  1
  S  S8  1  0.66555583  0.03844933  0.08586966  1
  S  S9  1  0.37444613  0.33526143  0.08459570  1
  S  S10  1  0.62608300  0.66715009  0.91748081  1
  S  S11  1  0.33276052  0.95887882  0.91751098  1
  S  S12  1  0.62907696  0.96656660  0.41852300  1
  S  S13  1  0.33458429  0.37480218  0.41717967  1
  S  S14  1  0.03883836  0.66009730  0.41843077  1
  O  O0  1  0.21247681  0.03364888  0.30641172  1
  O  O1  1  0.81586210  0.79241042  0.30698522  1
  O  O2  1  0.97251859  0.18546158  0.30430081  1
  O  O3  1  0.20850571  0.18186302  0.80292032  1
  O  O4  1  0.97597247  0.79503694  0.80370063  1
  O  O5  1  0.81503357  0.02136493  0.80344213  1
  O  O6  1  0.77868481  0.96474108  0.69662151  1
  O  O7  1  0.18479585  0.21627077  0.69629335  1
  O  O8  1  0.02967444  0.81657729  0.69650629  1
  O  O9  1  0.78256144  0.82674984  0.19507095  1
  O  O10  1  0.03660445  0.21652504  0.19667521  1
  O  O11  1  0.17789550  0.96388919  0.19468072  1
  O  O12  1  0.87617916  0.35480982  0.63756248  1
  O  O13  1  0.47895846  0.12290303  0.63718945  1
  O  O14  1  0.64378604  0.52090283  0.63733137  1
  O  O15  1  0.87253379  0.51529767  0.13708371  1
  O  O16  1  0.64380980  0.12641230  0.13741186  1
  O  O17  1  0.48288532  0.35507246  0.13621045  1
  O  O18  1  0.45056818  0.30151246  0.02927616  1
  O  O19  1  0.85197130  0.54890235  0.03028677  1
  O  O20  1  0.69779646  0.14555315  0.03019696  1
  O  O21  1  0.45275572  0.15278077  0.53066933  1
  O  O22  1  0.70183754  0.54879807  0.53077682  1
  O  O23  1  0.84716661  0.29894474  0.53106662  1
  O  O24  1  0.54191177  0.68861946  0.96990304  1
  O  O25  1  0.14693823  0.46355693  0.97209702  1
  O  O26  1  0.31876008  0.85789789  0.97037724  1
  O  O27  1  0.53801611  0.84744091  0.46704679  1
  O  O28  1  0.30932441  0.46433304  0.46637494  1
  O  O29  1  0.15563268  0.68479591  0.46685725  1
  O  O30  1  0.11071396  0.63098828  0.35965715  1
  O  O31  1  0.52715907  0.89692532  0.36003147  1
  O  O32  1  0.36505344  0.47785593  0.35878008  1
  O  O33  1  0.11236840  0.49415806  0.86039497  1
  O  O34  1  0.38061565  0.88979550  0.86311963  1
  O  O35  1  0.51305494  0.62824820  0.86271335  1
  O  O36  1  0.03030046  0.82847715  0.41237968  1
  O  O37  1  0.80704998  0.97737353  0.41076435  1
  O  O38  1  0.16467799  0.19898402  0.41000778  1
  O  O39  1  0.02054868  0.19357142  0.90732157  1
  O  O40  1  0.17527747  0.97178706  0.90800943  1
  O  O41  1  0.80175079  0.81746480  0.90797647  1
  O  O42  1  0.97432126  0.16688568  0.58945653  1
  O  O43  1  0.19212050  0.02515253  0.58932632  1
  O  O44  1  0.83332725  0.80759647  0.58917299  1
  O  O45  1  0.97493763  0.80379432  0.08831201  1
  O  O46  1  0.83279702  0.02664151  0.09003647  1
  O  O47  1  0.19252719  0.17224677  0.08953407  1
  O  O48  1  0.68417010  0.15526768  0.74451592  1
  O  O49  1  0.47233028  0.31172239  0.74336531  1
  O  O50  1  0.84194031  0.53071158  0.74473177  1
  O  O51  1  0.69364043  0.52684682  0.24438572  1
  O  O52  1  0.84340377  0.31146061  0.24320740  1
  O  O53  1  0.47952452  0.15945936  0.24451549  1
  O  O54  1  0.63747136  0.49822970  0.92211158  1
  O  O55  1  0.84817410  0.35532012  0.92025279  1
  O  O56  1  0.49498264  0.14520415  0.92152761  1
  O  O57  1  0.65329273  0.14432496  0.42354856  1
  O  O58  1  0.48843788  0.34878040  0.42117167  1
  O  O59  1  0.85890685  0.50692347  0.42267344  1
  O  O60  1  0.35670274  0.49270482  0.07797097  1
  O  O61  1  0.13914070  0.64719739  0.07879096  1
  O  O62  1  0.50980338  0.86120091  0.07876985  1
  O  O63  1  0.35121126  0.86518697  0.57571302  1
  O  O64  1  0.51359854  0.64849773  0.57579222  1
  O  O65  1  0.13544792  0.48553581  0.57577706  1
  O  O66  1  0.29930155  0.82330731  0.25587309  1
  O  O67  1  0.51765602  0.68715943  0.25534946  1
  O  O68  1  0.16464332  0.47102259  0.25563351  1
  O  O69  1  0.31326038  0.47232627  0.75580990  1
  O  O70  1  0.16516350  0.69671572  0.75520736  1
  O  O71  1  0.52409180  0.83492054  0.75778007  1
loop_
_geom_bond_atom_site_label_1
_geom_bond_atom_site_label_2
_geom_bond_distance
_geom_bond_site_symmetry_2
Na0 O50 2.457629 1_555
Na0 O48 2.473318 1_555
Na0 O55 2.536678 1_555
Na0 O49 2.542256 1_555
Na0 O56 2.659548 1_555
Na0 O54 2.682003 1_555
Na1 O58 2.517052 1_555
Na1 O51 2.523173 1_555
Na1 O53 2.525245 1_555
Na1 O59 2.619121 1_555
Na1 O57 2.630483 1_555
Na1 O52 2.659488 1_555
Na2 O62 2.458102 1_555
Na2 O61 2.524726 1_555
Na2 O60 2.548913 1_555
Na2 O67 2.566701 1_555
Na2 O66 2.582599 1_555
Na2 O68 2.667285 1_555
Mg0 O39 1.946868 1_555
Mg0 O41 2.054318 1_445
Mg0 O3 2.059324 1_555
Mg0 O5 2.060752 1_455
Mg0 O40 2.061892 1_545
Mg0 O4 2.102932 1_445
Mg1 O12 1.998863 1_555
Mg1 O14 2.005856 1_555
Mg1 O13 2.006753 1_555
Mg1 O49 2.120172 1_555
Mg1 O48 2.170421 1_555
Mg1 O50 2.176631 1_555
Mg2 O53 1.997948 1_555
Mg2 O51 2.011416 1_555
Mg2 O17 2.021742 1_555
Mg2 O15 2.072007 1_555
Mg2 O16 2.088231 1_555
Mg2 O52 2.107710 1_555
Mg3 O21 1.985005 1_555
Mg3 O22 1.988689 1_555
Mg3 O23 1.991289 1_555
Mg3 O59 2.164792 1_555
Mg3 O57 2.168300 1_555
Mg3 O58 2.223296 1_555
Mg4 O25 1.923688 1_554
Mg4 O24 2.025993 1_554
Mg4 O26 2.037440 1_554
Mg4 O61 2.132058 1_555
Mg4 O60 2.133982 1_555
Mg4 O62 2.201008 1_555
Mg5 O64 1.978934 1_555
Mg5 O65 1.983335 1_555
Mg5 O63 1.985911 1_555
Mg5 O29 2.135569 1_555
Mg5 O27 2.156867 1_555
Mg5 O28 2.169374 1_555
O0 P0 1.554496 1_555
O0 Sn0 2.002933 1_545
O1 P1 1.552249 1_555
O1 Sn0 2.006447 1_655
O2 S0 1.490913 1_655
O2 Sn0 2.134043 1_645
O3 S1 1.458354 1_555
O4 S2 1.459768 1_555
O5 S3 1.458667 1_555
O6 S3 1.506139 1_565
O6 Sn1 2.105506 1_555
O7 S1 1.506709 1_555
O7 Sn1 2.100253 1_445
O8 S2 1.505555 1_455
O8 Sn1 2.085285 1_455
O9 P1 1.561289 1_555
O9 Sn2 2.011439 1_555
O10 S0 1.495849 1_555
O10 Sn2 2.119168 1_445
O11 P0 1.558537 1_565
O11 Sn2 2.008312 1_455
O12 S4 1.466726 1_555
O13 S5 1.467036 1_555
O14 S6 1.466338 1_555
O15 S7 1.458440 1_555
O16 S8 1.460079 1_555
O17 S9 1.458836 1_555
O18 S9 1.511158 1_555
O18 Sn3 2.102272 1_554
O19 S7 1.506531 1_555
O19 Sn3 2.076484 1_554
O20 S8 1.507672 1_555
O20 Sn3 2.081415 1_554
O21 S5 1.471428 1_555
O22 S6 1.472257 1_555
O23 S4 1.470532 1_555
O24 S10 1.452842 1_555
O25 P2 1.507831 1_555
O26 S11 1.453528 1_555
O27 S12 1.442035 1_555
O28 S13 1.438828 1_555
O29 S14 1.437727 1_555
O30 S14 1.542795 1_555
O30 Sn4 2.065854 1_555
O31 S12 1.542244 1_555
O31 Sn4 2.052567 1_555
O32 S13 1.543869 1_555
O32 Sn4 2.063524 1_555
O33 P2 1.590182 1_555
O33 Sn5 1.979696 1_555
O34 S11 1.517203 1_555
O34 Sn5 2.110719 1_555
O35 S10 1.514209 1_555
O35 Sn5 2.097739 1_555
O36 S14 1.511311 1_555
O36 Sn0 2.054690 1_555
O37 S12 1.509209 1_555
O37 Sn0 2.057002 1_655
O38 S13 1.511469 1_555
O38 Sn0 2.061393 1_545
O39 P2 1.495382 1_555
O40 S11 1.443231 1_555
O41 S10 1.442587 1_555
O42 S4 1.528425 1_555
O42 Sn1 2.030275 1_545
O43 S5 1.527026 1_555
O43 Sn1 2.037319 1_445
O44 S6 1.526988 1_555
O44 Sn1 2.036402 1_555
O45 S7 1.508933 1_555
O45 Sn2 2.058177 1_555
O46 S8 1.508850 1_555
O46 Sn2 2.070555 1_545
O47 S9 1.507485 1_555
O47 Sn2 2.080907 1_445
O48 S3 1.463213 1_555
O49 S1 1.462906 1_555
O50 S2 1.465038 1_555
O51 P1 1.505851 1_555
O52 S0 1.454023 1_655
O53 P0 1.504549 1_555
O54 S10 1.526868 1_555
O54 Sn3 2.088246 1_555
O55 P2 1.604498 1_655
O55 Sn3 1.988512 1_555
O56 S11 1.528117 1_545
O56 Sn3 2.081693 1_555
O57 S12 1.459106 1_545
O58 S13 1.465108 1_555
O59 S14 1.462177 1_655
O60 S9 1.462354 1_555
O61 S7 1.462106 1_455
O62 S8 1.465167 1_565
O63 S5 1.457454 1_565
O64 S6 1.457153 1_555
O65 S4 1.455758 1_455
O66 P0 1.563292 1_565
O66 Sn4 2.041762 1_555
O67 P1 1.564573 1_555
O67 Sn4 2.037175 1_555
O68 S0 1.489792 1_555
O68 Sn4 2.166489 1_555
O69 S1 1.511103 1_555
O69 Sn5 2.078342 1_555
O70 S2 1.511912 1_455
O70 Sn5 2.069535 1_555
O71 S3 1.512724 1_565
O71 Sn5 2.064925 1_555
