# generated using pymatgen
data_MgZn2FeWO6
_symmetry_space_group_name_H-M   'P 1'
_cell_length_a   5.35429437
_cell_length_b   6.00484484
_cell_length_c   8.03610146
_cell_angle_alpha   98.07176006
_cell_angle_beta   130.77683448
_cell_angle_gamma   118.53072234
_symmetry_Int_Tables_number   1
_chemical_formula_structural   MgZn2FeWO6
_chemical_formula_sum   'Mg1 Zn2 Fe1 W1 O6'
_cell_volume   126.04651961
_cell_formula_units_Z   1
loop_
 _symmetry_equiv_pos_site_id
 _symmetry_equiv_pos_as_xyz
  1  'x, y, z'
loop_
 _atom_site_type_symbol
 _atom_site_label
 _atom_site_symmetry_multiplicity
 _atom_site_fract_x
 _atom_site_fract_y
 _atom_site_fract_z
 _atom_site_occupancy
  Mg  Mg0  1  0.00327200  0.28697300  0.34569600  1
  Zn  Zn0  1  0.01034300  0.63001300  0.17831900  1
  Zn  Zn1  1  0.98609100  0.45239800  0.75661100  1
  Fe  Fe0  1  0.02701000  0.92163200  0.54709900  1
  W  W0  1  0.99457600  0.99195000  0.99034200  1
  O  O0  1  0.72102200  0.83157300  0.10182100  1
  O  O1  1  0.38518600  0.15348800  0.96149400  1
  O  O2  1  0.31990100  0.47046100  0.25719900  1
  O  O3  1  0.37143600  0.80826000  0.59652000  1
  O  O4  1  0.60432000  0.11443300  0.37527600  1
  O  O5  1  0.61958600  0.46053500  0.74927000  1
loop_
_geom_bond_atom_site_label_1
_geom_bond_atom_site_label_2
_geom_bond_distance
_geom_bond_site_symmetry_2
Mg0 O5 2.068752 1_555
Mg0 O0 2.069117 1_445
Mg0 O4 2.076339 1_455
Mg0 O1 2.133436 1_454
Mg0 O2 2.145798 1_555
Mg0 O3 2.211492 1_555
Fe0 O2 2.002346 1_455
Fe0 O3 2.083421 1_555
Fe0 O1 2.123960 1_565
Fe0 O5 2.271671 1_565
Fe0 O0 2.594860 1_455
Fe0 O4 2.690533 1_465
O0 Zn1 1.942356 1_454
O0 W0 2.117575 1_554
O0 Zn0 2.235764 1_655
O1 W0 2.031578 1_445
O1 Zn0 2.063998 1_656
O2 Zn0 2.093332 1_555
O2 W0 2.120935 1_444
O3 W0 2.018898 1_555
O3 Zn0 2.168801 1_555
O4 Zn1 1.948391 1_555
O4 Zn0 2.091832 1_545
O4 W0 2.155012 1_444
O5 Zn1 1.948839 1_555
O5 Zn0 2.204273 1_656
O5 W0 2.242758 1_555
