# generated using pymatgen
data_Sr4MgV2Fe2(AsO3)2
_symmetry_space_group_name_H-M   'P 1'
_cell_length_a   3.98720400
_cell_length_b   3.97519800
_cell_length_c   18.37306700
_cell_angle_alpha   90.00000000
_cell_angle_beta   90.00000000
_cell_angle_gamma   90.00000000
_symmetry_Int_Tables_number   1
_chemical_formula_structural   Sr4MgV2Fe2(AsO3)2
_chemical_formula_sum   'Sr4 Mg1 V2 Fe2 As2 O6'
_cell_volume   291.21174070
_cell_formula_units_Z   1
loop_
 _symmetry_equiv_pos_site_id
 _symmetry_equiv_pos_as_xyz
  1  'x, y, z'
loop_
 _atom_site_type_symbol
 _atom_site_label
 _atom_site_symmetry_multiplicity
 _atom_site_fract_x
 _atom_site_fract_y
 _atom_site_fract_z
 _atom_site_occupancy
  Sr  Sr0  1  0.25000000  0.25000000  0.75471400  1
  Sr  Sr1  1  0.75000000  0.75000000  0.21509400  1
  Sr  Sr2  1  0.25000000  0.25000000  0.55562700  1
  Sr  Sr3  1  0.75000000  0.75000000  0.41209200  1
  Mg  Mg0  1  0.25000000  0.25000000  0.93097700  1
  V  V0  1  0.75000000  0.75000000  0.65700800  1
  V  V1  1  0.25000000  0.25000000  0.31772600  1
  Fe  Fe0  1  0.25000000  0.75000000  0.04287800  1
  Fe  Fe1  1  0.75000000  0.25000000  0.04327000  1
  As  As0  1  0.75000000  0.75000000  0.91614500  1
  As  As1  1  0.25000000  0.25000000  0.13149700  1
  O  O0  1  0.25000000  0.75000000  0.67577600  1
  O  O1  1  0.75000000  0.25000000  0.67626000  1
  O  O2  1  0.75000000  0.25000000  0.30623600  1
  O  O3  1  0.25000000  0.75000000  0.30571400  1
  O  O4  1  0.75000000  0.75000000  0.54783800  1
  O  O5  1  0.25000000  0.25000000  0.42781400  1
loop_
_geom_bond_atom_site_label_1
_geom_bond_atom_site_label_2
_geom_bond_distance
_geom_bond_site_symmetry_2
Mg0 Sr0 3.238492 1_555
Fe0 Mg0 2.859640 1_564
Fe0 Mg0 2.859640 1_554
Fe1 Mg0 2.868990 1_654
Fe1 Mg0 2.868990 1_554
As0 Mg0 2.828296 1_565
As0 Mg0 2.828296 1_655
As0 Mg0 2.828296 1_665
As0 Mg0 2.828296 1_555
As0 Fe0 3.065329 1_556
As0 Fe0 3.065329 1_656
As0 Fe1 3.066909 1_556
As0 Fe1 3.066909 1_566
As1 Fe0 2.569357 1_555
As1 Fe0 2.569357 1_545
As1 Fe1 2.569454 1_555
As1 Fe1 2.569454 1_455
As1 Sr1 3.206882 1_555
As1 Sr1 3.206882 1_455
As1 Sr1 3.206882 1_445
As1 Sr1 3.206882 1_545
O0 V0 2.023204 1_455
O0 V0 2.023204 1_555
O0 Sr0 2.460491 1_555
O0 Sr0 2.460491 1_565
O0 Sr2 2.970460 1_565
O0 Sr2 2.970460 1_555
O1 V0 2.018828 1_545
O1 V0 2.018828 1_555
O1 Sr0 2.460122 1_555
O1 Sr0 2.460122 1_655
O1 Sr2 2.981085 1_555
O1 Sr2 2.981085 1_655
O2 V1 2.004748 1_655
O2 V1 2.004748 1_555
O2 Sr1 2.598980 1_545
O2 Sr1 2.598980 1_555
O2 Sr3 2.780860 1_545
O2 Sr3 2.780860 1_555
O3 V1 1.999814 1_565
O3 V1 1.999814 1_555
O3 Sr1 2.597415 1_455
O3 Sr1 2.597415 1_555
O3 Sr3 2.791860 1_455
O3 Sr3 2.791860 1_555
O4 V0 2.005788 1_555
O4 Sr3 2.494070 1_555
O4 Sr2 2.818773 1_565
O4 Sr2 2.818773 1_555
O4 Sr2 2.818773 1_655
O4 Sr2 2.818773 1_665
O5 V1 2.022654 1_555
O5 Sr2 2.348317 1_555
O5 Sr3 2.829919 1_445
O5 Sr3 2.829919 1_455
O5 Sr3 2.829919 1_555
O5 Sr3 2.829919 1_545
