# generated using pymatgen
data_MgMnV4O12
_symmetry_space_group_name_H-M   'P 1'
_cell_length_a   5.29983679
_cell_length_b   10.98213499
_cell_length_c   9.84002657
_cell_angle_alpha   26.88842795
_cell_angle_beta   51.35643993
_cell_angle_gamma   55.84326085
_symmetry_Int_Tables_number   1
_chemical_formula_structural   MgMnV4O12
_chemical_formula_sum   'Mg1 Mn1 V4 O12'
_cell_volume   202.28789129
_cell_formula_units_Z   1
loop_
 _symmetry_equiv_pos_site_id
 _symmetry_equiv_pos_as_xyz
  1  'x, y, z'
loop_
 _atom_site_type_symbol
 _atom_site_label
 _atom_site_symmetry_multiplicity
 _atom_site_fract_x
 _atom_site_fract_y
 _atom_site_fract_z
 _atom_site_occupancy
  Mg  Mg0  1  0.78662500  0.49969300  0.78415500  1
  Mn  Mn0  1  0.29491300  0.00219400  0.28673900  1
  V  V0  1  0.02795600  0.00682200  0.98043600  1
  V  V1  1  0.93729700  0.49793300  0.03618000  1
  V  V2  1  0.45038500  0.00630300  0.52635400  1
  V  V3  1  0.52958100  0.51026100  0.47898900  1
  O  O0  1  0.34971500  0.28468500  0.13050700  1
  O  O1  1  0.23237300  0.10837200  0.63335700  1
  O  O2  1  0.09992800  0.30833900  0.74111500  1
  O  O3  1  0.87534700  0.19126300  0.21823500  1
  O  O4  1  0.33880900  0.81138200  0.11945800  1
  O  O5  1  0.72272200  0.39543100  0.34430400  1
  O  O6  1  0.23627200  0.65224800  0.55812600  1
  O  O7  1  0.60626300  0.20077600  0.84377000  1
  O  O8  1  0.14054700  0.78532100  0.74195400  1
  O  O9  1  0.85210100  0.69255100  0.22937600  1
  O  O10  1  0.71539000  0.86840100  0.34514300  1
  O  O11  1  0.65057700  0.67207300  0.84582200  1
loop_
_geom_bond_atom_site_label_1
_geom_bond_atom_site_label_2
_geom_bond_distance
_geom_bond_site_symmetry_2
Mg0 O2 2.035593 1_655
Mg0 O10 2.078048 1_555
Mg0 O11 2.107562 1_555
Mg0 O0 2.116865 1_556
Mg0 O6 2.156236 1_655
Mg0 O3 2.202514 1_556
Mn0 O10 1.967658 1_545
Mn0 O3 1.975106 1_455
Mn0 O6 1.998889 1_545
Mn0 O0 2.004757 1_555
Mn0 O7 2.140025 1_554
Mn0 O8 2.233192 1_545
O0 V1 2.007970 1_455
O0 V2 2.079792 1_555
O1 V2 1.682751 1_555
O1 V0 2.005742 1_555
O2 V0 1.744320 1_555
O2 V3 2.210759 1_555
O3 V2 2.003534 1_555
O3 V1 2.098730 1_555
O4 V0 1.673007 1_564
O4 V3 2.077996 1_555
O5 V1 1.672189 1_555
O5 V3 2.057167 1_555
O6 V3 1.840254 1_555
O7 V3 1.763588 1_555
O7 V0 2.153810 1_655
O8 V1 1.768269 1_456
O8 V2 2.006719 1_565
O9 V3 1.670398 1_555
O9 V0 2.112096 1_664
O10 V0 1.898841 1_664
O11 V1 1.837622 1_556
O11 V2 1.921149 1_565
