# generated using pymatgen
data_Na4Mg3SiSnS5O24
_symmetry_space_group_name_H-M   'P 1'
_cell_length_a   8.84228812
_cell_length_b   8.84796454
_cell_length_c   22.57809479
_cell_angle_alpha   90.50992272
_cell_angle_beta   89.84451938
_cell_angle_gamma   120.19584034
_symmetry_Int_Tables_number   1
_chemical_formula_structural   Na4Mg3SiSnS5O24
_chemical_formula_sum   'Na12 Mg9 Si3 Sn3 S15 O72'
_cell_volume   1526.67792262
_cell_formula_units_Z   3
loop_
 _symmetry_equiv_pos_site_id
 _symmetry_equiv_pos_as_xyz
  1  'x, y, z'
loop_
 _atom_site_type_symbol
 _atom_site_label
 _atom_site_symmetry_multiplicity
 _atom_site_fract_x
 _atom_site_fract_y
 _atom_site_fract_z
 _atom_site_occupancy
  Na  Na0  1  0.36259640  0.36295928  0.25031541  1
  Na  Na1  1  0.31450784  0.34273519  0.58739889  1
  Na  Na2  1  0.01966158  0.69614548  0.58240660  1
  Na  Na3  1  0.98680318  0.67409265  0.91711890  1
  Na  Na4  1  0.69963250  0.03401417  0.91240371  1
  Na  Na5  1  0.31297856  0.28827762  0.91835419  1
  Na  Na6  1  0.97559525  0.98342206  0.49949317  1
  Na  Na7  1  0.01302241  0.01196033  0.00068262  1
  Na  Na8  1  0.66785191  0.32465294  0.82835247  1
  Na  Na9  1  0.67733159  0.33195306  0.33041147  1
  Na  Na10  1  0.33218041  0.67649230  0.16616361  1
  Na  Na11  1  0.35855541  0.67544608  0.66361372  1
  Mg  Mg0  1  0.99716155  0.99756855  0.35004334  1
  Mg  Mg1  1  0.00655074  0.00673994  0.85016829  1
  Mg  Mg2  1  0.98343362  0.99069869  0.64983433  1
  Mg  Mg3  1  0.99769241  0.99669906  0.15053657  1
  Mg  Mg4  1  0.66275547  0.33951082  0.68466594  1
  Mg  Mg5  1  0.67328559  0.33217220  0.18553716  1
  Mg  Mg6  1  0.32108240  0.66368357  0.01850965  1
  Mg  Mg7  1  0.34865834  0.67271998  0.51636481  1
  Mg  Mg8  1  0.33389816  0.67580553  0.31590739  1
  Si  Si0  1  0.66460709  0.63170379  0.58562715  1
  Si  Si1  1  0.04294714  0.37161305  0.91889964  1
  Si  Si2  1  0.33068185  0.95874041  0.91911066  1
  Sn  Sn0  1  0.66860400  0.32591111  0.98617371  1
  Sn  Sn1  1  0.67021517  0.34032407  0.48203052  1
  Sn  Sn2  1  0.32522823  0.67155438  0.81633186  1
  S  S0  1  0.29150332  0.99900985  0.24967467  1
  S  S1  1  0.70604288  0.70645838  0.25004509  1
  S  S2  1  0.99975016  0.29192250  0.25044325  1
  S  S3  1  0.29581549  0.29600351  0.74999659  1
  S  S4  1  0.99852725  0.70559050  0.74946889  1
  S  S5  1  0.70342109  0.99886119  0.75098101  1
  S  S6  1  0.95778936  0.33077599  0.58418271  1
  S  S7  1  0.37551960  0.03962741  0.58484583  1
  S  S8  1  0.96010593  0.62941103  0.08578530  1
  S  S9  1  0.66746469  0.03308789  0.08596497  1
  S  S10  1  0.37203210  0.33549531  0.08605993  1
  S  S11  1  0.62321955  0.66658791  0.91798276  1
  S  S12  1  0.62842411  0.96290032  0.41686729  1
  S  S13  1  0.32942135  0.36930995  0.41557576  1
  S  S14  1  0.04290268  0.66796445  0.41712986  1
  O  O0  1  0.21169794  0.03083740  0.30259091  1
  O  O1  1  0.81238502  0.78767153  0.30352679  1
  O  O2  1  0.97434309  0.18570807  0.30354510  1
  O  O3  1  0.21104655  0.19746074  0.80395122  1
  O  O4  1  0.98153562  0.78769610  0.80416397  1
  O  O5  1  0.80033493  0.01647372  0.80616558  1
  O  O6  1  0.78728059  0.97555428  0.69875692  1
  O  O7  1  0.19034070  0.21515645  0.69618649  1
  O  O8  1  0.02236169  0.81101414  0.69656414  1
  O  O9  1  0.78647340  0.81152019  0.19693086  1
  O  O10  1  0.03098364  0.21169296  0.19741576  1
  O  O11  1  0.18529631  0.97347754  0.19627470  1
  O  O12  1  0.87251690  0.35681525  0.63537611  1
  O  O13  1  0.48870189  0.11849587  0.63580817  1
  O  O14  1  0.62467949  0.49593461  0.63822678  1
  O  O15  1  0.86422426  0.51331259  0.13431686  1
  O  O16  1  0.64337281  0.12783071  0.13466960  1
  O  O17  1  0.48327416  0.35449578  0.13698613  1
  O  O18  1  0.45049186  0.30658585  0.02841435  1
  O  O19  1  0.85466794  0.55554447  0.02728710  1
  O  O20  1  0.70039597  0.13680314  0.02765835  1
  O  O21  1  0.45069546  0.14734633  0.52924807  1
  O  O22  1  0.71754183  0.55089478  0.52446432  1
  O  O23  1  0.84822455  0.28901421  0.52867823  1
  O  O24  1  0.54714864  0.69920486  0.96973049  1
  O  O25  1  0.17398096  0.45381513  0.97314241  1
  O  O26  1  0.30060418  0.83777754  0.97430555  1
  O  O27  1  0.54716392  0.86358890  0.47049434  1
  O  O28  1  0.31125404  0.45148430  0.47009967  1
  O  O29  1  0.13870467  0.68571339  0.47272791  1
  O  O30  1  0.12784925  0.64399700  0.36520732  1
  O  O31  1  0.52157454  0.88534092  0.36367966  1
  O  O32  1  0.35797900  0.47673056  0.36259843  1
  O  O33  1  0.11424668  0.49602349  0.85834943  1
  O  O34  1  0.39702305  0.89402673  0.85936218  1
  O  O35  1  0.51236864  0.62392222  0.86325394  1
  O  O36  1  0.01755732  0.82003376  0.41154122  1
  O  O37  1  0.80529624  0.98707698  0.41078056  1
  O  O38  1  0.17478131  0.19301328  0.40977204  1
  O  O39  1  0.00117619  0.17355406  0.90869282  1
  O  O40  1  0.15988863  0.97682671  0.90845319  1
  O  O41  1  0.79931083  0.81874104  0.90807271  1
  O  O42  1  0.99228104  0.18456128  0.59061153  1
  O  O43  1  0.20376081  0.03139933  0.59138814  1
  O  O44  1  0.84544641  0.81929551  0.58863136  1
  O  O45  1  0.97683029  0.80313028  0.09047615  1
  O  O46  1  0.82620692  0.01976897  0.09139395  1
  O  O47  1  0.19811200  0.17701244  0.08948818  1
  O  O48  1  0.68034332  0.15236948  0.74540844  1
  O  O49  1  0.47027210  0.31296396  0.74620515  1
  O  O50  1  0.84609651  0.52736598  0.74488224  1
  O  O51  1  0.68144397  0.52615748  0.24385389  1
  O  O52  1  0.84496650  0.31319698  0.24357940  1
  O  O53  1  0.46799861  0.16169029  0.24360212  1
  O  O54  1  0.64272419  0.50782663  0.92406978  1
  O  O55  1  0.85021326  0.36536400  0.92474284  1
  O  O56  1  0.50332707  0.16229658  0.92413871  1
  O  O57  1  0.64554547  0.14566547  0.42207171  1
  O  O58  1  0.49238007  0.35033142  0.41957456  1
  O  O59  1  0.86298993  0.49959425  0.41871039  1
  O  O60  1  0.36278486  0.49543698  0.08002036  1
  O  O61  1  0.13076507  0.64104761  0.08012020  1
  O  O62  1  0.51015997  0.86059063  0.07892336  1
  O  O63  1  0.34227957  0.85971500  0.57553691  1
  O  O64  1  0.48680314  0.64012074  0.57642788  1
  O  O65  1  0.12834551  0.49521605  0.57567623  1
  O  O66  1  0.31298385  0.84439610  0.25623187  1
  O  O67  1  0.52570955  0.68165667  0.25631124  1
  O  O68  1  0.16211397  0.46846764  0.25699292  1
  O  O69  1  0.31667568  0.47839841  0.75414462  1
  O  O70  1  0.16483094  0.69274540  0.75123294  1
  O  O71  1  0.52400933  0.83067533  0.75328988  1
loop_
_geom_bond_atom_site_label_1
_geom_bond_atom_site_label_2
_geom_bond_distance
_geom_bond_site_symmetry_2
Na0 O68 2.386943 1_555
Na0 O53 2.393090 1_555
Na0 O67 2.439905 1_555
Na0 O51 2.441601 1_555
Na0 O32 2.727137 1_555
Na0 O17 2.784536 1_555
Na0 O10 2.803319 1_555
Na0 O0 2.813864 1_555
Na1 O64 2.298486 1_555
Na1 O43 2.417809 1_555
Na1 O42 2.464050 1_455
Na1 O65 2.615832 1_555
Na1 O14 2.631756 1_555
Na1 O7 2.701978 1_555
Na1 O28 2.830950 1_555
Na1 O21 2.864927 1_555
Na2 O44 2.294475 1_455
Na2 O65 2.412526 1_555
Na2 O63 2.470833 1_555
Na2 O43 2.573684 1_565
Na2 O22 2.652386 1_455
Na2 O29 2.707078 1_555
Na2 O8 2.757923 1_555
Na2 O12 2.874617 1_455
Na3 O40 2.332248 1_655
Na3 O55 2.374584 1_555
Na3 O41 2.563019 1_555
Na3 O54 2.635250 1_555
Na3 O33 2.693244 1_655
Na3 O26 2.721674 1_655
Na3 O19 2.729526 1_556
Na3 O4 2.758613 1_555
Na4 O39 2.308657 1_655
Na4 O41 2.469684 1_545
Na4 O56 2.519021 1_555
Na4 O55 2.550790 1_555
Na4 O5 2.586756 1_555
Na4 O34 2.604842 1_545
Na4 O20 2.747832 1_556
Na4 O24 2.882686 1_545
Na5 O40 2.390525 1_545
Na5 O39 2.421452 1_555
Na5 O56 2.446109 1_555
Na5 O54 2.567427 1_555
Na5 O25 2.637489 1_555
Na5 O3 2.716083 1_555
Na5 O18 2.736933 1_556
Na5 O35 2.874476 1_555
Na6 O44 2.417029 1_555
Na6 O37 2.519314 1_555
Na6 O36 2.579808 1_655
Na6 O42 2.663410 1_565
Na6 O38 2.721514 1_665
Na6 O43 2.775054 1_665
Na7 O47 2.528429 1_555
Na7 O40 2.549355 1_544
Na7 O39 2.563915 1_554
Na7 O46 2.649917 1_455
Na7 O45 2.663654 1_445
Na7 O41 2.752066 1_444
Na8 O48 2.441387 1_555
Na8 O49 2.517011 1_555
Na8 O50 2.540319 1_555
Na8 O56 2.606369 1_555
Na8 O55 2.624315 1_555
Na8 O54 2.764738 1_555
Na9 O52 2.508811 1_555
Na9 O59 2.526926 1_555
Na9 O57 2.582676 1_555
Na9 O53 2.588310 1_555
Na9 O51 2.601878 1_555
Na9 O58 2.645274 1_555
Na10 O62 2.543900 1_555
Na10 O61 2.547622 1_555
Na10 O66 2.563057 1_555
Na10 O60 2.607708 1_555
Na10 O67 2.647965 1_555
Na10 O68 2.668512 1_555
Na11 O64 2.364758 1_555
Na11 O71 2.464052 1_555
Na11 O69 2.600903 1_555
Na11 O63 2.632257 1_555
Na11 O70 2.666687 1_555
Na11 O65 2.707198 1_555
Mg0 O1 2.035650 1_555
Mg0 O0 2.065424 1_665
Mg0 O2 2.069797 1_565
Mg0 O38 2.124545 1_665
Mg0 O37 2.144433 1_555
Mg0 O36 2.180160 1_655
Mg1 O39 1.990543 1_555
Mg1 O40 2.004250 1_545
Mg1 O3 2.039080 1_555
Mg1 O4 2.101950 1_445
Mg1 O5 2.118640 1_455
Mg1 O41 2.189437 1_445
Mg2 O44 1.951585 1_555
Mg2 O6 2.001197 1_555
Mg2 O8 2.083642 1_655
Mg2 O42 2.154425 1_565
Mg2 O7 2.169120 1_665
Mg2 O43 2.226047 1_665
Mg3 O9 2.052240 1_555
Mg3 O11 2.053373 1_655
Mg3 O10 2.056238 1_665
Mg3 O45 2.109127 1_555
Mg3 O46 2.109784 1_565
Mg3 O47 2.183484 1_665
Mg4 O14 1.903876 1_555
Mg4 O13 2.086380 1_555
Mg4 O12 2.099587 1_555
Mg4 O49 2.115024 1_555
Mg4 O50 2.121436 1_555
Mg4 O48 2.224277 1_555
Mg5 O15 2.014211 1_555
Mg5 O16 2.035074 1_555
Mg5 O52 2.078732 1_555
Mg5 O17 2.100279 1_555
Mg5 O51 2.126155 1_555
Mg5 O53 2.134715 1_555
Mg6 O26 1.926281 1_554
Mg6 O25 1.932085 1_554
Mg6 O61 2.111942 1_555
Mg6 O24 2.160960 1_554
Mg6 O62 2.175123 1_555
Mg6 O60 2.207380 1_555
Mg7 O64 1.945430 1_555
Mg7 O27 2.011222 1_555
Mg7 O28 2.084830 1_555
Mg7 O63 2.140007 1_555
Mg7 O29 2.158015 1_555
Mg7 O65 2.236187 1_555
Mg8 O30 2.028902 1_555
Mg8 O31 2.057612 1_555
Mg8 O66 2.095068 1_555
Mg8 O67 2.142511 1_555
Mg8 O68 2.146291 1_555
Mg8 O32 2.161196 1_555
O0 S0 1.481221 1_545
O1 S1 1.472976 1_555
O2 S2 1.475578 1_555
O3 S3 1.470573 1_555
O4 S4 1.472464 1_555
O5 S5 1.476164 1_545
O6 S5 1.458572 1_555
O7 S3 1.475519 1_555
O8 S4 1.470382 1_455
O9 S1 1.469093 1_555
O10 S2 1.481183 1_455
O11 S0 1.474617 1_555
O12 S6 1.457006 1_555
O13 S7 1.449809 1_555
O14 Si0 1.604559 1_555
O15 S8 1.453825 1_555
O16 S9 1.455780 1_555
O17 S10 1.467731 1_555
O18 S10 1.551899 1_555
O18 Sn0 2.078351 1_554
O19 S8 1.555377 1_555
O19 Sn0 2.075766 1_554
O20 S9 1.552605 1_555
O20 Sn0 2.063605 1_554
O21 S7 1.518380 1_555
O21 Sn1 2.122956 1_555
O22 Si0 1.718388 1_555
O22 Sn1 1.936588 1_555
O23 S6 1.511238 1_555
O23 Sn1 2.128190 1_555
O24 S11 1.444233 1_555
O25 Si1 1.586028 1_555
O26 Si2 1.582668 1_555
O27 S12 1.460664 1_555
O28 S13 1.473229 1_555
O29 S14 1.478673 1_555
O30 S14 1.460991 1_555
O31 S12 1.464570 1_555
O32 S13 1.474795 1_555
O33 Si1 1.673973 1_555
O33 Sn2 1.973447 1_555
O34 Si2 1.676785 1_555
O34 Sn2 1.983409 1_555
O35 S11 1.502066 1_555
O35 Sn2 2.181087 1_555
O36 S14 1.477508 1_555
O37 S12 1.474254 1_555
O38 S13 1.473724 1_555
O39 Si1 1.613285 1_555
O40 Si2 1.615544 1_555
O41 S11 1.477074 1_555
O42 S6 1.479266 1_555
O43 S7 1.490451 1_555
O44 Si0 1.626427 1_555
O45 S8 1.471117 1_555
O46 S9 1.471976 1_555
O47 S10 1.472876 1_555
O48 S5 1.477924 1_545
O49 S3 1.475161 1_555
O50 S4 1.474422 1_555
O51 S1 1.502987 1_555
O52 S2 1.481030 1_555
O53 S0 1.506289 1_545
O54 S11 1.506359 1_555
O54 Sn0 2.240910 1_555
O55 Si1 1.681937 1_655
O55 Sn0 2.014195 1_555
O56 Si2 1.678905 1_545
O56 Sn0 2.010002 1_555
O57 S12 1.549900 1_545
O57 Sn1 2.104482 1_555
O58 S13 1.535250 1_555
O58 Sn1 2.150186 1_555
O59 S14 1.538846 1_655
O59 Sn1 2.131118 1_555
O60 S10 1.465553 1_555
O61 S8 1.465262 1_455
O62 S9 1.466569 1_565
O63 S7 1.479295 1_565
O64 Si0 1.624902 1_555
O65 S6 1.491432 1_455
O66 S0 1.481417 1_555
O67 S1 1.502708 1_555
O68 S2 1.504735 1_455
O69 S3 1.531402 1_555
O69 Sn2 2.173889 1_555
O70 S4 1.531471 1_455
O70 Sn2 2.119133 1_555
O71 S5 1.536259 1_555
O71 Sn2 2.151839 1_555
