# generated using pymatgen
data_Na14Y4Ti4Si9(SO16)3
_symmetry_space_group_name_H-M   'P 1'
_cell_length_a   18.48482218
_cell_length_b   9.21323861
_cell_length_c   22.52762879
_cell_angle_alpha   89.98084358
_cell_angle_beta   89.55884754
_cell_angle_gamma   119.96411585
_symmetry_Int_Tables_number   1
_chemical_formula_structural   Na14Y4Ti4Si9(SO16)3
_chemical_formula_sum   'Na42 Y12 Ti12 Si27 S9 O144'
_cell_volume   3323.63025883
_cell_formula_units_Z   3
loop_
 _symmetry_equiv_pos_site_id
 _symmetry_equiv_pos_as_xyz
  1  'x, y, z'
loop_
 _atom_site_type_symbol
 _atom_site_label
 _atom_site_symmetry_multiplicity
 _atom_site_fract_x
 _atom_site_fract_y
 _atom_site_fract_z
 _atom_site_occupancy
  Na  Na0  1  0.82464194  0.01554658  0.25601675  1
  Na  Na1  1  0.17512142  0.35230837  0.25528475  1
  Na  Na2  1  0.69221454  0.36875471  0.25230041  1
  Na  Na3  1  0.00027366  0.62974653  0.24704841  1
  Na  Na4  1  0.49572697  0.63704902  0.24647856  1
  Na  Na5  1  0.32303901  0.63110551  0.75196393  1
  Na  Na6  1  0.99319771  0.35117684  0.73797022  1
  Na  Na7  1  0.50119809  0.37209719  0.74391080  1
  Na  Na8  1  0.18985349  0.01418552  0.74779882  1
  Na  Na9  1  0.68219438  0.00643910  0.74934177  1
  Na  Na10  1  0.14518987  0.31817451  0.58127789  1
  Na  Na11  1  0.65409219  0.32411704  0.58122487  1
  Na  Na12  1  0.33842932  0.99147612  0.58897762  1
  Na  Na13  1  0.83427112  0.97464029  0.58335695  1
  Na  Na14  1  0.14946465  0.98188225  0.08134199  1
  Na  Na15  1  0.64901236  0.97169693  0.07746140  1
  Na  Na16  1  0.33392980  0.68933891  0.08198600  1
  Na  Na17  1  0.83865271  0.68729180  0.08937720  1
  Na  Na18  1  0.47904233  0.67418102  0.91626094  1
  Na  Na19  1  0.97797662  0.67673179  0.92633024  1
  Na  Na20  1  0.34295132  0.02295145  0.90639992  1
  Na  Na21  1  0.84431625  0.02372265  0.90744353  1
  Na  Na22  1  0.17462368  0.29733607  0.91092566  1
  Na  Na23  1  0.66875585  0.28456350  0.91103380  1
  Na  Na24  1  0.48312771  0.28863087  0.43029968  1
  Na  Na25  1  0.97687057  0.27912114  0.42097870  1
  Na  Na26  1  0.16732492  0.05349883  0.41513324  1
  Na  Na27  1  0.67613183  0.05212244  0.41770639  1
  Na  Na28  1  0.34644905  0.66745808  0.41232980  1
  Na  Na29  1  0.84380651  0.66316225  0.41986802  1
  Na  Na30  1  0.99644505  0.98987655  0.50542076  1
  Na  Na31  1  0.50758432  0.01220086  0.50865016  1
  Na  Na32  1  0.00444239  0.99869551  0.00674350  1
  Na  Na33  1  0.50359074  0.00040797  0.00080588  1
  Na  Na34  1  0.32847558  0.33471052  0.82497357  1
  Na  Na35  1  0.82025941  0.33121918  0.82325682  1
  Na  Na36  1  0.31980942  0.30430954  0.33146425  1
  Na  Na37  1  0.82811311  0.32222941  0.33161063  1
  Na  Na38  1  0.15550537  0.65163721  0.16700538  1
  Na  Na39  1  0.66302572  0.65467425  0.16401652  1
  Na  Na40  1  0.16167649  0.66965145  0.66322354  1
  Na  Na41  1  0.65908487  0.66117666  0.66414019  1
  Y  Y0  1  0.00279354  0.00775518  0.35155246  1
  Y  Y1  1  0.49928018  0.00439088  0.35168282  1
  Y  Y2  1  0.99831569  0.99526353  0.84951008  1
  Y  Y3  1  0.50295194  0.99743640  0.85017994  1
  Y  Y4  1  0.33664006  0.32782401  0.67851403  1
  Y  Y5  1  0.83730829  0.34579406  0.17902771  1
  Y  Y6  1  0.33076889  0.33737227  0.98807942  1
  Y  Y7  1  0.82471912  0.33677303  0.98463010  1
  Y  Y8  1  0.32641756  0.31462815  0.48486324  1
  Y  Y9  1  0.83104212  0.33285795  0.49062136  1
  Y  Y10  1  0.67314453  0.67556956  0.31318383  1
  Y  Y11  1  0.17231907  0.66838375  0.81090919  1
  Ti  Ti0  1  0.99677392  0.00993543  0.64646841  1
  Ti  Ti1  1  0.51376794  0.02226792  0.65786901  1
  Ti  Ti2  1  0.01251730  0.00580657  0.15761994  1
  Ti  Ti3  1  0.50320081  0.98806323  0.14965285  1
  Ti  Ti4  1  0.82575840  0.31967135  0.67600526  1
  Ti  Ti5  1  0.32723709  0.35103030  0.18185316  1
  Ti  Ti6  1  0.16854066  0.67420608  0.02001685  1
  Ti  Ti7  1  0.66504264  0.66289997  0.01934397  1
  Ti  Ti8  1  0.16377851  0.66529795  0.51975706  1
  Ti  Ti9  1  0.67869743  0.66223860  0.52613282  1
  Ti  Ti10  1  0.17855936  0.67235293  0.30697258  1
  Ti  Ti11  1  0.67985117  0.68845143  0.80499672  1
  Si  Si0  1  0.15776055  0.00420191  0.25103325  1
  Si  Si1  1  0.64734578  0.99560338  0.24922837  1
  Si  Si2  1  0.35406381  0.70554424  0.24878654  1
  Si  Si3  1  0.85521526  0.71010884  0.24807312  1
  Si  Si4  1  0.00351128  0.30093302  0.25259799  1
  Si  Si5  1  0.14477315  0.29275393  0.74805120  1
  Si  Si6  1  0.65774500  0.31215577  0.75221983  1
  Si  Si7  1  0.50375607  0.70665037  0.75305314  1
  Si  Si8  1  0.35515876  0.00057044  0.74839251  1
  Si  Si9  1  0.85428797  0.01442355  0.74969551  1
  Si  Si10  1  0.49113019  0.33005272  0.58177316  1
  Si  Si11  1  0.98456119  0.34012102  0.58494081  1
  Si  Si12  1  0.17213672  0.01432494  0.58371163  1
  Si  Si13  1  0.67697133  0.01914315  0.58337059  1
  Si  Si14  1  0.84060402  0.63824744  0.58260941  1
  Si  Si15  1  0.48532716  0.63220463  0.08567296  1
  Si  Si16  1  0.99119522  0.65174729  0.08170985  1
  Si  Si17  1  0.17741587  0.33630974  0.08398982  1
  Si  Si18  1  0.67098975  0.32907481  0.08423167  1
  Si  Si19  1  0.31492464  0.66990849  0.92053146  1
  Si  Si20  1  0.80493155  0.66481054  0.91527874  1
  Si  Si21  1  0.16691744  0.96037384  0.91705177  1
  Si  Si22  1  0.66785789  0.94797651  0.91640662  1
  Si  Si23  1  0.30475955  0.94611198  0.41580980  1
  Si  Si24  1  0.81495885  0.96237856  0.42079930  1
  Si  Si25  1  0.16824595  0.38782348  0.41641107  1
  Si  Si26  1  0.66741982  0.37274736  0.41733121  1
  S  S0  1  0.49236405  0.28895184  0.24562479  1
  S  S1  1  0.99324283  0.69514616  0.74706677  1
  S  S2  1  0.33221085  0.64484913  0.58070798  1
  S  S3  1  0.33483217  0.03382878  0.08451240  1
  S  S4  1  0.83305637  0.02029663  0.08075424  1
  S  S5  1  0.02219075  0.37792762  0.92099600  1
  S  S6  1  0.52650296  0.38655323  0.91693586  1
  S  S7  1  0.02793749  0.66488805  0.41495131  1
  S  S8  1  0.52057397  0.66531476  0.41906761  1
  O  O0  1  0.12804915  0.06148522  0.31034389  1
  O  O1  1  0.60978404  0.02713995  0.31029268  1
  O  O2  1  0.40854156  0.76611563  0.30880183  1
  O  O3  1  0.90512131  0.78758456  0.30944111  1
  O  O4  1  0.48244896  0.20438784  0.30400169  1
  O  O5  1  0.98623986  0.20086479  0.31499791  1
  O  O6  1  0.11109280  0.19633284  0.81216503  1
  O  O7  1  0.62391768  0.19861502  0.81237794  1
  O  O8  1  0.48558933  0.76801944  0.81633918  1
  O  O9  1  0.98465281  0.76112621  0.80608702  1
  O  O10  1  0.40245024  0.01946195  0.81120034  1
  O  O11  1  0.90614660  0.05032749  0.81122511  1
  O  O12  1  0.41301309  0.99253238  0.69313100  1
  O  O13  1  0.90598871  0.99365437  0.69444128  1
  O  O14  1  0.08220252  0.16809506  0.69574176  1
  O  O15  1  0.59082504  0.21057711  0.69722912  1
  O  O16  1  0.00142097  0.80902679  0.69916334  1
  O  O17  1  0.51870537  0.85249628  0.70301553  1
  O  O18  1  0.40402245  0.82507075  0.19187700  1
  O  O19  1  0.91239871  0.83254368  0.19152585  1
  O  O20  1  0.01850565  0.18589948  0.20161605  1
  O  O21  1  0.49934067  0.19025923  0.19736287  1
  O  O22  1  0.09123707  0.97334954  0.19591873  1
  O  O23  1  0.58395572  0.99280111  0.19470608  1
  O  O24  1  0.45229151  0.36521186  0.64063049  1
  O  O25  1  0.93101211  0.35617667  0.64108796  1
  O  O26  1  0.23806043  0.09055120  0.63853842  1
  O  O27  1  0.74708770  0.13045789  0.63687948  1
  O  O28  1  0.31876852  0.53849864  0.63361142  1
  O  O29  1  0.82148812  0.48715854  0.63122729  1
  O  O30  1  0.42935424  0.50488669  0.14107966  1
  O  O31  1  0.95367958  0.53948352  0.14088381  1
  O  O32  1  0.32424375  0.12990426  0.13246581  1
  O  O33  1  0.81866460  0.09854444  0.13365354  1
  O  O34  1  0.24930962  0.36693567  0.13701036  1
  O  O35  1  0.73576118  0.37952812  0.13915972  1
  O  O36  1  0.21256075  0.28563850  0.02581524  1
  O  O37  1  0.70728364  0.27327623  0.02676703  1
  O  O38  1  0.43052413  0.56846947  0.02600293  1
  O  O39  1  0.92837040  0.56558977  0.02454186  1
  O  O40  1  0.34804399  0.12095923  0.02661747  1
  O  O41  1  0.84111678  0.12056262  0.02693935  1
  O  O42  1  0.21021979  0.14067593  0.52588010  1
  O  O43  1  0.70960990  0.13781282  0.52447816  1
  O  O44  1  0.34063838  0.56190271  0.52684296  1
  O  O45  1  0.85836614  0.58460514  0.51850195  1
  O  O46  1  0.42743917  0.28671972  0.52481802  1
  O  O47  1  0.93074313  0.29349029  0.52478992  1
  O  O48  1  0.25589338  0.67084289  0.97741357  1
  O  O49  1  0.75205180  0.66826666  0.97503621  1
  O  O50  1  0.07607812  0.47381780  0.97144922  1
  O  O51  1  0.57554314  0.47923622  0.97038799  1
  O  O52  1  0.16524496  0.83747944  0.97318936  1
  O  O53  1  0.66157230  0.83454409  0.97627591  1
  O  O54  1  0.25227397  0.83623500  0.47480214  1
  O  O55  1  0.75758447  0.84024240  0.47716123  1
  O  O56  1  0.16238574  0.48971605  0.47546763  1
  O  O57  1  0.66744732  0.49025206  0.47353217  1
  O  O58  1  0.07595968  0.67082862  0.46894363  1
  O  O59  1  0.57407471  0.67758619  0.46847611  1
  O  O60  1  0.06824362  0.65417727  0.36001022  1
  O  O61  1  0.55342613  0.64543355  0.36088669  1
  O  O62  1  0.24949111  0.84361251  0.35706377  1
  O  O63  1  0.76304697  0.88726331  0.35904685  1
  O  O64  1  0.17227629  0.49744798  0.35636102  1
  O  O65  1  0.66862596  0.46138006  0.35419216  1
  O  O66  1  0.05581526  0.46733489  0.86417033  1
  O  O67  1  0.56408903  0.47818999  0.86173083  1
  O  O68  1  0.17108647  0.87551873  0.85492611  1
  O  O69  1  0.67246419  0.84716571  0.85721119  1
  O  O70  1  0.26178479  0.63965626  0.85979407  1
  O  O71  1  0.74884867  0.65466874  0.85752621  1
  O  O72  1  0.02311337  0.82144002  0.41655142  1
  O  O73  1  0.51266300  0.81976834  0.41867870  1
  O  O74  1  0.39611635  0.95940596  0.41670558  1
  O  O75  1  0.90367142  0.96164474  0.42359707  1
  O  O76  1  0.08679698  0.20024445  0.42046950  1
  O  O77  1  0.58034740  0.18928162  0.42325664  1
  O  O78  1  0.01665226  0.21096359  0.92107827  1
  O  O79  1  0.52217306  0.22079302  0.91874204  1
  O  O80  1  0.08096714  0.97177837  0.92313775  1
  O  O81  1  0.58614225  0.97201838  0.92090692  1
  O  O82  1  0.40285851  0.84760471  0.92478463  1
  O  O83  1  0.89654900  0.83456600  0.91748142  1
  O  O84  1  0.50086175  0.16128544  0.59071917  1
  O  O85  1  0.99627219  0.17302206  0.59576381  1
  O  O86  1  0.08172826  0.00163939  0.59556859  1
  O  O87  1  0.58735712  0.00608259  0.59906750  1
  O  O88  1  0.40483774  0.81370082  0.58564938  1
  O  O89  1  0.91263324  0.82785128  0.59866901  1
  O  O90  1  0.49422410  0.82185900  0.09591248  1
  O  O91  1  0.00118956  0.84000095  0.08946993  1
  O  O92  1  0.40456099  0.00064322  0.09289066  1
  O  O93  1  0.90519717  0.99710674  0.08560275  1
  O  O94  1  0.08828061  0.17026538  0.09838872  1
  O  O95  1  0.57792519  0.16235944  0.09610545  1
  O  O96  1  0.34268396  0.16392784  0.74635450  1
  O  O97  1  0.83929066  0.17512161  0.73973768  1
  O  O98  1  0.24007797  0.32780557  0.74101305  1
  O  O99  1  0.74668048  0.32189339  0.73584389  1
  O  O100  1  0.42163610  0.52555514  0.74204727  1
  O  O101  1  0.92082336  0.52346581  0.74195272  1
  O  O102  1  0.33942415  0.51063149  0.23854438  1
  O  O103  1  0.84231245  0.52178343  0.24541429  1
  O  O104  1  0.41968409  0.31631105  0.23976679  1
  O  O105  1  0.92134223  0.31692422  0.24175926  1
  O  O106  1  0.24855320  0.17071689  0.23145881  1
  O  O107  1  0.74118830  0.15116648  0.24105519  1
  O  O108  1  0.32850587  0.50756777  0.92270434  1
  O  O109  1  0.81441667  0.49639263  0.91525091  1
  O  O110  1  0.44062610  0.36089877  0.92235910  1
  O  O111  1  0.93681605  0.35437296  0.92743742  1
  O  O112  1  0.25322894  0.14188828  0.92065479  1
  O  O113  1  0.75475487  0.13062896  0.91665211  1
  O  O114  1  0.31365256  0.13267605  0.41450324  1
  O  O115  1  0.82839513  0.15170508  0.42300543  1
  O  O116  1  0.25531253  0.38005080  0.41559312  1
  O  O117  1  0.75228589  0.35794805  0.41799837  1
  O  O118  1  0.43457364  0.51650891  0.42412514  1
  O  O119  1  0.94296136  0.51588767  0.41810672  1
  O  O120  1  0.17832566  0.51459127  0.07982427  1
  O  O121  1  0.66510546  0.49943239  0.07170008  1
  O  O122  1  0.08635439  0.67784252  0.07183810  1
  O  O123  1  0.58127785  0.66741979  0.08098413  1
  O  O124  1  0.25489102  0.86545981  0.08237759  1
  O  O125  1  0.75465085  0.84894232  0.07718411  1
  O  O126  1  0.16539284  0.83112166  0.57108914  1
  O  O127  1  0.67758900  0.84286104  0.57957068  1
  O  O128  1  0.25412501  0.65899854  0.57752787  1
  O  O129  1  0.75179184  0.64643344  0.58117472  1
  O  O130  1  0.08104551  0.49852746  0.57911769  1
  O  O131  1  0.58508368  0.49257609  0.57144916  1
  O  O132  1  0.15647552  0.82580321  0.25584353  1
  O  O133  1  0.64052557  0.81282890  0.24358834  1
  O  O134  1  0.25909251  0.67731437  0.25260121  1
  O  O135  1  0.76409162  0.70066916  0.24292437  1
  O  O136  1  0.08921148  0.48770680  0.25374571  1
  O  O137  1  0.57042835  0.45670139  0.24579891  1
  O  O138  1  0.14025550  0.46549541  0.74321282  1
  O  O139  1  0.65651412  0.48922457  0.75668788  1
  O  O140  1  0.07146396  0.68324767  0.74731297  1
  O  O141  1  0.58962584  0.69163568  0.75435860  1
  O  O142  1  0.26396807  0.82792853  0.74258616  1
  O  O143  1  0.75994644  0.84412348  0.75339357  1
loop_
_geom_bond_atom_site_label_1
_geom_bond_atom_site_label_2
_geom_bond_distance
_geom_bond_site_symmetry_2
Na0 O107 2.446975 1_555
Na0 O105 2.457810 1_555
Na0 O135 2.553023 1_545
Na0 O63 2.587208 1_545
Na0 O33 2.878056 1_555
Na0 O5 2.927706 1_555
Na0 O133 2.969007 1_545
Na1 O136 2.461476 1_555
Na1 O134 2.595148 1_555
Na1 O64 2.654448 1_555
Na1 O102 2.655301 1_555
Na1 O0 2.669673 1_555
Na1 O106 2.680952 1_555
Na1 O20 2.795510 1_555
Na1 O34 2.959208 1_555
Na2 O103 2.407400 1_555
Na2 O65 2.558269 1_555
Na2 O107 2.590774 1_555
Na2 O35 2.653783 1_555
Na2 O135 2.664202 1_555
Na2 O137 2.751905 1_555
Na3 O105 2.500379 1_455
Na3 O132 2.537345 1_555
Na3 O31 2.543794 1_455
Na3 O136 2.567259 1_555
Na3 O103 2.572342 1_455
Na3 O60 2.805739 1_555
Na3 O22 2.970888 1_555
Na4 O133 2.336304 1_555
Na4 O102 2.526415 1_555
Na4 O104 2.566180 1_555
Na4 O137 2.638070 1_555
Na4 O30 2.679576 1_555
Na4 O61 2.783232 1_555
Na4 O2 2.804118 1_555
Na5 O98 2.438602 1_555
Na5 O100 2.466087 1_555
Na5 O142 2.550775 1_555
Na5 O70 2.689969 1_555
Na5 O28 2.789321 1_555
Na5 O138 2.939980 1_555
Na5 O8 3.000810 1_555
Na6 O138 2.378590 1_655
Na6 O97 2.472835 1_555
Na6 O25 2.485626 1_555
Na6 O101 2.537125 1_555
Na6 O140 2.661066 1_655
Na7 O24 2.491956 1_555
Na7 O100 2.498325 1_555
Na7 O139 2.531419 1_555
Na7 O141 2.567824 1_555
Na7 O96 2.578914 1_555
Na7 O67 2.875042 1_555
Na7 O15 2.915851 1_555
Na8 O96 2.447566 1_555
Na8 O98 2.559711 1_555
Na8 O26 2.585778 1_555
Na8 O68 2.668144 1_545
Na8 O142 2.679831 1_545
Na8 O140 2.724126 1_545
Na9 O97 2.525214 1_555
Na9 O141 2.528262 1_545
Na9 O143 2.541507 1_545
Na9 O99 2.548221 1_555
Na9 O27 2.783033 1_555
Na9 O69 2.796074 1_545
Na9 O17 2.828711 1_545
Na9 O7 2.862735 1_555
Na10 O85 2.404366 1_455
Na10 O130 2.477533 1_555
Na10 O86 2.561415 1_555
Na10 O128 2.757376 1_555
Na10 O42 2.760192 1_555
Na10 O56 2.786515 1_555
Na10 O14 2.874008 1_555
Na11 O84 2.462700 1_555
Na11 O131 2.462989 1_555
Na11 O87 2.578736 1_555
Na11 O129 2.592823 1_555
Na11 O43 2.715601 1_555
Na11 O57 2.810768 1_555
Na11 O15 2.832025 1_555
Na11 O29 2.917478 1_555
Na12 O88 2.490428 1_555
Na12 O84 2.602671 1_565
Na12 O128 2.667680 1_555
Na12 O26 2.679993 1_565
Na12 O12 2.728095 1_555
Na12 O46 2.772267 1_565
Na12 O126 2.806361 1_555
Na12 O54 2.997977 1_555
Na13 O89 2.451608 1_555
Na13 O127 2.522079 1_555
Na13 O129 2.620415 1_555
Na13 O85 2.632876 1_565
Na13 O55 2.750780 1_555
Na13 O13 2.805329 1_555
Na13 O47 2.877289 1_565
Na13 O27 2.897263 1_565
Na14 O91 2.380687 1_555
Na14 O122 2.448141 1_555
Na14 O94 2.528542 1_565
Na14 O124 2.652845 1_555
Na14 O36 2.733452 1_565
Na14 O22 2.774800 1_555
Na14 O52 2.858344 1_554
Na15 O123 2.434135 1_555
Na15 O90 2.510152 1_555
Na15 O53 2.670853 1_554
Na15 O37 2.678426 1_565
Na15 O95 2.699361 1_565
Na15 O125 2.701494 1_555
Na15 O23 2.940261 1_555
Na15 O33 3.033781 1_565
Na16 O120 2.498804 1_555
Na16 O92 2.501181 1_565
Na16 O90 2.601806 1_555
Na16 O124 2.671250 1_555
Na16 O48 2.732492 1_554
Na16 O18 2.793568 1_555
Na16 O38 2.823336 1_555
Na16 O34 2.851815 1_555
Na17 O93 2.481698 1_555
Na17 O91 2.604587 1_655
Na17 O125 2.649707 1_555
Na17 O19 2.678171 1_555
Na17 O35 2.737349 1_555
Na17 O121 2.814110 1_555
Na17 O39 2.821739 1_555
Na17 O49 3.001951 1_554
Na18 O8 2.391463 1_555
Na18 O108 2.418120 1_555
Na18 O81 2.457005 1_555
Na18 O110 2.608627 1_555
Na18 O82 2.610872 1_555
Na18 O38 2.637523 1_556
Na19 O39 2.411164 1_556
Na19 O80 2.418086 1_655
Na19 O83 2.571129 1_555
Na19 O109 2.637744 1_555
Na19 O111 2.672573 1_555
Na19 O9 2.802672 1_555
Na20 O82 2.408596 1_545
Na20 O10 2.410207 1_555
Na20 O112 2.421147 1_555
Na20 O110 2.734736 1_555
Na20 O40 2.842411 1_556
Na20 O79 2.890923 1_555
Na20 O68 3.004917 1_545
Na21 O113 2.318972 1_555
Na21 O83 2.388394 1_545
Na21 O11 2.397160 1_555
Na21 O111 2.686332 1_555
Na21 O78 2.782853 1_655
Na21 O41 2.845705 1_556
Na22 O6 2.478907 1_555
Na22 O112 2.508742 1_555
Na22 O108 2.534080 1_555
Na22 O80 2.621929 1_545
Na22 O78 2.623127 1_555
Na22 O36 2.702844 1_556
Na22 O70 2.960185 1_555
Na23 O7 2.372207 1_555
Na23 O109 2.412984 1_555
Na23 O79 2.473764 1_555
Na23 O81 2.505010 1_545
Na23 O113 2.609512 1_555
Na23 O37 2.723577 1_556
Na24 O46 2.354121 1_555
Na24 O77 2.394029 1_555
Na24 O74 2.648784 1_545
Na24 O118 2.667726 1_555
Na24 O114 2.743399 1_555
Na24 O4 2.947880 1_555
Na25 O115 2.385863 1_555
Na25 O76 2.476255 1_655
Na25 O47 2.509174 1_555
Na25 O5 2.523783 1_555
Na25 O75 2.536742 1_545
Na25 O119 2.553795 1_555
Na26 O114 2.424236 1_555
Na26 O72 2.446157 1_545
Na26 O76 2.462887 1_555
Na26 O0 2.486932 1_555
Na26 O116 2.609478 1_555
Na26 O42 2.625603 1_555
Na27 O117 2.441074 1_555
Na27 O115 2.490686 1_555
Na27 O43 2.515541 1_555
Na27 O77 2.641796 1_555
Na27 O1 2.678901 1_555
Na27 O73 2.692800 1_545
Na28 O116 2.323150 1_555
Na28 O74 2.371147 1_555
Na28 O2 2.549145 1_555
Na28 O118 2.632050 1_555
Na28 O73 2.670132 1_555
Na28 O44 2.738964 1_555
Na29 O45 2.395039 1_555
Na29 O75 2.399129 1_555
Na29 O117 2.453633 1_555
Na29 O3 2.728357 1_555
Na29 O119 2.772227 1_555
Na29 O72 2.878497 1_655
Na30 O75 2.451470 1_555
Na30 O86 2.549495 1_665
Na30 O89 2.584366 1_555
Na30 O76 2.631180 1_665
Na30 O85 2.645163 1_565
Na30 O72 2.722195 1_655
Na31 O84 2.342836 1_555
Na31 O77 2.436709 1_555
Na31 O88 2.537352 1_545
Na31 O87 2.540807 1_555
Na31 O73 2.725052 1_545
Na31 O74 2.799575 1_545
Na32 O91 2.350123 1_555
Na32 O80 2.433000 1_554
Na32 O93 2.538638 1_455
Na32 O94 2.601369 1_565
Na32 O78 2.673898 1_564
Na32 O83 2.712751 1_454
Na33 O82 2.411257 1_544
Na33 O81 2.448145 1_544
Na33 O95 2.592879 1_555
Na33 O79 2.636187 1_554
Na33 O90 2.652148 1_545
Na33 O92 2.756764 1_555
Na34 O96 2.467603 1_555
Na34 O98 2.489055 1_555
Na34 O100 2.543751 1_555
Na34 O112 2.686948 1_555
Na34 O108 2.717535 1_555
Na34 O110 2.956294 1_555
Na35 O99 2.378998 1_555
Na35 O97 2.495810 1_555
Na35 O101 2.569806 1_555
Na35 O109 2.604842 1_555
Na35 O113 2.651627 1_555
Na36 O114 2.414094 1_555
Na36 O116 2.509451 1_555
Na36 O106 2.598738 1_555
Na36 O102 2.724664 1_555
Na36 O104 2.724883 1_555
Na36 O118 2.933919 1_555
Na37 O117 2.505885 1_555
Na37 O115 2.591063 1_555
Na37 O103 2.593728 1_555
Na37 O107 2.598131 1_555
Na37 O105 2.664557 1_555
Na37 O119 2.787389 1_555
Na38 O136 2.390285 1_555
Na38 O120 2.479993 1_555
Na38 O132 2.560152 1_555
Na38 O122 2.576550 1_555
Na38 O134 2.654296 1_555
Na38 O124 2.686797 1_555
Na39 O123 2.452893 1_555
Na39 O135 2.467876 1_555
Na39 O133 2.470850 1_555
Na39 O121 2.535329 1_555
Na39 O137 2.545878 1_555
Na39 O125 2.610942 1_555
Na40 O130 2.448513 1_555
Na40 O138 2.486881 1_555
Na40 O142 2.489509 1_555
Na40 O126 2.533674 1_555
Na40 O140 2.558347 1_555
Na40 O128 2.602639 1_555
Na41 O127 2.442221 1_555
Na41 O141 2.485566 1_555
Na41 O131 2.562789 1_555
Na41 O129 2.575210 1_555
Na41 O139 2.603815 1_555
Na41 O143 2.698277 1_555
O0 Si0 1.626074 1_555
O0 Y0 2.299844 1_555
O1 Si1 1.626638 1_545
O1 Y1 2.151422 1_555
O2 Si2 1.616638 1_555
O2 Y1 2.216751 1_565
O3 Si3 1.623051 1_555
O3 Y0 2.154921 1_665
O4 S0 1.490985 1_555
O4 Y1 2.285237 1_555
O5 Si4 1.620549 1_655
O5 Y0 2.117524 1_655
O6 Si5 1.641857 1_555
O6 Y2 2.144682 1_445
O7 Si6 1.629263 1_555
O7 Y3 2.233863 1_545
O8 Si7 1.627224 1_555
O8 Y3 2.116367 1_555
O9 S1 1.502082 1_555
O9 Y2 2.266065 1_555
O10 Si8 1.632077 1_555
O10 Y3 2.159886 1_545
O11 Si9 1.629008 1_555
O11 Y2 2.188526 1_545
O12 Si8 1.660612 1_565
O12 Ti1 1.908438 1_565
O13 Si9 1.632129 1_565
O13 Ti0 1.930580 1_565
O14 Si5 1.655422 1_555
O14 Ti0 1.891726 1_455
O15 Si6 1.675898 1_555
O15 Ti1 1.837673 1_555
O16 S1 1.458270 1_455
O16 Ti0 2.236463 1_465
O17 Si7 1.666088 1_555
O17 Ti1 1.905841 1_565
O18 Si2 1.635267 1_555
O18 Ti3 1.934678 1_555
O19 Si3 1.673244 1_555
O19 Ti2 1.892881 1_665
O20 Si4 1.675848 1_555
O20 Ti2 1.888646 1_555
O21 S0 1.463256 1_555
O21 Ti3 2.182552 1_545
O22 Si0 1.676024 1_565
O22 Ti2 1.845267 1_565
O23 Si1 1.695363 1_555
O23 Ti3 1.794034 1_555
O24 Si10 1.611315 1_555
O24 Y4 2.157146 1_555
O25 Si11 1.651866 1_555
O25 Ti4 1.959543 1_555
O26 Si12 1.634799 1_555
O26 Y4 2.226602 1_555
O27 Si13 1.697585 1_555
O27 Ti4 1.849065 1_555
O28 S2 1.481091 1_555
O28 Y4 2.354608 1_555
O29 Si14 1.662473 1_555
O29 Ti4 1.877979 1_555
O30 Si15 1.664694 1_555
O30 Ti5 1.927629 1_555
O31 Si16 1.611235 1_555
O31 Y5 2.164742 1_555
O32 S3 1.469445 1_555
O32 Ti5 2.298107 1_555
O33 S4 1.482531 1_555
O33 Y5 2.361257 1_555
O34 Si17 1.709520 1_555
O34 Ti5 1.830333 1_555
O35 Si18 1.627264 1_555
O35 Y5 2.243926 1_555
O36 Si17 1.627189 1_555
O36 Y6 2.157568 1_554
O37 Si18 1.649788 1_555
O37 Y7 2.157525 1_554
O38 Si15 1.614081 1_555
O38 Y6 2.183350 1_554
O39 Si16 1.655354 1_555
O39 Y7 2.217356 1_554
O40 S3 1.484469 1_555
O40 Y6 2.338868 1_554
O41 S4 1.484676 1_555
O41 Y7 2.361079 1_554
O42 Si12 1.647504 1_555
O42 Y8 2.136729 1_555
O43 Si13 1.627056 1_555
O43 Y9 2.189260 1_555
O44 S2 1.482353 1_555
O44 Y8 2.358113 1_555
O45 Si14 1.610280 1_555
O45 Y9 2.205649 1_555
O46 Si10 1.657047 1_555
O46 Y8 2.206510 1_555
O47 Si11 1.613887 1_555
O47 Y9 2.193151 1_555
O48 Si19 1.679478 1_555
O48 Ti6 1.885596 1_556
O49 Si20 1.667202 1_555
O49 Ti7 1.865835 1_556
O50 S5 1.484453 1_555
O50 Ti6 2.098791 1_556
O51 S6 1.498382 1_555
O51 Ti7 2.012351 1_556
O52 Si21 1.686939 1_555
O52 Ti6 1.863027 1_556
O53 Si22 1.673341 1_555
O53 Ti7 1.883489 1_556
O54 Si23 1.652379 1_555
O54 Ti8 1.892559 1_555
O55 Si24 1.670132 1_555
O55 Ti9 1.902155 1_555
O56 Si25 1.662281 1_555
O56 Ti8 1.890210 1_555
O57 Si26 1.665936 1_555
O57 Ti9 1.906330 1_555
O58 S7 1.496177 1_555
O58 Ti8 2.014771 1_555
O59 S8 1.461180 1_555
O59 Ti9 2.399765 1_555
O60 S7 1.468348 1_555
O60 Ti10 2.288027 1_555
O61 S8 1.489704 1_555
O61 Y10 2.340639 1_555
O62 Si23 1.656762 1_555
O62 Ti10 1.854598 1_555
O63 Si24 1.640986 1_555
O63 Y10 2.103152 1_555
O64 Si25 1.666746 1_555
O64 Ti10 1.912584 1_555
O65 Si26 1.634325 1_555
O65 Y10 2.141866 1_555
O66 S5 1.476225 1_555
O66 Y11 2.341470 1_555
O67 S6 1.463623 1_555
O67 Ti11 2.404283 1_555
O68 Si21 1.623303 1_555
O68 Y11 2.161033 1_555
O69 Si22 1.651150 1_555
O69 Ti11 1.933552 1_555
O70 Si19 1.631621 1_555
O70 Y11 2.117268 1_555
O71 Si20 1.643229 1_555
O71 Ti11 1.882398 1_555
O72 S7 1.489326 1_555
O72 Y0 2.425411 1_565
O73 S8 1.501439 1_555
O73 Y1 2.378386 1_565
O74 Si23 1.631282 1_555
O74 Y1 2.262971 1_565
O75 Si24 1.644915 1_555
O75 Y0 2.312563 1_665
O76 Si25 1.631094 1_555
O76 Y0 2.292337 1_555
O77 Si26 1.656632 1_555
O77 Y1 2.288282 1_555
O78 S5 1.489788 1_555
O78 Y2 2.449759 1_445
O79 S6 1.489354 1_555
O79 Y3 2.454947 1_545
O80 Si21 1.648471 1_555
O80 Y2 2.345448 1_455
O81 Si22 1.634877 1_555
O81 Y3 2.314171 1_555
O82 Si19 1.635791 1_555
O82 Y3 2.356429 1_555
O83 Si20 1.634669 1_555
O83 Y2 2.290723 1_555
O84 Si10 1.664457 1_555
O84 Ti1 2.072486 1_555
O85 Si11 1.676278 1_555
O85 Ti0 1.890884 1_555
O86 Si12 1.635806 1_555
O86 Ti0 1.969500 1_455
O87 Si13 1.635654 1_555
O87 Ti1 1.949958 1_555
O88 S2 1.466629 1_555
O88 Ti1 2.565409 1_565
O89 Si14 1.624710 1_555
O89 Ti0 1.952813 1_565
O90 Si15 1.687372 1_555
O90 Ti3 1.894340 1_555
O91 Si16 1.659382 1_455
O91 Ti2 2.102723 1_565
O92 S3 1.479120 1_555
O92 Ti3 2.284737 1_545
O93 S4 1.456933 1_565
O93 Ti2 2.542593 1_665
O94 Si17 1.622918 1_555
O94 Ti2 1.971748 1_555
O95 Si18 1.656307 1_555
O95 Ti3 1.923309 1_545
O96 Si8 1.633174 1_555
O96 Y4 2.190407 1_555
O97 Si9 1.652251 1_555
O97 Ti4 2.057804 1_555
O98 Si5 1.631059 1_555
O98 Y4 2.264800 1_555
O99 Si6 1.640137 1_555
O99 Ti4 1.988426 1_555
O100 Si7 1.620383 1_555
O100 Y4 2.238967 1_555
O101 S1 1.481402 1_555
O101 Ti4 2.359385 1_555
O102 Si2 1.693249 1_555
O102 Ti5 1.875840 1_555
O103 Si3 1.630310 1_555
O103 Y5 2.174430 1_555
O104 S0 1.492269 1_555
O104 Ti5 2.303207 1_555
O105 Si4 1.617883 1_655
O105 Y5 2.219693 1_555
O106 Si0 1.667604 1_555
O106 Ti5 1.919420 1_555
O107 Si1 1.615100 1_545
O107 Y5 2.258839 1_555
O108 Si19 1.636371 1_555
O108 Y6 2.166666 1_555
O109 Si20 1.646267 1_555
O109 Y7 2.219140 1_555
O110 S6 1.487578 1_555
O110 Y6 2.424137 1_555
O111 S5 1.487619 1_655
O111 Y7 2.367064 1_555
O112 Si21 1.638784 1_545
O112 Y6 2.249876 1_555
O113 Si22 1.646827 1_545
O113 Y7 2.281165 1_555
O114 Si23 1.643170 1_545
O114 Y8 2.233979 1_555
O115 Si24 1.635318 1_545
O115 Y9 2.242646 1_555
O116 Si25 1.646311 1_555
O116 Y8 2.312646 1_555
O117 Si26 1.641271 1_555
O117 Y9 2.285154 1_555
O118 S8 1.496577 1_555
O118 Y8 2.360161 1_555
O119 S7 1.483618 1_655
O119 Y9 2.500686 1_555
O120 Si17 1.636869 1_555
O120 Ti6 2.068498 1_555
O121 Si18 1.650973 1_555
O121 Ti7 1.913097 1_555
O122 Si16 1.665184 1_455
O122 Ti6 1.922366 1_555
O123 Si15 1.638432 1_555
O123 Ti7 2.087767 1_555
O124 S3 1.517758 1_565
O124 Ti6 2.202928 1_555
O125 S4 1.521726 1_565
O125 Ti7 2.139647 1_555
O126 Si12 1.654108 1_565
O126 Ti8 1.904834 1_555
O127 Si13 1.632132 1_565
O127 Ti9 2.062505 1_555
O128 S2 1.514954 1_555
O128 Ti8 2.148577 1_555
O129 Si14 1.681170 1_555
O129 Ti9 1.899078 1_555
O130 Si11 1.650519 1_455
O130 Ti8 2.026760 1_555
O131 Si10 1.645674 1_555
O131 Ti9 1.936424 1_555
O132 Si0 1.635441 1_565
O132 Ti10 2.018596 1_555
O133 Si1 1.629734 1_555
O133 Y10 2.279417 1_555
O134 Si2 1.642703 1_555
O134 Ti10 1.903242 1_555
O135 Si3 1.647700 1_555
O135 Y10 2.226059 1_555
O136 Si4 1.657997 1_555
O136 Ti10 2.069976 1_555
O137 S0 1.497739 1_555
O137 Y10 2.489484 1_555
O138 Si5 1.638456 1_555
O138 Y11 2.253950 1_555
O139 Si6 1.645963 1_555
O139 Ti11 1.989275 1_555
O140 S1 1.503709 1_455
O140 Y11 2.417209 1_555
O141 Si7 1.661185 1_555
O141 Ti11 2.040071 1_555
O142 Si8 1.647349 1_565
O142 Y11 2.206925 1_555
O143 Si9 1.665638 1_565
O143 Ti11 1.857873 1_555
