# generated using pymatgen
data_BiAsO4
_symmetry_space_group_name_H-M   'P 1'
_cell_length_a   7.17354141
_cell_length_b   6.74462747
_cell_length_c   8.29296855
_cell_angle_alpha   53.29390940
_cell_angle_beta   90.00000000
_cell_angle_gamma   90.00000000
_symmetry_Int_Tables_number   1
_chemical_formula_structural   BiAsO4
_chemical_formula_sum   'Bi4 As4 O16'
_cell_volume   321.67702203
_cell_formula_units_Z   4
loop_
 _symmetry_equiv_pos_site_id
 _symmetry_equiv_pos_as_xyz
  1  'x, y, z'
loop_
 _atom_site_type_symbol
 _atom_site_label
 _atom_site_symmetry_multiplicity
 _atom_site_fract_x
 _atom_site_fract_y
 _atom_site_fract_z
 _atom_site_occupancy
  Bi  Bi0  1  0.63535878  0.19761264  0.21916096  1
  Bi  Bi1  1  0.13535878  0.80238736  0.28083904  1
  Bi  Bi2  1  0.36464122  0.80238736  0.78083904  1
  Bi  Bi3  1  0.86464122  0.19761264  0.71916096  1
  As  As0  1  0.66224406  0.68780690  0.20072813  1
  As  As1  1  0.16224406  0.31219310  0.29927187  1
  As  As2  1  0.33775594  0.31219310  0.79927187  1
  As  As3  1  0.83775594  0.68780690  0.70072813  1
  O  O0  1  0.70773926  0.38734654  0.39130431  1
  O  O1  1  0.20773926  0.61265346  0.10869569  1
  O  O2  1  0.29226074  0.61265346  0.60869569  1
  O  O3  1  0.79226074  0.38734654  0.89130431  1
  O  O4  1  0.60251028  0.63965448  0.02529223  1
  O  O5  1  0.10251028  0.36034552  0.47470777  1
  O  O6  1  0.39748972  0.36034552  0.97470777  1
  O  O7  1  0.89748972  0.63965448  0.52529223  1
  O  O8  1  0.00007466  0.83841453  0.73666932  1
  O  O9  1  0.50007466  0.16158547  0.76333068  1
  O  O10  1  -0.00007466  0.16158547  0.26333068  1
  O  O11  1  0.49992534  0.83841453  0.23666932  1
  O  O12  1  0.64431470  0.86995106  0.61006877  1
  O  O13  1  0.14431470  0.13004894  0.88993123  1
  O  O14  1  0.35568530  0.13004894  0.38993123  1
  O  O15  1  0.85568530  0.86995106  0.11006877  1
loop_
_geom_bond_atom_site_label_1
_geom_bond_atom_site_label_2
_geom_bond_distance
_geom_bond_site_symmetry_2
Bi0 O14 2.338125 1_555
Bi0 O6 2.359277 1_554
Bi0 O4 2.408132 1_555
Bi0 O0 2.475687 1_555
Bi0 O3 2.477419 1_554
Bi0 O11 2.532535 1_545
Bi0 O12 2.613995 1_545
Bi0 O10 2.631779 1_655
Bi1 O15 2.338125 1_455
Bi1 O7 2.359277 1_455
Bi1 O5 2.408132 1_555
Bi1 O1 2.475687 1_555
Bi1 O2 2.477419 1_555
Bi1 O10 2.532535 1_565
Bi1 O13 2.613995 1_564
Bi1 O11 2.631779 1_555
Bi2 O12 2.338125 1_555
Bi2 O4 2.359277 1_556
Bi2 O6 2.408132 1_555
Bi2 O2 2.475687 1_555
Bi2 O1 2.477419 1_556
Bi2 O9 2.532535 1_565
Bi2 O14 2.613995 1_565
Bi2 O8 2.631779 1_555
Bi3 O13 2.338125 1_655
Bi3 O5 2.359277 1_655
Bi3 O7 2.408132 1_555
Bi3 O3 2.475687 1_555
Bi3 O0 2.477419 1_555
Bi3 O8 2.532535 1_645
Bi3 O15 2.613995 1_546
Bi3 O9 2.631779 1_555
As0 O11 1.684765 1_555
As0 O0 1.697747 1_555
As0 O15 1.701743 1_555
As0 O4 1.723548 1_555
As1 O10 1.684765 1_555
As1 O1 1.697747 1_555
As1 O14 1.701743 1_555
As1 O5 1.723548 1_555
As2 O9 1.684765 1_555
As2 O2 1.697747 1_555
As2 O13 1.701743 1_555
As2 O6 1.723548 1_555
As3 O8 1.684765 1_655
As3 O3 1.697747 1_555
As3 O12 1.701743 1_555
As3 O7 1.723548 1_555
