# generated using pymatgen
data_NaHfSn(PO4)3
_symmetry_space_group_name_H-M   'P 1'
_cell_length_a   8.77267906
_cell_length_b   8.77267878
_cell_length_c   23.05116639
_cell_angle_alpha   90.00000000
_cell_angle_beta   90.00000000
_cell_angle_gamma   120.00000106
_symmetry_Int_Tables_number   1
_chemical_formula_structural   NaHfSn(PO4)3
_chemical_formula_sum   'Na6 Hf6 Sn6 P18 O72'
_cell_volume   1536.34234740
_cell_formula_units_Z   6
loop_
 _symmetry_equiv_pos_site_id
 _symmetry_equiv_pos_as_xyz
  1  'x, y, z'
loop_
 _atom_site_type_symbol
 _atom_site_label
 _atom_site_symmetry_multiplicity
 _atom_site_fract_x
 _atom_site_fract_y
 _atom_site_fract_z
 _atom_site_occupancy
  Na  Na0  1  0.00000000  0.00000000  0.50050866  1
  Na  Na1  1  0.00000000  0.00000000  0.00046132  1
  Na  Na2  1  0.66666700  0.33333300  0.83295360  1
  Na  Na3  1  0.66666700  0.33333300  0.33379002  1
  Na  Na4  1  0.33333300  0.66666700  0.16709756  1
  Na  Na5  1  0.33333300  0.66666700  0.66624599  1
  Hf  Hf0  1  0.00000000  0.00000000  0.35436255  1
  Hf  Hf1  1  0.00000000  0.00000000  0.85312443  1
  Hf  Hf2  1  0.66666700  0.33333300  0.18705063  1
  Hf  Hf3  1  0.66666700  0.33333300  0.98065930  1
  Hf  Hf4  1  0.33333300  0.66666700  0.02025955  1
  Hf  Hf5  1  0.33333300  0.66666700  0.81281629  1
  Sn  Sn0  1  0.00000000  0.00000000  0.64734087  1
  Sn  Sn1  1  0.00000000  0.00000000  0.14836287  1
  Sn  Sn2  1  0.66666700  0.33333300  0.68535437  1
  Sn  Sn3  1  0.66666700  0.33333300  0.48118915  1
  Sn  Sn4  1  0.33333300  0.66666700  0.51965133  1
  Sn  Sn5  1  0.33333300  0.66666700  0.31451212  1
  P  P0  1  0.28876165  0.99773958  0.25038358  1
  P  P1  1  0.70897793  0.71123835  0.25038358  1
  P  P2  1  0.00226042  0.29102207  0.25038358  1
  P  P3  1  0.29123265  0.28875108  0.74906953  1
  P  P4  1  0.99751843  0.70876735  0.74906953  1
  P  P5  1  0.71124892  0.00248157  0.74906953  1
  P  P6  1  0.95698987  0.33330311  0.58331813  1
  P  P7  1  0.37631424  0.04301013  0.58331813  1
  P  P8  1  0.66669689  0.62368576  0.58331813  1
  P  P9  1  0.95676905  0.62583355  0.08395984  1
  P  P10  1  0.66906549  0.04323095  0.08395984  1
  P  P11  1  0.37416645  0.33093451  0.08395984  1
  P  P12  1  0.62301923  0.66653770  0.91665890  1
  P  P13  1  0.04351747  0.37698077  0.91665890  1
  P  P14  1  0.33346230  0.95648253  0.91665890  1
  P  P15  1  0.62076686  0.95659984  0.41731626  1
  P  P16  1  0.33583198  0.37923314  0.41731626  1
  P  P17  1  0.04340016  0.66416802  0.41731626  1
  O  O0  1  0.20522357  0.02883704  0.30428757  1
  O  O1  1  0.82361348  0.79477643  0.30428757  1
  O  O2  1  0.97116296  0.17638652  0.30428757  1
  O  O3  1  0.20737658  0.17601609  0.80332695  1
  O  O4  1  0.96863951  0.79262342  0.80332695  1
  O  O5  1  0.82398391  0.03136049  0.80332695  1
  O  O6  1  0.78796232  0.96594880  0.69412543  1
  O  O7  1  0.17798648  0.21203768  0.69412543  1
  O  O8  1  0.03405120  0.82201352  0.69412543  1
  O  O9  1  0.78640207  0.82211861  0.19502365  1
  O  O10  1  0.03571654  0.21359793  0.19502365  1
  O  O11  1  0.17788139  0.96428346  0.19502365  1
  O  O12  1  0.87993070  0.36838768  0.63829219  1
  O  O13  1  0.48845798  0.12006930  0.63829219  1
  O  O14  1  0.63161232  0.51154202  0.63829219  1
  O  O15  1  0.87282368  0.51097949  0.13788273  1
  O  O16  1  0.63815682  0.12717632  0.13788273  1
  O  O17  1  0.48902051  0.36184318  0.13788273  1
  O  O18  1  0.45868453  0.30246514  0.02962102  1
  O  O19  1  0.84378160  0.54131547  0.02962102  1
  O  O20  1  0.69753486  0.15621840  0.02962102  1
  O  O21  1  0.45365199  0.15525329  0.52825105  1
  O  O22  1  0.70160230  0.54634801  0.52825105  1
  O  O23  1  0.84474671  0.29839770  0.52825105  1
  O  O24  1  0.53939830  0.69629180  0.97084573  1
  O  O25  1  0.15689250  0.46060170  0.97084573  1
  O  O26  1  0.30370820  0.84310750  0.97084573  1
  O  O27  1  0.54478486  0.84369795  0.47217188  1
  O  O28  1  0.29891209  0.45521514  0.47217188  1
  O  O29  1  0.15630205  0.70108791  0.47217188  1
  O  O30  1  0.12046916  0.63053168  0.36193484  1
  O  O31  1  0.51006151  0.87953084  0.36193484  1
  O  O32  1  0.36946832  0.48993849  0.36193484  1
  O  O33  1  0.12759287  0.49041734  0.86237647  1
  O  O34  1  0.36282348  0.87240713  0.86237647  1
  O  O35  1  0.50958266  0.63717652  0.86237647  1
  O  O36  1  0.02402611  0.82858741  0.40991604  1
  O  O37  1  0.80456131  0.97597389  0.40991604  1
  O  O38  1  0.17141259  0.19543869  0.40991604  1
  O  O39  1  0.02399258  0.19329844  0.90955827  1
  O  O40  1  0.16930586  0.97600742  0.90955827  1
  O  O41  1  0.80670156  0.83069414  0.90955827  1
  O  O42  1  0.97591480  0.16725070  0.58936553  1
  O  O43  1  0.19133590  0.02408520  0.58936553  1
  O  O44  1  0.83274930  0.80866410  0.58936553  1
  O  O45  1  0.97553288  0.81049091  0.08969991  1
  O  O46  1  0.83495803  0.02446712  0.08969991  1
  O  O47  1  0.18950909  0.16504197  0.08969991  1
  O  O48  1  0.69201285  0.16839052  0.74362527  1
  O  O49  1  0.47637867  0.30798715  0.74362527  1
  O  O50  1  0.83160948  0.52362133  0.74362527  1
  O  O51  1  0.69036529  0.52789161  0.24326236  1
  O  O52  1  0.83752732  0.30963471  0.24326236  1
  O  O53  1  0.47210839  0.16247268  0.24326236  1
  O  O54  1  0.64272546  0.50255349  0.92371534  1
  O  O55  1  0.85982903  0.35727454  0.92371534  1
  O  O56  1  0.49744651  0.14017097  0.92371534  1
  O  O57  1  0.64167221  0.14251238  0.42310290  1
  O  O58  1  0.50084118  0.35832779  0.42310290  1
  O  O59  1  0.85748762  0.49915882  0.42310290  1
  O  O60  1  0.35615081  0.49576471  0.07661745  1
  O  O61  1  0.13961290  0.64384919  0.07661745  1
  O  O62  1  0.50423529  0.86038710  0.07661745  1
  O  O63  1  0.35745787  0.85803956  0.57722188  1
  O  O64  1  0.50058069  0.64254213  0.57722188  1
  O  O65  1  0.14196044  0.49941931  0.57722188  1
  O  O66  1  0.30921273  0.83270422  0.25650163  1
  O  O67  1  0.52349049  0.69078727  0.25650163  1
  O  O68  1  0.16729578  0.47650951  0.25650163  1
  O  O69  1  0.31030651  0.47221505  0.75665414  1
  O  O70  1  0.16190754  0.68969349  0.75665414  1
  O  O71  1  0.52778495  0.83809246  0.75665414  1
loop_
_geom_bond_atom_site_label_1
_geom_bond_atom_site_label_2
_geom_bond_distance
_geom_bond_site_symmetry_2
Na0 O44 2.588975 1_445
Na0 O42 2.588975 1_455
Na0 O43 2.588975 1_555
Na0 O38 2.642628 1_555
Na0 O37 2.642628 1_445
Na0 O36 2.642628 1_545
Na1 O45 2.585462 1_445
Na1 O47 2.585462 1_555
Na1 O46 2.585462 1_455
Na1 O39 2.636992 1_554
Na1 O41 2.636992 1_444
Na1 O40 2.636992 1_544
Na2 O50 2.589389 1_555
Na2 O48 2.589389 1_555
Na2 O49 2.589389 1_555
Na2 O56 2.633790 1_555
Na2 O54 2.633790 1_555
Na2 O55 2.633790 1_555
Na3 O58 2.592651 1_555
Na3 O59 2.592651 1_555
Na3 O57 2.592651 1_555
Na3 O51 2.637451 1_555
Na3 O53 2.637451 1_555
Na3 O52 2.637451 1_555
Na4 O68 2.592648 1_555
Na4 O66 2.592648 1_555
Na4 O67 2.592648 1_555
Na4 O62 2.634013 1_555
Na4 O60 2.634013 1_555
Na4 O61 2.634013 1_555
Na5 O63 2.592136 1_555
Na5 O65 2.592136 1_555
Na5 O64 2.592136 1_555
Na5 O69 2.636152 1_555
Na5 O71 2.636152 1_555
Na5 O70 2.636152 1_555
Hf0 O2 2.045048 1_455
Hf0 O1 2.045048 1_445
Hf0 O0 2.045048 1_555
Hf0 O38 2.064582 1_555
Hf0 O37 2.064582 1_445
Hf0 O36 2.064582 1_545
Hf1 O4 2.050000 1_445
Hf1 O3 2.050000 1_555
Hf1 O5 2.050000 1_455
Hf1 O39 2.062810 1_555
Hf1 O41 2.062810 1_445
Hf1 O40 2.062810 1_545
Hf2 O17 2.040981 1_555
Hf2 O15 2.040981 1_555
Hf2 O16 2.040981 1_555
Hf2 O51 2.068938 1_555
Hf2 O53 2.068938 1_555
Hf2 O52 2.068938 1_555
Hf3 O20 2.045012 1_556
Hf3 O19 2.045012 1_556
Hf3 O18 2.045012 1_556
Hf3 O56 2.069464 1_555
Hf3 O54 2.069464 1_555
Hf3 O55 2.069464 1_555
Hf4 O25 2.040367 1_554
Hf4 O26 2.040367 1_554
Hf4 O24 2.040367 1_554
Hf4 O62 2.067776 1_555
Hf4 O60 2.067776 1_555
Hf4 O61 2.067776 1_555
Hf5 O34 2.040281 1_555
Hf5 O33 2.040281 1_555
Hf5 O35 2.040281 1_555
Hf5 O69 2.069344 1_555
Hf5 O71 2.069344 1_555
Hf5 O70 2.069344 1_555
O0 P0 1.534717 1_545
O1 P1 1.534717 1_555
O2 P2 1.534717 1_655
O3 P3 1.534916 1_555
O4 P4 1.534916 1_555
O5 P5 1.534916 1_555
O6 P5 1.541230 1_565
O6 Sn0 2.038803 1_665
O7 P3 1.541230 1_555
O7 Sn0 2.038803 1_555
O8 P4 1.541230 1_455
O8 Sn0 2.038803 1_565
O9 P1 1.541197 1_555
O9 Sn1 2.044299 1_665
O10 P2 1.541197 1_555
O10 Sn1 2.044299 1_555
O11 P0 1.541197 1_555
O11 Sn1 2.044299 1_565
O12 P6 1.538062 1_555
O12 Sn2 2.048498 1_555
O13 P7 1.538062 1_555
O13 Sn2 2.048498 1_555
O14 P8 1.538062 1_555
O14 Sn2 2.048498 1_555
O15 P9 1.536406 1_555
O16 P10 1.536406 1_555
O17 P11 1.536406 1_555
O18 P11 1.538260 1_555
O19 P9 1.538260 1_555
O20 P10 1.538260 1_555
O21 P7 1.540488 1_555
O21 Sn3 2.046987 1_555
O22 P8 1.540488 1_555
O22 Sn3 2.046987 1_555
O23 P6 1.540488 1_555
O23 Sn3 2.046987 1_555
O24 P12 1.535555 1_555
O25 P13 1.535555 1_555
O26 P14 1.535555 1_555
O27 P15 1.537540 1_555
O27 Sn4 2.042033 1_555
O28 P16 1.537540 1_555
O28 Sn4 2.042033 1_555
O29 P17 1.537540 1_555
O29 Sn4 2.042033 1_555
O30 P17 1.540589 1_555
O30 Sn5 2.047103 1_555
O31 P15 1.540589 1_555
O31 Sn5 2.047103 1_555
O32 P16 1.540589 1_555
O32 Sn5 2.047102 1_555
O33 P13 1.538185 1_555
O34 P14 1.538185 1_555
O35 P12 1.538185 1_555
O36 P17 1.543908 1_555
O37 P15 1.543917 1_555
O38 P16 1.543913 1_555
O39 P13 1.541651 1_555
O40 P14 1.541642 1_555
O41 P12 1.541647 1_555
O42 P6 1.552704 1_555
O42 Sn0 2.072053 1_655
O43 P7 1.552713 1_555
O43 Sn0 2.072053 1_555
O44 P8 1.552709 1_555
O44 Sn0 2.072053 1_665
O45 P9 1.549888 1_555
O45 Sn1 2.069232 1_665
O46 P10 1.549879 1_555
O46 Sn1 2.069232 1_655
O47 P11 1.549884 1_555
O47 Sn1 2.069232 1_555
O48 P5 1.551844 1_555
O48 Sn2 2.066197 1_555
O49 P3 1.551853 1_555
O49 Sn2 2.066197 1_555
O50 P4 1.551849 1_555
O50 Sn2 2.066197 1_555
O51 P1 1.542097 1_555
O52 P2 1.542088 1_655
O53 P0 1.542093 1_545
O54 P12 1.540959 1_555
O55 P13 1.540942 1_655
O56 P14 1.540949 1_545
O57 P15 1.553164 1_545
O57 Sn3 2.067879 1_555
O58 P16 1.553181 1_555
O58 Sn3 2.067879 1_555
O59 P17 1.553171 1_655
O59 Sn3 2.067879 1_555
O60 P11 1.540481 1_555
O61 P9 1.540464 1_455
O62 P10 1.540471 1_565
O63 P7 1.552997 1_565
O63 Sn4 2.066187 1_555
O64 P8 1.553014 1_555
O64 Sn4 2.066187 1_555
O65 P6 1.553004 1_455
O65 Sn4 2.066187 1_555
O66 P0 1.551760 1_555
O66 Sn5 2.064649 1_555
O67 P1 1.551769 1_555
O67 Sn5 2.064649 1_555
O68 P2 1.551765 1_555
O68 Sn5 2.064649 1_555
O69 P3 1.542612 1_555
O70 P4 1.542603 1_455
O71 P5 1.542608 1_565
