# generated using pymatgen
data_Tl2Au4S3
_symmetry_space_group_name_H-M   'P 1'
_cell_length_a   4.79702799
_cell_length_b   7.58303825
_cell_length_c   12.17770022
_cell_angle_alpha   90.00000000
_cell_angle_beta   90.00000000
_cell_angle_gamma   90.00000000
_symmetry_Int_Tables_number   1
_chemical_formula_structural   Tl2Au4S3
_chemical_formula_sum   'Tl4 Au8 S6'
_cell_volume   442.97659232
_cell_formula_units_Z   2
loop_
 _symmetry_equiv_pos_site_id
 _symmetry_equiv_pos_as_xyz
  1  'x, y, z'
loop_
 _atom_site_type_symbol
 _atom_site_label
 _atom_site_symmetry_multiplicity
 _atom_site_fract_x
 _atom_site_fract_y
 _atom_site_fract_z
 _atom_site_occupancy
  Tl  Tl0  1  0.73556014  0.02636829  0.75000000  1
  Tl  Tl1  1  0.73556014  0.47363171  0.75000000  1
  Tl  Tl2  1  0.26443986  0.97363171  0.25000000  1
  Tl  Tl3  1  0.26443986  0.52636829  0.25000000  1
  Au  Au0  1  -0.00000000  0.50000000  0.00000000  1
  Au  Au1  1  -0.00000000  0.00000000  0.00000000  1
  Au  Au2  1  -0.00000000  0.00000000  0.50000000  1
  Au  Au3  1  0.55447576  0.25000000  0.40785263  1
  Au  Au4  1  0.44552424  0.75000000  0.59214737  1
  Au  Au5  1  0.55447576  0.25000000  0.09214737  1
  Au  Au6  1  -0.00000000  0.50000000  0.50000000  1
  Au  Au7  1  0.44552424  0.75000000  0.90785263  1
  S  S0  1  0.17479513  0.75000000  0.75000000  1
  S  S1  1  0.75209384  0.75000000  0.44340010  1
  S  S2  1  0.75209384  0.75000000  0.05659990  1
  S  S3  1  0.24790616  0.25000000  0.94340010  1
  S  S4  1  0.82520487  0.25000000  0.25000000  1
  S  S5  1  0.24790616  0.25000000  0.55659990  1
loop_
_geom_bond_atom_site_label_1
_geom_bond_atom_site_label_2
_geom_bond_distance
_geom_bond_site_symmetry_2
Au0 S2 2.341625 1_455
Au0 S3 2.341625 1_554
Au0 Au5 3.069316 1_455
Au0 Au7 3.069316 1_554
Au0 Tl3 3.304188 1_555
Au0 Tl1 3.304188 1_454
Au1 S2 2.341625 1_445
Au1 S3 2.341625 1_554
Au1 Au5 3.069316 1_455
Au1 Au7 3.069316 1_544
Au1 Tl2 3.304188 1_545
Au1 Tl0 3.304188 1_454
Au2 S5 2.341625 1_555
Au2 S1 2.341625 1_445
Au2 Au3 3.069316 1_455
Au2 Au4 3.069316 1_545
Au2 Tl2 3.304188 1_545
Au2 Tl0 3.304188 1_455
Au3 S4 2.319866 1_555
Au3 S5 2.333217 1_555
Au3 Au6 3.069316 1_655
Au3 Tl2 3.165899 1_545
Au3 Tl3 3.165899 1_555
Au4 S0 2.319866 1_555
Au4 S1 2.333217 1_555
Au4 Au6 3.069316 1_555
Au4 Tl1 3.165899 1_555
Au4 Tl0 3.165899 1_565
Au5 S4 2.319866 1_555
Au5 S3 2.333217 1_554
Au5 Tl2 3.165899 1_545
Au5 Tl3 3.165899 1_555
Au6 S5 2.341625 1_555
Au6 S1 2.341625 1_455
Au6 Tl3 3.304188 1_555
Au6 Tl1 3.304188 1_455
Au7 S0 2.319866 1_555
Au7 S2 2.333217 1_556
Au7 Tl0 3.165899 1_565
Au7 Tl1 3.165899 1_555
S0 Tl0 2.971792 1_465
S0 Tl1 2.971792 1_455
S4 Tl3 2.971792 1_655
S4 Tl2 2.971792 1_645
