# generated using pymatgen
data_SbPbClO2
_symmetry_space_group_name_H-M   'P 1'
_cell_length_a   6.78009711
_cell_length_b   6.78009711
_cell_length_c   5.45050120
_cell_angle_alpha   90.00000000
_cell_angle_beta   90.00000000
_cell_angle_gamma   130.94568604
_symmetry_Int_Tables_number   1
_chemical_formula_structural   SbPbClO2
_chemical_formula_sum   'Sb2 Pb2 Cl2 O4'
_cell_volume   189.25426138
_cell_formula_units_Z   2
loop_
 _symmetry_equiv_pos_site_id
 _symmetry_equiv_pos_as_xyz
  1  'x, y, z'
loop_
 _atom_site_type_symbol
 _atom_site_label
 _atom_site_symmetry_multiplicity
 _atom_site_fract_x
 _atom_site_fract_y
 _atom_site_fract_z
 _atom_site_occupancy
  Sb  Sb0  1  0.07871757  0.92128243  0.25000000  1
  Sb  Sb1  1  0.92128243  0.07871757  0.75000000  1
  Pb  Pb0  1  0.38163676  0.61836324  0.25000000  1
  Pb  Pb1  1  0.61836324  0.38163676  0.75000000  1
  Cl  Cl0  1  0.25588698  0.74411302  0.75000000  1
  Cl  Cl1  1  0.74411302  0.25588698  0.25000000  1
  O  O0  1  0.22566151  0.22566151  0.50000000  1
  O  O1  1  0.77433849  0.77433849  0.00000000  1
  O  O2  1  0.77433849  0.77433849  0.50000000  1
  O  O3  1  0.22566151  0.22566151  -0.00000000  1
loop_
_geom_bond_atom_site_label_1
_geom_bond_atom_site_label_2
_geom_bond_distance
_geom_bond_site_symmetry_2
Cl0 Pb0 3.135856 1_556
Cl0 Pb0 3.135856 1_555
Cl1 Pb1 3.135856 1_555
Cl1 Pb1 3.135856 1_554
O0 Sb0 2.100815 1_545
O0 Sb1 2.100815 1_455
O0 Pb1 2.524635 1_555
O0 Pb0 2.524635 1_555
O1 Sb1 2.100815 1_564
O1 Sb0 2.100815 1_655
O1 Pb0 2.524635 1_555
O1 Pb1 2.524635 1_554
O2 Sb1 2.100815 1_565
O2 Sb0 2.100815 1_655
O2 Pb1 2.524635 1_555
O2 Pb0 2.524635 1_555
O3 Sb0 2.100815 1_545
O3 Sb1 2.100815 1_454
O3 Pb0 2.524635 1_555
O3 Pb1 2.524635 1_554
