# generated using pymatgen
data_MgV2(CoO4)2
_symmetry_space_group_name_H-M   'P 1'
_cell_length_a   5.87794426
_cell_length_b   5.87794426
_cell_length_c   5.87794426
_cell_angle_alpha   57.69403627
_cell_angle_beta   83.18922462
_cell_angle_gamma   110.30203507
_symmetry_Int_Tables_number   1
_chemical_formula_structural   MgV2(CoO4)2
_chemical_formula_sum   'Mg1 V2 Co2 O8'
_cell_volume   148.67391857
_cell_formula_units_Z   1
loop_
 _symmetry_equiv_pos_site_id
 _symmetry_equiv_pos_as_xyz
  1  'x, y, z'
loop_
 _atom_site_type_symbol
 _atom_site_label
 _atom_site_symmetry_multiplicity
 _atom_site_fract_x
 _atom_site_fract_y
 _atom_site_fract_z
 _atom_site_occupancy
  Mg  Mg0  1  0.51463671  0.75000000  0.23536329  1
  V  V0  1  0.15969751  0.25000000  0.09030249  1
  V  V1  1  0.87483974  0.75000000  0.87516026  1
  Co  Co0  1  0.51316619  0.01949839  0.50633220  1
  Co  Co1  1  0.97416941  0.48050161  0.50633220  1
  O  O0  1  0.81802744  0.04961840  0.23159096  1
  O  O1  1  0.72644036  0.50235647  0.27120216  1
  O  O2  1  0.28328990  0.98465349  0.23205661  1
  O  O3  1  0.21879164  0.45038160  0.23159096  1
  O  O4  1  0.78706657  0.54179515  0.75472758  1
  O  O5  1  0.72644036  0.99764353  0.77591611  1
  O  O6  1  0.28328990  0.51534651  0.70136459  1
  O  O7  1  0.20347727  0.95820485  0.75472758  1
loop_
_geom_bond_atom_site_label_1
_geom_bond_atom_site_label_2
_geom_bond_distance
_geom_bond_site_symmetry_2
Mg0 O3 2.012897 1_555
Mg0 O0 2.012901 1_565
Mg0 O5 2.169148 1_554
Mg0 O1 2.169150 1_555
Mg0 O2 2.243019 1_555
Mg0 O6 2.243024 1_555
Co0 O7 1.981775 1_545
Co0 O1 2.112895 1_555
Co0 O5 2.112896 1_545
Co0 O0 2.153665 1_555
Co0 O6 2.268119 1_545
Co0 O2 2.268121 1_545
Co1 O4 1.981778 1_555
Co1 O5 2.112896 1_545
Co1 O1 2.112900 1_555
Co1 O3 2.153669 1_655
Co1 O2 2.268121 1_655
Co1 O6 2.268125 1_655
O0 V0 1.740032 1_655
O1 V1 1.820493 1_554
O2 V0 1.787573 1_565
O3 V0 1.740032 1_555
O4 V1 1.685083 1_555
O5 V1 1.820498 1_555
O6 V0 1.787569 1_556
O7 V1 1.685083 1_455
