# generated using pymatgen
data_NaFeCl4
_symmetry_space_group_name_H-M   'P 1'
_cell_length_a   6.21361997
_cell_length_b   9.81244492
_cell_length_c   10.19721012
_cell_angle_alpha   90.00000000
_cell_angle_beta   90.00000000
_cell_angle_gamma   90.00000000
_symmetry_Int_Tables_number   1
_chemical_formula_structural   NaFeCl4
_chemical_formula_sum   'Na4 Fe4 Cl16'
_cell_volume   621.73209661
_cell_formula_units_Z   4
loop_
 _symmetry_equiv_pos_site_id
 _symmetry_equiv_pos_as_xyz
  1  'x, y, z'
loop_
 _atom_site_type_symbol
 _atom_site_label
 _atom_site_symmetry_multiplicity
 _atom_site_fract_x
 _atom_site_fract_y
 _atom_site_fract_z
 _atom_site_occupancy
  Na  Na0  1  0.06409331  0.53537062  0.63633462  1
  Na  Na1  1  0.43590669  0.46462938  0.13633462  1
  Na  Na2  1  0.93590669  0.03537062  0.86366538  1
  Na  Na3  1  0.56409331  0.96462938  0.36366538  1
  Fe  Fe0  1  0.96184089  0.73971920  0.21159649  1
  Fe  Fe1  1  0.46184089  0.76028080  0.78840351  1
  Fe  Fe2  1  0.03815911  0.23971920  0.28840351  1
  Fe  Fe3  1  0.53815911  0.26028080  0.71159649  1
  Cl  Cl0  1  0.32511681  0.57457149  0.87912172  1
  Cl  Cl1  1  0.17488319  0.42542851  0.37912172  1
  Cl  Cl2  1  0.67488319  0.07457149  0.62087828  1
  Cl  Cl3  1  0.82511681  0.92542851  0.12087828  1
  Cl  Cl4  1  0.18302307  0.25657402  0.71510021  1
  Cl  Cl5  1  0.68302307  0.24342598  0.28489979  1
  Cl  Cl6  1  0.81697693  0.75657402  0.78489979  1
  Cl  Cl7  1  0.31697693  0.74342598  0.21510021  1
  Cl  Cl8  1  0.64580362  0.43855384  0.59993331  1
  Cl  Cl9  1  0.14580362  0.06144616  0.40006669  1
  Cl  Cl10  1  0.35419638  0.93855384  0.90006669  1
  Cl  Cl11  1  0.85419638  0.56144616  0.09993331  1
  Cl  Cl12  1  0.82575780  0.73432055  0.41061511  1
  Cl  Cl13  1  0.32575780  0.76567945  0.58938489  1
  Cl  Cl14  1  0.17424220  0.23432055  0.08938489  1
  Cl  Cl15  1  0.67424220  0.26567945  0.91061511  1
loop_
_geom_bond_atom_site_label_1
_geom_bond_atom_site_label_2
_geom_bond_distance
_geom_bond_site_symmetry_2
Cl0 Fe1 2.213174 1_555
Cl0 Na1 2.918403 1_556
Cl0 Na0 2.984605 1_555
Cl1 Fe2 2.213174 1_555
Cl1 Na0 2.918403 1_555
Cl1 Na1 2.984605 1_555
Cl2 Fe3 2.213174 1_555
Cl2 Na3 2.918403 1_545
Cl2 Na2 2.984605 1_555
Cl3 Fe0 2.213174 1_555
Cl3 Na2 2.918403 1_564
Cl3 Na3 2.984605 1_555
Cl4 Fe3 2.207269 1_555
Cl4 Na0 2.945358 1_555
Cl4 Na2 3.060076 1_455
Cl5 Fe2 2.207269 1_655
Cl5 Na3 2.945358 1_545
Cl5 Na1 3.060076 1_555
Cl6 Fe1 2.207269 1_555
Cl6 Na2 2.945358 1_565
Cl6 Na0 3.060076 1_655
Cl7 Fe0 2.207269 1_455
Cl7 Na1 2.945358 1_555
Cl7 Na3 3.060076 1_555
Cl8 Fe3 2.191789 1_555
Cl8 Na0 2.792058 1_655
Cl9 Fe2 2.191789 1_555
Cl9 Na3 2.792058 1_545
Cl10 Fe1 2.191789 1_555
Cl10 Na2 2.792058 1_465
Cl11 Fe0 2.191789 1_555
Cl11 Na1 2.792058 1_555
Cl12 Fe0 2.199181 1_555
Cl12 Na3 2.824858 1_555
Cl12 Na0 3.361850 1_655
Cl13 Fe1 2.199181 1_555
Cl13 Na0 2.824858 1_555
Cl13 Na3 3.361850 1_555
Cl14 Fe2 2.199181 1_555
Cl14 Na1 2.824858 1_555
Cl14 Na2 3.361850 1_454
Cl15 Fe3 2.199181 1_555
Cl15 Na2 2.824858 1_555
Cl15 Na1 3.361850 1_556
