# generated using pymatgen
data_Nd2Mg(BiO4)2
_symmetry_space_group_name_H-M   'P 1'
_cell_length_a   7.48074003
_cell_length_b   7.48074003
_cell_length_c   7.04231913
_cell_angle_alpha   132.34878191
_cell_angle_beta   134.44738457
_cell_angle_gamma   72.93978474
_symmetry_Int_Tables_number   1
_chemical_formula_structural   Nd2Mg(BiO4)2
_chemical_formula_sum   'Nd2 Mg1 Bi2 O8'
_cell_volume   195.69065802
_cell_formula_units_Z   1
loop_
 _symmetry_equiv_pos_site_id
 _symmetry_equiv_pos_as_xyz
  1  'x, y, z'
loop_
 _atom_site_type_symbol
 _atom_site_label
 _atom_site_symmetry_multiplicity
 _atom_site_fract_x
 _atom_site_fract_y
 _atom_site_fract_z
 _atom_site_occupancy
  Nd  Nd0  1  0.38399045  0.13399045  0.25000000  1
  Nd  Nd1  1  0.65216134  0.90216134  0.75000000  1
  Mg  Mg0  1  0.41045957  0.66045957  0.75000000  1
  Bi  Bi0  1  0.82473081  0.57473081  0.25000000  1
  Bi  Bi1  1  0.12272759  0.37272759  0.75000000  1
  O  O0  1  0.71728580  0.52767573  0.84854164  1
  O  O1  1  0.70486487  0.05776028  0.21034497  1
  O  O2  1  0.47386781  0.22160063  0.75537958  1
  O  O3  1  0.06221639  0.32425815  0.30822522  1
  O  O4  1  0.96622105  0.71848923  0.74462042  1
  O  O5  1  0.51603392  0.75399116  0.19177478  1
  O  O6  1  0.17913509  0.86874516  0.65145836  1
  O  O7  1  0.34741631  0.49452090  0.28965503  1
loop_
_geom_bond_atom_site_label_1
_geom_bond_atom_site_label_2
_geom_bond_distance
_geom_bond_site_symmetry_2
Nd0 O0 2.349899 1_555
Nd0 O6 2.349903 1_544
Nd0 O1 2.466999 1_555
Nd0 O7 2.467007 1_555
Nd0 O3 2.563965 1_555
Nd0 O5 2.563966 1_545
Nd0 O4 2.704254 1_444
Nd0 O2 2.704259 1_555
Nd1 O7 2.327089 1_555
Nd1 O1 2.327097 1_566
Nd1 O4 2.359964 1_555
Nd1 O2 2.359966 1_565
Nd1 O3 2.627717 1_666
Nd1 O5 2.627721 1_555
Mg0 O0 2.024049 1_555
Mg0 O6 2.024051 1_555
Mg0 O5 2.177766 1_556
Mg0 O3 2.177770 1_555
Mg0 O1 2.248015 1_566
Mg0 O7 2.248023 1_555
Bi0 O0 2.098969 1_554
Bi0 O6 2.098978 1_655
Bi0 O4 2.206249 1_555
Bi0 O2 2.206253 1_554
Bi0 O5 2.212883 1_555
Bi0 O3 2.212889 1_655
Bi1 O7 2.320717 1_556
Bi1 O1 2.320723 1_455
Bi1 O2 2.520999 1_555
Bi1 O4 2.521005 1_455
Bi1 O3 2.572857 1_555
Bi1 O5 2.572862 1_556
