# generated using pymatgen
data_Na2MgGaP(SO6)2
_symmetry_space_group_name_H-M   'P 1'
_cell_length_a   8.72701087
_cell_length_b   8.70011755
_cell_length_c   21.98956448
_cell_angle_alpha   90.55659965
_cell_angle_beta   90.00000000
_cell_angle_gamma   120.10230705
_symmetry_Int_Tables_number   1
_chemical_formula_structural   Na2MgGaP(SO6)2
_chemical_formula_sum   'Na12 Mg6 Ga6 P6 S12 O72'
_cell_volume   1444.31483704
_cell_formula_units_Z   6
loop_
 _symmetry_equiv_pos_site_id
 _symmetry_equiv_pos_as_xyz
  1  'x, y, z'
loop_
 _atom_site_type_symbol
 _atom_site_label
 _atom_site_symmetry_multiplicity
 _atom_site_fract_x
 _atom_site_fract_y
 _atom_site_fract_z
 _atom_site_occupancy
  Na  Na0  1  0.00015865  0.63837912  0.24406666  1
  Na  Na1  1  0.63822047  0.63837912  0.74406666  1
  Na  Na2  1  0.66193263  0.96412863  0.58102974  1
  Na  Na3  1  0.30219700  0.96412863  0.08102974  1
  Na  Na4  1  0.69371082  0.02789115  0.91131338  1
  Na  Na5  1  0.33417933  0.02789115  0.41131338  1
  Na  Na6  1  0.98476999  0.99166988  0.49803871  1
  Na  Na7  1  0.00689989  0.99166988  0.99803871  1
  Na  Na8  1  0.65961810  0.31775637  0.83144736  1
  Na  Na9  1  0.65813927  0.31775637  0.33144736  1
  Na  Na10  1  0.33616280  0.65647408  0.16493430  1
  Na  Na11  1  0.32031028  0.65647408  0.66493430  1
  Mg  Mg0  1  0.99508826  0.00392698  0.35229902  1
  Mg  Mg1  1  0.00883873  0.00392698  0.85229902  1
  Mg  Mg2  1  0.66708916  0.32842655  0.68521823  1
  Mg  Mg3  1  0.66133840  0.32842655  0.18521823  1
  Mg  Mg4  1  0.32423173  0.66490698  0.01872593  1
  Mg  Mg5  1  0.34067425  0.66490698  0.51872593  1
  Ga  Ga0  1  0.99058312  0.98859990  0.65117096  1
  Ga  Ga1  1  0.99801678  0.98859990  0.15117096  1
  Ga  Ga2  1  0.66709901  0.34163607  0.98422394  1
  Ga  Ga3  1  0.67453806  0.34163607  0.48422394  1
  Ga  Ga4  1  0.34792516  0.68591333  0.31762564  1
  Ga  Ga5  1  0.33798717  0.68591333  0.81762564  1
  P  P0  1  0.29661708  -0.00057774  0.25255671  1
  P  P1  1  0.70280518  -0.00057774  0.75255671  1
  P  P2  1  0.67044702  0.62521392  0.58649527  1
  P  P3  1  0.95476790  0.62521392  0.08649527  1
  P  P4  1  0.33744087  0.97014415  0.92150086  1
  P  P5  1  0.63270228  0.97014415  0.42150086  1
  S  S0  1  0.70149933  0.70879056  0.25081511  1
  S  S1  1  0.00600603  0.29306678  0.24988949  1
  S  S2  1  0.28706076  0.29306678  0.74988949  1
  S  S3  1  0.00729124  0.70879056  0.75081511  1
  S  S4  1  0.96229464  0.33330447  0.58425785  1
  S  S5  1  0.36398996  0.04077155  0.58275145  1
  S  S6  1  0.67678259  0.04077155  0.08275145  1
  S  S7  1  0.37101084  0.33330447  0.08425785  1
  S  S8  1  0.62228475  0.65941136  0.91622137  1
  S  S9  1  0.04239276  0.37988153  0.91580198  1
  S  S10  1  0.33748777  0.37988153  0.41580198  1
  S  S11  1  0.03712560  0.65941136  0.41622137  1
  O  O0  1  0.20605583  0.01491591  0.30950759  1
  O  O1  1  0.81353532  0.79506672  0.30390231  1
  O  O2  1  0.98180650  0.18823637  0.30365870  1
  O  O3  1  0.20642987  0.18823637  0.80365870  1
  O  O4  1  0.98153140  0.79506672  0.80390231  1
  O  O5  1  0.80886008  0.01491591  0.80950759  1
  O  O6  1  0.78564528  0.96006095  0.69426088  1
  O  O7  1  0.18086007  0.20781975  0.69331846  1
  O  O8  1  0.03870011  0.81602389  0.69455535  1
  O  O9  1  0.77732378  0.81602389  0.19455535  1
  O  O10  1  0.02695968  0.20781975  0.19331846  1
  O  O11  1  0.17441567  0.96006095  0.19426088  1
  O  O12  1  0.87841721  0.35492817  0.63848694  1
  O  O13  1  0.48489184  0.12818983  0.63422928  1
  O  O14  1  0.65427151  0.52489402  0.64436762  1
  O  O15  1  0.87062351  0.52489402  0.14436762  1
  O  O16  1  0.64329899  0.12818983  0.13422928  1
  O  O17  1  0.47651195  0.35492817  0.13848694  1
  O  O18  1  0.44786725  0.29242376  0.02900277  1
  O  O19  1  0.83839858  0.53539420  0.02865905  1
  O  O20  1  0.70082652  0.14128058  0.02495608  1
  O  O21  1  0.44045507  0.14128058  0.52495608  1
  O  O22  1  0.69699663  0.53539420  0.52865905  1
  O  O23  1  0.84455751  0.29242376  0.52900277  1
  O  O24  1  0.53227422  0.68408553  0.96815600  1
  O  O25  1  0.14623167  0.46109086  0.97031551  1
  O  O26  1  0.31864632  0.86565623  0.97858176  1
  O  O27  1  0.54700891  0.86565623  0.47858176  1
  O  O28  1  0.31485819  0.46109086  0.47031551  1
  O  O29  1  0.15181031  0.68408553  0.46815600  1
  O  O30  1  0.11271017  0.63232648  0.35795403  1
  O  O31  1  0.50340489  0.88478978  0.36504645  1
  O  O32  1  0.35802157  0.48526269  0.35989700  1
  O  O33  1  0.12724013  0.48526269  0.85989700  1
  O  O34  1  0.38138389  0.88478978  0.86504645  1
  O  O35  1  0.51961531  0.63232648  0.85795403  1
  O  O36  1  0.02233640  0.82168572  0.41168356  1
  O  O37  1  0.81414711  0.99181462  0.41142433  1
  O  O38  1  0.18372008  0.19654816  0.41041584  1
  O  O39  1  0.01282807  0.19654816  0.91041584  1
  O  O40  1  0.17766751  0.99181462  0.91142433  1
  O  O41  1  0.79934932  0.82168572  0.91168356  1
  O  O42  1  0.97814706  0.16924195  0.58916133  1
  O  O43  1  0.18898282  0.02850028  0.59025930  1
  O  O44  1  0.84038052  0.81880523  0.58855509  1
  O  O45  1  0.97842471  0.81880523  0.08855509  1
  O  O46  1  0.83951746  0.02850028  0.09025930  1
  O  O47  1  0.19109489  0.16924195  0.08916133  1
  O  O48  1  0.67902826  0.15919620  0.74448337  1
  O  O49  1  0.46938559  0.32123041  0.74433725  1
  O  O50  1  0.84569222  0.53216262  0.74441199  1
  O  O51  1  0.68647140  0.53216262  0.24441199  1
  O  O52  1  0.85184583  0.32123041  0.24433725  1
  O  O53  1  0.48016894  0.15919620  0.24448337  1
  O  O54  1  0.64248026  0.50013820  0.92122108  1
  O  O55  1  0.86098306  0.36037308  0.91929170  1
  O  O56  1  0.51538686  0.15709487  0.92570414  1
  O  O57  1  0.64170901  0.15709487  0.42570414  1
  O  O58  1  0.49939102  0.36037308  0.41929170  1
  O  O59  1  0.85765893  0.50013820  0.42122108  1
  O  O60  1  0.35399590  0.49054732  0.07590910  1
  O  O61  1  0.14292047  0.65329876  0.08001107  1
  O  O62  1  0.51933905  0.86016299  0.07754740  1
  O  O63  1  0.34082294  0.86016299  0.57754740  1
  O  O64  1  0.51037729  0.65329876  0.58001107  1
  O  O65  1  0.13655041  0.49054732  0.57590910  1
  O  O66  1  0.30586117  0.82137776  0.25567847  1
  O  O67  1  0.52100769  0.68593860  0.25653549  1
  O  O68  1  0.16835275  0.47442190  0.25412973  1
  O  O69  1  0.30606815  0.47442190  0.75412973  1
  O  O70  1  0.16492991  0.68593860  0.75653549  1
  O  O71  1  0.51551559  0.82137776  0.75567847  1
loop_
_geom_bond_atom_site_label_1
_geom_bond_atom_site_label_2
_geom_bond_distance
_geom_bond_site_symmetry_2
Na0 O66 2.334303 1_555
Na0 O52 2.388850 1_455
Na0 O51 2.410551 1_455
Na0 O15 2.428469 1_455
Na0 O68 2.518856 1_555
Na0 O11 2.671147 1_555
Na0 O30 2.700685 1_555
Na0 O1 2.904186 1_455
Na1 O71 2.334310 1_555
Na1 O49 2.388850 1_555
Na1 O50 2.410560 1_555
Na1 O14 2.428471 1_555
Na1 O69 2.518864 1_555
Na1 O6 2.671147 1_555
Na1 O35 2.700688 1_555
Na1 O4 2.904186 1_555
Na2 O64 2.339635 1_555
Na2 O42 2.426090 1_565
Na2 O27 2.432183 1_555
Na2 O44 2.455660 1_555
Na2 O63 2.476515 1_555
Na2 O6 2.721495 1_555
Na2 O23 2.739370 1_565
Na2 O13 2.823592 1_565
Na3 O61 2.339635 1_555
Na3 O47 2.426096 1_565
Na3 O26 2.432179 1_554
Na3 O45 2.455668 1_455
Na3 O62 2.476498 1_555
Na3 O11 2.721499 1_555
Na3 O18 2.739370 1_565
Na3 O16 2.823592 1_565
Na4 O56 2.352322 1_555
Na4 O41 2.393276 1_545
Na4 O39 2.410569 1_655
Na4 O5 2.478525 1_555
Na4 O55 2.506699 1_555
Na4 O34 2.566295 1_545
Na4 O20 2.666920 1_556
Na4 O24 2.887858 1_545
Na5 O57 2.352338 1_555
Na5 O36 2.393269 1_545
Na5 O38 2.410562 1_555
Na5 O0 2.478521 1_555
Na5 O58 2.506698 1_555
Na5 O31 2.566295 1_545
Na5 O21 2.666923 1_555
Na5 O29 2.887858 1_545
Na6 O37 2.417991 1_555
Na6 O44 2.443076 1_555
Na6 O36 2.516390 1_655
Na6 O42 2.536627 1_565
Na6 O43 2.608771 1_665
Na6 O38 2.620419 1_665
Na7 O40 2.417991 1_555
Na7 O45 2.443076 1_456
Na7 O41 2.516390 1_455
Na7 O47 2.536627 1_566
Na7 O46 2.608771 1_466
Na7 O39 2.620420 1_565
Na8 O48 2.402442 1_555
Na8 O56 2.474979 1_555
Na8 O55 2.507876 1_555
Na8 O49 2.545132 1_555
Na8 O54 2.571833 1_555
Na8 O50 2.609658 1_555
Na9 O53 2.402442 1_555
Na9 O57 2.474979 1_555
Na9 O58 2.507876 1_555
Na9 O52 2.545132 1_555
Na9 O59 2.571833 1_555
Na9 O51 2.609658 1_555
Na10 O60 2.472024 1_555
Na10 O68 2.496790 1_555
Na10 O61 2.506859 1_555
Na10 O67 2.510059 1_555
Na10 O66 2.536711 1_555
Na10 O62 2.571563 1_555
Na11 O65 2.472024 1_555
Na11 O69 2.496790 1_555
Na11 O64 2.506859 1_555
Na11 O70 2.510059 1_555
Na11 O71 2.536711 1_555
Na11 O63 2.571563 1_555
Mg0 O2 1.987071 1_555
Mg0 O1 2.004819 1_545
Mg0 O37 2.007659 1_545
Mg0 O0 2.027177 1_655
Mg0 O38 2.083906 1_655
Mg0 O36 2.166578 1_645
Mg1 O3 1.987071 1_555
Mg1 O4 2.004819 1_445
Mg1 O40 2.007659 1_545
Mg1 O5 2.027177 1_455
Mg1 O39 2.083906 1_555
Mg1 O41 2.166578 1_445
Mg2 O14 1.990660 1_555
Mg2 O13 2.000932 1_555
Mg2 O48 2.016958 1_555
Mg2 O12 2.022001 1_555
Mg2 O50 2.109369 1_555
Mg2 O49 2.136357 1_555
Mg3 O15 1.990660 1_555
Mg3 O16 2.000932 1_555
Mg3 O53 2.016958 1_555
Mg3 O17 2.022002 1_555
Mg3 O51 2.109369 1_555
Mg3 O52 2.136357 1_555
Mg4 O25 1.972532 1_554
Mg4 O26 1.986804 1_554
Mg4 O61 2.042634 1_555
Mg4 O24 2.064098 1_554
Mg4 O60 2.093335 1_555
Mg4 O62 2.124591 1_555
Mg5 O28 1.972532 1_555
Mg5 O27 1.986804 1_555
Mg5 O64 2.042634 1_555
Mg5 O29 2.064098 1_555
Mg5 O65 2.093336 1_555
Mg5 O63 2.124591 1_555
Ga0 O6 1.928031 1_555
Ga0 O44 1.953054 1_555
Ga0 O8 2.000252 1_655
Ga0 O7 2.010660 1_665
Ga0 O43 2.078113 1_665
Ga0 O42 2.133955 1_565
Ga1 O11 1.928031 1_655
Ga1 O45 1.953054 1_555
Ga1 O9 2.000252 1_555
Ga1 O10 2.010660 1_665
Ga1 O46 2.078113 1_565
Ga1 O47 2.133955 1_665
Ga2 O19 1.863165 1_556
Ga2 O56 1.952993 1_555
Ga2 O18 1.999966 1_556
Ga2 O54 2.049737 1_555
Ga2 O20 2.114787 1_556
Ga2 O55 2.157795 1_555
Ga3 O22 1.863165 1_555
Ga3 O57 1.952993 1_555
Ga3 O23 1.999966 1_555
Ga3 O59 2.049736 1_555
Ga3 O21 2.114787 1_555
Ga3 O58 2.157795 1_555
Ga4 O31 1.879410 1_555
Ga4 O66 1.960736 1_555
Ga4 O67 2.021346 1_555
Ga4 O32 2.026084 1_555
Ga4 O30 2.065313 1_555
Ga4 O68 2.201967 1_555
Ga5 O34 1.879410 1_555
Ga5 O71 1.960736 1_555
Ga5 O70 2.021346 1_555
Ga5 O33 2.026084 1_555
Ga5 O35 2.065313 1_555
Ga5 O69 2.201967 1_555
O0 P0 1.521411 1_555
O1 S0 1.459088 1_555
O2 S1 1.449874 1_655
O3 S2 1.449874 1_555
O4 S3 1.459088 1_655
O5 P1 1.521411 1_555
O6 P1 1.588395 1_565
O7 S2 1.499693 1_555
O8 S3 1.497301 1_555
O9 S0 1.497301 1_555
O10 S1 1.499693 1_555
O11 P0 1.588395 1_565
O12 S4 1.458419 1_555
O13 S5 1.466763 1_555
O14 P2 1.516301 1_555
O15 P3 1.516301 1_555
O16 S6 1.466763 1_555
O17 S7 1.458419 1_555
O18 S7 1.511152 1_555
O19 P3 1.563363 1_555
O20 S6 1.503791 1_555
O21 S5 1.503791 1_555
O22 P2 1.563363 1_555
O23 S4 1.511152 1_555
O24 S8 1.460042 1_555
O25 S9 1.448671 1_555
O26 P4 1.517030 1_555
O27 P5 1.517030 1_555
O28 S10 1.448671 1_555
O29 S11 1.460042 1_555
O30 S11 1.510744 1_555
O31 P5 1.583462 1_555
O32 S10 1.497005 1_555
O33 S9 1.497005 1_555
O34 P4 1.583462 1_555
O35 S8 1.510744 1_555
O36 S11 1.485034 1_555
O37 P5 1.514388 1_555
O38 S10 1.486004 1_555
O39 S9 1.486007 1_555
O40 P4 1.514379 1_555
O41 S8 1.485039 1_555
O42 S4 1.506386 1_555
O43 S5 1.485951 1_555
O44 P2 1.590956 1_555
O45 P3 1.590959 1_555
O46 S6 1.485942 1_555
O47 S7 1.506391 1_555
O48 P1 1.516886 1_555
O49 S2 1.488693 1_555
O50 S3 1.480557 1_655
O51 S0 1.480561 1_555
O52 S1 1.488684 1_655
O53 P0 1.516891 1_555
O54 S8 1.487024 1_555
O55 S9 1.507257 1_655
O56 P4 1.590304 1_545
O57 P5 1.590296 1_545
O58 S10 1.507274 1_555
O59 S11 1.487014 1_655
O60 S7 1.461475 1_555
O61 P3 1.540926 1_455
O62 S6 1.483531 1_565
O63 S5 1.483524 1_565
O64 P2 1.540944 1_555
O65 S4 1.461465 1_455
O66 P0 1.593130 1_565
O67 S0 1.490909 1_555
O68 S1 1.503428 1_555
O69 S2 1.503431 1_555
O70 S3 1.490900 1_555
O71 P1 1.593134 1_565
