# generated using pymatgen
data_MgMn6(O2F)4
_symmetry_space_group_name_H-M   'P 1'
_cell_length_a   8.22443641
_cell_length_b   5.86825421
_cell_length_c   5.71930617
_cell_angle_alpha   67.47680100
_cell_angle_beta   66.99316945
_cell_angle_gamma   65.23438815
_symmetry_Int_Tables_number   1
_chemical_formula_structural   MgMn6(O2F)4
_chemical_formula_sum   'Mg1 Mn6 O8 F4'
_cell_volume   222.62234605
_cell_formula_units_Z   1
loop_
 _symmetry_equiv_pos_site_id
 _symmetry_equiv_pos_as_xyz
  1  'x, y, z'
loop_
 _atom_site_type_symbol
 _atom_site_label
 _atom_site_symmetry_multiplicity
 _atom_site_fract_x
 _atom_site_fract_y
 _atom_site_fract_z
 _atom_site_occupancy
  Mg  Mg0  1  0.50220854  0.49531436  0.98822073  1
  Mn  Mn0  1  0.85793149  0.68454724  0.69184174  1
  Mn  Mn1  1  0.69275661  0.32536974  0.36172378  1
  Mn  Mn2  1  0.27617249  0.63832576  0.61373593  1
  Mn  Mn3  1  0.14355969  0.29729248  0.31458303  1
  Mn  Mn4  1  0.49730988  0.98788643  0.00100504  1
  Mn  Mn5  1  0.00571789  0.02677828  0.97456672  1
  O  O0  1  0.67216423  0.01578236  0.65128634  1
  O  O1  1  0.32745037  0.35439110  0.95551681  1
  O  O2  1  0.95865944  0.20937071  0.22638490  1
  O  O3  1  0.02993083  0.81094904  0.77073148  1
  O  O4  1  0.43024355  0.42296368  0.39500154  1
  O  O5  1  0.32711322  0.95333733  0.35959313  1
  O  O6  1  0.67327409  0.63182850  0.04078959  1
  O  O7  1  0.03199429  0.32716651  0.68097520  1
  F  F0  1  0.31500248  0.84709983  0.91748535  1
  F  F1  1  0.64957444  0.54424474  0.61230373  1
  F  F2  1  0.69471145  0.13556173  0.07347644  1
  F  F3  1  0.00350902  0.69655121  0.28744751  1
loop_
_geom_bond_atom_site_label_1
_geom_bond_atom_site_label_2
_geom_bond_distance
_geom_bond_site_symmetry_2
Mg0 O1 2.027101 1_555
Mg0 O6 2.042311 1_556
Mg0 O4 2.078609 1_556
Mn0 O0 1.899952 1_565
Mn0 O6 1.984072 1_556
Mn0 O7 1.991595 1_655
Mn0 O3 2.095064 1_655
Mn1 O2 1.917891 1_555
Mn1 O4 1.936994 1_555
Mn1 O0 1.950745 1_555
Mn1 O6 2.022013 1_555
Mn2 O4 1.843447 1_555
Mn2 O3 1.868271 1_555
Mn2 O5 1.954431 1_555
Mn2 O1 2.082202 1_555
Mn3 O5 1.942185 1_545
Mn3 O7 1.976739 1_555
Mn3 O1 2.021516 1_554
Mn3 O2 2.071121 1_455
Mn4 O0 1.947676 1_564
Mn4 O6 1.967659 1_555
Mn4 O5 1.970216 1_555
Mn4 O1 1.995777 1_564
Mn5 O3 1.934237 1_545
Mn5 O7 1.934268 1_555
Mn5 O2 1.941973 1_456
F0 Mg0 1.994988 1_555
F0 Mn5 2.248603 1_565
F0 Mn4 2.249197 1_556
F0 Mn2 2.648203 1_555
F1 Mg0 1.988856 1_555
F1 Mn1 2.111857 1_555
F1 Mn0 2.428916 1_555
F2 Mg0 2.053221 1_554
F2 Mn5 2.246709 1_654
F2 Mn1 2.308627 1_555
F2 Mn4 2.353410 1_545
F3 Mn5 2.074898 1_564
F3 Mn3 2.107223 1_555
F3 Mn0 2.137524 1_455
