# generated using pymatgen
data_Na5La2Y2P5SO24
_symmetry_space_group_name_H-M   'P 1'
_cell_length_a   9.40725861
_cell_length_b   9.43535012
_cell_length_c   24.45323229
_cell_angle_alpha   90.33014509
_cell_angle_beta   89.95691356
_cell_angle_gamma   119.88502825
_symmetry_Int_Tables_number   1
_chemical_formula_structural   Na5La2Y2P5SO24
_chemical_formula_sum   'Na15 La6 Y6 P15 S3 O72'
_cell_volume   1881.83473636
_cell_formula_units_Z   3
loop_
 _symmetry_equiv_pos_site_id
 _symmetry_equiv_pos_as_xyz
  1  'x, y, z'
loop_
 _atom_site_type_symbol
 _atom_site_label
 _atom_site_symmetry_multiplicity
 _atom_site_fract_x
 _atom_site_fract_y
 _atom_site_fract_z
 _atom_site_occupancy
  Na  Na0  1  0.64961376  0.00160649  0.25056852  1
  Na  Na1  1  0.99543206  0.36037404  0.74967389  1
  Na  Na2  1  0.36379896  0.00041882  0.75081508  1
  Na  Na3  1  0.02808123  0.69731676  0.58040707  1
  Na  Na4  1  0.66481737  0.96984070  0.58303450  1
  Na  Na5  1  0.30362971  0.97386622  0.08207429  1
  Na  Na6  1  0.02854591  0.33238748  0.08538073  1
  Na  Na7  1  0.98093929  0.66486214  0.91796570  1
  Na  Na8  1  0.70946801  0.67619575  0.41698885  1
  Na  Na9  1  0.01790687  0.01448099  0.50021057  1
  Na  Na10  1  0.99981200  0.01040558  0.99972881  1
  Na  Na11  1  0.65497576  0.32181343  0.83307693  1
  Na  Na12  1  0.69015791  0.34260440  0.33374144  1
  Na  Na13  1  0.33722869  0.64392513  0.16700372  1
  Na  Na14  1  0.34639828  0.65374882  0.66669578  1
  La  La0  1  0.00093541  0.01097124  0.85178382  1
  La  La1  1  0.00351875  0.00220193  0.64991743  1
  La  La2  1  0.66279438  0.34568691  0.67981328  1
  La  La3  1  0.65847065  0.32180183  0.98762333  1
  La  La4  1  0.32822263  0.66496623  0.51018337  1
  La  La5  1  0.34220954  0.66883753  0.81937721  1
  Y  Y0  1  0.99652664  0.99968346  0.34709593  1
  Y  Y1  1  0.98919302  0.99238648  0.15307965  1
  Y  Y2  1  0.67485390  0.35317214  0.18302988  1
  Y  Y3  1  0.66778083  0.32329021  0.48111099  1
  Y  Y4  1  0.33820256  0.66607591  0.01879326  1
  Y  Y5  1  0.31851965  0.65952885  0.31650501  1
  P  P0  1  0.69879535  0.70448556  0.25268940  1
  P  P1  1  0.99636777  0.29385799  0.24832600  1
  P  P2  1  0.30036090  0.30066310  0.75065091  1
  P  P3  1  0.00339526  0.69637388  0.75170167  1
  P  P4  1  0.69519709  0.00463954  0.74719540  1
  P  P5  1  0.96181530  0.33383440  0.58285143  1
  P  P6  1  0.36908288  0.03209269  0.58158255  1
  P  P7  1  0.66882193  0.63672882  0.57711563  1
  P  P8  1  0.97325465  0.63801101  0.08258041  1
  P  P9  1  0.66548502  0.03400318  0.08862088  1
  P  P10  1  0.35933410  0.32834066  0.08681671  1
  P  P11  1  0.03516713  0.37364724  0.91973513  1
  P  P12  1  0.32843288  0.96054469  0.91929213  1
  P  P13  1  0.63475452  0.96487154  0.41291155  1
  P  P14  1  0.02419104  0.66802016  0.41576376  1
  S  S0  1  0.30088000  0.00087207  0.24917924  1
  S  S1  1  0.63785066  0.66627273  0.92026761  1
  S  S2  1  0.33518037  0.36415826  0.41326834  1
  O  O0  1  0.21592561  0.01869169  0.29709244  1
  O  O1  1  0.80169049  0.78397869  0.30499783  1
  O  O2  1  0.97520720  0.18084515  0.29724751  1
  O  O3  1  0.21360419  0.19669852  0.80129790  1
  O  O4  1  0.99062524  0.78425848  0.80334612  1
  O  O5  1  0.80339959  0.01850303  0.79668363  1
  O  O6  1  0.77394351  0.98913374  0.69347968  1
  O  O7  1  0.19782446  0.21795902  0.69876331  1
  O  O8  1  0.01698537  0.79550005  0.69936688  1
  O  O9  1  0.78822962  0.81682001  0.20323604  1
  O  O10  1  0.01868433  0.21615023  0.19512608  1
  O  O11  1  0.20413982  0.98012297  0.19846057  1
  O  O12  1  0.88992228  0.35203799  0.63781450  1
  O  O13  1  0.45809917  0.10551823  0.63658460  1
  O  O14  1  0.65403342  0.54230279  0.62987201  1
  O  O15  1  0.87997140  0.52023471  0.13050147  1
  O  O16  1  0.63890236  0.11882646  0.13915457  1
  O  O17  1  0.47272844  0.35209738  0.13586485  1
  O  O18  1  0.43254175  0.29762307  0.03468811  1
  O  O19  1  0.87759509  0.56984976  0.02881305  1
  O  O20  1  0.69876939  0.14200176  0.03751020  1
  O  O21  1  0.46862189  0.14200713  0.53342598  1
  O  O22  1  0.67834419  0.54249308  0.52633239  1
  O  O23  1  0.84866077  0.32097780  0.53465979  1
  O  O24  1  0.54510882  0.67532338  0.96763582  1
  O  O25  1  0.14190493  0.46972361  0.96989438  1
  O  O26  1  0.32460333  0.85649345  0.96926826  1
  O  O27  1  0.56190128  0.86319144  0.46606634  1
  O  O28  1  0.30722905  0.43030125  0.46460926  1
  O  O29  1  0.11475109  0.68875387  0.47088031  1
  O  O30  1  0.12229574  0.64773872  0.36854668  1
  O  O31  1  0.52354894  0.87108282  0.36331678  1
  O  O32  1  0.35627165  0.47477712  0.36694106  1
  O  O33  1  0.11729354  0.46506115  0.86570560  1
  O  O34  1  0.34117657  0.88125125  0.86493720  1
  O  O35  1  0.54969434  0.65350887  0.86852072  1
  O  O36  1  0.00300301  0.81987775  0.40732702  1
  O  O37  1  0.80533747  0.97643490  0.40629614  1
  O  O38  1  0.19465590  0.19883647  0.40476108  1
  O  O39  1  0.01188168  0.19976527  0.91991800  1
  O  O40  1  0.16006916  0.95605965  0.91943661  1
  O  O41  1  0.80268468  0.81489334  0.91983457  1
  O  O42  1  0.96812153  0.17252967  0.58243415  1
  O  O43  1  0.19105324  0.00202025  0.58111035  1
  O  O44  1  0.83195214  0.80544615  0.57963097  1
  O  O45  1  0.00747534  0.81502715  0.09325363  1
  O  O46  1  0.82150291  0.01853257  0.09482405  1
  O  O47  1  0.18661580  0.17247230  0.09424862  1
  O  O48  1  0.68204931  0.16304709  0.74734222  1
  O  O49  1  0.46831100  0.30911576  0.74864820  1
  O  O50  1  0.85749594  0.51870530  0.74938865  1
  O  O51  1  0.67859419  0.53273182  0.24462197  1
  O  O52  1  0.83204790  0.29851238  0.24393741  1
  O  O53  1  0.46851506  0.14593305  0.24454492  1
  O  O54  1  0.65994544  0.52189049  0.92272820  1
  O  O55  1  0.86949243  0.37318951  0.92217207  1
  O  O56  1  0.47624364  0.13503449  0.92153927  1
  O  O57  1  0.65272721  0.13675022  0.41875227  1
  O  O58  1  0.49197435  0.36042703  0.41804321  1
  O  O59  1  0.84693797  0.51572033  0.41863237  1
  O  O60  1  0.33130963  0.47739786  0.08081457  1
  O  O61  1  0.14561387  0.64884657  0.07885210  1
  O  O62  1  0.50624121  0.86639847  0.07992661  1
  O  O63  1  0.35722116  0.86095550  0.57688156  1
  O  O64  1  0.52390583  0.67111886  0.57556357  1
  O  O65  1  0.13061214  0.49163938  0.57698051  1
  O  O66  1  0.32113826  0.85352203  0.25525609  1
  O  O67  1  0.53032905  0.69985431  0.25769160  1
  O  O68  1  0.14667224  0.46691256  0.25665731  1
  O  O69  1  0.31028824  0.46941364  0.75357864  1
  O  O70  1  0.16402056  0.68504480  0.75311592  1
  O  O71  1  0.51796505  0.85690345  0.75105186  1
loop_
_geom_bond_atom_site_label_1
_geom_bond_atom_site_label_2
_geom_bond_distance
_geom_bond_site_symmetry_2
Na0 O52 2.456277 1_555
Na0 O67 2.493466 1_545
Na0 O53 2.663289 1_555
Na0 O66 2.685635 1_545
Na0 O9 2.884449 1_545
Na0 O2 2.892344 1_555
Na0 O16 2.966840 1_555
Na0 O31 3.017160 1_545
Na1 O50 2.418156 1_555
Na1 O48 2.586526 1_555
Na1 O69 2.608299 1_655
Na1 O70 2.657515 1_655
Na1 O12 2.897785 1_555
Na2 O71 2.427778 1_545
Na2 O49 2.569252 1_555
Na2 O48 2.597716 1_555
Na2 O70 2.611248 1_545
Na2 O13 2.953715 1_555
Na2 O34 2.982299 1_545
Na3 O43 2.494672 1_565
Na3 O44 2.514263 1_455
Na3 O65 2.562564 1_555
Na3 O63 2.686174 1_555
Na3 O29 2.811468 1_555
Na4 O64 2.450704 1_555
Na4 O42 2.522159 1_565
Na4 O63 2.547084 1_555
Na4 O44 2.704366 1_555
Na4 O6 2.862391 1_555
Na5 O45 2.434204 1_555
Na5 O62 2.566917 1_555
Na5 O47 2.619272 1_565
Na5 O61 2.659890 1_555
Na5 O18 2.914093 1_565
Na5 O11 3.004729 1_555
Na5 O26 3.009364 1_554
Na6 O60 2.472753 1_555
Na6 O47 2.602879 1_555
Na6 O46 2.622179 1_455
Na6 O61 2.623406 1_555
Na6 O10 2.888851 1_555
Na6 O20 2.940949 1_455
Na6 O15 2.959068 1_455
Na6 O25 3.074409 1_554
Na7 O40 2.403135 1_655
Na7 O55 2.410665 1_555
Na7 O54 2.625585 1_555
Na7 O41 2.680044 1_555
Na7 O19 2.872554 1_556
Na8 O36 2.406450 1_655
Na8 O59 2.432844 1_555
Na8 O37 2.523695 1_555
Na8 O58 2.643810 1_555
Na8 O1 2.904447 1_555
Na8 O22 2.914794 1_555
Na8 O27 2.982317 1_555
Na9 O43 2.603613 1_555
Na9 O42 2.673166 1_455
Na9 O44 2.706044 1_445
Na9 O36 2.871550 1_545
Na9 O38 2.897744 1_555
Na9 O37 2.946806 1_445
Na10 O39 2.617568 1_655
Na10 O40 2.673012 1_645
Na10 O41 2.685825 1_545
Na10 O47 2.838337 1_656
Na10 O46 2.889157 1_556
Na10 O45 2.969027 1_646
Na11 O48 2.654693 1_555
Na11 O49 2.674555 1_555
Na11 O56 2.774499 1_555
Na11 O50 2.789222 1_555
Na11 O55 2.841399 1_555
Na11 O54 2.869929 1_555
Na12 O59 2.591774 1_555
Na12 O52 2.704738 1_555
Na12 O57 2.753505 1_555
Na12 O58 2.838373 1_555
Na12 O51 2.866885 1_555
Na12 O53 2.941566 1_555
Na13 O60 2.605518 1_555
Na13 O67 2.744706 1_555
Na13 O68 2.803914 1_555
Na13 O61 2.826376 1_555
Na13 O62 2.861598 1_555
Na13 O66 2.973168 1_555
Na14 O69 2.665888 1_555
Na14 O71 2.722260 1_555
Na14 O64 2.739943 1_555
Na14 O70 2.826443 1_555
Na14 O65 2.854303 1_555
Na14 O63 2.916667 1_555
La0 O3 2.263854 1_555
La0 O5 2.325965 1_455
La0 O39 2.396439 1_555
La0 O4 2.398412 1_445
La0 O40 2.456178 1_545
La0 O41 2.502497 1_445
La1 O7 2.275785 1_555
La1 O6 2.355167 1_445
La1 O8 2.357015 1_545
La1 O43 2.437594 1_555
La1 O42 2.445699 1_455
La1 O44 2.446821 1_445
La2 O14 2.262377 1_555
La2 O12 2.343806 1_555
La2 O13 2.363803 1_555
La2 O49 2.381716 1_555
La2 O50 2.430509 1_555
La2 O48 2.464462 1_555
La3 O20 2.274937 1_556
La3 O18 2.325930 1_556
La3 O56 2.369894 1_555
La3 O55 2.404670 1_555
La3 O19 2.430957 1_556
La3 O54 2.467998 1_555
La4 O27 2.327411 1_555
La4 O29 2.336965 1_555
La4 O63 2.370101 1_555
La4 O28 2.391558 1_555
La4 O65 2.407271 1_555
La4 O64 2.417635 1_555
La5 O34 2.291671 1_555
La5 O33 2.329055 1_555
La5 O35 2.358318 1_555
La5 O69 2.371145 1_555
La5 O70 2.391868 1_555
La5 O71 2.404212 1_555
O0 S0 1.473064 1_555
O0 Y0 2.327442 1_445
O1 P0 1.550147 1_555
O1 Y0 2.196068 1_555
O2 P1 1.552604 1_555
O2 Y0 2.194053 1_545
O3 P2 1.541704 1_555
O4 P3 1.543976 1_655
O5 P4 1.544347 1_555
O6 P4 1.549141 1_565
O7 P2 1.545835 1_555
O8 P3 1.556687 1_555
O9 P0 1.555073 1_555
O9 Y1 2.172908 1_555
O10 P1 1.554352 1_455
O10 Y1 2.232343 1_445
O11 S0 1.492003 1_565
O11 Y1 2.360421 1_455
O12 P5 1.550818 1_555
O13 P6 1.550160 1_555
O14 P7 1.538459 1_555
O15 P8 1.555579 1_555
O15 Y2 2.201482 1_555
O16 P9 1.554877 1_555
O16 Y2 2.320040 1_555
O17 P10 1.545066 1_555
O17 Y2 2.220301 1_555
O18 P10 1.541593 1_555
O19 P8 1.538631 1_555
O20 P9 1.547448 1_555
O21 P6 1.543939 1_555
O21 Y3 2.213710 1_555
O22 P7 1.551512 1_555
O22 Y3 2.297687 1_555
O23 P5 1.551807 1_555
O23 Y3 2.156659 1_555
O24 S1 1.477062 1_555
O24 Y4 2.278033 1_556
O25 P11 1.554480 1_555
O25 Y4 2.200150 1_556
O26 P12 1.561134 1_555
O26 Y4 2.228302 1_556
O27 P13 1.561226 1_555
O28 S2 1.479453 1_555
O29 P14 1.553433 1_555
O30 P14 1.547038 1_555
O30 Y5 2.198356 1_555
O31 P13 1.554116 1_555
O31 Y5 2.270512 1_555
O32 S2 1.489634 1_555
O32 Y5 2.308315 1_555
O33 P11 1.560107 1_555
O34 P12 1.555136 1_555
O35 S1 1.484498 1_555
O36 P14 1.556715 1_555
O36 Y0 2.276649 1_455
O37 P13 1.561580 1_555
O37 Y0 2.232755 1_555
O38 S2 1.471664 1_555
O38 Y0 2.340200 1_445
O39 P11 1.543257 1_555
O40 P12 1.563188 1_555
O41 S1 1.484677 1_555
O42 P5 1.552354 1_555
O43 P6 1.553042 1_555
O44 P7 1.567651 1_555
O45 P8 1.555842 1_455
O45 Y1 2.286573 1_455
O46 P9 1.553238 1_555
O46 Y1 2.230231 1_545
O47 P10 1.567574 1_555
O47 Y1 2.299002 1_445
O48 P4 1.559932 1_555
O49 P2 1.542518 1_555
O50 P3 1.550285 1_655
O51 P0 1.546193 1_555
O51 Y2 2.247502 1_555
O52 P1 1.571908 1_555
O52 Y2 2.333058 1_555
O53 S0 1.491198 1_555
O53 Y2 2.470059 1_555
O54 S1 1.478448 1_555
O55 P11 1.557494 1_655
O56 P12 1.537790 1_545
O57 P13 1.550206 1_545
O57 Y3 2.272476 1_555
O58 S2 1.497517 1_555
O58 Y3 2.413296 1_555
O59 P14 1.569555 1_655
O59 Y3 2.334511 1_555
O60 P10 1.562353 1_555
O60 Y4 2.321539 1_555
O61 P8 1.575590 1_455
O61 Y4 2.273968 1_555
O62 P9 1.557568 1_565
O62 Y4 2.302103 1_555
O63 P6 1.565686 1_565
O64 P7 1.551210 1_555
O65 P5 1.550828 1_455
O66 S0 1.502594 1_565
O66 Y5 2.362363 1_555
O67 P0 1.568197 1_555
O67 Y5 2.330207 1_555
O68 P1 1.550092 1_455
O68 Y5 2.259031 1_555
O69 P2 1.549042 1_555
O70 P3 1.567468 1_555
O71 P4 1.554682 1_565
