# generated using pymatgen
data_EuCuSb
_symmetry_space_group_name_H-M   'P 1'
_cell_length_a   4.47384051
_cell_length_b   4.47383963
_cell_length_c   8.57021048
_cell_angle_alpha   90.00000000
_cell_angle_beta   90.00000000
_cell_angle_gamma   119.99999873
_symmetry_Int_Tables_number   1
_chemical_formula_structural   EuCuSb
_chemical_formula_sum   'Eu2 Cu2 Sb2'
_cell_volume   148.55355035
_cell_formula_units_Z   2
loop_
 _symmetry_equiv_pos_site_id
 _symmetry_equiv_pos_as_xyz
  1  'x, y, z'
loop_
 _atom_site_type_symbol
 _atom_site_label
 _atom_site_symmetry_multiplicity
 _atom_site_fract_x
 _atom_site_fract_y
 _atom_site_fract_z
 _atom_site_occupancy
  Eu  Eu0  1  0.00000000  0.00000000  0.00000000  1
  Eu  Eu1  1  0.00000000  0.00000000  0.50000000  1
  Cu  Cu0  1  0.33333300  0.66666700  0.75000000  1
  Cu  Cu1  1  0.66666700  0.33333300  0.25000000  1
  Sb  Sb0  1  0.33333300  0.66666700  0.25000000  1
  Sb  Sb1  1  0.66666700  0.33333300  0.75000000  1
loop_
_geom_bond_atom_site_label_1
_geom_bond_atom_site_label_2
_geom_bond_distance
_geom_bond_site_symmetry_2
Eu0 Sb1 3.355930 1_454
Eu0 Sb0 3.355930 1_545
Eu0 Sb0 3.355933 1_555
Eu0 Sb1 3.355933 1_444
Eu0 Sb0 3.355933 1_445
Eu0 Sb1 3.355933 1_554
Eu1 Sb1 3.355930 1_455
Eu1 Sb0 3.355930 1_545
Eu1 Sb0 3.355933 1_555
Eu1 Sb1 3.355933 1_445
Eu1 Sb0 3.355933 1_445
Eu1 Sb1 3.355933 1_555
Cu0 Sb1 2.582970 1_565
Cu0 Sb1 2.582970 1_455
Cu0 Sb1 2.582978 1_555
Cu0 Eu1 3.355930 1_565
Cu0 Eu0 3.355930 1_566
Cu0 Eu1 3.355933 1_555
Cu0 Eu0 3.355933 1_556
Cu0 Eu0 3.355933 1_666
Cu0 Eu1 3.355933 1_665
Cu1 Sb0 2.582970 1_545
Cu1 Sb0 2.582970 1_655
Cu1 Sb0 2.582978 1_555
Cu1 Eu1 3.355930 1_655
Cu1 Eu0 3.355930 1_655
Cu1 Eu0 3.355933 1_665
Cu1 Eu1 3.355933 1_665
Cu1 Eu1 3.355933 1_555
Cu1 Eu0 3.355933 1_555
