# generated using pymatgen
data_Na3Ga4P3(SO8)3
_symmetry_space_group_name_H-M   'P 1'
_cell_length_a   8.57516269
_cell_length_b   8.57681570
_cell_length_c   22.15589709
_cell_angle_alpha   88.93399174
_cell_angle_beta   90.92383411
_cell_angle_gamma   120.05106855
_symmetry_Int_Tables_number   1
_chemical_formula_structural   Na3Ga4P3(SO8)3
_chemical_formula_sum   'Na9 Ga12 P9 S9 O72'
_cell_volume   1410.18500964
_cell_formula_units_Z   3
loop_
 _symmetry_equiv_pos_site_id
 _symmetry_equiv_pos_as_xyz
  1  'x, y, z'
loop_
 _atom_site_type_symbol
 _atom_site_label
 _atom_site_symmetry_multiplicity
 _atom_site_fract_x
 _atom_site_fract_y
 _atom_site_fract_z
 _atom_site_occupancy
  Na  Na0  1  0.36155341  0.36180859  0.25103021  1
  Na  Na1  1  0.69503121  0.02834789  0.91670207  1
  Na  Na2  1  0.97137878  0.30462924  0.41674044  1
  Na  Na3  1  0.00342012  0.99713461  0.50044881  1
  Na  Na4  1  0.00221495  0.99589519  0.00065597  1
  Na  Na5  1  0.66295837  0.33603678  0.83279122  1
  Na  Na6  1  0.66660017  0.33327793  0.33334538  1
  Na  Na7  1  0.33203267  0.67572785  0.16613128  1
  Na  Na8  1  0.33334251  0.66665698  0.66670322  1
  Ga  Ga0  1  0.01524043  0.00363051  0.35095554  1
  Ga  Ga1  1  0.99748686  0.99173231  0.85128266  1
  Ga  Ga2  1  0.99147313  0.00630912  0.64885804  1
  Ga  Ga3  1  0.99907309  0.00540839  0.14927045  1
  Ga  Ga4  1  0.67525255  0.32707739  0.68456187  1
  Ga  Ga5  1  0.66906208  0.31588430  0.18478803  1
  Ga  Ga6  1  0.66011119  0.33117941  0.98193250  1
  Ga  Ga7  1  0.66874957  0.34119452  0.48212138  1
  Ga  Ga8  1  0.34607701  0.68230762  0.01753167  1
  Ga  Ga9  1  0.31864759  0.65428979  0.51765411  1
  Ga  Ga10  1  0.31877306  0.66382167  0.31567628  1
  Ga  Ga11  1  0.34857457  0.67982703  0.81589515  1
  P  P0  1  0.28917950  0.99604805  0.24870026  1
  P  P1  1  0.99703088  0.28882726  0.25051590  1
  P  P2  1  0.70958235  0.99965399  0.75028012  1
  P  P3  1  0.95719836  0.33366229  0.58312601  1
  P  P4  1  0.66821794  0.04162626  0.08276621  1
  P  P5  1  0.62279976  0.66109216  0.91708617  1
  P  P6  1  0.32796763  0.95650976  0.91618886  1
  P  P7  1  0.33876664  0.37832027  0.41661285  1
  P  P8  1  0.04230489  0.67139860  0.41698771  1
  S  S0  1  0.71135407  0.71138539  0.24999313  1
  S  S1  1  0.29150290  0.29159327  0.74992650  1
  S  S2  1  0.00018086  0.70936119  0.74927970  1
  S  S3  1  0.37522989  0.04186508  0.58345224  1
  S  S4  1  0.66647492  0.62392692  0.58409714  1
  S  S5  1  0.95690429  0.62331932  0.08330414  1
  S  S6  1  0.37529426  0.33425344  0.08353528  1
  S  S7  1  0.04828027  0.38145732  0.91666753  1
  S  S8  1  0.62000841  0.95252901  0.41710151  1
  O  O0  1  0.21368451  0.04035445  0.30479702  1
  O  O1  1  0.82160415  0.78820991  0.30497325  1
  O  O2  1  0.96286554  0.17343787  0.30888700  1
  O  O3  1  0.21309655  0.17779580  0.80478379  1
  O  O4  1  0.96782861  0.78641340  0.80385128  1
  O  O5  1  0.82599743  0.03532198  0.80856892  1
  O  O6  1  0.79176746  0.96415687  0.69465595  1
  O  O7  1  0.18020707  0.21174494  0.69480527  1
  O  O8  1  0.03441629  0.82387753  0.69441136  1
  O  O9  1  0.78757269  0.82096016  0.19479891  1
  O  O10  1  0.03903914  0.20957065  0.19523497  1
  O  O11  1  0.17089730  0.96336137  0.19218708  1
  O  O12  1  0.87497756  0.36920202  0.63866540  1
  O  O13  1  0.48651533  0.12164821  0.63846498  1
  O  O14  1  0.63226763  0.50946594  0.63887332  1
  O  O15  1  0.87605251  0.51192040  0.13868759  1
  O  O16  1  0.63101980  0.12286578  0.13819765  1
  O  O17  1  0.48741018  0.36823909  0.13948747  1
  O  O18  1  0.45541086  0.30268848  0.02988458  1
  O  O19  1  0.84417691  0.54471499  0.02844015  1
  O  O20  1  0.70277165  0.15841716  0.02453987  1
  O  O21  1  0.45361239  0.15569526  0.52846681  1
  O  O22  1  0.69870089  0.54677720  0.52942670  1
  O  O23  1  0.84081397  0.29798861  0.52480104  1
  O  O24  1  0.54401982  0.70409960  0.97252546  1
  O  O25  1  0.15737133  0.45783463  0.97197074  1
  O  O26  1  0.29224394  0.83935908  0.97331018  1
  O  O27  1  0.54247606  0.84292045  0.47232285  1
  O  O28  1  0.29738838  0.45876925  0.47173195  1
  O  O29  1  0.16046724  0.70710477  0.47353442  1
  O  O30  1  0.11906543  0.62596944  0.36153277  1
  O  O31  1  0.51086907  0.87631800  0.36174175  1
  O  O32  1  0.37153317  0.49244439  0.35796688  1
  O  O33  1  0.12476470  0.49088842  0.86122600  1
  O  O34  1  0.37116227  0.87791367  0.86077194  1
  O  O35  1  0.50603912  0.62589896  0.86003016  1
  O  O36  1  0.01877827  0.83667241  0.40908024  1
  O  O37  1  0.80386173  0.97621706  0.41119125  1
  O  O38  1  0.16293968  0.19149696  0.41055320  1
  O  O39  1  0.02422300  0.19679135  0.91115340  1
  O  O40  1  0.16199879  0.97945619  0.90817783  1
  O  O41  1  0.80991647  0.83667200  0.90994252  1
  O  O42  1  0.97687555  0.16337249  0.58960586  1
  O  O43  1  0.19364412  0.02230035  0.59031923  1
  O  O44  1  0.83189320  0.80377298  0.59017557  1
  O  O45  1  0.97569164  0.80432742  0.08931134  1
  O  O46  1  0.83854285  0.02312688  0.09031876  1
  O  O47  1  0.19577563  0.16973425  0.08935541  1
  O  O48  1  0.68991082  0.16989278  0.74374911  1
  O  O49  1  0.47310349  0.31110242  0.74296802  1
  O  O50  1  0.83475255  0.52953231  0.74312719  1
  O  O51  1  0.68785297  0.52733594  0.24340998  1
  O  O52  1  0.83152996  0.31296625  0.24384992  1
  O  O53  1  0.47633762  0.17335698  0.24231599  1
  O  O54  1  0.64597543  0.49533486  0.92509466  1
  O  O55  1  0.86353762  0.35760378  0.92210840  1
  O  O56  1  0.50341306  0.14347383  0.92335614  1
  O  O57  1  0.64275715  0.13693394  0.42242158  1
  O  O58  1  0.50470970  0.35520414  0.42460742  1
  O  O59  1  0.85543821  0.49562714  0.42377238  1
  O  O60  1  0.35513455  0.49568248  0.07643583  1
  O  O61  1  0.13625269  0.63764896  0.07721641  1
  O  O62  1  0.49734144  0.85296454  0.07726187  1
  O  O63  1  0.36135598  0.86317137  0.57717436  1
  O  O64  1  0.50546328  0.64494684  0.57666691  1
  O  O65  1  0.14672560  0.50330034  0.57744318  1
  O  O66  1  0.31380400  0.83137589  0.25702474  1
  O  O67  1  0.52817179  0.68933006  0.25586938  1
  O  O68  1  0.17209553  0.47602590  0.25634003  1
  O  O69  1  0.30541592  0.47032606  0.75615533  1
  O  O70  1  0.16117739  0.68828608  0.75666242  1
  O  O71  1  0.52013021  0.82991535  0.75586513  1
loop_
_geom_bond_atom_site_label_1
_geom_bond_atom_site_label_2
_geom_bond_distance
_geom_bond_site_symmetry_2
Na0 O68 2.284154 1_555
Na0 O53 2.286855 1_555
Na0 O51 2.429201 1_555
Na0 O67 2.435241 1_555
Na0 O32 2.621524 1_555
Na0 O0 2.655826 1_555
Na0 O10 2.686041 1_555
Na0 O17 2.701221 1_555
Na1 O41 2.309024 1_545
Na1 O56 2.309739 1_555
Na1 O39 2.447645 1_655
Na1 O55 2.448925 1_555
Na1 O20 2.641459 1_556
Na1 O5 2.649298 1_555
Na1 O24 2.693975 1_545
Na1 O34 2.696847 1_545
Na2 O38 2.295044 1_655
Na2 O59 2.311265 1_555
Na2 O37 2.442812 1_545
Na2 O57 2.443547 1_555
Na2 O2 2.644561 1_555
Na2 O23 2.646956 1_555
Na2 O30 2.669215 1_655
Na2 O28 2.701124 1_655
Na3 O43 2.496148 1_565
Na3 O38 2.509484 1_565
Na3 O36 2.510621 1_555
Na3 O44 2.528718 1_455
Na3 O42 2.535953 1_465
Na3 O37 2.543220 1_455
Na4 O45 2.475803 1_455
Na4 O41 2.522584 1_454
Na4 O47 2.522966 1_565
Na4 O40 2.527875 1_554
Na4 O46 2.531069 1_465
Na4 O39 2.548744 1_564
Na5 O49 2.493881 1_555
Na5 O56 2.515526 1_555
Na5 O54 2.526469 1_555
Na5 O50 2.528642 1_555
Na5 O48 2.534785 1_555
Na5 O55 2.548310 1_555
Na6 O52 2.512438 1_555
Na6 O59 2.513157 1_555
Na6 O57 2.513392 1_555
Na6 O51 2.521587 1_555
Na6 O53 2.523171 1_555
Na6 O58 2.533211 1_555
Na7 O62 2.453074 1_555
Na7 O61 2.484790 1_555
Na7 O66 2.486209 1_555
Na7 O68 2.533299 1_555
Na7 O67 2.549472 1_555
Na7 O60 2.608909 1_555
Na8 O71 2.486622 1_555
Na8 O65 2.488054 1_555
Na8 O69 2.511573 1_555
Na8 O63 2.513683 1_555
Na8 O70 2.563104 1_555
Na8 O64 2.564474 1_555
Ga0 O0 1.883655 1_555
Ga0 O36 1.919252 1_545
Ga0 O2 1.944913 1_455
Ga0 O38 1.981232 1_555
Ga0 O1 2.037548 1_445
Ga0 O37 2.182066 1_445
Ga1 O40 1.917475 1_655
Ga1 O5 1.921061 1_565
Ga1 O4 1.970225 1_555
Ga1 O41 1.976260 1_555
Ga1 O3 2.017823 1_665
Ga1 O39 2.139745 1_665
Ga2 O6 1.874912 1_545
Ga2 O42 1.910902 1_555
Ga2 O7 1.979341 1_655
Ga2 O8 2.027018 1_645
Ga2 O44 2.055836 1_545
Ga2 O43 2.129378 1_655
Ga3 O10 1.916986 1_655
Ga3 O11 1.918174 1_645
Ga3 O46 1.941178 1_555
Ga3 O9 1.983820 1_545
Ga3 O47 2.053128 1_655
Ga3 O45 2.123599 1_545
Ga4 O12 1.876321 1_555
Ga4 O48 1.910901 1_555
Ga4 O13 1.981042 1_555
Ga4 O14 2.028345 1_555
Ga4 O50 2.053658 1_555
Ga4 O49 2.127455 1_555
Ga5 O16 1.850522 1_555
Ga5 O52 1.904959 1_555
Ga5 O53 1.958755 1_555
Ga5 O15 2.006578 1_555
Ga5 O17 2.066100 1_555
Ga5 O51 2.188652 1_555
Ga6 O54 1.919067 1_555
Ga6 O20 1.923606 1_556
Ga6 O18 1.972446 1_556
Ga6 O56 1.984090 1_555
Ga6 O19 2.007454 1_556
Ga6 O55 2.125701 1_555
Ga7 O23 1.923049 1_555
Ga7 O58 1.929433 1_555
Ga7 O59 1.966677 1_555
Ga7 O22 1.969774 1_555
Ga7 O21 2.012386 1_555
Ga7 O57 2.134016 1_555
Ga8 O26 1.883225 1_554
Ga8 O24 1.907954 1_554
Ga8 O62 1.921313 1_555
Ga8 O25 2.059984 1_554
Ga8 O60 2.077221 1_555
Ga8 O61 2.121417 1_555
Ga9 O29 1.885937 1_555
Ga9 O28 1.905753 1_555
Ga9 O65 1.921532 1_555
Ga9 O27 2.049828 1_555
Ga9 O64 2.083118 1_555
Ga9 O63 2.120843 1_555
Ga10 O30 1.886102 1_555
Ga10 O66 1.935386 1_555
Ga10 O32 1.960682 1_555
Ga10 O68 1.975116 1_555
Ga10 O31 2.021126 1_555
Ga10 O67 2.168053 1_555
Ga11 O35 1.886664 1_555
Ga11 O34 1.907779 1_555
Ga11 O71 1.921706 1_555
Ga11 O33 2.050560 1_555
Ga11 O70 2.086883 1_555
Ga11 O69 2.127017 1_555
O0 P0 1.548598 1_545
O1 S0 1.476700 1_555
O2 P1 1.553067 1_555
O3 S1 1.485553 1_555
O4 S2 1.483157 1_655
O5 P2 1.557315 1_545
O6 P2 1.537870 1_555
O7 S1 1.486692 1_555
O8 S2 1.485594 1_555
O9 S0 1.474332 1_555
O10 P1 1.543515 1_455
O11 P0 1.537026 1_555
O12 P3 1.536681 1_555
O13 S3 1.484601 1_555
O14 S4 1.483711 1_555
O15 S5 1.489842 1_555
O16 P4 1.537085 1_555
O17 S6 1.496798 1_555
O18 S6 1.477439 1_555
O19 S5 1.485404 1_555
O20 P4 1.556410 1_555
O21 S3 1.487951 1_555
O22 S4 1.484974 1_555
O23 P3 1.557829 1_555
O24 P5 1.547372 1_555
O25 S7 1.478082 1_555
O26 P6 1.536884 1_555
O27 S8 1.476532 1_555
O28 P7 1.543985 1_555
O29 P8 1.533837 1_555
O30 P8 1.547721 1_555
O31 S8 1.479082 1_555
O32 P7 1.553821 1_555
O33 S7 1.478678 1_555
O34 P6 1.547472 1_555
O35 P5 1.536981 1_555
O36 P8 1.535189 1_555
O37 S8 1.492939 1_555
O38 P7 1.562260 1_555
O39 S7 1.498397 1_555
O40 P6 1.538456 1_555
O41 P5 1.564193 1_555
O42 P3 1.555800 1_555
O43 S3 1.490284 1_555
O44 S4 1.489878 1_555
O45 S5 1.486722 1_555
O46 P4 1.552305 1_555
O47 S6 1.483763 1_555
O48 P2 1.555422 1_545
O49 S1 1.490845 1_555
O50 S2 1.489989 1_655
O51 S0 1.497578 1_555
O52 P1 1.537914 1_555
O53 P0 1.569492 1_545
O54 P5 1.537717 1_555
O55 S7 1.498901 1_655
O56 P6 1.563838 1_545
O57 S8 1.500206 1_545
O58 P7 1.539060 1_555
O59 P8 1.562988 1_655
O60 S6 1.484027 1_555
O61 S5 1.488397 1_455
O62 P4 1.551504 1_565
O63 S3 1.485669 1_565
O64 S4 1.485533 1_555
O65 P3 1.551003 1_455
O66 P0 1.536593 1_555
O67 S0 1.492742 1_555
O68 P1 1.560633 1_455
O69 S1 1.485735 1_555
O70 S2 1.485583 1_555
O71 P2 1.550812 1_555
