# generated using pymatgen
data_K3HoMgV2O8
_symmetry_space_group_name_H-M   'P 1'
_cell_length_a   6.15213357
_cell_length_b   6.25981723
_cell_length_c   8.05121325
_cell_angle_alpha   87.01533269
_cell_angle_beta   89.97363420
_cell_angle_gamma   119.42849453
_symmetry_Int_Tables_number   1
_chemical_formula_structural   K3HoMgV2O8
_chemical_formula_sum   'K3 Ho1 Mg1 V2 O8'
_cell_volume   269.56743802
_cell_formula_units_Z   1
loop_
 _symmetry_equiv_pos_site_id
 _symmetry_equiv_pos_as_xyz
  1  'x, y, z'
loop_
 _atom_site_type_symbol
 _atom_site_label
 _atom_site_symmetry_multiplicity
 _atom_site_fract_x
 _atom_site_fract_y
 _atom_site_fract_z
 _atom_site_occupancy
  K  K0  1  0.71103200  0.42250200  0.72727600  1
  K  K1  1  0.28896800  0.57749800  0.27272400  1
  K  K2  1  0.00000000  0.00000000  0.00000000  1
  Ho  Ho0  1  0.00000000  0.00000000  0.50000000  1
  Mg  Mg0  1  0.50000000  0.00000000  0.50000000  1
  V  V0  1  0.69107100  0.38154100  0.24620400  1
  V  V1  1  0.30892900  0.61845900  0.75379600  1
  O  O0  1  0.67396100  0.34765800  0.03701100  1
  O  O1  1  0.32603900  0.65234300  0.96298900  1
  O  O2  1  0.18795900  0.81739000  0.63985200  1
  O  O3  1  0.15604800  0.31223700  0.68266400  1
  O  O4  1  0.62924000  0.81738500  0.63979500  1
  O  O5  1  0.81204100  0.18261000  0.36014800  1
  O  O6  1  0.84395200  0.68776300  0.31733600  1
  O  O7  1  0.37076000  0.18261500  0.36020500  1
loop_
_geom_bond_atom_site_label_1
_geom_bond_atom_site_label_2
_geom_bond_distance
_geom_bond_site_symmetry_2
K0 O0 2.502614 1_556
K0 O4 2.810848 1_555
K0 O2 2.811504 1_655
K0 O3 3.158196 1_555
K0 O3 3.159570 1_655
K1 O1 2.502614 1_554
K1 O7 2.810848 1_555
K1 O5 2.811504 1_455
K1 O6 3.158196 1_555
K1 O6 3.159570 1_455
K2 O6 2.983860 1_445
K2 O3 2.983860 1_554
Ho0 O7 2.253382 1_555
Ho0 O4 2.253382 1_445
Ho0 O5 2.253386 1_455
Ho0 O2 2.253386 1_545
Ho0 O3 2.315491 1_555
Ho0 O6 2.315491 1_445
Mg0 O4 1.991417 1_545
Mg0 O7 1.991417 1_555
Mg0 O5 1.991831 1_555
Mg0 O2 1.991831 1_545
O0 V0 1.705349 1_555
O1 V1 1.705350 1_555
O2 V1 1.933529 1_555
O3 V1 1.797282 1_555
O4 V1 1.935013 1_555
O5 V0 1.933529 1_555
O6 V0 1.797282 1_555
O7 V0 1.935013 1_555
