# generated using pymatgen
data_VO2
_symmetry_space_group_name_H-M   'P 1'
_cell_length_a   7.55010249
_cell_length_b   8.42638959
_cell_length_c   8.42705837
_cell_angle_alpha   90.00007840
_cell_angle_beta   90.00000000
_cell_angle_gamma   90.00000000
_symmetry_Int_Tables_number   1
_chemical_formula_structural   VO2
_chemical_formula_sum   'V16 O32'
_cell_volume   536.13033855
_cell_formula_units_Z   16
loop_
 _symmetry_equiv_pos_site_id
 _symmetry_equiv_pos_as_xyz
  1  'x, y, z'
loop_
 _atom_site_type_symbol
 _atom_site_label
 _atom_site_symmetry_multiplicity
 _atom_site_fract_x
 _atom_site_fract_y
 _atom_site_fract_z
 _atom_site_occupancy
  V  V0  1  0.75000000  0.50026204  0.04528184  1
  V  V1  1  0.99987593  0.29524012  0.25017308  1
  V  V2  1  0.49987337  0.70475877  0.25017386  1
  V  V3  1  0.49999891  -0.00000057  0.95491277  1
  V  V4  1  0.00012663  0.70475877  0.25017386  1
  V  V5  1  0.25000000  0.49973563  0.04529064  1
  V  V6  1  0.00000109  -0.00000057  0.95491277  1
  V  V7  1  0.50012407  0.29524012  0.25017308  1
  V  V8  1  0.75000000  0.79548309  0.74995048  1
  V  V9  1  0.25000000  0.79505716  0.75019625  1
  V  V10  1  0.75000000  0.50014240  0.45473500  1
  V  V11  1  0.00000091  -0.00000026  0.54552879  1
  V  V12  1  0.25000000  0.20451618  0.74995243  1
  V  V13  1  0.49999909  -0.00000026  0.54552879  1
  V  V14  1  0.75000000  0.20494283  0.75019613  1
  V  V15  1  0.25000000  0.49985477  0.45472983  1
  O  O0  1  0.49999975  0.50000014  0.40149643  1
  O  O1  1  0.50008517  0.15133477  0.74985643  1
  O  O2  1  0.75000000  -0.00000868  0.59834550  1
  O  O3  1  0.99991483  0.15133477  0.74985643  1
  O  O4  1  0.25000000  0.00000718  0.59834153  1
  O  O5  1  0.49999707  0.50000063  0.09870948  1
  O  O6  1  0.25000000  0.00001996  0.90109665  1
  O  O7  1  0.75000000  0.65154617  0.25009780  1
  O  O8  1  0.00008338  0.84866666  0.74986106  1
  O  O9  1  0.25000000  0.34845928  0.25009303  1
  O  O10  1  0.75000000  0.34879407  0.25032994  1
  O  O11  1  0.00000025  0.50000014  0.40149643  1
  O  O12  1  0.00000293  0.50000063  0.09870948  1
  O  O13  1  0.49991662  0.84866666  0.74986106  1
  O  O14  1  0.25000000  0.65120102  0.25032697  1
  O  O15  1  0.75000000  -0.00002082  0.90109259  1
  O  O16  1  0.75000000  0.65755529  0.59255450  1
  O  O17  1  0.25000000  0.34261159  0.90720122  1
  O  O18  1  0.75000000  0.34287689  0.90739334  1
  O  O19  1  0.99977251  0.15725153  0.40717516  1
  O  O20  1  0.25000000  0.34245189  0.59254981  1
  O  O21  1  0.50022733  0.15726268  0.09265312  1
  O  O22  1  0.00022708  0.84273587  0.09265296  1
  O  O23  1  0.49977292  0.84273587  0.09265296  1
  O  O24  1  0.25000000  0.65712124  0.90740147  1
  O  O25  1  0.00022788  0.84274794  0.40717600  1
  O  O26  1  0.75000000  0.34304325  0.59299341  1
  O  O27  1  0.49977212  0.84274794  0.40717600  1
  O  O28  1  0.50022749  0.15725153  0.40717516  1
  O  O29  1  0.99977267  0.15726268  0.09265312  1
  O  O30  1  0.75000000  0.65739949  0.90719494  1
  O  O31  1  0.25000000  0.65695548  0.59298943  1
loop_
_geom_bond_atom_site_label_1
_geom_bond_atom_site_label_2
_geom_bond_distance
_geom_bond_site_symmetry_2
O0 V15 1.940101 1_555
O0 V10 1.940114 1_555
O0 V2 2.145478 1_555
O0 V7 2.145488 1_555
O1 V14 1.940203 1_555
O1 V12 1.940618 1_555
O1 V13 2.142667 1_555
O1 V3 2.147610 1_555
O2 V11 1.939300 1_655
O2 V13 1.939300 1_555
O2 V8 2.145198 1_545
O2 V14 2.149428 1_555
O3 V14 1.940203 1_555
O3 V12 1.940618 1_655
O3 V11 2.142667 1_655
O3 V6 2.147610 1_655
O4 V13 1.939279 1_555
O4 V11 1.939279 1_555
O4 V12 2.145230 1_555
O4 V9 2.149442 1_545
O5 V5 1.940444 1_555
O5 V0 1.940504 1_555
O5 V2 2.146182 1_555
O5 V7 2.146197 1_555
O6 V6 1.941235 1_555
O6 V3 1.941235 1_555
O6 V12 2.142806 1_555
O6 V9 2.144747 1_545
O7 V4 1.940984 1_655
O7 V2 1.940984 1_555
O7 V10 2.145112 1_555
O7 V0 2.145721 1_555
O8 V9 1.940219 1_555
O8 V8 1.940609 1_455
O8 V11 2.142692 1_565
O8 V6 2.147563 1_565
O9 V1 1.940978 1_455
O9 V7 1.940978 1_555
O9 V15 2.145064 1_555
O9 V5 2.145593 1_555
O10 V1 1.939809 1_555
O10 V7 1.939809 1_555
O10 V10 2.143258 1_555
O10 V0 2.148218 1_555
O11 V15 1.940101 1_555
O11 V10 1.940114 1_455
O11 V4 2.145478 1_555
O11 V1 2.145488 1_455
O12 V5 1.940444 1_555
O12 V0 1.940504 1_455
O12 V4 2.146182 1_555
O12 V1 2.146197 1_455
O13 V9 1.940219 1_555
O13 V8 1.940609 1_555
O13 V13 2.142692 1_565
O13 V3 2.147563 1_565
O14 V2 1.939798 1_555
O14 V4 1.939798 1_555
O14 V15 2.143236 1_555
O14 V5 2.148122 1_555
O15 V3 1.941259 1_555
O15 V6 1.941259 1_655
O15 V8 2.142792 1_545
O15 V14 2.144736 1_555
O16 V10 1.763029 1_555
O16 V8 1.763542 1_555
O17 V5 1.762700 1_556
O17 V12 1.763541 1_555
O18 V14 1.762317 1_555
O18 V0 1.763237 1_556
O19 V1 1.761387 1_555
O19 V11 1.764982 1_655
O20 V15 1.762971 1_555
O20 V12 1.763630 1_555
O21 V3 1.761642 1_554
O21 V7 1.764603 1_555
O22 V6 1.761646 1_564
O22 V4 1.764610 1_555
O23 V3 1.761646 1_564
O23 V2 1.764610 1_555
O24 V9 1.762381 1_555
O24 V5 1.763246 1_556
O25 V4 1.761388 1_555
O25 V11 1.764975 1_565
O26 V14 1.763279 1_555
O26 V10 1.763485 1_555
O27 V2 1.761388 1_555
O27 V13 1.764975 1_565
O28 V7 1.761387 1_555
O28 V13 1.764982 1_555
O29 V6 1.761642 1_654
O29 V1 1.764603 1_555
O30 V0 1.762773 1_556
O30 V8 1.763450 1_555
O31 V9 1.763310 1_555
O31 V15 1.763499 1_555
