# generated using pymatgen
data_MgHg2(BiO3)4
_symmetry_space_group_name_H-M   'P 1'
_cell_length_a   5.21405466
_cell_length_b   5.48327665
_cell_length_c   10.48257598
_cell_angle_alpha   87.73151485
_cell_angle_beta   91.93927683
_cell_angle_gamma   95.01143222
_symmetry_Int_Tables_number   1
_chemical_formula_structural   MgHg2(BiO3)4
_chemical_formula_sum   'Mg1 Hg2 Bi4 O12'
_cell_volume   298.17931240
_cell_formula_units_Z   1
loop_
 _symmetry_equiv_pos_site_id
 _symmetry_equiv_pos_as_xyz
  1  'x, y, z'
loop_
 _atom_site_type_symbol
 _atom_site_label
 _atom_site_symmetry_multiplicity
 _atom_site_fract_x
 _atom_site_fract_y
 _atom_site_fract_z
 _atom_site_occupancy
  Mg  Mg0  1  0.31732193  0.66350312  0.38243975  1
  Hg  Hg0  1  0.99489693  0.97652181  0.99457277  1
  Hg  Hg1  1  0.78026964  0.50658386  0.52907033  1
  Bi  Bi0  1  0.95288808  0.03281740  0.32818168  1
  Bi  Bi1  1  0.01382913  0.01250857  0.67682775  1
  Bi  Bi2  1  0.50358486  0.45666802  0.14846307  1
  Bi  Bi3  1  0.48921239  0.49308947  0.81708993  1
  O  O0  1  0.20642211  0.79429047  0.81802036  1
  O  O1  1  0.17934359  0.83248541  0.22052806  1
  O  O2  1  0.13443034  0.83036203  0.50591922  1
  O  O3  1  0.29926430  0.29480553  0.97808373  1
  O  O4  1  0.25019812  0.32304438  0.33145847  1
  O  O5  1  0.28506059  0.32596678  0.65449347  1
  O  O6  1  0.67935016  0.70359914  0.33251953  1
  O  O7  1  0.67802776  0.74292203  0.67579882  1
  O  O8  1  0.68972413  0.66376744  0.98214109  1
  O  O9  1  0.77339880  0.13141471  0.50116264  1
  O  O10  1  0.77255902  0.18052082  0.16250379  1
  O  O11  1  0.80021811  0.22262902  0.80447554  1
loop_
_geom_bond_atom_site_label_1
_geom_bond_atom_site_label_2
_geom_bond_distance
_geom_bond_site_symmetry_2
Mg0 O2 1.936910 1_555
Mg0 O4 1.960947 1_555
Mg0 O6 1.967378 1_555
Mg0 O1 2.041104 1_555
Hg0 O8 2.239805 1_555
Hg0 O3 2.259438 1_665
Hg0 O0 2.473279 1_655
Hg0 O10 2.492900 1_566
Hg0 O11 2.590726 1_565
Hg0 O1 2.643736 1_656
Hg1 O9 2.086340 1_555
Hg1 O7 2.159463 1_555
Hg1 O6 2.353449 1_555
Hg1 O2 2.458506 1_655
Bi0 O1 2.071044 1_645
Bi0 O10 2.113623 1_555
Bi0 O4 2.122859 1_655
Bi0 O9 2.176465 1_555
Bi0 O6 2.200691 1_545
Bi0 O2 2.345243 1_645
Bi1 O5 2.138902 1_555
Bi1 O0 2.144726 1_545
Bi1 O7 2.190582 1_445
Bi1 O11 2.192147 1_455
Bi1 O2 2.220418 1_545
Bi1 O9 2.297609 1_455
Bi2 O10 2.149578 1_555
Bi2 O3 2.223518 1_554
Bi2 O8 2.244207 1_554
Bi2 O4 2.419341 1_555
Bi2 O6 2.503208 1_555
Bi3 O5 2.169871 1_555
Bi3 O7 2.177600 1_555
Bi3 O3 2.188796 1_555
Bi3 O8 2.190243 1_555
Bi3 O11 2.301429 1_555
Bi3 O0 2.308588 1_555
