# generated using pymatgen
data_Fe2MoP12
_symmetry_space_group_name_H-M   'P 1'
_cell_length_a   5.67055316
_cell_length_b   11.08862282
_cell_length_c   13.71525310
_cell_angle_alpha   90.00000000
_cell_angle_beta   90.00000000
_cell_angle_gamma   90.00000000
_symmetry_Int_Tables_number   1
_chemical_formula_structural   Fe2MoP12
_chemical_formula_sum   'Fe8 Mo4 P48'
_cell_volume   862.39625881
_cell_formula_units_Z   4
loop_
 _symmetry_equiv_pos_site_id
 _symmetry_equiv_pos_as_xyz
  1  'x, y, z'
loop_
 _atom_site_type_symbol
 _atom_site_label
 _atom_site_symmetry_multiplicity
 _atom_site_fract_x
 _atom_site_fract_y
 _atom_site_fract_z
 _atom_site_occupancy
  Fe  Fe0  1  0.60358657  0.45854155  0.15048866  1
  Fe  Fe1  1  0.60358657  0.04145845  0.84951134  1
  Fe  Fe2  1  0.89641343  0.95854155  0.34951134  1
  Fe  Fe3  1  0.89641343  0.54145845  0.65048866  1
  Fe  Fe4  1  0.39641343  0.54145845  0.84951134  1
  Fe  Fe5  1  0.39641343  0.95854155  0.15048866  1
  Fe  Fe6  1  0.10358657  0.04145845  0.65048866  1
  Fe  Fe7  1  0.10358657  0.45854155  0.34951134  1
  Mo  Mo0  1  0.60015775  0.25000000  0.50000000  1
  Mo  Mo1  1  0.89984225  0.75000000  0.00000000  1
  Mo  Mo2  1  0.39984225  0.75000000  0.50000000  1
  Mo  Mo3  1  0.10015775  0.25000000  0.00000000  1
  P  P0  1  0.96839336  0.50013251  0.20237566  1
  P  P1  1  0.96839336  -0.00013251  0.79762434  1
  P  P2  1  0.53160664  0.00013251  0.29762434  1
  P  P3  1  0.53160664  0.49986749  0.70237566  1
  P  P4  1  0.03160664  0.49986749  0.79762434  1
  P  P5  1  0.03160664  0.00013251  0.20237566  1
  P  P6  1  0.46839336  -0.00013251  0.70237566  1
  P  P7  1  0.46839336  0.50013251  0.29762434  1
  P  P8  1  0.73445517  0.43942909  0.40824123  1
  P  P9  1  0.73445517  0.06057091  0.59175877  1
  P  P10  1  0.76554483  0.93942909  0.09175877  1
  P  P11  1  0.76554483  0.56057091  0.90824123  1
  P  P12  1  0.98369269  0.19565223  0.16885878  1
  P  P13  1  0.98369269  0.30434777  0.83114122  1
  P  P14  1  0.51630731  0.69565223  0.33114122  1
  P  P15  1  0.51630731  0.80434777  0.66885878  1
  P  P16  1  0.01630731  0.80434777  0.83114122  1
  P  P17  1  0.01630731  0.69565223  0.16885878  1
  P  P18  1  0.48369269  0.30434777  0.66885878  1
  P  P19  1  0.48369269  0.19565223  0.33114122  1
  P  P20  1  0.11946516  0.27041983  0.31072832  1
  P  P21  1  0.11946516  0.22958017  0.68927168  1
  P  P22  1  0.38053484  0.77041983  0.18927168  1
  P  P23  1  0.38053484  0.72958017  0.81072832  1
  P  P24  1  0.88053484  0.72958017  0.68927168  1
  P  P25  1  0.88053484  0.77041983  0.31072832  1
  P  P26  1  0.61946516  0.22958017  0.81072832  1
  P  P27  1  0.61946516  0.27041983  0.18927168  1
  P  P28  1  0.25358084  0.39888827  0.49198842  1
  P  P29  1  0.25358084  0.10111173  0.50801158  1
  P  P30  1  0.24641916  0.89888827  0.00801158  1
  P  P31  1  0.24641916  0.60111173  0.99198842  1
  P  P32  1  0.74641916  0.60111173  0.50801158  1
  P  P33  1  0.74641916  0.89888827  0.49198842  1
  P  P34  1  0.75358084  0.10111173  0.99198842  1
  P  P35  1  0.75358084  0.39888827  0.00801158  1
  P  P36  1  0.43883786  0.14420480  0.08719918  1
  P  P37  1  0.43883786  0.35579520  0.91280082  1
  P  P38  1  0.06116214  0.64420480  0.41280082  1
  P  P39  1  0.06116214  0.85579520  0.58719918  1
  P  P40  1  0.56116214  0.85579520  0.91280082  1
  P  P41  1  0.56116214  0.64420480  0.08719918  1
  P  P42  1  0.93883786  0.35579520  0.58719918  1
  P  P43  1  0.93883786  0.14420480  0.41280082  1
  P  P44  1  0.23445517  0.43942909  0.09175877  1
  P  P45  1  0.23445517  0.06057091  0.90824123  1
  P  P46  1  0.26554483  0.93942909  0.40824123  1
  P  P47  1  0.26554483  0.56057091  0.59175877  1
loop_
_geom_bond_atom_site_label_1
_geom_bond_atom_site_label_2
_geom_bond_distance
_geom_bond_site_symmetry_2
Fe0 P27 2.154643 1_555
Fe0 P7 2.207427 1_555
Fe0 P35 2.231485 1_555
Fe0 P0 2.235725 1_555
Fe0 P41 2.247177 1_555
Fe0 P44 2.252806 1_555
Fe1 P26 2.154643 1_555
Fe1 P6 2.207427 1_555
Fe1 P34 2.231485 1_555
Fe1 P1 2.235725 1_555
Fe1 P40 2.247177 1_545
Fe1 P45 2.252806 1_555
Fe2 P25 2.154643 1_555
Fe2 P5 2.207427 1_665
Fe2 P33 2.231485 1_555
Fe2 P2 2.235725 1_565
Fe2 P43 2.247177 1_565
Fe2 P46 2.252806 1_655
Fe3 P24 2.154643 1_555
Fe3 P4 2.207427 1_655
Fe3 P32 2.231485 1_555
Fe3 P3 2.235725 1_555
Fe3 P42 2.247177 1_555
Fe3 P47 2.252806 1_655
Fe4 P23 2.154643 1_555
Fe4 P3 2.207427 1_555
Fe4 P31 2.231485 1_555
Fe4 P4 2.235725 1_555
Fe4 P37 2.247177 1_555
Fe4 P11 2.252806 1_555
Fe5 P22 2.154643 1_555
Fe5 P2 2.207427 1_565
Fe5 P30 2.231485 1_555
Fe5 P5 2.235725 1_565
Fe5 P36 2.247177 1_565
Fe5 P10 2.252806 1_555
Fe6 P21 2.154643 1_555
Fe6 P1 2.207427 1_455
Fe6 P29 2.231485 1_555
Fe6 P6 2.235725 1_555
Fe6 P39 2.247177 1_545
Fe6 P9 2.252806 1_455
Fe7 P20 2.154643 1_555
Fe7 P0 2.207427 1_455
Fe7 P28 2.231485 1_555
Fe7 P7 2.235725 1_555
Fe7 P38 2.247177 1_555
Fe7 P8 2.252806 1_455
Mo0 P19 2.482522 1_555
Mo0 P18 2.482522 1_555
Mo0 P43 2.548503 1_555
Mo0 P42 2.548503 1_555
Mo0 P9 2.564349 1_555
Mo0 P8 2.564349 1_555
Mo0 P29 2.569066 1_555
Mo0 P28 2.569066 1_555
Mo1 P17 2.482522 1_655
Mo1 P16 2.482522 1_654
Mo1 P40 2.548503 1_554
Mo1 P41 2.548503 1_555
Mo1 P11 2.564349 1_554
Mo1 P10 2.564349 1_555
Mo1 P31 2.569066 1_654
Mo1 P30 2.569066 1_655
Mo2 P15 2.482522 1_555
Mo2 P14 2.482522 1_555
Mo2 P38 2.548503 1_555
Mo2 P39 2.548503 1_555
Mo2 P46 2.564349 1_555
Mo2 P47 2.564349 1_555
Mo2 P32 2.569066 1_555
Mo2 P33 2.569066 1_555
Mo3 P13 2.482522 1_454
Mo3 P12 2.482522 1_455
Mo3 P37 2.548503 1_554
Mo3 P36 2.548503 1_555
Mo3 P45 2.564349 1_554
Mo3 P44 2.564349 1_555
Mo3 P35 2.569066 1_455
Mo3 P34 2.569066 1_454
P0 P17 2.232835 1_655
P0 P44 2.242995 1_655
P1 P16 2.232835 1_645
P1 P45 2.242995 1_655
P2 P46 2.242995 1_545
P3 P47 2.242995 1_555
P6 P9 2.242995 1_555
P7 P8 2.242995 1_555
P10 P5 2.242995 1_665
P10 P34 2.256396 1_564
P11 P4 2.242995 1_655
P11 P35 2.256396 1_556
P12 P5 2.232835 1_655
P12 P27 2.243100 1_555
P12 P20 2.250813 1_655
P13 P4 2.232835 1_655
P13 P26 2.243100 1_555
P13 P21 2.250813 1_655
P14 P7 2.232835 1_555
P14 P25 2.243100 1_555
P14 P22 2.250813 1_555
P15 P6 2.232835 1_565
P15 P24 2.243100 1_555
P15 P23 2.250813 1_555
P16 P23 2.243100 1_555
P16 P24 2.250813 1_455
P17 P22 2.243100 1_555
P17 P25 2.250813 1_455
P18 P3 2.232835 1_555
P18 P21 2.243100 1_555
P18 P26 2.250813 1_555
P19 P2 2.232835 1_555
P19 P20 2.243100 1_555
P19 P27 2.250813 1_555
P20 P43 2.228835 1_455
P21 P42 2.228835 1_455
P22 P41 2.228835 1_555
P23 P40 2.228835 1_555
P24 P39 2.228835 1_655
P25 P38 2.228835 1_655
P26 P37 2.228835 1_555
P27 P36 2.228835 1_555
P28 P47 2.256396 1_555
P28 P42 2.262508 1_455
P29 P46 2.256396 1_545
P29 P43 2.262508 1_455
P30 P45 2.256396 1_564
P30 P40 2.262508 1_554
P31 P44 2.256396 1_556
P31 P41 2.262508 1_556
P32 P8 2.256396 1_555
P32 P38 2.262508 1_655
P33 P9 2.256396 1_565
P33 P39 2.262508 1_655
P34 P36 2.262508 1_556
P35 P37 2.262508 1_554
