# generated using pymatgen
data_MgCo6O7F5
_symmetry_space_group_name_H-M   'P 1'
_cell_length_a   4.90166211
_cell_length_b   4.95897754
_cell_length_c   8.74983447
_cell_angle_alpha   89.09508156
_cell_angle_beta   88.87631335
_cell_angle_gamma   98.18932311
_symmetry_Int_Tables_number   1
_chemical_formula_structural   MgCo6O7F5
_chemical_formula_sum   'Mg1 Co6 O7 F5'
_cell_volume   210.43786369
_cell_formula_units_Z   1
loop_
 _symmetry_equiv_pos_site_id
 _symmetry_equiv_pos_as_xyz
  1  'x, y, z'
loop_
 _atom_site_type_symbol
 _atom_site_label
 _atom_site_symmetry_multiplicity
 _atom_site_fract_x
 _atom_site_fract_y
 _atom_site_fract_z
 _atom_site_occupancy
  Mg  Mg0  1  0.00197100  0.51040200  0.33700100  1
  Co  Co0  1  0.96759500  0.99088600  0.00468000  1
  Co  Co1  1  0.05126900  0.02381300  0.34101800  1
  Co  Co2  1  0.00722500  0.99269900  0.66597200  1
  Co  Co3  1  0.54081900  0.39246200  0.14456900  1
  Co  Co4  1  0.46943700  0.51127300  0.83546500  1
  Co  Co5  1  0.46057200  0.54707500  0.51903300  1
  O  O0  1  0.17756900  0.79610600  0.49111500  1
  O  O1  1  0.33554500  0.32721900  0.34563700  1
  O  O2  1  0.29944200  0.26543900  0.98261600  1
  O  O3  1  0.29921800  0.32697000  0.67492100  1
  O  O4  1  0.66195300  0.70595400  0.67507400  1
  O  O5  1  0.67646700  0.68691400  0.99603700  1
  O  O6  1  0.86466600  0.20407700  0.18688800  1
  F  F0  1  0.15634600  0.77943000  0.17224300  1
  F  F1  1  0.17019400  0.78821300  0.83901300  1
  F  F2  1  0.70171200  0.73013800  0.34691900  1
  F  F3  1  0.80914200  0.18074000  0.83671500  1
  F  F4  1  0.83497000  0.24019000  0.49793400  1
loop_
_geom_bond_atom_site_label_1
_geom_bond_atom_site_label_2
_geom_bond_distance
_geom_bond_site_symmetry_2
Mg0 O1 1.982465 1_555
Mg0 O6 2.071743 1_455
Mg0 O0 2.079662 1_555
Co0 O5 1.925961 1_554
Co0 F3 1.964415 1_564
Co0 O2 1.971104 1_664
Co0 O6 2.021792 1_565
Co0 F1 2.090799 1_654
Co0 F0 2.094321 1_655
Co1 O0 1.888746 1_545
Co1 O1 1.901024 1_555
Co1 O6 1.922942 1_455
Co1 F0 2.029600 1_545
Co1 F2 2.083892 1_445
Co1 F4 2.115198 1_455
Co2 O3 2.033466 1_565
Co2 F1 2.046593 1_555
Co2 O4 2.048926 1_455
Co2 O0 2.053612 1_555
Co2 F3 2.071052 1_465
Co2 F4 2.160528 1_465
Co3 O2 1.919979 1_554
Co3 O5 1.973027 1_554
Co3 O6 1.991039 1_555
Co3 O1 2.008011 1_555
Co3 F2 2.516537 1_555
Co4 O3 1.836849 1_555
Co4 O4 1.854116 1_555
Co4 O2 1.859358 1_555
Co4 O5 1.898729 1_555
Co4 F1 2.147541 1_555
Co4 F3 2.497420 1_555
Co5 O4 1.823329 1_555
Co5 O3 1.828141 1_555
Co5 O1 1.940222 1_555
Co5 O0 2.000208 1_555
Co5 F2 2.017538 1_555
Co5 F4 2.551305 1_555
F0 Mg0 2.009854 1_555
F2 Mg0 1.953425 1_655
F4 Mg0 2.007776 1_655
