# generated using pymatgen
data_Li3V(PO4)2
_symmetry_space_group_name_H-M   'P 1'
_cell_length_a   4.91790612
_cell_length_b   4.91790612
_cell_length_c   6.27619655
_cell_angle_alpha   89.65095049
_cell_angle_beta   89.65095049
_cell_angle_gamma   67.54643468
_symmetry_Int_Tables_number   1
_chemical_formula_structural   Li3V(PO4)2
_chemical_formula_sum   'Li3 V1 P2 O8'
_cell_volume   140.28340839
_cell_formula_units_Z   1
loop_
 _symmetry_equiv_pos_site_id
 _symmetry_equiv_pos_as_xyz
  1  'x, y, z'
loop_
 _atom_site_type_symbol
 _atom_site_label
 _atom_site_symmetry_multiplicity
 _atom_site_fract_x
 _atom_site_fract_y
 _atom_site_fract_z
 _atom_site_occupancy
  Li  Li0  1  0.17484500  0.17484500  0.27319000  1
  Li  Li1  1  0.50000000  0.50000000  0.50000000  1
  Li  Li2  1  0.82515500  0.82515500  0.72681000  1
  V  V0  1  0.50000000  0.50000000  0.00000000  1
  P  P0  1  0.14981300  0.14981300  0.76330000  1
  P  P1  1  0.85018700  0.85018700  0.23670000  1
  O  O0  1  0.74004800  0.74004800  0.03324100  1
  O  O1  1  0.74563400  0.74563400  0.43654100  1
  O  O2  1  0.80407900  0.26295400  0.77070600  1
  O  O3  1  0.26295400  0.80407900  0.77070600  1
  O  O4  1  0.73704600  0.19592100  0.22929400  1
  O  O5  1  0.19592100  0.73704600  0.22929400  1
  O  O6  1  0.25995200  0.25995200  0.96675900  1
  O  O7  1  0.25436600  0.25436600  0.56345900  1
loop_
_geom_bond_atom_site_label_1
_geom_bond_atom_site_label_2
_geom_bond_distance
_geom_bond_site_symmetry_2
Li0 O7 1.938807 1_555
Li0 O6 2.040428 1_554
Li0 O5 2.135111 1_545
Li0 O4 2.135111 1_455
Li1 O7 2.044542 1_555
Li1 O1 2.044542 1_555
Li1 O2 2.270925 1_555
Li1 O3 2.270925 1_555
Li1 O4 2.270925 1_555
Li1 O5 2.270925 1_555
Li2 O1 1.938807 1_555
Li2 O0 2.040428 1_556
Li2 O3 2.135111 1_655
Li2 O2 2.135111 1_565
O0 P1 1.567909 1_555
O0 V0 1.975201 1_555
O1 P1 1.512655 1_555
O2 P0 1.574616 1_655
O2 V0 2.080594 1_556
O3 P0 1.574616 1_565
O3 V0 2.080594 1_556
O4 P1 1.574616 1_545
O4 V0 2.080594 1_555
O5 P1 1.574616 1_455
O5 V0 2.080594 1_555
O6 P0 1.567909 1_555
O6 V0 1.975201 1_556
O7 P0 1.512655 1_555
