# generated using pymatgen
data_MgTe4Mo2W2(SeS)2
_symmetry_space_group_name_H-M   'P 1'
_cell_length_a   3.39592804
_cell_length_b   3.39573645
_cell_length_c   46.38387357
_cell_angle_alpha   89.99304332
_cell_angle_beta   89.98803276
_cell_angle_gamma   119.98960635
_symmetry_Int_Tables_number   1
_chemical_formula_structural   MgTe4Mo2W2(SeS)2
_chemical_formula_sum   'Mg1 Te4 Mo2 W2 Se2 S2'
_cell_volume   463.27146644
_cell_formula_units_Z   1
loop_
 _symmetry_equiv_pos_site_id
 _symmetry_equiv_pos_as_xyz
  1  'x, y, z'
loop_
 _atom_site_type_symbol
 _atom_site_label
 _atom_site_symmetry_multiplicity
 _atom_site_fract_x
 _atom_site_fract_y
 _atom_site_fract_z
 _atom_site_occupancy
  Mg  Mg0  1  0.00075700  0.99916000  0.19766400  1
  Te  Te0  1  0.33296300  0.66665900  0.69827800  1
  Te  Te1  1  0.66698200  0.33319000  0.04635100  1
  Te  Te2  1  0.66635900  0.33321200  0.12745200  1
  Te  Te3  1  0.33348100  0.66678200  0.61712000  1
  Mo  Mo0  1  0.33330400  0.66654400  0.08676800  1
  Mo  Mo1  1  0.66665900  0.33357900  0.28983100  1
  W  W0  1  0.33323400  0.66673200  0.46928700  1
  W  W1  1  0.66657900  0.33338900  0.65770800  1
  Se  Se0  1  0.66684200  0.33351000  0.43364000  1
  Se  Se1  1  0.66630100  0.33332100  0.50498200  1
  S  S0  1  0.33341900  0.66652900  0.32202600  1
  S  S1  1  0.33312000  0.66739400  0.25729600  1
loop_
_geom_bond_atom_site_label_1
_geom_bond_atom_site_label_2
_geom_bond_distance
_geom_bond_site_symmetry_2
Te0 W1 2.717432 1_565
Te0 W1 2.717554 1_455
Te0 W1 2.717866 1_555
Te3 W1 2.717743 1_555
Te3 W1 2.718386 1_455
Te3 W1 2.718457 1_565
Mo0 Te1 2.712345 1_565
Mo0 Te1 2.712511 1_455
Mo0 Te1 2.713267 1_555
Mo0 Te2 2.720609 1_555
Mo0 Te2 2.721562 1_455
Mo0 Te2 2.721673 1_565
Mo1 S0 2.463276 1_555
Mo1 S0 2.465240 1_545
Mo1 S0 2.465329 1_655
Mo1 S1 2.473430 1_545
Mo1 S1 2.473477 1_655
Mo1 S1 2.475702 1_555
Se0 W0 2.564693 1_655
Se0 W0 2.564753 1_545
Se0 W0 2.564942 1_555
Se1 W0 2.565715 1_555
Se1 W0 2.566423 1_545
Se1 W0 2.566557 1_655
