# generated using pymatgen
data_Na5Ca2Ti2P5SO24
_symmetry_space_group_name_H-M   'P 1'
_cell_length_a   9.06851134
_cell_length_b   9.06892409
_cell_length_c   22.30935807
_cell_angle_alpha   90.13364106
_cell_angle_beta   89.70369074
_cell_angle_gamma   119.81880741
_symmetry_Int_Tables_number   1
_chemical_formula_structural   Na5Ca2Ti2P5SO24
_chemical_formula_sum   'Na15 Ca6 Ti6 P15 S3 O72'
_cell_volume   1591.81905359
_cell_formula_units_Z   3
loop_
 _symmetry_equiv_pos_site_id
 _symmetry_equiv_pos_as_xyz
  1  'x, y, z'
loop_
 _atom_site_type_symbol
 _atom_site_label
 _atom_site_symmetry_multiplicity
 _atom_site_fract_x
 _atom_site_fract_y
 _atom_site_fract_z
 _atom_site_occupancy
  Na  Na0  1  0.64302734  0.00760300  0.25323992  1
  Na  Na1  1  0.37423461  0.37488633  0.24473347  1
  Na  Na2  1  0.98919281  0.61869849  0.25145532  1
  Na  Na3  1  0.64014642  0.63139076  0.74665325  1
  Na  Na4  1  0.98511447  0.34851676  0.74525891  1
  Na  Na5  1  0.36655368  0.01756653  0.74493955  1
  Na  Na6  1  0.30599846  0.96516826  0.07478283  1
  Na  Na7  1  0.02958559  0.34885392  0.07623235  1
  Na  Na8  1  0.70378681  0.67308868  0.42327791  1
  Na  Na9  1  0.00683329  0.00480560  0.50481075  1
  Na  Na10  1  0.99754257  0.99434543  0.98950914  1
  Na  Na11  1  0.66463413  0.33236926  0.83500615  1
  Na  Na12  1  0.68334246  0.32283428  0.34240072  1
  Na  Na13  1  0.35024037  0.66065171  0.15970774  1
  Na  Na14  1  0.33853214  0.66340491  0.66191950  1
  Ca  Ca0  1  0.00102406  0.00468249  0.36164520  1
  Ca  Ca1  1  0.00359782  0.00447498  0.85279934  1
  Ca  Ca2  1  0.66806049  0.33502645  0.66946335  1
  Ca  Ca3  1  0.66794938  0.33959264  0.17806403  1
  Ca  Ca4  1  0.33900968  0.66432245  0.01415769  1
  Ca  Ca5  1  0.32850911  0.67019179  0.32204008  1
  Ti  Ti0  1  0.99763113  0.99991817  0.64705128  1
  Ti  Ti1  1  0.98442727  0.99507096  0.14167656  1
  Ti  Ti2  1  0.67000666  0.33101268  0.98278220  1
  Ti  Ti3  1  0.67628704  0.32916112  0.49382063  1
  Ti  Ti4  1  0.33104059  0.67638983  0.51777800  1
  Ti  Ti5  1  0.31927935  0.67090616  0.81942106  1
  P  P0  1  0.70972543  0.71301700  0.24981967  1
  P  P1  1  0.00344930  0.29032632  0.24537958  1
  P  P2  1  0.29045138  0.30154476  0.74772962  1
  P  P3  1  0.00676497  0.70875551  0.74900500  1
  P  P4  1  0.69769085  0.98988436  0.74874022  1
  P  P5  1  0.98357173  0.33486948  0.58511301  1
  P  P6  1  0.35594019  0.02685615  0.58442077  1
  P  P7  1  0.66549087  0.64582729  0.58281662  1
  P  P8  1  0.95941488  0.63911507  0.08391369  1
  P  P9  1  0.67431692  0.03928127  0.08474372  1
  P  P10  1  0.35787028  0.31767022  0.08536978  1
  P  P11  1  0.02165625  0.37565208  0.92078237  1
  P  P12  1  0.35167798  0.97824058  0.92126568  1
  P  P13  1  0.62388328  0.97528666  0.42133777  1
  P  P14  1  0.02125563  0.64752385  0.42192225  1
  S  S0  1  0.28633947  0.99588593  0.24565701  1
  S  S1  1  0.62347334  0.64669122  0.91442566  1
  S  S2  1  0.35358345  0.37610018  0.42228198  1
  O  O0  1  0.20109068  0.00664614  0.29980187  1
  O  O1  1  0.80147555  0.79075082  0.30831984  1
  O  O2  1  0.99608107  0.18936869  0.30028470  1
  O  O3  1  0.22157152  0.19394984  0.80320023  1
  O  O4  1  0.97026864  0.77785434  0.80486691  1
  O  O5  1  0.80501369  0.02487518  0.80382306  1
  O  O6  1  0.80066608  0.96831166  0.69338221  1
  O  O7  1  0.16645009  0.19824998  0.69314480  1
  O  O8  1  0.03431597  0.82979563  0.69376592  1
  O  O9  1  0.82616440  0.82736582  0.19462487  1
  O  O10  1  0.00375279  0.18489726  0.18703795  1
  O  O11  1  0.19205082  0.99238522  0.19010646  1
  O  O12  1  0.93385067  0.37703795  0.64480445  1
  O  O13  1  0.44508701  0.07148523  0.64434085  1
  O  O14  1  0.62121650  0.55181741  0.64220277  1
  O  O15  1  0.90157058  0.54907842  0.14405060  1
  O  O16  1  0.65405545  0.10684036  0.14469145  1
  O  O17  1  0.43854091  0.33652449  0.14653101  1
  O  O18  1  0.47103252  0.30133626  0.03423828  1
  O  O19  1  0.83433815  0.52755484  0.03228474  1
  O  O20  1  0.69866818  0.17098446  0.03300496  1
  O  O21  1  0.47463231  0.16519977  0.53727809  1
  O  O22  1  0.69067590  0.53650563  0.53282432  1
  O  O23  1  0.84232719  0.31179879  0.53767503  1
  O  O24  1  0.54940545  0.66521432  0.96943046  1
  O  O25  1  0.11249129  0.44676094  0.97893163  1
  O  O26  1  0.33564117  0.88554981  0.97874310  1
  O  O27  1  0.49455235  0.84042077  0.46594230  1
  O  O28  1  0.34525784  0.48645670  0.46884929  1
  O  O29  1  0.15146284  0.65260942  0.46772753  1
  O  O30  1  0.07245960  0.62489611  0.35819738  1
  O  O31  1  0.54929831  0.92678278  0.35784650  1
  O  O32  1  0.37375197  0.45736387  0.36222991  1
  O  O33  1  0.13561806  0.50210656  0.86554664  1
  O  O34  1  0.36298997  0.86475022  0.86513174  1
  O  O35  1  0.51659126  0.63617479  0.86002731  1
  O  O36  1  0.00123261  0.80507646  0.42947285  1
  O  O37  1  0.79117847  0.97332956  0.42892393  1
  O  O38  1  0.20252591  0.20639140  0.42605452  1
  O  O39  1  0.98771714  0.19702384  0.91148487  1
  O  O40  1  0.20276370  0.00663779  0.91319224  1
  O  O41  1  0.79692401  0.78931747  0.90951438  1
  O  O42  1  0.98667691  0.16534857  0.58654849  1
  O  O43  1  0.18122664  0.01864521  0.58631017  1
  O  O44  1  0.83391646  0.82063828  0.58729364  1
  O  O45  1  0.96551245  0.81554168  0.08466156  1
  O  O46  1  0.84768223  0.03673583  0.08306402  1
  O  O47  1  0.18323637  0.14226057  0.08393169  1
  O  O48  1  0.66572884  0.13943270  0.73902923  1
  O  O49  1  0.47269513  0.33551275  0.73795258  1
  O  O50  1  0.86319090  0.52569180  0.73945944  1
  O  O51  1  0.68191856  0.53157622  0.24636266  1
  O  O52  1  0.84523728  0.31238583  0.24612997  1
  O  O53  1  0.46133996  0.14487757  0.24581309  1
  O  O54  1  0.62431061  0.48102774  0.91614956  1
  O  O55  1  0.84910127  0.37884539  0.92210694  1
  O  O56  1  0.52494864  0.15151589  0.92207011  1
  O  O57  1  0.64704692  0.15389487  0.43614200  1
  O  O58  1  0.51228718  0.36529402  0.43003237  1
  O  O59  1  0.84208863  0.48722108  0.43482833  1
  O  O60  1  0.31802535  0.46085264  0.07795353  1
  O  O61  1  0.14130596  0.67296483  0.07553805  1
  O  O62  1  0.52341262  0.86400983  0.07684716  1
  O  O63  1  0.32588143  0.84578836  0.56666171  1
  O  O64  1  0.51605172  0.67655111  0.56529375  1
  O  O65  1  0.16014639  0.48381435  0.56655987  1
  O  O66  1  0.29678621  0.83632788  0.24490672  1
  O  O67  1  0.53897613  0.71131086  0.24396702  1
  O  O68  1  0.16892371  0.46477918  0.24110060  1
  O  O69  1  0.28967159  0.47504962  0.75324377  1
  O  O70  1  0.18303885  0.70745243  0.75683333  1
  O  O71  1  0.52269953  0.81774733  0.75365840  1
loop_
_geom_bond_atom_site_label_1
_geom_bond_atom_site_label_2
_geom_bond_distance
_geom_bond_site_symmetry_2
Na0 O67 2.373026 1_545
Na0 O52 2.446635 1_555
Na0 O31 2.464499 1_545
Na0 O53 2.517090 1_555
Na0 O16 2.569529 1_555
Na0 O66 2.731384 1_545
Na1 O17 2.333638 1_555
Na1 O68 2.376785 1_555
Na1 O51 2.421487 1_555
Na1 O53 2.571919 1_555
Na1 O67 2.647215 1_555
Na1 O32 2.724802 1_555
Na2 O52 2.414268 1_555
Na2 O51 2.493020 1_555
Na2 O66 2.493887 1_655
Na2 O30 2.493977 1_655
Na2 O15 2.507023 1_555
Na2 O68 2.629765 1_655
Na3 O49 2.343497 1_555
Na3 O71 2.408791 1_555
Na3 O14 2.419353 1_555
Na3 O50 2.638191 1_555
Na3 O69 2.765489 1_555
Na3 O35 2.770056 1_555
Na3 O6 2.905706 1_555
Na3 O4 2.913897 1_555
Na4 O12 2.332060 1_555
Na4 O50 2.364377 1_555
Na4 O69 2.414273 1_655
Na4 O48 2.558261 1_555
Na4 O70 2.841588 1_655
Na4 O7 2.848604 1_655
Na4 O5 2.866636 1_555
Na4 O33 3.022273 1_655
Na5 O13 2.329250 1_555
Na5 O48 2.369505 1_555
Na5 O70 2.468552 1_545
Na5 O49 2.550547 1_555
Na5 O71 2.807709 1_545
Na5 O3 2.835658 1_555
Na5 O8 2.864397 1_545
Na5 O34 3.013895 1_545
Na6 O61 2.305882 1_555
Na6 O26 2.316064 1_554
Na6 O47 2.373742 1_565
Na6 O62 2.555586 1_555
Na6 O45 2.692815 1_455
Na6 O18 2.795291 1_565
Na6 O11 2.823329 1_555
Na7 O60 2.287737 1_555
Na7 O25 2.322468 1_554
Na7 O46 2.472298 1_455
Na7 O61 2.589366 1_555
Na7 O20 2.783181 1_455
Na7 O10 2.835721 1_555
Na7 O47 2.842816 1_555
Na7 O15 2.999913 1_455
Na8 O36 2.349434 1_655
Na8 O37 2.431312 1_555
Na8 O58 2.451238 1_555
Na8 O59 2.566822 1_555
Na8 O22 2.717677 1_555
Na8 O1 2.747720 1_555
Na9 O43 2.377810 1_555
Na9 O42 2.393169 1_455
Na9 O36 2.450218 1_545
Na9 O44 2.452433 1_445
Na9 O37 2.499825 1_445
Na9 O38 2.516898 1_555
Na10 O40 2.477196 1_665
Na10 O39 2.568230 1_565
Na10 O41 2.570207 1_555
Na10 O45 2.600252 1_556
Na10 O46 2.614842 1_566
Na10 O47 2.617158 1_666
Na11 O54 2.387546 1_555
Na11 O56 2.447562 1_555
Na11 O55 2.465871 1_555
Na11 O48 2.765120 1_555
Na11 O50 2.774497 1_555
Na11 O49 2.794141 1_555
Na12 O57 2.517050 1_555
Na12 O59 2.535500 1_555
Na12 O52 2.623357 1_555
Na12 O58 2.633583 1_555
Na12 O53 2.845742 1_555
Na12 O51 2.866686 1_555
Na13 O67 2.433362 1_555
Na13 O60 2.481684 1_555
Na13 O68 2.497127 1_555
Na13 O62 2.527875 1_555
Na13 O66 2.670290 1_555
Na13 O61 2.716003 1_555
Na14 O69 2.553295 1_555
Na14 O71 2.575723 1_555
Na14 O64 2.650865 1_555
Na14 O70 2.675250 1_555
Na14 O65 2.682276 1_555
Na14 O63 2.733643 1_555
Ca0 O2 2.183400 1_455
Ca0 O1 2.230232 1_445
Ca0 O0 2.266638 1_555
Ca0 O37 2.321501 1_445
Ca0 O38 2.332527 1_555
Ca0 O36 2.362802 1_545
Ca1 O3 2.166250 1_555
Ca1 O5 2.196318 1_455
Ca1 O4 2.198643 1_445
Ca1 O39 2.240888 1_455
Ca1 O40 2.251138 1_555
Ca1 O41 2.295859 1_445
Ca2 O14 2.292288 1_555
Ca2 O13 2.305267 1_555
Ca2 O12 2.308985 1_555
Ca2 O49 2.335213 1_555
Ca2 O48 2.351747 1_555
Ca2 O50 2.352160 1_555
Ca3 O15 2.158881 1_555
Ca3 O16 2.180564 1_555
Ca3 O17 2.186589 1_555
Ca3 O51 2.267014 1_555
Ca3 O52 2.317989 1_555
Ca3 O53 2.367687 1_555
Ca4 O24 2.145021 1_554
Ca4 O25 2.169992 1_554
Ca4 O26 2.172318 1_554
Ca4 O62 2.243338 1_555
Ca4 O60 2.264293 1_555
Ca4 O61 2.282444 1_555
Ca5 O30 2.290113 1_555
Ca5 O31 2.331566 1_555
Ca5 O32 2.344577 1_555
Ca5 O66 2.400468 1_555
Ca5 O67 2.465043 1_555
Ca5 O68 2.481014 1_555
O0 S0 1.459830 1_545
O1 P0 1.521889 1_555
O2 P1 1.512172 1_655
O3 P2 1.505064 1_555
O4 P3 1.501236 1_655
O5 P4 1.503807 1_545
O6 P4 1.613749 1_555
O6 Ti0 1.952963 1_555
O7 P2 1.608163 1_555
O7 Ti0 1.976231 1_445
O8 P3 1.586326 1_555
O8 Ti0 2.024514 1_455
O9 P0 1.615592 1_555
O9 Ti1 1.894283 1_555
O10 P1 1.614011 1_555
O10 Ti1 1.926685 1_445
O11 S0 1.500589 1_555
O11 Ti1 2.186273 1_455
O12 P5 1.511893 1_555
O13 P6 1.512479 1_555
O14 P7 1.517460 1_555
O15 P8 1.521080 1_555
O16 P9 1.517685 1_555
O17 P10 1.520206 1_555
O18 P10 1.585737 1_555
O18 Ti2 2.035470 1_554
O19 P8 1.582280 1_555
O19 Ti2 1.995909 1_554
O20 P9 1.596611 1_555
O20 Ti2 1.953178 1_554
O21 P6 1.578031 1_555
O21 Ti3 1.944027 1_555
O22 P7 1.579994 1_555
O22 Ti3 2.014839 1_555
O23 P5 1.597157 1_555
O23 Ti3 1.871090 1_555
O24 S1 1.444969 1_555
O25 P11 1.502059 1_555
O26 P12 1.501180 1_555
O27 P13 1.558430 1_555
O27 Ti4 1.882954 1_555
O28 S2 1.468368 1_555
O28 Ti4 2.094218 1_555
O29 P14 1.548785 1_555
O29 Ti4 1.900978 1_555
O30 P14 1.537993 1_555
O31 P13 1.538966 1_555
O32 S2 1.496483 1_555
O33 P11 1.648164 1_555
O33 Ti5 1.905336 1_555
O34 P12 1.654024 1_555
O34 Ti5 1.894804 1_555
O35 S1 1.530053 1_555
O35 Ti5 2.167983 1_555
O36 P14 1.536064 1_555
O37 P13 1.536247 1_555
O38 S2 1.467997 1_555
O39 P11 1.505084 1_655
O40 P12 1.506994 1_545
O41 S1 1.461057 1_555
O42 P5 1.551975 1_555
O42 Ti0 2.059526 1_545
O43 P6 1.549067 1_555
O43 Ti0 2.081747 1_445
O44 P7 1.564884 1_555
O44 Ti0 2.057837 1_555
O45 P8 1.573287 1_555
O45 Ti1 2.003250 1_555
O46 P9 1.584020 1_555
O46 Ti1 1.968622 1_545
O47 P10 1.591994 1_555
O47 Ti1 2.069411 1_445
O48 P4 1.537306 1_545
O49 P2 1.537558 1_555
O50 P3 1.532414 1_655
O51 P0 1.537552 1_555
O52 P1 1.544019 1_655
O53 S0 1.487193 1_545
O54 S1 1.506761 1_555
O54 Ti2 2.192916 1_555
O55 P11 1.579541 1_655
O55 Ti2 1.984334 1_555
O56 P12 1.575818 1_545
O56 Ti2 2.023205 1_555
O57 P13 1.561007 1_545
O57 Ti3 1.956364 1_555
O58 S2 1.501246 1_555
O58 Ti3 2.202982 1_555
O59 P14 1.576156 1_655
O59 Ti3 1.972919 1_555
O60 P10 1.520628 1_555
O61 P8 1.530829 1_455
O62 P9 1.506066 1_565
O63 P6 1.575009 1_565
O63 Ti4 1.901252 1_555
O64 P7 1.564773 1_555
O64 Ti4 1.988612 1_555
O65 P5 1.550686 1_455
O65 Ti4 1.983912 1_555
O66 S0 1.496438 1_555
O67 P0 1.547002 1_555
O68 P1 1.549872 1_555
O69 P2 1.581533 1_555
O69 Ti5 2.219066 1_555
O70 P3 1.614825 1_555
O70 Ti5 2.003293 1_555
O71 P4 1.581963 1_555
O71 Ti5 2.206089 1_555
