# generated using pymatgen
data_RbMnBr3
_symmetry_space_group_name_H-M   'P 1'
_cell_length_a   7.50776348
_cell_length_b   7.50777122
_cell_length_c   6.47950108
_cell_angle_alpha   90.00000000
_cell_angle_beta   90.00000000
_cell_angle_gamma   120.00002906
_symmetry_Int_Tables_number   1
_chemical_formula_structural   RbMnBr3
_chemical_formula_sum   'Rb2 Mn2 Br6'
_cell_volume   316.29598841
_cell_formula_units_Z   2
loop_
 _symmetry_equiv_pos_site_id
 _symmetry_equiv_pos_as_xyz
  1  'x, y, z'
loop_
 _atom_site_type_symbol
 _atom_site_label
 _atom_site_symmetry_multiplicity
 _atom_site_fract_x
 _atom_site_fract_y
 _atom_site_fract_z
 _atom_site_occupancy
  Rb  Rb0  1  0.33333300  0.66666700  0.75000000  1
  Rb  Rb1  1  0.66666700  0.33333300  0.25000000  1
  Mn  Mn0  1  -0.00000000  0.00000000  0.00000000  1
  Mn  Mn1  1  -0.00000000  0.00000000  0.50000000  1
  Br  Br0  1  0.16445929  0.32891758  0.25000000  1
  Br  Br1  1  0.83554071  0.16445829  0.75000000  1
  Br  Br2  1  0.32891758  0.16445929  0.75000000  1
  Br  Br3  1  0.67108242  0.83554071  0.25000000  1
  Br  Br4  1  0.16445929  0.83554171  0.25000000  1
  Br  Br5  1  0.83554071  0.67108242  0.75000000  1
loop_
_geom_bond_atom_site_label_1
_geom_bond_atom_site_label_2
_geom_bond_distance
_geom_bond_site_symmetry_2
Br0 Mn0 2.682832 1_555
Br0 Mn1 2.682832 1_555
Br0 Rb1 3.753991 1_555
Br0 Rb1 3.753992 1_455
Br0 Rb0 3.913884 1_555
Br0 Rb0 3.913884 1_554
Br1 Mn1 2.682832 1_655
Br1 Mn0 2.682832 1_656
Br1 Rb0 3.753988 1_545
Br1 Rb0 3.753996 1_655
Br1 Rb1 3.913880 1_555
Br1 Rb1 3.913880 1_556
Br2 Mn0 2.682830 1_556
Br2 Mn1 2.682830 1_555
Br2 Rb0 3.753995 1_545
Br2 Rb0 3.753995 1_555
Br2 Rb1 3.913882 1_555
Br2 Rb1 3.913882 1_556
Br3 Mn0 2.682830 1_665
Br3 Mn1 2.682830 1_665
Br3 Rb1 3.753995 1_565
Br3 Rb1 3.753995 1_555
Br3 Rb0 3.913882 1_554
Br3 Rb0 3.913882 1_555
Br4 Mn0 2.682832 1_565
Br4 Mn1 2.682832 1_565
Br4 Rb1 3.753988 1_565
Br4 Rb1 3.753996 1_455
Br4 Rb0 3.913880 1_555
Br4 Rb0 3.913880 1_554
Br5 Mn0 2.682832 1_666
Br5 Mn1 2.682832 1_665
Br5 Rb0 3.753991 1_555
Br5 Rb0 3.753992 1_655
Br5 Rb1 3.913884 1_555
Br5 Rb1 3.913884 1_556
