# generated using pymatgen
data_YbFeGe2O7
_symmetry_space_group_name_H-M   'P 1'
_cell_length_a   6.91153314
_cell_length_b   6.91153314
_cell_length_c   6.76979324
_cell_angle_alpha   68.59096326
_cell_angle_beta   68.59096326
_cell_angle_gamma   75.82142235
_symmetry_Int_Tables_number   1
_chemical_formula_structural   YbFeGe2O7
_chemical_formula_sum   'Yb2 Fe2 Ge4 O14'
_cell_volume   277.96181842
_cell_formula_units_Z   2
loop_
 _symmetry_equiv_pos_site_id
 _symmetry_equiv_pos_as_xyz
  1  'x, y, z'
loop_
 _atom_site_type_symbol
 _atom_site_label
 _atom_site_symmetry_multiplicity
 _atom_site_fract_x
 _atom_site_fract_y
 _atom_site_fract_z
 _atom_site_occupancy
  Yb  Yb0  1  0.20985600  0.79014400  0.00000000  1
  Yb  Yb1  1  0.79014400  0.20985600  0.00000000  1
  Fe  Fe0  1  0.30353200  0.69646800  0.50000000  1
  Fe  Fe1  1  0.69646800  0.30353200  0.50000000  1
  Ge  Ge0  1  0.22458800  0.22458800  0.46360100  1
  Ge  Ge1  1  0.77541200  0.77541200  0.53639900  1
  Ge  Ge2  1  0.29938200  0.29938200  0.91711900  1
  Ge  Ge3  1  0.70061800  0.70061800  0.08288100  1
  O  O0  1  0.04964300  0.71752600  0.42198600  1
  O  O1  1  0.28247400  0.95035700  0.57801400  1
  O  O2  1  0.95035700  0.28247400  0.57801400  1
  O  O3  1  0.71752600  0.04964300  0.42198600  1
  O  O4  1  0.62847700  0.62847700  0.47874900  1
  O  O5  1  0.37152300  0.37152300  0.52125100  1
  O  O6  1  0.86744900  0.86744900  0.04101100  1
  O  O7  1  0.13255100  0.13255100  0.95898900  1
  O  O8  1  0.79010200  0.42808700  0.18758200  1
  O  O9  1  0.57191300  0.20989800  0.81241800  1
  O  O10  1  0.42808700  0.79010200  0.18758200  1
  O  O11  1  0.20989800  0.57191300  0.81241800  1
  O  O12  1  0.67567800  0.67567800  0.83396100  1
  O  O13  1  0.32432200  0.32432200  0.16603900  1
loop_
_geom_bond_atom_site_label_1
_geom_bond_atom_site_label_2
_geom_bond_distance
_geom_bond_site_symmetry_2
Fe0 O10 1.891456 1_555
Fe0 O11 1.891456 1_555
Fe0 O0 1.968413 1_555
Fe0 O1 1.968413 1_555
Fe0 O4 2.140538 1_555
Fe0 O5 2.140538 1_555
Fe1 O9 1.891456 1_555
Fe1 O8 1.891456 1_555
Fe1 O3 1.968413 1_555
Fe1 O2 1.968413 1_555
Fe1 O4 2.140538 1_555
Fe1 O5 2.140538 1_555
Ge0 O1 1.770698 1_545
Ge0 O2 1.770698 1_455
Ge0 O13 1.792643 1_555
Ge0 O5 1.816295 1_555
Ge1 O0 1.770698 1_655
Ge1 O3 1.770698 1_565
Ge1 O12 1.792643 1_555
Ge1 O4 1.816295 1_555
Ge2 O7 1.706912 1_555
Ge2 O11 1.790957 1_555
Ge2 O9 1.790957 1_555
Ge2 O13 1.826961 1_556
Ge2 O5 2.418694 1_555
Ge3 O6 1.706912 1_555
Ge3 O10 1.790957 1_555
Ge3 O8 1.790957 1_555
Ge3 O12 1.826961 1_554
Ge3 O4 2.418694 1_555
O0 Yb0 2.560322 1_555
O1 Yb0 2.560322 1_556
O2 Yb1 2.560322 1_556
O3 Yb1 2.560322 1_555
O6 Yb1 2.229873 1_565
O6 Yb0 2.229873 1_655
O7 Yb1 2.229873 1_456
O7 Yb0 2.229873 1_546
O8 Yb1 2.299015 1_555
O9 Yb1 2.299015 1_556
O10 Yb0 2.299015 1_555
O11 Yb0 2.299015 1_556
O12 Yb1 3.002379 1_556
O12 Yb0 3.002379 1_556
O13 Yb0 3.002379 1_555
O13 Yb1 3.002379 1_555
