# generated using pymatgen
data_BaSrMg(FeO2)4
_symmetry_space_group_name_H-M   'P 1'
_cell_length_a   5.50277671
_cell_length_b   5.50277680
_cell_length_c   11.07756275
_cell_angle_alpha   90.00000000
_cell_angle_beta   90.00000000
_cell_angle_gamma   119.99999954
_symmetry_Int_Tables_number   1
_chemical_formula_structural   BaSrMg(FeO2)4
_chemical_formula_sum   'Ba1 Sr1 Mg1 Fe4 O8'
_cell_volume   290.49498576
_cell_formula_units_Z   1
loop_
 _symmetry_equiv_pos_site_id
 _symmetry_equiv_pos_as_xyz
  1  'x, y, z'
loop_
 _atom_site_type_symbol
 _atom_site_label
 _atom_site_symmetry_multiplicity
 _atom_site_fract_x
 _atom_site_fract_y
 _atom_site_fract_z
 _atom_site_occupancy
  Ba  Ba0  1  -0.00000000  -0.00000000  0.01651035  1
  Sr  Sr0  1  -0.00000000  -0.00000000  0.36880419  1
  Mg  Mg0  1  -0.00000000  -0.00000000  0.70928166  1
  Fe  Fe0  1  0.66666600  0.33333400  0.18082337  1
  Fe  Fe1  1  0.66666600  0.33333400  0.83909214  1
  Fe  Fe2  1  0.33333400  0.66666700  0.83909214  1
  Fe  Fe3  1  0.33333400  0.66666700  0.18082337  1
  O  O0  1  0.32104468  0.32104568  0.78917315  1
  O  O1  1  0.67895532  -0.00000000  0.78917315  1
  O  O2  1  0.99999900  0.67895332  0.78917315  1
  O  O3  1  0.66078860  0.66078760  0.23925626  1
  O  O4  1  0.00000100  0.33921140  0.23925626  1
  O  O5  1  0.33921140  -0.00000000  0.23925626  1
  O  O6  1  0.33333400  0.66666700  0.01123427  1
  O  O7  1  0.66666600  0.33333400  0.01123427  1
loop_
_geom_bond_atom_site_label_1
_geom_bond_atom_site_label_2
_geom_bond_distance
_geom_bond_site_symmetry_2
Ba0 O1 3.076208 1_454
Ba0 O0 3.076209 1_554
Ba0 O2 3.076212 1_444
Ba0 O4 3.093973 1_555
Ba0 O5 3.093975 1_555
Ba0 O3 3.093976 1_445
Ba0 O6 3.177564 1_445
Ba0 O7 3.177564 1_555
Ba0 O7 3.177564 1_445
Ba0 O6 3.177569 1_545
Ba0 O6 3.177569 1_555
Ba0 O7 3.177574 1_455
Mg0 O1 1.975914 1_455
Mg0 O0 1.975917 1_555
Mg0 O2 1.975922 1_445
Fe0 O7 1.878634 1_555
Fe0 O3 1.930070 1_555
Fe0 O5 1.930081 1_555
Fe0 O4 1.930091 1_655
Fe1 O7 1.906915 1_556
Fe1 O2 1.949069 1_555
Fe1 O0 1.949074 1_555
Fe1 O1 1.949083 1_555
Fe2 O6 1.906915 1_556
Fe2 O0 1.949072 1_555
Fe2 O1 1.949075 1_565
Fe2 O2 1.949079 1_455
Fe3 O6 1.878634 1_555
Fe3 O4 1.930081 1_555
Fe3 O5 1.930081 1_565
Fe3 O3 1.930081 1_555
O3 Sr0 2.354499 1_665
O4 Sr0 2.354494 1_555
O5 Sr0 2.354497 1_555
