# generated using pymatgen
data_Na2Y8SiS11O48
_symmetry_space_group_name_H-M   'P 1'
_cell_length_a   18.51187283
_cell_length_b   9.25168413
_cell_length_c   24.10446714
_cell_angle_alpha   89.98758264
_cell_angle_beta   89.99665091
_cell_angle_gamma   120.04067424
_symmetry_Int_Tables_number   1
_chemical_formula_structural   Na2Y8SiS11O48
_chemical_formula_sum   'Na6 Y24 Si3 S33 O144'
_cell_volume   3573.72522252
_cell_formula_units_Z   3
loop_
 _symmetry_equiv_pos_site_id
 _symmetry_equiv_pos_as_xyz
  1  'x, y, z'
loop_
 _atom_site_type_symbol
 _atom_site_label
 _atom_site_symmetry_multiplicity
 _atom_site_fract_x
 _atom_site_fract_y
 _atom_site_fract_z
 _atom_site_occupancy
  Na  Na0  1  0.00099389  0.99182078  0.49962535  1
  Na  Na1  1  0.50093816  0.01109350  0.99476482  1
  Na  Na2  1  0.33797307  0.33418877  0.83579784  1
  Na  Na3  1  0.83869106  0.34515993  0.82885080  1
  Na  Na4  1  0.33170930  0.33132098  0.33421289  1
  Na  Na5  1  0.84053442  0.34456803  0.33756998  1
  Y  Y0  1  0.00124665  0.99144203  0.35438433  1
  Y  Y1  1  0.49910865  0.99917220  0.35601102  1
  Y  Y2  1  0.99827757  0.98783249  0.85166325  1
  Y  Y3  1  0.50050467  0.01085603  0.85346328  1
  Y  Y4  1  0.00013257  0.99167756  0.65251008  1
  Y  Y5  1  0.50102333  0.99907504  0.64575163  1
  Y  Y6  1  0.99989383  0.00202368  0.14449529  1
  Y  Y7  1  0.49994113  0.99908960  0.14816176  1
  Y  Y8  1  0.33238840  0.33373757  0.68564709  1
  Y  Y9  1  0.83877445  0.34216754  0.68745157  1
  Y  Y10  1  0.33204036  0.33405466  0.18333904  1
  Y  Y11  1  0.83467166  0.33272226  0.18397206  1
  Y  Y12  1  0.33758715  0.33363526  0.97791409  1
  Y  Y13  1  0.83436217  0.33423344  0.98030403  1
  Y  Y14  1  0.33289206  0.33344101  0.48354106  1
  Y  Y15  1  0.83906490  0.34271503  0.48105146  1
  Y  Y16  1  0.16554253  0.66496898  0.01916516  1
  Y  Y17  1  0.66287740  0.65527563  0.01732523  1
  Y  Y18  1  0.16088952  0.66860564  0.52021870  1
  Y  Y19  1  0.66687137  0.66822241  0.52354433  1
  Y  Y20  1  0.15945301  0.66341491  0.31484184  1
  Y  Y21  1  0.66763509  0.66669001  0.31242221  1
  Y  Y22  1  0.16167852  0.66751044  0.80866059  1
  Y  Y23  1  0.66133545  0.65627247  0.81360788  1
  Si  Si0  1  0.99811689  0.70438473  0.75072822  1
  Si  Si1  1  0.51977482  0.37200088  0.91650776  1
  Si  Si2  1  0.01865401  0.66528136  0.41690117  1
  S  S0  1  0.14683650  0.00245923  0.24943049  1
  S  S1  1  0.64615398  0.00156616  0.25081556  1
  S  S2  1  0.35444483  0.70762768  0.25065503  1
  S  S3  1  0.85411526  0.70702408  0.24975005  1
  S  S4  1  0.99921197  0.28981561  0.24995820  1
  S  S5  1  0.49910244  0.29110017  0.25063372  1
  S  S6  1  0.14709200  0.29226658  0.75060665  1
  S  S7  1  0.64592673  0.29006955  0.74951965  1
  S  S8  1  0.49931676  0.70834664  0.75012437  1
  S  S9  1  0.35487391  0.00150012  0.74957510  1
  S  S10  1  0.85302863  0.99971722  0.75075678  1
  S  S11  1  0.47866131  0.33235651  0.58346409  1
  S  S12  1  0.97953209  0.32937525  0.58303910  1
  S  S13  1  0.18698737  0.04276122  0.58325273  1
  S  S14  1  0.68773711  0.04321407  0.58308679  1
  S  S15  1  0.33334749  0.62545414  0.58343831  1
  S  S16  1  0.83384054  0.62743589  0.58278334  1
  S  S17  1  0.47942287  0.62697952  0.08343575  1
  S  S18  1  0.97930248  0.62525509  0.08329337  1
  S  S19  1  0.33346748  0.04024414  0.08330352  1
  S  S20  1  0.83281689  0.04132472  0.08330685  1
  S  S21  1  0.18761613  0.33400886  0.08286545  1
  S  S22  1  0.68742270  0.33224104  0.08356105  1
  S  S23  1  0.31222193  0.66657182  0.91657028  1
  S  S24  1  0.81261246  0.66646628  0.91672862  1
  S  S25  1  0.02078858  0.37442586  0.91656902  1
  S  S26  1  0.16670094  0.95802305  0.91666483  1
  S  S27  1  0.66706604  0.95959811  0.91673179  1
  S  S28  1  0.31251149  0.95992352  0.41621019  1
  S  S29  1  0.81162386  0.95796087  0.41665492  1
  S  S30  1  0.16783100  0.37547429  0.41663218  1
  S  S31  1  0.66670980  0.37597537  0.41638775  1
  S  S32  1  0.52082256  0.66464018  0.41622014  1
  O  O0  1  0.10854237  0.02990601  0.29917304  1
  O  O1  1  0.60593555  0.02644146  0.30014462  1
  O  O2  1  0.40789908  0.78791965  0.29991594  1
  O  O3  1  0.90554441  0.78477604  0.29949902  1
  O  O4  1  0.48667517  0.18600117  0.30005343  1
  O  O5  1  0.98594499  0.18679958  0.29971543  1
  O  O6  1  0.10832388  0.18867248  0.80025282  1
  O  O7  1  0.60668695  0.18620921  0.79925120  1
  O  O8  1  0.48600860  0.78488705  0.79974229  1
  O  O9  1  0.98415377  0.79275911  0.80498513  1
  O  O10  1  0.40686197  0.02870568  0.79926549  1
  O  O11  1  0.90626172  0.02948936  0.80023017  1
  O  O12  1  0.39551601  0.98095099  0.69964641  1
  O  O13  1  0.89277338  0.97940516  0.70047594  1
  O  O14  1  0.09710403  0.21657275  0.70025167  1
  O  O15  1  0.59363570  0.20939184  0.69988545  1
  O  O16  1  0.01191010  0.81770029  0.69561783  1
  O  O17  1  0.50913714  0.80970097  0.69993972  1
  O  O18  1  0.39536904  0.80985028  0.20054952  1
  O  O19  1  0.89360764  0.80922594  0.19991761  1
  O  O20  1  0.00902716  0.20801830  0.19991488  1
  O  O21  1  0.51087082  0.21231388  0.20054405  1
  O  O22  1  0.09535706  0.98049906  0.19982447  1
  O  O23  1  0.59510807  0.97813327  0.20065829  1
  O  O24  1  0.43902547  0.35885660  0.63267423  1
  O  O25  1  0.93982220  0.35380092  0.63232409  1
  O  O26  1  0.23855699  0.12502911  0.63270211  1
  O  O27  1  0.73935398  0.11916124  0.63273131  1
  O  O28  1  0.32146598  0.51931583  0.63264195  1
  O  O29  1  0.82095217  0.52484894  0.63232395  1
  O  O30  1  0.43908217  0.52428453  0.13351456  1
  O  O31  1  0.93943103  0.52023709  0.13305088  1
  O  O32  1  0.32257023  0.12012828  0.13349139  1
  O  O33  1  0.82135212  0.12322329  0.13313809  1
  O  O34  1  0.23982807  0.35916202  0.13314351  1
  O  O35  1  0.73814197  0.35185142  0.13354066  1
  O  O36  1  0.22685518  0.30695529  0.03404157  1
  O  O37  1  0.72652441  0.30585693  0.03398426  1
  O  O38  1  0.42662947  0.54947958  0.03440029  1
  O  O39  1  0.92633483  0.54566392  0.03407227  1
  O  O40  1  0.34708075  0.14529028  0.03417522  1
  O  O41  1  0.84649452  0.14873673  0.03421694  1
  O  O42  1  0.22819532  0.14717222  0.53320534  1
  O  O43  1  0.72611691  0.14547234  0.53311133  1
  O  O44  1  0.34682915  0.54535224  0.53376380  1
  O  O45  1  0.84566613  0.54787709  0.53300281  1
  O  O46  1  0.42664065  0.30763529  0.53352867  1
  O  O47  1  0.92720182  0.30562620  0.53325784  1
  O  O48  1  0.27272946  0.68986786  0.96718696  1
  O  O49  1  0.77326218  0.68811377  0.96711261  1
  O  O50  1  0.07129125  0.45617427  0.96713023  1
  O  O51  1  0.57569096  0.45867550  0.97207718  1
  O  O52  1  0.15630170  0.85574944  0.96708373  1
  O  O53  1  0.65653130  0.86042014  0.96726502  1
  O  O54  1  0.27521855  0.85913109  0.46627531  1
  O  O55  1  0.77170806  0.85390961  0.46625817  1
  O  O56  1  0.15738448  0.45369969  0.46678154  1
  O  O57  1  0.65482590  0.45547670  0.46592436  1
  O  O58  1  0.07668630  0.69286916  0.47113585  1
  O  O59  1  0.57166018  0.68783899  0.46597803  1
  O  O60  1  0.06244553  0.64004492  0.36159076  1
  O  O61  1  0.56056293  0.64028879  0.36620590  1
  O  O62  1  0.26173347  0.88263562  0.36604266  1
  O  O63  1  0.76061899  0.87667667  0.36635103  1
  O  O64  1  0.18107596  0.47688163  0.36628731  1
  O  O65  1  0.67871980  0.48051742  0.36627691  1
  O  O66  1  0.05963922  0.47967329  0.86763953  1
  O  O67  1  0.56368979  0.48681741  0.86206928  1
  O  O68  1  0.18080790  0.88061526  0.86768847  1
  O  O69  1  0.68054722  0.88466252  0.86680191  1
  O  O70  1  0.26195616  0.64431167  0.86697144  1
  O  O71  1  0.76114502  0.64003470  0.86701617  1
  O  O72  1  0.00923353  0.83302938  0.41153545  1
  O  O73  1  0.51168360  0.81281038  0.40785536  1
  O  O74  1  0.39651962  0.98021180  0.40767434  1
  O  O75  1  0.89578895  0.97813509  0.41004649  1
  O  O76  1  0.09262786  0.20791315  0.41004287  1
  O  O77  1  0.59190044  0.21005193  0.40757000  1
  O  O78  1  0.01108184  0.20851186  0.90977690  1
  O  O79  1  0.50950028  0.18477899  0.91235501  1
  O  O80  1  0.09297447  0.97670371  0.91024443  1
  O  O81  1  0.59205364  0.97691088  0.91059382  1
  O  O82  1  0.39706786  0.81474080  0.91141864  1
  O  O83  1  0.89549838  0.81450673  0.91047830  1
  O  O84  1  0.48776765  0.18467078  0.59155204  1
  O  O85  1  0.98841102  0.17956404  0.58879251  1
  O  O86  1  0.10367375  0.02724088  0.58789595  1
  O  O87  1  0.60357621  0.02180083  0.59159467  1
  O  O88  1  0.40817967  0.79045062  0.59174535  1
  O  O89  1  0.90794146  0.79681589  0.58817259  1
  O  O90  1  0.48806198  0.79588543  0.09105897  1
  O  O91  1  0.98797265  0.79096911  0.09224471  1
  O  O92  1  0.40884752  0.02197211  0.09093417  1
  O  O93  1  0.90774792  0.02596295  0.09225087  1
  O  O94  1  0.10448695  0.18612752  0.09268646  1
  O  O95  1  0.60271295  0.18123805  0.09059564  1
  O  O96  1  0.34558371  0.15251585  0.74265935  1
  O  O97  1  0.84300146  0.14908070  0.74374288  1
  O  O98  1  0.23185236  0.30940245  0.74330520  1
  O  O99  1  0.72931047  0.30601683  0.74283691  1
  O  O100  1  0.42418493  0.53792052  0.74269793  1
  O  O101  1  0.91464902  0.51755585  0.74542214  1
  O  O102  1  0.34636851  0.53918796  0.24368910  1
  O  O103  1  0.84393940  0.53736520  0.24280268  1
  O  O104  1  0.42420977  0.30993385  0.24356730  1
  O  O105  1  0.92419622  0.31027683  0.24276826  1
  O  O106  1  0.23173518  0.15399456  0.24277084  1
  O  O107  1  0.73039428  0.15121511  0.24363647  1
  O  O108  1  0.32046429  0.51562738  0.92393559  1
  O  O109  1  0.82169973  0.51471864  0.92412317  1
  O  O110  1  0.42638625  0.35235945  0.92177197  1
  O  O111  1  0.93608272  0.35735645  0.92433833  1
  O  O112  1  0.24143167  0.12714838  0.92400248  1
  O  O113  1  0.74199239  0.13029744  0.92380824  1
  O  O114  1  0.32289295  0.13055523  0.42288305  1
  O  O115  1  0.81900078  0.12393262  0.42243377  1
  O  O116  1  0.24276332  0.35416703  0.42281865  1
  O  O117  1  0.74039884  0.35501116  0.42246714  1
  O  O118  1  0.43603656  0.51481520  0.42249468  1
  O  O119  1  0.92513571  0.49852088  0.42108863  1
  O  O120  1  0.17859783  0.48250783  0.07534402  1
  O  O121  1  0.67945545  0.48117913  0.07731508  1
  O  O122  1  0.06214360  0.64280700  0.07513470  1
  O  O123  1  0.56273160  0.64717988  0.07682458  1
  O  O124  1  0.25961854  0.87404632  0.07565993  1
  O  O125  1  0.75908472  0.87611052  0.07557045  1
  O  O126  1  0.18047781  0.87911708  0.57658400  1
  O  O127  1  0.67737305  0.87448995  0.57406386  1
  O  O128  1  0.25954125  0.64234440  0.57467654  1
  O  O129  1  0.75895448  0.64411893  0.57426260  1
  O  O130  1  0.06256078  0.47824461  0.57549484  1
  O  O131  1  0.56163524  0.48101051  0.57460969  1
  O  O132  1  0.15701717  0.85593057  0.25656546  1
  O  O133  1  0.65487994  0.85291358  0.25875456  1
  O  O134  1  0.27183577  0.68966135  0.25807081  1
  O  O135  1  0.77070573  0.68867905  0.25798299  1
  O  O136  1  0.07396382  0.45557267  0.25600673  1
  O  O137  1  0.57335183  0.45736931  0.25856428  1
  O  O138  1  0.15828396  0.45932633  0.75832340  1
  O  O139  1  0.65542760  0.45642938  0.75646441  1
  O  O140  1  0.08015410  0.68710626  0.75859470  1
  O  O141  1  0.57390084  0.69217585  0.75616024  1
  O  O142  1  0.27269643  0.85381043  0.75720783  1
  O  O143  1  0.77055710  0.85093181  0.75884266  1
loop_
_geom_bond_atom_site_label_1
_geom_bond_atom_site_label_2
_geom_bond_distance
_geom_bond_site_symmetry_2
Na0 O72 2.629794 1_555
Na0 O86 2.761288 1_565
Na0 O89 2.768405 1_455
Na0 O85 2.845606 1_465
Na0 O76 2.852951 1_565
Na0 O75 2.867931 1_455
Na1 O79 2.509329 1_555
Na1 O82 2.745574 1_545
Na1 O81 2.755977 1_545
Na1 O95 2.897598 1_556
Na1 O92 2.908855 1_556
Na1 O90 2.988545 1_546
Na2 O110 2.593602 1_555
Na2 O112 2.820233 1_555
Na2 O108 2.825342 1_555
Na2 O100 2.849868 1_555
Na2 O96 2.850233 1_555
Na2 O98 2.903811 1_555
Na3 O101 2.513566 1_555
Na3 O97 2.766277 1_555
Na3 O99 2.792206 1_555
Na3 O109 2.886025 1_555
Na3 O111 2.890988 1_555
Na3 O113 2.971485 1_555
Na4 O116 2.768696 1_555
Na4 O114 2.782018 1_555
Na4 O118 2.803490 1_555
Na4 O106 2.817270 1_555
Na4 O102 2.829995 1_555
Na4 O104 2.843303 1_555
Na5 O119 2.510481 1_555
Na5 O115 2.773709 1_555
Na5 O117 2.795039 1_555
Na5 O105 2.865827 1_555
Na5 O103 2.879114 1_555
Na5 O107 2.972253 1_555
O0 S0 1.478147 1_555
O0 Y0 2.265995 1_545
O1 S1 1.480770 1_555
O1 Y1 2.299531 1_545
O2 S2 1.485086 1_555
O2 Y1 2.279558 1_555
O3 S3 1.475357 1_555
O3 Y0 2.270365 1_655
O4 S5 1.480851 1_555
O4 Y1 2.292885 1_545
O5 S4 1.473861 1_555
O5 Y0 2.365374 1_645
O6 S6 1.475271 1_555
O6 Y2 2.312369 1_445
O7 S7 1.479364 1_555
O7 Y3 2.238125 1_555
O8 S8 1.472273 1_555
O8 Y3 2.357735 1_565
O9 Si0 1.630262 1_555
O9 Y2 2.029764 1_555
O10 S9 1.477133 1_555
O10 Y3 2.241829 1_555
O11 S10 1.482433 1_545
O11 Y2 2.290066 1_545
O12 S9 1.481154 1_565
O12 Y5 2.280843 1_555
O13 S10 1.477835 1_555
O13 Y4 2.252388 1_655
O14 S6 1.473654 1_555
O14 Y4 2.266620 1_545
O15 S7 1.484133 1_555
O15 Y5 2.255964 1_545
O16 Si0 1.631031 1_455
O16 Y4 2.017092 1_555
O17 S8 1.484737 1_555
O17 Y5 2.249616 1_555
O18 S2 1.486300 1_555
O18 Y7 2.238895 1_555
O19 S3 1.476027 1_555
O19 Y6 2.307029 1_565
O20 S4 1.482844 1_455
O20 Y6 2.263555 1_455
O21 S5 1.481852 1_555
O21 Y7 2.264549 1_545
O22 S0 1.478376 1_565
O22 Y6 2.300843 1_465
O23 S1 1.482157 1_565
O23 Y7 2.254910 1_555
O24 S11 1.478392 1_555
O24 Y8 2.263089 1_555
O25 S12 1.472786 1_555
O25 Y9 2.252664 1_555
O26 S13 1.477984 1_555
O26 Y8 2.239976 1_555
O27 S14 1.472072 1_555
O27 Y9 2.362917 1_555
O28 S15 1.484082 1_555
O28 Y8 2.228843 1_555
O29 S16 1.468491 1_555
O29 Y9 2.299666 1_555
O30 S17 1.485439 1_555
O30 Y10 2.230116 1_555
O31 S18 1.486159 1_555
O31 Y11 2.215262 1_555
O32 S19 1.483253 1_555
O32 Y10 2.246167 1_555
O33 S20 1.491073 1_555
O33 Y11 2.200337 1_555
O34 S21 1.494048 1_555
O34 Y10 2.197487 1_555
O35 S22 1.481728 1_555
O35 Y11 2.240319 1_555
O36 S21 1.468801 1_555
O36 Y12 2.363508 1_554
O37 S22 1.479373 1_555
O37 Y13 2.281039 1_554
O38 S17 1.471459 1_555
O38 Y12 2.294425 1_554
O39 S18 1.479502 1_555
O39 Y13 2.252042 1_554
O40 S19 1.471263 1_555
O40 Y12 2.282973 1_554
O41 S20 1.483014 1_555
O41 Y13 2.251538 1_554
O42 S13 1.493971 1_555
O42 Y14 2.194080 1_555
O43 S14 1.475593 1_555
O43 Y15 2.335594 1_555
O44 S15 1.493560 1_555
O44 Y14 2.206903 1_555
O45 S16 1.480277 1_555
O45 Y15 2.225907 1_555
O46 S11 1.486010 1_555
O46 Y14 2.221629 1_555
O47 S12 1.487864 1_555
O47 Y15 2.219003 1_555
O48 S23 1.492419 1_555
O48 Y16 2.258750 1_556
O49 S24 1.480465 1_555
O49 Y17 2.260713 1_556
O50 S25 1.491303 1_555
O50 Y16 2.230624 1_556
O51 Si1 1.636529 1_555
O51 Y17 2.040752 1_556
O52 S26 1.492133 1_555
O52 Y16 2.240987 1_556
O53 S27 1.477833 1_555
O53 Y17 2.300929 1_556
O54 S28 1.468797 1_555
O54 Y18 2.353844 1_555
O55 S29 1.479696 1_555
O55 Y19 2.298904 1_555
O56 S30 1.470679 1_555
O56 Y18 2.342735 1_555
O57 S31 1.475639 1_555
O57 Y19 2.326926 1_555
O58 Si2 1.629123 1_555
O58 Y18 2.056775 1_555
O59 S32 1.472506 1_555
O59 Y19 2.320640 1_555
O60 Si2 1.636673 1_555
O60 Y20 2.037726 1_555
O61 S32 1.487048 1_555
O61 Y21 2.276830 1_555
O62 S28 1.478086 1_555
O62 Y20 2.319072 1_555
O63 S29 1.488930 1_555
O63 Y21 2.253911 1_555
O64 S30 1.477207 1_555
O64 Y20 2.316669 1_555
O65 S31 1.492669 1_555
O65 Y21 2.246531 1_555
O66 S25 1.467871 1_555
O66 Y22 2.306760 1_555
O67 Si1 1.626594 1_555
O67 Y23 2.061895 1_555
O68 S26 1.470493 1_555
O68 Y22 2.310676 1_555
O69 S27 1.471383 1_555
O69 Y23 2.341820 1_555
O70 S23 1.464918 1_555
O70 Y22 2.422122 1_555
O71 S24 1.473242 1_555
O71 Y23 2.317729 1_555
O72 Si2 1.651239 1_555
O72 Y0 2.069704 1_555
O73 S32 1.476658 1_555
O73 Y1 2.233735 1_555
O74 S28 1.484498 1_555
O74 Y1 2.203249 1_555
O75 S29 1.482072 1_555
O75 Y0 2.320664 1_655
O76 S30 1.485206 1_555
O76 Y0 2.298230 1_545
O77 S31 1.480258 1_555
O77 Y1 2.224288 1_545
O78 S25 1.462607 1_555
O78 Y2 2.388206 1_445
O79 Si1 1.648226 1_555
O79 Y3 2.089196 1_555
O80 S26 1.467215 1_555
O80 Y2 2.293152 1_455
O81 S27 1.482739 1_555
O81 Y3 2.323825 1_565
O82 S23 1.485157 1_555
O82 Y3 2.330276 1_565
O83 S24 1.465829 1_555
O83 Y2 2.268318 1_555
O84 S11 1.470992 1_555
O84 Y5 2.266342 1_545
O85 S12 1.481645 1_555
O85 Y4 2.409171 1_645
O86 S13 1.479882 1_555
O86 Y4 2.361341 1_545
O87 S14 1.483075 1_555
O87 Y5 2.225395 1_545
O88 S15 1.473849 1_555
O88 Y5 2.248102 1_555
O89 S16 1.483941 1_555
O89 Y4 2.342807 1_655
O90 S17 1.500390 1_555
O90 Y7 2.250441 1_555
O91 S18 1.475327 1_555
O91 Y6 2.239937 1_565
O92 S19 1.498606 1_555
O92 Y7 2.269120 1_545
O93 S20 1.479245 1_555
O93 Y6 2.218800 1_555
O94 S21 1.479133 1_555
O94 Y6 2.215054 1_455
O95 S22 1.498645 1_555
O95 Y7 2.274522 1_545
O96 S9 1.499957 1_555
O96 Y8 2.273396 1_555
O97 S10 1.493087 1_545
O97 Y9 2.275366 1_555
O98 S6 1.506318 1_555
O98 Y8 2.241885 1_555
O99 S7 1.484023 1_555
O99 Y9 2.306800 1_555
O100 S8 1.502339 1_555
O100 Y8 2.265977 1_555
O101 Si0 1.648503 1_555
O101 Y9 2.068253 1_555
O102 S2 1.498616 1_555
O102 Y10 2.299025 1_555
O103 S3 1.493768 1_555
O103 Y11 2.302372 1_555
O104 S5 1.491098 1_555
O104 Y10 2.334529 1_555
O105 S4 1.502506 1_555
O105 Y11 2.267812 1_555
O106 S0 1.501694 1_555
O106 Y10 2.275262 1_555
O107 S1 1.488899 1_555
O107 Y11 2.316815 1_555
O108 S23 1.489370 1_555
O108 Y12 2.271962 1_555
O109 S24 1.505795 1_555
O109 Y13 2.251218 1_555
O110 Si1 1.650239 1_555
O110 Y12 2.068355 1_555
O111 S25 1.506935 1_655
O111 Y13 2.237792 1_555
O112 S26 1.492060 1_545
O112 Y12 2.259057 1_555
O113 S27 1.501323 1_545
O113 Y13 2.260401 1_555
O114 S28 1.500413 1_545
O114 Y14 2.312725 1_555
O115 S29 1.478518 1_545
O115 Y15 2.340931 1_555
O116 S30 1.503010 1_555
O116 Y14 2.298553 1_555
O117 S31 1.478119 1_555
O117 Y15 2.356149 1_555
O118 S32 1.493092 1_555
O118 Y14 2.327549 1_555
O119 Si2 1.647187 1_655
O119 Y15 2.098786 1_555
O120 S21 1.475732 1_555
O120 Y16 2.269201 1_555
O121 S22 1.465093 1_555
O121 Y17 2.296395 1_555
O122 S18 1.472217 1_455
O122 Y16 2.265524 1_555
O123 S17 1.466319 1_555
O123 Y17 2.315178 1_555
O124 S19 1.470589 1_565
O124 Y16 2.292933 1_555
O125 S20 1.464725 1_565
O125 Y17 2.382353 1_555
O126 S13 1.466271 1_565
O126 Y18 2.250474 1_555
O127 S14 1.490327 1_565
O127 Y19 2.189060 1_555
O128 S15 1.466137 1_555
O128 Y18 2.358315 1_555
O129 S16 1.483925 1_555
O129 Y19 2.197911 1_555
O130 S12 1.474028 1_455
O130 Y18 2.231433 1_555
O131 S11 1.476848 1_555
O131 Y19 2.220508 1_555
O132 S0 1.469201 1_565
O132 Y20 2.286243 1_555
O133 S1 1.475278 1_565
O133 Y21 2.259189 1_555
O134 S2 1.464116 1_555
O134 Y20 2.398632 1_555
O135 S3 1.479829 1_555
O135 Y21 2.239389 1_555
O136 S4 1.470811 1_455
O136 Y20 2.273298 1_555
O137 S5 1.474879 1_555
O137 Y21 2.258127 1_555
O138 S6 1.464879 1_555
O138 Y22 2.250709 1_555
O139 S7 1.468638 1_555
O139 Y23 2.264127 1_555
O140 Si0 1.615837 1_455
O140 Y22 2.010202 1_555
O141 S8 1.468566 1_555
O141 Y23 2.277281 1_555
O142 S9 1.460738 1_565
O142 Y22 2.277012 1_555
O143 S10 1.469469 1_555
O143 Y23 2.329576 1_555
