# generated using pymatgen
data_Na6TaGa3Si4(SO12)2
_symmetry_space_group_name_H-M   'P 1'
_cell_length_a   8.89407630
_cell_length_b   8.95210537
_cell_length_c   22.20588336
_cell_angle_alpha   89.54802713
_cell_angle_beta   89.73060917
_cell_angle_gamma   120.04436788
_symmetry_Int_Tables_number   1
_chemical_formula_structural   Na6TaGa3Si4(SO12)2
_chemical_formula_sum   'Na18 Ta3 Ga9 Si12 S6 O72'
_cell_volume   1530.36554768
_cell_formula_units_Z   3
loop_
 _symmetry_equiv_pos_site_id
 _symmetry_equiv_pos_as_xyz
  1  'x, y, z'
loop_
 _atom_site_type_symbol
 _atom_site_label
 _atom_site_symmetry_multiplicity
 _atom_site_fract_x
 _atom_site_fract_y
 _atom_site_fract_z
 _atom_site_occupancy
  Na  Na0  1  0.62456892  0.99821251  0.25189786  1
  Na  Na1  1  0.63869565  0.62625322  0.75108691  1
  Na  Na2  1  0.00006431  0.36457300  0.74355727  1
  Na  Na3  1  0.29678533  0.34095618  0.58550071  1
  Na  Na4  1  0.02950605  0.69818632  0.58730425  1
  Na  Na5  1  0.67379283  0.96390182  0.57719245  1
  Na  Na6  1  0.29680835  0.95190320  0.08766016  1
  Na  Na7  1  0.66713664  0.70678371  0.07837674  1
  Na  Na8  1  0.03180814  0.33546993  0.08374027  1
  Na  Na9  1  0.97175658  0.68054463  0.91376493  1
  Na  Na10  1  0.32752595  0.29560290  0.91116227  1
  Na  Na11  1  0.68951250  0.67172818  0.41237244  1
  Na  Na12  1  0.00169191  0.02032331  0.49507126  1
  Na  Na13  1  0.98396598  0.99445287  0.99554676  1
  Na  Na14  1  0.65303513  0.32021161  0.82849091  1
  Na  Na15  1  0.64258098  0.31828739  0.32769898  1
  Na  Na16  1  0.31851060  0.67060034  0.17019454  1
  Na  Na17  1  0.32728966  0.66174951  0.66336176  1
  Ta  Ta0  1  0.68000187  0.33420263  0.97756824  1
  Ta  Ta1  1  0.67188301  0.33322931  0.47633220  1
  Ta  Ta2  1  0.32700120  0.66384800  0.81407490  1
  Ga  Ga0  1  0.02317530  0.03175251  0.35354042  1
  Ga  Ga1  1  0.01073830  0.99756757  0.85489703  1
  Ga  Ga2  1  0.00211039  0.00433870  0.64903783  1
  Ga  Ga3  1  0.99598986  0.97681334  0.14910164  1
  Ga  Ga4  1  0.67789887  0.36343260  0.68658034  1
  Ga  Ga5  1  0.65991660  0.31399748  0.18470899  1
  Ga  Ga6  1  0.33238379  0.67715341  0.01619863  1
  Ga  Ga7  1  0.34628209  0.64882858  0.51530517  1
  Ga  Ga8  1  0.34324150  0.68381642  0.31756810  1
  Si  Si0  1  0.28795524  0.99780272  0.24990714  1
  Si  Si1  1  0.29269161  0.28194857  0.74875663  1
  Si  Si2  1  0.00393513  0.71926139  0.74897200  1
  Si  Si3  1  0.96073974  0.33643946  0.58655288  1
  Si  Si4  1  0.67019926  0.63302869  0.58379100  1
  Si  Si5  1  0.95618539  0.61945821  0.08709576  1
  Si  Si6  1  0.66778165  0.03369213  0.08733833  1
  Si  Si7  1  0.62651090  0.67643325  0.91915199  1
  Si  Si8  1  0.04781064  0.36927741  0.92001166  1
  Si  Si9  1  0.33466370  0.95789056  0.91864135  1
  Si  Si10  1  0.62961993  0.95588943  0.41464316  1
  Si  Si11  1  0.32667817  0.37783207  0.41505937  1
  S  S0  1  0.70548666  0.70147825  0.25042160  1
  S  S1  1  0.00359359  0.29406705  0.24894270  1
  S  S2  1  0.70899791  0.00109803  0.74933206  1
  S  S3  1  0.38059914  0.04706830  0.58398277  1
  S  S4  1  0.37685320  0.33254829  0.08468972  1
  S  S5  1  0.04921564  0.67024877  0.41791693  1
  O  O0  1  0.18909918  0.02172058  0.30713149  1
  O  O1  1  0.80701224  0.78428709  0.30450813  1
  O  O2  1  0.96589491  0.17781289  0.30221520  1
  O  O3  1  0.20215046  0.17824739  0.81033247  1
  O  O4  1  0.96316026  0.79747447  0.80837413  1
  O  O5  1  0.81673565  0.02711693  0.80217921  1
  O  O6  1  0.77981920  0.96845324  0.69301990  1
  O  O7  1  0.16872661  0.20976292  0.68909477  1
  O  O8  1  0.02896648  0.82683022  0.68654068  1
  O  O9  1  0.78489674  0.81400258  0.19466719  1
  O  O10  1  0.02425787  0.21444235  0.19306390  1
  O  O11  1  0.18236259  0.97531917  0.18613286  1
  O  O12  1  0.86863601  0.36323259  0.64627232  1
  O  O13  1  0.48838511  0.12474278  0.63697413  1
  O  O14  1  0.62426708  0.50885772  0.64284545  1
  O  O15  1  0.85240636  0.48847088  0.14222431  1
  O  O16  1  0.62267130  0.11340816  0.14508362  1
  O  O17  1  0.48582470  0.35815164  0.13730677  1
  O  O18  1  0.45857550  0.30787676  0.02876525  1
  O  O19  1  0.83447956  0.53220669  0.02540721  1
  O  O20  1  0.69785287  0.16893532  0.02924673  1
  O  O21  1  0.46502304  0.15651723  0.52843192  1
  O  O22  1  0.69552074  0.53099811  0.52556098  1
  O  O23  1  0.82796127  0.30474117  0.52933404  1
  O  O24  1  0.53433182  0.69138811  0.97949640  1
  O  O25  1  0.16412067  0.45840109  0.97850100  1
  O  O26  1  0.29294530  0.84144085  0.97872467  1
  O  O27  1  0.54015678  0.83885936  0.47594711  1
  O  O28  1  0.30030835  0.44659787  0.48001338  1
  O  O29  1  0.14587187  0.68845962  0.47370246  1
  O  O30  1  0.12335799  0.63859096  0.36352841  1
  O  O31  1  0.51468973  0.88442075  0.35458807  1
  O  O32  1  0.37124759  0.51433955  0.35970111  1
  O  O33  1  0.13225038  0.49774787  0.85942005  1
  O  O34  1  0.36455591  0.86131677  0.86023703  1
  O  O35  1  0.50189437  0.63651660  0.85872633  1
  O  O36  1  0.01286581  0.81215003  0.41284481  1
  O  O37  1  0.81972617  0.96746248  0.40703174  1
  O  O38  1  0.16489148  0.18349677  0.41210951  1
  O  O39  1  0.02308563  0.18217754  0.91003529  1
  O  O40  1  0.16607008  0.98028776  0.91208849  1
  O  O41  1  0.82085501  0.83607996  0.91101879  1
  O  O42  1  0.97870586  0.16222489  0.58881060  1
  O  O43  1  0.20840735  0.03604745  0.58557535  1
  O  O44  1  0.84709418  0.82292842  0.58758777  1
  O  O45  1  0.97272470  0.81108721  0.08791539  1
  O  O46  1  0.85073778  0.02868729  0.09239306  1
  O  O47  1  0.20214557  0.17597585  0.08745896  1
  O  O48  1  0.68491080  0.15128460  0.74360829  1
  O  O49  1  0.48943934  0.31049388  0.74346188  1
  O  O50  1  0.83664828  0.51801605  0.74720814  1
  O  O51  1  0.68885115  0.53044084  0.24382848  1
  O  O52  1  0.84218110  0.30744676  0.24625847  1
  O  O53  1  0.48932899  0.17229020  0.24510916  1
  O  O54  1  0.63682037  0.49370283  0.92417020  1
  O  O55  1  0.86041208  0.36830717  0.92185271  1
  O  O56  1  0.50491880  0.15296882  0.92404043  1
  O  O57  1  0.65248260  0.15112152  0.42545852  1
  O  O58  1  0.51141477  0.36590907  0.42342075  1
  O  O59  1  0.86837856  0.50674251  0.42229221  1
  O  O60  1  0.35898680  0.48733295  0.08038816  1
  O  O61  1  0.14682182  0.63471529  0.08061415  1
  O  O62  1  0.49794910  0.84265735  0.07891209  1
  O  O63  1  0.35624574  0.87232219  0.57699610  1
  O  O64  1  0.49765649  0.65549702  0.57971924  1
  O  O65  1  0.14881492  0.51610813  0.57791920  1
  O  O66  1  0.31491853  0.82471540  0.25580873  1
  O  O67  1  0.53084292  0.68849999  0.25214865  1
  O  O68  1  0.15875112  0.46536458  0.25569059  1
  O  O69  1  0.31875704  0.48480145  0.75553344  1
  O  O70  1  0.17600705  0.69132719  0.75444695  1
  O  O71  1  0.53496069  0.83815551  0.75484302  1
loop_
_geom_bond_atom_site_label_1
_geom_bond_atom_site_label_2
_geom_bond_distance
_geom_bond_site_symmetry_2
Na0 O66 2.391038 1_555
Na0 O53 2.402705 1_565
Na0 O52 2.460141 1_565
Na0 O67 2.463230 1_555
Na0 O31 2.477537 1_555
Na0 O16 2.582420 1_565
Na0 O2 2.867437 1_565
Na0 O9 2.956108 1_555
Na1 O50 2.398778 1_555
Na1 O49 2.456297 1_555
Na1 O69 2.469351 1_555
Na1 O71 2.492191 1_555
Na1 O14 2.608816 1_555
Na1 O35 2.700019 1_555
Na1 O4 2.816317 1_555
Na1 O6 2.948690 1_555
Na2 O50 2.450662 1_455
Na2 O12 2.458363 1_455
Na2 O48 2.478570 1_455
Na2 O69 2.494028 1_555
Na2 O70 2.548497 1_555
Na2 O7 2.779330 1_555
Na2 O33 2.845407 1_555
Na2 O5 2.909457 1_455
Na3 O43 2.433090 1_555
Na3 O42 2.456108 1_455
Na3 O64 2.468161 1_555
Na3 O65 2.506622 1_555
Na3 O28 2.513378 1_555
Na3 O7 2.561581 1_555
Na3 O14 2.836468 1_555
Na4 O65 2.358292 1_555
Na4 O44 2.386079 1_455
Na4 O8 2.495546 1_555
Na4 O63 2.525763 1_555
Na4 O43 2.619131 1_565
Na4 O29 2.740720 1_555
Na4 O12 2.894380 1_455
Na4 O22 2.926178 1_455
Na5 O64 2.396985 1_555
Na5 O42 2.401193 1_565
Na5 O44 2.443009 1_555
Na5 O63 2.516023 1_555
Na5 O27 2.540257 1_555
Na5 O6 2.737217 1_555
Na5 O23 2.839946 1_565
Na5 O13 2.990304 1_565
Na6 O62 2.438485 1_555
Na6 O11 2.462020 1_555
Na6 O61 2.466333 1_555
Na6 O45 2.501758 1_455
Na6 O47 2.534487 1_565
Na6 O26 2.614412 1_554
Na6 O16 2.825615 1_565
Na7 O62 2.361531 1_555
Na7 O45 2.402321 1_555
Na7 O60 2.445182 1_555
Na7 O24 2.470128 1_554
Na7 O46 2.524798 1_565
Na7 O9 2.782910 1_555
Na7 O19 2.895325 1_555
Na7 O17 2.988234 1_555
Na8 O61 2.340939 1_555
Na8 O46 2.394344 1_455
Na8 O60 2.521227 1_555
Na8 O47 2.550686 1_555
Na8 O25 2.587268 1_554
Na8 O10 2.637398 1_555
Na8 O20 2.852598 1_455
Na8 O15 2.881942 1_455
Na9 O40 2.354279 1_655
Na9 O41 2.369472 1_555
Na9 O55 2.458580 1_555
Na9 O4 2.573272 1_555
Na9 O54 2.592929 1_555
Na9 O19 2.774208 1_556
Na9 O26 2.875305 1_655
Na9 O33 2.919888 1_655
Na10 O39 2.368824 1_555
Na10 O54 2.434413 1_555
Na10 O40 2.443414 1_545
Na10 O56 2.493439 1_555
Na10 O3 2.499573 1_555
Na10 O18 2.845231 1_556
Na10 O35 2.874469 1_555
Na10 O25 2.933769 1_555
Na11 O37 2.299533 1_555
Na11 O58 2.389094 1_555
Na11 O36 2.496338 1_655
Na11 O1 2.593935 1_555
Na11 O59 2.666778 1_555
Na11 O32 2.725683 1_555
Na11 O22 2.815348 1_555
Na11 O27 2.828776 1_555
Na12 O38 2.333189 1_555
Na12 O37 2.437760 1_445
Na12 O42 2.507226 1_455
Na12 O44 2.591721 1_445
Na12 O36 2.655979 1_545
Na12 O43 2.686839 1_555
Na13 O41 2.376112 1_555
Na13 O39 2.430812 1_665
Na13 O40 2.501014 1_655
Na13 O46 2.544205 1_566
Na13 O45 2.586945 1_556
Na13 O47 2.739319 1_666
Na14 O49 2.364626 1_555
Na14 O50 2.467101 1_555
Na14 O48 2.527718 1_555
Na14 O56 2.535247 1_555
Na14 O55 2.672118 1_555
Na14 O54 2.687103 1_555
Na15 O53 2.281890 1_555
Na15 O51 2.529694 1_555
Na15 O58 2.559259 1_555
Na15 O52 2.564484 1_555
Na15 O57 2.653728 1_555
Na15 O59 2.827452 1_555
Na16 O66 2.367222 1_555
Na16 O61 2.437083 1_555
Na16 O68 2.510869 1_555
Na16 O62 2.546972 1_555
Na16 O67 2.576415 1_555
Na16 O60 2.726628 1_555
Na17 O64 2.410188 1_555
Na17 O65 2.411316 1_555
Na17 O70 2.512202 1_555
Na17 O69 2.555624 1_555
Na17 O63 2.598087 1_555
Na17 O71 2.682770 1_555
Ga0 O0 1.835150 1_555
Ga0 O38 1.858578 1_555
Ga0 O2 1.979185 1_455
Ga0 O37 1.985600 1_445
Ga0 O36 2.320549 1_545
Ga0 O1 2.362706 1_445
Ga1 O3 1.922332 1_565
Ga1 O4 1.931118 1_455
Ga1 O40 1.942376 1_555
Ga1 O41 2.000555 1_455
Ga1 O39 2.023339 1_565
Ga1 O5 2.211065 1_465
Ga2 O8 1.907042 1_545
Ga2 O7 1.917927 1_555
Ga2 O42 2.024133 1_455
Ga2 O44 2.052041 1_445
Ga2 O6 2.075283 1_445
Ga2 O43 2.209286 1_555
Ga3 O11 1.859812 1_655
Ga3 O45 1.953708 1_555
Ga3 O9 1.972763 1_555
Ga3 O46 2.019198 1_565
Ga3 O10 2.245230 1_665
Ga3 O47 2.253637 1_665
Ga4 O14 1.863273 1_555
Ga4 O12 1.915157 1_555
Ga4 O49 1.950591 1_555
Ga4 O50 1.952393 1_555
Ga4 O13 2.251316 1_555
Ga4 O48 2.301260 1_555
Ga5 O16 1.881632 1_555
Ga5 O15 1.882696 1_555
Ga5 O53 1.933105 1_555
Ga5 O17 2.069624 1_555
Ga5 O52 2.148050 1_555
Ga5 O51 2.255672 1_555
Ga6 O26 1.865080 1_554
Ga6 O24 1.913636 1_554
Ga6 O25 1.969353 1_554
Ga6 O62 2.042080 1_555
Ga6 O61 2.062909 1_555
Ga6 O60 2.311465 1_555
Ga7 O28 1.828392 1_555
Ga7 O27 1.912123 1_555
Ga7 O64 1.949647 1_555
Ga7 O65 2.071446 1_555
Ga7 O29 2.190901 1_555
Ga7 O63 2.398808 1_555
Ga8 O31 1.875906 1_555
Ga8 O32 1.896688 1_555
Ga8 O66 1.956876 1_555
Ga8 O30 2.052316 1_555
Ga8 O67 2.191417 1_555
Ga8 O68 2.292431 1_555
O0 Si0 1.617379 1_545
O1 S0 1.470158 1_555
O2 S1 1.490756 1_655
O3 Si1 1.612753 1_555
O4 Si2 1.620511 1_655
O5 S2 1.463212 1_555
O6 S2 1.492817 1_565
O7 Si1 1.643847 1_555
O8 Si2 1.631005 1_555
O9 S0 1.518574 1_555
O10 S1 1.491491 1_555
O11 Si0 1.660047 1_555
O12 Si3 1.636684 1_555
O13 S3 1.463976 1_555
O14 Si4 1.624631 1_555
O15 Si5 1.615094 1_555
O16 Si6 1.615794 1_555
O17 S4 1.466115 1_555
O18 S4 1.508598 1_555
O18 Ta0 2.176342 1_554
O19 Si5 1.685971 1_555
O19 Ta0 1.939828 1_554
O20 Si6 1.687975 1_555
O20 Ta0 1.934204 1_554
O21 S3 1.510300 1_555
O21 Ta1 2.064627 1_555
O22 Si4 1.666988 1_555
O22 Ta1 2.008403 1_555
O23 Si3 1.665472 1_555
O23 Ta1 1.934530 1_555
O24 Si7 1.608752 1_555
O25 Si8 1.611246 1_555
O26 Si9 1.609533 1_555
O27 Si10 1.648171 1_555
O28 Si11 1.633945 1_555
O29 S5 1.474115 1_555
O30 S5 1.469305 1_555
O31 Si10 1.613709 1_555
O32 Si11 1.627351 1_555
O33 Si8 1.672798 1_555
O33 Ta2 1.898980 1_555
O34 Si9 1.656718 1_555
O34 Ta2 1.930770 1_555
O35 Si7 1.667793 1_555
O35 Ta2 1.963259 1_555
O36 S5 1.462954 1_555
O37 Si10 1.649181 1_555
O38 Si11 1.611652 1_555
O39 Si8 1.593845 1_555
O40 Si9 1.616315 1_555
O41 Si7 1.606936 1_555
O42 Si3 1.645826 1_555
O43 S3 1.484781 1_555
O44 Si4 1.642474 1_555
O45 Si5 1.647022 1_555
O46 Si6 1.654422 1_555
O47 S4 1.483154 1_555
O48 S2 1.468221 1_555
O49 Si1 1.640445 1_555
O50 Si2 1.666883 1_655
O51 S0 1.471266 1_555
O52 S1 1.500588 1_655
O53 Si0 1.689163 1_545
O54 Si7 1.686462 1_555
O54 Ta0 2.029529 1_555
O55 Si8 1.662714 1_655
O55 Ta0 1.919223 1_555
O56 Si9 1.647470 1_545
O56 Ta0 1.996994 1_555
O57 Si10 1.674763 1_545
O57 Ta1 1.926890 1_555
O58 Si11 1.709878 1_555
O58 Ta1 1.982794 1_555
O59 S5 1.541985 1_655
O59 Ta1 2.034612 1_555
O60 S4 1.474087 1_555
O61 Si5 1.636983 1_455
O62 Si6 1.631663 1_565
O63 S3 1.477503 1_565
O64 Si4 1.647348 1_555
O65 Si3 1.649208 1_455
O66 Si0 1.686654 1_555
O67 S0 1.498785 1_555
O68 S1 1.471364 1_555
O69 Si1 1.719647 1_555
O69 Ta2 2.044621 1_555
O70 Si2 1.674515 1_555
O70 Ta2 1.989885 1_555
O71 S2 1.507714 1_565
O71 Ta2 2.154221 1_555
