# generated using pymatgen
data_Gd3Ga5O12
_symmetry_space_group_name_H-M   'P 1'
_cell_length_a   10.86996289
_cell_length_b   10.86996289
_cell_length_c   10.86996289
_cell_angle_alpha   109.47122063
_cell_angle_beta   109.47122063
_cell_angle_gamma   109.47122063
_symmetry_Int_Tables_number   1
_chemical_formula_structural   Gd3Ga5O12
_chemical_formula_sum   'Gd12 Ga20 O48'
_cell_volume   988.69489867
_cell_formula_units_Z   4
loop_
 _symmetry_equiv_pos_site_id
 _symmetry_equiv_pos_as_xyz
  1  'x, y, z'
loop_
 _atom_site_type_symbol
 _atom_site_label
 _atom_site_symmetry_multiplicity
 _atom_site_fract_x
 _atom_site_fract_y
 _atom_site_fract_z
 _atom_site_occupancy
  Gd  Gd0  1  0.12500000  0.37500000  0.75000000  1
  Gd  Gd1  1  0.37500000  0.12500000  0.25000000  1
  Gd  Gd2  1  0.37500000  0.75000000  0.12500000  1
  Gd  Gd3  1  0.12500000  0.25000000  0.37500000  1
  Gd  Gd4  1  0.75000000  0.12500000  0.37500000  1
  Gd  Gd5  1  0.25000000  0.37500000  0.12500000  1
  Gd  Gd6  1  0.87500000  0.62500000  0.25000000  1
  Gd  Gd7  1  0.62500000  0.87500000  0.75000000  1
  Gd  Gd8  1  0.62500000  0.25000000  0.87500000  1
  Gd  Gd9  1  0.87500000  0.75000000  0.62500000  1
  Gd  Gd10  1  0.25000000  0.87500000  0.62500000  1
  Gd  Gd11  1  0.75000000  0.62500000  0.87500000  1
  Ga  Ga0  1  0.00000000  0.50000000  0.00000000  1
  Ga  Ga1  1  0.00000000  0.00000000  0.50000000  1
  Ga  Ga2  1  0.50000000  0.00000000  0.00000000  1
  Ga  Ga3  1  0.50000000  0.50000000  0.50000000  1
  Ga  Ga4  1  0.50000000  0.50000000  0.00000000  1
  Ga  Ga5  1  0.50000000  0.00000000  0.50000000  1
  Ga  Ga6  1  0.00000000  0.50000000  0.50000000  1
  Ga  Ga7  1  0.00000000  0.00000000  0.00000000  1
  Ga  Ga8  1  0.37500000  0.62500000  0.75000000  1
  Ga  Ga9  1  0.12500000  0.87500000  0.25000000  1
  Ga  Ga10  1  0.62500000  0.75000000  0.37500000  1
  Ga  Ga11  1  0.87500000  0.25000000  0.12500000  1
  Ga  Ga12  1  0.75000000  0.37500000  0.62500000  1
  Ga  Ga13  1  0.25000000  0.12500000  0.87500000  1
  Ga  Ga14  1  0.62500000  0.37500000  0.25000000  1
  Ga  Ga15  1  0.87500000  0.12500000  0.75000000  1
  Ga  Ga16  1  0.37500000  0.25000000  0.62500000  1
  Ga  Ga17  1  0.12500000  0.75000000  0.87500000  1
  Ga  Ga18  1  0.25000000  0.62500000  0.37500000  1
  Ga  Ga19  1  0.75000000  0.87500000  0.12500000  1
  O  O0  1  0.02533500  0.32243700  0.90259500  1
  O  O1  1  0.91984200  0.12274100  0.59740500  1
  O  O2  1  0.58015800  0.17756300  0.20289800  1
  O  O3  1  0.47466500  0.37725900  0.29710200  1
  O  O4  1  0.32243700  0.90259500  0.02533500  1
  O  O5  1  0.12274100  0.59740500  0.91984200  1
  O  O6  1  0.17756300  0.20289800  0.58015800  1
  O  O7  1  0.37725900  0.29710200  0.47466500  1
  O  O8  1  0.90259500  0.02533500  0.32243700  1
  O  O9  1  0.59740500  0.91984200  0.12274100  1
  O  O10  1  0.20289800  0.58015800  0.17756300  1
  O  O11  1  0.29710200  0.47466500  0.37725900  1
  O  O12  1  0.97466500  0.67756300  0.09740500  1
  O  O13  1  0.08015800  0.87725900  0.40259500  1
  O  O14  1  0.41984200  0.82243700  0.79710200  1
  O  O15  1  0.52533500  0.62274100  0.70289800  1
  O  O16  1  0.67756300  0.09740500  0.97466500  1
  O  O17  1  0.87725900  0.40259500  0.08015800  1
  O  O18  1  0.82243700  0.79710200  0.41984200  1
  O  O19  1  0.62274100  0.70289800  0.52533500  1
  O  O20  1  0.09740500  0.97466500  0.67756300  1
  O  O21  1  0.40259500  0.08015800  0.87725900  1
  O  O22  1  0.79710200  0.41984200  0.82243700  1
  O  O23  1  0.70289800  0.52533500  0.62274100  1
  O  O24  1  0.52533500  0.40259500  0.82243700  1
  O  O25  1  0.41984200  0.09740500  0.62274100  1
  O  O26  1  0.08015800  0.70289800  0.67756300  1
  O  O27  1  0.97466500  0.79710200  0.87725900  1
  O  O28  1  0.82243700  0.52533500  0.40259500  1
  O  O29  1  0.62274100  0.41984200  0.09740500  1
  O  O30  1  0.67756300  0.08015800  0.70289800  1
  O  O31  1  0.87725900  0.97466500  0.79710200  1
  O  O32  1  0.40259500  0.82243700  0.52533500  1
  O  O33  1  0.09740500  0.62274100  0.41984200  1
  O  O34  1  0.70289800  0.67756300  0.08015800  1
  O  O35  1  0.79710200  0.87725900  0.97466500  1
  O  O36  1  0.47466500  0.59740500  0.17756300  1
  O  O37  1  0.58015800  0.90259500  0.37725900  1
  O  O38  1  0.91984200  0.29710200  0.32243700  1
  O  O39  1  0.02533500  0.20289800  0.12274100  1
  O  O40  1  0.17756300  0.47466500  0.59740500  1
  O  O41  1  0.37725900  0.58015800  0.90259500  1
  O  O42  1  0.32243700  0.91984200  0.29710200  1
  O  O43  1  0.12274100  0.02533500  0.20289800  1
  O  O44  1  0.59740500  0.17756300  0.47466500  1
  O  O45  1  0.90259500  0.37725900  0.58015800  1
  O  O46  1  0.29710200  0.32243700  0.91984200  1
  O  O47  1  0.20289800  0.12274100  0.02533500  1
loop_
_geom_bond_atom_site_label_1
_geom_bond_atom_site_label_2
_geom_bond_distance
_geom_bond_site_symmetry_2
Gd0 O41 2.380860 1_555
Gd0 O1 2.380860 1_455
Gd0 O0 2.380867 1_555
Gd0 O40 2.380867 1_555
Gd0 O5 2.519479 1_555
Gd0 O45 2.519479 1_455
Gd0 O46 2.519485 1_555
Gd0 O6 2.519485 1_555
Gd1 O3 2.380857 1_555
Gd1 O43 2.380857 1_555
Gd1 O2 2.380867 1_555
Gd1 O42 2.380867 1_545
Gd1 O44 2.519485 1_555
Gd1 O4 2.519485 1_545
Gd1 O47 2.519492 1_555
Gd1 O7 2.519492 1_555
Gd2 O37 2.380860 1_555
Gd2 O5 2.380860 1_554
Gd2 O4 2.380867 1_555
Gd2 O36 2.380867 1_555
Gd2 O9 2.519479 1_555
Gd2 O41 2.519479 1_554
Gd2 O42 2.519485 1_555
Gd2 O10 2.519485 1_555
Gd3 O7 2.380857 1_555
Gd3 O39 2.380857 1_555
Gd3 O6 2.380867 1_555
Gd3 O38 2.380867 1_455
Gd3 O40 2.519485 1_555
Gd3 O8 2.519485 1_455
Gd3 O43 2.519492 1_555
Gd3 O11 2.519492 1_555
Gd4 O45 2.380860 1_555
Gd4 O9 2.380860 1_545
Gd4 O8 2.380867 1_555
Gd4 O44 2.380867 1_555
Gd4 O1 2.519479 1_555
Gd4 O37 2.519479 1_545
Gd4 O38 2.519485 1_555
Gd4 O2 2.519485 1_555
Gd5 O11 2.380857 1_555
Gd5 O47 2.380857 1_555
Gd5 O10 2.380867 1_555
Gd5 O46 2.380867 1_554
Gd5 O36 2.519485 1_555
Gd5 O0 2.519485 1_554
Gd5 O39 2.519492 1_555
Gd5 O3 2.519492 1_555
Gd6 O13 2.380860 1_655
Gd6 O29 2.380860 1_555
Gd6 O28 2.380867 1_555
Gd6 O12 2.380867 1_555
Gd6 O33 2.519479 1_655
Gd6 O17 2.519479 1_555
Gd6 O34 2.519485 1_555
Gd6 O18 2.519485 1_555
Gd7 O31 2.380857 1_555
Gd7 O15 2.380857 1_555
Gd7 O14 2.380867 1_555
Gd7 O30 2.380867 1_565
Gd7 O16 2.519485 1_565
Gd7 O32 2.519485 1_555
Gd7 O19 2.519492 1_555
Gd7 O35 2.519492 1_555
Gd8 O17 2.380860 1_556
Gd8 O25 2.380860 1_555
Gd8 O24 2.380867 1_555
Gd8 O16 2.380867 1_555
Gd8 O29 2.519479 1_556
Gd8 O21 2.519479 1_555
Gd8 O30 2.519485 1_555
Gd8 O22 2.519485 1_555
Gd9 O19 2.380857 1_555
Gd9 O27 2.380857 1_555
Gd9 O26 2.380867 1_655
Gd9 O18 2.380867 1_555
Gd9 O20 2.519485 1_655
Gd9 O28 2.519485 1_555
Gd9 O23 2.519492 1_555
Gd9 O31 2.519492 1_555
Gd10 O33 2.380860 1_555
Gd10 O21 2.380860 1_565
Gd10 O32 2.380867 1_555
Gd10 O20 2.380867 1_555
Gd10 O25 2.519479 1_565
Gd10 O13 2.519479 1_555
Gd10 O26 2.519485 1_555
Gd10 O14 2.519485 1_555
Gd11 O35 2.380857 1_555
Gd11 O23 2.380857 1_555
Gd11 O34 2.380867 1_556
Gd11 O22 2.380867 1_555
Gd11 O12 2.519485 1_556
Gd11 O24 2.519485 1_555
Gd11 O15 2.519492 1_555
Gd11 O27 2.519492 1_555
Ga0 O12 2.026952 1_455
Ga0 O10 2.026952 1_555
Ga0 O22 2.026952 1_454
Ga0 O0 2.026952 1_554
Ga0 O17 2.026958 1_455
Ga0 O5 2.026958 1_554
Ga1 O20 2.026952 1_545
Ga1 O6 2.026952 1_555
Ga1 O18 2.026952 1_445
Ga1 O8 2.026952 1_455
Ga1 O13 2.026958 1_545
Ga1 O1 2.026958 1_455
Ga2 O16 2.026952 1_554
Ga2 O14 2.026952 1_544
Ga2 O2 2.026952 1_555
Ga2 O4 2.026952 1_545
Ga2 O21 2.026958 1_554
Ga2 O9 2.026958 1_545
Ga3 O15 2.026954 1_555
Ga3 O19 2.026954 1_555
Ga3 O23 2.026954 1_555
Ga3 O7 2.026954 1_555
Ga3 O11 2.026954 1_555
Ga3 O3 2.026954 1_555
Ga4 O34 2.026952 1_555
Ga4 O46 2.026952 1_554
Ga4 O36 2.026952 1_555
Ga4 O24 2.026952 1_554
Ga4 O29 2.026958 1_555
Ga4 O41 2.026958 1_554
Ga5 O30 2.026952 1_555
Ga5 O42 2.026952 1_545
Ga5 O44 2.026952 1_555
Ga5 O32 2.026952 1_545
Ga5 O25 2.026958 1_555
Ga5 O37 2.026958 1_545
Ga6 O26 2.026952 1_555
Ga6 O38 2.026952 1_455
Ga6 O40 2.026952 1_555
Ga6 O28 2.026952 1_455
Ga6 O33 2.026958 1_555
Ga6 O45 2.026958 1_455
Ga7 O43 2.026954 1_555
Ga7 O39 2.026954 1_555
Ga7 O47 2.026954 1_555
Ga7 O27 2.026954 1_444
Ga7 O31 2.026954 1_444
Ga7 O35 2.026954 1_444
Ga8 O15 1.873311 1_555
Ga8 O14 1.873314 1_555
Ga8 O40 1.873314 1_555
Ga8 O41 1.873316 1_555
Ga9 O43 1.873311 1_565
Ga9 O42 1.873314 1_555
Ga9 O12 1.873314 1_455
Ga9 O13 1.873316 1_555
Ga10 O19 1.873311 1_555
Ga10 O18 1.873314 1_555
Ga10 O36 1.873314 1_555
Ga10 O37 1.873316 1_555
Ga11 O39 1.873311 1_655
Ga11 O38 1.873314 1_555
Ga11 O16 1.873314 1_554
Ga11 O17 1.873316 1_555
Ga12 O23 1.873311 1_555
Ga12 O22 1.873314 1_555
Ga12 O44 1.873314 1_555
Ga12 O45 1.873316 1_555
Ga13 O47 1.873311 1_556
Ga13 O46 1.873314 1_555
Ga13 O20 1.873314 1_545
Ga13 O21 1.873316 1_555
Ga14 O3 1.873311 1_555
Ga14 O28 1.873314 1_555
Ga14 O2 1.873314 1_555
Ga14 O29 1.873316 1_555
Ga15 O31 1.873311 1_545
Ga15 O0 1.873314 1_655
Ga15 O30 1.873314 1_555
Ga15 O1 1.873316 1_555
Ga16 O7 1.873311 1_555
Ga16 O6 1.873314 1_555
Ga16 O24 1.873314 1_555
Ga16 O25 1.873316 1_555
Ga17 O27 1.873311 1_455
Ga17 O4 1.873314 1_556
Ga17 O26 1.873314 1_555
Ga17 O5 1.873316 1_555
Ga18 O11 1.873311 1_555
Ga18 O32 1.873314 1_555
Ga18 O10 1.873314 1_555
Ga18 O33 1.873316 1_555
Ga19 O35 1.873311 1_554
Ga19 O8 1.873314 1_565
Ga19 O34 1.873314 1_555
Ga19 O9 1.873316 1_555
