# generated using pymatgen
data_MgMn4(CuO4)2
_symmetry_space_group_name_H-M   'P 1'
_cell_length_a   6.02559671
_cell_length_b   6.64416987
_cell_length_c   6.62291975
_cell_angle_alpha   55.96537826
_cell_angle_beta   62.95767432
_cell_angle_gamma   63.04888791
_symmetry_Int_Tables_number   1
_chemical_formula_structural   MgMn4(CuO4)2
_chemical_formula_sum   'Mg1 Mn4 Cu2 O8'
_cell_volume   188.47640331
_cell_formula_units_Z   1
loop_
 _symmetry_equiv_pos_site_id
 _symmetry_equiv_pos_as_xyz
  1  'x, y, z'
loop_
 _atom_site_type_symbol
 _atom_site_label
 _atom_site_symmetry_multiplicity
 _atom_site_fract_x
 _atom_site_fract_y
 _atom_site_fract_z
 _atom_site_occupancy
  Mg  Mg0  1  0.69405341  0.05535626  0.05561648  1
  Mn  Mn0  1  0.46669638  0.02795126  0.53862425  1
  Mn  Mn1  1  0.98619893  0.51494241  0.51465261  1
  Mn  Mn2  1  0.47029670  0.53402529  0.02565762  1
  Mn  Mn3  1  0.48429093  0.51493475  0.51474458  1
  Cu  Cu0  1  0.03348140  0.22848374  0.20404394  1
  Cu  Cu1  1  0.97646836  0.76340316  0.78411467  1
  O  O0  1  0.70188027  0.75149531  0.75735078  1
  O  O1  1  0.25793848  0.28965418  0.69458158  1
  O  O2  1  0.26037069  0.69065664  0.28875961  1
  O  O3  1  0.72073064  0.23119236  0.22513205  1
  O  O4  1  0.74075853  0.30736873  0.71125526  1
  O  O5  1  0.28976033  0.75125537  0.75730690  1
  O  O6  1  0.32253614  0.23136602  0.22514836  1
  O  O7  1  0.74037380  0.71207652  0.30717730  1
loop_
_geom_bond_atom_site_label_1
_geom_bond_atom_site_label_2
_geom_bond_distance
_geom_bond_site_symmetry_2
Mg0 O7 1.909950 1_545
Mg0 O4 1.911323 1_554
Mg0 O6 2.109712 1_555
Mg0 O3 2.110379 1_555
Mn0 O5 2.001545 1_545
Mn0 O0 2.002311 1_545
Mn0 O3 2.079118 1_555
Mn0 O6 2.079954 1_555
Mn0 O1 2.125781 1_555
Mn1 O4 1.967841 1_555
Mn1 O7 1.968560 1_555
Mn1 O2 1.968820 1_655
Mn1 O1 1.974216 1_655
Mn1 O0 2.423240 1_555
Mn2 O5 1.971956 1_554
Mn2 O0 1.972677 1_554
Mn2 O3 2.038596 1_555
Mn2 O6 2.039943 1_555
Mn2 O2 2.133496 1_555
Mn3 O4 1.967674 1_555
Mn3 O7 1.968286 1_555
Mn3 O2 1.968736 1_555
Mn3 O1 1.974098 1_555
Mn3 O5 2.421380 1_555
Cu0 O3 1.817678 1_455
Cu0 O6 1.818822 1_555
Cu1 O5 1.781819 1_655
Cu1 O0 1.782210 1_555
