# generated using pymatgen
data_Li2Pt
_symmetry_space_group_name_H-M   'P 1'
_cell_length_a   8.34426144
_cell_length_b   8.34425901
_cell_length_c   5.28509464
_cell_angle_alpha   90.00000000
_cell_angle_beta   90.00000000
_cell_angle_gamma   120.00000169
_symmetry_Int_Tables_number   1
_chemical_formula_structural   Li2Pt
_chemical_formula_sum   'Li16 Pt8'
_cell_volume   318.68312879
_cell_formula_units_Z   8
loop_
 _symmetry_equiv_pos_site_id
 _symmetry_equiv_pos_as_xyz
  1  'x, y, z'
loop_
 _atom_site_type_symbol
 _atom_site_label
 _atom_site_symmetry_multiplicity
 _atom_site_fract_x
 _atom_site_fract_y
 _atom_site_fract_z
 _atom_site_occupancy
  Li  Li0_0  1  0.16666650  0.33333350  0.25000000  1
  Li  Li0_1  1  0.16666650  0.33333350  0.75000000  1
  Li  Li0_2  1  0.16666650  0.83333350  0.25000000  1
  Li  Li0_3  1  0.16666650  0.83333350  0.75000000  1
  Li  Li0_4  1  0.66666650  0.33333350  0.25000000  1
  Li  Li0_5  1  0.66666650  0.33333350  0.75000000  1
  Li  Li0_6  1  0.66666650  0.83333350  0.25000000  1
  Li  Li0_7  1  0.66666650  0.83333350  0.75000000  1
  Li  Li1_0  1  0.33333350  0.16666650  0.25000000  1
  Li  Li1_1  1  0.33333350  0.16666650  0.75000000  1
  Li  Li1_2  1  0.33333350  0.66666650  0.25000000  1
  Li  Li1_3  1  0.33333350  0.66666650  0.75000000  1
  Li  Li1_4  1  0.83333350  0.16666650  0.25000000  1
  Li  Li1_5  1  0.83333350  0.16666650  0.75000000  1
  Li  Li1_6  1  0.83333350  0.66666650  0.25000000  1
  Li  Li1_7  1  0.83333350  0.66666650  0.75000000  1
  Pt  Pt0_0  1  0.00000000  0.00000000  0.00000000  1
  Pt  Pt0_1  1  0.00000000  0.00000000  0.50000000  1
  Pt  Pt0_2  1  0.00000000  0.50000000  0.00000000  1
  Pt  Pt0_3  1  0.00000000  0.50000000  0.50000000  1
  Pt  Pt0_4  1  0.50000000  0.00000000  0.00000000  1
  Pt  Pt0_5  1  0.50000000  0.00000000  0.50000000  1
  Pt  Pt0_6  1  0.50000000  0.50000000  0.00000000  1
  Pt  Pt0_7  1  0.50000000  0.50000000  0.50000000  1
loop_
_geom_bond_atom_site_label_1
_geom_bond_atom_site_label_2
_geom_bond_distance
_geom_bond_site_symmetry_2
Li0_0 Li1_2 2.408778 1_555
Li0_0 Li1_4 2.408778 1_455
Li0_0 Li1_0 2.408785 1_555
Li0_0 Li0_1 2.642547 1_554
Li0_0 Li0_1 2.642547 1_555
Li0_0 Pt0_2 2.747358 1_555
Li0_0 Pt0_3 2.747358 1_555
Li0_0 Pt0_1 2.747361 1_555
Li0_0 Pt0_0 2.747361 1_555
Li0_0 Pt0_7 2.747361 1_555
Li0_0 Pt0_6 2.747361 1_555
Li0_1 Li1_3 2.408778 1_555
Li0_1 Li1_5 2.408778 1_455
Li0_1 Li1_1 2.408785 1_555
Li0_1 Pt0_2 2.747358 1_556
Li0_1 Pt0_3 2.747358 1_555
Li0_1 Pt0_1 2.747361 1_555
Li0_1 Pt0_0 2.747361 1_556
Li0_1 Pt0_7 2.747361 1_555
Li0_1 Pt0_6 2.747361 1_556
Li0_2 Li1_0 2.408778 1_565
Li0_2 Li1_6 2.408778 1_455
Li0_2 Li1_2 2.408785 1_555
Li0_2 Li0_3 2.642547 1_555
Li0_2 Li0_3 2.642547 1_554
Li0_2 Pt0_0 2.747358 1_565
Li0_2 Pt0_1 2.747358 1_565
Li0_2 Pt0_3 2.747361 1_555
Li0_2 Pt0_2 2.747361 1_555
Li0_2 Pt0_4 2.747361 1_565
Li0_2 Pt0_5 2.747361 1_565
Li0_3 Li1_1 2.408778 1_565
Li0_3 Li1_7 2.408778 1_455
Li0_3 Li1_3 2.408785 1_555
Li0_3 Pt0_0 2.747358 1_566
Li0_3 Pt0_1 2.747358 1_565
Li0_3 Pt0_2 2.747361 1_556
Li0_3 Pt0_3 2.747361 1_555
Li0_3 Pt0_4 2.747361 1_566
Li0_3 Pt0_5 2.747361 1_565
Li0_4 Li1_6 2.408778 1_555
Li0_4 Li1_0 2.408778 1_555
Li0_4 Li1_4 2.408785 1_555
Li0_4 Li0_5 2.642547 1_555
Li0_4 Li0_5 2.642547 1_554
Li0_4 Pt0_6 2.747358 1_555
Li0_4 Pt0_7 2.747358 1_555
Li0_4 Pt0_4 2.747361 1_555
Li0_4 Pt0_5 2.747361 1_555
Li0_4 Pt0_2 2.747361 1_655
Li0_4 Pt0_3 2.747361 1_655
Li0_5 Li1_7 2.408778 1_555
Li0_5 Li1_1 2.408778 1_555
Li0_5 Li1_5 2.408785 1_555
Li0_5 Pt0_6 2.747358 1_556
Li0_5 Pt0_7 2.747358 1_555
Li0_5 Pt0_5 2.747361 1_555
Li0_5 Pt0_4 2.747361 1_556
Li0_5 Pt0_2 2.747361 1_656
Li0_5 Pt0_3 2.747361 1_655
Li0_6 Li1_4 2.408778 1_565
Li0_6 Li1_2 2.408778 1_555
Li0_6 Li1_6 2.408785 1_555
Li0_6 Li0_7 2.642547 1_555
Li0_6 Li0_7 2.642547 1_554
Li0_6 Pt0_5 2.747358 1_565
Li0_6 Pt0_4 2.747358 1_565
Li0_6 Pt0_6 2.747361 1_555
Li0_6 Pt0_7 2.747361 1_555
Li0_6 Pt0_0 2.747361 1_665
Li0_6 Pt0_1 2.747361 1_665
Li0_7 Li1_5 2.408778 1_565
Li0_7 Li1_3 2.408778 1_555
Li0_7 Li1_7 2.408785 1_555
Li0_7 Pt0_5 2.747358 1_565
Li0_7 Pt0_4 2.747358 1_566
Li0_7 Pt0_6 2.747361 1_556
Li0_7 Pt0_7 2.747361 1_555
Li0_7 Pt0_0 2.747361 1_666
Li0_7 Pt0_1 2.747361 1_665
Li1_0 Li1_1 2.642547 1_555
Li1_0 Li1_1 2.642547 1_554
Li1_0 Pt0_5 2.747358 1_555
Li1_0 Pt0_4 2.747358 1_555
Li1_0 Pt0_6 2.747361 1_555
Li1_0 Pt0_7 2.747361 1_555
Li1_0 Pt0_0 2.747361 1_555
Li1_0 Pt0_1 2.747361 1_555
Li1_1 Pt0_5 2.747358 1_555
Li1_1 Pt0_4 2.747358 1_556
Li1_1 Pt0_6 2.747361 1_556
Li1_1 Pt0_7 2.747361 1_555
Li1_1 Pt0_0 2.747361 1_556
Li1_1 Pt0_1 2.747361 1_555
Li1_2 Li1_3 2.642547 1_555
Li1_2 Li1_3 2.642547 1_554
Li1_2 Pt0_7 2.747358 1_555
Li1_2 Pt0_6 2.747358 1_555
Li1_2 Pt0_4 2.747361 1_565
Li1_2 Pt0_5 2.747361 1_565
Li1_2 Pt0_2 2.747361 1_555
Li1_2 Pt0_3 2.747361 1_555
Li1_3 Pt0_7 2.747358 1_555
Li1_3 Pt0_6 2.747358 1_556
Li1_3 Pt0_5 2.747361 1_565
Li1_3 Pt0_4 2.747361 1_566
Li1_3 Pt0_2 2.747361 1_556
Li1_3 Pt0_3 2.747361 1_555
Li1_4 Li1_5 2.642547 1_554
Li1_4 Li1_5 2.642547 1_555
Li1_4 Pt0_0 2.747358 1_655
Li1_4 Pt0_1 2.747358 1_655
Li1_4 Pt0_2 2.747361 1_655
Li1_4 Pt0_3 2.747361 1_655
Li1_4 Pt0_4 2.747361 1_555
Li1_4 Pt0_5 2.747361 1_555
Li1_5 Pt0_0 2.747358 1_656
Li1_5 Pt0_1 2.747358 1_655
Li1_5 Pt0_2 2.747361 1_656
Li1_5 Pt0_3 2.747361 1_655
Li1_5 Pt0_4 2.747361 1_556
Li1_5 Pt0_5 2.747361 1_555
Li1_6 Li1_7 2.642547 1_554
Li1_6 Li1_7 2.642547 1_555
Li1_6 Pt0_3 2.747358 1_655
Li1_6 Pt0_2 2.747358 1_655
Li1_6 Pt0_1 2.747361 1_665
Li1_6 Pt0_0 2.747361 1_665
Li1_6 Pt0_7 2.747361 1_555
Li1_6 Pt0_6 2.747361 1_555
Li1_7 Pt0_3 2.747358 1_655
Li1_7 Pt0_2 2.747358 1_656
Li1_7 Pt0_1 2.747361 1_665
Li1_7 Pt0_0 2.747361 1_666
Li1_7 Pt0_7 2.747361 1_555
Li1_7 Pt0_6 2.747361 1_556
Pt0_0 Pt0_1 2.642547 1_554
Pt0_0 Pt0_1 2.642547 1_555
Pt0_2 Pt0_3 2.642547 1_555
Pt0_2 Pt0_3 2.642547 1_554
Pt0_4 Pt0_5 2.642547 1_554
Pt0_4 Pt0_5 2.642547 1_555
Pt0_6 Pt0_7 2.642547 1_555
Pt0_6 Pt0_7 2.642547 1_554
