# generated using pymatgen
data_MgFe(CoO3)2
_symmetry_space_group_name_H-M   'P 1'
_cell_length_a   7.09600377
_cell_length_b   2.89824925
_cell_length_c   5.44848267
_cell_angle_alpha   89.85426817
_cell_angle_beta   105.67732444
_cell_angle_gamma   78.16180073
_symmetry_Int_Tables_number   1
_chemical_formula_structural   MgFe(CoO3)2
_chemical_formula_sum   'Mg1 Fe1 Co2 O6'
_cell_volume   105.39022678
_cell_formula_units_Z   1
loop_
 _symmetry_equiv_pos_site_id
 _symmetry_equiv_pos_as_xyz
  1  'x, y, z'
loop_
 _atom_site_type_symbol
 _atom_site_label
 _atom_site_symmetry_multiplicity
 _atom_site_fract_x
 _atom_site_fract_y
 _atom_site_fract_z
 _atom_site_occupancy
  Mg  Mg0  1  0.20976300  0.39522900  0.68993900  1
  Fe  Fe0  1  0.35716500  0.32115700  0.25245400  1
  Co  Co0  1  0.96757000  0.01722200  0.04429300  1
  Co  Co1  1  0.65349600  0.67300300  0.66216500  1
  O  O0  1  0.05523100  0.47245400  0.27862600  1
  O  O1  1  0.36704700  0.81527100  0.53327500  1
  O  O2  1  0.65998800  0.17109000  0.88745400  1
  O  O3  1  0.27916800  0.86153300  0.99087600  1
  O  O4  1  0.64571800  0.17584900  0.43028800  1
  O  O5  1  0.93485300  0.53469100  0.79313200  1
loop_
_geom_bond_atom_site_label_1
_geom_bond_atom_site_label_2
_geom_bond_distance
_geom_bond_site_symmetry_2
Mg0 O1 2.126813 1_555
Mg0 O1 2.133541 1_545
Mg0 O5 2.134330 1_455
Mg0 O3 2.135806 1_545
Mg0 O3 2.146022 1_555
Mg0 O0 2.200778 1_555
Fe0 O4 1.969936 1_555
Fe0 O3 1.999258 1_554
Fe0 O3 1.999473 1_544
Fe0 O1 2.093819 1_545
Fe0 O1 2.095505 1_555
Fe0 O0 2.140792 1_555
Co0 O0 1.915061 1_645
Co0 O0 1.916740 1_655
Co0 O5 1.962348 1_554
Co0 O5 1.963055 1_544
Co0 O2 2.069682 1_554
Co0 O3 2.261940 1_644
Co1 O5 1.885779 1_555
Co1 O2 1.886203 1_555
Co1 O2 1.896971 1_565
Co1 O4 1.908678 1_565
Co1 O1 1.917818 1_555
Co1 O4 1.918202 1_555
