# generated using pymatgen
data_Na2HfSi2GeSO12
_symmetry_space_group_name_H-M   'P 1'
_cell_length_a   8.85910518
_cell_length_b   8.82462997
_cell_length_c   22.40321624
_cell_angle_alpha   90.28769973
_cell_angle_beta   89.36934883
_cell_angle_gamma   119.91644224
_symmetry_Int_Tables_number   1
_chemical_formula_structural   Na2HfSi2GeSO12
_chemical_formula_sum   'Na12 Hf6 Si12 Ge6 S6 O72'
_cell_volume   1517.97998589
_cell_formula_units_Z   6
loop_
 _symmetry_equiv_pos_site_id
 _symmetry_equiv_pos_as_xyz
  1  'x, y, z'
loop_
 _atom_site_type_symbol
 _atom_site_label
 _atom_site_symmetry_multiplicity
 _atom_site_fract_x
 _atom_site_fract_y
 _atom_site_fract_z
 _atom_site_occupancy
  Na  Na0  1  0.99761953  0.62550132  0.25558818  1
  Na  Na1  1  0.37165691  0.00564137  0.75329748  1
  Na  Na2  1  0.66398924  0.95827745  0.58845647  1
  Na  Na3  1  0.03482063  0.33887423  0.09028325  1
  Na  Na4  1  0.32339545  0.29337772  0.92177812  1
  Na  Na5  1  0.69912624  0.66868160  0.42137774  1
  Na  Na6  1  0.01956833  0.99706088  0.49988820  1
  Na  Na7  1  0.01166104  0.98417137  0.00334679  1
  Na  Na8  1  0.68507394  0.32286536  0.83185414  1
  Na  Na9  1  0.67185032  0.31677283  0.33758678  1
  Na  Na10  1  0.34925227  0.65775547  0.17075800  1
  Na  Na11  1  0.34272811  0.64998460  0.66550419  1
  Hf  Hf0  1  0.00249456  0.01390779  0.85052753  1
  Hf  Hf1  1  0.66915798  0.34380549  0.19201292  1
  Hf  Hf2  1  0.66463254  0.33476514  0.98268949  1
  Hf  Hf3  1  0.31811866  0.66430891  0.02225422  1
  Hf  Hf4  1  0.33575358  0.67788601  0.52057738  1
  Hf  Hf5  1  0.33687134  0.66729339  0.80864641  1
  Si  Si0  1  0.70628332  0.72536420  0.25215036  1
  Si  Si1  1  0.00952586  0.28441028  0.25411665  1
  Si  Si2  1  0.28721578  0.28807493  0.74285813  1
  Si  Si3  1  0.71827993  0.01348886  0.74080962  1
  Si  Si4  1  0.37537729  0.05739148  0.58269799  1
  Si  Si5  1  0.67475730  0.61514097  0.58435776  1
  Si  Si6  1  0.95591712  0.64154292  0.08817118  1
  Si  Si7  1  0.36365267  0.32401804  0.08667560  1
  Si  Si8  1  0.03535167  0.37645403  0.91635180  1
  Si  Si9  1  0.33310063  0.96262266  0.91365538  1
  Si  Si10  1  0.61923734  0.96482222  0.41516144  1
  Si  Si11  1  0.04268206  0.66980302  0.41281017  1
  Ge  Ge0  1  0.96985592  0.98349494  0.35405169  1
  Ge  Ge1  1  0.00171538  0.99277710  0.64454982  1
  Ge  Ge2  1  0.00409645  0.00369186  0.15172292  1
  Ge  Ge3  1  0.63964560  0.31718791  0.68460409  1
  Ge  Ge4  1  0.67269537  0.33540654  0.48115529  1
  Ge  Ge5  1  0.33393159  0.66422532  0.31520802  1
  S  S0  1  0.28282558  0.99633806  0.25260802  1
  S  S1  1  0.99068119  0.70285616  0.74642216  1
  S  S2  1  0.95060377  0.33121015  0.58344031  1
  S  S3  1  0.66958767  0.03935883  0.08636639  1
  S  S4  1  0.62569280  0.66988220  0.91672989  1
  S  S5  1  0.32881213  0.37054913  0.41491728  1
  O  O0  1  0.20371067  0.02354672  0.30601320  1
  O  O1  1  0.83084381  0.79254067  0.31142428  1
  O  O2  1  0.98725253  0.16043203  0.31088085  1
  O  O3  1  0.21467096  0.17207590  0.80465153  1
  O  O4  1  0.96786708  0.78388037  0.80142045  1
  O  O5  1  0.82904510  0.03562830  0.80080650  1
  O  O6  1  0.80619568  0.97530353  0.68177134  1
  O  O7  1  0.15822913  0.17901308  0.68845069  1
  O  O8  1  0.02761285  0.81770604  0.69336402  1
  O  O9  1  0.80702334  0.84871964  0.19440262  1
  O  O10  1  0.03745412  0.20320464  0.19087055  1
  O  O11  1  0.17725617  0.96740445  0.19720995  1
  O  O12  1  0.87293329  0.35911022  0.63744954  1
  O  O13  1  0.49765845  0.12412689  0.64279416  1
  O  O14  1  0.65319417  0.49436075  0.64229040  1
  O  O15  1  0.87694686  0.51051103  0.14568288  1
  O  O16  1  0.64411823  0.11950040  0.13961319  1
  O  O17  1  0.48797050  0.34102228  0.14156203  1
  O  O18  1  0.44209643  0.29483414  0.02359209  1
  O  O19  1  0.83793656  0.54453688  0.02953105  1
  O  O20  1  0.69314214  0.14889110  0.03219862  1
  O  O21  1  0.47820086  0.18146378  0.52521990  1
  O  O22  1  0.70524010  0.53396698  0.52123003  1
  O  O23  1  0.84290403  0.30127071  0.52862358  1
  O  O24  1  0.54618856  0.69248124  0.97125756  1
  O  O25  1  0.15442345  0.45512397  0.97658561  1
  O  O26  1  0.32170727  0.84718145  0.97166677  1
  O  O27  1  0.54703480  0.84091986  0.47482219  1
  O  O28  1  0.30434599  0.45290984  0.46916475  1
  O  O29  1  0.16235781  0.69663893  0.47042519  1
  O  O30  1  0.13029970  0.63528952  0.35231126  1
  O  O31  1  0.49140114  0.86131213  0.35869762  1
  O  O32  1  0.36400974  0.48650271  0.36140291  1
  O  O33  1  0.14435801  0.49363386  0.85909552  1
  O  O34  1  0.36091769  0.87853160  0.85194440  1
  O  O35  1  0.51906785  0.64502687  0.86301757  1
  O  O36  1  0.02094174  0.84773457  0.40599016  1
  O  O37  1  0.81337229  0.97849798  0.40892759  1
  O  O38  1  0.17593135  0.19590838  0.40936090  1
  O  O39  1  0.01823057  0.18313630  0.91226858  1
  O  O40  1  0.15426795  0.97361698  0.91141013  1
  O  O41  1  0.80088256  0.82030168  0.90980758  1
  O  O42  1  0.96470023  0.16966118  0.58566944  1
  O  O43  1  0.17974310  0.03301514  0.58975271  1
  O  O44  1  0.84667912  0.81717241  0.59055030  1
  O  O45  1  0.97208828  0.83139534  0.09739636  1
  O  O46  1  0.83302975  0.03202090  0.08876381  1
  O  O47  1  0.16369590  0.15578464  0.09398635  1
  O  O48  1  0.70329086  0.19439313  0.73613732  1
  O  O49  1  0.48193292  0.30354079  0.74012164  1
  O  O50  1  0.83932523  0.52912440  0.74108688  1
  O  O51  1  0.68908021  0.53057908  0.24701898  1
  O  O52  1  0.83586212  0.30681271  0.24956388  1
  O  O53  1  0.46039266  0.14771293  0.24684422  1
  O  O54  1  0.63575818  0.50722280  0.92042104  1
  O  O55  1  0.84588201  0.35844264  0.92124893  1
  O  O56  1  0.49695413  0.16319335  0.91872417  1
  O  O57  1  0.64319680  0.16058418  0.42579800  1
  O  O58  1  0.49243150  0.36116693  0.41915605  1
  O  O59  1  0.84023337  0.50001459  0.42202206  1
  O  O60  1  0.34533894  0.49987123  0.08312919  1
  O  O61  1  0.14901632  0.65891477  0.08198525  1
  O  O62  1  0.51949313  0.86263726  0.07970325  1
  O  O63  1  0.35839365  0.86265529  0.57735909  1
  O  O64  1  0.50244383  0.63968276  0.57909090  1
  O  O65  1  0.12725202  0.48488428  0.57713462  1
  O  O66  1  0.29540575  0.83303788  0.25480119  1
  O  O67  1  0.51241541  0.70412981  0.26049774  1
  O  O68  1  0.18076296  0.48669057  0.25997039  1
  O  O69  1  0.31106833  0.48170739  0.74758408  1
  O  O70  1  0.15382894  0.69181098  0.75097969  1
  O  O71  1  0.51766772  0.84739951  0.74627347  1
loop_
_geom_bond_atom_site_label_1
_geom_bond_atom_site_label_2
_geom_bond_distance
_geom_bond_site_symmetry_2
Na0 O66 2.343950 1_655
Na0 O51 2.436389 1_555
Na0 O52 2.441594 1_555
Na0 O30 2.457132 1_655
Na0 O68 2.475838 1_655
Na0 O15 2.680662 1_555
Na0 O1 2.834392 1_555
Na0 O11 2.924172 1_655
Na1 O49 2.322091 1_555
Na1 O71 2.333031 1_545
Na1 O34 2.462765 1_545
Na1 O70 2.463000 1_545
Na1 O48 2.579575 1_555
Na1 O13 2.696108 1_555
Na1 O3 2.720343 1_555
Na2 O42 2.370915 1_565
Na2 O63 2.416057 1_555
Na2 O6 2.417882 1_555
Na2 O64 2.446189 1_555
Na2 O44 2.486895 1_555
Na2 O27 2.754686 1_555
Na2 O13 2.808743 1_565
Na2 O23 2.946035 1_565
Na3 O46 2.387751 1_455
Na3 O60 2.388691 1_555
Na3 O47 2.400902 1_555
Na3 O61 2.487070 1_555
Na3 O10 2.562849 1_555
Na3 O25 2.746976 1_554
Na3 O15 2.801178 1_455
Na3 O20 2.944391 1_455
Na4 O56 2.333981 1_555
Na4 O39 2.384918 1_555
Na4 O54 2.451450 1_555
Na4 O40 2.458689 1_545
Na4 O18 2.519484 1_556
Na4 O25 2.803393 1_555
Na4 O3 2.820998 1_555
Na5 O59 2.373791 1_555
Na5 O58 2.400784 1_555
Na5 O37 2.412117 1_555
Na5 O36 2.496816 1_655
Na5 O22 2.552258 1_555
Na5 O1 2.704770 1_555
Na5 O27 2.747412 1_555
Na5 O32 2.917050 1_555
Na6 O43 2.403086 1_565
Na6 O36 2.479801 1_555
Na6 O44 2.555391 1_455
Na6 O38 2.580801 1_565
Na6 O42 2.634003 1_465
Na6 O37 2.701203 1_455
Na7 O40 2.430064 1_554
Na7 O45 2.433278 1_455
Na7 O47 2.495139 1_565
Na7 O46 2.633691 1_465
Na7 O39 2.679747 1_564
Na7 O41 2.707712 1_454
Na8 O55 2.397787 1_555
Na8 O48 2.461734 1_555
Na8 O56 2.482789 1_555
Na8 O50 2.609674 1_555
Na8 O49 2.695002 1_555
Na8 O54 2.726187 1_555
Na9 O57 2.353065 1_555
Na9 O59 2.458375 1_555
Na9 O52 2.463791 1_555
Na9 O58 2.563083 1_555
Na9 O53 2.670864 1_555
Na9 O51 2.728444 1_555
Na10 O60 2.392128 1_555
Na10 O67 2.400936 1_555
Na10 O68 2.493690 1_555
Na10 O66 2.617676 1_555
Na10 O62 2.637076 1_555
Na10 O61 2.682935 1_555
Na11 O69 2.294743 1_555
Na11 O64 2.413380 1_555
Na11 O71 2.459285 1_555
Na11 O65 2.639357 1_555
Na11 O70 2.672487 1_555
Na11 O63 2.685586 1_555
Hf0 O3 1.972974 1_555
Hf0 O39 1.984614 1_555
Hf0 O5 1.993065 1_455
Hf0 O40 2.077692 1_545
Hf0 O4 2.188341 1_445
Hf0 O41 2.190802 1_445
Hf1 O17 1.963407 1_555
Hf1 O15 1.975396 1_555
Hf1 O51 1.990116 1_555
Hf1 O52 2.115905 1_555
Hf1 O53 2.168632 1_555
Hf1 O16 2.211284 1_555
Hf2 O19 2.016496 1_556
Hf2 O18 2.030048 1_556
Hf2 O55 2.033763 1_555
Hf2 O56 2.081885 1_555
Hf2 O20 2.102901 1_556
Hf2 O54 2.178323 1_555
Hf3 O26 1.963701 1_554
Hf3 O25 1.975074 1_554
Hf3 O61 1.980562 1_555
Hf3 O60 2.097604 1_555
Hf3 O62 2.194480 1_555
Hf3 O24 2.213703 1_554
Hf4 O27 1.977523 1_555
Hf4 O29 1.985680 1_555
Hf4 O63 1.993897 1_555
Hf4 O64 2.134585 1_555
Hf4 O65 2.179510 1_555
Hf4 O28 2.186025 1_555
Hf5 O33 1.975485 1_555
Hf5 O34 2.012824 1_555
Hf5 O69 2.053477 1_555
Hf5 O71 2.116106 1_555
Hf5 O35 2.118893 1_555
Hf5 O70 2.178144 1_555
Ge0 O2 1.780168 1_565
Ge0 O1 1.791076 1_555
Ge0 O37 1.826815 1_555
Ge0 O36 1.886922 1_655
Ge0 O0 2.190806 1_665
Ge0 O38 2.234949 1_665
Ge1 O7 1.825276 1_565
Ge1 O6 1.849997 1_455
Ge1 O43 1.877168 1_565
Ge1 O44 1.909477 1_455
Ge1 O8 2.002865 1_555
Ge1 O42 2.196560 1_465
Ge2 O9 1.851330 1_445
Ge2 O10 1.851361 1_555
Ge2 O45 1.852687 1_445
Ge2 O47 1.886244 1_555
Ge2 O11 2.005488 1_545
Ge2 O46 2.185682 1_455
Ge3 O14 1.784017 1_555
Ge3 O13 1.798465 1_555
Ge3 O49 1.819074 1_555
Ge3 O48 1.860477 1_555
Ge3 O12 2.171962 1_555
Ge3 O50 2.225717 1_555
Ge4 O21 1.852059 1_555
Ge4 O22 1.856190 1_555
Ge4 O57 1.890019 1_555
Ge4 O59 1.973202 1_555
Ge4 O23 1.996749 1_555
Ge4 O58 2.223826 1_555
Ge5 O31 1.874312 1_555
Ge5 O30 1.876217 1_555
Ge5 O67 1.879573 1_555
Ge5 O68 1.929806 1_555
Ge5 O32 2.010212 1_555
Ge5 O66 2.169040 1_555
O0 S0 1.458389 1_545
O1 Si0 1.644492 1_555
O2 Si1 1.626727 1_655
O3 Si2 1.647971 1_555
O4 S1 1.483263 1_555
O5 Si3 1.625705 1_555
O6 Si3 1.644444 1_565
O7 Si2 1.624702 1_555
O8 S1 1.489954 1_455
O9 Si0 1.635511 1_555
O10 Si1 1.655699 1_555
O11 S0 1.504786 1_555
O12 S2 1.464857 1_555
O13 Si4 1.649484 1_555
O14 Si5 1.631667 1_555
O15 Si6 1.635480 1_555
O16 S3 1.455629 1_555
O17 Si7 1.615731 1_555
O18 Si7 1.643124 1_555
O19 Si6 1.636335 1_555
O20 S3 1.501833 1_555
O21 Si4 1.637138 1_555
O22 Si5 1.661498 1_555
O23 S2 1.503131 1_555
O24 S4 1.465223 1_555
O25 Si8 1.645335 1_555
O26 Si9 1.626316 1_555
O27 Si10 1.639931 1_555
O28 S5 1.481447 1_555
O29 Si11 1.619514 1_555
O30 Si11 1.655538 1_555
O31 Si10 1.644742 1_555
O32 S5 1.505803 1_555
O33 Si8 1.623956 1_555
O34 Si9 1.639324 1_555
O35 S4 1.484617 1_555
O36 Si11 1.682443 1_555
O37 Si10 1.667286 1_555
O38 S5 1.464490 1_555
O39 Si8 1.637773 1_555
O40 Si9 1.636174 1_555
O41 S4 1.461723 1_555
O42 S2 1.492946 1_555
O43 Si4 1.642399 1_555
O44 Si5 1.676657 1_555
O45 Si6 1.621077 1_555
O46 S3 1.482872 1_555
O47 Si7 1.655801 1_555
O48 Si3 1.670497 1_555
O49 Si2 1.661625 1_555
O50 S1 1.453909 1_555
O51 Si0 1.651720 1_555
O52 Si1 1.650311 1_655
O53 S0 1.475434 1_545
O54 S4 1.484660 1_555
O55 Si8 1.607722 1_655
O56 Si9 1.640617 1_545
O57 Si10 1.648457 1_545
O58 S5 1.496597 1_555
O59 Si11 1.678909 1_655
O60 Si7 1.641189 1_555
O61 Si6 1.643947 1_455
O62 S3 1.468345 1_565
O63 Si4 1.652430 1_565
O64 Si5 1.650804 1_555
O65 S2 1.479269 1_455
O66 S0 1.500843 1_555
O67 Si0 1.640774 1_555
O68 Si1 1.675067 1_555
O69 Si2 1.616833 1_555
O70 S1 1.500937 1_455
O71 Si3 1.649400 1_565
