# generated using pymatgen
data_BaMo3O10
_symmetry_space_group_name_H-M   'P 1'
_cell_length_a   7.69798900
_cell_length_b   7.32193400
_cell_length_c   15.40767644
_cell_angle_alpha   73.28098658
_cell_angle_beta   90.00000000
_cell_angle_gamma   90.00000000
_symmetry_Int_Tables_number   1
_chemical_formula_structural   BaMo3O10
_chemical_formula_sum   'Ba4 Mo12 O40'
_cell_volume   831.72932511
_cell_formula_units_Z   4
loop_
 _symmetry_equiv_pos_site_id
 _symmetry_equiv_pos_as_xyz
  1  'x, y, z'
loop_
 _atom_site_type_symbol
 _atom_site_label
 _atom_site_symmetry_multiplicity
 _atom_site_fract_x
 _atom_site_fract_y
 _atom_site_fract_z
 _atom_site_occupancy
  Ba  Ba0  1  0.36880100  0.16922600  0.18184600  1
  Ba  Ba1  1  0.86880100  0.83077400  0.31815400  1
  Ba  Ba2  1  0.13119900  0.16922600  0.68184600  1
  Ba  Ba3  1  0.63119900  0.83077400  0.81815400  1
  Mo  Mo0  1  0.87205900  0.35172900  0.08482700  1
  Mo  Mo1  1  0.37205900  0.64827100  0.41517300  1
  Mo  Mo2  1  0.62794100  0.35172900  0.58482700  1
  Mo  Mo3  1  0.12794100  0.64827100  0.91517300  1
  Mo  Mo4  1  0.35669500  0.66581700  0.63463300  1
  Mo  Mo5  1  0.85669500  0.33418300  0.86536700  1
  Mo  Mo6  1  0.36611700  0.29102000  0.89641600  1
  Mo  Mo7  1  0.86611700  0.70898000  0.60358400  1
  Mo  Mo8  1  0.64330500  0.33418300  0.36536700  1
  Mo  Mo9  1  0.14330500  0.66581700  0.13463300  1
  Mo  Mo10  1  0.63388300  0.70898000  0.10358400  1
  Mo  Mo11  1  0.13388300  0.29102000  0.39641600  1
  O  O0  1  0.38598100  0.81485800  0.30884700  1
  O  O1  1  0.88598100  0.18514200  0.19115300  1
  O  O2  1  0.61401900  0.18514200  0.69115300  1
  O  O3  1  0.11401900  0.81485800  0.80884700  1
  O  O4  1  0.86040100  0.20479400  0.00764000  1
  O  O5  1  0.36040100  0.79520600  0.49236000  1
  O  O6  1  0.88518900  0.57020700  0.92907400  1
  O  O7  1  0.38518900  0.42979300  0.57092600  1
  O  O8  1  0.89046300  0.12174400  0.83597100  1
  O  O9  1  0.39046300  0.87825600  0.66402900  1
  O  O10  1  0.86161600  0.43021200  0.58861700  1
  O  O11  1  0.36161600  0.56978800  0.91138300  1
  O  O12  1  0.87039900  0.84278300  0.49033700  1
  O  O13  1  0.37039900  0.15721700  0.00966300  1
  O  O14  1  0.84722900  0.88356600  0.66200100  1
  O  O15  1  0.34722900  0.11643400  0.83799900  1
  O  O16  1  0.38523300  0.65697200  0.12125000  1
  O  O17  1  0.88523300  0.34302800  0.37875000  1
  O  O18  1  0.38037200  0.37356900  0.38539200  1
  O  O19  1  0.88037200  0.62643100  0.11460800  1
  O  O20  1  0.13569700  0.49283200  0.24247000  1
  O  O21  1  0.63569700  0.50716800  0.25753000  1
  O  O22  1  0.65277100  0.88356600  0.16200100  1
  O  O23  1  0.15277100  0.11643400  0.33799900  1
  O  O24  1  0.62960100  0.84278300  0.99033700  1
  O  O25  1  0.12960100  0.15721700  0.50966300  1
  O  O26  1  0.63838400  0.43021200  0.08861700  1
  O  O27  1  0.13838400  0.56978800  0.41138300  1
  O  O28  1  0.10953700  0.87825600  0.16402900  1
  O  O29  1  0.60953700  0.12174400  0.33597100  1
  O  O30  1  0.11481100  0.42979300  0.07092600  1
  O  O31  1  0.61481100  0.57020700  0.42907400  1
  O  O32  1  0.13959900  0.79520600  0.99236000  1
  O  O33  1  0.63959900  0.20479400  0.50764000  1
  O  O34  1  0.61476700  0.34302800  0.87875000  1
  O  O35  1  0.11476700  0.65697200  0.62125000  1
  O  O36  1  0.11962800  0.37356900  0.88539200  1
  O  O37  1  0.61962800  0.62643100  0.61460800  1
  O  O38  1  0.86430300  0.50716800  0.75753000  1
  O  O39  1  0.36430300  0.49283200  0.74247000  1
loop_
_geom_bond_atom_site_label_1
_geom_bond_atom_site_label_2
_geom_bond_distance
_geom_bond_site_symmetry_2
Ba0 O13 2.679587 1_555
Ba0 O0 2.767232 1_545
Ba0 O23 2.858060 1_555
Ba0 O26 2.905568 1_555
Ba0 O30 2.916766 1_555
Ba0 O29 2.952860 1_555
Ba0 O28 2.988979 1_545
Ba0 O22 3.100768 1_545
Ba1 O12 2.679587 1_555
Ba1 O1 2.767232 1_565
Ba1 O22 2.858060 1_555
Ba1 O27 2.905568 1_655
Ba1 O31 2.916766 1_555
Ba1 O28 2.952860 1_655
Ba1 O29 2.988979 1_565
Ba1 O23 3.100768 1_665
Ba2 O25 2.679587 1_555
Ba2 O3 2.767232 1_545
Ba2 O15 2.858060 1_555
Ba2 O10 2.905568 1_455
Ba2 O7 2.916766 1_555
Ba2 O8 2.952860 1_455
Ba2 O9 2.988979 1_545
Ba2 O14 3.100768 1_445
Ba3 O24 2.679587 1_555
Ba3 O2 2.767232 1_565
Ba3 O14 2.858060 1_555
Ba3 O11 2.905568 1_555
Ba3 O6 2.916766 1_555
Ba3 O9 2.952860 1_555
Ba3 O8 2.988979 1_565
Ba3 O15 3.100768 1_565
Mo0 O1 1.741660 1_555
Mo0 O4 1.820996 1_555
Mo0 O26 1.894391 1_555
Mo0 O30 1.947868 1_655
Mo0 O19 2.188877 1_555
Mo0 O6 2.473754 1_554
Mo1 O0 1.741660 1_555
Mo1 O5 1.820996 1_555
Mo1 O27 1.894391 1_555
Mo1 O31 1.947868 1_555
Mo1 O18 2.188877 1_555
Mo1 O7 2.473754 1_555
Mo2 O2 1.741660 1_555
Mo2 O33 1.820996 1_555
Mo2 O10 1.894391 1_555
Mo2 O7 1.947868 1_555
Mo2 O37 2.188877 1_555
Mo2 O31 2.473754 1_555
Mo3 O3 1.741660 1_555
Mo3 O32 1.820996 1_555
Mo3 O11 1.894391 1_555
Mo3 O6 1.947868 1_455
Mo3 O36 2.188877 1_555
Mo3 O30 2.473754 1_556
Mo4 O9 1.759978 1_555
Mo4 O39 1.776935 1_555
Mo4 O35 1.876906 1_555
Mo4 O37 2.079989 1_555
Mo4 O5 2.123383 1_555
Mo4 O7 2.230269 1_555
Mo5 O8 1.759978 1_555
Mo5 O38 1.776935 1_555
Mo5 O34 1.876906 1_555
Mo5 O36 2.079989 1_655
Mo5 O4 2.123383 1_556
Mo5 O6 2.230269 1_555
Mo6 O13 1.738371 1_556
Mo6 O15 1.768424 1_555
Mo6 O34 1.955315 1_555
Mo6 O36 1.983808 1_555
Mo6 O11 2.119286 1_555
Mo6 O39 2.406912 1_555
Mo7 O12 1.738371 1_555
Mo7 O14 1.768424 1_555
Mo7 O35 1.955315 1_655
Mo7 O37 1.983808 1_555
Mo7 O10 2.119286 1_555
Mo7 O38 2.406912 1_555
Mo8 O29 1.759978 1_555
Mo8 O21 1.776935 1_555
Mo8 O17 1.876906 1_555
Mo8 O18 2.079989 1_555
Mo8 O33 2.123383 1_555
Mo8 O31 2.230269 1_555
Mo9 O28 1.759978 1_555
Mo9 O20 1.776935 1_555
Mo9 O16 1.876906 1_555
Mo9 O19 2.079989 1_455
Mo9 O32 2.123383 1_554
Mo9 O30 2.230269 1_555
Mo10 O24 1.738371 1_554
Mo10 O22 1.768424 1_555
Mo10 O16 1.955315 1_555
Mo10 O19 1.983808 1_555
Mo10 O26 2.119286 1_555
Mo10 O21 2.406912 1_555
Mo11 O25 1.738371 1_555
Mo11 O23 1.768424 1_555
Mo11 O17 1.955315 1_455
Mo11 O18 1.983808 1_555
Mo11 O27 2.119286 1_555
Mo11 O20 2.406912 1_555
