# generated using pymatgen
data_Na6TaIn3Si2(PO6)4
_symmetry_space_group_name_H-M   'P 1'
_cell_length_a   15.79529900
_cell_length_b   9.11186419
_cell_length_c   9.11257982
_cell_angle_alpha   90.18916691
_cell_angle_beta   125.10810066
_cell_angle_gamma   89.83431159
_symmetry_Int_Tables_number   1
_chemical_formula_structural   Na6TaIn3Si2(PO6)4
_chemical_formula_sum   'Na12 Ta2 In6 Si4 P8 O48'
_cell_volume   1072.91019493
_cell_formula_units_Z   2
loop_
 _symmetry_equiv_pos_site_id
 _symmetry_equiv_pos_as_xyz
  1  'x, y, z'
loop_
 _atom_site_type_symbol
 _atom_site_label
 _atom_site_symmetry_multiplicity
 _atom_site_fract_x
 _atom_site_fract_y
 _atom_site_fract_z
 _atom_site_occupancy
  Na  Na0  1  0.25018072  0.75158258  0.99611009  1
  Na  Na1  1  0.74465933  0.75435412  0.48399772  1
  Na  Na2  1  0.75018072  0.25158258  0.99611009  1
  Na  Na3  1  0.24465933  0.25435412  0.48399772  1
  Na  Na4  1  0.49922898  0.08817582  0.73823711  1
  Na  Na5  1  0.50544909  0.88617993  0.25066714  1
  Na  Na6  1  0.99922898  0.58817582  0.73823711  1
  Na  Na7  1  0.00544909  0.38617993  0.25066714  1
  Na  Na8  1  0.19005354  0.92979197  0.29172092  1
  Na  Na9  1  0.80927920  0.08140938  0.70905470  1
  Na  Na10  1  0.69005354  0.42979197  0.29172092  1
  Na  Na11  1  0.30927920  0.58140938  0.70905470  1
  Ta  Ta0  1  0.89634965  0.74745884  0.94298969  1
  Ta  Ta1  1  0.39634965  0.24745884  0.94298969  1
  In  In0  1  0.10129595  0.75560167  0.55788289  1
  In  In1  1  0.89693938  0.24441966  0.43923557  1
  In  In2  1  0.10270737  0.25083063  0.05149152  1
  In  In3  1  0.60129595  0.25560167  0.55788289  1
  In  In4  1  0.39693938  0.74441966  0.43923557  1
  In  In5  1  0.60270737  0.75083063  0.05149152  1
  Si  Si0  1  0.35054974  0.90154749  0.75395298  1
  Si  Si1  1  0.65181441  0.10213586  0.25218367  1
  Si  Si2  1  0.85054974  0.40154749  0.75395298  1
  Si  Si3  1  0.15181441  0.60213586  0.25218367  1
  P  P0  1  0.00097541  0.94838871  0.76042144  1
  P  P1  1  0.99728220  0.04525767  0.24617697  1
  P  P2  1  0.50097541  0.44838871  0.76042144  1
  P  P3  1  0.49728220  0.54525767  0.24617697  1
  P  P4  1  0.64863364  0.89411481  0.74045279  1
  P  P5  1  0.35460164  0.10356768  0.25632164  1
  P  P6  1  0.14863364  0.39411481  0.74045279  1
  P  P7  1  0.85460164  0.60356768  0.25632164  1
  O  O0  1  0.15689642  0.56374875  0.74294184  1
  O  O1  1  0.84584077  0.58556081  0.77344728  1
  O  O2  1  0.85222100  0.43491516  0.23527819  1
  O  O3  1  0.15485608  0.42435550  0.24496966  1
  O  O4  1  0.65689642  0.06374875  0.74294184  1
  O  O5  1  0.34584077  0.08556081  0.77344728  1
  O  O6  1  0.35222100  0.93491516  0.23527819  1
  O  O7  1  0.65485608  0.92435550  0.24496966  1
  O  O8  1  0.43127438  0.54743648  0.59618594  1
  O  O9  1  0.57075406  0.53402417  0.93483715  1
  O  O10  1  0.55728364  0.45242176  0.41522624  1
  O  O11  1  0.43677277  0.44305479  0.07559815  1
  O  O12  1  0.93127438  0.04743648  0.59618594  1
  O  O13  1  0.07075406  0.03402417  0.93483715  1
  O  O14  1  0.05728364  0.95242176  0.41522624  1
  O  O15  1  0.93677277  0.94305479  0.07559815  1
  O  O16  1  0.25598273  0.82544075  0.74698820  1
  O  O17  1  0.74943610  0.83384218  0.76461275  1
  O  O18  1  0.73581091  0.19409399  0.23948817  1
  O  O19  1  0.25842954  0.15735791  0.24424367  1
  O  O20  1  0.75598273  0.32544075  0.74698820  1
  O  O21  1  0.24943610  0.33384218  0.76461275  1
  O  O22  1  0.23581091  0.69409399  0.23948817  1
  O  O23  1  0.75842954  0.65735791  0.24424367  1
  O  O24  1  0.35261799  0.88471968  0.57576948  1
  O  O25  1  0.64566580  0.85463100  0.89936473  1
  O  O26  1  0.65826819  0.14255016  0.43134150  1
  O  O27  1  0.35896155  0.16844231  0.09866688  1
  O  O28  1  0.85261799  0.38471968  0.57576948  1
  O  O29  1  0.14566580  0.35463100  0.89936473  1
  O  O30  1  0.15826819  0.64255016  0.43134150  1
  O  O31  1  0.85896155  0.66844231  0.09866688  1
  O  O32  1  0.45604209  0.84156107  0.93338419  1
  O  O33  1  0.55467124  0.83417259  0.56046364  1
  O  O34  1  0.53331405  0.16831735  0.08027183  1
  O  O35  1  0.45179970  0.15196149  0.43604453  1
  O  O36  1  0.95604209  0.34156107  0.93338419  1
  O  O37  1  0.05467124  0.33417259  0.56046364  1
  O  O38  1  0.03331405  0.66831735  0.08027183  1
  O  O39  1  0.95179970  0.65196149  0.43604453  1
  O  O40  1  0.06557136  0.83099546  0.74505711  1
  O  O41  1  0.91856204  0.85544267  0.77074671  1
  O  O42  1  0.91894749  0.15054243  0.23997444  1
  O  O43  1  0.08001986  0.13559473  0.24420087  1
  O  O44  1  0.56557136  0.33099546  0.74505711  1
  O  O45  1  0.41856204  0.35544267  0.77074671  1
  O  O46  1  0.41894749  0.65054243  0.23997444  1
  O  O47  1  0.58001986  0.63559473  0.24420087  1
loop_
_geom_bond_atom_site_label_1
_geom_bond_atom_site_label_2
_geom_bond_distance
_geom_bond_site_symmetry_2
Na0 O22 2.414940 1_556
Na0 O16 2.421695 1_555
Na0 O46 2.465251 1_556
Na0 O6 2.467658 1_556
Na0 O0 2.549744 1_555
Na0 O40 2.566259 1_555
Na1 O7 2.368894 1_555
Na1 O23 2.476777 1_555
Na1 O47 2.484552 1_555
Na1 O17 2.614449 1_555
Na1 O41 2.638993 1_555
Na1 O1 2.653417 1_555
Na2 O18 2.414940 1_556
Na2 O20 2.421695 1_555
Na2 O42 2.465251 1_556
Na2 O2 2.467658 1_556
Na2 O4 2.549744 1_555
Na2 O44 2.566259 1_555
Na3 O3 2.368894 1_555
Na3 O19 2.476777 1_555
Na3 O43 2.484552 1_555
Na3 O21 2.614449 1_555
Na3 O45 2.638993 1_555
Na3 O5 2.653417 1_555
Na4 O44 2.436160 1_555
Na4 O35 2.473318 1_555
Na4 O4 2.475387 1_555
Na4 O5 2.620704 1_555
Na4 O24 2.656045 1_545
Na4 O45 2.837849 1_555
Na4 O25 2.849588 1_545
Na4 O34 2.931681 1_556
Na5 O6 2.382946 1_555
Na5 O7 2.416352 1_555
Na5 O33 2.506134 1_555
Na5 O46 2.519682 1_555
Na5 O32 2.555870 1_554
Na5 O47 2.582186 1_555
Na6 O40 2.436160 1_655
Na6 O39 2.473318 1_555
Na6 O0 2.475387 1_655
Na6 O1 2.620704 1_555
Na6 O28 2.656045 1_555
Na6 O41 2.837849 1_555
Na6 O29 2.849588 1_655
Na6 O38 2.931681 1_656
Na7 O2 2.382946 1_455
Na7 O3 2.416352 1_555
Na7 O37 2.506134 1_555
Na7 O42 2.519682 1_455
Na7 O36 2.555870 1_454
Na7 O43 2.582186 1_555
Na8 O22 2.396097 1_555
Na8 O24 2.412024 1_555
Na8 O43 2.417765 1_565
Na8 O19 2.491900 1_565
Na8 O13 2.826720 1_564
Na8 O6 2.888630 1_555
Na8 O14 2.901372 1_555
Na9 O26 2.337215 1_555
Na9 O20 2.468056 1_555
Na9 O41 2.530995 1_545
Na9 O4 2.602320 1_555
Na9 O17 2.609358 1_545
Na9 O12 2.672257 1_555
Na10 O18 2.396097 1_555
Na10 O28 2.412024 1_555
Na10 O47 2.417765 1_555
Na10 O23 2.491900 1_555
Na10 O9 2.826720 1_554
Na10 O2 2.888630 1_555
Na10 O10 2.901372 1_555
Na11 O30 2.337215 1_555
Na11 O16 2.468056 1_555
Na11 O45 2.530995 1_555
Na11 O0 2.602320 1_555
Na11 O21 2.609358 1_555
Na11 O8 2.672257 1_555
In0 O14 2.087623 1_555
In0 O30 2.093084 1_555
In0 O16 2.122046 1_555
In0 O39 2.165822 1_455
In0 O40 2.190124 1_555
In0 O0 2.231179 1_555
In1 O28 2.158369 1_555
In1 O18 2.161829 1_555
In1 O12 2.163423 1_555
In1 O42 2.205376 1_555
In1 O37 2.221803 1_655
In1 O2 2.338869 1_555
In2 O36 2.082176 1_454
In2 O29 2.090707 1_554
In2 O3 2.146071 1_555
In2 O13 2.159205 1_554
In2 O19 2.211092 1_555
In2 O43 2.247880 1_555
In3 O10 2.087623 1_555
In3 O26 2.093084 1_555
In3 O20 2.122046 1_555
In3 O35 2.165822 1_555
In3 O44 2.190124 1_555
In3 O4 2.231179 1_555
In4 O24 2.158369 1_555
In4 O22 2.161829 1_555
In4 O8 2.163423 1_555
In4 O46 2.205376 1_555
In4 O33 2.221803 1_555
In4 O6 2.338869 1_555
In5 O32 2.082176 1_554
In5 O25 2.090707 1_554
In5 O7 2.146071 1_555
In5 O9 2.159205 1_554
In5 O23 2.211092 1_555
In5 O47 2.247880 1_555
O0 P6 1.550551 1_555
O1 Si2 1.691431 1_555
O1 Ta0 1.942577 1_555
O2 P7 1.545913 1_555
O3 Si3 1.622720 1_555
O4 P4 1.550551 1_545
O5 Si0 1.691431 1_545
O5 Ta1 1.942577 1_555
O6 P5 1.545913 1_565
O7 Si1 1.622720 1_565
O8 P2 1.540903 1_555
O9 P2 1.526957 1_555
O10 P3 1.520357 1_555
O11 P3 1.575963 1_555
O11 Ta1 2.036956 1_554
O12 P0 1.540903 1_645
O13 P0 1.526957 1_545
O14 P1 1.520357 1_465
O15 P1 1.575963 1_565
O15 Ta0 2.036956 1_554
O16 Si0 1.616407 1_555
O17 P4 1.574084 1_555
O17 Ta0 2.075049 1_555
O18 Si1 1.630755 1_555
O19 P5 1.537415 1_555
O20 Si2 1.616407 1_555
O21 P6 1.574084 1_555
O21 Ta1 2.075049 1_555
O22 Si3 1.630755 1_555
O23 P7 1.537415 1_555
O24 Si0 1.649351 1_555
O25 P4 1.519947 1_555
O26 Si1 1.617457 1_555
O27 P5 1.593034 1_555
O27 Ta1 1.962772 1_554
O28 Si2 1.649351 1_555
O29 P6 1.519947 1_555
O30 Si3 1.617457 1_555
O31 P7 1.593034 1_555
O31 Ta0 1.962772 1_554
O32 Si0 1.617263 1_555
O33 P4 1.545954 1_555
O34 Si1 1.717024 1_555
O34 Ta1 1.910290 1_554
O35 P5 1.529935 1_555
O36 Si2 1.617263 1_555
O37 P6 1.545954 1_555
O38 Si3 1.717024 1_555
O38 Ta0 1.910290 1_454
O39 P7 1.529935 1_555
O40 P0 1.536831 1_555
O41 P0 1.602634 1_655
O41 Ta0 2.049492 1_555
O42 P1 1.538682 1_555
O43 P1 1.555368 1_455
O44 P2 1.536831 1_555
O45 P2 1.602634 1_555
O45 Ta1 2.049492 1_555
O46 P3 1.538682 1_555
O47 P3 1.555368 1_555
