# generated using pymatgen
data_Na14Zn4Ga4Si5S7O48
_symmetry_space_group_name_H-M   'P 1'
_cell_length_a   18.09865838
_cell_length_b   8.96272358
_cell_length_c   21.96534675
_cell_angle_alpha   89.93034440
_cell_angle_beta   90.19203015
_cell_angle_gamma   119.66530267
_symmetry_Int_Tables_number   1
_chemical_formula_structural   Na14Zn4Ga4Si5S7O48
_chemical_formula_sum   'Na42 Zn12 Ga12 Si15 S21 O144'
_cell_volume   3096.04627087
_cell_formula_units_Z   3
loop_
 _symmetry_equiv_pos_site_id
 _symmetry_equiv_pos_as_xyz
  1  'x, y, z'
loop_
 _atom_site_type_symbol
 _atom_site_label
 _atom_site_symmetry_multiplicity
 _atom_site_fract_x
 _atom_site_fract_y
 _atom_site_fract_z
 _atom_site_occupancy
  Na  Na0  1  0.81168323  0.99791185  0.24927736  1
  Na  Na1  1  0.18602946  0.36116498  0.25358660  1
  Na  Na2  1  0.68290052  0.36139257  0.25267789  1
  Na  Na3  1  0.00545173  0.64376825  0.24436825  1
  Na  Na4  1  0.50354428  0.63983546  0.23995218  1
  Na  Na5  1  0.31933823  0.62407510  0.75234114  1
  Na  Na6  1  0.00354997  0.36739533  0.74047375  1
  Na  Na7  1  0.50320958  0.36946515  0.74373216  1
  Na  Na8  1  0.18651278  0.01063557  0.75185963  1
  Na  Na9  1  0.67802283  0.99873386  0.75129236  1
  Na  Na10  1  0.14993439  0.32841796  0.58306180  1
  Na  Na11  1  0.65196417  0.32661072  0.58049395  1
  Na  Na12  1  0.32995217  0.97624698  0.59169357  1
  Na  Na13  1  0.83160861  0.97962014  0.58664033  1
  Na  Na14  1  0.15518811  0.98202382  0.07362143  1
  Na  Na15  1  0.64808477  0.96820717  0.07614579  1
  Na  Na16  1  0.33312173  0.68417949  0.08213288  1
  Na  Na17  1  0.82677097  0.68267744  0.08336527  1
  Na  Na18  1  0.48018837  0.67164289  0.91841403  1
  Na  Na19  1  0.98509101  0.67310655  0.91632360  1
  Na  Na20  1  0.34858497  0.03916491  0.91068094  1
  Na  Na21  1  0.84622034  0.02844548  0.91144635  1
  Na  Na22  1  0.16830242  0.28151965  0.91494563  1
  Na  Na23  1  0.66591314  0.28043099  0.91578700  1
  Na  Na24  1  0.48603133  0.29904456  0.42020850  1
  Na  Na25  1  0.98227020  0.29523768  0.43041863  1
  Na  Na26  1  0.16843926  0.05624283  0.42022706  1
  Na  Na27  1  0.66733571  0.05312630  0.41877123  1
  Na  Na28  1  0.34894331  0.66331572  0.41706834  1
  Na  Na29  1  0.84681766  0.65824095  0.41696811  1
  Na  Na30  1  0.00771943  0.00634600  0.50479202  1
  Na  Na31  1  0.50864107  0.99927325  0.50358378  1
  Na  Na32  1  0.00876384  0.02083584  0.00001089  1
  Na  Na33  1  0.50722964  0.00776706  0.00043283  1
  Na  Na34  1  0.33038682  0.33526815  0.82985194  1
  Na  Na35  1  0.82220696  0.33488063  0.82956791  1
  Na  Na36  1  0.32516575  0.31248642  0.33098403  1
  Na  Na37  1  0.82090098  0.32362424  0.33539214  1
  Na  Na38  1  0.17049501  0.67121217  0.16505770  1
  Na  Na39  1  0.65601971  0.64713586  0.16433675  1
  Na  Na40  1  0.15796111  0.66424212  0.66664328  1
  Na  Na41  1  0.66275386  0.66879513  0.66852759  1
  Zn  Zn0  1  0.02051466  0.03071474  0.34791141  1
  Zn  Zn1  1  0.51630286  0.03144581  0.34809165  1
  Zn  Zn2  1  0.01368559  0.99795700  0.84774153  1
  Zn  Zn3  1  0.52260278  0.99230316  0.84114877  1
  Zn  Zn4  1  0.32575136  0.32663990  0.68378138  1
  Zn  Zn5  1  0.81477129  0.31819070  0.17618872  1
  Zn  Zn6  1  0.32286648  0.32662760  0.99038549  1
  Zn  Zn7  1  0.81807298  0.30480437  0.98578297  1
  Zn  Zn8  1  0.31777050  0.33351086  0.48914416  1
  Zn  Zn9  1  0.82314111  0.32073548  0.49256229  1
  Zn  Zn10  1  0.66321046  0.66426745  0.31769301  1
  Zn  Zn11  1  0.16544237  0.66569625  0.81626687  1
  Ga  Ga0  1  0.01202996  0.02606797  0.64770108  1
  Ga  Ga1  1  0.52166891  0.01017714  0.65809408  1
  Ga  Ga2  1  0.01414426  0.00759854  0.15189847  1
  Ga  Ga3  1  0.51264523  -0.00005282  0.14616437  1
  Ga  Ga4  1  0.82408215  0.31431744  0.67640546  1
  Ga  Ga5  1  0.32416492  0.32988501  0.17556758  1
  Ga  Ga6  1  0.16313786  0.65406859  0.01495234  1
  Ga  Ga7  1  0.64389385  0.64508353  0.02272207  1
  Ga  Ga8  1  0.14844239  0.64546939  0.52586734  1
  Ga  Ga9  1  0.66057942  0.66465659  0.51751972  1
  Ga  Ga10  1  0.17634260  0.68703003  0.31658951  1
  Ga  Ga11  1  0.66497253  0.66715092  0.81093462  1
  Si  Si0  1  0.15671850  0.00100546  0.24932712  1
  Si  Si1  1  0.65093382  0.99572149  0.25225197  1
  Si  Si2  1  0.14841188  0.30569759  0.75305952  1
  Si  Si3  1  0.65815941  0.31240138  0.74913053  1
  Si  Si4  1  0.49691132  0.69221343  0.75298352  1
  Si  Si5  1  0.97498908  0.32859833  0.58502888  1
  Si  Si6  1  0.18160899  0.02524830  0.58320723  1
  Si  Si7  1  0.67841786  0.01965033  0.58114848  1
  Si  Si8  1  0.47416535  0.62029557  0.08509415  1
  Si  Si9  1  0.17791027  0.33658412  0.08290695  1
  Si  Si10  1  0.67927045  0.33986395  0.08222663  1
  Si  Si11  1  0.16859488  0.95583465  0.91786617  1
  Si  Si12  1  0.66868613  0.94906917  0.91752388  1
  Si  Si13  1  0.16711549  0.38860153  0.41603070  1
  Si  Si14  1  0.66872554  0.38129127  0.41707619  1
  S  S0  1  0.35332919  0.71045444  0.25171863  1
  S  S1  1  0.86081866  0.71777640  0.24912903  1
  S  S2  1  0.99946582  0.29386338  0.24985522  1
  S  S3  1  0.49329732  0.28382725  0.24875595  1
  S  S4  1  0.99370378  0.70330083  0.74848745  1
  S  S5  1  0.35899577  0.99893906  0.74931046  1
  S  S6  1  0.85473987  0.99850180  0.75089309  1
  S  S7  1  0.48183212  0.33433764  0.58147916  1
  S  S8  1  0.33702067  0.64304342  0.58250019  1
  S  S9  1  0.83432709  0.63317471  0.58285422  1
  S  S10  1  0.98093525  0.62833650  0.08494020  1
  S  S11  1  0.33474482  0.03567138  0.08357372  1
  S  S12  1  0.84010152  0.03630898  0.08561218  1
  S  S13  1  0.31378770  0.66923998  0.91765515  1
  S  S14  1  0.81343749  0.66835484  0.91670052  1
  S  S15  1  0.01572658  0.36992391  0.91799630  1
  S  S16  1  0.51960434  0.37044152  0.91436035  1
  S  S17  1  0.31521957  0.96237382  0.41712466  1
  S  S18  1  0.81577670  0.96056316  0.41499849  1
  S  S19  1  0.02139655  0.66895557  0.41346156  1
  S  S20  1  0.51600225  0.66315107  0.41674008  1
  O  O0  1  0.12167406  0.04960957  0.31008367  1
  O  O1  1  0.61398868  0.03336752  0.31424772  1
  O  O2  1  0.40119514  0.79581534  0.30766544  1
  O  O3  1  0.90867798  0.80624485  0.30510551  1
  O  O4  1  0.48431730  0.19779135  0.30868816  1
  O  O5  1  0.98410091  0.19383667  0.30717320  1
  O  O6  1  0.10903387  0.19540651  0.81512448  1
  O  O7  1  0.62262377  0.19368152  0.81015416  1
  O  O8  1  0.47157023  0.75735645  0.81492572  1
  O  O9  1  0.98391716  0.76943865  0.80856384  1
  O  O10  1  0.40660632  0.01033936  0.80573417  1
  O  O11  1  0.90350032  0.01194665  0.80690405  1
  O  O12  1  0.40442003  0.98794497  0.69349296  1
  O  O13  1  0.89640950  0.98307309  0.69502548  1
  O  O14  1  0.08502512  0.21608269  0.69371228  1
  O  O15  1  0.59154694  0.23029854  0.69043593  1
  O  O16  1  -0.00036159  0.81799737  0.69793785  1
  O  O17  1  0.51787232  0.83080882  0.69777096  1
  O  O18  1  0.39437045  0.80784884  0.19569085  1
  O  O19  1  0.90451013  0.82423597  0.19334397  1
  O  O20  1  0.00936517  0.19845644  0.19770116  1
  O  O21  1  0.50000455  0.18221773  0.19806893  1
  O  O22  1  0.08819175  0.94954092  0.19207866  1
  O  O23  1  0.58774035  0.96272403  0.19348911  1
  O  O24  1  0.44217147  0.35210307  0.63694318  1
  O  O25  1  0.92823370  0.35121727  0.64551291  1
  O  O26  1  0.24597439  0.10701579  0.64119007  1
  O  O27  1  0.74287093  0.10279197  0.64010542  1
  O  O28  1  0.32715894  0.53556868  0.63596199  1
  O  O29  1  0.81895218  0.51109271  0.63361591  1
  O  O30  1  0.42837372  0.50584192  0.14656348  1
  O  O31  1  0.94013769  0.52963533  0.14095497  1
  O  O32  1  0.31861284  0.12480354  0.13502766  1
  O  O33  1  0.83320449  0.12574203  0.14063280  1
  O  O34  1  0.24113875  0.38043733  0.14268785  1
  O  O35  1  0.74029609  0.39333843  0.14314357  1
  O  O36  1  0.21261104  0.28459654  0.02337442  1
  O  O37  1  0.71950572  0.29060383  0.02435789  1
  O  O38  1  0.41912990  0.53961863  0.02361607  1
  O  O39  1  0.93146186  0.54463749  0.02920998  1
  O  O40  1  0.34727217  0.12814266  0.02559943  1
  O  O41  1  0.85404540  0.13881709  0.02947813  1
  O  O42  1  0.21614967  0.14415046  0.52159235  1
  O  O43  1  0.71383212  0.13628719  0.52033243  1
  O  O44  1  0.35113211  0.57007633  0.52526544  1
  O  O45  1  0.84769001  0.56746994  0.52426257  1
  O  O46  1  0.43292899  0.32353143  0.52534999  1
  O  O47  1  0.92147699  0.30383719  0.52268667  1
  O  O48  1  0.26804318  0.67743881  0.97397880  1
  O  O49  1  0.77493526  0.68750948  0.97339967  1
  O  O50  1  0.07480672  0.45172019  0.97102448  1
  O  O51  1  0.57477620  0.44962991  0.96916713  1
  O  O52  1  0.15495766  0.83181288  0.97895403  1
  O  O53  1  0.65912244  0.83528660  0.97943823  1
  O  O54  1  0.27359005  0.85983809  0.47145559  1
  O  O55  1  0.77136913  0.85790732  0.47038840  1
  O  O56  1  0.15566614  0.48480086  0.47598429  1
  O  O57  1  0.65599614  0.48101355  0.47682928  1
  O  O58  1  0.07604464  0.69703580  0.46759888  1
  O  O59  1  0.57520014  0.69688438  0.46909743  1
  O  O60  1  0.06358141  0.65290413  0.35700567  1
  O  O61  1  0.55293529  0.64223735  0.35939838  1
  O  O62  1  0.25947877  0.88768888  0.36153603  1
  O  O63  1  0.76558312  0.88105376  0.35895066  1
  O  O64  1  0.17859380  0.50390132  0.35358627  1
  O  O65  1  0.68157623  0.48958303  0.35397195  1
  O  O66  1  0.05334751  0.46606964  0.86128597  1
  O  O67  1  0.56206706  0.47277986  0.85903896  1
  O  O68  1  0.18075564  0.87062995  0.85567694  1
  O  O69  1  0.68356695  0.85789030  0.85734652  1
  O  O70  1  0.26320258  0.64923237  0.86232818  1
  O  O71  1  0.75738074  0.63790985  0.86313503  1
  O  O72  1  0.00914327  0.82190268  0.41097504  1
  O  O73  1  0.50216370  0.81348849  0.41525543  1
  O  O74  1  0.39837212  0.96812538  0.41030701  1
  O  O75  1  0.90014507  0.96864119  0.41384979  1
  O  O76  1  0.08051621  0.19751106  0.41618688  1
  O  O77  1  0.58031022  0.19206943  0.41913566  1
  O  O78  1  0.00067713  0.19143926  0.91656275  1
  O  O79  1  0.50757232  0.19440834  0.91142091  1
  O  O80  1  0.08020172  0.96862877  0.91952643  1
  O  O81  1  0.58310204  0.96913460  0.91795599  1
  O  O82  1  0.39640408  0.83070183  0.91888392  1
  O  O83  1  0.89837613  0.82845917  0.91087086  1
  O  O84  1  0.48785194  0.17263542  0.58283372  1
  O  O85  1  0.98198219  0.14965404  0.58894159  1
  O  O86  1  0.08705004  0.00831737  0.59176575  1
  O  O87  1  0.58709165  0.01648053  0.59016506  1
  O  O88  1  0.40890000  0.82159832  0.58779914  1
  O  O89  1  0.90754076  0.80687886  0.59271499  1
  O  O90  1  0.48230440  0.81422899  0.08982926  1
  O  O91  1  0.98555316  0.80374565  0.08676808  1
  O  O92  1  0.40829031  0.00920768  0.09396696  1
  O  O93  1  0.91290409  0.00177279  0.09113078  1
  O  O94  1  0.08513844  0.16020789  0.09280451  1
  O  O95  1  0.58575593  0.16614331  0.09010582  1
  O  O96  1  0.34978001  0.15483074  0.74793672  1
  O  O97  1  0.84807229  0.16028419  0.74952674  1
  O  O98  1  0.24139465  0.31891163  0.74662481  1
  O  O99  1  0.74895070  0.31436398  0.73690531  1
  O  O100  1  0.41742289  0.50075686  0.74156101  1
  O  O101  1  0.92066847  0.52662312  0.74360570  1
  O  O102  1  0.34559640  0.53452574  0.25099667  1
  O  O103  1  0.85654315  0.54722888  0.24743144  1
  O  O104  1  0.41978015  0.31308284  0.24416180  1
  O  O105  1  0.92616473  0.32256958  0.24244244  1
  O  O106  1  0.24838051  0.17719720  0.23715510  1
  O  O107  1  0.74651313  0.16770094  0.24558353  1
  O  O108  1  0.32500515  0.51610211  0.91937144  1
  O  O109  1  0.82835960  0.51761492  0.91905583  1
  O  O110  1  0.43649219  0.36314847  0.91874175  1
  O  O111  1  0.93348098  0.36728738  0.92619641  1
  O  O112  1  0.25476883  0.14646817  0.92190893  1
  O  O113  1  0.75544202  0.14071932  0.91741114  1
  O  O114  1  0.32960556  0.14107532  0.41958816  1
  O  O115  1  0.82750452  0.13684469  0.41694875  1
  O  O116  1  0.25364755  0.37029063  0.41639880  1
  O  O117  1  0.75506652  0.36312315  0.42144590  1
  O  O118  1  0.43303003  0.50286170  0.42417672  1
  O  O119  1  0.93756720  0.51121348  0.41653205  1
  O  O120  1  0.17425230  0.51727320  0.07567859  1
  O  O121  1  0.67637998  0.51964980  0.07227144  1
  O  O122  1  0.07031953  0.65975226  0.08293482  1
  O  O123  1  0.57290593  0.65752485  0.08400868  1
  O  O124  1  0.25530223  0.86110428  0.08193555  1
  O  O125  1  0.75976696  0.86784734  0.08291597  1
  O  O126  1  0.17810134  0.83826555  0.57358502  1
  O  O127  1  0.67511337  0.83185839  0.57428720  1
  O  O128  1  0.25559888  0.64974035  0.57869007  1
  O  O129  1  0.75446739  0.64760699  0.58076507  1
  O  O130  1  0.07408150  0.48831062  0.58432329  1
  O  O131  1  0.57165943  0.48521210  0.57934985  1
  O  O132  1  0.15857146  0.81741725  0.25663010  1
  O  O133  1  0.65872391  0.81924124  0.25422303  1
  O  O134  1  0.26383699  0.68353243  0.25201246  1
  O  O135  1  0.77388099  0.69506673  0.24742179  1
  O  O136  1  0.07998985  0.46368941  0.25121052  1
  O  O137  1  0.57390620  0.45488913  0.24749509  1
  O  O138  1  0.15707568  0.49830738  0.75456834  1
  O  O139  1  0.66365793  0.49938667  0.75712659  1
  O  O140  1  0.07473350  0.69567114  0.74735807  1
  O  O141  1  0.58743173  0.68720432  0.75523639  1
  O  O142  1  0.27280934  0.84300709  0.74739355  1
  O  O143  1  0.76661099  0.84871529  0.75134282  1
loop_
_geom_bond_atom_site_label_1
_geom_bond_atom_site_label_2
_geom_bond_distance
_geom_bond_site_symmetry_2
Na0 O107 2.342938 1_565
Na0 O133 2.419371 1_555
Na0 O135 2.449309 1_555
Na0 O33 2.591753 1_565
Na0 O63 2.595916 1_555
Na0 O105 2.610689 1_565
Na1 O106 2.443036 1_555
Na1 O136 2.505034 1_555
Na1 O134 2.510944 1_555
Na1 O102 2.513332 1_555
Na1 O64 2.580446 1_555
Na1 O34 2.608281 1_555
Na1 O0 2.734206 1_555
Na2 O137 2.498217 1_555
Na2 O65 2.510956 1_555
Na2 O107 2.518683 1_555
Na2 O35 2.582703 1_555
Na2 O135 2.606619 1_555
Na2 O103 2.735798 1_555
Na2 O1 2.898296 1_555
Na3 O103 2.389408 1_455
Na3 O132 2.429267 1_555
Na3 O105 2.501849 1_455
Na3 O31 2.528676 1_455
Na3 O136 2.569205 1_555
Na3 O22 2.648362 1_555
Na3 O60 2.670692 1_555
Na4 O30 2.423027 1_555
Na4 O133 2.469166 1_555
Na4 O102 2.540640 1_555
Na4 O137 2.546427 1_555
Na4 O104 2.547351 1_555
Na4 O23 2.716004 1_555
Na4 O61 2.765608 1_555
Na5 O98 2.380533 1_555
Na5 O142 2.491150 1_555
Na5 O100 2.524809 1_555
Na5 O138 2.573220 1_555
Na5 O70 2.676599 1_555
Na5 O28 2.702315 1_555
Na5 O8 2.761986 1_555
Na6 O138 2.441548 1_555
Na6 O25 2.452737 1_455
Na6 O97 2.497178 1_455
Na6 O101 2.532092 1_455
Na6 O140 2.566531 1_555
Na6 O14 2.657385 1_555
Na6 O66 2.799489 1_555
Na7 O100 2.367590 1_555
Na7 O96 2.476636 1_555
Na7 O141 2.489901 1_555
Na7 O139 2.554030 1_555
Na7 O24 2.561261 1_555
Na7 O67 2.723645 1_555
Na7 O15 2.733578 1_555
Na8 O98 2.432557 1_555
Na8 O140 2.533332 1_545
Na8 O96 2.574970 1_555
Na8 O68 2.578918 1_545
Na8 O26 2.627894 1_555
Na8 O142 2.651486 1_545
Na9 O141 2.441444 1_555
Na9 O99 2.481198 1_565
Na9 O143 2.551954 1_555
Na9 O27 2.672471 1_565
Na9 O69 2.673366 1_555
Na9 O97 2.675747 1_565
Na9 O7 2.734627 1_565
Na9 O17 2.777027 1_555
Na10 O130 2.426300 1_555
Na10 O86 2.516119 1_555
Na10 O128 2.551324 1_555
Na10 O85 2.646663 1_455
Na10 O14 2.672712 1_555
Na10 O56 2.712354 1_555
Na10 O42 2.821741 1_555
Na11 O87 2.433032 1_555
Na11 O131 2.485647 1_555
Na11 O129 2.536841 1_555
Na11 O84 2.583155 1_555
Na11 O15 2.617428 1_555
Na11 O57 2.645520 1_555
Na11 O43 2.795706 1_555
Na11 O29 2.874720 1_555
Na12 O126 2.422865 1_555
Na12 O88 2.435499 1_555
Na12 O84 2.515284 1_565
Na12 O128 2.560775 1_555
Na12 O26 2.577451 1_565
Na12 O12 2.582233 1_555
Na12 O54 2.835402 1_555
Na13 O85 2.371846 1_565
Na13 O127 2.476382 1_555
Na13 O89 2.531371 1_555
Na13 O129 2.590015 1_555
Na13 O27 2.635913 1_565
Na13 O13 2.643821 1_555
Na13 O55 2.776677 1_555
Na13 O47 2.896520 1_565
Na14 O52 2.477427 1_554
Na14 O94 2.518875 1_565
Na14 O122 2.520552 1_555
Na14 O124 2.536161 1_555
Na14 O36 2.619750 1_565
Na14 O91 2.685387 1_455
Na14 O22 2.827553 1_555
Na14 O32 2.904492 1_565
Na15 O123 2.425895 1_555
Na15 O53 2.493198 1_554
Na15 O95 2.549198 1_565
Na15 O125 2.591185 1_555
Na15 O90 2.627467 1_555
Na15 O37 2.760253 1_565
Na15 O23 2.793579 1_555
Na16 O90 2.357843 1_555
Na16 O120 2.503095 1_555
Na16 O92 2.545825 1_565
Na16 O124 2.590157 1_555
Na16 O48 2.635484 1_554
Na16 O18 2.729665 1_555
Na16 O34 2.733451 1_555
Na16 O38 2.787082 1_555
Na17 O121 2.379623 1_555
Na17 O125 2.493419 1_555
Na17 O93 2.494964 1_565
Na17 O91 2.520614 1_555
Na17 O49 2.596363 1_554
Na17 O35 2.624227 1_555
Na17 O19 2.764538 1_555
Na18 O81 2.379664 1_555
Na18 O8 2.427701 1_555
Na18 O108 2.440648 1_555
Na18 O110 2.471021 1_555
Na18 O82 2.543984 1_555
Na18 O38 2.584041 1_556
Na19 O80 2.338820 1_655
Na19 O111 2.428589 1_555
Na19 O109 2.465778 1_555
Na19 O9 2.522173 1_555
Na19 O83 2.564681 1_555
Na19 O39 2.705396 1_556
Na20 O112 2.342769 1_555
Na20 O82 2.423050 1_545
Na20 O79 2.500529 1_555
Na20 O110 2.533934 1_555
Na20 O10 2.601848 1_555
Na20 O40 2.651849 1_556
Na20 O68 2.899284 1_545
Na21 O113 2.316763 1_555
Na21 O83 2.403939 1_545
Na21 O78 2.432540 1_655
Na21 O11 2.556981 1_555
Na21 O111 2.659610 1_555
Na21 O41 2.754152 1_556
Na21 O69 2.818050 1_545
Na22 O6 2.392215 1_555
Na22 O112 2.410499 1_555
Na22 O80 2.447677 1_545
Na22 O36 2.506331 1_556
Na22 O108 2.563129 1_555
Na22 O78 2.726371 1_555
Na23 O81 2.427737 1_545
Na23 O7 2.447691 1_555
Na23 O113 2.490533 1_555
Na23 O37 2.556142 1_556
Na23 O79 2.574380 1_555
Na23 O109 2.642060 1_555
Na24 O77 2.334761 1_555
Na24 O118 2.449553 1_555
Na24 O114 2.460067 1_555
Na24 O46 2.555463 1_555
Na24 O74 2.588930 1_545
Na24 O4 2.608067 1_555
Na25 O47 2.328804 1_555
Na25 O76 2.360654 1_655
Na25 O115 2.451140 1_555
Na25 O119 2.458017 1_555
Na25 O75 2.569509 1_545
Na25 O5 2.862168 1_555
Na25 O56 2.905530 1_655
Na26 O42 2.375234 1_555
Na26 O116 2.451842 1_555
Na26 O76 2.477171 1_555
Na26 O0 2.551454 1_555
Na26 O72 2.601492 1_545
Na26 O114 2.625165 1_555
Na27 O43 2.368730 1_555
Na27 O117 2.424268 1_555
Na27 O77 2.444028 1_555
Na27 O1 2.459997 1_555
Na27 O115 2.610654 1_555
Na27 O73 2.683057 1_545
Na28 O116 2.321323 1_555
Na28 O73 2.410221 1_555
Na28 O74 2.422081 1_555
Na28 O44 2.524956 1_555
Na28 O118 2.563756 1_555
Na28 O2 2.641211 1_555
Na29 O117 2.327269 1_555
Na29 O75 2.453165 1_555
Na29 O45 2.494843 1_555
Na29 O72 2.556652 1_655
Na29 O119 2.564524 1_555
Na29 O3 2.755156 1_555
Na30 O86 2.380759 1_555
Na30 O85 2.426316 1_455
Na30 O76 2.496777 1_555
Na30 O89 2.649478 1_445
Na30 O72 2.651572 1_545
Na30 O75 2.686900 1_445
Na31 O87 2.328608 1_565
Na31 O77 2.428756 1_565
Na31 O84 2.485103 1_565
Na31 O73 2.522649 1_555
Na31 O88 2.527074 1_555
Na31 O74 2.771485 1_555
Na32 O80 2.373217 1_544
Na32 O94 2.429741 1_555
Na32 O78 2.435603 1_554
Na32 O93 2.602716 1_455
Na32 O91 2.604050 1_445
Na32 O83 2.714826 1_444
Na33 O81 2.403414 1_544
Na33 O95 2.430142 1_555
Na33 O90 2.508252 1_545
Na33 O82 2.565587 1_544
Na33 O79 2.569616 1_554
Na33 O92 2.734097 1_555
Na34 O98 2.388480 1_555
Na34 O100 2.478529 1_555
Na34 O112 2.557931 1_555
Na34 O96 2.559143 1_555
Na34 O108 2.582267 1_555
Na34 O110 2.657730 1_555
Na35 O99 2.382409 1_555
Na35 O113 2.477387 1_555
Na35 O109 2.526722 1_555
Na35 O97 2.548783 1_555
Na35 O101 2.584078 1_555
Na35 O111 2.835303 1_555
Na36 O106 2.442970 1_555
Na36 O116 2.479169 1_555
Na36 O114 2.503669 1_555
Na36 O102 2.539971 1_555
Na36 O104 2.565557 1_555
Na36 O118 2.756300 1_555
Na37 O117 2.356303 1_555
Na37 O107 2.404896 1_555
Na37 O115 2.493039 1_555
Na37 O103 2.623884 1_555
Na37 O119 2.632426 1_555
Na37 O105 2.800356 1_555
Na38 O120 2.421344 1_555
Na38 O124 2.451836 1_555
Na38 O132 2.469565 1_555
Na38 O134 2.511661 1_555
Na38 O122 2.519081 1_555
Na38 O136 2.592319 1_555
Na39 O123 2.346298 1_555
Na39 O121 2.440952 1_555
Na39 O137 2.447408 1_555
Na39 O133 2.492392 1_555
Na39 O125 2.640937 1_555
Na39 O135 2.670977 1_555
Na40 O130 2.383186 1_555
Na40 O138 2.431393 1_555
Na40 O140 2.435306 1_555
Na40 O126 2.485607 1_555
Na40 O142 2.592161 1_555
Na40 O128 2.668849 1_555
Na41 O141 2.398728 1_555
Na41 O139 2.471886 1_555
Na41 O127 2.478533 1_555
Na41 O143 2.535032 1_555
Na41 O131 2.561918 1_555
Na41 O129 2.615689 1_555
Ga0 O14 1.853443 1_555
Ga0 O86 1.898385 1_555
Ga0 O85 1.943347 1_455
Ga0 O16 2.080474 1_545
Ga0 O13 2.196207 1_445
Ga0 O89 2.281975 1_445
Ga1 O17 1.798995 1_545
Ga1 O15 1.877227 1_555
Ga1 O87 1.891279 1_555
Ga1 O12 2.177039 1_545
Ga1 O88 2.444777 1_545
Ga1 O84 2.469219 1_555
Ga2 O94 1.863835 1_555
Ga2 O22 1.878025 1_545
Ga2 O20 2.024121 1_555
Ga2 O19 2.060915 1_445
Ga2 O91 2.172133 1_445
Ga2 O93 2.242947 1_455
Ga3 O23 1.864833 1_545
Ga3 O95 1.881843 1_555
Ga3 O90 1.923309 1_545
Ga3 O21 2.096947 1_555
Ga3 O92 2.242539 1_555
Ga3 O18 2.256741 1_545
Ga4 O25 1.874566 1_555
Ga4 O99 1.904639 1_555
Ga4 O27 1.904694 1_555
Ga4 O29 2.039587 1_555
Ga4 O97 2.292904 1_555
Ga4 O101 2.356335 1_555
Ga5 O30 1.873897 1_555
Ga5 O34 1.910691 1_555
Ga5 O106 1.932367 1_555
Ga5 O32 2.000540 1_555
Ga5 O104 2.351042 1_555
Ga5 O102 2.357637 1_555
Ga6 O52 1.847877 1_554
Ga6 O120 1.887130 1_555
Ga6 O50 1.974803 1_554
Ga6 O48 2.018925 1_554
Ga6 O122 2.270715 1_555
Ga6 O124 2.305803 1_555
Ga7 O53 1.848982 1_554
Ga7 O121 1.855036 1_555
Ga7 O123 1.905016 1_555
Ga7 O51 1.960462 1_554
Ga7 O125 2.444514 1_555
Ga7 O49 2.463062 1_554
Ga8 O126 1.858794 1_555
Ga8 O56 1.866142 1_555
Ga8 O130 1.890689 1_555
Ga8 O58 2.038475 1_555
Ga8 O128 2.240638 1_555
Ga8 O54 2.440294 1_555
Ga9 O57 1.839233 1_555
Ga9 O127 1.865983 1_555
Ga9 O59 2.008123 1_555
Ga9 O131 2.113852 1_555
Ga9 O55 2.159654 1_555
Ga9 O129 2.254190 1_555
Ga10 O64 1.848988 1_555
Ga10 O132 1.889226 1_555
Ga10 O62 1.946494 1_555
Ga10 O60 2.107186 1_555
Ga10 O134 2.141232 1_555
Ga10 O136 2.375949 1_555
Ga11 O69 1.872840 1_555
Ga11 O139 1.904492 1_555
Ga11 O141 1.932928 1_555
Ga11 O67 2.101693 1_555
Ga11 O71 2.144949 1_555
Ga11 O143 2.189330 1_555
O0 Si0 1.628997 1_555
O0 Zn0 1.942686 1_555
O1 Si1 1.626616 1_545
O1 Zn1 1.912414 1_555
O2 S0 1.478200 1_555
O2 Zn1 2.285992 1_565
O3 S1 1.485313 1_555
O3 Zn0 2.233724 1_665
O4 S3 1.492962 1_555
O4 Zn1 2.038352 1_555
O5 S2 1.489628 1_555
O5 Zn0 2.078262 1_655
O6 Si2 1.627722 1_555
O6 Zn2 1.898760 1_545
O7 Si3 1.633229 1_555
O7 Zn3 1.941449 1_545
O8 Si4 1.635117 1_555
O8 Zn3 1.921784 1_555
O9 S4 1.493819 1_555
O9 Zn2 2.033374 1_655
O10 S5 1.481543 1_545
O10 Zn3 2.315886 1_545
O11 S6 1.481479 1_545
O11 Zn2 2.243312 1_645
O12 S5 1.508651 1_555
O13 S6 1.484464 1_555
O14 Si2 1.655589 1_555
O15 Si3 1.664584 1_555
O16 S4 1.479827 1_455
O17 Si4 1.640337 1_555
O18 S0 1.479853 1_555
O19 S1 1.514586 1_555
O20 S2 1.493678 1_455
O21 S3 1.482051 1_555
O22 Si0 1.660392 1_565
O23 Si1 1.648573 1_555
O24 S7 1.464338 1_555
O24 Zn4 2.255696 1_555
O25 Si5 1.643236 1_555
O26 Si6 1.632017 1_555
O26 Zn4 2.004185 1_555
O27 Si7 1.650716 1_555
O28 S8 1.472143 1_555
O28 Zn4 2.135093 1_555
O29 S9 1.488497 1_555
O30 Si8 1.650687 1_555
O31 S10 1.482731 1_555
O31 Zn5 2.256204 1_555
O32 S11 1.495353 1_555
O33 S12 1.490329 1_555
O33 Zn5 2.066651 1_555
O34 Si9 1.653552 1_555
O35 Si10 1.645497 1_555
O35 Zn5 1.920478 1_555
O36 Si9 1.618070 1_555
O36 Zn6 1.978339 1_554
O37 Si10 1.633015 1_555
O37 Zn7 1.923975 1_554
O38 Si8 1.618322 1_555
O38 Zn6 1.978650 1_554
O39 S10 1.480876 1_555
O39 Zn7 2.316733 1_554
O40 S11 1.474205 1_555
O40 Zn6 2.174924 1_554
O41 S12 1.482536 1_555
O41 Zn7 2.123531 1_554
O42 Si6 1.643433 1_555
O42 Zn8 1.920184 1_555
O43 Si7 1.620871 1_555
O43 Zn9 1.946054 1_555
O44 S8 1.497636 1_555
O44 Zn8 2.055059 1_555
O45 S9 1.485440 1_555
O45 Zn9 2.145155 1_555
O46 S7 1.490270 1_555
O46 Zn8 2.271047 1_555
O47 Si5 1.625269 1_555
O47 Zn9 1.971537 1_555
O48 S13 1.512857 1_555
O49 S14 1.480161 1_555
O50 S15 1.501763 1_555
O51 S16 1.497519 1_555
O52 Si11 1.680477 1_555
O53 Si12 1.656186 1_555
O54 S17 1.467786 1_555
O55 S18 1.498201 1_555
O56 Si13 1.643781 1_555
O57 Si14 1.668317 1_555
O58 S19 1.483943 1_555
O59 S20 1.494611 1_555
O60 S19 1.502298 1_555
O61 S20 1.482769 1_555
O61 Zn10 2.117370 1_555
O62 S17 1.510627 1_555
O63 S18 1.484097 1_555
O63 Zn10 2.111614 1_555
O64 Si13 1.666840 1_555
O65 Si14 1.640995 1_555
O65 Zn10 1.925380 1_555
O66 S15 1.476529 1_555
O66 Zn11 2.170492 1_555
O67 S16 1.488058 1_555
O68 Si11 1.633564 1_555
O68 Zn11 1.923079 1_555
O69 Si12 1.646342 1_555
O70 S13 1.475736 1_555
O70 Zn11 2.102859 1_555
O71 S14 1.485553 1_555
O72 S19 1.493981 1_555
O72 Zn0 2.253468 1_565
O73 S20 1.487704 1_555
O73 Zn1 2.357699 1_565
O74 S17 1.488172 1_555
O74 Zn1 2.358786 1_565
O75 S18 1.492745 1_555
O75 Zn0 2.443912 1_665
O76 Si13 1.653095 1_555
O76 Zn0 2.012657 1_555
O77 Si14 1.659175 1_555
O77 Zn1 2.047491 1_555
O78 S15 1.484253 1_555
O78 Zn2 2.400148 1_545
O79 S16 1.483545 1_555
O79 Zn3 2.497028 1_545
O80 Si11 1.660067 1_555
O80 Zn2 2.074632 1_555
O81 Si12 1.645462 1_555
O81 Zn3 2.073687 1_555
O82 S13 1.479400 1_555
O83 S14 1.502011 1_555
O83 Zn2 2.337096 1_655
O84 S7 1.506446 1_555
O85 Si5 1.672183 1_555
O86 Si6 1.652950 1_555
O87 Si7 1.651590 1_555
O88 S8 1.485142 1_555
O89 S9 1.477632 1_555
O90 Si8 1.673513 1_555
O91 S10 1.533069 1_555
O92 S11 1.480027 1_555
O93 S12 1.499738 1_555
O94 Si9 1.655198 1_555
O95 Si10 1.646676 1_555
O96 S5 1.487106 1_545
O96 Zn4 2.280281 1_555
O97 S6 1.513628 1_545
O98 Si2 1.634105 1_555
O98 Zn4 2.037253 1_555
O99 Si3 1.657366 1_555
O100 Si4 1.622396 1_555
O100 Zn4 2.055864 1_555
O101 S4 1.481148 1_555
O102 S0 1.512528 1_555
O103 S1 1.492294 1_555
O103 Zn5 2.387059 1_555
O104 S3 1.481121 1_555
O105 S2 1.479537 1_555
O105 Zn5 2.467001 1_555
O106 Si0 1.651093 1_555
O107 Si1 1.658780 1_545
O107 Zn5 2.006760 1_555
O108 S13 1.483959 1_555
O108 Zn6 2.290727 1_555
O109 S14 1.503941 1_555
O109 Zn7 2.337617 1_555
O110 S16 1.476426 1_555
O110 Zn6 2.483307 1_555
O111 S15 1.488525 1_655
O111 Zn7 2.290883 1_555
O112 Si11 1.649638 1_545
O112 Zn6 2.100527 1_555
O113 Si12 1.657169 1_545
O113 Zn7 2.011708 1_555
O114 S17 1.491085 1_545
O114 Zn8 2.393568 1_555
O115 S18 1.487049 1_545
O115 Zn9 2.370140 1_555
O116 Si13 1.653494 1_555
O116 Zn8 2.091342 1_555
O117 Si14 1.651804 1_555
O117 Zn9 2.133407 1_555
O118 S20 1.487017 1_555
O118 Zn8 2.360580 1_555
O119 S19 1.477311 1_655
O119 Zn9 2.551264 1_555
O120 Si9 1.660631 1_555
O121 Si10 1.652143 1_555
O122 S10 1.499282 1_455
O123 Si8 1.647890 1_555
O124 S11 1.513124 1_565
O125 S12 1.491242 1_565
O126 Si6 1.659131 1_565
O127 Si7 1.661361 1_565
O128 S8 1.506285 1_555
O129 S9 1.514097 1_555
O130 Si5 1.650653 1_455
O131 S7 1.515932 1_555
O132 Si0 1.669823 1_565
O133 Si1 1.656565 1_555
O133 Zn10 1.996417 1_555
O134 S0 1.514880 1_555
O135 S1 1.483645 1_555
O135 Zn10 2.437833 1_555
O136 S2 1.498551 1_455
O137 S3 1.505289 1_555
O137 Zn10 2.345097 1_555
O138 Si2 1.654685 1_555
O138 Zn11 1.972067 1_555
O139 Si3 1.638565 1_555
O140 S4 1.501838 1_455
O140 Zn11 2.340369 1_555
O141 Si4 1.661548 1_555
O142 S5 1.493294 1_555
O142 Zn11 2.355256 1_555
O143 S6 1.492293 1_555
