# generated using pymatgen
data_LaY(SO4)3
_symmetry_space_group_name_H-M   'P 1'
_cell_length_a   9.47570899
_cell_length_b   9.47570863
_cell_length_c   24.31963682
_cell_angle_alpha   90.00000000
_cell_angle_beta   90.00000000
_cell_angle_gamma   120.00000123
_symmetry_Int_Tables_number   1
_chemical_formula_structural   LaY(SO4)3
_chemical_formula_sum   'La6 Y6 S18 O72'
_cell_volume   1891.08532282
_cell_formula_units_Z   6
loop_
 _symmetry_equiv_pos_site_id
 _symmetry_equiv_pos_as_xyz
  1  'x, y, z'
loop_
 _atom_site_type_symbol
 _atom_site_label
 _atom_site_symmetry_multiplicity
 _atom_site_fract_x
 _atom_site_fract_y
 _atom_site_fract_z
 _atom_site_occupancy
  La  La0  1  -0.00000000  0.00000000  0.85300737  1
  La  La1  1  0.66666700  0.33333300  0.98032563  1
  La  La2  1  0.33333300  0.66666700  0.02472988  1
  La  La3  1  0.33333300  0.66666700  0.52245135  1
  La  La4  1  0.33333300  0.66666700  0.31088265  1
  La  La5  1  0.33333300  0.66666700  0.80860412  1
  Y  Y0  1  -0.00000000  0.00000000  0.35332238  1
  Y  Y1  1  -0.00000000  0.00000000  0.64401956  1
  Y  Y2  1  -0.00000000  0.00000000  0.14633626  1
  Y  Y3  1  0.66666700  0.33333300  0.68699674  1
  Y  Y4  1  0.66666700  0.33333300  0.18931344  1
  Y  Y5  1  0.66666700  0.33333300  0.48001062  1
  S  S0  1  0.28760323  0.00639068  0.24888315  1
  S  S1  1  0.71878745  0.71239677  0.24888315  1
  S  S2  1  0.99360932  0.28121255  0.24888315  1
  S  S3  1  0.29317847  0.28639475  0.74630465  1
  S  S4  1  0.99321628  0.70682153  0.74630465  1
  S  S5  1  0.71360525  0.00678372  0.74630465  1
  S  S6  1  0.94787955  0.32694232  0.58444985  1
  S  S7  1  0.37906377  0.05212045  0.58444985  1
  S  S8  1  0.67305768  0.62093623  0.58444985  1
  S  S9  1  0.95306175  0.62651147  0.08702835  1
  S  S10  1  0.67345072  0.04693825  0.08702835  1
  S  S11  1  0.37348853  0.32654928  0.08702835  1
  S  S12  1  0.62429680  0.66666700  0.91666700  1
  S  S13  1  0.04236920  0.37570320  0.91666700  1
  S  S14  1  0.33333300  0.95763080  0.91666700  1
  S  S15  1  0.63243819  0.96577219  0.41666700  1
  S  S16  1  0.33333300  0.36756181  0.41666700  1
  S  S17  1  0.03422781  0.66666700  0.41666700  1
  O  O0  1  0.20994701  0.02863492  0.29864270  1
  O  O1  1  0.81868791  0.79005299  0.29864270  1
  O  O2  1  0.97136508  0.18131209  0.29864270  1
  O  O3  1  0.22229105  0.19030587  0.79724065  1
  O  O4  1  0.96801481  0.77770895  0.79724065  1
  O  O5  1  0.80969413  0.03198519  0.79724065  1
  O  O6  1  0.79842560  0.98375256  0.69889491  1
  O  O7  1  0.18532695  0.20157440  0.69889491  1
  O  O8  1  0.01624744  0.81467305  0.69889491  1
  O  O9  1  0.79816467  0.81562785  0.20012284  1
  O  O10  1  0.01746318  0.20183533  0.20012284  1
  O  O11  1  0.18437215  0.98253682  0.20012284  1
  O  O12  1  0.86850233  0.35079618  0.63321016  1
  O  O13  1  0.48229485  0.13149767  0.63321016  1
  O  O14  1  0.64920382  0.51770515  0.63321016  1
  O  O15  1  0.86824140  0.51865995  0.13443809  1
  O  O16  1  0.65041956  0.13175860  0.13443809  1
  O  O17  1  0.48134005  0.34958044  0.13443809  1
  O  O18  1  0.44437595  0.30134781  0.03609235  1
  O  O19  1  0.85697287  0.55562405  0.03609235  1
  O  O20  1  0.69865219  0.14302713  0.03609235  1
  O  O21  1  0.45671999  0.15202091  0.53469030  1
  O  O22  1  0.69530192  0.54328001  0.53469030  1
  O  O23  1  0.84797909  0.30469808  0.53469030  1
  O  O24  1  0.54519446  0.68739522  0.96617486  1
  O  O25  1  0.14219976  0.45480554  0.96617486  1
  O  O26  1  0.31260478  0.85780024  0.96617486  1
  O  O27  1  0.55642377  0.86020487  0.46548542  1
  O  O28  1  0.30378010  0.44357623  0.46548542  1
  O  O29  1  0.13979513  0.69621990  0.46548542  1
  O  O30  1  0.11024223  0.63711410  0.36784858  1
  O  O31  1  0.52687087  0.88975777  0.36784858  1
  O  O32  1  0.36288590  0.47312913  0.36784858  1
  O  O33  1  0.12147154  0.47553376  0.86715914  1
  O  O34  1  0.35406122  0.87852846  0.86715914  1
  O  O35  1  0.52446624  0.64593878  0.86715914  1
  O  O36  1  0.01554571  0.81112344  0.40625716  1
  O  O37  1  0.79557773  0.98445429  0.40625716  1
  O  O38  1  0.18887656  0.20442227  0.40625716  1
  O  O39  1  0.02442826  0.21205723  0.91018104  1
  O  O40  1  0.18762898  0.97557174  0.91018104  1
  O  O41  1  0.78794277  0.81237102  0.91018104  1
  O  O42  1  0.96608725  0.18145371  0.59298195  1
  O  O43  1  0.21536647  0.03391275  0.59298195  1
  O  O44  1  0.81854629  0.78463353  0.59298195  1
  O  O45  1  0.97271736  0.78987895  0.09611235  1
  O  O46  1  0.81716159  0.02728264  0.09611235  1
  O  O47  1  0.21012105  0.18283841  0.09611235  1
  O  O48  1  0.69394964  0.15049459  0.73722065  1
  O  O49  1  0.45654595  0.30605036  0.73722065  1
  O  O50  1  0.84950541  0.54345405  0.73722065  1
  O  O51  1  0.70057975  0.54869947  0.24035105  1
  O  O52  1  0.84812071  0.29942025  0.24035105  1
  O  O53  1  0.45130053  0.15187929  0.24035105  1
  O  O54  1  0.64223874  0.52096198  0.92315196  1
  O  O55  1  0.87872423  0.35776126  0.92315196  1
  O  O56  1  0.47903802  0.12127577  0.92315196  1
  O  O57  1  0.65112129  0.12891073  0.42707584  1
  O  O58  1  0.47779044  0.34887871  0.42707584  1
  O  O59  1  0.87108927  0.52220956  0.42707584  1
  O  O60  1  0.35679350  0.47310755  0.08054441  1
  O  O61  1  0.11631305  0.64320650  0.08054441  1
  O  O62  1  0.52689245  0.88368695  0.08054441  1
  O  O63  1  0.36027323  0.88806865  0.57724567  1
  O  O64  1  0.52779442  0.63972677  0.57724567  1
  O  O65  1  0.11193135  0.47220558  0.57724567  1
  O  O66  1  0.30639277  0.86112842  0.25608833  1
  O  O67  1  0.55473465  0.69360723  0.25608833  1
  O  O68  1  0.13887158  0.44526535  0.25608833  1
  O  O69  1  0.30987250  0.44964705  0.75278959  1
  O  O70  1  0.13977355  0.69012750  0.75278959  1
  O  O71  1  0.55035295  0.86022645  0.75278959  1
loop_
_geom_bond_atom_site_label_1
_geom_bond_atom_site_label_2
_geom_bond_distance
_geom_bond_site_symmetry_2
La0 O39 2.357848 1_555
La0 O41 2.357848 1_445
La0 O40 2.357848 1_545
La0 O4 2.393654 1_445
La0 O3 2.393654 1_555
La0 O5 2.393655 1_455
La1 O56 2.357848 1_555
La1 O55 2.357848 1_555
La1 O54 2.357848 1_555
La1 O19 2.393654 1_556
La1 O18 2.393654 1_556
La1 O20 2.393654 1_556
La2 O62 2.379838 1_555
La2 O60 2.379838 1_555
La2 O61 2.379838 1_555
La2 O25 2.387961 1_554
La2 O26 2.387961 1_554
La2 O24 2.387961 1_554
La3 O63 2.388873 1_555
La3 O65 2.388873 1_555
La3 O64 2.388873 1_555
La3 O28 2.423738 1_555
La3 O27 2.423738 1_555
La3 O29 2.423738 1_555
La4 O68 2.388873 1_555
La4 O66 2.388873 1_555
La4 O67 2.388873 1_555
La4 O31 2.423738 1_555
La4 O32 2.423738 1_555
La4 O30 2.423738 1_555
La5 O69 2.379838 1_555
La5 O71 2.379838 1_555
La5 O70 2.379838 1_555
La5 O34 2.387961 1_555
La5 O33 2.387961 1_555
La5 O35 2.387961 1_555
O0 S0 1.485068 1_555
O0 Y0 2.293440 1_555
O1 S1 1.485068 1_555
O1 Y0 2.293440 1_665
O2 S2 1.485068 1_555
O2 Y0 2.293440 1_655
O3 S3 1.484289 1_555
O4 S4 1.484289 1_555
O5 S5 1.484289 1_555
O6 S5 1.482700 1_565
O6 Y1 2.271340 1_665
O7 S3 1.482700 1_555
O7 Y1 2.271340 1_555
O8 S4 1.482700 1_455
O8 Y1 2.271340 1_565
O9 S1 1.480892 1_555
O9 Y2 2.253826 1_665
O10 S2 1.480892 1_455
O10 Y2 2.253826 1_555
O11 S0 1.480892 1_565
O11 Y2 2.253826 1_565
O12 S6 1.480892 1_555
O12 Y3 2.253826 1_555
O13 S7 1.480892 1_555
O13 Y3 2.253826 1_555
O14 S8 1.480892 1_555
O14 Y3 2.253826 1_555
O15 S9 1.482700 1_555
O15 Y4 2.271340 1_555
O16 S10 1.482700 1_555
O16 Y4 2.271340 1_555
O17 S11 1.482700 1_555
O17 Y4 2.271340 1_555
O18 S11 1.484289 1_555
O19 S9 1.484289 1_555
O20 S10 1.484289 1_555
O21 S7 1.485068 1_555
O21 Y5 2.293440 1_555
O22 S8 1.485068 1_555
O22 Y5 2.293440 1_555
O23 S6 1.485068 1_555
O23 Y5 2.293440 1_555
O24 S12 1.482321 1_555
O25 S13 1.482321 1_555
O26 S14 1.482321 1_555
O27 S15 1.486102 1_555
O28 S16 1.486102 1_555
O29 S17 1.486102 1_555
O30 S17 1.486102 1_555
O31 S15 1.486102 1_555
O32 S16 1.486102 1_555
O33 S13 1.482321 1_555
O34 S14 1.482321 1_555
O35 S12 1.482321 1_555
O36 S17 1.487090 1_555
O36 Y0 2.268433 1_565
O37 S15 1.487099 1_555
O37 Y0 2.268433 1_665
O38 S16 1.487095 1_555
O38 Y0 2.268433 1_555
O39 S13 1.481457 1_555
O40 S14 1.481448 1_555
O41 S12 1.481453 1_555
O42 S6 1.487022 1_555
O42 Y1 2.269967 1_655
O43 S7 1.487031 1_555
O43 Y1 2.269968 1_555
O44 S8 1.487027 1_555
O44 Y1 2.269967 1_665
O45 S9 1.480388 1_555
O45 Y2 2.237912 1_665
O46 S10 1.480379 1_555
O46 Y2 2.237912 1_655
O47 S11 1.480384 1_555
O47 Y2 2.237912 1_555
O48 S5 1.480379 1_555
O48 Y3 2.237912 1_555
O49 S3 1.480388 1_555
O49 Y3 2.237912 1_555
O50 S4 1.480384 1_555
O50 Y3 2.237912 1_555
O51 S1 1.487031 1_555
O51 Y4 2.269967 1_555
O52 S2 1.487022 1_555
O52 Y4 2.269967 1_555
O53 S0 1.487027 1_555
O53 Y4 2.269967 1_555
O54 S12 1.481460 1_555
O55 S13 1.481441 1_655
O56 S14 1.481449 1_545
O57 S15 1.487082 1_545
O57 Y5 2.268433 1_555
O58 S16 1.487100 1_555
O58 Y5 2.268433 1_555
O59 S17 1.487089 1_655
O59 Y5 2.268433 1_555
O60 S11 1.482631 1_555
O61 S9 1.482613 1_455
O62 S10 1.482620 1_565
O63 S7 1.483949 1_565
O64 S8 1.483968 1_555
O65 S6 1.483957 1_455
O66 S0 1.483956 1_565
O67 S1 1.483965 1_555
O68 S2 1.483962 1_455
O69 S3 1.482628 1_555
O70 S4 1.482619 1_455
O71 S5 1.482624 1_565
