# generated using pymatgen
data_MgCu6OF11
_symmetry_space_group_name_H-M   'P 1'
_cell_length_a   5.48888076
_cell_length_b   4.79383632
_cell_length_c   9.21583247
_cell_angle_alpha   89.03381366
_cell_angle_beta   89.00063769
_cell_angle_gamma   90.77488785
_symmetry_Int_Tables_number   1
_chemical_formula_structural   MgCu6OF11
_chemical_formula_sum   'Mg1 Cu6 O1 F11'
_cell_volume   242.39980232
_cell_formula_units_Z   1
loop_
 _symmetry_equiv_pos_site_id
 _symmetry_equiv_pos_as_xyz
  1  'x, y, z'
loop_
 _atom_site_type_symbol
 _atom_site_label
 _atom_site_symmetry_multiplicity
 _atom_site_fract_x
 _atom_site_fract_y
 _atom_site_fract_z
 _atom_site_occupancy
  Mg  Mg0  1  0.65851500  0.77632200  0.45592600  1
  Cu  Cu0  1  0.00615100  0.01456600  0.99373800  1
  Cu  Cu1  1  0.47278900  0.57665500  0.04962600  1
  Cu  Cu2  1  0.33726900  0.98936200  0.28090400  1
  Cu  Cu3  1  0.84654900  0.44044500  0.27291500  1
  Cu  Cu4  1  0.16005900  0.51778700  0.69072300  1
  Cu  Cu5  1  0.64589200  0.00614400  0.73872100  1
  O  O0  1  0.55894600  0.67630200  0.25246200  1
  F  F0  1  0.27384800  0.23410600  0.07630100  1
  F  F1  1  0.05386400  0.76741700  0.23101200  1
  F  F2  1  0.78247000  0.26837000  0.07351000  1
  F  F3  1  0.11416500  0.25349600  0.36742000  1
  F  F4  1  0.61877800  0.16572500  0.39598200  1
  F  F5  1  0.39947200  0.78871400  0.60199000  1
  F  F6  1  0.88755700  0.72936700  0.60663300  1
  F  F7  1  0.42930400  0.31127100  0.75622500  1
  F  F8  1  0.22126000  0.74537900  0.91346000  1
  F  F9  1  0.94025200  0.23407400  0.76311400  1
  F  F10  1  0.71785800  0.79616500  0.93246400  1
loop_
_geom_bond_atom_site_label_1
_geom_bond_atom_site_label_2
_geom_bond_distance
_geom_bond_site_symmetry_2
Mg0 O0 2.025717 1_555
Cu0 F2 1.888727 1_456
Cu0 F8 1.910389 1_545
Cu0 F0 1.967172 1_556
Cu0 F10 1.981249 1_445
Cu0 F9 2.391050 1_455
Cu0 F1 2.488950 1_546
Cu1 F0 1.969241 1_555
Cu1 F10 1.988805 1_554
Cu1 O0 2.000240 1_555
Cu1 F8 2.047302 1_554
Cu1 F2 2.278573 1_555
Cu2 F1 1.939056 1_555
Cu2 F3 1.944368 1_565
Cu2 O0 1.962910 1_555
Cu2 F4 2.068612 1_565
Cu2 F0 2.238861 1_565
Cu3 F3 1.942507 1_655
Cu3 F1 1.953694 1_655
Cu3 O0 1.964033 1_555
Cu3 F2 2.060842 1_555
Cu3 F4 2.106982 1_555
Cu4 F7 1.891850 1_555
Cu4 F9 1.909829 1_455
Cu4 F6 1.980277 1_455
Cu4 F5 1.990718 1_555
Cu4 F8 2.367802 1_555
Cu5 F7 1.904523 1_555
Cu5 F9 1.956566 1_555
Cu5 F10 2.081359 1_545
Cu5 F5 2.137598 1_545
Cu5 F6 2.246676 1_545
F4 Mg0 1.953942 1_545
F5 Mg0 1.943041 1_555
F6 Mg0 1.902161 1_555
