# generated using pymatgen
data_Mg2Ta4Si3(SO6)6
_symmetry_space_group_name_H-M   'P 1'
_cell_length_a   8.83214328
_cell_length_b   8.81214928
_cell_length_c   22.71820554
_cell_angle_alpha   90.15351752
_cell_angle_beta   90.00000000
_cell_angle_gamma   120.07508345
_symmetry_Int_Tables_number   1
_chemical_formula_structural   Mg2Ta4Si3(SO6)6
_chemical_formula_sum   'Mg4 Ta8 Si6 S12 O72'
_cell_volume   1530.10574340
_cell_formula_units_Z   2
loop_
 _symmetry_equiv_pos_site_id
 _symmetry_equiv_pos_as_xyz
  1  'x, y, z'
loop_
 _atom_site_type_symbol
 _atom_site_label
 _atom_site_symmetry_multiplicity
 _atom_site_fract_x
 _atom_site_fract_y
 _atom_site_fract_z
 _atom_site_occupancy
  Mg  Mg0  1  0.99461380  0.00184689  0.35635950  1
  Mg  Mg1  1  0.00723310  0.00184689  0.85635950  1
  Mg  Mg2  1  0.67191037  0.34246203  0.68746245  1
  Mg  Mg3  1  0.67055266  0.34246203  0.18746245  1
  Ta  Ta0  1  0.99704950  0.00265576  0.64146667  1
  Ta  Ta1  1  0.00560626  0.00265576  0.14146667  1
  Ta  Ta2  1  0.65526752  0.33814311  0.97749881  1
  Ta  Ta3  1  0.68287658  0.33814311  0.47749881  1
  Ta  Ta4  1  0.32296835  0.66946144  0.02461764  1
  Ta  Ta5  1  0.34649209  0.66946144  0.52461764  1
  Ta  Ta6  1  0.34049175  0.67524208  0.30902111  1
  Ta  Ta7  1  0.33474932  0.67524208  0.80902111  1
  Si  Si0  1  0.95389802  0.34095742  0.58673030  1
  Si  Si1  1  0.66740081  0.60998481  0.58657060  1
  Si  Si2  1  0.94258501  0.60998481  0.08657060  1
  Si  Si3  1  0.38706040  0.34095742  0.08673030  1
  Si  Si4  1  0.33072709  0.95859972  0.91626572  1
  Si  Si5  1  0.62787163  0.95859972  0.41626572  1
  S  S0  1  0.28740542  0.00389110  0.25139471  1
  S  S1  1  0.71647442  0.71155606  0.25148007  1
  S  S2  1  0.99545926  0.28498144  0.25161173  1
  S  S3  1  0.28952218  0.28498144  0.75161173  1
  S  S4  1  0.99508164  0.71155606  0.75148007  1
  S  S5  1  0.71648567  0.00389110  0.75139471  1
  S  S6  1  0.38139833  0.04835262  0.58416959  1
  S  S7  1  0.66695529  0.04835262  0.08416959  1
  S  S8  1  0.61994749  0.67066654  0.91534247  1
  S  S9  1  0.04683540  0.37993281  0.91580922  1
  S  S10  1  0.33309640  0.37993281  0.41580922  1
  S  S11  1  0.05071805  0.67066654  0.41534247  1
  O  O0  1  0.20452784  0.02458369  0.30324206  1
  O  O1  1  0.82052134  0.79646123  0.30308586  1
  O  O2  1  0.97814035  0.18070947  0.30302567  1
  O  O3  1  0.20256912  0.18070947  0.80302567  1
  O  O4  1  0.97593989  0.79646123  0.80308586  1
  O  O5  1  0.82005584  0.02458369  0.80324206  1
  O  O6  1  0.79769843  0.96883383  0.69765154  1
  O  O7  1  0.17446928  0.20462207  0.69762320  1
  O  O8  1  0.03654567  0.82572332  0.69807197  1
  O  O9  1  0.78917765  0.82572332  0.19807197  1
  O  O10  1  0.03015279  0.20462207  0.19762320  1
  O  O11  1  0.17113540  0.96883383  0.19765154  1
  O  O12  1  0.87044412  0.36474208  0.64347325  1
  O  O13  1  0.48504787  0.11539674  0.63677560  1
  O  O14  1  0.62150921  0.49776951  0.64322093  1
  O  O15  1  0.87626129  0.49776951  0.14322093  1
  O  O16  1  0.63034987  0.11539674  0.13677560  1
  O  O17  1  0.49429896  0.36474208  0.14347325  1
  O  O18  1  0.46885929  0.29876374  0.02568848  1
  O  O19  1  0.83080085  0.52548155  0.02513301  1
  O  O20  1  0.70114617  0.15740489  0.03074594  1
  O  O21  1  0.45625972  0.15740489  0.53074594  1
  O  O22  1  0.69468170  0.52548155  0.52513301  1
  O  O23  1  0.82990545  0.29876374  0.52568848  1
  O  O24  1  0.53552605  0.68955100  0.96844966  1
  O  O25  1  0.16004059  0.46483723  0.96878457  1
  O  O26  1  0.31927367  0.83240826  0.97129441  1
  O  O27  1  0.51313359  0.83240826  0.47129441  1
  O  O28  1  0.30479565  0.46483723  0.46878457  1
  O  O29  1  0.15402395  0.68955100  0.46844966  1
  O  O30  1  0.12887023  0.63156770  0.36234669  1
  O  O31  1  0.48949615  0.85392110  0.35891442  1
  O  O32  1  0.36140355  0.49633768  0.36315493  1
  O  O33  1  0.13493313  0.49633768  0.86315493  1
  O  O34  1  0.36442395  0.85392110  0.85891442  1
  O  O35  1  0.50269647  0.63156770  0.86234669  1
  O  O36  1  0.03160869  0.82111369  0.40622455  1
  O  O37  1  0.81050456  0.97603927  0.40777874  1
  O  O38  1  0.18233963  0.20952241  0.40735660  1
  O  O39  1  0.02718278  0.20952241  0.90735660  1
  O  O40  1  0.16553472  0.97603927  0.90777874  1
  O  O41  1  0.78950499  0.82111369  0.90622455  1
  O  O42  1  0.98300581  0.16781888  0.59552570  1
  O  O43  1  0.20222393  0.02655778  0.59266578  1
  O  O44  1  0.84152145  0.81097788  0.59633114  1
  O  O45  1  0.96945643  0.81097788  0.09633114  1
  O  O46  1  0.82433385  0.02655778  0.09266578  1
  O  O47  1  0.18481307  0.16781888  0.09552570  1
  O  O48  1  0.68205529  0.14501017  0.74149127  1
  O  O49  1  0.46076830  0.30673854  0.74229722  1
  O  O50  1  0.85081022  0.53633198  0.74383580  1
  O  O51  1  0.68552276  0.53633198  0.24383580  1
  O  O52  1  0.84597124  0.30673854  0.24229722  1
  O  O53  1  0.46295587  0.14501017  0.24149127  1
  O  O54  1  0.63345772  0.50647064  0.92219611  1
  O  O55  1  0.87676308  0.37155410  0.92426272  1
  O  O56  1  0.51838368  0.14260419  0.92670672  1
  O  O57  1  0.62422152  0.14260419  0.42670672  1
  O  O58  1  0.49479202  0.37155410  0.42426272  1
  O  O59  1  0.87301392  0.50647064  0.42219611  1
  O  O60  1  0.35771004  0.50187117  0.06658457  1
  O  O61  1  0.14378500  0.65164561  0.07071466  1
  O  O62  1  0.51772963  0.86671503  0.07241949  1
  O  O63  1  0.34898441  0.86671503  0.57241949  1
  O  O64  1  0.50785961  0.65164561  0.57071466  1
  O  O65  1  0.14416013  0.50187117  0.56658457  1
  O  O66  1  0.29437917  0.83182240  0.25796394  1
  O  O67  1  0.53141299  0.69413933  0.25948227  1
  O  O68  1  0.16033383  0.46521802  0.25967993  1
  O  O69  1  0.30488319  0.46521802  0.75967993  1
  O  O70  1  0.16272534  0.69413933  0.75948227  1
  O  O71  1  0.53744222  0.83182240  0.75796394  1
loop_
_geom_bond_atom_site_label_1
_geom_bond_atom_site_label_2
_geom_bond_distance
_geom_bond_site_symmetry_2
Mg0 O37 1.921254 1_545
Mg0 O2 2.052714 1_555
Mg0 O1 2.074552 1_545
Mg0 O38 2.094734 1_655
Mg0 O36 2.111365 1_645
Mg0 O0 2.136028 1_655
Mg1 O40 1.921254 1_545
Mg1 O3 2.052714 1_555
Mg1 O4 2.074552 1_445
Mg1 O39 2.094734 1_555
Mg1 O41 2.111365 1_445
Mg1 O5 2.136029 1_455
Mg2 O14 1.923380 1_555
Mg2 O12 1.941120 1_555
Mg2 O50 2.082841 1_555
Mg2 O49 2.131272 1_555
Mg2 O48 2.170219 1_555
Mg2 O13 2.175168 1_555
Mg3 O15 1.923380 1_555
Mg3 O17 1.941120 1_555
Mg3 O51 2.082841 1_555
Mg3 O52 2.131272 1_555
Mg3 O53 2.170219 1_555
Mg3 O16 2.175168 1_555
O0 S0 1.445365 1_555
O1 S1 1.443939 1_555
O2 S2 1.448062 1_555
O3 S3 1.448062 1_555
O4 S4 1.443939 1_555
O5 S5 1.445365 1_555
O6 S5 1.523391 1_565
O6 Ta0 2.072249 1_565
O7 S3 1.520702 1_555
O7 Ta0 2.107902 1_455
O8 S4 1.501907 1_455
O8 Ta0 2.182256 1_465
O9 S1 1.501907 1_555
O9 Ta1 2.182256 1_665
O10 S2 1.520702 1_455
O10 Ta1 2.107902 1_555
O11 S0 1.523390 1_565
O11 Ta1 2.072249 1_565
O12 Si0 1.549960 1_555
O13 S6 1.438586 1_555
O14 Si1 1.550350 1_555
O15 Si2 1.550350 1_555
O16 S7 1.438586 1_555
O17 Si3 1.549960 1_555
O18 Si3 1.688126 1_555
O18 Ta2 1.859830 1_554
O19 Si2 1.653769 1_555
O19 Ta2 1.930072 1_554
O20 S7 1.484291 1_555
O20 Ta2 2.195756 1_554
O21 S6 1.484291 1_555
O21 Ta3 2.195756 1_555
O22 Si1 1.653769 1_555
O22 Ta3 1.930072 1_555
O23 Si0 1.688126 1_555
O23 Ta3 1.859830 1_555
O24 S8 1.470570 1_555
O24 Ta4 2.202753 1_556
O25 S9 1.501101 1_555
O25 Ta4 2.078020 1_556
O26 Si4 1.644507 1_555
O26 Ta4 1.893859 1_556
O27 Si5 1.644507 1_555
O27 Ta5 1.893859 1_555
O28 S10 1.501101 1_555
O28 Ta5 2.078020 1_555
O29 S11 1.470570 1_555
O29 Ta5 2.202753 1_555
O30 S11 1.510245 1_555
O30 Ta6 2.095403 1_555
O31 Si5 1.704638 1_555
O31 Ta6 1.846484 1_555
O32 S10 1.514986 1_555
O32 Ta6 2.081889 1_555
O33 S9 1.514986 1_555
O33 Ta7 2.081889 1_555
O34 Si4 1.704638 1_555
O34 Ta7 1.846484 1_555
O35 S8 1.510245 1_555
O35 Ta7 2.095403 1_555
O36 S11 1.433450 1_555
O37 Si5 1.553833 1_555
O38 S10 1.435009 1_555
O39 S9 1.435012 1_555
O40 Si4 1.553824 1_555
O41 S8 1.433455 1_555
O42 Si0 1.681848 1_555
O42 Ta0 1.847180 1_555
O43 S6 1.507981 1_555
O43 Ta0 2.043533 1_455
O44 Si1 1.679032 1_555
O44 Ta0 1.859199 1_565
O45 Si2 1.679036 1_555
O45 Ta1 1.859199 1_665
O46 S7 1.507972 1_555
O46 Ta1 2.043533 1_655
O47 Si3 1.681853 1_555
O47 Ta1 1.847180 1_555
O48 S5 1.438769 1_555
O49 S3 1.441764 1_555
O50 S4 1.436880 1_555
O51 S1 1.436883 1_555
O52 S2 1.441755 1_555
O53 S0 1.438775 1_555
O54 S8 1.518653 1_555
O54 Ta2 2.027860 1_555
O55 S9 1.479042 1_655
O55 Ta2 2.191133 1_555
O56 Si4 1.654341 1_545
O56 Ta2 1.914071 1_555
O57 Si5 1.654332 1_545
O57 Ta3 1.914071 1_555
O58 S10 1.479060 1_555
O58 Ta3 2.191133 1_555
O59 S11 1.518643 1_655
O59 Ta3 2.027860 1_555
O60 Si3 1.630727 1_555
O60 Ta4 1.909426 1_555
O61 Si2 1.664093 1_455
O61 Ta4 1.837868 1_555
O62 S7 1.501216 1_565
O62 Ta4 2.037840 1_555
O63 S6 1.501210 1_565
O63 Ta5 2.037840 1_555
O64 Si1 1.664110 1_555
O64 Ta5 1.837868 1_555
O65 Si0 1.630717 1_455
O65 Ta5 1.909426 1_555
O66 S0 1.555646 1_565
O66 Ta6 1.996744 1_555
O67 S1 1.573811 1_555
O67 Ta6 1.964005 1_555
O68 S2 1.535275 1_455
O68 Ta6 2.061794 1_555
O69 S3 1.535278 1_555
O69 Ta7 2.061794 1_555
O70 S4 1.573802 1_455
O70 Ta7 1.964005 1_555
O71 S5 1.555651 1_565
O71 Ta7 1.996744 1_555
