# generated using pymatgen
data_MgMn6(OF)6
_symmetry_space_group_name_H-M   'P 1'
_cell_length_a   5.37360420
_cell_length_b   15.27190739
_cell_length_c   3.06580687
_cell_angle_alpha   89.94808600
_cell_angle_beta   90.00564589
_cell_angle_gamma   104.97579251
_symmetry_Int_Tables_number   1
_chemical_formula_structural   MgMn6(OF)6
_chemical_formula_sum   'Mg1 Mn6 O6 F6'
_cell_volume   243.05047245
_cell_formula_units_Z   1
loop_
 _symmetry_equiv_pos_site_id
 _symmetry_equiv_pos_as_xyz
  1  'x, y, z'
loop_
 _atom_site_type_symbol
 _atom_site_label
 _atom_site_symmetry_multiplicity
 _atom_site_fract_x
 _atom_site_fract_y
 _atom_site_fract_z
 _atom_site_occupancy
  Mg  Mg0  1  0.98703017  0.50162443  0.00990602  1
  Mn  Mn0  1  0.05723743  0.99650837  0.00391699  1
  Mn  Mn1  1  0.14022279  0.29455442  0.00487688  1
  Mn  Mn2  1  0.83432650  0.70683471  0.00937522  1
  Mn  Mn3  1  0.58592795  0.15424245  0.50355626  1
  Mn  Mn4  1  0.48579484  0.50104480  0.50969583  1
  Mn  Mn5  1  0.38170003  0.84466997  0.50512767  1
  O  O0  1  0.16330755  0.93433754  0.50456932  1
  O  O1  1  0.38116942  0.09519061  0.00380866  1
  O  O2  1  0.19575352  0.77816986  0.00503758  1
  O  O3  1  0.27891474  0.43474925  0.00967586  1
  O  O4  1  0.79240595  0.21492726  0.00332036  1
  O  O5  1  0.69365437  0.56862260  0.00961496  1
  F  F0  1  0.35303398  0.26356488  0.50498253  1
  F  F1  1  0.17778444  0.57512690  0.50933973  1
  F  F2  1  0.64028697  0.90497765  0.00543141  1
  F  F3  1  0.90395637  0.05387403  0.50360276  1
  F  F4  1  0.79629655  0.42923548  0.51046191  1
  F  F5  1  0.63730744  0.74774380  0.50870006  1
loop_
_geom_bond_atom_site_label_1
_geom_bond_atom_site_label_2
_geom_bond_distance
_geom_bond_site_symmetry_2
Mg0 O3 2.081125 1_655
Mg0 O5 2.089469 1_555
Mn0 O0 1.962786 1_554
Mn0 O0 1.964477 1_555
Mn0 O1 1.986311 1_565
Mn1 O4 1.948703 1_455
Mn1 O3 2.077281 1_555
Mn2 O2 1.966086 1_655
Mn2 O5 2.049904 1_555
Mn3 O1 1.964868 1_555
Mn3 O1 1.964970 1_556
Mn3 O4 1.976942 1_555
Mn3 O4 1.976953 1_556
Mn4 O3 2.006578 1_556
Mn4 O3 2.007906 1_555
Mn4 O5 2.016174 1_555
Mn4 O5 2.017052 1_556
Mn5 O2 1.962597 1_556
Mn5 O2 1.964311 1_555
Mn5 O0 2.020652 1_555
F0 Mn1 2.039744 1_555
F0 Mn1 2.040071 1_556
F0 Mn3 2.330994 1_555
F1 Mg0 2.015780 1_455
F1 Mg0 2.017027 1_456
F1 Mn4 2.233212 1_555
F2 Mn5 2.112457 1_555
F2 Mn5 2.114820 1_554
F2 Mn0 2.314154 1_655
F3 Mn0 2.041671 1_645
F3 Mn0 2.041803 1_646
F3 Mn3 2.573693 1_555
F4 Mg0 2.008575 1_556
F4 Mg0 2.009802 1_555
F4 Mn4 2.220876 1_555
F5 Mn2 2.049030 1_555
F5 Mn2 2.051123 1_556
F5 Mn5 2.264641 1_555
