# generated using pymatgen
data_Na6Y2Ta6Si9(SO16)3
_symmetry_space_group_name_H-M   'P 1'
_cell_length_a   18.01015328
_cell_length_b   9.05146495
_cell_length_c   23.02956181
_cell_angle_alpha   90.10230033
_cell_angle_beta   89.70841037
_cell_angle_gamma   120.11875103
_symmetry_Int_Tables_number   1
_chemical_formula_structural   Na6Y2Ta6Si9(SO16)3
_chemical_formula_sum   'Na18 Y6 Ta18 Si27 S9 O144'
_cell_volume   3247.32582464
_cell_formula_units_Z   3
loop_
 _symmetry_equiv_pos_site_id
 _symmetry_equiv_pos_as_xyz
  1  'x, y, z'
loop_
 _atom_site_type_symbol
 _atom_site_label
 _atom_site_symmetry_multiplicity
 _atom_site_fract_x
 _atom_site_fract_y
 _atom_site_fract_z
 _atom_site_occupancy
  Na  Na0  1  0.32458576  0.01879048  0.25510542  1
  Na  Na1  1  0.68645882  0.37398449  0.24526754  1
  Na  Na2  1  0.49023171  0.61821271  0.24997593  1
  Na  Na3  1  0.82364688  0.63131077  0.75307716  1
  Na  Na4  1  0.99095163  0.36154476  0.74726138  1
  Na  Na5  1  0.18727874  0.00313664  0.74153864  1
  Na  Na6  1  0.00422279  0.01227309  0.50017359  1
  Na  Na7  1  0.50833534  0.99801629  0.49857196  1
  Na  Na8  1  0.00834890  0.02178921  0.99679404  1
  Na  Na9  1  0.50431091  0.99605502  0.99851468  1
  Na  Na10  1  0.34196353  0.32861912  0.83338076  1
  Na  Na11  1  0.82903004  0.31998102  0.82494468  1
  Na  Na12  1  0.32825151  0.34183521  0.33177832  1
  Na  Na13  1  0.84140764  0.35483180  0.33811605  1
  Na  Na14  1  0.16769244  0.65010682  0.16676385  1
  Na  Na15  1  0.67308417  0.67196255  0.16377827  1
  Na  Na16  1  0.17553867  0.67476772  0.66144108  1
  Na  Na17  1  0.65695518  0.67042942  0.65982644  1
  Y  Y0  1  0.50000280  0.00081784  0.36034953  1
  Y  Y1  1  0.00004880  0.00032678  0.85968467  1
  Y  Y2  1  0.33940166  0.33490376  0.67993981  1
  Y  Y3  1  0.82570424  0.31643669  0.68322473  1
  Y  Y4  1  0.32523633  0.33557825  0.18383495  1
  Y  Y5  1  0.83577168  0.33972820  0.18166070  1
  Ta  Ta0  1  0.00197946  0.98763756  0.36028403  1
  Ta  Ta1  1  0.50188643  0.01599212  0.85855475  1
  Ta  Ta2  1  0.99739671  0.99144505  0.64367021  1
  Ta  Ta3  1  0.49833757  0.01743378  0.63932467  1
  Ta  Ta4  1  0.99983606  0.99489599  0.14493721  1
  Ta  Ta5  1  0.49772179  0.00280759  0.14388884  1
  Ta  Ta6  1  0.33135969  0.34943662  0.97637878  1
  Ta  Ta7  1  0.82661174  0.30703940  0.97837994  1
  Ta  Ta8  1  0.33340828  0.34617489  0.48335695  1
  Ta  Ta9  1  0.83127380  0.31217551  0.47702850  1
  Ta  Ta10  1  0.17051886  0.66148389  0.01375371  1
  Ta  Ta11  1  0.65919430  0.66308645  0.02227478  1
  Ta  Ta12  1  0.15943479  0.65335606  0.52231791  1
  Ta  Ta13  1  0.66450962  0.67062395  0.51552943  1
  Ta  Ta14  1  0.16386611  0.65919228  0.31328683  1
  Ta  Ta15  1  0.66865513  0.65581635  0.31784922  1
  Ta  Ta16  1  0.16849559  0.68117329  0.81648058  1
  Ta  Ta17  1  0.66099048  0.66518479  0.81042205  1
  Si  Si0  1  0.13963380  0.98770970  0.25190820  1
  Si  Si1  1  0.35268257  0.71229720  0.25095960  1
  Si  Si2  1  0.85639562  0.71765161  0.25294367  1
  Si  Si3  1  0.50345862  0.29680441  0.24961777  1
  Si  Si4  1  0.63950160  0.28757364  0.75076373  1
  Si  Si5  1  0.00322927  0.71108268  0.75009667  1
  Si  Si6  1  0.35691124  0.99655180  0.75205658  1
  Si  Si7  1  0.85266175  0.99345705  0.75138920  1
  Si  Si8  1  0.48429304  0.34371400  0.57971695  1
  Si  Si9  1  0.97672190  0.32547004  0.58541475  1
  Si  Si10  1  0.18540022  0.03587851  0.58344963  1
  Si  Si11  1  0.68370511  0.03343664  0.58168238  1
  Si  Si12  1  0.33293238  0.63136233  0.58451064  1
  Si  Si13  1  0.47644685  0.62741616  0.08522067  1
  Si  Si14  1  0.83380843  0.03383223  0.08299059  1
  Si  Si15  1  0.18292295  0.33500021  0.08154296  1
  Si  Si16  1  0.68537786  0.33471863  0.08349352  1
  Si  Si17  1  0.31280269  0.66884086  0.91321820  1
  Si  Si18  1  0.01801470  0.38267323  0.91633241  1
  Si  Si19  1  0.52182979  0.38387490  0.91786669  1
  Si  Si20  1  0.17071428  0.96328051  0.92229441  1
  Si  Si21  1  0.66417605  0.94683687  0.91507061  1
  Si  Si22  1  0.81131307  0.95196516  0.41568323  1
  Si  Si23  1  0.16858975  0.37905482  0.41584592  1
  Si  Si24  1  0.67240289  0.37875001  0.42167315  1
  Si  Si25  1  0.02149365  0.65826320  0.41817971  1
  Si  Si26  1  0.51625883  0.65237758  0.41583449  1
  S  S0  1  0.64371042  0.99336035  0.24796072  1
  S  S1  1  0.00378142  0.28298097  0.25244622  1
  S  S2  1  0.14430122  0.29546451  0.74862129  1
  S  S3  1  0.50179841  0.72220971  0.75343356  1
  S  S4  1  0.83333721  0.63168157  0.58169965  1
  S  S5  1  0.98500680  0.63524038  0.07992724  1
  S  S6  1  0.33242114  0.03355579  0.08168917  1
  S  S7  1  0.80331110  0.65234464  0.91859965  1
  S  S8  1  0.30227224  0.95182650  0.41799910  1
  O  O0  1  0.09063969  0.01281474  0.30764028  1
  O  O1  1  0.60705745  0.02021488  0.30065908  1
  O  O2  1  0.41222350  0.79971506  0.30543657  1
  O  O3  1  0.91530049  0.82534329  0.30810948  1
  O  O4  1  0.49250055  0.18327710  0.30485570  1
  O  O5  1  0.99533260  0.18412957  0.30421779  1
  O  O6  1  0.10649255  0.19529517  0.80141356  1
  O  O7  1  0.59167270  0.16897859  0.80825965  1
  O  O8  1  0.49717108  0.80903116  0.80662538  1
  O  O9  1  0.99233237  0.80069288  0.80622281  1
  O  O10  1  0.41519437  0.00503623  0.80841893  1
  O  O11  1  0.91103697  0.02488793  0.80679794  1
  O  O12  1  0.40445197  0.97923138  0.69333688  1
  O  O13  1  0.90357499  0.96546073  0.69368279  1
  O  O14  1  0.08972004  0.20705707  0.69626341  1
  O  O15  1  0.58259469  0.19008223  0.69312240  1
  O  O16  1  0.01768953  0.83856968  0.69241120  1
  O  O17  1  0.51399963  0.81774975  0.70008930  1
  O  O18  1  0.40387332  0.84156700  0.19271496  1
  O  O19  1  0.90518267  0.83214185  0.19339506  1
  O  O20  1  0.01433033  0.20443867  0.19769683  1
  O  O21  1  0.51784520  0.19706575  0.19135386  1
  O  O22  1  0.08213855  0.97503988  0.19343074  1
  O  O23  1  0.58960787  0.97415880  0.19536541  1
  O  O24  1  0.45426437  0.38449398  0.63989432  1
  O  O25  1  0.94937319  0.37073548  0.64569948  1
  O  O26  1  0.23351132  0.09572037  0.64520176  1
  O  O27  1  0.73725103  0.09471331  0.63982047  1
  O  O28  1  0.30898437  0.51574257  0.64113867  1
  O  O29  1  0.82066787  0.54314676  0.63745442  1
  O  O30  1  0.44876720  0.52717410  0.14522430  1
  O  O31  1  0.95251344  0.53898743  0.13436092  1
  O  O32  1  0.31838847  0.09509774  0.13728579  1
  O  O33  1  0.81535628  0.11162188  0.13961113  1
  O  O34  1  0.23616487  0.38218860  0.13970229  1
  O  O35  1  0.73504065  0.37137667  0.14470630  1
  O  O36  1  0.23416891  0.30935998  0.02540032  1
  O  O37  1  0.74255887  0.31291822  0.02998067  1
  O  O38  1  0.41299926  0.52099984  0.02993714  1
  O  O39  1  0.92904138  0.54840559  0.03039261  1
  O  O40  1  0.34434394  0.14487639  0.03237080  1
  O  O41  1  0.84822202  0.16492286  0.02613850  1
  O  O42  1  0.23857412  0.17062248  0.52968589  1
  O  O43  1  0.73522348  0.16453187  0.52581933  1
  O  O44  1  0.34850865  0.53302118  0.52749633  1
  O  O45  1  0.84616336  0.54376902  0.53250376  1
  O  O46  1  0.41775896  0.31323753  0.52602585  1
  O  O47  1  0.91376058  0.30525606  0.53001071  1
  O  O48  1  0.26712256  0.68919677  0.97219176  1
  O  O49  1  0.75784120  0.66956743  0.96860514  1
  O  O50  1  0.08228235  0.49464151  0.97017553  1
  O  O51  1  0.58239239  0.47371593  0.97315475  1
  O  O52  1  0.16742127  0.84514269  0.97647342  1
  O  O53  1  0.65597581  0.83224011  0.97089682  1
  O  O54  1  0.25696102  0.84445659  0.46759495  1
  O  O55  1  0.76808046  0.84104140  0.47320339  1
  O  O56  1  0.15611965  0.47878195  0.47019235  1
  O  O57  1  0.66943165  0.49298191  0.47381840  1
  O  O58  1  0.08236747  0.69030042  0.47290810  1
  O  O59  1  0.58037224  0.67001945  0.46925312  1
  O  O60  1  0.07008305  0.63690283  0.36000773  1
  O  O61  1  0.56716758  0.63798817  0.35582992  1
  O  O62  1  0.25429659  0.86701940  0.36146502  1
  O  O63  1  0.74930597  0.85862900  0.35898240  1
  O  O64  1  0.18094583  0.50083509  0.35786233  1
  O  O65  1  0.68262296  0.49325096  0.35961021  1
  O  O66  1  0.06626336  0.49580942  0.85675081  1
  O  O67  1  0.56992599  0.50372408  0.86070056  1
  O  O68  1  0.18122044  0.86745469  0.86153419  1
  O  O69  1  0.68095612  0.85935946  0.85782959  1
  O  O70  1  0.24889121  0.63748964  0.85881479  1
  O  O71  1  0.75563861  0.63464522  0.86286561  1
  O  O72  1  0.01156271  0.82989562  0.41049723  1
  O  O73  1  0.50805700  0.81919177  0.41932413  1
  O  O74  1  0.38779071  0.97041260  0.41617391  1
  O  O75  1  0.90768304  0.98135955  0.40723098  1
  O  O76  1  0.08223998  0.19101491  0.40658555  1
  O  O77  1  0.58814212  0.19634630  0.42123949  1
  O  O78  1  0.00690233  0.19766654  0.92088461  1
  O  O79  1  0.51167717  0.19265439  0.91030262  1
  O  O80  1  0.08672298  0.97798597  0.92272290  1
  O  O81  1  0.58152891  0.97265685  0.90810240  1
  O  O82  1  0.40775325  0.83434031  0.90841796  1
  O  O83  1  0.88913086  0.80409948  0.91761624  1
  O  O84  1  0.48845774  0.16438773  0.58560920  1
  O  O85  1  0.98588971  0.15261076  0.59157186  1
  O  O86  1  0.08897897  0.01944311  0.58971982  1
  O  O87  1  0.58941196  0.01877260  0.59024457  1
  O  O88  1  0.42010772  0.81805180  0.59264296  1
  O  O89  1  0.91515894  0.80644832  0.58577604  1
  O  O90  1  0.48636423  0.81931167  0.09097594  1
  O  O91  1  0.99089707  0.80733105  0.08639078  1
  O  O92  1  0.41295394  0.01937446  0.08540194  1
  O  O93  1  0.92069285  0.01847399  0.09161994  1
  O  O94  1  0.08862084  0.15827514  0.09064144  1
  O  O95  1  0.59008235  0.15811347  0.08858376  1
  O  O96  1  0.33859904  0.15492206  0.75377573  1
  O  O97  1  0.84079180  0.15675222  0.74675432  1
  O  O98  1  0.23048141  0.31797431  0.74335067  1
  O  O99  1  0.73842608  0.33610688  0.75034154  1
  O  O100  1  0.42683051  0.54829717  0.75308027  1
  O  O101  1  0.92092641  0.52336876  0.74467406  1
  O  O102  1  0.34045851  0.52508171  0.24639432  1
  O  O103  1  0.84056496  0.52374774  0.25222630  1
  O  O104  1  0.42058982  0.31792880  0.24354190  1
  O  O105  1  0.92950429  0.30866416  0.24796125  1
  O  O106  1  0.23775732  0.13913119  0.24944823  1
  O  O107  1  0.73023259  0.14478180  0.24202559  1
  O  O108  1  0.31984362  0.49547287  0.92165475  1
  O  O109  1  0.81018541  0.49518251  0.92404509  1
  O  O110  1  0.42755664  0.36345456  0.92747018  1
  O  O111  1  0.92616715  0.38073322  0.92703680  1
  O  O112  1  0.26014243  0.14718426  0.92804448  1
  O  O113  1  0.75067990  0.14052325  0.92481252  1
  O  O114  1  0.30671133  0.11891157  0.42020607  1
  O  O115  1  0.81966587  0.14206085  0.42231341  1
  O  O116  1  0.25245746  0.35694134  0.42452334  1
  O  O117  1  0.76145638  0.37193606  0.42653025  1
  O  O118  1  0.42400028  0.47338569  0.42236075  1
  O  O119  1  0.92771960  0.49016453  0.42637249  1
  O  O120  1  0.16615135  0.49667421  0.06996599  1
  O  O121  1  0.67216202  0.49695735  0.06963190  1
  O  O122  1  0.07386061  0.66623144  0.07226283  1
  O  O123  1  0.57380810  0.66115386  0.07068218  1
  O  O124  1  0.25840840  0.85585047  0.07437591  1
  O  O125  1  0.75444035  0.84513686  0.06702954  1
  O  O126  1  0.17148369  0.84611370  0.56901174  1
  O  O127  1  0.67133629  0.84494171  0.56841216  1
  O  O128  1  0.25452017  0.66497012  0.56674788  1
  O  O129  1  0.76086616  0.66265697  0.57440716  1
  O  O130  1  0.07398086  0.48566943  0.57093129  1
  O  O131  1  0.58303382  0.49757040  0.56961140  1
  O  O132  1  0.14283439  0.80819809  0.25951705  1
  O  O133  1  0.64723150  0.83242882  0.25070202  1
  O  O134  1  0.25921157  0.71071771  0.25606861  1
  O  O135  1  0.76026348  0.70058138  0.25798010  1
  O  O136  1  0.08448112  0.45712012  0.25570176  1
  O  O137  1  0.59300747  0.48894921  0.25386698  1
  O  O138  1  0.14667719  0.46344568  0.75210340  1
  O  O139  1  0.64338437  0.47464265  0.76060851  1
  O  O140  1  0.09314233  0.69820947  0.75471787  1
  O  O141  1  0.58253155  0.70439699  0.75843393  1
  O  O142  1  0.26056040  0.81968898  0.75960647  1
  O  O143  1  0.75925571  0.80774247  0.75744452  1
loop_
_geom_bond_atom_site_label_1
_geom_bond_atom_site_label_2
_geom_bond_distance
_geom_bond_site_symmetry_2
Na0 O106 2.315379 1_555
Na0 O104 2.385643 1_555
Na0 O134 2.422300 1_545
Na0 O62 2.779305 1_545
Na0 O32 2.817595 1_555
Na0 O132 2.845009 1_545
Na0 O4 2.861024 1_555
Na0 O18 2.991088 1_545
Na1 O137 2.389218 1_555
Na1 O103 2.407160 1_555
Na1 O35 2.475750 1_555
Na1 O107 2.563482 1_555
Na1 O135 2.578545 1_555
Na1 O65 2.857811 1_555
Na1 O21 2.911826 1_555
Na2 O104 2.358353 1_555
Na2 O102 2.390308 1_555
Na2 O133 2.500647 1_555
Na2 O30 2.539679 1_555
Na2 O137 2.641736 1_555
Na2 O61 2.771036 1_555
Na3 O99 2.320338 1_555
Na3 O143 2.400455 1_555
Na3 O101 2.403209 1_555
Na3 O29 2.771424 1_555
Na3 O71 2.810543 1_555
Na3 O139 2.820623 1_555
Na3 O9 2.904296 1_555
Na3 O13 2.952332 1_555
Na4 O101 2.365280 1_555
Na4 O97 2.391487 1_555
Na4 O25 2.473720 1_555
Na4 O138 2.477064 1_655
Na4 O140 2.660010 1_655
Na4 O66 2.836227 1_655
Na5 O26 2.367554 1_555
Na5 O96 2.375500 1_555
Na5 O140 2.426090 1_545
Na5 O98 2.550058 1_555
Na5 O142 2.622906 1_545
Na5 O16 2.879403 1_545
Na5 O68 3.005226 1_545
Na6 O86 2.553269 1_555
Na6 O85 2.560728 1_455
Na6 O89 2.629071 1_445
Na6 O76 2.633876 1_555
Na6 O72 2.685460 1_545
Na6 O75 2.688917 1_445
Na7 O77 2.419948 1_565
Na7 O73 2.435601 1_555
Na7 O87 2.525710 1_565
Na7 O84 2.633745 1_565
Na7 O88 2.692880 1_555
Na7 O74 2.805796 1_555
Na8 O80 2.365204 1_545
Na8 O78 2.375514 1_555
Na8 O94 2.552877 1_556
Na8 O93 2.679509 1_456
Na8 O91 2.742224 1_446
Na8 O83 2.756575 1_445
Na9 O81 2.564924 1_555
Na9 O95 2.566740 1_566
Na9 O90 2.585364 1_556
Na9 O82 2.634991 1_555
Na9 O92 2.658790 1_566
Na9 O79 2.661660 1_565
Na10 O96 2.394082 1_555
Na10 O100 2.577610 1_555
Na10 O110 2.591277 1_555
Na10 O108 2.675252 1_555
Na10 O112 2.678164 1_555
Na10 O98 2.861274 1_555
Na11 O97 2.402281 1_555
Na11 O99 2.429877 1_555
Na11 O101 2.543394 1_555
Na11 O113 2.756680 1_555
Na11 O111 2.821808 1_555
Na11 O109 2.891022 1_555
Na12 O102 2.511432 1_555
Na12 O116 2.569175 1_555
Na12 O106 2.575957 1_555
Na12 O118 2.590423 1_555
Na12 O104 2.695715 1_555
Na12 O114 2.755020 1_555
Na13 O119 2.481996 1_555
Na13 O103 2.506944 1_555
Na13 O117 2.536929 1_555
Na13 O115 2.621256 1_555
Na13 O105 2.762522 1_555
Na13 O107 2.954741 1_555
Na14 O134 2.523995 1_555
Na14 O136 2.616622 1_555
Na14 O120 2.617209 1_555
Na14 O132 2.726377 1_555
Na14 O124 2.754918 1_555
Na14 O122 2.810624 1_555
Na15 O137 2.590875 1_555
Na15 O135 2.619780 1_555
Na15 O133 2.644337 1_555
Na15 O121 2.678073 1_555
Na15 O125 2.691195 1_555
Na15 O123 2.768704 1_555
Na16 O128 2.623215 1_555
Na16 O126 2.658709 1_555
Na16 O140 2.672743 1_555
Na16 O142 2.680492 1_555
Na16 O138 2.700679 1_555
Na16 O130 2.739348 1_555
Na17 O131 2.542246 1_555
Na17 O127 2.567085 1_555
Na17 O141 2.725471 1_555
Na17 O129 2.733350 1_555
Na17 O143 2.779812 1_555
Na17 O139 2.856814 1_555
O0 Si0 1.632865 1_545
O0 Ta0 1.920303 1_545
O1 S0 1.455868 1_545
O1 Y0 2.296102 1_555
O2 Si1 1.583851 1_555
O2 Y0 2.129805 1_565
O3 Si2 1.631303 1_555
O3 Ta0 1.936503 1_655
O4 Si3 1.584842 1_555
O4 Y0 2.147629 1_555
O5 S1 1.452784 1_655
O5 Ta0 2.251252 1_645
O6 S2 1.462797 1_555
O6 Y1 2.275375 1_555
O7 Si4 1.647136 1_555
O7 Ta1 1.900903 1_555
O8 S3 1.478635 1_555
O8 Ta1 2.186331 1_565
O9 Si5 1.587623 1_655
O9 Y1 2.131225 1_665
O10 Si6 1.650805 1_545
O10 Ta1 1.908736 1_555
O11 Si7 1.589568 1_545
O11 Y1 2.116919 1_655
O12 Si6 1.645765 1_555
O12 Ta3 1.979713 1_565
O13 Si7 1.700215 1_555
O13 Ta2 1.954336 1_555
O14 S2 1.509881 1_555
O14 Ta2 2.189953 1_445
O15 Si4 1.641117 1_555
O15 Ta3 1.977911 1_555
O16 Si5 1.692512 1_555
O16 Ta2 1.955904 1_455
O17 S3 1.454531 1_555
O17 Ta3 2.414408 1_565
O18 Si1 1.711342 1_555
O18 Ta5 1.939617 1_565
O19 Si2 1.675003 1_555
O19 Ta4 1.946233 1_555
O20 S1 1.503720 1_555
O20 Ta4 2.154043 1_445
O21 Si3 1.705709 1_555
O21 Ta5 1.943073 1_555
O22 Si0 1.671377 1_555
O22 Ta4 1.939483 1_455
O23 S0 1.512638 1_555
O23 Ta5 2.159395 1_565
O24 Si8 1.593809 1_555
O24 Y2 2.093240 1_555
O25 Si9 1.591064 1_555
O25 Y3 2.198306 1_555
O26 Si10 1.614125 1_555
O26 Y2 2.197686 1_555
O27 Si11 1.582393 1_555
O27 Y3 2.089296 1_555
O28 Si12 1.590008 1_555
O28 Y2 2.165180 1_555
O29 S4 1.469734 1_555
O29 Y3 2.350688 1_555
O30 Si13 1.588971 1_555
O30 Y4 2.204807 1_555
O31 S5 1.468924 1_555
O31 Y5 2.244580 1_555
O32 S6 1.465931 1_555
O32 Y4 2.371926 1_555
O33 Si14 1.591739 1_555
O33 Y5 2.137880 1_555
O34 Si15 1.579828 1_555
O34 Y4 2.117014 1_555
O35 Si16 1.615763 1_555
O35 Y5 2.153077 1_555
O36 Si15 1.667075 1_555
O36 Ta6 1.952992 1_554
O37 Si16 1.675833 1_555
O37 Ta7 1.941366 1_554
O38 Si13 1.661413 1_555
O38 Ta6 1.953170 1_554
O39 S5 1.465773 1_555
O39 Ta7 2.362065 1_554
O40 S6 1.461457 1_555
O40 Ta6 2.364713 1_554
O41 Si14 1.697790 1_555
O41 Ta7 1.878234 1_554
O42 Si10 1.660960 1_555
O42 Ta8 1.960679 1_555
O43 Si11 1.677016 1_555
O43 Ta9 1.925218 1_555
O44 Si12 1.684554 1_555
O44 Ta8 1.871524 1_555
O45 S4 1.465861 1_555
O45 Ta9 2.351207 1_555
O46 Si8 1.650153 1_555
O46 Ta8 1.957837 1_555
O47 Si9 1.659210 1_555
O47 Ta9 1.952387 1_555
O48 Si17 1.641702 1_555
O48 Ta10 1.884688 1_556
O49 S7 1.462534 1_555
O49 Ta11 2.135624 1_556
O50 Si18 1.654471 1_555
O50 Ta10 1.848113 1_556
O51 Si19 1.610113 1_555
O51 Ta11 1.939214 1_556
O52 Si20 1.626078 1_555
O52 Ta10 1.897996 1_556
O53 Si21 1.612368 1_555
O53 Ta11 1.960566 1_556
O54 S8 1.453806 1_555
O54 Ta12 2.145113 1_555
O55 Si22 1.605847 1_555
O55 Ta13 1.976915 1_555
O56 Si23 1.621193 1_555
O56 Ta12 1.959782 1_555
O57 Si24 1.601408 1_555
O57 Ta13 1.911193 1_555
O58 Si25 1.602591 1_555
O58 Ta12 1.953556 1_555
O59 Si26 1.643452 1_555
O59 Ta13 1.854753 1_555
O60 Si25 1.659777 1_555
O60 Ta14 1.921344 1_555
O61 Si26 1.695146 1_555
O61 Ta15 1.954533 1_555
O62 S8 1.540504 1_555
O62 Ta14 2.087698 1_555
O63 Si22 1.652281 1_555
O63 Ta15 1.925854 1_555
O64 Si23 1.674438 1_555
O64 Ta14 1.911527 1_555
O65 Si24 1.721051 1_555
O65 Ta15 1.879470 1_555
O66 Si18 1.669241 1_555
O66 Ta16 1.988240 1_555
O67 Si19 1.646447 1_555
O67 Ta17 1.935885 1_555
O68 Si20 1.704052 1_555
O68 Ta16 1.892202 1_555
O69 Si21 1.639631 1_555
O69 Ta17 1.942471 1_555
O70 Si17 1.631189 1_555
O70 Ta16 1.947738 1_555
O71 S7 1.510870 1_555
O71 Ta17 2.221683 1_555
O72 Si25 1.660389 1_555
O72 Ta0 1.913339 1_555
O73 Si26 1.591037 1_555
O73 Y0 2.194908 1_565
O74 S8 1.463425 1_555
O74 Y0 2.286796 1_565
O75 Si22 1.629239 1_555
O75 Ta0 1.985203 1_655
O76 Si23 1.645173 1_555
O76 Ta0 1.988321 1_545
O77 Si24 1.585726 1_555
O77 Y0 2.193801 1_555
O78 Si18 1.587242 1_555
O78 Y1 2.227945 1_555
O79 Si19 1.655647 1_555
O79 Ta1 1.928896 1_555
O80 Si20 1.583660 1_555
O80 Y1 2.219488 1_565
O81 Si21 1.627161 1_555
O81 Ta1 2.023910 1_565
O82 Si17 1.615048 1_555
O82 Ta1 2.021317 1_565
O83 S7 1.464692 1_555
O83 Y1 2.312079 1_665
O84 Si8 1.667867 1_555
O84 Ta3 1.891265 1_555
O85 Si9 1.660040 1_555
O85 Ta2 1.980586 1_545
O86 Si10 1.672390 1_555
O86 Ta2 1.972115 1_445
O87 Si11 1.646501 1_555
O87 Ta3 1.982273 1_555
O88 Si12 1.641597 1_555
O88 Ta3 1.963275 1_565
O89 S4 1.531067 1_555
O89 Ta2 2.073250 1_555
O90 Si13 1.659663 1_555
O90 Ta5 1.984866 1_565
O91 S5 1.514348 1_555
O91 Ta4 2.108524 1_555
O92 S6 1.521715 1_555
O92 Ta5 2.102109 1_555
O93 Si14 1.651968 1_555
O93 Ta4 1.977112 1_545
O94 Si15 1.660806 1_555
O94 Ta4 1.980003 1_445
O95 Si16 1.661304 1_555
O95 Ta5 2.000846 1_555
O96 Si6 1.624606 1_545
O96 Y2 2.351929 1_555
O97 Si7 1.599896 1_545
O97 Y3 2.170082 1_555
O98 S2 1.464962 1_555
O98 Y2 2.382046 1_555
O99 Si4 1.606765 1_555
O99 Y3 2.268657 1_555
O100 S3 1.472441 1_555
O100 Y2 2.451617 1_555
O101 Si5 1.604126 1_655
O101 Y3 2.289880 1_555
O102 Si1 1.598841 1_555
O102 Y4 2.148552 1_555
O103 Si2 1.630868 1_555
O103 Y5 2.295696 1_555
O104 Si3 1.603824 1_555
O104 Y4 2.272794 1_555
O105 S1 1.472365 1_655
O105 Y5 2.400905 1_555
O106 Si0 1.604127 1_545
O106 Y4 2.258560 1_555
O107 S0 1.476652 1_545
O107 Y5 2.296736 1_555
O108 Si17 1.648445 1_555
O108 Ta6 1.913718 1_555
O109 S7 1.494070 1_555
O109 Ta7 2.251754 1_555
O110 Si19 1.627030 1_555
O110 Ta6 2.011570 1_555
O111 Si18 1.662568 1_655
O111 Ta7 1.959299 1_555
O112 Si20 1.641110 1_545
O112 Ta6 1.971372 1_555
O113 Si21 1.676931 1_545
O113 Ta7 1.898863 1_555
O114 S8 1.474667 1_545
O114 Ta8 2.362544 1_555
O115 Si22 1.657131 1_545
O115 Ta9 1.917055 1_555
O116 Si23 1.633448 1_555
O116 Ta8 2.033231 1_555
O117 Si24 1.640071 1_555
O117 Ta9 1.981389 1_555
O118 Si26 1.644684 1_555
O118 Ta8 2.014480 1_555
O119 Si25 1.619219 1_655
O119 Ta9 2.037462 1_555
O120 Si15 1.658207 1_555
O120 Ta10 1.948205 1_555
O121 Si16 1.633486 1_555
O121 Ta11 1.966223 1_555
O122 S5 1.489128 1_455
O122 Ta10 2.213351 1_555
O123 Si13 1.654413 1_555
O123 Ta11 1.887749 1_555
O124 S6 1.497327 1_565
O124 Ta10 2.183748 1_555
O125 Si14 1.627411 1_565
O125 Ta11 1.973659 1_555
O126 Si10 1.640259 1_565
O126 Ta12 1.965518 1_555
O127 Si11 1.634436 1_565
O127 Ta13 1.946237 1_555
O128 Si12 1.640637 1_555
O128 Ta12 1.956384 1_555
O129 S4 1.476502 1_555
O129 Ta13 2.237238 1_555
O130 Si9 1.651923 1_455
O130 Ta12 1.889431 1_555
O131 Si8 1.633264 1_555
O131 Ta13 1.959503 1_555
O132 Si0 1.664109 1_555
O132 Ta14 2.004830 1_555
O133 S0 1.490959 1_555
O133 Ta15 2.393655 1_555
O134 Si1 1.679825 1_555
O134 Ta14 2.019413 1_555
O135 Si2 1.662667 1_555
O135 Ta15 2.023658 1_555
O136 S1 1.517913 1_555
O136 Ta14 2.129427 1_555
O137 Si3 1.679714 1_555
O137 Ta15 2.062995 1_555
O138 S2 1.501469 1_555
O138 Ta16 2.335514 1_555
O139 Si4 1.674318 1_555
O139 Ta17 1.959315 1_555
O140 Si5 1.684742 1_555
O140 Ta16 2.029568 1_555
O141 S3 1.546113 1_555
O141 Ta17 2.019459 1_555
O142 Si6 1.677568 1_555
O142 Ta16 1.983482 1_555
O143 Si7 1.683926 1_555
O143 Ta17 1.994354 1_555
