# generated using pymatgen
data_MgCo2(AgO3)2
_symmetry_space_group_name_H-M   'P 1'
_cell_length_a   5.96073642
_cell_length_b   5.95810002
_cell_length_c   5.96318767
_cell_angle_alpha   52.73160852
_cell_angle_beta   52.70643667
_cell_angle_gamma   52.72346824
_symmetry_Int_Tables_number   1
_chemical_formula_structural   MgCo2(AgO3)2
_chemical_formula_sum   'Mg1 Co2 Ag2 O6'
_cell_volume   124.17758945
_cell_formula_units_Z   1
loop_
 _symmetry_equiv_pos_site_id
 _symmetry_equiv_pos_as_xyz
  1  'x, y, z'
loop_
 _atom_site_type_symbol
 _atom_site_label
 _atom_site_symmetry_multiplicity
 _atom_site_fract_x
 _atom_site_fract_y
 _atom_site_fract_z
 _atom_site_occupancy
  Mg  Mg0  1  0.00000000  0.00000000  0.00000000  1
  Co  Co0  1  0.17408400  0.17405700  0.17414900  1
  Co  Co1  1  0.82591600  0.82594300  0.82585100  1
  Ag  Ag0  1  0.36818100  0.36783100  0.36811200  1
  Ag  Ag1  1  0.63181900  0.63216900  0.63188800  1
  O  O0  1  0.03077600  0.83031700  0.41327700  1
  O  O1  1  0.58682100  0.96944100  0.16930900  1
  O  O2  1  0.16964900  0.58692600  0.96883600  1
  O  O3  1  0.83035100  0.41307400  0.03116400  1
  O  O4  1  0.41317900  0.03055900  0.83069100  1
  O  O5  1  0.96922400  0.16968300  0.58672300  1
loop_
_geom_bond_atom_site_label_1
_geom_bond_atom_site_label_2
_geom_bond_distance
_geom_bond_site_symmetry_2
Mg0 O4 2.103683 1_554
Mg0 O1 2.103683 1_445
Mg0 O3 2.103756 1_455
Mg0 O2 2.103756 1_544
Mg0 O0 2.105935 1_545
Mg0 O5 2.105935 1_454
Co0 O1 1.965501 1_545
Co0 O2 1.965653 1_554
Co0 O5 1.965962 1_455
Co0 O0 2.015863 1_545
Co0 O4 2.016048 1_554
Co0 O3 2.016193 1_455
Co1 O4 1.965501 1_565
Co1 O3 1.965653 1_556
Co1 O0 1.965962 1_655
Co1 O5 2.015863 1_565
Co1 O1 2.016048 1_556
Co1 O2 2.016193 1_655
Ag0 O3 2.288034 1_555
Ag0 O0 2.289054 1_555
Ag0 O4 2.291179 1_555
Ag0 O1 2.554728 1_545
Ag0 O5 2.555124 1_455
Ag0 O2 2.559761 1_554
Ag1 O2 2.288034 1_555
Ag1 O5 2.289054 1_555
Ag1 O1 2.291179 1_555
Ag1 O4 2.554728 1_565
Ag1 O0 2.555124 1_655
Ag1 O3 2.559761 1_556
