# generated using pymatgen
data_GdAl3(PbO4)2
_symmetry_space_group_name_H-M   'P 1'
_cell_length_a   9.57834900
_cell_length_b   9.57834900
_cell_length_c   9.57834900
_cell_angle_alpha   90.00000000
_cell_angle_beta   90.00000000
_cell_angle_gamma   90.00000000
_symmetry_Int_Tables_number   1
_chemical_formula_structural   GdAl3(PbO4)2
_chemical_formula_sum   'Gd4 Al12 Pb8 O32'
_cell_volume   878.76342183
_cell_formula_units_Z   4
loop_
 _symmetry_equiv_pos_site_id
 _symmetry_equiv_pos_as_xyz
  1  'x, y, z'
loop_
 _atom_site_type_symbol
 _atom_site_label
 _atom_site_symmetry_multiplicity
 _atom_site_fract_x
 _atom_site_fract_y
 _atom_site_fract_z
 _atom_site_occupancy
  Gd  Gd0  1  0.25000000  0.75000000  0.25000000  1
  Gd  Gd1  1  0.75000000  0.25000000  0.25000000  1
  Gd  Gd2  1  0.75000000  0.75000000  0.75000000  1
  Gd  Gd3  1  0.25000000  0.25000000  0.75000000  1
  Al  Al0  1  0.50000000  0.00000000  0.25000000  1
  Al  Al1  1  0.75000000  0.50000000  0.00000000  1
  Al  Al2  1  0.25000000  0.50000000  0.00000000  1
  Al  Al3  1  0.00000000  0.25000000  0.50000000  1
  Al  Al4  1  0.00000000  0.75000000  0.50000000  1
  Al  Al5  1  0.50000000  0.00000000  0.75000000  1
  Al  Al6  1  0.00000000  0.50000000  0.25000000  1
  Al  Al7  1  0.75000000  0.00000000  0.50000000  1
  Al  Al8  1  0.25000000  0.00000000  0.50000000  1
  Al  Al9  1  0.50000000  0.25000000  0.00000000  1
  Al  Al10  1  0.50000000  0.75000000  0.00000000  1
  Al  Al11  1  0.00000000  0.50000000  0.75000000  1
  Pb  Pb0  1  0.36650400  0.36650400  0.36650400  1
  Pb  Pb1  1  0.86650400  0.13349600  0.86650400  1
  Pb  Pb2  1  0.13349600  0.86650400  0.86650400  1
  Pb  Pb3  1  0.86650400  0.86650400  0.13349600  1
  Pb  Pb4  1  0.36650400  0.63349600  0.63349600  1
  Pb  Pb5  1  0.63349600  0.63349600  0.36650400  1
  Pb  Pb6  1  0.63349600  0.36650400  0.63349600  1
  Pb  Pb7  1  0.13349600  0.13349600  0.13349600  1
  O  O0  1  0.51416100  0.15759000  0.15759000  1
  O  O1  1  0.51416100  0.84241000  0.84241000  1
  O  O2  1  0.15759000  0.15759000  0.51416100  1
  O  O3  1  0.84241000  0.15759000  0.48583900  1
  O  O4  1  0.15759000  0.51416100  0.15759000  1
  O  O5  1  0.84241000  0.48583900  0.15759000  1
  O  O6  1  0.01416100  0.65759000  0.34241000  1
  O  O7  1  0.01416100  0.34241000  0.65759000  1
  O  O8  1  0.98583900  0.65759000  0.65759000  1
  O  O9  1  0.34241000  0.65759000  0.01416100  1
  O  O10  1  0.65759000  0.98583900  0.65759000  1
  O  O11  1  0.65759000  0.01416100  0.34241000  1
  O  O12  1  0.65759000  0.34241000  0.01416100  1
  O  O13  1  0.34241000  0.01416100  0.65759000  1
  O  O14  1  0.65759000  0.65759000  0.98583900  1
  O  O15  1  0.34241000  0.34241000  0.98583900  1
  O  O16  1  0.34241000  0.98583900  0.34241000  1
  O  O17  1  0.84241000  0.51416100  0.84241000  1
  O  O18  1  0.15759000  0.48583900  0.84241000  1
  O  O19  1  0.15759000  0.84241000  0.48583900  1
  O  O20  1  0.84241000  0.84241000  0.51416100  1
  O  O21  1  0.48583900  0.84241000  0.15759000  1
  O  O22  1  0.48583900  0.15759000  0.84241000  1
  O  O23  1  0.98583900  0.34241000  0.34241000  1
  O  O24  1  0.61157900  0.61157900  0.61157900  1
  O  O25  1  0.11157900  0.88842100  0.11157900  1
  O  O26  1  0.11157900  0.11157900  0.88842100  1
  O  O27  1  0.88842100  0.11157900  0.11157900  1
  O  O28  1  0.38842100  0.38842100  0.61157900  1
  O  O29  1  0.61157900  0.38842100  0.38842100  1
  O  O30  1  0.38842100  0.61157900  0.38842100  1
  O  O31  1  0.88842100  0.88842100  0.88842100  1
loop_
_geom_bond_atom_site_label_1
_geom_bond_atom_site_label_2
_geom_bond_distance
_geom_bond_site_symmetry_2
Gd0 O30 2.296430 1_555
Gd0 O25 2.296430 1_555
Gd0 O6 2.582591 1_555
Gd0 O4 2.582591 1_555
Gd0 O21 2.582591 1_555
Gd0 O9 2.582591 1_555
Gd0 O16 2.582591 1_555
Gd0 O19 2.582591 1_555
Gd1 O27 2.296430 1_555
Gd1 O29 2.296430 1_555
Gd1 O11 2.582591 1_555
Gd1 O23 2.582591 1_555
Gd1 O5 2.582591 1_555
Gd1 O12 2.582591 1_555
Gd1 O0 2.582591 1_555
Gd1 O3 2.582591 1_555
Gd2 O24 2.296430 1_555
Gd2 O31 2.296430 1_555
Gd2 O1 2.582591 1_555
Gd2 O17 2.582591 1_555
Gd2 O8 2.582591 1_555
Gd2 O10 2.582591 1_555
Gd2 O14 2.582591 1_555
Gd2 O20 2.582591 1_555
Gd3 O26 2.296430 1_555
Gd3 O28 2.296430 1_555
Gd3 O13 2.582591 1_555
Gd3 O7 2.582591 1_555
Gd3 O18 2.582591 1_555
Gd3 O22 2.582591 1_555
Gd3 O15 2.582591 1_555
Gd3 O2 2.582591 1_555
Al0 O16 1.755081 1_545
Al0 O0 1.755081 1_555
Al0 O21 1.755081 1_545
Al0 O11 1.755081 1_555
Al1 O5 1.755081 1_555
Al1 O12 1.755081 1_555
Al1 O14 1.755081 1_554
Al1 O17 1.755081 1_554
Al2 O18 1.755081 1_554
Al2 O15 1.755081 1_554
Al2 O9 1.755081 1_555
Al2 O4 1.755081 1_555
Al3 O3 1.755081 1_455
Al3 O2 1.755081 1_555
Al3 O23 1.755081 1_455
Al3 O7 1.755081 1_555
Al4 O19 1.755081 1_555
Al4 O8 1.755081 1_455
Al4 O6 1.755081 1_555
Al4 O20 1.755081 1_455
Al5 O13 1.755081 1_555
Al5 O1 1.755081 1_545
Al5 O10 1.755081 1_545
Al5 O22 1.755081 1_555
Al6 O6 1.755081 1_555
Al6 O5 1.755081 1_455
Al6 O4 1.755081 1_555
Al6 O23 1.755081 1_455
Al7 O10 1.755081 1_545
Al7 O3 1.755081 1_555
Al7 O20 1.755081 1_545
Al7 O11 1.755081 1_555
Al8 O16 1.755081 1_545
Al8 O13 1.755081 1_555
Al8 O19 1.755081 1_545
Al8 O2 1.755081 1_555
Al9 O12 1.755081 1_555
Al9 O0 1.755081 1_555
Al9 O15 1.755081 1_554
Al9 O22 1.755081 1_554
Al10 O21 1.755081 1_555
Al10 O1 1.755081 1_554
Al10 O14 1.755081 1_554
Al10 O9 1.755081 1_555
Al11 O7 1.755081 1_555
Al11 O8 1.755081 1_455
Al11 O17 1.755081 1_455
Al11 O18 1.755081 1_555
O24 Pb6 2.366113 1_555
O24 Pb5 2.366113 1_555
O24 Pb4 2.366113 1_555
O25 Pb3 2.366113 1_455
O25 Pb2 2.366113 1_554
O25 Pb7 2.366113 1_565
O26 Pb2 2.366113 1_545
O26 Pb1 2.366113 1_455
O26 Pb7 2.366113 1_556
O27 Pb1 2.366113 1_554
O27 Pb3 2.366113 1_545
O27 Pb7 2.366113 1_655
O28 Pb6 2.366113 1_555
O28 Pb4 2.366113 1_555
O28 Pb0 2.366113 1_555
O29 Pb5 2.366113 1_555
O29 Pb6 2.366113 1_555
O29 Pb0 2.366113 1_555
O30 Pb5 2.366113 1_555
O30 Pb4 2.366113 1_555
O30 Pb0 2.366113 1_555
O31 Pb2 2.366113 1_655
O31 Pb1 2.366113 1_565
O31 Pb3 2.366113 1_556
