# generated using pymatgen
data_Co2P3O10
_symmetry_space_group_name_H-M   'P 1'
_cell_length_a   8.25391861
_cell_length_b   4.66912684
_cell_length_c   8.84327047
_cell_angle_alpha   81.56346272
_cell_angle_beta   90.00000000
_cell_angle_gamma   90.00000000
_symmetry_Int_Tables_number   1
_chemical_formula_structural   Co2P3O10
_chemical_formula_sum   'Co4 P6 O20'
_cell_volume   337.11931758
_cell_formula_units_Z   2
loop_
 _symmetry_equiv_pos_site_id
 _symmetry_equiv_pos_as_xyz
  1  'x, y, z'
loop_
 _atom_site_type_symbol
 _atom_site_label
 _atom_site_symmetry_multiplicity
 _atom_site_fract_x
 _atom_site_fract_y
 _atom_site_fract_z
 _atom_site_occupancy
  Co  Co0  1  0.92587025  0.95239633  0.33158734  1
  Co  Co1  1  0.07412975  0.04760367  0.66841266  1
  Co  Co2  1  0.57412975  0.95239633  0.33158734  1
  Co  Co3  1  0.42587025  0.04760367  0.66841266  1
  P  P0  1  0.25000000  0.33058246  0.18802574  1
  P  P1  1  0.75000000  0.53101875  0.14970756  1
  P  P2  1  0.75000000  0.66941754  0.81197426  1
  P  P3  1  0.75000000  0.39011218  0.54024652  1
  P  P4  1  0.25000000  0.60988782  0.45975348  1
  P  P5  1  0.25000000  0.46898125  0.85029244  1
  O  O0  1  0.75000000  0.40636303  0.71658392  1
  O  O1  1  0.59570818  0.22866746  0.50939053  1
  O  O2  1  0.40429182  0.77133254  0.49060947  1
  O  O3  1  0.40407145  0.31428779  0.81791865  1
  O  O4  1  0.25000000  0.29684337  0.54294119  1
  O  O5  1  0.75000000  0.48590762  0.97565560  1
  O  O6  1  0.75000000  0.21647436  0.23318315  1
  O  O7  1  0.59592855  0.68571221  0.18208135  1
  O  O8  1  0.90350329  0.83336756  0.78496205  1
  O  O9  1  0.75000000  0.70315663  0.45705881  1
  O  O10  1  0.40350329  0.16663244  0.21503795  1
  O  O11  1  0.25000000  0.51409238  0.02434440  1
  O  O12  1  0.09570818  0.77133254  0.49060947  1
  O  O13  1  0.25000000  0.59363697  0.28341608  1
  O  O14  1  0.90429182  0.22866746  0.50939053  1
  O  O15  1  0.59649671  0.83336756  0.78496205  1
  O  O16  1  0.25000000  0.78352564  0.76681685  1
  O  O17  1  0.09592855  0.31428779  0.81791865  1
  O  O18  1  0.90407145  0.68571221  0.18208135  1
  O  O19  1  0.09649671  0.16663244  0.21503795  1
loop_
_geom_bond_atom_site_label_1
_geom_bond_atom_site_label_2
_geom_bond_distance
_geom_bond_site_symmetry_2
Co0 O19 1.934886 1_665
Co0 O18 1.952927 1_555
Co0 O6 2.017412 1_565
Co0 O12 2.075717 1_655
Co0 O9 2.076955 1_555
Co0 O14 2.182464 1_565
Co1 O8 1.934886 1_445
Co1 O17 1.952927 1_555
Co1 O16 2.017412 1_545
Co1 O14 2.075717 1_455
Co1 O4 2.076955 1_555
Co1 O12 2.182464 1_545
Co2 O10 1.934886 1_565
Co2 O7 1.952927 1_555
Co2 O6 2.017412 1_565
Co2 O2 2.075717 1_555
Co2 O9 2.076955 1_555
Co2 O1 2.182464 1_565
Co3 O15 1.934886 1_545
Co3 O3 1.952927 1_555
Co3 O16 2.017412 1_545
Co3 O1 2.075717 1_555
Co3 O4 2.076955 1_555
Co3 O2 2.182464 1_545
O0 P3 1.572324 1_555
O0 P2 1.588766 1_555
O1 P3 1.524752 1_555
O2 P4 1.524752 1_555
O3 P5 1.510475 1_555
O4 P4 1.536905 1_555
O5 P2 1.570169 1_555
O5 P1 1.583855 1_556
O6 P1 1.543937 1_555
O7 P1 1.510475 1_555
O8 P2 1.481452 1_555
O9 P3 1.536905 1_555
O10 P0 1.481452 1_555
O11 P0 1.570169 1_555
O11 P5 1.583855 1_554
O12 P4 1.524752 1_555
O13 P4 1.572324 1_555
O13 P0 1.588766 1_555
O14 P3 1.524752 1_555
O15 P2 1.481452 1_555
O16 P5 1.543937 1_555
O17 P5 1.510475 1_555
O18 P1 1.510475 1_555
O19 P0 1.481452 1_555
