# generated using pymatgen
data_MgNb4(O2F)4
_symmetry_space_group_name_H-M   'P 1'
_cell_length_a   5.60116071
_cell_length_b   10.73582652
_cell_length_c   9.23388696
_cell_angle_alpha   30.67215656
_cell_angle_beta   56.27112708
_cell_angle_gamma   61.47238002
_symmetry_Int_Tables_number   1
_chemical_formula_structural   MgNb4(O2F)4
_chemical_formula_sum   'Mg1 Nb4 O8 F4'
_cell_volume   235.57436293
_cell_formula_units_Z   1
loop_
 _symmetry_equiv_pos_site_id
 _symmetry_equiv_pos_as_xyz
  1  'x, y, z'
loop_
 _atom_site_type_symbol
 _atom_site_label
 _atom_site_symmetry_multiplicity
 _atom_site_fract_x
 _atom_site_fract_y
 _atom_site_fract_z
 _atom_site_occupancy
  Mg  Mg0  1  0.25000000  0.52385800  0.22614200  1
  Nb  Nb0  1  0.00033700  0.00903700  0.99262700  1
  Nb  Nb1  1  0.99521300  0.50602500  0.98823100  1
  Nb  Nb2  1  0.49966300  0.00903700  0.48930000  1
  Nb  Nb3  1  0.50478700  0.50602500  0.49971800  1
  O  O0  1  0.27552300  0.31832700  0.24275500  1
  O  O1  1  0.75000000  0.06235400  0.18764600  1
  O  O2  1  0.22447700  0.31832700  0.62059100  1
  O  O3  1  0.75000000  0.55471800  0.19528200  1
  O  O4  1  0.25000000  0.41303100  0.83696900  1
  O  O5  1  0.77169700  0.69857800  0.32476300  1
  O  O6  1  0.25000000  0.88742500  0.86257500  1
  O  O7  1  0.72830300  0.69857800  0.77808200  1
  F  F0  1  0.77227200  0.18134400  0.36918900  1
  F  F1  1  0.26597900  0.81599600  0.23246900  1
  F  F2  1  0.72772800  0.18134400  0.76812300  1
  F  F3  1  0.23402000  0.81599600  0.63553900  1
loop_
_geom_bond_atom_site_label_1
_geom_bond_atom_site_label_2
_geom_bond_distance
_geom_bond_site_symmetry_2
Mg0 O6 1.991116 1_554
Mg0 O2 2.013354 1_555
Mg0 O0 2.013354 1_555
Nb0 O1 1.933643 1_456
Nb0 O2 1.993292 1_555
Nb0 O6 2.047071 1_545
Nb0 O5 2.070351 1_446
Nb1 O7 1.908730 1_555
Nb1 O4 1.951534 1_655
Nb1 O3 1.983006 1_556
Nb1 O0 2.231244 1_656
Nb2 O1 1.933650 1_555
Nb2 O0 1.993292 1_555
Nb2 O6 2.047063 1_545
Nb2 O7 2.070351 1_545
Nb3 O5 1.908739 1_555
Nb3 O4 1.951541 1_555
Nb3 O3 1.982999 1_555
Nb3 O2 2.231238 1_555
F0 Nb1 2.066533 1_554
F0 Nb2 2.066778 1_555
F1 Nb0 2.057276 1_564
F1 Nb3 2.059278 1_555
F2 Nb3 2.066534 1_555
F2 Nb0 2.066784 1_655
F3 Nb2 2.057286 1_565
F3 Nb1 2.059276 1_455
