# generated using pymatgen
data_Cs3HgCl5
_symmetry_space_group_name_H-M   'P 1'
_cell_length_a   8.91171266
_cell_length_b   10.88869760
_cell_length_c   13.61191821
_cell_angle_alpha   90.00000000
_cell_angle_beta   90.00000000
_cell_angle_gamma   90.00000000
_symmetry_Int_Tables_number   1
_chemical_formula_structural   Cs3HgCl5
_chemical_formula_sum   'Cs12 Hg4 Cl20'
_cell_volume   1320.85894852
_cell_formula_units_Z   4
loop_
 _symmetry_equiv_pos_site_id
 _symmetry_equiv_pos_as_xyz
  1  'x, y, z'
loop_
 _atom_site_type_symbol
 _atom_site_label
 _atom_site_symmetry_multiplicity
 _atom_site_fract_x
 _atom_site_fract_y
 _atom_site_fract_z
 _atom_site_occupancy
  Cs  Cs0  1  0.58755045  0.02218369  0.83385837  1
  Cs  Cs1  1  0.08755045  0.47781631  0.66614163  1
  Cs  Cs2  1  0.41244955  0.52218369  0.16614163  1
  Cs  Cs3  1  0.91244955  0.97781631  0.33385837  1
  Cs  Cs4  1  0.41244955  0.97781631  0.16614163  1
  Cs  Cs5  1  0.91244955  0.52218369  0.33385837  1
  Cs  Cs6  1  0.58755045  0.47781631  0.83385837  1
  Cs  Cs7  1  0.08755045  0.02218369  0.66614163  1
  Cs  Cs8  1  0.41158672  0.75000000  0.45104836  1
  Cs  Cs9  1  0.91158672  0.75000000  0.04895164  1
  Cs  Cs10  1  0.58841328  0.25000000  0.54895164  1
  Cs  Cs11  1  0.08841328  0.25000000  0.95104836  1
  Hg  Hg0  1  0.29213559  0.75000000  0.88343173  1
  Hg  Hg1  1  0.79213559  0.75000000  0.61656827  1
  Hg  Hg2  1  0.70786441  0.25000000  0.11656827  1
  Hg  Hg3  1  0.20786441  0.25000000  0.38343173  1
  Cl  Cl0  1  0.16463221  0.75000000  0.23858852  1
  Cl  Cl1  1  0.66463221  0.75000000  0.26141148  1
  Cl  Cl2  1  0.83536779  0.25000000  0.76141148  1
  Cl  Cl3  1  0.33536779  0.25000000  0.73858852  1
  Cl  Cl4  1  0.81234729  0.45218821  0.06861211  1
  Cl  Cl5  1  0.31234729  0.04781179  0.43138789  1
  Cl  Cl6  1  0.18765271  0.95218821  0.93138789  1
  Cl  Cl7  1  0.68765271  0.54781179  0.56861211  1
  Cl  Cl8  1  0.18765271  0.54781179  0.93138789  1
  Cl  Cl9  1  0.68765271  0.95218821  0.56861211  1
  Cl  Cl10  1  0.81234729  0.04781179  0.06861211  1
  Cl  Cl11  1  0.31234729  0.45218821  0.43138789  1
  Cl  Cl12  1  0.37826831  0.75000000  0.70818457  1
  Cl  Cl13  1  0.87826831  0.75000000  0.79181543  1
  Cl  Cl14  1  0.62173169  0.25000000  0.29181543  1
  Cl  Cl15  1  0.12173169  0.25000000  0.20818457  1
  Cl  Cl16  1  0.96498568  0.25000000  0.48803737  1
  Cl  Cl17  1  0.46498568  0.25000000  0.01196263  1
  Cl  Cl18  1  0.03501432  0.75000000  0.51196263  1
  Cl  Cl19  1  0.53501432  0.75000000  0.98803737  1
loop_
_geom_bond_atom_site_label_1
_geom_bond_atom_site_label_2
_geom_bond_distance
_geom_bond_site_symmetry_2
Cl0 Cs9 3.427617 1_455
Cl0 Cs4 3.464583 1_555
Cl0 Cs2 3.464583 1_555
Cl0 Cs3 3.589695 1_455
Cl0 Cs5 3.589695 1_455
Cl0 Cs8 3.634150 1_555
Cl1 Cs8 3.427617 1_555
Cl1 Cs5 3.464583 1_555
Cl1 Cs3 3.464583 1_555
Cl1 Cs4 3.589695 1_555
Cl1 Cs2 3.589695 1_555
Cl1 Cs9 3.634150 1_555
Cl2 Cs11 3.427617 1_655
Cl2 Cs0 3.464583 1_555
Cl2 Cs6 3.464583 1_555
Cl2 Cs1 3.589695 1_655
Cl2 Cs7 3.589695 1_655
Cl2 Cs10 3.634150 1_555
Cl3 Cs10 3.427617 1_555
Cl3 Cs7 3.464583 1_555
Cl3 Cs1 3.464583 1_555
Cl3 Cs0 3.589695 1_555
Cl3 Cs6 3.589695 1_555
Cl3 Cs11 3.634150 1_555
Cl4 Hg2 2.477902 1_555
Cl4 Cs9 3.371855 1_555
Cl4 Cs11 3.668847 1_654
Cl4 Cs6 3.781808 1_554
Cl4 Cs5 3.796378 1_555
Cl4 Cs2 3.878633 1_555
Cl5 Hg3 2.477902 1_555
Cl5 Cs8 3.371855 1_545
Cl5 Cs10 3.668847 1_555
Cl5 Cs7 3.781808 1_555
Cl5 Cs4 3.796378 1_545
Cl5 Cs3 3.878633 1_445
Cl6 Hg0 2.477902 1_555
Cl6 Cs11 3.371855 1_565
Cl6 Cs9 3.668847 1_456
Cl6 Cs4 3.781808 1_556
Cl6 Cs7 3.796378 1_565
Cl6 Cs0 3.878633 1_565
Cl7 Hg1 2.477902 1_555
Cl7 Cs10 3.371855 1_555
Cl7 Cs8 3.668847 1_555
Cl7 Cs5 3.781808 1_555
Cl7 Cs6 3.796378 1_555
Cl7 Cs1 3.878633 1_655
Cl8 Hg0 2.477902 1_555
Cl8 Cs11 3.371855 1_555
Cl8 Cs9 3.668847 1_456
Cl8 Cs2 3.781808 1_556
Cl8 Cs1 3.796378 1_555
Cl8 Cs6 3.878633 1_555
Cl9 Hg1 2.477902 1_555
Cl9 Cs10 3.371855 1_565
Cl9 Cs8 3.668847 1_555
Cl9 Cs3 3.781808 1_555
Cl9 Cs0 3.796378 1_565
Cl9 Cs7 3.878633 1_665
Cl10 Hg2 2.477902 1_555
Cl10 Cs9 3.371855 1_545
Cl10 Cs11 3.668847 1_654
Cl10 Cs0 3.781808 1_554
Cl10 Cs3 3.796378 1_545
Cl10 Cs4 3.878633 1_545
Cl11 Hg3 2.477902 1_555
Cl11 Cs8 3.371855 1_555
Cl11 Cs10 3.668847 1_555
Cl11 Cs1 3.781808 1_555
Cl11 Cs2 3.796378 1_555
Cl11 Cs5 3.878633 1_455
Cl12 Hg0 2.505906 1_555
Cl12 Cs8 3.512689 1_555
Cl12 Cs6 3.897241 1_555
Cl12 Cs0 3.897241 1_565
Cl12 Cs1 3.977863 1_555
Cl12 Cs7 3.977863 1_565
Cl13 Hg1 2.505906 1_555
Cl13 Cs9 3.512689 1_556
Cl13 Cs1 3.897241 1_655
Cl13 Cs7 3.897241 1_665
Cl13 Cs6 3.977863 1_555
Cl13 Cs0 3.977863 1_565
Cl14 Hg2 2.505906 1_555
Cl14 Cs10 3.512689 1_555
Cl14 Cs2 3.897241 1_555
Cl14 Cs4 3.897241 1_545
Cl14 Cs5 3.977863 1_555
Cl14 Cs3 3.977863 1_545
Cl15 Hg3 2.505906 1_555
Cl15 Cs11 3.512689 1_554
Cl15 Cs3 3.897241 1_445
Cl15 Cs5 3.897241 1_455
Cl15 Cs4 3.977863 1_545
Cl15 Cs2 3.977863 1_555
Cl16 Hg3 2.590821 1_655
Cl16 Cs10 3.456820 1_555
Cl16 Cs7 3.636475 1_655
Cl16 Cs1 3.636475 1_655
Cl16 Cs5 3.661597 1_555
Cl16 Cs3 3.661597 1_545
Cl17 Hg2 2.590821 1_555
Cl17 Cs11 3.456820 1_554
Cl17 Cs0 3.636475 1_554
Cl17 Cs6 3.636475 1_554
Cl17 Cs4 3.661597 1_545
Cl17 Cs2 3.661597 1_555
Cl18 Hg1 2.590821 1_455
Cl18 Cs8 3.456820 1_555
Cl18 Cs5 3.636475 1_455
Cl18 Cs3 3.636475 1_455
Cl18 Cs1 3.661597 1_555
Cl18 Cs7 3.661597 1_565
Cl19 Hg0 2.590821 1_555
Cl19 Cs9 3.456820 1_556
Cl19 Cs2 3.636475 1_556
Cl19 Cs4 3.636475 1_556
Cl19 Cs6 3.661597 1_555
Cl19 Cs0 3.661597 1_565
