# generated using pymatgen
data_Ca2SiO4
_symmetry_space_group_name_H-M   'P 1'
_cell_length_a   5.40065854
_cell_length_b   7.05805136
_cell_length_c   9.83234482
_cell_angle_alpha   89.95163259
_cell_angle_beta   90.00000000
_cell_angle_gamma   90.00000000
_symmetry_Int_Tables_number   1
_chemical_formula_structural   Ca2SiO4
_chemical_formula_sum   'Ca8 Si4 O16'
_cell_volume   374.79041882
_cell_formula_units_Z   4
loop_
 _symmetry_equiv_pos_site_id
 _symmetry_equiv_pos_as_xyz
  1  'x, y, z'
loop_
 _atom_site_type_symbol
 _atom_site_label
 _atom_site_symmetry_multiplicity
 _atom_site_fract_x
 _atom_site_fract_y
 _atom_site_fract_z
 _atom_site_occupancy
  Ca  Ca0  1  0.99041047  0.75066703  0.15442182  1
  Ca  Ca1  1  0.00958953  0.24933297  0.84557818  1
  Ca  Ca2  1  0.00000000  0.50000000  0.50000000  1
  Ca  Ca3  1  0.00000000  -0.00000000  0.50000000  1
  Ca  Ca4  1  0.49041047  0.24933297  0.34557818  1
  Ca  Ca5  1  0.50958953  0.75066703  0.65442182  1
  Ca  Ca6  1  0.50000000  0.50000000  0.00000000  1
  Ca  Ca7  1  0.50000000  -0.00000000  0.00000000  1
  Si  Si0  1  0.99015641  0.25052404  0.17857332  1
  Si  Si1  1  0.00984359  0.74947596  0.82142668  1
  Si  Si2  1  0.50984359  0.25052404  0.67857332  1
  Si  Si3  1  0.49015641  0.74947596  0.32142668  1
  O  O0  1  0.94666767  0.24990353  0.34664158  1
  O  O1  1  0.05333233  0.75009647  0.65335842  1
  O  O2  1  0.14525330  0.55917611  0.88130116  1
  O  O3  1  0.14569851  0.93922448  0.88181428  1
  O  O4  1  0.28791479  0.24997337  0.13490707  1
  O  O5  1  0.35430149  0.93922448  0.38181428  1
  O  O6  1  0.21208521  0.24997337  0.63490707  1
  O  O7  1  0.35474670  0.55917611  0.38130116  1
  O  O8  1  0.44666767  0.75009647  0.15335842  1
  O  O9  1  0.55333233  0.24990353  0.84664158  1
  O  O10  1  0.64525330  0.44082389  0.61869884  1
  O  O11  1  0.78791479  0.75002663  0.36509293  1
  O  O12  1  0.64569851  0.06077552  0.61818572  1
  O  O13  1  0.71208521  0.75002663  0.86509293  1
  O  O14  1  0.85430149  0.06077552  0.11818572  1
  O  O15  1  0.85474670  0.44082389  0.11869884  1
loop_
_geom_bond_atom_site_label_1
_geom_bond_atom_site_label_2
_geom_bond_distance
_geom_bond_site_symmetry_2
Ca0 O15 2.333230 1_555
Ca0 O14 2.335945 1_565
Ca0 O11 2.342360 1_555
Ca0 O8 2.464115 1_655
Ca1 O2 2.333230 1_555
Ca1 O3 2.335945 1_545
Ca1 O6 2.342360 1_555
Ca1 O9 2.464115 1_455
Ca2 O7 2.281723 1_555
Ca2 O10 2.281723 1_455
Ca2 O1 2.340309 1_555
Ca2 O0 2.340309 1_455
Ca2 O11 2.486289 1_455
Ca2 O6 2.486289 1_555
Ca3 O5 2.279588 1_545
Ca3 O12 2.279588 1_455
Ca3 O1 2.337361 1_545
Ca3 O0 2.337361 1_455
Ca3 O6 2.487612 1_555
Ca3 O11 2.487612 1_445
Ca4 O7 2.333230 1_555
Ca4 O5 2.335945 1_545
Ca4 O4 2.342360 1_555
Ca4 O0 2.464115 1_555
Ca5 O10 2.333230 1_555
Ca5 O12 2.335945 1_565
Ca5 O13 2.342360 1_555
Ca5 O1 2.464115 1_555
Ca6 O15 2.281723 1_555
Ca6 O2 2.281723 1_554
Ca6 O9 2.340309 1_554
Ca6 O8 2.340309 1_555
Ca6 O4 2.486289 1_555
Ca6 O13 2.486289 1_554
Ca7 O3 2.279588 1_544
Ca7 O14 2.279588 1_555
Ca7 O8 2.337361 1_545
Ca7 O9 2.337361 1_554
Ca7 O4 2.487612 1_555
Ca7 O13 2.487612 1_544
O0 Si0 1.669114 1_555
O1 Si1 1.669114 1_555
O2 Si1 1.638317 1_555
O3 Si1 1.638845 1_555
O4 Si0 1.664425 1_455
O5 Si3 1.638845 1_555
O6 Si2 1.664425 1_555
O7 Si3 1.638317 1_555
O8 Si3 1.669114 1_555
O9 Si2 1.669114 1_555
O10 Si2 1.638317 1_555
O11 Si3 1.664425 1_555
O12 Si2 1.638845 1_555
O13 Si1 1.664425 1_655
O14 Si0 1.638845 1_555
O15 Si0 1.638317 1_555
