# generated using pymatgen
data_Na3TiNb(SiO4)3
_symmetry_space_group_name_H-M   'P 1'
_cell_length_a   15.76384013
_cell_length_b   8.99758545
_cell_length_c   9.00616005
_cell_angle_alpha   90.00000000
_cell_angle_beta   125.31605281
_cell_angle_gamma   90.00000000
_symmetry_Int_Tables_number   1
_chemical_formula_structural   Na3TiNb(SiO4)3
_chemical_formula_sum   'Na12 Ti4 Nb4 Si12 O48'
_cell_volume   1042.32910537
_cell_formula_units_Z   4
loop_
 _symmetry_equiv_pos_site_id
 _symmetry_equiv_pos_as_xyz
  1  'x, y, z'
loop_
 _atom_site_type_symbol
 _atom_site_label
 _atom_site_symmetry_multiplicity
 _atom_site_fract_x
 _atom_site_fract_y
 _atom_site_fract_z
 _atom_site_occupancy
  Na  Na0  1  0.24994468  0.73039509  0.99163817  1
  Na  Na1  1  0.74994468  0.76960491  0.49163817  1
  Na  Na2  1  0.74994468  0.23039509  0.99163817  1
  Na  Na3  1  0.24994468  0.26960491  0.49163817  1
  Na  Na4  1  0.49769110  0.10939184  0.74360096  1
  Na  Na5  1  0.49769110  0.89060816  0.24360096  1
  Na  Na6  1  0.99769110  0.60939184  0.74360096  1
  Na  Na7  1  0.99769110  0.39060816  0.24360096  1
  Na  Na8  1  0.18928450  0.93983355  0.28798092  1
  Na  Na9  1  0.18928450  0.06016645  0.78798092  1
  Na  Na10  1  0.68928450  0.43983355  0.28798092  1
  Na  Na11  1  0.68928450  0.56016645  0.78798092  1
  Ti  Ti0  1  0.10516706  0.74944270  0.56374152  1
  Ti  Ti1  1  0.10516706  0.25055730  0.06374152  1
  Ti  Ti2  1  0.60516706  0.24944270  0.56374152  1
  Ti  Ti3  1  0.60516706  0.75055730  0.06374152  1
  Nb  Nb0  1  0.89323424  0.75365482  0.93184396  1
  Nb  Nb1  1  0.89323424  0.24634518  0.43184396  1
  Nb  Nb2  1  0.39323424  0.25365482  0.93184396  1
  Nb  Nb3  1  0.39323424  0.74634518  0.43184396  1
  Si  Si0  1  0.00142715  0.95815470  0.75663961  1
  Si  Si1  1  0.00142715  0.04184530  0.25663961  1
  Si  Si2  1  0.50142715  0.45815470  0.75663961  1
  Si  Si3  1  0.50142715  0.54184530  0.25663961  1
  Si  Si4  1  0.35408326  0.88586670  0.75789271  1
  Si  Si5  1  0.64416504  0.89632368  0.74890604  1
  Si  Si6  1  0.64416504  0.10367632  0.24890604  1
  Si  Si7  1  0.35408326  0.11413330  0.25789271  1
  Si  Si8  1  0.85408326  0.38586670  0.75789271  1
  Si  Si9  1  0.14416504  0.39632368  0.74890604  1
  Si  Si10  1  0.14416504  0.60367632  0.24890604  1
  Si  Si11  1  0.85408326  0.61413330  0.25789271  1
  O  O0  1  0.14678475  0.57583573  0.74144138  1
  O  O1  1  0.84886133  0.57050798  0.76349889  1
  O  O2  1  0.84886133  0.42949202  0.26349889  1
  O  O3  1  0.14678475  0.42416427  0.24144138  1
  O  O4  1  0.64678475  0.07583573  0.74144138  1
  O  O5  1  0.34886133  0.07050798  0.76349889  1
  O  O6  1  0.34886133  0.92949202  0.26349889  1
  O  O7  1  0.64678475  0.92416427  0.24144138  1
  O  O8  1  0.43469843  0.57080033  0.57849605  1
  O  O9  1  0.57023515  0.56364006  0.93656694  1
  O  O10  1  0.57023515  0.43635994  0.43656694  1
  O  O11  1  0.43469843  0.42919967  0.07849605  1
  O  O12  1  0.93469843  0.07080033  0.57849605  1
  O  O13  1  0.07023515  0.06364006  0.93656694  1
  O  O14  1  0.07023515  0.93635994  0.43656694  1
  O  O15  1  0.93469843  0.92919967  0.07849605  1
  O  O16  1  0.25321370  0.82257180  0.74432504  1
  O  O17  1  0.73971538  0.81192864  0.75837609  1
  O  O18  1  0.73971538  0.18807136  0.25837609  1
  O  O19  1  0.25321370  0.17742820  0.24432504  1
  O  O20  1  0.75321370  0.32257180  0.74432504  1
  O  O21  1  0.23971538  0.31192864  0.75837609  1
  O  O22  1  0.23971538  0.68807136  0.25837609  1
  O  O23  1  0.75321370  0.67742820  0.24432504  1
  O  O24  1  0.35330052  0.85669506  0.57498889  1
  O  O25  1  0.63946442  0.84679707  0.91979944  1
  O  O26  1  0.63946442  0.15320293  0.41979944  1
  O  O27  1  0.35330052  0.14330494  0.07498889  1
  O  O28  1  0.85330052  0.35669506  0.57498889  1
  O  O29  1  0.13946442  0.34679707  0.91979944  1
  O  O30  1  0.13946442  0.65320293  0.41979944  1
  O  O31  1  0.85330052  0.64330494  0.07498889  1
  O  O32  1  0.46397582  0.82592230  0.93733570  1
  O  O33  1  0.53602871  0.82955560  0.56394711  1
  O  O34  1  0.53602871  0.17044440  0.06394711  1
  O  O35  1  0.46397582  0.17407770  0.43733570  1
  O  O36  1  0.96397582  0.32592230  0.93733570  1
  O  O37  1  0.03602871  0.32955560  0.56394711  1
  O  O38  1  0.03602871  0.67044440  0.06394711  1
  O  O39  1  0.96397582  0.67407770  0.43733570  1
  O  O40  1  0.08241426  0.85524349  0.74512093  1
  O  O41  1  0.91631050  0.85006190  0.75385964  1
  O  O42  1  0.91631050  0.14993810  0.25385964  1
  O  O43  1  0.08241426  0.14475651  0.24512093  1
  O  O44  1  0.58241426  0.35524349  0.74512093  1
  O  O45  1  0.41631050  0.35006190  0.75385964  1
  O  O46  1  0.41631050  0.64993810  0.25385964  1
  O  O47  1  0.58241426  0.64475651  0.24512093  1
loop_
_geom_bond_atom_site_label_1
_geom_bond_atom_site_label_2
_geom_bond_distance
_geom_bond_site_symmetry_2
Na0 O0 2.327933 1_555
Na0 O16 2.405049 1_555
Na0 O46 2.412131 1_556
Na0 O40 2.527158 1_555
Na0 O22 2.527818 1_556
Na0 O6 2.687230 1_556
Na1 O7 2.327933 1_555
Na1 O23 2.405049 1_555
Na1 O41 2.412131 1_555
Na1 O47 2.527158 1_555
Na1 O17 2.527818 1_555
Na1 O1 2.687230 1_555
Na2 O4 2.327933 1_555
Na2 O20 2.405049 1_555
Na2 O42 2.412131 1_556
Na2 O44 2.527158 1_555
Na2 O18 2.527818 1_556
Na2 O2 2.687230 1_556
Na3 O3 2.327933 1_555
Na3 O19 2.405049 1_555
Na3 O45 2.412131 1_555
Na3 O43 2.527158 1_555
Na3 O21 2.527818 1_555
Na3 O5 2.687230 1_555
Na4 O4 2.380807 1_555
Na4 O5 2.478897 1_555
Na4 O45 2.545683 1_555
Na4 O35 2.556242 1_555
Na4 O44 2.579929 1_555
Na4 O34 2.640991 1_556
Na5 O7 2.380807 1_555
Na5 O6 2.478897 1_555
Na5 O46 2.545683 1_555
Na5 O32 2.556242 1_554
Na5 O47 2.579929 1_555
Na5 O33 2.640991 1_555
Na6 O0 2.380807 1_655
Na6 O1 2.478897 1_555
Na6 O41 2.545683 1_555
Na6 O39 2.556242 1_555
Na6 O40 2.579929 1_655
Na6 O38 2.640991 1_656
Na7 O3 2.380807 1_655
Na7 O2 2.478897 1_555
Na7 O42 2.545683 1_555
Na7 O36 2.556242 1_554
Na7 O43 2.579929 1_655
Na7 O37 2.640991 1_655
Na8 O43 2.373806 1_565
Na8 O22 2.465669 1_555
Na8 O19 2.489656 1_565
Na8 O24 2.489781 1_555
Na8 O6 2.650755 1_555
Na8 O13 2.812880 1_564
Na8 O14 2.866564 1_555
Na9 O40 2.373806 1_545
Na9 O21 2.465669 1_555
Na9 O16 2.489656 1_545
Na9 O27 2.489781 1_556
Na9 O5 2.650755 1_555
Na9 O14 2.812880 1_545
Na9 O13 2.866564 1_555
Na10 O47 2.373806 1_555
Na10 O18 2.465669 1_555
Na10 O23 2.489656 1_555
Na10 O28 2.489781 1_555
Na10 O2 2.650755 1_555
Na10 O9 2.812880 1_554
Na10 O10 2.866564 1_555
Na11 O44 2.373806 1_555
Na11 O17 2.465669 1_555
Na11 O20 2.489656 1_555
Na11 O31 2.489781 1_556
Na11 O1 2.650755 1_555
Na11 O10 2.812880 1_555
Na11 O9 2.866564 1_555
Nb0 O15 1.915283 1_556
Nb0 O38 1.986615 1_656
Nb0 O31 1.995594 1_556
Nb0 O41 2.031847 1_555
Nb0 O17 2.049638 1_555
Nb0 O1 2.068171 1_555
Nb1 O12 1.915283 1_555
Nb1 O37 1.986615 1_655
Nb1 O28 1.995594 1_555
Nb1 O42 2.031847 1_555
Nb1 O18 2.049638 1_555
Nb1 O2 2.068171 1_555
Nb2 O11 1.915283 1_556
Nb2 O34 1.986615 1_556
Nb2 O27 1.995594 1_556
Nb2 O45 2.031847 1_555
Nb2 O21 2.049638 1_555
Nb2 O5 2.068171 1_555
Nb3 O8 1.915283 1_555
Nb3 O33 1.986615 1_555
Nb3 O24 1.995594 1_555
Nb3 O46 2.031847 1_555
Nb3 O22 2.049638 1_555
Nb3 O6 2.068171 1_555
O0 Si9 1.618093 1_555
O0 Ti0 2.053711 1_555
O1 Si8 1.665573 1_555
O2 Si11 1.665573 1_555
O3 Si10 1.618093 1_555
O3 Ti1 2.053711 1_555
O4 Si5 1.618093 1_545
O4 Ti2 2.053711 1_555
O5 Si4 1.665573 1_545
O6 Si7 1.665573 1_565
O7 Si6 1.618093 1_565
O7 Ti3 2.053711 1_555
O8 Si2 1.660300 1_555
O9 Si2 1.634333 1_555
O9 Ti3 1.927259 1_556
O10 Si3 1.634333 1_555
O10 Ti2 1.927259 1_555
O11 Si3 1.660300 1_555
O12 Si0 1.660300 1_645
O13 Si0 1.634333 1_545
O13 Ti1 1.927259 1_556
O14 Si1 1.634333 1_565
O14 Ti0 1.927259 1_555
O15 Si1 1.660300 1_665
O16 Si4 1.625735 1_555
O16 Ti0 2.033766 1_555
O17 Si5 1.644421 1_555
O18 Si6 1.644421 1_555
O19 Si7 1.625735 1_555
O19 Ti1 2.033766 1_555
O20 Si8 1.625735 1_555
O20 Ti2 2.033766 1_555
O21 Si9 1.644421 1_555
O22 Si10 1.644421 1_555
O23 Si11 1.625735 1_555
O23 Ti3 2.033766 1_555
O24 Si4 1.661028 1_555
O25 Si5 1.644607 1_555
O25 Ti3 1.879641 1_556
O26 Si6 1.644607 1_555
O26 Ti2 1.879641 1_555
O27 Si7 1.661028 1_555
O28 Si8 1.661028 1_555
O29 Si9 1.644607 1_555
O29 Ti1 1.879641 1_556
O30 Si10 1.644607 1_555
O30 Ti0 1.879641 1_555
O31 Si11 1.661028 1_555
O32 Si4 1.633033 1_555
O32 Ti3 1.944254 1_556
O33 Si5 1.660873 1_555
O34 Si6 1.660873 1_555
O35 Si7 1.633033 1_555
O35 Ti2 1.944254 1_555
O36 Si8 1.633033 1_555
O36 Ti1 1.944254 1_656
O37 Si9 1.660873 1_555
O38 Si10 1.660873 1_555
O39 Si11 1.633033 1_555
O39 Ti0 1.944254 1_655
O40 Si0 1.628237 1_555
O40 Ti0 2.093009 1_555
O41 Si0 1.645607 1_655
O42 Si1 1.645607 1_655
O43 Si1 1.628237 1_555
O43 Ti1 2.093009 1_555
O44 Si2 1.628237 1_555
O44 Ti2 2.093009 1_555
O45 Si2 1.645607 1_555
O46 Si3 1.645607 1_555
O47 Si3 1.628237 1_555
O47 Ti3 2.093009 1_555
