# generated using pymatgen
data_CuTe
_symmetry_space_group_name_H-M   'P 1'
_cell_length_a   3.23888584
_cell_length_b   3.99692133
_cell_length_c   7.31302808
_cell_angle_alpha   90.00000000
_cell_angle_beta   90.00000000
_cell_angle_gamma   90.00000000
_symmetry_Int_Tables_number   1
_chemical_formula_structural   CuTe
_chemical_formula_sum   'Cu2 Te2'
_cell_volume   94.67133081
_cell_formula_units_Z   2
loop_
 _symmetry_equiv_pos_site_id
 _symmetry_equiv_pos_as_xyz
  1  'x, y, z'
loop_
 _atom_site_type_symbol
 _atom_site_label
 _atom_site_symmetry_multiplicity
 _atom_site_fract_x
 _atom_site_fract_y
 _atom_site_fract_z
 _atom_site_occupancy
  Cu  Cu0  1  0.25000000  0.75000000  0.46458560  1
  Cu  Cu1  1  0.75000000  0.25000000  0.53541440  1
  Te  Te0  1  0.25000000  0.25000000  0.23823067  1
  Te  Te1  1  0.75000000  0.75000000  0.76176933  1
loop_
_geom_bond_atom_site_label_1
_geom_bond_atom_site_label_2
_geom_bond_distance
_geom_bond_site_symmetry_2
Cu0 Te0 2.594994 1_565
Cu0 Te0 2.594994 1_555
Cu0 Cu1 2.623878 1_555
Cu0 Cu1 2.623878 1_565
Cu0 Cu1 2.623878 1_455
Cu0 Cu1 2.623878 1_465
Cu0 Te1 2.710329 1_455
Cu0 Te1 2.710329 1_555
Cu1 Te1 2.594994 1_555
Cu1 Te1 2.594994 1_545
Cu1 Te0 2.710329 1_655
Cu1 Te0 2.710329 1_555
