# generated using pymatgen
data_Na2Zr2Si3Sn2(SO8)3
_symmetry_space_group_name_H-M   'P 1'
_cell_length_a   8.93838285
_cell_length_b   8.92916824
_cell_length_c   23.31443392
_cell_angle_alpha   90.24088665
_cell_angle_beta   90.28860382
_cell_angle_gamma   119.98638426
_symmetry_Int_Tables_number   1
_chemical_formula_structural   Na2Zr2Si3Sn2(SO8)3
_chemical_formula_sum   'Na6 Zr6 Si9 Sn6 S9 O72'
_cell_volume   1611.63409458
_cell_formula_units_Z   3
loop_
 _symmetry_equiv_pos_site_id
 _symmetry_equiv_pos_as_xyz
  1  'x, y, z'
loop_
 _atom_site_type_symbol
 _atom_site_label
 _atom_site_symmetry_multiplicity
 _atom_site_fract_x
 _atom_site_fract_y
 _atom_site_fract_z
 _atom_site_occupancy
  Na  Na0  1  0.97274145  0.96845725  0.49288123  1
  Na  Na1  1  0.00730231  0.97456725  0.00054290  1
  Na  Na2  1  0.63993615  0.30074146  0.82728116  1
  Na  Na3  1  0.67980869  0.31338795  0.33456273  1
  Na  Na4  1  0.30031279  0.65680947  0.17598797  1
  Na  Na5  1  0.35999440  0.66047847  0.66501315  1
  Zr  Zr0  1  0.99049039  0.00403388  0.64784437  1
  Zr  Zr1  1  0.00612262  0.99428571  0.14862786  1
  Zr  Zr2  1  0.65382559  0.33225969  0.68897287  1
  Zr  Zr3  1  0.67882550  0.34680689  0.47551311  1
  Zr  Zr4  1  0.35078357  0.68205043  0.51591981  1
  Zr  Zr5  1  0.32215846  0.67625363  0.31205898  1
  Si  Si0  1  0.30054493  0.01207278  0.24967351  1
  Si  Si1  1  0.00612290  0.28702325  0.25041715  1
  Si  Si2  1  0.29089745  0.29999039  0.75293326  1
  Si  Si3  1  0.71460381  0.00559808  0.75446140  1
  Si  Si4  1  0.66436723  0.62690486  0.58399679  1
  Si  Si5  1  0.94786249  0.61601542  0.08106398  1
  Si  Si6  1  0.32916812  0.96064330  0.91643360  1
  Si  Si7  1  0.63691460  0.96224738  0.41352507  1
  Si  Si8  1  0.04592087  0.67880594  0.41650743  1
  Sn  Sn0  1  0.00820610  0.00515584  0.35275637  1
  Sn  Sn1  1  0.01585645  0.01179944  0.84959292  1
  Sn  Sn2  1  0.68480859  0.33347376  0.19090088  1
  Sn  Sn3  1  0.66005796  0.32943640  0.98026078  1
  Sn  Sn4  1  0.31472667  0.67158188  0.01956025  1
  Sn  Sn5  1  0.34831262  0.68303137  0.81157254  1
  S  S0  1  0.70850110  0.70571768  0.24902719  1
  S  S1  1  0.00221639  0.70992834  0.75165945  1
  S  S2  1  0.95917131  0.33732429  0.58399700  1
  S  S3  1  0.37299700  0.04061416  0.58351044  1
  S  S4  1  0.66189808  0.03555747  0.08043406  1
  S  S5  1  0.37519057  0.34062399  0.08005616  1
  S  S6  1  0.62175987  0.66649084  0.91936002  1
  S  S7  1  0.04162585  0.37502079  0.91699337  1
  S  S8  1  0.33150324  0.37557419  0.41610084  1
  O  O0  1  0.21370081  0.03704157  0.30681560  1
  O  O1  1  0.81353693  0.78227327  0.30127957  1
  O  O2  1  0.97036833  0.16945637  0.30686563  1
  O  O3  1  0.22532872  0.18476282  0.81166649  1
  O  O4  1  0.97099161  0.78115921  0.80571853  1
  O  O5  1  0.82061827  0.02125820  0.81449781  1
  O  O6  1  0.80408262  0.97367492  0.69861179  1
  O  O7  1  0.17581663  0.20284951  0.69657577  1
  O  O8  1  0.02525936  0.81716706  0.70137727  1
  O  O9  1  0.79286079  0.80825281  0.19659116  1
  O  O10  1  0.00701887  0.18673030  0.19117021  1
  O  O11  1  0.18103922  0.97619773  0.19145641  1
  O  O12  1  0.87135711  0.34829174  0.63604996  1
  O  O13  1  0.47793770  0.12176319  0.63679001  1
  O  O14  1  0.65167297  0.51237827  0.64090407  1
  O  O15  1  0.85358884  0.49658822  0.13659129  1
  O  O16  1  0.62812369  0.11243789  0.13155399  1
  O  O17  1  0.48069206  0.36494909  0.13137998  1
  O  O18  1  0.44718858  0.30494735  0.02684237  1
  O  O19  1  0.83869074  0.52959079  0.02120355  1
  O  O20  1  0.68076262  0.13592453  0.02707886  1
  O  O21  1  0.45794263  0.14120281  0.53243031  1
  O  O22  1  0.67816042  0.52475681  0.52806647  1
  O  O23  1  0.85384480  0.31279205  0.53186272  1
  O  O24  1  0.53599879  0.68491459  0.97168592  1
  O  O25  1  0.14783274  0.45079604  0.97064246  1
  O  O26  1  0.30080904  0.85127710  0.97548707  1
  O  O27  1  0.54849426  0.84460769  0.47166965  1
  O  O28  1  0.31626857  0.46214708  0.46848894  1
  O  O29  1  0.15811371  0.69316090  0.47397505  1
  O  O30  1  0.12731006  0.64345575  0.35909848  1
  O  O31  1  0.51813952  0.86111365  0.35820584  1
  O  O32  1  0.35270640  0.47564493  0.36421575  1
  O  O33  1  0.12519446  0.47988677  0.86634062  1
  O  O34  1  0.36154956  0.87183539  0.86043085  1
  O  O35  1  0.51544653  0.63653968  0.86691398  1
  O  O36  1  0.03615625  0.85507755  0.41142665  1
  O  O37  1  0.83002845  0.98809154  0.41025190  1
  O  O38  1  0.17373298  0.20373627  0.41490694  1
  O  O39  1  0.01836318  0.19799273  0.91414075  1
  O  O40  1  0.15217044  0.97534524  0.91153601  1
  O  O41  1  0.79502000  0.82237770  0.91541953  1
  O  O42  1  0.97844398  0.18008235  0.58706289  1
  O  O43  1  0.20152226  0.02530328  0.58948323  1
  O  O44  1  0.83987974  0.81777364  0.58901995  1
  O  O45  1  0.97120246  0.80892011  0.08442835  1
  O  O46  1  0.81705377  0.02094190  0.08520270  1
  O  O47  1  0.19761011  0.19132415  0.08440026  1
  O  O48  1  0.70077204  0.17917693  0.74739374  1
  O  O49  1  0.48750784  0.33171122  0.74654495  1
  O  O50  1  0.85171182  0.53477406  0.74530990  1
  O  O51  1  0.69061236  0.53116439  0.24297493  1
  O  O52  1  0.83726495  0.31682835  0.24831863  1
  O  O53  1  0.48473172  0.19219912  0.23982633  1
  O  O54  1  0.64039527  0.50890535  0.92306012  1
  O  O55  1  0.86834402  0.36106791  0.92223812  1
  O  O56  1  0.50489331  0.15647603  0.92251344  1
  O  O57  1  0.64211090  0.14633144  0.42295286  1
  O  O58  1  0.48398893  0.35197946  0.42160234  1
  O  O59  1  0.85041313  0.50985569  0.42105071  1
  O  O60  1  0.36830550  0.50423302  0.07214720  1
  O  O61  1  0.14008326  0.62806045  0.07913801  1
  O  O62  1  0.50761587  0.85627787  0.07511356  1
  O  O63  1  0.35295515  0.86515750  0.58100041  1
  O  O64  1  0.49056814  0.64412453  0.58111439  1
  O  O65  1  0.13034877  0.49301780  0.58020220  1
  O  O66  1  0.32811161  0.84489717  0.25230732  1
  O  O67  1  0.53735708  0.68811549  0.25227369  1
  O  O68  1  0.18363215  0.47288973  0.25295781  1
  O  O69  1  0.29230974  0.48411898  0.76018370  1
  O  O70  1  0.15994402  0.69574275  0.75694085  1
  O  O71  1  0.52085471  0.83333834  0.75502056  1
loop_
_geom_bond_atom_site_label_1
_geom_bond_atom_site_label_2
_geom_bond_distance
_geom_bond_site_symmetry_2
Na0 O36 2.349673 1_655
Na0 O37 2.360257 1_555
Na0 O44 2.588355 1_555
Na0 O38 2.690405 1_665
Na0 O42 2.874462 1_565
Na0 O43 2.901434 1_665
Na1 O45 2.381253 1_455
Na1 O40 2.449736 1_554
Na1 O41 2.597619 1_454
Na1 O47 2.665642 1_565
Na1 O46 2.773066 1_465
Na1 O39 2.808261 1_564
Na2 O48 2.350780 1_555
Na2 O49 2.414757 1_555
Na2 O56 2.557898 1_555
Na2 O50 2.778205 1_555
Na2 O55 2.864375 1_555
Na2 O54 2.898053 1_555
Na3 O52 2.451650 1_555
Na3 O57 2.473017 1_555
Na3 O59 2.595015 1_555
Na3 O53 2.672988 1_555
Na3 O58 2.816576 1_555
Na3 O51 2.863480 1_555
Na4 O68 2.310095 1_555
Na4 O66 2.366789 1_555
Na4 O61 2.609731 1_555
Na4 O67 2.663928 1_555
Na4 O60 2.983513 1_555
Na4 O62 2.986138 1_555
Na5 O64 2.323916 1_555
Na5 O71 2.564628 1_555
Na5 O69 2.619104 1_555
Na5 O65 2.687989 1_555
Na5 O63 2.706377 1_555
Na5 O70 2.913037 1_555
O0 Si0 1.614940 1_555
O0 Sn0 2.025270 1_555
O1 S0 1.474034 1_555
O1 Sn0 2.219496 1_665
O2 Si1 1.617617 1_655
O2 Sn0 1.979120 1_655
O3 Si2 1.641444 1_555
O3 Sn1 1.952034 1_555
O4 S1 1.498392 1_655
O4 Sn1 2.144997 1_665
O5 Si3 1.652041 1_555
O5 Sn1 1.963560 1_655
O6 Si3 1.628389 1_565
O6 Zr0 1.954911 1_565
O7 Si2 1.619210 1_555
O7 Zr0 2.052063 1_455
O8 S1 1.465724 1_555
O8 Zr0 2.229431 1_465
O9 S0 1.493311 1_555
O9 Zr1 2.124941 1_655
O10 Si1 1.645277 1_555
O10 Zr1 1.976982 1_545
O11 Si0 1.650939 1_565
O11 Zr1 1.924999 1_555
O12 S2 1.477805 1_555
O12 Zr2 2.251879 1_555
O13 S3 1.499734 1_555
O13 Zr2 2.119510 1_555
O14 Si4 1.647991 1_555
O14 Zr2 1.972020 1_555
O15 Si5 1.627137 1_555
O15 Sn2 1.959312 1_555
O16 S4 1.478767 1_555
O16 Sn2 2.244308 1_555
O17 S5 1.466279 1_555
O17 Sn2 2.413237 1_555
O18 S5 1.504822 1_555
O18 Sn3 2.110565 1_554
O19 Si5 1.649234 1_555
O19 Sn3 1.942312 1_554
O20 S4 1.496474 1_555
O20 Sn3 2.131856 1_554
O21 S3 1.462153 1_555
O21 Zr3 2.335183 1_555
O22 Si4 1.628349 1_555
O22 Zr3 2.004786 1_555
O23 S2 1.480471 1_555
O23 Zr3 2.173275 1_555
O24 S6 1.495576 1_555
O24 Sn4 2.227047 1_556
O25 S7 1.504118 1_555
O25 Sn4 2.106390 1_556
O26 Si6 1.637333 1_555
O26 Sn4 1.964161 1_556
O27 Si7 1.660908 1_555
O27 Zr4 1.939366 1_555
O28 S8 1.485558 1_555
O28 Zr4 2.132217 1_555
O29 Si8 1.635160 1_555
O29 Zr4 2.021539 1_555
O30 Si8 1.629764 1_555
O30 Zr5 1.958033 1_555
O31 Si7 1.619909 1_555
O31 Zr5 2.006628 1_555
O32 S8 1.462796 1_555
O32 Zr5 2.294721 1_555
O33 S7 1.465742 1_555
O33 Sn5 2.308055 1_555
O34 Si6 1.625392 1_555
O34 Sn5 1.984137 1_555
O35 S6 1.483632 1_555
O35 Sn5 2.161908 1_555
O36 Si8 1.624124 1_555
O36 Sn0 2.018883 1_565
O37 Si7 1.625390 1_555
O37 Sn0 2.034008 1_665
O38 S8 1.476520 1_555
O38 Sn0 2.183384 1_555
O39 S7 1.488874 1_555
O39 Sn1 2.229502 1_555
O40 Si6 1.655033 1_555
O40 Sn1 2.014648 1_565
O41 S6 1.480557 1_555
O41 Sn1 2.414028 1_665
O42 S2 1.499534 1_555
O42 Zr0 2.162681 1_555
O43 S3 1.476525 1_555
O43 Zr0 2.261738 1_455
O44 Si4 1.644186 1_555
O44 Zr0 2.045347 1_565
O45 Si5 1.629757 1_555
O45 Zr1 2.129640 1_655
O46 S4 1.460207 1_555
O46 Zr1 2.340754 1_645
O47 S5 1.481392 1_555
O47 Zr1 2.303290 1_545
O48 Si3 1.624241 1_555
O48 Zr2 2.117294 1_555
O49 Si2 1.642018 1_555
O49 Zr2 2.006136 1_555
O50 S1 1.473309 1_655
O50 Zr2 2.209787 1_555
O51 S0 1.491164 1_555
O51 Sn2 2.117182 1_555
O52 Si1 1.658958 1_655
O52 Sn2 1.963886 1_555
O53 Si0 1.646231 1_555
O53 Sn2 1.966796 1_555
O54 S6 1.500100 1_555
O54 Sn3 2.162071 1_555
O55 S7 1.496191 1_655
O55 Sn3 2.208799 1_555
O56 Si6 1.671859 1_545
O56 Sn3 1.985946 1_555
O57 Si7 1.634877 1_545
O57 Zr3 2.050368 1_555
O58 S8 1.484602 1_555
O58 Zr3 2.161868 1_555
O59 Si8 1.645871 1_655
O59 Zr3 1.971637 1_555
O60 S5 1.504664 1_555
O60 Sn4 2.165693 1_555
O61 Si5 1.667844 1_455
O61 Sn4 1.984241 1_555
O62 S4 1.506543 1_565
O62 Sn4 2.118310 1_555
O63 S3 1.486133 1_565
O63 Zr4 2.218773 1_555
O64 Si4 1.636845 1_555
O64 Zr4 2.096251 1_555
O65 S2 1.468929 1_455
O65 Zr4 2.388306 1_555
O66 Si0 1.631268 1_565
O66 Zr5 2.036997 1_555
O67 S0 1.459966 1_555
O67 Zr5 2.340646 1_555
O68 Si1 1.625237 1_555
O68 Zr5 2.107949 1_555
O69 Si2 1.645826 1_555
O69 Sn5 1.981914 1_555
O70 S1 1.481793 1_555
O70 Sn5 2.154236 1_555
O71 Si3 1.644056 1_565
O71 Sn5 1.970920 1_555
