# generated using pymatgen
data_Na5Zn3GeP3(SO8)3
_symmetry_space_group_name_H-M   'P 1'
_cell_length_a   8.84341206
_cell_length_b   8.81514723
_cell_length_c   22.07561272
_cell_angle_alpha   90.63435805
_cell_angle_beta   89.46938510
_cell_angle_gamma   119.98804201
_symmetry_Int_Tables_number   1
_chemical_formula_structural   Na5Zn3GeP3(SO8)3
_chemical_formula_sum   'Na15 Zn9 Ge3 P9 S9 O72'
_cell_volume   1490.44003553
_cell_formula_units_Z   3
loop_
 _symmetry_equiv_pos_site_id
 _symmetry_equiv_pos_as_xyz
  1  'x, y, z'
loop_
 _atom_site_type_symbol
 _atom_site_label
 _atom_site_symmetry_multiplicity
 _atom_site_fract_x
 _atom_site_fract_y
 _atom_site_fract_z
 _atom_site_occupancy
  Na  Na0  1  0.00112200  0.63503184  0.25479442  1
  Na  Na1  1  0.29769917  0.33903854  0.58742676  1
  Na  Na2  1  0.03323444  0.69795636  0.58251476  1
  Na  Na3  1  0.66891012  0.96004873  0.58083550  1
  Na  Na4  1  0.66715140  0.70170362  0.08175089  1
  Na  Na5  1  0.03669821  0.33742928  0.08489047  1
  Na  Na6  1  0.97710523  0.67898501  0.91239829  1
  Na  Na7  1  0.32590401  0.29590526  0.90954503  1
  Na  Na8  1  0.69750193  0.67613716  0.41712809  1
  Na  Na9  1  0.00059387  0.00528361  0.49564556  1
  Na  Na10  1  0.00019337  0.99572226  0.99573980  1
  Na  Na11  1  0.66037176  0.32273670  0.82511322  1
  Na  Na12  1  0.65541985  0.30653876  0.33407055  1
  Na  Na13  1  0.33700658  0.67817582  0.17077285  1
  Na  Na14  1  0.33156072  0.65595937  0.66872244  1
  Zn  Zn0  1  0.00033373  0.00456088  0.35306472  1
  Zn  Zn1  1  0.00022361  0.00805894  0.84636835  1
  Zn  Zn2  1  0.99866423  0.01159434  0.65574355  1
  Zn  Zn3  1  0.00529103  0.99185857  0.15443771  1
  Zn  Zn4  1  0.66523306  0.34310766  0.68584426  1
  Zn  Zn5  1  0.66584525  0.33077503  0.18555015  1
  Zn  Zn6  1  0.32763223  0.67186124  0.01215696  1
  Zn  Zn7  1  0.33135363  0.66742566  0.51005097  1
  Zn  Zn8  1  0.33622166  0.67804044  0.32542525  1
  Ge  Ge0  1  0.67154778  0.33521988  0.97741881  1
  Ge  Ge1  1  0.68904518  0.33748607  0.48145656  1
  Ge  Ge2  1  0.33587817  0.66209377  0.81781847  1
  P  P0  1  0.30066750  0.30495450  0.75278030  1
  P  P1  1  0.95728622  0.33416158  0.58462051  1
  P  P2  1  0.66540687  0.62121521  0.58197034  1
  P  P3  1  0.95746243  0.62360233  0.08306639  1
  P  P4  1  0.62546652  0.66671611  0.91987526  1
  P  P5  1  0.03797270  0.37298476  0.91872276  1
  P  P6  1  0.34156373  0.96114563  0.91723084  1
  P  P7  1  0.63101239  0.97227351  0.41963326  1
  P  P8  1  0.03282353  0.66385146  0.41778756  1
  S  S0  1  0.29799596  0.00214124  0.25019468  1
  S  S1  1  0.69722725  0.70236577  0.24940462  1
  S  S2  1  0.00251851  0.29508307  0.24862726  1
  S  S3  1  0.00897894  0.70388917  0.75265673  1
  S  S4  1  0.69345289  0.99195039  0.75206259  1
  S  S5  1  0.38007774  0.04656386  0.58269154  1
  S  S6  1  0.66334263  0.04421061  0.08196847  1
  S  S7  1  0.37612574  0.32948126  0.08201829  1
  S  S8  1  0.33767377  0.36691861  0.41845354  1
  O  O0  1  0.21206811  0.02385769  0.30408739  1
  O  O1  1  0.81086285  0.78778183  0.30254164  1
  O  O2  1  0.98212191  0.18626419  0.30089962  1
  O  O3  1  0.21541111  0.19875670  0.80978721  1
  O  O4  1  0.98638294  0.78733702  0.80781790  1
  O  O5  1  0.80051577  0.01346292  0.80504852  1
  O  O6  1  0.76315410  0.95884260  0.69468604  1
  O  O7  1  0.19286675  0.22988933  0.69425691  1
  O  O8  1  0.03426316  0.80667259  0.69682314  1
  O  O9  1  0.77613610  0.80332687  0.19220607  1
  O  O10  1  0.02025944  0.21641361  0.18992947  1
  O  O11  1  0.19168139  0.97055868  0.19413066  1
  O  O12  1  0.87151405  0.36511819  0.63918270  1
  O  O13  1  0.48550221  0.12259789  0.63701031  1
  O  O14  1  0.62733582  0.50341061  0.63584047  1
  O  O15  1  0.87277586  0.51038143  0.13880434  1
  O  O16  1  0.63969770  0.12435087  0.13652107  1
  O  O17  1  0.48579128  0.35513163  0.13450498  1
  O  O18  1  0.45611065  0.30313704  0.02370166  1
  O  O19  1  0.83272632  0.53222471  0.02433645  1
  O  O20  1  0.69500895  0.15890972  0.02621557  1
  O  O21  1  0.46263572  0.16040330  0.52762797  1
  O  O22  1  0.69809104  0.53389515  0.52250597  1
  O  O23  1  0.83732317  0.29486120  0.52642327  1
  O  O24  1  0.54998957  0.68942411  0.97906173  1
  O  O25  1  0.14291313  0.44449766  0.97688358  1
  O  O26  1  0.30374350  0.85279064  0.97363045  1
  O  O27  1  0.55560240  0.86078307  0.47696966  1
  O  O28  1  0.31257450  0.44252466  0.47536093  1
  O  O29  1  0.13560810  0.68692517  0.47551102  1
  O  O30  1  0.10643229  0.62908350  0.35952504  1
  O  O31  1  0.51950437  0.89263613  0.36337689  1
  O  O32  1  0.37233852  0.48256643  0.36578572  1
  O  O33  1  0.12657311  0.50505358  0.86483768  1
  O  O34  1  0.37459584  0.87324583  0.86033308  1
  O  O35  1  0.49657669  0.62341187  0.86536380  1
  O  O36  1  0.00053288  0.81956012  0.41247106  1
  O  O37  1  0.81453633  0.99394067  0.41267891  1
  O  O38  1  0.18581549  0.19091143  0.41139693  1
  O  O39  1  0.01423297  0.19173237  0.90937740  1
  O  O40  1  0.18469817  0.98909521  0.90913704  1
  O  O41  1  0.81085463  0.81619381  0.91007142  1
  O  O42  1  0.97410411  0.16698562  0.58662189  1
  O  O43  1  0.20254963  0.02813419  0.58642665  1
  O  O44  1  0.83552925  0.80245958  0.58564095  1
  O  O45  1  0.96497324  0.80289400  0.08495481  1
  O  O46  1  0.82653713  0.03199080  0.08364988  1
  O  O47  1  0.19755643  0.17553578  0.08478797  1
  O  O48  1  0.67092026  0.14510504  0.74681977  1
  O  O49  1  0.48399670  0.32947694  0.74768122  1
  O  O50  1  0.85743566  0.52590515  0.74869495  1
  O  O51  1  0.68761708  0.52752711  0.24490791  1
  O  O52  1  0.84487089  0.31789460  0.24665452  1
  O  O53  1  0.47363541  0.15909686  0.24463616  1
  O  O54  1  0.63630089  0.48781586  0.92230064  1
  O  O55  1  0.85393817  0.36590951  0.92286953  1
  O  O56  1  0.51108544  0.15202956  0.92290074  1
  O  O57  1  0.64274783  0.15764730  0.42675995  1
  O  O58  1  0.50370035  0.35583395  0.42315817  1
  O  O59  1  0.84038311  0.49307391  0.42276213  1
  O  O60  1  0.36183545  0.49106861  0.07809820  1
  O  O61  1  0.13628208  0.63671269  0.07632108  1
  O  O62  1  0.51245780  0.86580664  0.07627750  1
  O  O63  1  0.35744369  0.86799008  0.57601151  1
  O  O64  1  0.50546480  0.64581556  0.57485574  1
  O  O65  1  0.14016590  0.49679159  0.57691871  1
  O  O66  1  0.31123321  0.83964404  0.25426174  1
  O  O67  1  0.52200579  0.68127051  0.25539611  1
  O  O68  1  0.15910034  0.47390669  0.25248262  1
  O  O69  1  0.31302848  0.49425399  0.76028563  1
  O  O70  1  0.17606277  0.69292786  0.75810117  1
  O  O71  1  0.51351569  0.82565607  0.75831715  1
loop_
_geom_bond_atom_site_label_1
_geom_bond_atom_site_label_2
_geom_bond_distance
_geom_bond_site_symmetry_2
Na0 O66 2.414449 1_555
Na0 O52 2.426726 1_455
Na0 O68 2.439763 1_555
Na0 O51 2.452023 1_455
Na0 O30 2.511327 1_555
Na0 O15 2.792291 1_455
Na0 O1 2.820555 1_455
Na0 O11 2.905991 1_555
Na1 O64 2.409623 1_555
Na1 O65 2.424496 1_555
Na1 O43 2.431767 1_555
Na1 O42 2.480227 1_455
Na1 O7 2.542652 1_555
Na1 O28 2.625599 1_555
Na1 O14 2.746030 1_555
Na1 O21 2.926460 1_555
Na2 O44 2.348758 1_455
Na2 O65 2.392353 1_555
Na2 O63 2.487737 1_555
Na2 O43 2.522137 1_565
Na2 O29 2.540129 1_555
Na2 O8 2.687818 1_555
Na2 O12 2.841180 1_455
Na2 O22 2.894161 1_455
Na3 O42 2.389129 1_565
Na3 O64 2.402641 1_555
Na3 O63 2.454757 1_555
Na3 O27 2.479674 1_555
Na3 O44 2.482848 1_555
Na3 O6 2.657021 1_555
Na3 O23 2.832516 1_565
Na3 O13 2.910050 1_565
Na4 O45 2.321841 1_555
Na4 O60 2.394469 1_555
Na4 O62 2.442107 1_555
Na4 O24 2.479950 1_554
Na4 O46 2.522207 1_565
Na4 O9 2.609428 1_555
Na4 O19 2.844805 1_555
Na4 O17 2.899685 1_555
Na5 O61 2.336026 1_555
Na5 O46 2.387766 1_455
Na5 O47 2.467697 1_555
Na5 O60 2.495587 1_555
Na5 O10 2.535641 1_555
Na5 O25 2.565190 1_554
Na5 O15 2.824809 1_455
Na5 O20 2.925540 1_455
Na6 O41 2.325405 1_555
Na6 O40 2.415278 1_655
Na6 O55 2.420926 1_555
Na6 O4 2.493189 1_555
Na6 O54 2.624866 1_555
Na6 O33 2.676728 1_655
Na6 O19 2.787724 1_556
Na6 O26 2.849730 1_655
Na7 O40 2.344726 1_545
Na7 O3 2.387369 1_555
Na7 O54 2.416151 1_555
Na7 O39 2.431070 1_555
Na7 O56 2.543774 1_555
Na7 O35 2.691359 1_555
Na7 O18 2.767228 1_556
Na7 O25 2.928411 1_555
Na8 O36 2.324090 1_655
Na8 O37 2.456608 1_555
Na8 O58 2.468610 1_555
Na8 O59 2.502364 1_555
Na8 O22 2.656159 1_555
Na8 O1 2.719223 1_555
Na8 O32 2.752760 1_555
Na8 O27 2.816503 1_555
Na9 O37 2.441131 1_445
Na9 O36 2.446282 1_545
Na9 O38 2.480170 1_555
Na9 O42 2.526246 1_455
Na9 O44 2.586595 1_445
Na9 O43 2.635191 1_555
Na10 O41 2.495635 1_455
Na10 O40 2.521061 1_555
Na10 O45 2.529570 1_456
Na10 O39 2.547503 1_565
Na10 O46 2.578507 1_466
Na10 O47 2.579172 1_566
Na11 O49 2.345752 1_555
Na11 O48 2.351802 1_555
Na11 O50 2.446005 1_555
Na11 O56 2.588564 1_555
Na11 O54 2.645378 1_555
Na11 O55 2.670423 1_555
Na12 O57 2.414588 1_555
Na12 O53 2.466753 1_555
Na12 O52 2.513502 1_555
Na12 O58 2.524249 1_555
Na12 O59 2.551897 1_555
Na12 O51 2.696347 1_555
Na13 O66 2.394422 1_555
Na13 O68 2.481678 1_555
Na13 O67 2.485562 1_555
Na13 O62 2.635480 1_555
Na13 O61 2.652397 1_555
Na13 O60 2.689451 1_555
Na14 O69 2.443078 1_555
Na14 O70 2.504746 1_555
Na14 O71 2.515174 1_555
Na14 O65 2.562671 1_555
Na14 O64 2.596412 1_555
Na14 O63 2.717167 1_555
Ge0 O19 1.906141 1_556
Ge0 O55 1.913103 1_555
Ge0 O56 1.941071 1_555
Ge0 O54 1.962022 1_555
Ge0 O20 1.995630 1_556
Ge0 O18 2.045826 1_556
Ge1 O23 1.836011 1_555
Ge1 O57 1.859227 1_555
Ge1 O59 1.877086 1_555
Ge1 O22 1.911384 1_555
Ge1 O21 2.087496 1_555
Ge1 O58 2.162806 1_555
Ge2 O69 1.872757 1_555
Ge2 O35 1.938419 1_555
Ge2 O34 1.947523 1_555
Ge2 O33 1.963331 1_555
Ge2 O71 2.002886 1_555
Ge2 O70 2.058079 1_555
O0 S0 1.467357 1_555
O0 Zn0 2.086193 1_555
O1 S1 1.482804 1_555
O1 Zn0 2.118925 1_665
O2 S2 1.460131 1_655
O2 Zn0 2.054214 1_655
O3 P0 1.526927 1_555
O3 Zn1 1.975637 1_555
O4 S3 1.478674 1_655
O4 Zn1 2.062076 1_665
O5 S4 1.461747 1_545
O5 Zn1 2.017006 1_655
O6 S4 1.492192 1_555
O6 Zn2 2.073772 1_565
O7 P0 1.545666 1_555
O7 Zn2 2.015561 1_455
O8 S3 1.485677 1_555
O8 Zn2 2.189676 1_465
O9 S1 1.503716 1_555
O9 Zn3 2.048562 1_655
O10 S2 1.506553 1_555
O10 Zn3 2.062864 1_545
O11 S0 1.498496 1_565
O11 Zn3 1.964642 1_555
O12 P1 1.511072 1_555
O12 Zn4 2.010553 1_555
O13 S5 1.461022 1_555
O13 Zn4 2.088971 1_555
O14 P2 1.508782 1_555
O14 Zn4 1.960224 1_555
O15 P3 1.527723 1_555
O15 Zn5 2.006325 1_555
O16 S6 1.455078 1_555
O16 Zn5 2.019038 1_555
O17 S7 1.459454 1_555
O17 Zn5 2.057093 1_555
O18 S7 1.533725 1_555
O19 P3 1.631473 1_555
O20 S6 1.534168 1_555
O21 S5 1.515204 1_555
O22 P2 1.610049 1_555
O23 P1 1.595004 1_555
O24 P4 1.518010 1_555
O24 Zn6 2.023865 1_556
O25 P5 1.525275 1_555
O25 Zn6 2.001992 1_556
O26 P6 1.507859 1_555
O26 Zn6 1.918834 1_556
O27 P7 1.539304 1_555
O27 Zn7 1.998278 1_555
O28 S8 1.481837 1_555
O28 Zn7 2.045506 1_555
O29 P8 1.523903 1_555
O29 Zn7 1.983002 1_555
O30 P8 1.532035 1_555
O30 Zn8 1.996152 1_555
O31 P7 1.522795 1_555
O31 Zn8 1.957698 1_555
O32 S8 1.480645 1_555
O32 Zn8 2.110563 1_555
O33 P5 1.576660 1_555
O34 P6 1.568857 1_555
O35 P4 1.572677 1_555
O36 P8 1.541213 1_555
O36 Zn0 2.104677 1_565
O37 P7 1.542811 1_555
O37 Zn0 2.061384 1_665
O38 S8 1.466516 1_555
O38 Zn0 2.084707 1_555
O39 P5 1.515811 1_555
O39 Zn1 2.079530 1_555
O40 P6 1.537613 1_555
O40 Zn1 2.220140 1_565
O41 P4 1.520258 1_555
O41 Zn1 2.195537 1_665
O42 P1 1.554499 1_555
O42 Zn2 2.145163 1_555
O43 S5 1.496958 1_555
O43 Zn2 2.303219 1_455
O44 P2 1.555375 1_555
O44 Zn2 2.279128 1_565
O45 P3 1.548460 1_555
O45 Zn3 2.148134 1_655
O46 S6 1.500760 1_555
O46 Zn3 2.383921 1_645
O47 S7 1.482194 1_555
O47 Zn3 2.265254 1_545
O48 S4 1.465822 1_545
O48 Zn4 2.236508 1_555
O49 P0 1.527969 1_555
O49 Zn4 2.053607 1_555
O50 S3 1.470558 1_655
O50 Zn4 2.160313 1_555
O51 S1 1.502762 1_555
O51 Zn5 2.093510 1_555
O52 S2 1.505831 1_655
O52 Zn5 2.135796 1_555
O53 S0 1.481185 1_555
O53 Zn5 2.076558 1_555
O54 P4 1.628523 1_555
O55 P5 1.599032 1_655
O56 P6 1.603635 1_545
O57 P7 1.590873 1_545
O58 S8 1.523985 1_555
O59 P8 1.616707 1_655
O60 S7 1.495092 1_555
O60 Zn6 2.300405 1_555
O61 P3 1.532842 1_455
O61 Zn6 2.099303 1_555
O62 S6 1.473269 1_565
O62 Zn6 2.189517 1_555
O63 S5 1.490036 1_565
O63 Zn7 2.200182 1_555
O64 P2 1.543957 1_555
O64 Zn7 2.189463 1_555
O65 P1 1.543480 1_455
O65 Zn7 2.181937 1_555
O66 S0 1.498101 1_565
O66 Zn8 2.217397 1_555
O67 S1 1.470339 1_555
O67 Zn8 2.235449 1_555
O68 S2 1.492240 1_555
O68 Zn8 2.334404 1_555
O69 P0 1.623526 1_555
O70 S3 1.534055 1_555
O71 S4 1.539049 1_555
