# generated using pymatgen
data_Na10Y6Ta2Si7S5O48
_symmetry_space_group_name_H-M   'P 1'
_cell_length_a   18.58022946
_cell_length_b   9.29870596
_cell_length_c   23.49860189
_cell_angle_alpha   90.02096775
_cell_angle_beta   90.04990935
_cell_angle_gamma   120.06503089
_symmetry_Int_Tables_number   1
_chemical_formula_structural   Na10Y6Ta2Si7S5O48
_chemical_formula_sum   'Na30 Y18 Ta6 Si21 S15 O144'
_cell_volume   3513.66965340
_cell_formula_units_Z   3
loop_
 _symmetry_equiv_pos_site_id
 _symmetry_equiv_pos_as_xyz
  1  'x, y, z'
loop_
 _atom_site_type_symbol
 _atom_site_label
 _atom_site_symmetry_multiplicity
 _atom_site_fract_x
 _atom_site_fract_y
 _atom_site_fract_z
 _atom_site_occupancy
  Na  Na0  1  0.31390558  0.99865709  0.24409220  1
  Na  Na1  1  0.81722618  0.01972306  0.24301932  1
  Na  Na2  1  0.18581968  0.36703877  0.24658957  1
  Na  Na3  1  0.32003835  0.61772916  0.74379929  1
  Na  Na4  1  0.81310540  0.62884640  0.74438532  1
  Na  Na5  1  0.68547775  0.00444027  0.74754685  1
  Na  Na6  1  0.16783718  0.34219239  0.58774781  1
  Na  Na7  1  0.65958885  0.33635400  0.57852376  1
  Na  Na8  1  0.01197396  0.70054093  0.57360040  1
  Na  Na9  1  0.16290609  0.98880968  0.08380184  1
  Na  Na10  1  0.66704919  0.99251291  0.08708119  1
  Na  Na11  1  0.51101012  0.32227818  0.07240705  1
  Na  Na12  1  0.84870236  0.01420592  0.92037334  1
  Na  Na13  1  0.66347444  0.31288883  0.91847766  1
  Na  Na14  1  0.48560706  0.28784184  0.42175117  1
  Na  Na15  1  0.16585222  0.01720994  0.42000953  1
  Na  Na16  1  0.66665470  0.05552758  0.41540987  1
  Na  Na17  1  0.84947997  0.65116753  0.41572366  1
  Na  Na18  1  0.99846542  0.98540262  0.50099978  1
  Na  Na19  1  0.48486747  0.98249101  0.49634214  1
  Na  Na20  1  0.99187375  0.98822924  0.99924002  1
  Na  Na21  1  0.48858447  0.00974186  0.99727614  1
  Na  Na22  1  0.34082338  0.33807194  0.83181511  1
  Na  Na23  1  0.83575698  0.33858638  0.83250112  1
  Na  Na24  1  0.33071869  0.34510302  0.33240832  1
  Na  Na25  1  0.83802672  0.34357822  0.33099393  1
  Na  Na26  1  0.16978153  0.65111045  0.16283087  1
  Na  Na27  1  0.67836249  0.67398061  0.16109693  1
  Na  Na28  1  0.18008225  0.68771819  0.66022422  1
  Na  Na29  1  0.66959431  0.68937166  0.66171279  1
  Y  Y0  1  0.00389688  0.00685529  0.34995371  1
  Y  Y1  1  0.50045681  0.99224036  0.34986226  1
  Y  Y2  1  0.00436296  0.00911987  0.85064551  1
  Y  Y3  1  0.49931667  0.00159687  0.85150402  1
  Y  Y4  1  0.33116865  0.32948665  0.68436665  1
  Y  Y5  1  0.82893501  0.32057970  0.68317697  1
  Y  Y6  1  0.32871940  0.33573814  0.18227460  1
  Y  Y7  1  0.83117925  0.33404527  0.18402732  1
  Y  Y8  1  0.33545853  0.32127461  0.98184530  1
  Y  Y9  1  0.82903356  0.33531754  0.98790058  1
  Y  Y10  1  0.32606316  0.33184909  0.48833265  1
  Y  Y11  1  0.83515403  0.34504083  0.48422471  1
  Y  Y12  1  0.17007186  0.66116475  0.02138687  1
  Y  Y13  1  0.67360031  0.65939676  0.01833337  1
  Y  Y14  1  0.17630985  0.69082087  0.51724223  1
  Y  Y15  1  0.66921984  0.66865712  0.52192542  1
  Y  Y16  1  0.66374809  0.65954885  0.31084518  1
  Y  Y17  1  0.16313175  0.65533786  0.81130279  1
  Ta  Ta0  1  0.99781626  0.00639578  0.65201674  1
  Ta  Ta1  1  0.50593003  0.98744845  0.64956168  1
  Ta  Ta2  1  0.00576735  0.02453862  0.14938691  1
  Ta  Ta3  1  0.49711590  0.98759301  0.15167875  1
  Ta  Ta4  1  0.16376541  0.68106658  0.31025573  1
  Ta  Ta5  1  0.66259173  0.64447926  0.80997574  1
  Si  Si0  1  0.14527656  0.99712478  0.24938307  1
  Si  Si1  1  0.64882169  0.99565886  0.25104468  1
  Si  Si2  1  0.34891235  0.70257262  0.25181180  1
  Si  Si3  1  0.00236460  0.30273813  0.25269315  1
  Si  Si4  1  0.14886035  0.29973955  0.74908668  1
  Si  Si5  1  0.64409132  0.29054105  0.75003867  1
  Si  Si6  1  0.50265377  0.70423042  0.75332637  1
  Si  Si7  1  0.85050312  0.99572850  0.75461878  1
  Si  Si8  1  0.17642875  0.02927924  0.58539867  1
  Si  Si9  1  0.68041799  0.02982268  0.58406511  1
  Si  Si10  1  0.33567164  0.63848646  0.58819568  1
  Si  Si11  1  0.83798281  0.64183394  0.58778778  1
  Si  Si12  1  0.33742349  0.03546384  0.08881431  1
  Si  Si13  1  0.83617553  0.03484332  0.08504387  1
  Si  Si14  1  0.18209582  0.32854525  0.08505687  1
  Si  Si15  1  0.67642398  0.32321514  0.08561426  1
  Si  Si16  1  0.81482310  0.66307397  0.91145451  1
  Si  Si17  1  0.51752979  0.37521240  0.91640131  1
  Si  Si18  1  0.31466261  0.97185142  0.41105391  1
  Si  Si19  1  0.66631507  0.36989499  0.41867338  1
  Si  Si20  1  0.01829009  0.66175348  0.41599309  1
  S  S0  1  0.85714070  0.71726174  0.24808247  1
  S  S1  1  0.50112593  0.28780378  0.24615629  1
  S  S2  1  0.00181167  0.71538788  0.74653292  1
  S  S3  1  0.35568810  0.99488625  0.74755224  1
  S  S4  1  0.48230124  0.32090851  0.58461673  1
  S  S5  1  0.98231797  0.32257609  0.58515521  1
  S  S6  1  0.48162381  0.64059751  0.08471674  1
  S  S7  1  0.98389399  0.64617618  0.08548038  1
  S  S8  1  0.31459478  0.66446165  0.91564263  1
  S  S9  1  0.01598789  0.37114077  0.91729130  1
  S  S10  1  0.16614926  0.95757844  0.91759441  1
  S  S11  1  0.66829904  0.95616559  0.91484673  1
  S  S12  1  0.81357739  0.96052026  0.41545618  1
  S  S13  1  0.16764047  0.38071482  0.41453470  1
  S  S14  1  0.51873923  0.66090619  0.41715841  1
  O  O0  1  0.10808638  0.02996196  0.30646321  1
  O  O1  1  0.60925838  0.00866826  0.31062065  1
  O  O2  1  0.40297587  0.79294256  0.30679720  1
  O  O3  1  0.89898619  0.78591265  0.30378066  1
  O  O4  1  0.49165761  0.19517082  0.29888708  1
  O  O5  1  0.98238527  0.17663605  0.30436867  1
  O  O6  1  0.10407369  0.19419691  0.80453671  1
  O  O7  1  0.60662657  0.18164080  0.80634626  1
  O  O8  1  0.48398843  0.79210936  0.80469488  1
  O  O9  1  0.98971927  0.79088628  0.79741776  1
  O  O10  1  0.40057072  0.01442644  0.80132247  1
  O  O11  1  0.90159954  0.01493649  0.81171563  1
  O  O12  1  0.40159253  0.97643552  0.69867667  1
  O  O13  1  0.90543745  0.97635598  0.69942523  1
  O  O14  1  0.08535126  0.18933096  0.69317838  1
  O  O15  1  0.58409600  0.19149528  0.69410563  1
  O  O16  1  0.01024433  0.82077644  0.69482734  1
  O  O17  1  0.51812103  0.83565144  0.69600047  1
  O  O18  1  0.40176688  0.82796211  0.19571194  1
  O  O19  1  0.90576887  0.83007798  0.20076432  1
  O  O20  1  0.01766249  0.20065664  0.19590613  1
  O  O21  1  0.50758792  0.19442954  0.19589659  1
  O  O22  1  0.08508000  0.97789578  0.19383722  1
  O  O23  1  0.58225094  0.98274619  0.19719539  1
  O  O24  1  0.44071803  0.34227526  0.63323216  1
  O  O25  1  0.94461210  0.35302097  0.63518778  1
  O  O26  1  0.23977347  0.12641371  0.63591578  1
  O  O27  1  0.73227763  0.11443818  0.64143661  1
  O  O28  1  0.32323765  0.52846704  0.64450625  1
  O  O29  1  0.82806956  0.52956544  0.64276484  1
  O  O30  1  0.44450258  0.53498640  0.13513577  1
  O  O31  1  0.94699471  0.54449660  0.13579207  1
  O  O32  1  0.32296368  0.11362774  0.14626291  1
  O  O33  1  0.82510456  0.12767905  0.13976903  1
  O  O34  1  0.22957248  0.35130614  0.14480035  1
  O  O35  1  0.74012610  0.35512310  0.13618710  1
  O  O36  1  0.22579578  0.28461364  0.03323539  1
  O  O37  1  0.71174061  0.28307346  0.02634730  1
  O  O38  1  0.43032611  0.56874333  0.03371207  1
  O  O39  1  0.93258977  0.56750234  0.03355505  1
  O  O40  1  0.36424432  0.16700839  0.03559794  1
  O  O41  1  0.85226535  0.14274686  0.02600667  1
  O  O42  1  0.20967795  0.14038724  0.52601949  1
  O  O43  1  0.72138037  0.14948764  0.52854580  1
  O  O44  1  0.35265961  0.55554804  0.53193437  1
  O  O45  1  0.86235241  0.57227113  0.53046534  1
  O  O46  1  0.43524306  0.30154880  0.53038861  1
  O  O47  1  0.93154335  0.29164340  0.53386135  1
  O  O48  1  0.26966283  0.68018877  0.96502994  1
  O  O49  1  0.77170435  0.69506171  0.96592656  1
  O  O50  1  0.06408573  0.45861403  0.96780428  1
  O  O51  1  0.56802628  0.45944291  0.97449946  1
  O  O52  1  0.16057454  0.86613098  0.97048537  1
  O  O53  1  0.65823711  0.86347319  0.96797773  1
  O  O54  1  0.27190558  0.86631844  0.46741440  1
  O  O55  1  0.77002004  0.85428219  0.46477004  1
  O  O56  1  0.15922247  0.45459506  0.46771575  1
  O  O57  1  0.65413454  0.45210695  0.47666306  1
  O  O58  1  0.06968684  0.68356091  0.47384986  1
  O  O59  1  0.57008590  0.68140247  0.46729706  1
  O  O60  1  0.07736114  0.65858114  0.36009282  1
  O  O61  1  0.55918967  0.64418031  0.36499690  1
  O  O62  1  0.25298629  0.85750708  0.35473641  1
  O  O63  1  0.76543227  0.88542186  0.36209958  1
  O  O64  1  0.17288931  0.47820025  0.36326294  1
  O  O65  1  0.67752360  0.49096676  0.36433772  1
  O  O66  1  0.05785082  0.46665720  0.86494255  1
  O  O67  1  0.57759206  0.49862209  0.86018475  1
  O  O68  1  0.17054641  0.86627485  0.86710660  1
  O  O69  1  0.67497455  0.86833790  0.86388792  1
  O  O70  1  0.26768982  0.65364206  0.86202947  1
  O  O71  1  0.75315836  0.65059564  0.85440330  1
  O  O72  1  0.00944801  0.83032554  0.41177571  1
  O  O73  1  0.50990846  0.81029517  0.41430882  1
  O  O74  1  0.40966123  0.01018951  0.40732853  1
  O  O75  1  0.89563954  0.96916339  0.41325884  1
  O  O76  1  0.09422973  0.20794210  0.41196872  1
  O  O77  1  0.58460015  0.18287880  0.41460862  1
  O  O78  1  0.00766600  0.20307130  0.91614346  1
  O  O79  1  0.51700417  0.19822843  0.91212922  1
  O  O80  1  0.09100285  0.97463017  0.91524720  1
  O  O81  1  0.59698724  0.98688248  0.91105925  1
  O  O82  1  0.39758656  0.81497424  0.91518368  1
  O  O83  1  0.90620084  0.82759936  0.90820513  1
  O  O84  1  0.49105234  0.16947130  0.59041950  1
  O  O85  1  0.98917577  0.16776188  0.59409182  1
  O  O86  1  0.08369048  0.02052134  0.59716361  1
  O  O87  1  0.58792241  0.02622055  0.59416652  1
  O  O88  1  0.41734983  0.83002119  0.60067929  1
  O  O89  1  0.92134416  0.83014499  0.59837060  1
  O  O90  1  0.48923013  0.80941005  0.09398807  1
  O  O91  1  0.99221144  0.81496385  0.09146783  1
  O  O92  1  0.42079463  0.01329721  0.09807121  1
  O  O93  1  0.91749088  0.00580634  0.09997629  1
  O  O94  1  0.08782270  0.15021911  0.09406560  1
  O  O95  1  0.58431633  0.14540309  0.09747755  1
  O  O96  1  0.34433783  0.13924739  0.74144490  1
  O  O97  1  0.83288569  0.14813690  0.74705713  1
  O  O98  1  0.24233636  0.32838948  0.74558762  1
  O  O99  1  0.73956741  0.32969131  0.74413573  1
  O  O100  1  0.42525151  0.52191305  0.74327275  1
  O  O101  1  0.92805863  0.54993930  0.74058738  1
  O  O102  1  0.33132002  0.51491078  0.24613233  1
  O  O103  1  0.84610696  0.55223463  0.24235725  1
  O  O104  1  0.42663879  0.30401874  0.24069385  1
  O  O105  1  0.92467842  0.32869213  0.24264547  1
  O  O106  1  0.24007018  0.14972603  0.24396512  1
  O  O107  1  0.74154013  0.15791040  0.24563529  1
  O  O108  1  0.32032973  0.51260734  0.91971319  1
  O  O109  1  0.81176791  0.48319613  0.91450279  1
  O  O110  1  0.42656340  0.35925410  0.91350811  1
  O  O111  1  0.93071347  0.34907049  0.91864362  1
  O  O112  1  0.24264637  0.12437130  0.91819724  1
  O  O113  1  0.74705700  0.12103723  0.91694897  1
  O  O114  1  0.31481345  0.15068253  0.41262286  1
  O  O115  1  0.82146483  0.12544261  0.42146933  1
  O  O116  1  0.24361505  0.36318274  0.41599869  1
  O  O117  1  0.75095325  0.35358848  0.42063301  1
  O  O118  1  0.43647010  0.50480938  0.42131424  1
  O  O119  1  0.92556283  0.49934450  0.41385370  1
  O  O120  1  0.16244980  0.47818548  0.07831548  1
  O  O121  1  0.65265104  0.46931096  0.08262480  1
  O  O122  1  0.06954801  0.67505012  0.07804696  1
  O  O123  1  0.56684512  0.67110264  0.07817606  1
  O  O124  1  0.25136431  0.85989193  0.07822694  1
  O  O125  1  0.74887495  0.85732753  0.08127568  1
  O  O126  1  0.15316868  0.83590118  0.58238037  1
  O  O127  1  0.66030946  0.84092813  0.57990047  1
  O  O128  1  0.24872996  0.64160741  0.58160299  1
  O  O129  1  0.75233661  0.64756102  0.58180270  1
  O  O130  1  0.06745710  0.46286860  0.57847778  1
  O  O131  1  0.56769280  0.46663715  0.58115771  1
  O  O132  1  0.15178674  0.82315668  0.25573801  1
  O  O133  1  0.65868117  0.82932591  0.24593681  1
  O  O134  1  0.25697272  0.69631627  0.25529818  1
  O  O135  1  0.77519522  0.71282751  0.24816786  1
  O  O136  1  0.09268603  0.47713929  0.26076076  1
  O  O137  1  0.57731961  0.45312915  0.24641722  1
  O  O138  1  0.15713333  0.48585585  0.74741883  1
  O  O139  1  0.65121611  0.47847549  0.75595478  1
  O  O140  1  0.07849994  0.70459649  0.74900453  1
  O  O141  1  0.59312030  0.70952920  0.76089527  1
  O  O142  1  0.27325391  0.83759871  0.74968204  1
  O  O143  1  0.75839678  0.81848031  0.75583091  1
loop_
_geom_bond_atom_site_label_1
_geom_bond_atom_site_label_2
_geom_bond_distance
_geom_bond_site_symmetry_2
Na0 O106 2.405472 1_565
Na0 O134 2.472533 1_555
Na0 O32 2.505626 1_565
Na0 O104 2.549027 1_565
Na0 O132 2.624473 1_555
Na0 O62 2.877998 1_555
Na1 O107 2.333052 1_555
Na1 O105 2.548153 1_555
Na1 O135 2.556507 1_545
Na1 O133 2.567438 1_545
Na1 O33 2.602103 1_555
Na2 O102 2.339832 1_555
Na2 O136 2.435022 1_555
Na2 O34 2.554558 1_555
Na2 O134 2.666054 1_555
Na2 O106 2.672838 1_555
Na3 O98 2.330890 1_555
Na3 O28 2.486921 1_555
Na3 O100 2.522051 1_555
Na3 O142 2.595271 1_555
Na3 O138 2.637066 1_555
Na4 O99 2.407647 1_555
Na4 O143 2.451755 1_555
Na4 O101 2.584324 1_555
Na4 O139 2.619981 1_555
Na4 O29 2.624606 1_555
Na4 O71 2.862773 1_555
Na5 O97 2.370692 1_555
Na5 O141 2.418630 1_545
Na5 O99 2.668022 1_555
Na5 O27 2.670966 1_555
Na5 O143 2.685292 1_545
Na5 O17 2.949866 1_545
Na5 O69 2.978206 1_545
Na5 O7 3.031705 1_555
Na6 O128 2.416467 1_555
Na6 O86 2.599150 1_555
Na6 O130 2.623286 1_555
Na6 O42 2.773342 1_555
Na6 O28 2.845442 1_555
Na6 O85 2.877285 1_455
Na6 O14 2.886799 1_555
Na6 O56 3.040191 1_555
Na7 O129 2.520471 1_555
Na7 O87 2.525623 1_555
Na7 O131 2.541569 1_555
Na7 O57 2.647415 1_555
Na7 O84 2.724903 1_555
Na7 O43 2.777844 1_555
Na8 O126 2.280252 1_555
Na8 O89 2.580958 1_455
Na8 O58 2.615889 1_555
Na8 O45 2.617312 1_455
Na8 O86 2.638211 1_565
Na8 O130 2.871052 1_555
Na9 O124 2.475871 1_555
Na9 O94 2.520985 1_565
Na9 O122 2.543194 1_555
Na9 O36 2.669738 1_565
Na9 O91 2.751101 1_455
Na9 O52 2.888191 1_554
Na9 O22 2.940525 1_555
Na9 O32 2.979634 1_565
Na10 O125 2.413578 1_555
Na10 O95 2.575641 1_565
Na10 O123 2.620304 1_555
Na10 O37 2.789834 1_565
Na10 O33 2.833910 1_565
Na10 O90 2.864594 1_555
Na10 O23 3.008303 1_555
Na10 O53 3.016547 1_554
Na11 O121 2.290489 1_555
Na11 O40 2.513765 1_555
Na11 O92 2.570180 1_555
Na11 O51 2.587430 1_554
Na11 O95 2.674170 1_555
Na11 O123 2.871147 1_555
Na12 O83 2.468117 1_545
Na12 O113 2.537654 1_555
Na12 O78 2.573155 1_655
Na12 O111 2.695454 1_555
Na12 O11 2.735522 1_555
Na12 O41 2.740947 1_556
Na12 O49 2.783958 1_545
Na13 O79 2.378487 1_555
Na13 O109 2.395204 1_555
Na13 O81 2.644444 1_545
Na13 O37 2.748076 1_556
Na13 O7 2.872136 1_555
Na13 O113 2.893367 1_555
Na14 O74 2.262735 1_555
Na14 O77 2.482543 1_555
Na14 O118 2.597994 1_555
Na14 O46 2.744500 1_555
Na14 O114 2.772426 1_555
Na15 O114 2.406244 1_555
Na15 O72 2.537936 1_545
Na15 O42 2.690792 1_555
Na15 O76 2.704956 1_555
Na15 O116 2.790932 1_555
Na15 O0 2.899652 1_555
Na15 O58 2.978456 1_545
Na16 O77 2.352872 1_555
Na16 O117 2.408272 1_555
Na16 O115 2.615757 1_555
Na16 O1 2.630515 1_555
Na16 O73 2.651065 1_545
Na16 O43 2.822860 1_555
Na17 O117 2.438542 1_555
Na17 O119 2.448072 1_555
Na17 O72 2.580208 1_655
Na17 O75 2.634704 1_555
Na17 O45 2.835741 1_555
Na17 O3 2.861363 1_555
Na18 O72 2.609659 1_655
Na18 O86 2.682449 1_665
Na18 O89 2.703368 1_555
Na18 O75 2.761837 1_555
Na18 O85 2.825192 1_565
Na18 O76 2.854020 1_665
Na19 O74 2.598081 1_565
Na19 O77 2.672793 1_565
Na19 O73 2.691091 1_555
Na19 O84 2.778467 1_565
Na19 O88 2.796581 1_555
Na19 O87 2.885731 1_565
Na20 O83 2.636373 1_555
Na20 O91 2.702841 1_556
Na20 O78 2.703051 1_665
Na20 O80 2.746531 1_655
Na20 O94 2.777105 1_666
Na20 O93 2.787827 1_566
Na21 O79 2.535972 1_555
Na21 O82 2.604535 1_545
Na21 O92 2.691546 1_556
Na21 O95 2.835768 1_556
Na21 O81 2.939783 1_545
Na21 O90 2.942855 1_546
Na22 O110 2.437581 1_555
Na22 O100 2.652072 1_555
Na22 O98 2.700111 1_555
Na22 O108 2.768266 1_555
Na22 O112 2.788192 1_555
Na22 O96 2.837298 1_555
Na23 O109 2.513964 1_555
Na23 O111 2.653507 1_555
Na23 O97 2.659496 1_555
Na23 O99 2.712564 1_555
Na23 O113 2.722937 1_555
Na23 O101 2.846226 1_555
Na24 O114 2.525232 1_555
Na24 O102 2.566760 1_555
Na24 O116 2.604557 1_555
Na24 O106 2.716961 1_555
Na24 O118 2.738186 1_555
Na24 O104 2.941982 1_555
Na25 O119 2.483226 1_555
Na25 O107 2.666064 1_555
Na25 O105 2.673994 1_555
Na25 O117 2.686943 1_555
Na25 O103 2.799447 1_555
Na25 O115 2.847450 1_555
Na26 O120 2.515161 1_555
Na26 O134 2.614070 1_555
Na26 O124 2.660576 1_555
Na26 O136 2.766064 1_555
Na26 O122 2.810066 1_555
Na26 O132 2.823498 1_555
Na27 O125 2.431030 1_555
Na27 O121 2.517033 1_555
Na27 O133 2.592929 1_555
Na27 O135 2.625961 1_555
Na27 O137 2.812152 1_555
Na27 O123 2.833389 1_555
Na28 O128 2.403212 1_555
Na28 O126 2.487045 1_555
Na28 O142 2.632929 1_555
Na28 O138 2.665663 1_555
Na28 O130 2.836663 1_555
Na28 O140 2.871012 1_555
Na29 O127 2.440644 1_555
Na29 O129 2.577611 1_555
Na29 O143 2.657447 1_555
Na29 O131 2.742150 1_555
Na29 O141 2.785379 1_555
Na29 O139 2.863591 1_555
O0 Si0 1.607027 1_545
O0 Y0 2.103568 1_555
O1 Si1 1.614197 1_545
O1 Y1 2.157377 1_545
O2 Si2 1.592429 1_555
O2 Y1 2.090754 1_555
O3 S0 1.491764 1_555
O3 Y0 2.275926 1_665
O4 S1 1.468877 1_555
O4 Y1 2.309269 1_545
O5 Si3 1.597804 1_655
O5 Y0 2.105316 1_655
O6 Si4 1.593104 1_555
O6 Y2 2.092428 1_555
O7 Si5 1.599066 1_555
O7 Y3 2.136512 1_555
O8 Si6 1.590298 1_555
O8 Y3 2.127809 1_565
O9 S2 1.459790 1_655
O9 Y2 2.280531 1_665
O10 S3 1.473473 1_545
O10 Y3 2.233066 1_555
O11 Si7 1.600338 1_545
O11 Y2 2.141479 1_655
O12 S3 1.491359 1_555
O12 Ta1 2.214906 1_555
O13 Si7 1.715448 1_555
O13 Ta0 1.946371 1_565
O14 Si4 1.718983 1_555
O14 Ta0 1.923118 1_455
O15 Si5 1.669205 1_555
O15 Ta1 2.009923 1_545
O16 S2 1.519378 1_555
O16 Ta0 2.108245 1_465
O17 Si6 1.743731 1_555
O17 Ta1 1.885617 1_555
O18 Si2 1.708161 1_555
O18 Ta3 1.944738 1_555
O19 S0 1.485294 1_555
O19 Ta2 2.195138 1_665
O20 Si3 1.741424 1_555
O20 Ta2 1.887158 1_555
O21 S1 1.505682 1_555
O21 Ta3 2.107096 1_545
O22 Si0 1.668388 1_555
O22 Ta2 2.022084 1_565
O23 Si1 1.730285 1_555
O23 Ta3 1.927882 1_555
O24 S4 1.447989 1_555
O24 Y4 2.315786 1_555
O25 S5 1.467357 1_555
O25 Y5 2.310198 1_555
O26 Si8 1.594316 1_555
O26 Y4 2.127862 1_555
O27 Si9 1.613185 1_555
O27 Y5 2.099515 1_555
O28 Si10 1.617282 1_555
O28 Y4 2.144000 1_555
O29 Si11 1.612905 1_555
O29 Y5 2.170505 1_555
O30 S6 1.472220 1_555
O30 Y6 2.302111 1_555
O31 S7 1.454115 1_555
O31 Y7 2.351893 1_555
O32 Si12 1.618154 1_555
O32 Y6 2.184128 1_555
O33 Si13 1.618268 1_555
O33 Y7 2.134948 1_555
O34 Si14 1.613817 1_555
O34 Y6 2.110561 1_555
O35 Si15 1.595819 1_555
O35 Y7 2.119770 1_555
O36 Si14 1.625645 1_555
O36 Y8 2.243828 1_554
O37 Si15 1.660159 1_555
O37 Y9 2.178220 1_554
O38 S6 1.466528 1_555
O38 Y8 2.412008 1_554
O39 S7 1.493745 1_555
O39 Y9 2.312321 1_554
O40 Si12 1.643096 1_555
O40 Y8 2.169819 1_554
O41 Si13 1.649813 1_555
O41 Y9 2.229249 1_554
O42 Si8 1.661038 1_555
O42 Y10 2.185667 1_555
O43 Si9 1.635150 1_555
O43 Y11 2.239124 1_555
O44 Si10 1.638946 1_555
O44 Y10 2.142064 1_555
O45 Si11 1.652791 1_555
O45 Y11 2.197291 1_555
O46 S4 1.503623 1_555
O46 Y10 2.395955 1_555
O47 S5 1.466783 1_555
O47 Y11 2.387936 1_555
O48 S8 1.479555 1_555
O48 Y12 2.210342 1_556
O49 Si16 1.615254 1_555
O49 Y13 2.085100 1_556
O50 S9 1.462290 1_555
O50 Y12 2.299649 1_556
O51 Si17 1.618106 1_555
O51 Y13 2.169459 1_556
O52 S10 1.480293 1_555
O52 Y12 2.330804 1_556
O53 S11 1.475249 1_555
O53 Y13 2.372029 1_556
O54 Si18 1.603056 1_555
O54 Y14 2.071155 1_555
O55 S12 1.474827 1_555
O55 Y15 2.248971 1_555
O56 S13 1.471562 1_555
O56 Y14 2.361988 1_555
O57 Si19 1.632679 1_555
O57 Y15 2.167244 1_555
O58 Si20 1.613991 1_555
O58 Y14 2.198038 1_555
O59 S14 1.466398 1_555
O59 Y15 2.295503 1_555
O60 Si20 1.722180 1_555
O60 Ta4 1.913026 1_555
O61 S14 1.486621 1_555
O61 Y16 2.267174 1_555
O62 Si18 1.723532 1_555
O62 Ta4 1.950127 1_555
O63 S12 1.493784 1_555
O63 Y16 2.334456 1_555
O64 S13 1.481633 1_555
O64 Ta4 2.336771 1_555
O65 Si19 1.645499 1_555
O65 Y16 2.122690 1_555
O66 S9 1.489072 1_555
O66 Y17 2.249582 1_555
O67 Si17 1.740075 1_555
O67 Ta5 1.893138 1_555
O68 S10 1.484569 1_555
O68 Y17 2.304956 1_555
O69 S11 1.489062 1_555
O69 Ta5 2.347042 1_555
O70 S8 1.505645 1_555
O70 Y17 2.285155 1_555
O71 Si16 1.728431 1_555
O71 Ta5 1.955962 1_555
O72 Si20 1.658912 1_555
O72 Y0 2.233093 1_565
O73 S14 1.479693 1_555
O73 Y1 2.342166 1_555
O74 Si18 1.618680 1_545
O74 Y1 2.232326 1_545
O75 S12 1.487042 1_555
O75 Y0 2.383460 1_665
O76 S13 1.499763 1_555
O76 Y0 2.299176 1_555
O77 Si19 1.640910 1_555
O77 Y1 2.262404 1_545
O78 S9 1.491612 1_555
O78 Y2 2.347793 1_555
O79 Si17 1.643882 1_555
O79 Y3 2.208129 1_555
O80 S10 1.483023 1_555
O80 Y2 2.347794 1_565
O81 S11 1.491346 1_555
O81 Y3 2.348407 1_565
O82 S8 1.474568 1_555
O82 Y3 2.354488 1_565
O83 Si16 1.620707 1_555
O83 Y2 2.219546 1_665
O84 S4 1.502495 1_555
O84 Ta1 2.311387 1_545
O85 S5 1.522060 1_555
O85 Ta0 2.091049 1_555
O86 Si8 1.706569 1_555
O86 Ta0 2.004555 1_455
O87 Si9 1.718736 1_555
O87 Ta1 1.897040 1_545
O88 Si10 1.688745 1_555
O88 Ta1 1.937160 1_555
O89 Si11 1.675873 1_555
O89 Ta0 1.989003 1_565
O90 S6 1.519516 1_555
O90 Ta3 2.087881 1_555
O91 S7 1.504594 1_555
O91 Ta2 2.284553 1_665
O92 Si12 1.675930 1_555
O92 Ta3 1.997900 1_545
O93 Si13 1.699002 1_555
O93 Ta2 1.943957 1_655
O94 Si14 1.718508 1_555
O94 Ta2 1.897220 1_555
O95 Si15 1.704792 1_555
O95 Ta3 2.005831 1_545
O96 S3 1.466551 1_545
O96 Y4 2.328732 1_555
O97 Si7 1.616192 1_545
O97 Y5 2.224719 1_555
O98 Si4 1.622000 1_555
O98 Y4 2.186596 1_555
O99 Si5 1.628533 1_555
O99 Y5 2.227388 1_555
O100 Si6 1.598246 1_555
O100 Y4 2.243532 1_555
O101 S2 1.466755 1_655
O101 Y5 2.412151 1_555
O102 Si2 1.611820 1_555
O102 Y6 2.224235 1_555
O103 S0 1.448974 1_555
O103 Y7 2.346377 1_555
O104 S1 1.470858 1_555
O104 Y6 2.411473 1_555
O105 Si3 1.595606 1_655
O105 Y7 2.236145 1_555
O106 Si0 1.621185 1_545
O106 Y6 2.226578 1_555
O107 Si1 1.629878 1_545
O107 Y7 2.196590 1_555
O108 S8 1.471470 1_555
O108 Y8 2.424523 1_555
O109 Si16 1.646514 1_555
O109 Y9 2.326213 1_555
O110 Si17 1.622292 1_555
O110 Y8 2.230464 1_555
O111 S9 1.492582 1_655
O111 Y9 2.448992 1_555
O112 S10 1.488976 1_545
O112 Y8 2.322281 1_555
O113 S11 1.498717 1_545
O113 Y9 2.454013 1_555
O114 Si18 1.661891 1_545
O114 Y10 2.385596 1_555
O115 S12 1.472373 1_545
O115 Y11 2.426057 1_555
O116 S13 1.500316 1_555
O116 Y10 2.400793 1_555
O117 Si19 1.654380 1_555
O117 Y11 2.192594 1_555
O118 S14 1.493389 1_555
O118 Y10 2.444728 1_555
O119 Si20 1.626146 1_655
O119 Y11 2.281789 1_555
O120 Si14 1.613531 1_555
O120 Y12 2.113096 1_555
O121 Si15 1.626906 1_555
O121 Y13 2.207207 1_555
O122 S7 1.485855 1_455
O122 Y12 2.350263 1_555
O123 S6 1.470292 1_555
O123 Y13 2.478870 1_555
O124 Si12 1.633223 1_565
O124 Y12 2.162917 1_555
O125 Si13 1.637232 1_565
O125 Y13 2.224044 1_555
O126 Si8 1.626778 1_565
O126 Y14 2.220037 1_555
O127 Si9 1.605191 1_565
O127 Y15 2.171165 1_555
O128 Si10 1.637341 1_555
O128 Y14 2.218392 1_555
O129 Si11 1.624642 1_555
O129 Y15 2.168670 1_555
O130 S5 1.470284 1_455
O130 Y14 2.523079 1_555
O131 S4 1.485348 1_555
O131 Y15 2.341056 1_555
O132 Si0 1.688200 1_555
O132 Ta4 1.931794 1_555
O133 Si1 1.650450 1_555
O133 Y16 2.231147 1_555
O134 Si2 1.681939 1_555
O134 Ta4 2.108326 1_555
O135 S0 1.502336 1_555
O135 Y16 2.383375 1_555
O136 Si3 1.659680 1_555
O136 Ta4 2.044295 1_555
O137 S1 1.478816 1_555
O137 Y16 2.336740 1_555
O138 Si4 1.659456 1_555
O138 Y17 2.138135 1_555
O139 Si5 1.690789 1_555
O139 Ta5 1.926150 1_555
O140 S2 1.478805 1_555
O140 Y17 2.354509 1_555
O141 Si6 1.666115 1_555
O141 Ta5 2.035292 1_555
O142 S3 1.497732 1_555
O142 Y17 2.384946 1_555
O143 Si7 1.679286 1_555
O143 Ta5 2.127211 1_555
