# generated using pymatgen
data_Na6Ta2Zn4Si3(SO6)6
_symmetry_space_group_name_H-M   'P 1'
_cell_length_a   8.92994317
_cell_length_b   8.92994286
_cell_length_c   22.40356978
_cell_angle_alpha   90.00000000
_cell_angle_beta   90.00000000
_cell_angle_gamma   120.00000109
_symmetry_Int_Tables_number   1
_chemical_formula_structural   Na6Ta2Zn4Si3(SO6)6
_chemical_formula_sum   'Na12 Ta4 Zn8 Si6 S12 O72'
_cell_volume   1547.19561689
_cell_formula_units_Z   2
loop_
 _symmetry_equiv_pos_site_id
 _symmetry_equiv_pos_as_xyz
  1  'x, y, z'
loop_
 _atom_site_type_symbol
 _atom_site_label
 _atom_site_symmetry_multiplicity
 _atom_site_fract_x
 _atom_site_fract_y
 _atom_site_fract_z
 _atom_site_occupancy
  Na  Na0  1  0.98679425  0.69430023  0.91679352  1
  Na  Na1  1  0.70750498  0.01320575  0.91679352  1
  Na  Na2  1  0.30569977  0.29249502  0.91679352  1
  Na  Na3  1  0.98679425  0.29249502  0.41679352  1
  Na  Na4  1  0.30569977  0.01320575  0.41679352  1
  Na  Na5  1  0.70750498  0.69430023  0.41679352  1
  Na  Na6  1  -0.00000000  -0.00000000  0.49852923  1
  Na  Na7  1  -0.00000000  -0.00000000  0.99852923  1
  Na  Na8  1  0.66666700  0.33333300  0.82189007  1
  Na  Na9  1  0.66666700  0.33333300  0.32189007  1
  Na  Na10  1  0.33333300  0.66666700  0.15698881  1
  Na  Na11  1  0.33333300  0.66666700  0.65698881  1
  Ta  Ta0  1  0.66666700  0.33333300  0.98000283  1
  Ta  Ta1  1  0.66666700  0.33333300  0.48000283  1
  Ta  Ta2  1  0.33333300  0.66666700  0.31701647  1
  Ta  Ta3  1  0.33333300  0.66666700  0.81701647  1
  Zn  Zn0  1  -0.00000000  -0.00000000  0.35111027  1
  Zn  Zn1  1  -0.00000000  -0.00000000  0.85111027  1
  Zn  Zn2  1  -0.00000000  -0.00000000  0.64986613  1
  Zn  Zn3  1  -0.00000000  -0.00000000  0.14986613  1
  Zn  Zn4  1  0.66666700  0.33333300  0.68227123  1
  Zn  Zn5  1  0.66666700  0.33333300  0.18227123  1
  Zn  Zn6  1  0.33333300  0.66666700  0.00820000  1
  Zn  Zn7  1  0.33333300  0.66666700  0.50820000  1
  Si  Si0  1  0.62581893  0.66848663  0.91994805  1
  Si  Si1  1  0.04266670  0.37418107  0.91994805  1
  Si  Si2  1  0.33151337  0.95733330  0.91994805  1
  Si  Si3  1  0.62581893  0.95733330  0.41994805  1
  Si  Si4  1  0.33151337  0.37418107  0.41994805  1
  Si  Si5  1  0.04266670  0.66848663  0.41994805  1
  S  S0  1  0.29887536  0.99785844  0.24934107  1
  S  S1  1  0.69898307  0.70112464  0.24934107  1
  S  S2  1  0.00214156  0.30101693  0.24934107  1
  S  S3  1  0.29887536  0.30101693  0.74934107  1
  S  S4  1  0.00214156  0.70112464  0.74934107  1
  S  S5  1  0.69898307  0.99785844  0.74934107  1
  S  S6  1  0.95894319  0.33096699  0.58607533  1
  S  S7  1  0.37202480  0.04105681  0.58607533  1
  S  S8  1  0.66903301  0.62797520  0.58607533  1
  S  S9  1  0.95894319  0.62797520  0.08607533  1
  S  S10  1  0.66903301  0.04105681  0.08607533  1
  S  S11  1  0.37202480  0.33096699  0.08607533  1
  O  O0  1  0.22223023  0.01517327  0.30555825  1
  O  O1  1  0.79294305  0.77776977  0.30555825  1
  O  O2  1  0.98482673  0.20705695  0.30555825  1
  O  O3  1  0.22223023  0.20705695  0.80555825  1
  O  O4  1  0.98482673  0.77776977  0.80555825  1
  O  O5  1  0.79294305  0.01517327  0.80555825  1
  O  O6  1  0.78291083  0.97429183  0.69652869  1
  O  O7  1  0.19138100  0.21708917  0.69652869  1
  O  O8  1  0.02570817  0.80861900  0.69652869  1
  O  O9  1  0.78291083  0.80861900  0.19652869  1
  O  O10  1  0.02570817  0.21708917  0.19652869  1
  O  O11  1  0.19138100  0.97429183  0.19652869  1
  O  O12  1  0.86746754  0.34267018  0.63878041  1
  O  O13  1  0.47520364  0.13253246  0.63878041  1
  O  O14  1  0.65732982  0.52479636  0.63878041  1
  O  O15  1  0.86746754  0.52479636  0.13878041  1
  O  O16  1  0.65732982  0.13253246  0.13878041  1
  O  O17  1  0.47520364  0.34267018  0.13878041  1
  O  O18  1  0.47115089  0.32094335  0.03001131  1
  O  O19  1  0.84979346  0.52884911  0.03001131  1
  O  O20  1  0.67905665  0.15020654  0.03001131  1
  O  O21  1  0.47115089  0.15020654  0.53001131  1
  O  O22  1  0.67905665  0.52884911  0.53001131  1
  O  O23  1  0.84979346  0.32094335  0.53001131  1
  O  O24  1  0.55750279  0.72270444  0.97640046  1
  O  O25  1  0.16520065  0.44249721  0.97640046  1
  O  O26  1  0.27729556  0.83479935  0.97640046  1
  O  O27  1  0.55750279  0.83479935  0.47640046  1
  O  O28  1  0.27729556  0.44249721  0.47640046  1
  O  O29  1  0.16520065  0.72270444  0.47640046  1
  O  O30  1  0.13319257  0.62187159  0.36146931  1
  O  O31  1  0.48867802  0.86680743  0.36146931  1
  O  O32  1  0.37812841  0.51132198  0.36146931  1
  O  O33  1  0.13319257  0.51132198  0.86146931  1
  O  O34  1  0.37812841  0.86680743  0.86146931  1
  O  O35  1  0.48867802  0.62187159  0.86146931  1
  O  O36  1  0.99882437  0.81828486  0.40611188  1
  O  O37  1  0.81946049  0.00117563  0.40611188  1
  O  O38  1  0.18171514  0.18053951  0.40611188  1
  O  O39  1  0.99882437  0.18053951  0.90611188  1
  O  O40  1  0.18171514  0.00117563  0.90611188  1
  O  O41  1  0.81946049  0.81828486  0.90611188  1
  O  O42  1  0.96286457  0.16744042  0.58438302  1
  O  O43  1  0.20457585  0.03713543  0.58438302  1
  O  O44  1  0.83255958  0.79542415  0.58438302  1
  O  O45  1  0.96286457  0.79542415  0.08438302  1
  O  O46  1  0.83255958  0.03713543  0.08438302  1
  O  O47  1  0.20457585  0.16744042  0.08438302  1
  O  O48  1  0.67188200  0.14806013  0.74441688  1
  O  O49  1  0.47617913  0.32811800  0.74441688  1
  O  O50  1  0.85193987  0.52382087  0.74441688  1
  O  O51  1  0.67188200  0.52382087  0.24441688  1
  O  O52  1  0.85193987  0.32811800  0.24441688  1
  O  O53  1  0.47617913  0.14806013  0.24441688  1
  O  O54  1  0.62767983  0.48288307  0.92684187  1
  O  O55  1  0.85520425  0.37232017  0.92684187  1
  O  O56  1  0.51711693  0.14479575  0.92684187  1
  O  O57  1  0.62767983  0.14479575  0.42684187  1
  O  O58  1  0.51711693  0.37232017  0.42684187  1
  O  O59  1  0.85520425  0.48288307  0.42684187  1
  O  O60  1  0.35738235  0.48574213  0.08191050  1
  O  O61  1  0.12835878  0.64261765  0.08191050  1
  O  O62  1  0.51425787  0.87164122  0.08191050  1
  O  O63  1  0.35738235  0.87164122  0.58191050  1
  O  O64  1  0.51425787  0.64261765  0.58191050  1
  O  O65  1  0.12835878  0.48574213  0.58191050  1
  O  O66  1  0.31324781  0.83346073  0.25347144  1
  O  O67  1  0.52021192  0.68675219  0.25347144  1
  O  O68  1  0.16653927  0.47978808  0.25347144  1
  O  O69  1  0.31324781  0.47978808  0.75347144  1
  O  O70  1  0.16653927  0.68675219  0.75347144  1
  O  O71  1  0.52021192  0.83346073  0.75347144  1
loop_
_geom_bond_atom_site_label_1
_geom_bond_atom_site_label_2
_geom_bond_distance
_geom_bond_site_symmetry_2
Na0 O41 2.273854 1_555
Na0 O40 2.413868 1_665
Na0 O55 2.513953 1_555
Na0 O4 2.603727 1_555
Na0 O26 2.613879 1_655
Na0 O54 2.800829 1_555
Na0 O33 2.837505 1_655
Na0 O19 2.881985 1_556
Na1 O39 2.273861 1_555
Na1 O41 2.413874 1_545
Na1 O56 2.513937 1_555
Na1 O5 2.603729 1_555
Na1 O24 2.613879 1_545
Na1 O55 2.800827 1_555
Na1 O34 2.837505 1_545
Na1 O20 2.881980 1_556
Na2 O40 2.273862 1_555
Na2 O39 2.413866 1_455
Na2 O54 2.513952 1_555
Na2 O3 2.603728 1_555
Na2 O25 2.613879 1_555
Na2 O56 2.800843 1_555
Na2 O35 2.837505 1_555
Na2 O18 2.881988 1_556
Na3 O37 2.273861 1_555
Na3 O38 2.413875 1_655
Na3 O59 2.513937 1_555
Na3 O2 2.603729 1_555
Na3 O28 2.613879 1_655
Na3 O57 2.800827 1_555
Na3 O30 2.837505 1_655
Na3 O23 2.881980 1_555
Na4 O38 2.273854 1_555
Na4 O36 2.413868 1_445
Na4 O57 2.513953 1_555
Na4 O0 2.603727 1_555
Na4 O29 2.613879 1_545
Na4 O58 2.800829 1_555
Na4 O31 2.837505 1_545
Na4 O21 2.881985 1_555
Na5 O36 2.273862 1_555
Na5 O37 2.413866 1_565
Na5 O58 2.513951 1_555
Na5 O1 2.603728 1_555
Na5 O27 2.613879 1_555
Na5 O59 2.800843 1_555
Na5 O32 2.837505 1_555
Na5 O22 2.881988 1_555
Na6 O44 2.557563 1_445
Na6 O42 2.557563 1_455
Na6 O43 2.557563 1_555
Na6 O36 2.627381 1_445
Na6 O38 2.627381 1_555
Na6 O37 2.627381 1_455
Na7 O45 2.557563 1_446
Na7 O47 2.557563 1_556
Na7 O46 2.557563 1_456
Na7 O39 2.627381 1_455
Na7 O41 2.627381 1_445
Na7 O40 2.627381 1_555
Na8 O50 2.414349 1_555
Na8 O48 2.414349 1_555
Na8 O49 2.414349 1_555
Na8 O54 2.810380 1_555
Na8 O56 2.810380 1_555
Na8 O55 2.810380 1_555
Na9 O51 2.414349 1_555
Na9 O53 2.414349 1_555
Na9 O52 2.414349 1_555
Na9 O58 2.810380 1_555
Na9 O59 2.810380 1_555
Na9 O57 2.810380 1_555
Na10 O62 2.415081 1_555
Na10 O60 2.415081 1_555
Na10 O61 2.415081 1_555
Na10 O68 2.681441 1_555
Na10 O66 2.681441 1_555
Na10 O67 2.681441 1_555
Na11 O63 2.415081 1_555
Na11 O65 2.415081 1_555
Na11 O64 2.415081 1_555
Na11 O69 2.681441 1_555
Na11 O71 2.681441 1_555
Na11 O70 2.681441 1_555
O0 S0 1.477986 1_545
O0 Zn0 2.174672 1_555
O1 S1 1.477986 1_555
O1 Zn0 2.174672 1_665
O2 S2 1.477986 1_655
O2 Zn0 2.174671 1_655
O3 S3 1.477986 1_555
O3 Zn1 2.174672 1_555
O4 S4 1.477986 1_655
O4 Zn1 2.174672 1_665
O5 S5 1.477986 1_545
O5 Zn1 2.174672 1_655
O6 S5 1.470934 1_555
O6 Zn2 2.111559 1_665
O7 S3 1.470934 1_555
O7 Zn2 2.111559 1_555
O8 S4 1.470934 1_555
O8 Zn2 2.111559 1_565
O9 S1 1.470934 1_555
O9 Zn3 2.111559 1_665
O10 S2 1.470934 1_555
O10 Zn3 2.111559 1_555
O11 S0 1.470934 1_555
O11 Zn3 2.111559 1_565
O12 S6 1.468952 1_555
O12 Zn4 2.005527 1_555
O13 S7 1.468952 1_555
O13 Zn4 2.005527 1_555
O14 S8 1.468952 1_555
O14 Zn4 2.005527 1_555
O15 S9 1.468952 1_555
O15 Zn5 2.005527 1_555
O16 S10 1.468952 1_555
O16 Zn5 2.005527 1_555
O17 S11 1.468952 1_555
O17 Zn5 2.005527 1_555
O18 S11 1.564746 1_555
O18 Ta0 2.030426 1_554
O19 S9 1.564746 1_555
O19 Ta0 2.030426 1_554
O20 S10 1.564746 1_555
O20 Ta0 2.030426 1_554
O21 S7 1.564746 1_555
O21 Ta1 2.030426 1_555
O22 S8 1.564746 1_555
O22 Ta1 2.030426 1_555
O23 S6 1.564746 1_555
O23 Ta1 2.030426 1_555
O24 Si0 1.581616 1_555
O24 Zn6 1.939980 1_556
O25 Si1 1.581616 1_555
O25 Zn6 1.939979 1_556
O26 Si2 1.581616 1_555
O26 Zn6 1.939980 1_556
O27 Si3 1.581616 1_555
O27 Zn7 1.939980 1_555
O28 Si4 1.581616 1_555
O28 Zn7 1.939979 1_555
O29 Si5 1.581616 1_555
O29 Zn7 1.939980 1_555
O30 Si5 1.696977 1_555
O30 Ta2 1.905555 1_555
O31 Si3 1.696977 1_555
O31 Ta2 1.905555 1_555
O32 Si4 1.696977 1_555
O32 Ta2 1.905555 1_555
O33 Si1 1.696977 1_555
O33 Ta3 1.905555 1_555
O34 Si2 1.696977 1_555
O34 Ta3 1.905555 1_555
O35 Si0 1.696977 1_555
O35 Ta3 1.905555 1_555
O36 Si5 1.600781 1_655
O36 Zn0 2.033383 1_665
O37 Si3 1.600789 1_545
O37 Zn0 2.033383 1_655
O38 Si4 1.600787 1_555
O38 Zn0 2.033383 1_555
O39 Si1 1.600789 1_655
O39 Zn1 2.033383 1_655
O40 Si2 1.600781 1_545
O40 Zn1 2.033383 1_555
O41 Si0 1.600787 1_555
O41 Zn1 2.033383 1_665
O42 S6 1.478589 1_555
O42 Zn2 2.234679 1_655
O43 S7 1.478598 1_555
O43 Zn2 2.234679 1_555
O44 S8 1.478594 1_555
O44 Zn2 2.234679 1_665
O45 S9 1.478598 1_555
O45 Zn3 2.234679 1_665
O46 S10 1.478589 1_555
O46 Zn3 2.234679 1_655
O47 S11 1.478594 1_555
O47 Zn3 2.234679 1_555
O48 S5 1.481355 1_545
O48 Zn4 2.180588 1_555
O49 S3 1.481364 1_555
O49 Zn4 2.180588 1_555
O50 S4 1.481361 1_655
O50 Zn4 2.180588 1_555
O51 S1 1.481364 1_555
O51 Zn5 2.180588 1_555
O52 S2 1.481355 1_655
O52 Zn5 2.180588 1_555
O53 S0 1.481361 1_545
O53 Zn5 2.180588 1_555
O54 Si0 1.672945 1_555
O54 Ta0 1.946309 1_555
O55 Si1 1.672927 1_655
O55 Ta0 1.946309 1_555
O56 Si2 1.672936 1_545
O56 Ta0 1.946309 1_555
O57 Si3 1.672927 1_545
O57 Ta1 1.946309 1_555
O58 Si4 1.672945 1_555
O58 Ta1 1.946309 1_555
O59 Si5 1.672936 1_655
O59 Ta1 1.946309 1_555
O60 S11 1.454929 1_555
O60 Zn6 2.393840 1_555
O61 S9 1.454911 1_455
O61 Zn6 2.393840 1_555
O62 S10 1.454919 1_565
O62 Zn6 2.393840 1_555
O63 S7 1.454911 1_565
O63 Zn7 2.393840 1_555
O64 S8 1.454929 1_555
O64 Zn7 2.393840 1_555
O65 S6 1.454919 1_455
O65 Zn7 2.393840 1_555
O66 S0 1.539045 1_555
O66 Ta2 2.131793 1_555
O67 S1 1.539054 1_555
O67 Ta2 2.131793 1_555
O68 S2 1.539050 1_555
O68 Ta2 2.131793 1_555
O69 S3 1.539054 1_555
O69 Ta3 2.131793 1_555
O70 S4 1.539045 1_555
O70 Ta3 2.131793 1_555
O71 S5 1.539050 1_555
O71 Ta3 2.131793 1_555
