# generated using pymatgen
data_MgMn4Zn2O8
_symmetry_space_group_name_H-M   'P 1'
_cell_length_a   6.25802583
_cell_length_b   5.93717539
_cell_length_c   6.12834175
_cell_angle_alpha   118.09735327
_cell_angle_beta   116.83264259
_cell_angle_gamma   90.57601952
_symmetry_Int_Tables_number   1
_chemical_formula_structural   MgMn4Zn2O8
_chemical_formula_sum   'Mg1 Mn4 Zn2 O8'
_cell_volume   171.91786578
_cell_formula_units_Z   1
loop_
 _symmetry_equiv_pos_site_id
 _symmetry_equiv_pos_as_xyz
  1  'x, y, z'
loop_
 _atom_site_type_symbol
 _atom_site_label
 _atom_site_symmetry_multiplicity
 _atom_site_fract_x
 _atom_site_fract_y
 _atom_site_fract_z
 _atom_site_occupancy
  Mg  Mg0  1  0.99997900  0.49992800  0.49999600  1
  Mn  Mn0  1  0.00004100  0.00015000  0.99997400  1
  Mn  Mn1  1  0.49989400  0.00009200  0.50003300  1
  Mn  Mn2  1  0.99999800  0.00002900  0.50009400  1
  Mn  Mn3  1  0.99997900  0.49995900  0.99996000  1
  Zn  Zn0  1  0.54194900  0.36388500  0.21057800  1
  Zn  Zn1  1  0.45808700  0.63606600  0.78944500  1
  O  O0  1  0.76420800  0.75113300  0.50427900  1
  O  O1  1  0.78462300  0.27434000  0.02562500  1
  O  O2  1  0.19098600  0.24220800  0.96603600  1
  O  O3  1  0.23577500  0.24882000  0.49572300  1
  O  O4  1  0.24419400  0.74915600  0.50812300  1
  O  O5  1  0.21533600  0.72564600  0.97433300  1
  O  O6  1  0.75577000  0.25073000  0.49181500  1
  O  O7  1  0.80918300  0.75785800  0.03398700  1
loop_
_geom_bond_atom_site_label_1
_geom_bond_atom_site_label_2
_geom_bond_distance
_geom_bond_site_symmetry_2
Mg0 O6 2.083896 1_555
Mg0 O4 2.084258 1_655
Mg0 O3 2.107884 1_655
Mg0 O0 2.108181 1_555
Mg0 O5 2.195408 1_655
Mg0 O1 2.195581 1_555
Mn0 O2 2.001972 1_555
Mn0 O7 2.003010 1_446
Mn0 O1 2.118149 1_456
Mn0 O5 2.119008 1_545
Mn0 O0 2.295724 1_445
Mn0 O3 2.295913 1_556
Mn1 O4 2.208154 1_545
Mn1 O6 2.208281 1_555
Mn1 O3 2.227067 1_555
Mn1 O0 2.228906 1_545
Mn1 O1 2.453833 1_556
Mn1 O5 2.454187 1_544
Mn2 O0 2.094691 1_545
Mn2 O3 2.094950 1_655
Mn2 O6 2.144972 1_555
Mn2 O4 2.145514 1_645
Mn2 O2 2.160234 1_655
Mn2 O7 2.161054 1_545
Mn3 O7 1.942797 1_556
Mn3 O2 1.943021 1_655
Mn3 O1 1.997230 1_556
Mn3 O5 1.997355 1_655
Mn3 O6 2.353796 1_555
Mn3 O4 2.353879 1_656
O0 Zn0 2.058643 1_555
O1 Zn0 2.208232 1_555
O2 Zn0 1.889052 1_556
O3 Zn1 2.058729 1_555
O4 Zn1 2.059114 1_555
O5 Zn1 2.208395 1_555
O6 Zn0 2.058907 1_555
O7 Zn1 1.889717 1_554
