# generated using pymatgen
data_Ca5Bi3
_symmetry_space_group_name_H-M   'P 1'
_cell_length_a   8.45646583
_cell_length_b   9.74661443
_cell_length_c   12.78908941
_cell_angle_alpha   90.00000000
_cell_angle_beta   90.00002332
_cell_angle_gamma   90.00000000
_symmetry_Int_Tables_number   1
_chemical_formula_structural   Ca5Bi3
_chemical_formula_sum   'Ca20 Bi12'
_cell_volume   1054.10120045
_cell_formula_units_Z   4
loop_
 _symmetry_equiv_pos_site_id
 _symmetry_equiv_pos_as_xyz
  1  'x, y, z'
loop_
 _atom_site_type_symbol
 _atom_site_label
 _atom_site_symmetry_multiplicity
 _atom_site_fract_x
 _atom_site_fract_y
 _atom_site_fract_z
 _atom_site_occupancy
  Ca  Ca0  1  0.30591055  0.95678998  0.92500034  1
  Ca  Ca1  1  0.80591055  0.04321002  0.57500066  1
  Ca  Ca2  1  0.69409045  0.45678998  0.07499966  1
  Ca  Ca3  1  0.19408945  0.54321002  0.42500034  1
  Ca  Ca4  1  0.69408945  0.04321002  0.07499966  1
  Ca  Ca5  1  0.19408945  0.95678998  0.42500034  1
  Ca  Ca6  1  0.30591055  0.54321002  0.92500034  1
  Ca  Ca7  1  0.80591055  0.45678998  0.57500066  1
  Ca  Ca8  1  0.68029100  0.75000000  0.77124580  1
  Ca  Ca9  1  0.18029100  0.25000000  0.72875520  1
  Ca  Ca10  1  0.31971000  0.25000000  0.22875420  1
  Ca  Ca11  1  0.81970900  0.75000000  0.27124480  1
  Ca  Ca12  1  0.15176291  0.75000000  0.70998138  1
  Ca  Ca13  1  0.65176391  0.25000000  0.79001862  1
  Ca  Ca14  1  0.84823609  0.25000000  0.29001862  1
  Ca  Ca15  1  0.34823609  0.75000000  0.20998138  1
  Ca  Ca16  1  0.53527692  0.75000000  0.49426034  1
  Ca  Ca17  1  0.03527592  0.25000000  0.00573966  1
  Ca  Ca18  1  0.46472308  0.25000000  0.50574066  1
  Ca  Ca19  1  0.96472308  0.75000000  0.99425934  1
  Bi  Bi0  1  0.93489512  0.01310661  0.82907949  1
  Bi  Bi1  1  0.43489512  0.98689339  0.67092151  1
  Bi  Bi2  1  0.06510488  0.51310661  0.17091951  1
  Bi  Bi3  1  0.56510488  0.48689339  0.32907949  1
  Bi  Bi4  1  0.06510488  0.98689339  0.17091951  1
  Bi  Bi5  1  0.56510488  0.01310661  0.32907949  1
  Bi  Bi6  1  0.93489512  0.48689339  0.82907949  1
  Bi  Bi7  1  0.43489512  0.51310661  0.67092151  1
  Bi  Bi8  1  0.57765925  0.75000000  0.01651836  1
  Bi  Bi9  1  0.07765925  0.25000000  0.48348164  1
  Bi  Bi10  1  0.42234075  0.25000000  0.98348164  1
  Bi  Bi11  1  0.92234175  0.75000000  0.51651836  1
loop_
_geom_bond_atom_site_label_1
_geom_bond_atom_site_label_2
_geom_bond_distance
_geom_bond_site_symmetry_2
Bi0 Ca19 3.332029 1_545
Bi0 Ca17 3.340085 1_656
Bi0 Ca9 3.359118 1_655
Bi0 Ca13 3.363515 1_555
Bi0 Ca0 3.413203 1_645
Bi0 Ca8 3.429116 1_545
Bi0 Ca1 3.440155 1_555
Bi0 Ca12 3.501352 1_645
Bi0 Ca4 3.758257 1_556
Bi1 Ca18 3.332038 1_565
Bi1 Ca16 3.340097 1_555
Bi1 Ca8 3.359117 1_555
Bi1 Ca12 3.363519 1_555
Bi1 Ca1 3.413204 1_565
Bi1 Ca9 3.429116 1_565
Bi1 Ca0 3.440156 1_555
Bi1 Ca13 3.501350 1_565
Bi1 Ca5 3.758267 1_555
Bi2 Ca17 3.332030 1_555
Bi2 Ca19 3.340088 1_454
Bi2 Ca11 3.359123 1_455
Bi2 Ca15 3.363517 1_555
Bi2 Ca2 3.413190 1_455
Bi2 Ca10 3.429124 1_555
Bi2 Ca3 3.440179 1_555
Bi2 Ca14 3.501362 1_455
Bi2 Ca6 3.758247 1_554
Bi3 Ca16 3.332038 1_555
Bi3 Ca18 3.340097 1_555
Bi3 Ca10 3.359117 1_555
Bi3 Ca14 3.363515 1_555
Bi3 Ca3 3.413204 1_555
Bi3 Ca11 3.429119 1_555
Bi3 Ca2 3.440171 1_555
Bi3 Ca15 3.501356 1_555
Bi3 Ca7 3.758267 1_555
Bi4 Ca17 3.332030 1_565
Bi4 Ca19 3.340088 1_454
Bi4 Ca11 3.359123 1_455
Bi4 Ca15 3.363517 1_555
Bi4 Ca4 3.413198 1_465
Bi4 Ca10 3.429124 1_565
Bi4 Ca5 3.440179 1_555
Bi4 Ca14 3.501362 1_465
Bi4 Ca0 3.758247 1_554
Bi5 Ca16 3.332038 1_545
Bi5 Ca18 3.340097 1_555
Bi5 Ca10 3.359117 1_555
Bi5 Ca14 3.363515 1_555
Bi5 Ca5 3.413204 1_545
Bi5 Ca11 3.429119 1_545
Bi5 Ca4 3.440168 1_555
Bi5 Ca15 3.501356 1_545
Bi5 Ca1 3.758267 1_555
Bi6 Ca19 3.332029 1_555
Bi6 Ca17 3.340085 1_656
Bi6 Ca9 3.359118 1_655
Bi6 Ca13 3.363515 1_555
Bi6 Ca6 3.413203 1_655
Bi6 Ca8 3.429116 1_555
Bi6 Ca7 3.440155 1_555
Bi6 Ca12 3.501352 1_655
Bi6 Ca2 3.758253 1_556
Bi7 Ca18 3.332038 1_555
Bi7 Ca16 3.340097 1_555
Bi7 Ca8 3.359117 1_555
Bi7 Ca12 3.363519 1_555
Bi7 Ca7 3.413204 1_555
Bi7 Ca9 3.429116 1_555
Bi7 Ca6 3.440156 1_555
Bi7 Ca13 3.501350 1_555
Bi7 Ca3 3.758267 1_555
Bi8 Ca4 3.113816 1_565
Bi8 Ca2 3.113819 1_555
Bi8 Ca15 3.144165 1_555
Bi8 Ca8 3.254666 1_554
Bi8 Ca6 3.273090 1_554
Bi8 Ca0 3.273090 1_554
Bi8 Ca19 3.285548 1_554
Bi9 Ca5 3.113816 1_545
Bi9 Ca3 3.113816 1_555
Bi9 Ca14 3.144163 1_455
Bi9 Ca9 3.254677 1_555
Bi9 Ca7 3.273095 1_455
Bi9 Ca1 3.273095 1_455
Bi9 Ca18 3.285548 1_555
Bi10 Ca0 3.113816 1_545
Bi10 Ca6 3.113816 1_555
Bi10 Ca13 3.144165 1_555
Bi10 Ca10 3.254664 1_556
Bi10 Ca4 3.273090 1_556
Bi10 Ca2 3.273096 1_556
Bi10 Ca17 3.285555 1_556
Bi11 Ca7 3.113822 1_555
Bi11 Ca1 3.113822 1_565
Bi11 Ca12 3.144153 1_655
Bi11 Ca11 3.254680 1_555
Bi11 Ca3 3.273085 1_655
Bi11 Ca5 3.273085 1_655
Bi11 Ca16 3.285555 1_555
