# generated using pymatgen
data_Na7La3ZnSi3(SO8)3
_symmetry_space_group_name_H-M   'P 1'
_cell_length_a   9.67390249
_cell_length_b   9.58958667
_cell_length_c   23.63230361
_cell_angle_alpha   89.45171722
_cell_angle_beta   90.00283946
_cell_angle_gamma   119.50106826
_symmetry_Int_Tables_number   1
_chemical_formula_structural   Na7La3ZnSi3(SO8)3
_chemical_formula_sum   'Na21 La9 Zn3 Si9 S9 O72'
_cell_volume   1907.97960750
_cell_formula_units_Z   3
loop_
 _symmetry_equiv_pos_site_id
 _symmetry_equiv_pos_as_xyz
  1  'x, y, z'
loop_
 _atom_site_type_symbol
 _atom_site_label
 _atom_site_symmetry_multiplicity
 _atom_site_fract_x
 _atom_site_fract_y
 _atom_site_fract_z
 _atom_site_occupancy
  Na  Na0  1  0.64111877  0.00909546  0.23759274  1
  Na  Na1  1  0.40610518  0.37426533  0.23468130  1
  Na  Na2  1  0.96750418  0.62167652  0.25428151  1
  Na  Na3  1  0.62645809  0.61780397  0.73187376  1
  Na  Na4  1  0.97817999  0.33938415  0.74391826  1
  Na  Na5  1  0.39731314  0.03651932  0.75287668  1
  Na  Na6  1  0.00913858  0.69408639  0.57448545  1
  Na  Na7  1  0.67107490  0.94935159  0.58968626  1
  Na  Na8  1  0.32490920  0.99507779  0.08147668  1
  Na  Na9  1  0.65488680  0.69550784  0.10126875  1
  Na  Na10  1  0.68202456  0.03546480  0.91577572  1
  Na  Na11  1  0.34041986  0.28947647  0.91899286  1
  Na  Na12  1  0.95740068  0.28698674  0.40276062  1
  Na  Na13  1  0.31452777  0.01070603  0.40788079  1
  Na  Na14  1  0.71912718  0.68490894  0.41682430  1
  Na  Na15  1  0.97887383  0.97623895  0.48798379  1
  Na  Na16  1  0.02372174  0.02022345  0.00564473  1
  Na  Na17  1  0.64508640  0.30869256  0.82354173  1
  Na  Na18  1  0.68253094  0.34961003  0.32533038  1
  Na  Na19  1  0.35347109  0.65750845  0.16287719  1
  Na  Na20  1  0.36170996  0.64703104  0.66783143  1
  La  La0  1  0.01244642  0.00669903  0.84453662  1
  La  La1  1  0.00209595  0.00808808  0.65295318  1
  La  La2  1  0.99032620  0.01364034  0.15089508  1
  La  La3  1  0.66404096  0.32469191  0.98907129  1
  La  La4  1  0.66977185  0.34305628  0.48444232  1
  La  La5  1  0.32955095  0.67284110  0.02080461  1
  La  La6  1  0.34900582  0.66864809  0.51470541  1
  La  La7  1  0.34440829  0.67683009  0.32024875  1
  La  La8  1  0.34073719  0.68103149  0.81722462  1
  Zn  Zn0  1  0.94608189  0.93829380  0.35293465  1
  Zn  Zn1  1  0.63949508  0.33410521  0.68467063  1
  Zn  Zn2  1  0.65427439  0.33013540  0.16900968  1
  Si  Si0  1  0.69530912  0.68121492  0.24915015  1
  Si  Si1  1  0.31532401  0.31331130  0.75187299  1
  Si  Si2  1  0.69357016  0.01583865  0.74673210  1
  Si  Si3  1  0.66864916  0.63444298  0.58827888  1
  Si  Si4  1  0.65917731  0.02954809  0.08841172  1
  Si  Si5  1  0.36816838  0.33581544  0.08560924  1
  Si  Si6  1  0.33276248  0.98203285  0.91713017  1
  Si  Si7  1  0.65224403  0.97962263  0.41484531  1
  Si  Si8  1  0.03185472  0.67508284  0.41671233  1
  S  S0  1  0.30282843  0.00620900  0.25200959  1
  S  S1  1  0.99687772  0.30535950  0.25712509  1
  S  S2  1  0.99070703  0.68017935  0.74630544  1
  S  S3  1  0.96618632  0.34034446  0.58650199  1
  S  S4  1  0.36873326  0.02775730  0.58617029  1
  S  S5  1  0.96453778  0.63228295  0.09003177  1
  S  S6  1  0.64063273  0.67108014  0.91722473  1
  S  S7  1  0.02667507  0.35774773  0.91408244  1
  S  S8  1  0.32015727  0.34578758  0.41332934  1
  O  O0  1  0.21994927  0.01393365  0.30355318  1
  O  O1  1  0.80172513  0.76449207  0.30644527  1
  O  O2  1  0.99379783  0.21594136  0.30892429  1
  O  O3  1  0.23830411  0.21448783  0.81169514  1
  O  O4  1  0.97577875  0.76932950  0.79508353  1
  O  O5  1  0.80360611  0.03824486  0.80368488  1
  O  O6  1  0.77579812  0.97792222  0.69207646  1
  O  O7  1  0.18801015  0.21112915  0.70202195  1
  O  O8  1  0.01736041  0.77750961  0.69376659  1
  O  O9  1  0.78062874  0.79903072  0.19408543  1
  O  O10  1  0.01908821  0.22750059  0.20650885  1
  O  O11  1  0.21060155  0.99660183  0.20032679  1
  O  O12  1  0.87892028  0.34396237  0.63663087  1
  O  O13  1  0.46126114  0.11694931  0.63570521  1
  O  O14  1  0.66495878  0.52757333  0.64358002  1
  O  O15  1  0.88032306  0.53918507  0.14143382  1
  O  O16  1  0.66032936  0.13646581  0.14338713  1
  O  O17  1  0.48096842  0.35701384  0.14086679  1
  O  O18  1  0.45255402  0.32497166  0.02643215  1
  O  O19  1  0.87800116  0.55320906  0.03792912  1
  O  O20  1  0.67125864  0.11836982  0.02746517  1
  O  O21  1  0.44242033  0.11304518  0.53211554  1
  O  O22  1  0.67580664  0.55255331  0.52815614  1
  O  O23  1  0.87891988  0.33154353  0.53314832  1
  O  O24  1  0.55115740  0.67770337  0.96752747  1
  O  O25  1  0.12739063  0.45046986  0.96227426  1
  O  O26  1  0.32951422  0.87909934  0.97372261  1
  O  O27  1  0.56533724  0.86404765  0.47089745  1
  O  O28  1  0.30712711  0.43404670  0.46275133  1
  O  O29  1  0.13810484  0.69124547  0.47405937  1
  O  O30  1  0.11593721  0.64427328  0.36137169  1
  O  O31  1  0.53917045  0.89525793  0.35970999  1
  O  O32  1  0.34914700  0.44561594  0.36143529  1
  O  O33  1  0.10286228  0.43706458  0.85984399  1
  O  O34  1  0.34034285  0.89104636  0.85922471  1
  O  O35  1  0.54637686  0.65509893  0.86527507  1
  O  O36  1  0.02675893  0.84522064  0.41203581  1
  O  O37  1  0.82949921  0.99405495  0.41003210  1
  O  O38  1  0.17468640  0.18926793  0.40977217  1
  O  O39  1  0.00954768  0.19328397  0.91769607  1
  O  O40  1  0.17874463  0.01230697  0.91901825  1
  O  O41  1  0.79436629  0.82365461  0.91483211  1
  O  O42  1  0.98501672  0.19436277  0.58564203  1
  O  O43  1  0.20124462  0.99587208  0.58763139  1
  O  O44  1  0.83540965  0.81369885  0.58637970  1
  O  O45  1  0.98067754  0.79600958  0.09034386  1
  O  O46  1  0.80246011  0.98324265  0.08707929  1
  O  O47  1  0.19877081  0.16392538  0.08774526  1
  O  O48  1  0.68310162  0.18215221  0.73853649  1
  O  O49  1  0.48995416  0.32412806  0.74627883  1
  O  O50  1  0.84645993  0.52172607  0.74416139  1
  O  O51  1  0.68524555  0.50343411  0.24401850  1
  O  O52  1  0.84572649  0.31106385  0.25290971  1
  O  O53  1  0.46541459  0.14930980  0.24947108  1
  O  O54  1  0.66273853  0.52946857  0.91980149  1
  O  O55  1  0.86496736  0.33877193  0.91664741  1
  O  O56  1  0.50081391  0.15871105  0.91480924  1
  O  O57  1  0.67281597  0.15987116  0.41956422  1
  O  O58  1  0.46135393  0.32174631  0.41940288  1
  O  O59  1  0.84696504  0.52437357  0.41919746  1
  O  O60  1  0.35392687  0.50045856  0.08528530  1
  O  O61  1  0.12861525  0.65445670  0.08931685  1
  O  O62  1  0.48742920  0.85672525  0.09087279  1
  O  O63  1  0.36242729  0.86739357  0.58620656  1
  O  O64  1  0.51592655  0.66851761  0.58944095  1
  O  O65  1  0.12472206  0.48960273  0.58453039  1
  O  O66  1  0.31983808  0.85755619  0.25178345  1
  O  O67  1  0.51203512  0.65811927  0.25116032  1
  O  O68  1  0.13410499  0.47356712  0.25648383  1
  O  O69  1  0.33917303  0.49614408  0.75084985  1
  O  O70  1  0.13169552  0.65692098  0.75275087  1
  O  O71  1  0.51094836  0.86027841  0.75125789  1
loop_
_geom_bond_atom_site_label_1
_geom_bond_atom_site_label_2
_geom_bond_distance
_geom_bond_site_symmetry_2
Na0 O16 2.491437 1_555
Na0 O52 2.609442 1_555
Na0 O53 2.652181 1_555
Na0 O66 2.725184 1_545
Na1 O51 2.363451 1_555
Na1 O17 2.364818 1_555
Na1 O67 2.425757 1_555
Na1 O53 2.511882 1_555
Na2 O51 2.399223 1_555
Na2 O52 2.609040 1_555
Na2 O68 2.621172 1_655
Na2 O15 2.798613 1_555
Na2 O1 2.857086 1_555
Na2 O30 2.866603 1_655
Na2 O66 3.023532 1_655
Na3 O14 2.365013 1_555
Na3 O69 2.466326 1_555
Na3 O49 2.471812 1_555
Na3 O50 2.718238 1_555
Na4 O48 2.490533 1_555
Na4 O50 2.622196 1_555
Na4 O70 2.660773 1_655
Na4 O12 2.718752 1_555
Na4 O5 2.881906 1_555
Na4 O33 2.962038 1_655
Na4 O7 3.015911 1_655
Na4 O69 3.052294 1_655
Na5 O48 2.428394 1_555
Na5 O71 2.428440 1_545
Na5 O49 2.447798 1_555
Na5 O34 2.782460 1_545
Na5 O13 2.852103 1_555
Na6 O44 2.474683 1_455
Na6 O43 2.577921 1_555
Na6 O29 2.687903 1_555
Na6 O65 2.702272 1_555
Na6 O8 2.927954 1_555
Na6 O63 2.988968 1_555
Na6 O22 3.026003 1_455
Na7 O64 2.350487 1_555
Na7 O44 2.502876 1_555
Na7 O6 2.587567 1_555
Na7 O63 2.688798 1_555
Na7 O42 2.778687 1_565
Na7 O27 2.969127 1_555
Na8 O47 2.466421 1_565
Na8 O62 2.515964 1_555
Na8 O26 2.797588 1_554
Na8 O61 2.861692 1_555
Na8 O45 2.917010 1_455
Na8 O11 3.021395 1_555
Na8 O18 3.049428 1_565
Na9 O46 2.422143 1_555
Na9 O9 2.475602 1_555
Na9 O60 2.601510 1_555
Na9 O62 2.744833 1_555
Na9 O45 2.816431 1_555
Na9 O17 2.967544 1_555
Na10 O56 2.551554 1_555
Na10 O55 2.554182 1_555
Na10 O41 2.735359 1_545
Na10 O39 2.758636 1_655
Na10 O20 2.780557 1_556
Na10 O5 2.892952 1_555
Na11 O40 2.327352 1_555
Na11 O56 2.430747 1_555
Na11 O3 2.694017 1_555
Na11 O18 2.718809 1_556
Na11 O54 2.820045 1_555
Na11 O39 2.861768 1_555
Na12 O2 2.402291 1_555
Na12 O57 2.430749 1_555
Na12 O37 2.453385 1_545
Na12 O38 2.694615 1_655
Na12 O59 2.981047 1_555
Na13 O36 2.433900 1_545
Na13 O58 2.613683 1_555
Na13 O0 2.634954 1_555
Na13 O38 2.654637 1_555
Na14 O59 2.403313 1_555
Na14 O36 2.592981 1_655
Na14 O37 2.613037 1_555
Na14 O1 2.717857 1_555
Na14 O22 2.849776 1_555
Na15 O36 2.372975 1_655
Na15 O37 2.397457 1_555
Na15 O38 2.700869 1_665
Na15 O44 2.750130 1_555
Na16 O47 2.506720 1_555
Na16 O40 2.561476 1_554
Na16 O39 2.692758 1_554
Na16 O46 2.765998 1_445
Na16 O45 2.799800 1_445
Na16 O41 3.006621 1_444
Na17 O49 2.412750 1_555
Na17 O48 2.475793 1_555
Na17 O56 2.575363 1_555
Na17 O50 2.737709 1_555
Na18 O51 2.403485 1_555
Na18 O52 2.478969 1_555
Na18 O53 2.721585 1_555
Na18 O59 2.775807 1_555
Na18 O57 2.834236 1_555
Na18 O58 3.002982 1_555
Na19 O60 2.385360 1_555
Na19 O62 2.392550 1_555
Na19 O67 2.587825 1_555
Na19 O61 2.773524 1_555
Na19 O68 2.957622 1_555
Na19 O66 2.982015 1_555
Na20 O64 2.321702 1_555
Na20 O69 2.371775 1_555
Na20 O71 2.705991 1_555
Na20 O65 2.838693 1_555
Na20 O63 2.845018 1_555
La0 O3 2.242643 1_555
La0 O40 2.367595 1_555
La0 O5 2.387741 1_455
La0 O4 2.434900 1_445
La0 O39 2.509999 1_555
La0 O41 2.566908 1_445
La1 O7 2.228132 1_555
La1 O6 2.258853 1_445
La1 O44 2.376079 1_445
La1 O42 2.446386 1_455
La1 O8 2.474275 1_545
La1 O43 2.516814 1_545
La2 O46 2.269074 1_545
La2 O9 2.289253 1_545
La2 O47 2.338230 1_655
La2 O10 2.345254 1_655
La2 O11 2.504235 1_645
La2 O45 2.505431 1_545
La3 O20 2.201014 1_556
La3 O18 2.229555 1_556
La3 O56 2.384252 1_555
La3 O19 2.449591 1_556
La3 O55 2.542277 1_555
La3 O54 2.549313 1_555
La4 O22 2.242958 1_555
La4 O59 2.313553 1_555
La4 O57 2.353724 1_555
La4 O23 2.376564 1_555
La4 O58 2.463587 1_555
La4 O21 2.479225 1_555
La5 O26 2.260263 1_554
La5 O60 2.333665 1_555
La5 O62 2.363725 1_555
La5 O24 2.466573 1_554
La5 O61 2.467467 1_555
La5 O25 2.496825 1_554
La6 O27 2.250238 1_555
La6 O29 2.358697 1_555
La6 O64 2.393435 1_555
La6 O28 2.426532 1_555
La6 O63 2.514433 1_555
La6 O65 2.579854 1_555
La7 O31 2.226520 1_555
La7 O30 2.289485 1_555
La7 O67 2.370655 1_555
La7 O32 2.434023 1_555
La7 O66 2.455605 1_555
La7 O68 2.521804 1_555
La8 O34 2.255444 1_555
La8 O71 2.292959 1_555
La8 O69 2.372974 1_555
La8 O35 2.406319 1_555
La8 O70 2.451620 1_555
La8 O33 2.536957 1_555
O0 S0 1.480670 1_555
O1 Si0 1.655827 1_555
O1 Zn0 1.917718 1_555
O2 S1 1.479670 1_555
O3 Si1 1.652552 1_555
O4 S2 1.490306 1_555
O5 Si2 1.664610 1_555
O6 Si2 1.651440 1_565
O7 Si1 1.642658 1_555
O8 S2 1.489992 1_455
O9 Si0 1.644584 1_555
O10 S1 1.486468 1_455
O11 S0 1.489083 1_565
O12 S3 1.465277 1_555
O12 Zn1 2.538714 1_555
O13 S4 1.472473 1_555
O13 Zn1 2.271153 1_555
O14 Si3 1.642520 1_555
O14 Zn1 1.990263 1_555
O15 S5 1.483030 1_555
O15 Zn2 2.209771 1_555
O16 Si4 1.659369 1_555
O16 Zn2 1.986954 1_555
O17 Si5 1.650401 1_555
O17 Zn2 1.934369 1_555
O18 Si5 1.649091 1_555
O19 S5 1.478004 1_555
O20 Si4 1.640774 1_555
O21 S4 1.488223 1_555
O22 Si3 1.647777 1_555
O23 S3 1.497118 1_555
O24 S6 1.490678 1_555
O25 S7 1.484251 1_555
O26 Si6 1.645657 1_555
O27 Si7 1.656554 1_555
O28 S8 1.490086 1_555
O29 Si8 1.662579 1_555
O30 Si8 1.644238 1_555
O31 Si7 1.642331 1_555
O32 S8 1.487362 1_555
O33 S7 1.481223 1_555
O34 Si6 1.650811 1_555
O35 S6 1.492646 1_555
O36 Si8 1.659025 1_555
O36 Zn0 2.004641 1_455
O37 Si7 1.654824 1_555
O37 Zn0 1.996629 1_555
O38 S8 1.470524 1_555
O39 S7 1.504053 1_555
O40 Si6 1.653030 1_545
O41 S6 1.486967 1_555
O42 S3 1.498342 1_555
O43 S4 1.493930 1_565
O44 Si3 1.681303 1_555
O45 S5 1.499447 1_555
O46 Si4 1.651036 1_565
O47 Si5 1.656236 1_555
O48 Si2 1.656673 1_555
O48 Zn1 2.119340 1_555
O49 Si1 1.646005 1_555
O49 Zn1 2.020626 1_555
O50 S2 1.473720 1_555
O50 Zn1 2.392206 1_555
O51 Si0 1.664684 1_555
O51 Zn2 2.357906 1_555
O52 S1 1.493208 1_555
O53 S0 1.494413 1_555
O54 S6 1.475814 1_555
O55 S7 1.484385 1_655
O56 Si6 1.673913 1_545
O57 Si7 1.644591 1_545
O58 S8 1.499664 1_555
O59 Si8 1.656437 1_655
O60 Si5 1.651011 1_555
O61 S5 1.494138 1_455
O62 Si4 1.672352 1_565
O63 S4 1.508708 1_565
O64 Si3 1.663114 1_555
O65 S3 1.496573 1_455
O66 S0 1.513399 1_565
O67 Si0 1.675655 1_555
O68 S1 1.501670 1_455
O69 Si1 1.651860 1_555
O70 S2 1.494031 1_455
O71 Si2 1.661104 1_565
