# generated using pymatgen
data_Y2Pd2Pb
_symmetry_space_group_name_H-M   'P 1'
_cell_length_a   7.83748972
_cell_length_b   7.83748972
_cell_length_c   3.65951809
_cell_angle_alpha   90.00000000
_cell_angle_beta   90.00000000
_cell_angle_gamma   90.00000000
_symmetry_Int_Tables_number   1
_chemical_formula_structural   Y2Pd2Pb
_chemical_formula_sum   'Y4 Pd4 Pb2'
_cell_volume   224.79045518
_cell_formula_units_Z   2
loop_
 _symmetry_equiv_pos_site_id
 _symmetry_equiv_pos_as_xyz
  1  'x, y, z'
loop_
 _atom_site_type_symbol
 _atom_site_label
 _atom_site_symmetry_multiplicity
 _atom_site_fract_x
 _atom_site_fract_y
 _atom_site_fract_z
 _atom_site_occupancy
  Y  Y0  1  0.67240360  0.17240360  0.50000000  1
  Y  Y1  1  0.17240360  0.32759640  0.50000000  1
  Y  Y2  1  0.82759640  0.67240360  0.50000000  1
  Y  Y3  1  0.32759640  0.82759640  0.50000000  1
  Pd  Pd0  1  0.87533480  0.37533480  -0.00000000  1
  Pd  Pd1  1  0.37533480  0.12466520  -0.00000000  1
  Pd  Pd2  1  0.62466520  0.87533480  0.00000000  1
  Pd  Pd3  1  0.12466520  0.62466520  0.00000000  1
  Pb  Pb0  1  -0.00000000  -0.00000000  0.00000000  1
  Pb  Pb1  1  0.50000000  0.50000000  0.00000000  1
loop_
_geom_bond_atom_site_label_1
_geom_bond_atom_site_label_2
_geom_bond_distance
_geom_bond_site_symmetry_2
Pd0 Pd3 2.763549 1_655
Pd0 Y0 2.899520 1_554
Pd0 Y0 2.899520 1_555
Pd0 Y2 2.984772 1_555
Pd0 Y1 2.984772 1_655
Pd0 Y1 2.984772 1_654
Pd0 Y2 2.984772 1_554
Pd1 Pd2 2.763549 1_545
Pd1 Y1 2.899520 1_555
Pd1 Y1 2.899520 1_554
Pd1 Y0 2.984772 1_554
Pd1 Y0 2.984772 1_555
Pd1 Y3 2.984772 1_545
Pd1 Y3 2.984772 1_544
Pd2 Y2 2.899520 1_554
Pd2 Y2 2.899520 1_555
Pd2 Y0 2.984772 1_564
Pd2 Y3 2.984772 1_554
Pd2 Y3 2.984772 1_555
Pd2 Y0 2.984772 1_565
Pd3 Y3 2.899520 1_555
Pd3 Y3 2.899520 1_554
Pd3 Y1 2.984772 1_555
Pd3 Y2 2.984772 1_454
Pd3 Y1 2.984772 1_554
Pd3 Y2 2.984772 1_455
Pb0 Pd0 3.099701 1_455
Pb0 Pd1 3.099701 1_555
Pb0 Pd2 3.099701 1_445
Pb0 Pd3 3.099701 1_545
Pb0 Y3 3.430163 1_544
Pb0 Y2 3.430163 1_444
Pb0 Y1 3.430163 1_555
Pb0 Y0 3.430163 1_455
Pb0 Y1 3.430163 1_554
Pb0 Y0 3.430163 1_454
Pb0 Y2 3.430163 1_445
Pb0 Y3 3.430163 1_545
Pb1 Pd1 3.099701 1_555
Pb1 Pd0 3.099701 1_555
Pb1 Pd3 3.099701 1_555
Pb1 Pd2 3.099701 1_555
Pb1 Y0 3.430163 1_555
Pb1 Y2 3.430163 1_554
Pb1 Y2 3.430163 1_555
Pb1 Y3 3.430163 1_554
Pb1 Y0 3.430163 1_554
Pb1 Y1 3.430163 1_555
Pb1 Y1 3.430163 1_554
Pb1 Y3 3.430163 1_555
