# generated using pymatgen
data_LiMo2P3O11
_symmetry_space_group_name_H-M   'P 1'
_cell_length_a   7.43744059
_cell_length_b   7.43744059
_cell_length_c   8.98573607
_cell_angle_alpha   69.39574921
_cell_angle_beta   69.39574921
_cell_angle_gamma   74.10511133
_symmetry_Int_Tables_number   1
_chemical_formula_structural   LiMo2P3O11
_chemical_formula_sum   'Li2 Mo4 P6 O22'
_cell_volume   429.06279555
_cell_formula_units_Z   2
loop_
 _symmetry_equiv_pos_site_id
 _symmetry_equiv_pos_as_xyz
  1  'x, y, z'
loop_
 _atom_site_type_symbol
 _atom_site_label
 _atom_site_symmetry_multiplicity
 _atom_site_fract_x
 _atom_site_fract_y
 _atom_site_fract_z
 _atom_site_occupancy
  Li  Li0  1  0.99098400  0.51349600  0.26360400  1
  Li  Li1  1  0.48650400  0.00901600  0.73639600  1
  Mo  Mo0  1  0.36131100  0.88191700  0.20227500  1
  Mo  Mo1  1  0.88126100  0.36257200  0.70296100  1
  Mo  Mo2  1  0.11808300  0.63868900  0.79772500  1
  Mo  Mo3  1  0.63742800  0.11873900  0.29703900  1
  P  P0  1  0.32114500  0.45104600  0.46780300  1
  P  P1  1  0.95542400  0.04457600  0.50000000  1
  P  P2  1  0.45107800  0.32268500  0.96631500  1
  P  P3  1  0.54895400  0.67885500  0.53219700  1
  P  P4  1  0.67731500  0.54892200  0.03368500  1
  P  P5  1  0.04359000  0.95641000  0.00000000  1
  O  O0  1  0.10983100  0.01353600  0.34206300  1
  O  O1  1  0.01404100  0.11158300  0.84176400  1
  O  O2  1  0.38247400  0.24081600  0.46266000  1
  O  O3  1  0.14961700  0.47246600  0.62459500  1
  O  O4  1  0.88841700  0.98595900  0.15823600  1
  O  O5  1  0.98646400  0.89016900  0.65793700  1
  O  O6  1  0.61755000  0.75700200  0.04310900  1
  O  O7  1  0.84946700  0.52880300  0.87651000  1
  O  O8  1  0.72249300  0.39936100  0.19006600  1
  O  O9  1  0.25554500  0.95625100  0.99994900  1
  O  O10  1  0.75918400  0.61752600  0.53734000  1
  O  O11  1  0.49977100  0.50022900  0.00000000  1
  O  O12  1  0.52753400  0.85038300  0.37540500  1
  O  O13  1  0.40169100  0.72579300  0.68884000  1
  O  O14  1  0.95525700  0.25673600  0.50030300  1
  O  O15  1  0.04374900  0.74445500  0.00005100  1
  O  O16  1  0.60063900  0.27750700  0.80993400  1
  O  O17  1  0.47119700  0.15053300  0.12349000  1
  O  O18  1  0.49856500  0.50143500  0.50000000  1
  O  O19  1  0.24299800  0.38245000  0.95689100  1
  O  O20  1  0.74326400  0.04474300  0.49969700  1
  O  O21  1  0.27420700  0.59830900  0.31116000  1
loop_
_geom_bond_atom_site_label_1
_geom_bond_atom_site_label_2
_geom_bond_distance
_geom_bond_site_symmetry_2
Li0 O14 2.294033 1_555
Li0 O15 2.359044 1_655
Li0 O21 2.562952 1_655
Li1 O20 2.294033 1_555
Li1 O9 2.359044 1_545
Li1 O13 2.562952 1_545
Mo0 O0 2.059934 1_565
Mo0 O9 2.071389 1_554
Mo0 O6 2.141870 1_555
Mo0 O17 2.156863 1_565
Mo0 O21 2.162413 1_555
Mo0 O12 2.222973 1_555
Mo1 O1 2.057662 1_655
Mo1 O14 2.074816 1_555
Mo1 O16 2.136235 1_555
Mo1 O3 2.155621 1_655
Mo1 O10 2.157913 1_555
Mo1 O7 2.225685 1_555
Mo2 O5 2.059934 1_455
Mo2 O15 2.071389 1_556
Mo2 O19 2.141870 1_555
Mo2 O7 2.156863 1_455
Mo2 O13 2.162413 1_555
Mo2 O3 2.222973 1_555
Mo3 O4 2.057662 1_545
Mo3 O20 2.074816 1_555
Mo3 O8 2.136235 1_555
Mo3 O12 2.155621 1_545
Mo3 O2 2.157913 1_555
Mo3 O17 2.225685 1_555
O0 P1 1.524624 1_455
O1 P5 1.525774 1_546
O2 P0 1.516682 1_555
O3 P0 1.555463 1_555
O4 P5 1.525774 1_655
O5 P1 1.524624 1_565
O6 P4 1.512849 1_555
O7 P4 1.558042 1_556
O8 P4 1.533712 1_555
O9 P5 1.575918 1_556
O10 P3 1.516682 1_555
O11 P4 1.608359 1_555
O11 P2 1.608359 1_554
O12 P3 1.555463 1_555
O13 P3 1.534288 1_555
O14 P1 1.578547 1_555
O15 P5 1.575918 1_555
O16 P2 1.533712 1_555
O17 P2 1.558042 1_554
O18 P0 1.606625 1_555
O18 P3 1.606625 1_555
O19 P2 1.512849 1_555
O20 P1 1.578547 1_555
O21 P0 1.534288 1_555
