# generated using pymatgen
data_Na8In2Si5Sn2SO24
_symmetry_space_group_name_H-M   'P 1'
_cell_length_a   9.22608535
_cell_length_b   9.21279692
_cell_length_c   22.66283613
_cell_angle_alpha   90.25393686
_cell_angle_beta   89.33659722
_cell_angle_gamma   120.04039199
_symmetry_Int_Tables_number   1
_chemical_formula_structural   Na8In2Si5Sn2SO24
_chemical_formula_sum   'Na24 In6 Si15 Sn6 S3 O72'
_cell_volume   1667.42878941
_cell_formula_units_Z   3
loop_
 _symmetry_equiv_pos_site_id
 _symmetry_equiv_pos_as_xyz
  1  'x, y, z'
loop_
 _atom_site_type_symbol
 _atom_site_label
 _atom_site_symmetry_multiplicity
 _atom_site_fract_x
 _atom_site_fract_y
 _atom_site_fract_z
 _atom_site_occupancy
  Na  Na0  1  0.64012803  0.00134484  0.25250662  1
  Na  Na1  1  0.35952995  0.36150999  0.24722747  1
  Na  Na2  1  0.99992069  0.63847911  0.24968760  1
  Na  Na3  1  0.63685478  0.63567672  0.74656766  1
  Na  Na4  1  0.99700780  0.36319911  0.74939066  1
  Na  Na5  1  0.36666749  0.00467437  0.74944408  1
  Na  Na6  1  0.30030623  0.33754513  0.58669983  1
  Na  Na7  1  0.03897888  0.70207014  0.58326198  1
  Na  Na8  1  0.66387089  0.96096366  0.58330650  1
  Na  Na9  1  0.28529746  0.96369967  0.08137457  1
  Na  Na10  1  0.66953454  0.69149560  0.08729424  1
  Na  Na11  1  0.04541426  0.33874764  0.08640722  1
  Na  Na12  1  0.97530392  0.66818028  0.91614584  1
  Na  Na13  1  0.70405588  0.04415713  0.90937949  1
  Na  Na14  1  0.32103239  0.28444422  0.91825279  1
  Na  Na15  1  0.95927305  0.29500155  0.41296918  1
  Na  Na16  1  0.32832254  0.02173213  0.41623098  1
  Na  Na17  1  0.71254404  0.68021274  0.41821117  1
  Na  Na18  1  0.99124910  0.98999395  0.50125282  1
  Na  Na19  1  0.01921788  0.00749510  0.99983862  1
  Na  Na20  1  0.66706780  0.32545538  0.83147614  1
  Na  Na21  1  0.67329872  0.33267509  0.33197272  1
  Na  Na22  1  0.32475285  0.65760681  0.16714522  1
  Na  Na23  1  0.33401072  0.66752235  0.66425946  1
  In  In0  1  0.99370756  0.99288380  0.34604568  1
  In  In1  1  0.00913352  0.00658870  0.84641868  1
  In  In2  1  0.00734281  0.99930754  0.15389593  1
  In  In3  1  0.66609679  0.33291476  0.98221066  1
  In  In4  1  0.31319499  0.65332690  0.01721799  1
  In  In5  1  0.33573634  0.67706367  0.52057348  1
  Si  Si0  1  0.30013242  0.00280388  0.25023466  1
  Si  Si1  1  0.69916440  0.70274591  0.25025716  1
  Si  Si2  1  0.99969400  0.29760937  0.25019110  1
  Si  Si3  1  0.29885314  0.29845904  0.74930166  1
  Si  Si4  1  0.99613935  0.70558884  0.74962893  1
  Si  Si5  1  0.70496851  0.99947368  0.75062180  1
  Si  Si6  1  0.96187486  0.33002019  0.58463842  1
  Si  Si7  1  0.37463658  0.04642520  0.58440570  1
  Si  Si8  1  0.66810421  0.62547150  0.58349778  1
  Si  Si9  1  0.95872500  0.62959372  0.08311295  1
  Si  Si10  1  0.37181523  0.33432783  0.08270344  1
  Si  Si11  1  0.03588963  0.36607048  0.91593006  1
  Si  Si12  1  0.33390604  0.96080329  0.91737949  1
  Si  Si13  1  0.62984407  0.96338960  0.41753728  1
  Si  Si14  1  0.03602380  0.66606414  0.41816742  1
  Sn  Sn0  1  0.99993321  0.00049848  0.64903386  1
  Sn  Sn1  1  0.66867545  0.33475265  0.68451879  1
  Sn  Sn2  1  0.66789798  0.34265994  0.18596205  1
  Sn  Sn3  1  0.67724974  0.33110006  0.48586879  1
  Sn  Sn4  1  0.32957790  0.67474623  0.31473434  1
  Sn  Sn5  1  0.32348756  0.66945785  0.81201894  1
  S  S0  1  0.66657844  0.03751594  0.08386324  1
  S  S1  1  0.62438074  0.66880819  0.91631628  1
  S  S2  1  0.33555972  0.37362652  0.41653256  1
  O  O0  1  0.22826883  0.04902773  0.30870645  1
  O  O1  1  0.81416930  0.77145727  0.30832299  1
  O  O2  1  0.96069173  0.18429812  0.30913198  1
  O  O3  1  0.23166735  0.18582200  0.80880945  1
  O  O4  1  0.95391718  0.77636431  0.80926056  1
  O  O5  1  0.81688430  0.03786269  0.80942848  1
  O  O6  1  0.78599528  0.95919120  0.69210820  1
  O  O7  1  0.17473342  0.21712360  0.69231773  1
  O  O8  1  0.03750056  0.82786088  0.69191542  1
  O  O9  1  0.77169614  0.82082879  0.19179040  1
  O  O10  1  0.03917581  0.22305999  0.19086761  1
  O  O11  1  0.18525114  0.95621824  0.19193304  1
  O  O12  1  0.87828845  0.36979883  0.64179654  1
  O  O13  1  0.49452442  0.12981150  0.64152509  1
  O  O14  1  0.63363026  0.50780748  0.64156843  1
  O  O15  1  0.87396746  0.50342949  0.14087096  1
  O  O16  1  0.63820833  0.11701138  0.13691439  1
  O  O17  1  0.48981863  0.36409069  0.14144662  1
  O  O18  1  0.44998470  0.29442398  0.02397398  1
  O  O19  1  0.84667552  0.54848577  0.02404114  1
  O  O20  1  0.69527493  0.14068980  0.02978525  1
  O  O21  1  0.45508951  0.16494016  0.52443132  1
  O  O22  1  0.70422757  0.54318873  0.52357045  1
  O  O23  1  0.84537578  0.28793036  0.52513027  1
  O  O24  1  0.54846032  0.69348568  0.97044301  1
  O  O25  1  0.15165545  0.43712678  0.97439220  1
  O  O26  1  0.30831636  0.85136020  0.97699806  1
  O  O27  1  0.55179080  0.84295438  0.47468135  1
  O  O28  1  0.30822496  0.45020281  0.47034543  1
  O  O29  1  0.14977293  0.69709305  0.47574544  1
  O  O30  1  0.11660999  0.62247312  0.35916367  1
  O  O31  1  0.50930736  0.87943793  0.35874859  1
  O  O32  1  0.36264069  0.47938774  0.36317890  1
  O  O33  1  0.12511132  0.49048770  0.85796782  1
  O  O34  1  0.37253691  0.87594868  0.85864554  1
  O  O35  1  0.51922662  0.64254613  0.86323712  1
  O  O36  1  0.02210281  0.83576821  0.41233555  1
  O  O37  1  0.81954173  0.99225690  0.41231635  1
  O  O38  1  0.18524820  0.20530963  0.41181500  1
  O  O39  1  0.00951390  0.17670776  0.91194939  1
  O  O40  1  0.16120250  0.97032308  0.91334211  1
  O  O41  1  0.79253636  0.81841931  0.91166235  1
  O  O42  1  0.97399420  0.15807067  0.58959260  1
  O  O43  1  0.18870198  0.03116183  0.58869609  1
  O  O44  1  0.84000819  0.81123403  0.58806797  1
  O  O45  1  0.97002334  0.81283422  0.08775135  1
  O  O46  1  0.81920915  0.02314954  0.08864605  1
  O  O47  1  0.18276782  0.17043302  0.08721704  1
  O  O48  1  0.68349165  0.16639962  0.74381790  1
  O  O49  1  0.48627099  0.31908104  0.74260195  1
  O  O50  1  0.83076710  0.51675830  0.74367232  1
  O  O51  1  0.67911438  0.51407092  0.24515558  1
  O  O52  1  0.82939629  0.31527992  0.24347010  1
  O  O53  1  0.49081966  0.16762580  0.24219206  1
  O  O54  1  0.63940840  0.51450743  0.91899473  1
  O  O55  1  0.85316317  0.35845114  0.91930729  1
  O  O56  1  0.50347222  0.14904600  0.91847022  1
  O  O57  1  0.63614888  0.14896756  0.42179966  1
  O  O58  1  0.48954193  0.35973544  0.42018985  1
  O  O59  1  0.84526070  0.49331942  0.42139703  1
  O  O60  1  0.36873202  0.51266378  0.08025798  1
  O  O61  1  0.14668871  0.64992564  0.08366066  1
  O  O62  1  0.51638918  0.86996409  0.07937912  1
  O  O63  1  0.35583121  0.86087628  0.58223441  1
  O  O64  1  0.49946411  0.64051172  0.57938538  1
  O  O65  1  0.14757904  0.49509026  0.57914969  1
  O  O66  1  0.31940600  0.83381336  0.25549387  1
  O  O67  1  0.50886166  0.67782907  0.25864445  1
  O  O68  1  0.17081585  0.48566961  0.25686323  1
  O  O69  1  0.31864156  0.48746144  0.75599861  1
  O  O70  1  0.16744800  0.68939308  0.75257300  1
  O  O71  1  0.51780299  0.82668305  0.75558321  1
loop_
_geom_bond_atom_site_label_1
_geom_bond_atom_site_label_2
_geom_bond_distance
_geom_bond_site_symmetry_2
Na0 O52 2.529131 1_555
Na0 O53 2.534257 1_555
Na0 O66 2.562456 1_545
Na0 O67 2.599061 1_545
Na0 O31 2.667364 1_545
Na0 O16 2.836038 1_555
Na0 O9 2.845139 1_545
Na0 O2 2.883145 1_555
Na1 O68 2.523980 1_555
Na1 O67 2.537570 1_555
Na1 O51 2.553341 1_555
Na1 O53 2.613823 1_555
Na1 O17 2.664147 1_555
Na1 O32 2.833849 1_555
Na1 O0 2.863811 1_555
Na1 O10 2.879665 1_555
Na2 O66 2.576840 1_655
Na2 O52 2.583046 1_555
Na2 O51 2.587285 1_555
Na2 O68 2.593196 1_655
Na2 O30 2.749613 1_655
Na2 O15 2.751649 1_555
Na2 O11 2.859458 1_655
Na2 O1 2.870294 1_555
Na3 O71 2.504305 1_555
Na3 O50 2.522768 1_555
Na3 O49 2.527639 1_555
Na3 O69 2.550256 1_555
Na3 O14 2.644381 1_555
Na3 O35 2.858961 1_555
Na3 O6 2.861295 1_555
Na3 O4 2.922238 1_555
Na4 O48 2.534869 1_555
Na4 O50 2.559156 1_555
Na4 O69 2.597325 1_655
Na4 O70 2.603509 1_655
Na4 O12 2.697960 1_555
Na4 O33 2.735147 1_655
Na4 O7 2.884012 1_655
Na4 O5 2.931436 1_555
Na5 O48 2.532381 1_555
Na5 O49 2.536064 1_555
Na5 O70 2.544349 1_545
Na5 O71 2.635989 1_545
Na5 O13 2.701643 1_555
Na5 O34 2.761788 1_545
Na5 O3 2.858146 1_555
Na5 O8 2.948898 1_545
Na6 O64 2.460992 1_555
Na6 O43 2.473805 1_555
Na6 O65 2.485332 1_555
Na6 O42 2.610416 1_455
Na6 O7 2.640986 1_555
Na6 O28 2.824852 1_555
Na6 O14 2.950519 1_555
Na6 O21 2.960819 1_555
Na7 O44 2.497203 1_455
Na7 O63 2.530482 1_555
Na7 O65 2.560842 1_555
Na7 O43 2.631141 1_565
Na7 O29 2.640532 1_555
Na7 O8 2.719622 1_555
Na7 O12 2.962254 1_455
Na7 O22 3.010653 1_455
Na8 O63 2.511062 1_555
Na8 O42 2.511872 1_565
Na8 O64 2.557686 1_555
Na8 O44 2.608649 1_555
Na8 O27 2.687217 1_555
Na8 O6 2.726325 1_555
Na8 O23 2.924027 1_565
Na8 O13 2.994853 1_565
Na9 O61 2.508580 1_555
Na9 O47 2.517643 1_565
Na9 O45 2.521459 1_455
Na9 O26 2.626484 1_554
Na9 O11 2.649320 1_555
Na9 O62 2.671026 1_555
Na9 O18 2.939157 1_565
Na10 O45 2.415213 1_555
Na10 O60 2.423170 1_555
Na10 O9 2.611251 1_555
Na10 O46 2.649410 1_565
Na10 O62 2.658267 1_555
Na10 O17 2.886488 1_555
Na10 O24 2.889708 1_554
Na10 O19 2.923465 1_555
Na11 O47 2.445191 1_555
Na11 O61 2.532563 1_555
Na11 O60 2.586839 1_555
Na11 O10 2.588722 1_555
Na11 O46 2.595252 1_455
Na11 O25 2.701835 1_554
Na11 O15 2.944206 1_455
Na12 O40 2.431673 1_655
Na12 O55 2.489536 1_555
Na12 O41 2.666739 1_555
Na12 O4 2.670079 1_555
Na12 O54 2.686211 1_555
Na12 O19 2.692559 1_556
Na12 O33 2.921071 1_655
Na12 O26 3.012588 1_655
Na13 O39 2.448324 1_655
Na13 O56 2.486123 1_555
Na13 O5 2.494524 1_555
Na13 O55 2.518016 1_555
Na13 O41 2.587630 1_545
Na13 O20 2.879060 1_556
Na13 O34 2.898039 1_545
Na14 O40 2.507993 1_545
Na14 O39 2.533391 1_555
Na14 O56 2.547869 1_555
Na14 O54 2.624536 1_555
Na14 O3 2.633349 1_555
Na14 O18 2.668141 1_556
Na14 O25 2.859756 1_555
Na15 O37 2.416904 1_545
Na15 O59 2.529342 1_555
Na15 O2 2.563101 1_555
Na15 O57 2.590433 1_555
Na15 O38 2.598759 1_655
Na15 O23 2.727774 1_555
Na15 O30 2.881459 1_655
Na16 O36 2.466386 1_545
Na16 O57 2.475804 1_555
Na16 O38 2.617748 1_555
Na16 O0 2.672703 1_555
Na16 O58 2.698219 1_555
Na16 O21 2.759396 1_555
Na16 O31 2.886155 1_545
Na16 O29 2.920505 1_545
Na17 O36 2.474523 1_655
Na17 O37 2.532942 1_555
Na17 O59 2.565762 1_555
Na17 O58 2.620939 1_555
Na17 O1 2.638764 1_555
Na17 O22 2.688173 1_555
Na17 O27 2.872421 1_555
Na18 O44 2.488888 1_555
Na18 O36 2.554767 1_655
Na18 O42 2.577428 1_565
Na18 O37 2.584553 1_555
Na18 O43 2.602855 1_665
Na18 O38 2.764724 1_665
Na19 O40 2.461631 1_545
Na19 O47 2.495310 1_556
Na19 O39 2.564564 1_555
Na19 O45 2.566597 1_446
Na19 O46 2.766673 1_456
Na19 O41 2.796412 1_445
Na20 O48 2.511227 1_555
Na20 O56 2.511950 1_555
Na20 O55 2.559997 1_555
Na20 O50 2.577453 1_555
Na20 O49 2.611756 1_555
Na20 O54 2.726765 1_555
Na21 O52 2.506796 1_555
Na21 O59 2.551773 1_555
Na21 O57 2.561190 1_555
Na21 O51 2.569773 1_555
Na21 O53 2.602933 1_555
Na21 O58 2.696970 1_555
Na22 O61 2.497591 1_555
Na22 O60 2.515117 1_555
Na22 O68 2.523808 1_555
Na22 O66 2.587610 1_555
Na22 O67 2.642198 1_555
Na22 O62 2.720216 1_555
Na23 O63 2.516125 1_555
Na23 O64 2.529817 1_555
Na23 O65 2.552725 1_555
Na23 O70 2.577416 1_555
Na23 O71 2.621797 1_555
Na23 O69 2.623490 1_555
In0 O1 2.066450 1_555
In0 O2 2.111688 1_565
In0 O0 2.123116 1_665
In0 O37 2.184630 1_555
In0 O36 2.197459 1_655
In0 O38 2.397296 1_665
In1 O3 2.060576 1_555
In1 O4 2.092756 1_445
In1 O5 2.116611 1_455
In1 O39 2.153113 1_555
In1 O40 2.214370 1_545
In1 O41 2.381326 1_445
In2 O11 2.069553 1_555
In2 O10 2.102819 1_565
In2 O9 2.134944 1_455
In2 O45 2.171138 1_455
In2 O47 2.190494 1_565
In2 O46 2.385741 1_465
In3 O18 2.061176 1_556
In3 O19 2.079830 1_556
In3 O55 2.146103 1_555
In3 O56 2.165902 1_555
In3 O20 2.207280 1_556
In3 O54 2.313833 1_555
In4 O25 2.043206 1_554
In4 O26 2.063819 1_554
In4 O61 2.127657 1_555
In4 O60 2.163600 1_555
In4 O24 2.262335 1_554
In4 O62 2.402598 1_555
In5 O27 2.075272 1_555
In5 O29 2.090179 1_555
In5 O63 2.127326 1_555
In5 O65 2.153814 1_555
In5 O64 2.175220 1_555
In5 O28 2.276583 1_555
O0 Si0 1.623045 1_555
O1 Si1 1.615762 1_555
O2 Si2 1.621310 1_555
O3 Si3 1.621372 1_555
O4 Si4 1.624054 1_555
O5 Si5 1.621558 1_545
O6 Si5 1.644847 1_555
O6 Sn0 2.049464 1_565
O7 Si3 1.645336 1_555
O7 Sn0 2.083944 1_455
O8 Si4 1.642072 1_455
O8 Sn0 2.041471 1_465
O9 Si1 1.627983 1_555
O10 Si2 1.625690 1_455
O11 Si0 1.620287 1_565
O12 Si6 1.631749 1_555
O12 Sn1 2.028771 1_555
O13 Si7 1.631835 1_555
O13 Sn1 2.019509 1_555
O14 Si8 1.632782 1_555
O14 Sn1 2.032492 1_555
O15 Si9 1.660009 1_555
O15 Sn2 2.000419 1_555
O16 S0 1.492388 1_555
O16 Sn2 2.246924 1_555
O17 Si10 1.662600 1_555
O17 Sn2 2.030036 1_555
O18 Si10 1.632686 1_555
O19 Si9 1.633716 1_555
O20 S0 1.492123 1_555
O21 Si7 1.663988 1_555
O21 Sn3 2.034003 1_555
O22 Si8 1.662397 1_555
O22 Sn3 2.028062 1_555
O23 Si6 1.654100 1_555
O23 Sn3 2.002172 1_555
O24 S1 1.477868 1_555
O25 Si11 1.627805 1_555
O26 Si12 1.632255 1_555
O27 Si13 1.618015 1_555
O28 S2 1.487279 1_555
O29 Si14 1.616736 1_555
O30 Si14 1.665327 1_555
O30 Sn4 2.029168 1_555
O31 Si13 1.665533 1_555
O31 Sn4 2.047338 1_555
O32 S2 1.494501 1_555
O32 Sn4 2.261115 1_555
O33 Si11 1.661499 1_555
O33 Sn5 2.025440 1_555
O34 Si12 1.663936 1_555
O34 Sn5 2.017838 1_555
O35 S1 1.495396 1_555
O35 Sn5 2.273650 1_555
O36 Si14 1.637562 1_555
O37 Si13 1.636238 1_555
O38 S2 1.479214 1_555
O39 Si11 1.638570 1_555
O40 Si12 1.642644 1_555
O41 S1 1.474567 1_555
O42 Si6 1.647364 1_555
O42 Sn0 2.086140 1_555
O43 Si7 1.651282 1_555
O43 Sn0 2.106774 1_455
O44 Si8 1.655186 1_555
O44 Sn0 2.139239 1_565
O45 Si9 1.641428 1_555
O46 S0 1.484088 1_555
O47 Si10 1.641013 1_555
O48 Si5 1.654068 1_545
O48 Sn1 2.113132 1_555
O49 Si3 1.647517 1_555
O49 Sn1 2.071900 1_555
O50 Si4 1.648543 1_555
O50 Sn1 2.088316 1_555
O51 Si1 1.657042 1_555
O51 Sn2 2.030991 1_555
O52 Si2 1.667383 1_555
O52 Sn2 2.099163 1_555
O53 Si0 1.659646 1_555
O53 Sn2 2.055639 1_555
O54 S1 1.497324 1_555
O55 Si11 1.652710 1_655
O56 Si12 1.655220 1_545
O57 Si13 1.683703 1_545
O57 Sn3 2.102778 1_555
O58 S2 1.492097 1_555
O58 Sn3 2.409337 1_555
O59 Si14 1.682070 1_655
O59 Sn3 2.102050 1_555
O60 Si10 1.658577 1_555
O61 Si9 1.648585 1_455
O62 S0 1.474270 1_565
O63 Si7 1.630080 1_565
O64 Si8 1.633400 1_555
O65 Si6 1.628393 1_455
O66 Si0 1.658012 1_565
O66 Sn4 2.029008 1_555
O67 Si1 1.661508 1_555
O67 Sn4 2.063309 1_555
O68 Si2 1.667848 1_455
O68 Sn4 2.090341 1_555
O69 Si3 1.663821 1_555
O69 Sn5 2.081473 1_555
O70 Si4 1.662337 1_455
O70 Sn5 2.057448 1_555
O71 Si5 1.665370 1_555
O71 Sn5 2.076370 1_555
