# generated using pymatgen
data_Os
_symmetry_space_group_name_H-M   'P 1'
_cell_length_a   5.36600425
_cell_length_b   5.36600425
_cell_length_c   5.36600425
_cell_angle_alpha   109.47122063
_cell_angle_beta   109.47122063
_cell_angle_gamma   109.47122063
_symmetry_Int_Tables_number   1
_chemical_formula_structural   Os
_chemical_formula_sum   Os8
_cell_volume   118.94087988
_cell_formula_units_Z   8
loop_
 _symmetry_equiv_pos_site_id
 _symmetry_equiv_pos_as_xyz
  1  'x, y, z'
loop_
 _atom_site_type_symbol
 _atom_site_label
 _atom_site_symmetry_multiplicity
 _atom_site_fract_x
 _atom_site_fract_y
 _atom_site_fract_z
 _atom_site_occupancy
  Os  Os0_0  1  0.00000000  0.00000000  0.00000000  1
  Os  Os0_1  1  0.00000000  0.00000000  0.50000000  1
  Os  Os0_2  1  0.00000000  0.50000000  0.00000000  1
  Os  Os0_3  1  0.00000000  0.50000000  0.50000000  1
  Os  Os0_4  1  0.50000000  0.00000000  0.00000000  1
  Os  Os0_5  1  0.50000000  0.00000000  0.50000000  1
  Os  Os0_6  1  0.50000000  0.50000000  0.00000000  1
  Os  Os0_7  1  0.50000000  0.50000000  0.50000000  1
loop_
_geom_bond_atom_site_label_1
_geom_bond_atom_site_label_2
_geom_bond_distance
_geom_bond_site_symmetry_2
Os0_0 Os0_2 2.683002 1_545
Os0_0 Os0_4 2.683002 1_455
Os0_0 Os0_7 2.683002 1_444
Os0_0 Os0_1 2.683002 1_554
Os0_0 Os0_2 2.683002 1_555
Os0_0 Os0_7 2.683002 1_555
Os0_0 Os0_4 2.683002 1_555
Os0_0 Os0_1 2.683002 1_555
Os0_1 Os0_5 2.683002 1_555
Os0_1 Os0_3 2.683002 1_555
Os0_1 Os0_3 2.683002 1_545
Os0_1 Os0_6 2.683002 1_445
Os0_1 Os0_5 2.683002 1_455
Os0_1 Os0_6 2.683002 1_556
Os0_2 Os0_5 2.683002 1_565
Os0_2 Os0_3 2.683002 1_555
Os0_2 Os0_6 2.683002 1_555
Os0_2 Os0_5 2.683002 1_454
Os0_2 Os0_6 2.683002 1_455
Os0_2 Os0_3 2.683002 1_554
Os0_3 Os0_7 2.683002 1_555
Os0_3 Os0_4 2.683002 1_455
Os0_3 Os0_4 2.683002 1_566
Os0_3 Os0_7 2.683002 1_455
Os0_4 Os0_5 2.683002 1_555
Os0_4 Os0_6 2.683002 1_555
Os0_4 Os0_6 2.683002 1_545
Os0_4 Os0_5 2.683002 1_554
Os0_5 Os0_7 2.683002 1_545
Os0_5 Os0_7 2.683002 1_555
Os0_6 Os0_7 2.683002 1_554
Os0_6 Os0_7 2.683002 1_555
