# generated using pymatgen
data_Na4MgSi2GeSO12
_symmetry_space_group_name_H-M   'P 1'
_cell_length_a   9.13870502
_cell_length_b   8.92534480
_cell_length_c   21.97209741
_cell_angle_alpha   92.36523920
_cell_angle_beta   90.00000000
_cell_angle_gamma   120.79397198
_symmetry_Int_Tables_number   1
_chemical_formula_structural   Na4MgSi2GeSO12
_chemical_formula_sum   'Na24 Mg6 Si12 Ge6 S6 O72'
_cell_volume   1537.72798871
_cell_formula_units_Z   6
loop_
 _symmetry_equiv_pos_site_id
 _symmetry_equiv_pos_as_xyz
  1  'x, y, z'
loop_
 _atom_site_type_symbol
 _atom_site_label
 _atom_site_symmetry_multiplicity
 _atom_site_fract_x
 _atom_site_fract_y
 _atom_site_fract_z
 _atom_site_occupancy
  Na  Na0  1  0.63889490  0.01292224  0.25301505  1
  Na  Na1  1  0.36673093  0.35894342  0.24727619  1
  Na  Na2  1  0.99337126  0.62668498  0.24447234  1
  Na  Na3  1  0.63331371  0.62668498  0.74447234  1
  Na  Na4  1  0.99221250  0.35894342  0.74727619  1
  Na  Na5  1  0.37402734  0.01292224  0.75301505  1
  Na  Na6  1  0.30556190  0.34625524  0.58634805  1
  Na  Na7  1  0.03339793  0.69227642  0.58060919  1
  Na  Na8  1  0.66003826  0.96001798  0.57780534  1
  Na  Na9  1  0.29998071  0.96001798  0.07780534  1
  Na  Na10  1  0.65887950  0.69227642  0.08060919  1
  Na  Na11  1  0.04069434  0.34625524  0.08634805  1
  Na  Na12  1  0.97222790  0.67958924  0.91968205  1
  Na  Na13  1  0.70006393  0.02561042  0.91394319  1
  Na  Na14  1  0.32670426  0.29335198  0.91113934  1
  Na  Na15  1  0.96664671  0.29335198  0.41113934  1
  Na  Na16  1  0.32554550  0.02561042  0.41394319  1
  Na  Na17  1  0.70736034  0.67958924  0.41968205  1
  Na  Na18  1  0.98925511  0.99123985  0.49673988  1
  Na  Na19  1  0.00198473  0.99123985  0.99673988  1
  Na  Na20  1  0.65592211  0.32457285  0.83007288  1
  Na  Na21  1  0.66865173  0.32457285  0.33007288  1
  Na  Na22  1  0.32258811  0.65790685  0.16340688  1
  Na  Na23  1  0.33531773  0.65790685  0.66340688  1
  Mg  Mg0  1  0.00048185  0.00218780  0.35178441  1
  Mg  Mg1  1  0.00170594  0.00218780  0.85178441  1
  Mg  Mg2  1  0.66714885  0.33552080  0.68511741  1
  Mg  Mg3  1  0.66837294  0.33552080  0.18511741  1
  Mg  Mg4  1  0.33381485  0.66885480  0.01845141  1
  Mg  Mg5  1  0.33503894  0.66885480  0.51845141  1
  Si  Si0  1  0.29780334  0.00368428  0.25341319  1
  Si  Si1  1  0.00271963  0.29095327  0.25322950  1
  Si  Si2  1  0.28823364  0.29095327  0.75322950  1
  Si  Si3  1  0.70588095  0.00368428  0.75341319  1
  Si  Si4  1  0.96447034  0.33701728  0.58674619  1
  Si  Si5  1  0.66938663  0.62428627  0.58656250  1
  Si  Si6  1  0.95490064  0.62428627  0.08656250  1
  Si  Si7  1  0.37254795  0.33701728  0.08674619  1
  Si  Si8  1  0.63113634  0.67035128  0.92008019  1
  Si  Si9  1  0.33605263  0.95762027  0.91989650  1
  Si  Si10  1  0.62156664  0.95762027  0.41989650  1
  Si  Si11  1  0.03921395  0.67035128  0.42008019  1
  Ge  Ge0  1  0.97131571  0.01323250  0.64857911  1
  Ge  Ge1  1  0.04191679  0.01323250  0.14857911  1
  Ge  Ge2  1  0.63798271  0.34656550  0.98191211  1
  Ge  Ge3  1  0.70858379  0.34656550  0.48191211  1
  Ge  Ge4  1  0.30464871  0.67989950  0.31524611  1
  Ge  Ge5  1  0.37524979  0.67989950  0.81524611  1
  S  S0  1  0.70773056  0.71045968  0.24955926  1
  S  S1  1  0.00272912  0.71045968  0.74955926  1
  S  S2  1  0.37439756  0.04379268  0.58289226  1
  S  S3  1  0.66939612  0.04379268  0.08289226  1
  S  S4  1  0.04106356  0.37712668  0.91622626  1
  S  S5  1  0.33606212  0.37712668  0.41622626  1
  O  O0  1  0.20916431  0.03143372  0.31149377  1
  O  O1  1  0.81305797  0.79184406  0.30520391  1
  O  O2  1  0.96810938  0.17514665  0.31047877  1
  O  O3  1  0.20703727  0.17514665  0.81047877  1
  O  O4  1  0.97878609  0.79184406  0.80520391  1
  O  O5  1  0.82226941  0.03143372  0.81149377  1
  O  O6  1  0.78147509  0.95340140  0.69016952  1
  O  O7  1  0.15752908  0.19765614  0.68900641  1
  O  O8  1  0.03264738  0.81838534  0.69514973  1
  O  O9  1  0.78573795  0.81838534  0.19514973  1
  O  O10  1  0.04012706  0.19765614  0.18900641  1
  O  O11  1  0.17192631  0.95340140  0.19016952  1
  O  O12  1  0.87583131  0.36476672  0.64482677  1
  O  O13  1  0.47972497  0.12517706  0.63853691  1
  O  O14  1  0.63477638  0.50847965  0.64381177  1
  O  O15  1  0.87370427  0.50847965  0.14381177  1
  O  O16  1  0.64545309  0.12517706  0.13853691  1
  O  O17  1  0.48893641  0.36476672  0.14482677  1
  O  O18  1  0.44814209  0.28673440  0.02350252  1
  O  O19  1  0.82419608  0.53098914  0.02233941  1
  O  O20  1  0.69931438  0.15171834  0.02848273  1
  O  O21  1  0.45240495  0.15171834  0.52848273  1
  O  O22  1  0.70679406  0.53098914  0.52233941  1
  O  O23  1  0.83859331  0.28673440  0.52350252  1
  O  O24  1  0.54249731  0.69810072  0.97816077  1
  O  O25  1  0.14639097  0.45851106  0.97187091  1
  O  O26  1  0.30144238  0.84181365  0.97714577  1
  O  O27  1  0.54037027  0.84181365  0.47714577  1
  O  O28  1  0.31211909  0.45851106  0.47187091  1
  O  O29  1  0.15560241  0.69810072  0.47816077  1
  O  O30  1  0.11480809  0.62006840  0.35683652  1
  O  O31  1  0.49086208  0.86432314  0.35567341  1
  O  O32  1  0.36598038  0.48505234  0.36181673  1
  O  O33  1  0.11907095  0.48505234  0.86181673  1
  O  O34  1  0.37346006  0.86432314  0.85567341  1
  O  O35  1  0.50525931  0.62006840  0.85683652  1
  O  O36  1  0.01332661  0.83423865  0.41184863  1
  O  O37  1  0.81134496  0.98934426  0.41117633  1
  O  O38  1  0.18024393  0.20127701  0.41119957  1
  O  O39  1  0.02103308  0.20127701  0.91119957  1
  O  O40  1  0.17799929  0.98934426  0.91117633  1
  O  O41  1  0.82091205  0.83423865  0.91184863  1
  O  O42  1  0.97426653  0.15192340  0.58757857  1
  O  O43  1  0.20139029  0.02401408  0.58717165  1
  O  O44  1  0.85975689  0.82102727  0.59145421  1
  O  O45  1  0.96127038  0.82102727  0.09145421  1
  O  O46  1  0.82262379  0.02401408  0.08717165  1
  O  O47  1  0.17765687  0.15192340  0.08757857  1
  O  O48  1  0.67999361  0.16757165  0.74518163  1
  O  O49  1  0.47801196  0.32267726  0.74450933  1
  O  O50  1  0.84691093  0.53461001  0.74453257  1
  O  O51  1  0.68770008  0.53461001  0.24453257  1
  O  O52  1  0.84466629  0.32267726  0.24450933  1
  O  O53  1  0.48757905  0.16757165  0.24518163  1
  O  O54  1  0.64093353  0.48525640  0.92091157  1
  O  O55  1  0.86805729  0.35734708  0.92050465  1
  O  O56  1  0.52642389  0.15436027  0.92478721  1
  O  O57  1  0.62793738  0.15436027  0.42478721  1
  O  O58  1  0.48929079  0.35734708  0.42050465  1
  O  O59  1  0.84432387  0.48525640  0.42091157  1
  O  O60  1  0.34665961  0.50090565  0.07851563  1
  O  O61  1  0.14467796  0.65601126  0.07784333  1
  O  O62  1  0.51357693  0.86794401  0.07786657  1
  O  O63  1  0.35436608  0.86794401  0.57786657  1
  O  O64  1  0.51133229  0.65601126  0.57784333  1
  O  O65  1  0.15424505  0.50090565  0.57851563  1
  O  O66  1  0.30759953  0.81859040  0.25424557  1
  O  O67  1  0.53472329  0.69068108  0.25383865  1
  O  O68  1  0.19308989  0.48769427  0.25812121  1
  O  O69  1  0.29460338  0.48769427  0.75812121  1
  O  O70  1  0.15595679  0.69068108  0.75383865  1
  O  O71  1  0.51098987  0.81859040  0.75424557  1
loop_
_geom_bond_atom_site_label_1
_geom_bond_atom_site_label_2
_geom_bond_distance
_geom_bond_site_symmetry_2
Na0 O53 2.412681 1_555
Na0 O52 2.435980 1_555
Na0 O67 2.525757 1_545
Na0 O66 2.608177 1_545
Na0 O31 2.662106 1_545
Na0 O16 2.735106 1_555
Na0 O2 2.851497 1_555
Na0 O9 2.938650 1_545
Na1 O68 2.395817 1_555
Na1 O53 2.462570 1_555
Na1 O17 2.503457 1_555
Na1 O51 2.522833 1_555
Na1 O67 2.540663 1_555
Na1 O32 2.715658 1_555
Na1 O10 2.840534 1_555
Na1 O0 2.939343 1_555
Na2 O52 2.331060 1_555
Na2 O15 2.413878 1_555
Na2 O51 2.475524 1_555
Na2 O66 2.481862 1_655
Na2 O68 2.703544 1_655
Na2 O30 2.722054 1_655
Na2 O11 2.829267 1_655
Na3 O49 2.331059 1_555
Na3 O14 2.413880 1_555
Na3 O50 2.475533 1_555
Na3 O71 2.481869 1_555
Na3 O69 2.703552 1_555
Na3 O35 2.722058 1_555
Na3 O6 2.829267 1_555
Na4 O69 2.395809 1_655
Na4 O48 2.462563 1_555
Na4 O12 2.503453 1_555
Na4 O50 2.522825 1_555
Na4 O70 2.540663 1_655
Na4 O33 2.715656 1_655
Na4 O7 2.840534 1_655
Na4 O5 2.939343 1_555
Na5 O48 2.412689 1_555
Na5 O49 2.435978 1_555
Na5 O70 2.525759 1_545
Na5 O71 2.608169 1_545
Na5 O34 2.662104 1_545
Na5 O13 2.735108 1_555
Na5 O3 2.851497 1_555
Na5 O8 2.938650 1_545
Na6 O65 2.412694 1_555
Na6 O64 2.435982 1_555
Na6 O43 2.525757 1_555
Na6 O42 2.608177 1_455
Na6 O7 2.662106 1_555
Na6 O28 2.735091 1_555
Na6 O14 2.851497 1_555
Na6 O21 2.938650 1_555
Na7 O44 2.395817 1_455
Na7 O65 2.462555 1_555
Na7 O29 2.503432 1_555
Na7 O63 2.522824 1_555
Na7 O43 2.540663 1_565
Na7 O8 2.715658 1_555
Na7 O22 2.840534 1_455
Na7 O12 2.939343 1_455
Na8 O64 2.331053 1_555
Na8 O27 2.413859 1_555
Na8 O63 2.475536 1_555
Na8 O42 2.481862 1_565
Na8 O44 2.703544 1_555
Na8 O6 2.722054 1_555
Na8 O23 2.829267 1_565
Na9 O61 2.331053 1_555
Na9 O26 2.413855 1_554
Na9 O62 2.475518 1_555
Na9 O47 2.481869 1_565
Na9 O45 2.703552 1_455
Na9 O11 2.722058 1_555
Na9 O18 2.829267 1_565
Na10 O45 2.395809 1_555
Na10 O60 2.462569 1_555
Na10 O24 2.503440 1_554
Na10 O62 2.522840 1_555
Na10 O46 2.540663 1_565
Na10 O9 2.715656 1_555
Na10 O19 2.840534 1_555
Na10 O17 2.939343 1_555
Na11 O60 2.412679 1_555
Na11 O61 2.435986 1_555
Na11 O46 2.525759 1_455
Na11 O47 2.608169 1_555
Na11 O10 2.662104 1_555
Na11 O25 2.735088 1_554
Na11 O15 2.851497 1_455
Na11 O20 2.938650 1_455
Na12 O41 2.412681 1_555
Na12 O40 2.435980 1_655
Na12 O55 2.525766 1_555
Na12 O54 2.608169 1_555
Na12 O19 2.662088 1_556
Na12 O4 2.735106 1_555
Na12 O26 2.851497 1_655
Na12 O33 2.938650 1_655
Na13 O56 2.395800 1_555
Na13 O41 2.462570 1_545
Na13 O5 2.503457 1_555
Na13 O39 2.522833 1_655
Na13 O55 2.540655 1_555
Na13 O20 2.715633 1_556
Na13 O34 2.840534 1_545
Na13 O24 2.939343 1_545
Na14 O40 2.331060 1_545
Na14 O3 2.413878 1_555
Na14 O39 2.475524 1_555
Na14 O54 2.481867 1_555
Na14 O56 2.703556 1_555
Na14 O18 2.722041 1_556
Na14 O35 2.829267 1_555
Na15 O37 2.331059 1_545
Na15 O2 2.413880 1_555
Na15 O38 2.475533 1_655
Na15 O59 2.481853 1_555
Na15 O57 2.703540 1_555
Na15 O23 2.722033 1_555
Na15 O30 2.829267 1_655
Na16 O57 2.395816 1_555
Na16 O36 2.462563 1_545
Na16 O0 2.503453 1_555
Na16 O38 2.522825 1_555
Na16 O58 2.540655 1_555
Na16 O21 2.715637 1_555
Na16 O31 2.840534 1_545
Na16 O29 2.939343 1_545
Na17 O36 2.412689 1_655
Na17 O37 2.435978 1_555
Na17 O58 2.525763 1_555
Na17 O59 2.608184 1_555
Na17 O22 2.662092 1_555
Na17 O1 2.735108 1_555
Na17 O27 2.851497 1_555
Na17 O32 2.938650 1_555
Na18 O36 2.364532 1_655
Na18 O42 2.454410 1_565
Na18 O37 2.479392 1_555
Na18 O44 2.541549 1_555
Na18 O38 2.652138 1_665
Na18 O43 2.676443 1_665
Na19 O41 2.364532 1_455
Na19 O47 2.454410 1_566
Na19 O40 2.479392 1_555
Na19 O45 2.541549 1_456
Na19 O39 2.652138 1_565
Na19 O46 2.676443 1_466
Na20 O48 2.364532 1_555
Na20 O54 2.454410 1_555
Na20 O49 2.479392 1_555
Na20 O56 2.541549 1_555
Na20 O50 2.652138 1_555
Na20 O55 2.676443 1_555
Na21 O53 2.364532 1_555
Na21 O59 2.454410 1_555
Na21 O52 2.479392 1_555
Na21 O57 2.541549 1_555
Na21 O51 2.652138 1_555
Na21 O58 2.676443 1_555
Na22 O60 2.364532 1_555
Na22 O66 2.454410 1_555
Na22 O61 2.479392 1_555
Na22 O68 2.541549 1_555
Na22 O62 2.652138 1_555
Na22 O67 2.676443 1_555
Na23 O65 2.364532 1_555
Na23 O71 2.454410 1_555
Na23 O64 2.479392 1_555
Na23 O69 2.541549 1_555
Na23 O63 2.652138 1_555
Na23 O70 2.676443 1_555
Mg0 O2 1.969144 1_455
Mg0 O0 1.999547 1_555
Mg0 O1 2.013636 1_445
Mg0 O36 2.084694 1_545
Mg0 O38 2.092882 1_555
Mg0 O37 2.124416 1_445
Mg1 O3 1.969144 1_555
Mg1 O5 1.999547 1_455
Mg1 O4 2.013636 1_445
Mg1 O41 2.084694 1_445
Mg1 O39 2.092882 1_555
Mg1 O40 2.124416 1_545
Mg2 O14 1.969144 1_555
Mg2 O12 1.999547 1_555
Mg2 O13 2.013636 1_555
Mg2 O48 2.084694 1_555
Mg2 O50 2.092882 1_555
Mg2 O49 2.124416 1_555
Mg3 O15 1.969144 1_555
Mg3 O17 1.999547 1_555
Mg3 O16 2.013636 1_555
Mg3 O53 2.084694 1_555
Mg3 O51 2.092882 1_555
Mg3 O52 2.124416 1_555
Mg4 O26 1.969144 1_554
Mg4 O24 1.999547 1_554
Mg4 O25 2.013636 1_554
Mg4 O60 2.084694 1_555
Mg4 O62 2.092882 1_555
Mg4 O61 2.124416 1_555
Mg5 O27 1.969144 1_555
Mg5 O29 1.999547 1_555
Mg5 O28 2.013636 1_555
Mg5 O65 2.084694 1_555
Mg5 O63 2.092882 1_555
Mg5 O64 2.124416 1_555
Ge0 O6 1.794936 1_545
Ge0 O7 1.845438 1_655
Ge0 O42 1.852627 1_555
Ge0 O44 1.894530 1_545
Ge0 O8 2.351704 1_645
Ge0 O43 2.460517 1_655
Ge1 O11 1.794936 1_545
Ge1 O10 1.845438 1_555
Ge1 O47 1.852627 1_555
Ge1 O45 1.894530 1_445
Ge1 O9 2.351704 1_445
Ge1 O46 2.460517 1_455
Ge2 O18 1.794936 1_556
Ge2 O19 1.845438 1_556
Ge2 O54 1.852627 1_555
Ge2 O56 1.894530 1_555
Ge2 O20 2.351704 1_556
Ge2 O55 2.460517 1_555
Ge3 O23 1.794936 1_555
Ge3 O22 1.845438 1_555
Ge3 O59 1.852627 1_555
Ge3 O57 1.894530 1_555
Ge3 O21 2.351704 1_555
Ge3 O58 2.460517 1_555
Ge4 O30 1.794936 1_555
Ge4 O31 1.845438 1_555
Ge4 O66 1.852627 1_555
Ge4 O68 1.894530 1_555
Ge4 O32 2.351704 1_555
Ge4 O67 2.460517 1_555
Ge5 O35 1.794936 1_555
Ge5 O34 1.845438 1_555
Ge5 O71 1.852627 1_555
Ge5 O69 1.894530 1_555
Ge5 O33 2.351704 1_555
Ge5 O70 2.460517 1_555
O0 Si0 1.589156 1_555
O1 S0 1.469615 1_555
O2 Si1 1.588475 1_655
O3 Si2 1.588475 1_555
O4 S1 1.469615 1_655
O5 Si3 1.589156 1_555
O6 Si3 1.695765 1_565
O7 Si2 1.730896 1_555
O8 S1 1.502409 1_555
O9 S0 1.502409 1_555
O10 Si1 1.730896 1_555
O11 Si0 1.695765 1_565
O12 Si4 1.589156 1_555
O13 S2 1.469615 1_555
O14 Si5 1.588475 1_555
O15 Si6 1.588475 1_555
O16 S3 1.469615 1_555
O17 Si7 1.589156 1_555
O18 Si7 1.695765 1_555
O19 Si6 1.730896 1_555
O20 S3 1.502409 1_555
O21 S2 1.502409 1_555
O22 Si5 1.730896 1_555
O23 Si4 1.695765 1_555
O24 Si8 1.589156 1_555
O25 S4 1.469615 1_555
O26 Si9 1.588475 1_555
O27 Si10 1.588475 1_555
O28 S5 1.469615 1_555
O29 Si11 1.589156 1_555
O30 Si11 1.695765 1_555
O31 Si10 1.730896 1_555
O32 S5 1.502409 1_555
O33 S4 1.502409 1_555
O34 Si9 1.730896 1_555
O35 Si8 1.695765 1_555
O36 Si11 1.613841 1_555
O37 Si10 1.620631 1_555
O38 S5 1.483443 1_555
O39 S4 1.483447 1_555
O40 Si9 1.620622 1_555
O41 Si8 1.613847 1_555
O42 Si4 1.700432 1_555
O43 S2 1.501784 1_555
O44 Si5 1.725734 1_555
O45 Si6 1.725738 1_555
O46 S3 1.501775 1_555
O47 Si7 1.700437 1_555
O48 Si3 1.613841 1_555
O49 Si2 1.620631 1_555
O50 S1 1.483443 1_655
O51 S0 1.483447 1_555
O52 Si1 1.620622 1_655
O53 Si0 1.613847 1_555
O54 Si8 1.700444 1_555
O55 S4 1.501769 1_655
O56 Si9 1.725733 1_545
O57 Si10 1.725724 1_545
O58 S5 1.501788 1_555
O59 Si11 1.700434 1_655
O60 Si7 1.613852 1_555
O61 Si6 1.620616 1_455
O62 S3 1.483442 1_565
O63 S2 1.483434 1_565
O64 Si5 1.620634 1_555
O65 Si4 1.613841 1_455
O66 Si0 1.700432 1_565
O67 S0 1.501784 1_555
O68 Si1 1.725734 1_555
O69 Si2 1.725738 1_555
O70 S1 1.501775 1_555
O71 Si3 1.700437 1_565
