# generated using pymatgen
data_MgMn6(O2F)4
_symmetry_space_group_name_H-M   'P 1'
_cell_length_a   11.26064486
_cell_length_b   6.89505650
_cell_length_c   3.00508841
_cell_angle_alpha   89.76354779
_cell_angle_beta   89.57063493
_cell_angle_gamma   109.52636078
_symmetry_Int_Tables_number   1
_chemical_formula_structural   MgMn6(O2F)4
_chemical_formula_sum   'Mg1 Mn6 O8 F4'
_cell_volume   219.89286702
_cell_formula_units_Z   1
loop_
 _symmetry_equiv_pos_site_id
 _symmetry_equiv_pos_as_xyz
  1  'x, y, z'
loop_
 _atom_site_type_symbol
 _atom_site_label
 _atom_site_symmetry_multiplicity
 _atom_site_fract_x
 _atom_site_fract_y
 _atom_site_fract_z
 _atom_site_occupancy
  Mg  Mg0  1  0.17408100  0.35411300  0.02368000  1
  Mn  Mn0  1  0.99484400  0.98422600  0.00060100  1
  Mn  Mn1  1  0.33569500  0.14338600  0.51855400  1
  Mn  Mn2  1  0.97920600  0.50565200  0.51098500  1
  Mn  Mn3  1  0.64052100  0.31213200  0.00734200  1
  Mn  Mn4  1  0.37563300  0.68925400  0.01350800  1
  Mn  Mn5  1  0.66152000  0.83294800  0.50319700  1
  O  O0  1  0.14415800  0.12569800  0.52686900  1
  O  O1  1  0.99399700  0.32368800  0.01205500  1
  O  O2  1  0.99429300  0.69291500  0.00737600  1
  O  O3  1  0.67753400  0.02428500  0.00233500  1
  O  O4  1  0.52401200  0.23490000  0.51163200  1
  O  O5  1  0.24995500  0.57223300  0.51803500  1
  O  O6  1  0.48515100  0.78149400  0.50944200  1
  O  O7  1  0.65263800  0.64504700  0.00496700  1
  F  F0  1  0.35828300  0.35815500  0.01726200  1
  F  F1  1  0.77131300  0.39758500  0.50402000  1
  F  F2  1  0.30775800  0.93855900  0.02051700  1
  F  F3  1  0.85440800  0.91706500  0.49595600  1
loop_
_geom_bond_atom_site_label_1
_geom_bond_atom_site_label_2
_geom_bond_distance
_geom_bond_site_symmetry_2
Mg0 O1 1.968298 1_455
Mg0 O5 2.092197 1_555
Mg0 O5 2.098442 1_554
Mg0 O0 2.120162 1_554
Mg0 O0 2.120954 1_555
Mn0 O2 2.006559 1_555
Mn0 O0 2.159043 1_664
Mn0 O0 2.288191 1_665
Mn0 O1 2.344208 1_565
Mn1 O4 2.000041 1_555
Mn1 O0 2.119137 1_555
Mn2 O2 1.947885 1_556
Mn2 O2 1.954421 1_555
Mn2 O1 1.999266 1_556
Mn2 O1 2.000339 1_555
Mn3 O4 1.947486 1_554
Mn3 O4 1.948817 1_555
Mn3 O3 2.160136 1_555
Mn3 O7 2.253512 1_555
Mn4 O6 1.912461 1_555
Mn4 O6 1.913014 1_554
Mn4 O5 2.036415 1_555
Mn4 O5 2.036904 1_554
Mn5 O6 1.897078 1_555
Mn5 O7 1.963975 1_556
Mn5 O3 1.964422 1_565
Mn5 O7 1.965163 1_555
Mn5 O3 1.970845 1_566
F0 Mn1 2.061789 1_555
F0 Mg0 2.065029 1_555
F0 Mn1 2.067806 1_554
F0 Mn4 2.225250 1_555
F1 Mn3 2.045289 1_556
F1 Mn3 2.050404 1_555
F1 Mn2 2.206983 1_555
F2 Mn1 2.011776 1_564
F2 Mn1 2.015189 1_565
F2 Mn4 2.101861 1_555
F3 Mn5 2.052241 1_555
F3 Mn0 2.097772 1_555
F3 Mn0 2.137113 1_556
