# generated using pymatgen
data_TmMn12
_symmetry_space_group_name_H-M   'P 1'
_cell_length_a   6.76024361
_cell_length_b   6.76014861
_cell_length_c   6.76511508
_cell_angle_alpha   97.38361037
_cell_angle_beta   97.38350475
_cell_angle_gamma   136.09065743
_symmetry_Int_Tables_number   1
_chemical_formula_structural   TmMn12
_chemical_formula_sum   'Tm1 Mn12'
_cell_volume   201.34913796
_cell_formula_units_Z   1
loop_
 _symmetry_equiv_pos_site_id
 _symmetry_equiv_pos_as_xyz
  1  'x, y, z'
loop_
 _atom_site_type_symbol
 _atom_site_label
 _atom_site_symmetry_multiplicity
 _atom_site_fract_x
 _atom_site_fract_y
 _atom_site_fract_z
 _atom_site_occupancy
  Tm  Tm0  1  -0.00000425  0.00000017  0.00000131  1
  Mn  Mn0  1  0.50000425  0.50000931  0.50000407  1
  Mn  Mn1  1  -0.00000214  -0.00000369  0.50000199  1
  Mn  Mn2  1  -0.00003947  0.49996808  -0.00000490  1
  Mn  Mn3  1  0.50002875  0.00003562  -0.00000852  1
  Mn  Mn4  1  0.33758918  -0.01072780  0.35600763  1
  Mn  Mn5  1  0.66240775  0.01072055  0.64398426  1
  Mn  Mn6  1  0.01073616  0.66240932  0.64398849  1
  Mn  Mn7  1  -0.01072495  0.33759645  0.35601975  1
  Mn  Mn8  1  0.28429498  0.51072371  0.77792882  1
  Mn  Mn9  1  0.71569323  0.48926264  0.22206433  1
  Mn  Mn10  1  0.48927819  0.71569845  0.22207086  1
  Mn  Mn11  1  0.51073830  0.28430719  0.77794188  1
loop_
_geom_bond_atom_site_label_1
_geom_bond_atom_site_label_2
_geom_bond_distance
_geom_bond_site_symmetry_2
Mn0 Mn1 2.527410 1_665
Mn0 Mn1 2.527499 1_555
Mn0 Mn10 2.547268 1_555
Mn0 Mn8 2.547300 1_555
Mn0 Mn9 2.547363 1_555
Mn0 Mn11 2.547372 1_555
Mn0 Mn5 2.733682 1_565
Mn0 Mn4 2.733817 1_555
Mn0 Mn7 2.733819 1_555
Mn0 Mn6 2.733884 1_655
Mn0 Tm0 3.457202 1_666
Mn0 Tm0 3.457265 1_555
Mn1 Mn5 2.637051 1_455
Mn1 Mn6 2.637075 1_545
Mn1 Mn7 2.637081 1_555
Mn1 Mn4 2.637097 1_555
Mn1 Mn8 2.644051 1_555
Mn1 Mn10 2.644070 1_445
Mn1 Mn9 2.644098 1_445
Mn1 Mn11 2.644167 1_555
Mn1 Tm0 3.382551 1_556
Mn1 Tm0 3.382564 1_555
Mn2 Mn3 2.527103 1_455
Mn2 Mn3 2.527806 1_565
Mn2 Mn9 2.554367 1_455
Mn2 Mn8 2.554571 1_554
Mn2 Mn5 2.759004 1_454
Mn2 Mn4 2.759122 1_565
Mn2 Mn7 2.760643 1_555
Mn2 Mn6 2.760670 1_554
Mn2 Tm0 3.380034 1_555
Mn2 Tm0 3.380114 1_565
Mn3 Mn9 2.555959 1_555
Mn3 Mn8 2.556193 1_544
Mn3 Mn6 2.759076 1_544
Mn3 Mn7 2.759093 1_655
Mn3 Mn5 2.760564 1_554
Mn3 Mn4 2.760743 1_555
Mn3 Tm0 3.380063 1_655
Mn3 Tm0 3.380181 1_555
Mn4 Mn5 2.647146 1_555
Mn4 Mn9 2.771150 1_445
Mn4 Mn9 2.777238 1_555
Mn4 Mn6 2.956069 1_545
Mn4 Tm0 3.144029 1_555
Mn4 Mn7 3.163176 1_545
Mn4 Mn7 3.163233 1_655
Mn4 Mn6 3.288841 1_655
Mn5 Mn8 2.771111 1_655
Mn5 Mn8 2.777274 1_545
Mn5 Mn7 2.956029 1_655
Mn5 Tm0 3.144021 1_656
Mn5 Mn6 3.163196 1_655
Mn5 Mn6 3.163204 1_545
Mn5 Mn7 3.288758 1_545
Mn6 Mn7 2.647005 1_555
Mn6 Mn9 2.794609 1_455
Mn6 Mn8 2.798756 1_555
Mn6 Tm0 3.144078 1_566
Mn7 Mn8 2.794506 1_555
Mn7 Mn9 2.798806 1_455
Mn7 Tm0 3.144042 1_555
Mn8 Tm0 3.222623 1_556
Mn8 Tm0 3.225288 1_666
Mn9 Tm0 3.222643 1_665
Mn9 Tm0 3.225274 1_555
Mn10 Mn3 2.554642 1_565
Mn10 Mn2 2.556314 1_555
Mn10 Mn7 2.771118 1_665
Mn10 Mn7 2.777336 1_555
Mn10 Mn5 2.794519 1_565
Mn10 Mn4 2.798847 1_565
Mn10 Mn8 2.821596 1_554
Mn10 Mn9 2.839350 1_555
Mn10 Tm0 3.222615 1_665
Mn10 Tm0 3.225214 1_555
Mn11 Mn3 2.554266 1_556
Mn11 Mn2 2.555946 1_656
Mn11 Mn6 2.771120 1_545
Mn11 Mn6 2.777333 1_655
Mn11 Mn4 2.794637 1_555
Mn11 Mn5 2.798847 1_555
Mn11 Mn9 2.821471 1_556
Mn11 Mn8 2.839407 1_555
Mn11 Tm0 3.222683 1_556
Mn11 Tm0 3.225199 1_666
