# generated using pymatgen
data_Fe2(PO4)3
_symmetry_space_group_name_H-M   'P 1'
_cell_length_a   8.76714100
_cell_length_b   8.71382800
_cell_length_c   14.88127554
_cell_angle_alpha   54.63458097
_cell_angle_beta   90.00000000
_cell_angle_gamma   90.00000000
_symmetry_Int_Tables_number   1
_chemical_formula_structural   Fe2(PO4)3
_chemical_formula_sum   'Fe8 P12 O48'
_cell_volume   927.08380535
_cell_formula_units_Z   4
loop_
 _symmetry_equiv_pos_site_id
 _symmetry_equiv_pos_as_xyz
  1  'x, y, z'
loop_
 _atom_site_type_symbol
 _atom_site_label
 _atom_site_symmetry_multiplicity
 _atom_site_fract_x
 _atom_site_fract_y
 _atom_site_fract_z
 _atom_site_occupancy
  Fe  Fe0  1  0.03455300  0.36741400  0.88285100  1
  Fe  Fe1  1  0.03433500  0.13145500  0.61906900  1
  Fe  Fe2  1  0.46544700  0.36741400  0.38285100  1
  Fe  Fe3  1  0.53455300  0.63258600  0.61714900  1
  Fe  Fe4  1  0.96566500  0.86854500  0.38093100  1
  Fe  Fe5  1  0.53433500  0.86854500  0.88093100  1
  Fe  Fe6  1  0.46566500  0.13145500  0.11906900  1
  Fe  Fe7  1  0.96544700  0.63258600  0.11714900  1
  P  P0  1  0.38843400  0.24781800  0.64648200  1
  P  P1  1  0.24957900  0.96203000  0.00401000  1
  P  P2  1  0.61156600  0.75218200  0.35351800  1
  P  P3  1  0.75042100  0.03797000  0.99599000  1
  P  P4  1  0.10946300  0.53880600  0.35534400  1
  P  P5  1  0.11156600  0.24781800  0.14648200  1
  P  P6  1  0.88843400  0.75218200  0.85351800  1
  P  P7  1  0.74957900  0.03797000  0.49599000  1
  P  P8  1  0.89053700  0.46119400  0.64465600  1
  P  P9  1  0.39053700  0.53880600  0.85534400  1
  P  P10  1  0.60946300  0.46119400  0.14465600  1
  P  P11  1  0.25042100  0.96203000  0.50401000  1
  O  O0  1  0.50131800  0.58323500  0.76329000  1
  O  O1  1  0.14190100  0.12901200  0.93148500  1
  O  O2  1  0.16316700  0.77417400  0.06315600  1
  O  O3  1  0.27153200  0.51514500  0.32504700  1
  O  O4  1  0.85809900  0.87098800  0.06851500  1
  O  O5  1  0.57268600  0.67914400  0.47242600  1
  O  O6  1  0.66316700  0.22582600  0.43684400  1
  O  O7  1  0.77153200  0.48485500  0.17495300  1
  O  O8  1  0.08460800  0.40049100  0.16611900  1
  O  O9  1  0.67481400  0.02414600  0.90706700  1
  O  O10  1  0.42731400  0.32085600  0.52757400  1
  O  O11  1  0.33683300  0.77417400  0.56315600  1
  O  O12  1  0.37033400  0.96566700  0.92810200  1
  O  O13  1  0.10809100  0.69929200  0.37085700  1
  O  O14  1  0.71760000  0.80453800  0.82968100  1
  O  O15  1  0.64190100  0.87098800  0.56851500  1
  O  O16  1  0.39190900  0.69929200  0.87085700  1
  O  O17  1  0.28240000  0.19546200  0.17031900  1
  O  O18  1  0.87033400  0.03433300  0.57189800  1
  O  O19  1  0.32518600  0.97585400  0.09293300  1
  O  O20  1  0.07268600  0.32085600  0.02757400  1
  O  O21  1  0.17481400  0.97585400  0.59293300  1
  O  O22  1  0.05753900  0.35602100  0.46357900  1
  O  O23  1  0.94246100  0.64397900  0.53642100  1
  O  O24  1  0.89190900  0.30070800  0.62914300  1
  O  O25  1  0.92731400  0.67914400  0.97242600  1
  O  O26  1  0.49868200  0.41676500  0.23671000  1
  O  O27  1  0.58460800  0.59950900  0.33388100  1
  O  O28  1  0.35809900  0.12901200  0.43148500  1
  O  O29  1  0.49068200  0.07676700  0.72492500  1
  O  O30  1  0.44246100  0.35602100  0.96357900  1
  O  O31  1  0.82518600  0.02414600  0.40706700  1
  O  O32  1  0.50931800  0.92323300  0.27507500  1
  O  O33  1  0.99868200  0.58323500  0.26329000  1
  O  O34  1  0.22846800  0.51514500  0.82504700  1
  O  O35  1  0.41539200  0.40049100  0.66611900  1
  O  O36  1  0.62966600  0.03433300  0.07189800  1
  O  O37  1  0.21760000  0.19546200  0.67031900  1
  O  O38  1  0.00131800  0.41676500  0.73671000  1
  O  O39  1  0.91539200  0.59950900  0.83388100  1
  O  O40  1  0.99068200  0.92323300  0.77507500  1
  O  O41  1  0.78240000  0.80453800  0.32968100  1
  O  O42  1  0.60809100  0.30070800  0.12914300  1
  O  O43  1  0.12966600  0.96566700  0.42810200  1
  O  O44  1  0.00931800  0.07676700  0.22492500  1
  O  O45  1  0.72846800  0.48485500  0.67495300  1
  O  O46  1  0.55753900  0.64397900  0.03642100  1
  O  O47  1  0.83683300  0.22582600  0.93684400  1
loop_
_geom_bond_atom_site_label_1
_geom_bond_atom_site_label_2
_geom_bond_distance
_geom_bond_site_symmetry_2
Fe0 O20 1.975653 1_556
Fe0 O38 1.979099 1_555
Fe0 O1 1.996170 1_555
Fe0 O34 2.001383 1_555
Fe0 O39 2.001659 1_455
Fe0 O47 2.006257 1_455
Fe1 O40 1.988012 1_445
Fe1 O18 1.990980 1_455
Fe1 O37 1.991647 1_555
Fe1 O22 1.995813 1_555
Fe1 O24 2.003184 1_455
Fe1 O21 2.029032 1_545
Fe2 O10 1.975653 1_555
Fe2 O26 1.979099 1_555
Fe2 O28 1.996170 1_555
Fe2 O3 2.001383 1_555
Fe2 O27 2.001659 1_555
Fe2 O6 2.006257 1_555
Fe3 O5 1.975653 1_555
Fe3 O0 1.979099 1_555
Fe3 O15 1.996170 1_555
Fe3 O45 2.001383 1_555
Fe3 O35 2.001659 1_555
Fe3 O11 2.006257 1_555
Fe4 O44 1.988012 1_665
Fe4 O43 1.990980 1_655
Fe4 O41 1.991647 1_555
Fe4 O23 1.995813 1_555
Fe4 O13 2.003184 1_655
Fe4 O31 2.029032 1_565
Fe5 O29 1.988012 1_565
Fe5 O12 1.990980 1_555
Fe5 O14 1.991647 1_555
Fe5 O46 1.995813 1_556
Fe5 O16 2.003184 1_555
Fe5 O9 2.029032 1_565
Fe6 O32 1.988012 1_545
Fe6 O36 1.990980 1_555
Fe6 O17 1.991647 1_555
Fe6 O30 1.995813 1_554
Fe6 O42 2.003184 1_555
Fe6 O19 2.029032 1_545
Fe7 O25 1.975653 1_554
Fe7 O33 1.979099 1_555
Fe7 O4 1.996170 1_555
Fe7 O7 2.001383 1_555
Fe7 O8 2.001659 1_655
Fe7 O2 2.006257 1_655
O0 P9 1.534872 1_555
O1 P1 1.534710 1_546
O2 P1 1.536359 1_555
O3 P4 1.540225 1_555
O4 P3 1.534710 1_564
O5 P2 1.532560 1_555
O6 P7 1.536359 1_555
O7 P10 1.540225 1_555
O8 P5 1.536604 1_555
O9 P3 1.545801 1_555
O10 P0 1.532560 1_555
O11 P11 1.536359 1_555
O12 P1 1.535048 1_556
O13 P4 1.543632 1_555
O14 P6 1.545903 1_555
O15 P7 1.534710 1_565
O16 P9 1.543632 1_555
O17 P5 1.545903 1_555
O18 P7 1.535048 1_555
O19 P1 1.545801 1_555
O20 P5 1.532560 1_555
O21 P11 1.545801 1_555
O22 P4 1.539062 1_555
O23 P8 1.539062 1_555
O24 P8 1.543632 1_555
O25 P6 1.532560 1_555
O26 P10 1.534872 1_555
O27 P2 1.536604 1_555
O28 P11 1.534710 1_545
O29 P0 1.540702 1_555
O30 P9 1.539062 1_555
O31 P7 1.545801 1_555
O32 P2 1.540702 1_555
O33 P4 1.534872 1_655
O34 P9 1.540225 1_555
O35 P0 1.536604 1_555
O36 P3 1.535048 1_554
O37 P0 1.545903 1_555
O38 P8 1.534872 1_455
O39 P6 1.536604 1_555
O40 P6 1.540702 1_555
O41 P2 1.545903 1_555
O42 P10 1.543632 1_555
O43 P11 1.535048 1_555
O44 P5 1.540702 1_555
O45 P8 1.540225 1_555
O46 P10 1.539062 1_555
O47 P3 1.536359 1_555
