# generated using pymatgen
data_NbBiO4
_symmetry_space_group_name_H-M   'P 1'
_cell_length_a   5.04015131
_cell_length_b   5.74061842
_cell_length_c   11.73111082
_cell_angle_alpha   90.00000000
_cell_angle_beta   90.00000000
_cell_angle_gamma   90.00000000
_symmetry_Int_Tables_number   1
_chemical_formula_structural   NbBiO4
_chemical_formula_sum   'Nb4 Bi4 O16'
_cell_volume   339.42309733
_cell_formula_units_Z   4
loop_
 _symmetry_equiv_pos_site_id
 _symmetry_equiv_pos_as_xyz
  1  'x, y, z'
loop_
 _atom_site_type_symbol
 _atom_site_label
 _atom_site_symmetry_multiplicity
 _atom_site_fract_x
 _atom_site_fract_y
 _atom_site_fract_z
 _atom_site_occupancy
  Nb  Nb0  1  0.75000000  0.84861938  0.25000000  1
  Nb  Nb1  1  0.75000000  0.65138062  0.75000000  1
  Nb  Nb2  1  0.25000000  0.15138062  0.75000000  1
  Nb  Nb3  1  0.25000000  0.34861938  0.25000000  1
  Bi  Bi0  1  0.27976639  0.75000000  0.00000000  1
  Bi  Bi1  1  0.22023361  0.75000000  0.50000000  1
  Bi  Bi2  1  0.72023361  0.25000000  0.00000000  1
  Bi  Bi3  1  0.77976639  0.25000000  0.50000000  1
  O  O0  1  0.91653897  0.92050028  0.40153822  1
  O  O1  1  0.91653897  0.57949972  0.59846178  1
  O  O2  1  0.58346103  0.92050028  0.09846178  1
  O  O3  1  0.58346103  0.57949972  0.90153822  1
  O  O4  1  0.08346103  0.07949972  0.59846178  1
  O  O5  1  0.08346103  0.42050028  0.40153822  1
  O  O6  1  0.41653897  0.07949972  0.90153822  1
  O  O7  1  0.41653897  0.42050028  0.09846178  1
  O  O8  1  0.50538058  0.14232694  0.30839889  1
  O  O9  1  0.50538058  0.35767306  0.69160111  1
  O  O10  1  0.99461942  0.14232694  0.19160111  1
  O  O11  1  0.99461942  0.35767306  0.80839889  1
  O  O12  1  0.49461942  0.85767306  0.69160111  1
  O  O13  1  0.49461942  0.64232694  0.30839889  1
  O  O14  1  0.00538058  0.85767306  0.80839889  1
  O  O15  1  0.00538058  0.64232694  0.19160111  1
loop_
_geom_bond_atom_site_label_1
_geom_bond_atom_site_label_2
_geom_bond_distance
_geom_bond_site_symmetry_2
Nb0 O13 1.878444 1_555
Nb0 O15 1.878444 1_655
Nb0 O2 2.008754 1_555
Nb0 O0 2.008754 1_555
Nb0 O10 2.198235 1_565
Nb0 O8 2.198235 1_565
Nb1 O14 1.878444 1_655
Nb1 O12 1.878444 1_555
Nb1 O1 2.008754 1_555
Nb1 O3 2.008754 1_555
Nb1 O11 2.198235 1_555
Nb1 O9 2.198235 1_555
Nb2 O11 1.878444 1_455
Nb2 O9 1.878444 1_555
Nb2 O4 2.008754 1_555
Nb2 O6 2.008754 1_555
Nb2 O12 2.198235 1_545
Nb2 O14 2.198235 1_545
Nb3 O8 1.878444 1_555
Nb3 O10 1.878444 1_455
Nb3 O5 2.008754 1_555
Nb3 O7 2.008754 1_555
Nb3 O13 2.198235 1_555
Nb3 O15 2.198235 1_555
Bi0 O3 2.152934 1_554
Bi0 O2 2.152934 1_555
Bi0 O6 2.321052 1_564
Bi0 O7 2.321052 1_555
Bi0 O15 2.710485 1_555
Bi0 O14 2.710485 1_554
Bi1 O1 2.152934 1_455
Bi1 O0 2.152934 1_455
Bi1 O5 2.321052 1_555
Bi1 O4 2.321052 1_565
Bi1 O12 2.710485 1_555
Bi1 O13 2.710485 1_555
Bi2 O6 2.152934 1_554
Bi2 O7 2.152934 1_555
Bi2 O3 2.321052 1_554
Bi2 O2 2.321052 1_545
Bi2 O10 2.710485 1_555
Bi2 O11 2.710485 1_554
Bi3 O5 2.152934 1_655
Bi3 O4 2.152934 1_655
Bi3 O0 2.321052 1_545
Bi3 O1 2.321052 1_555
Bi3 O8 2.710485 1_555
Bi3 O9 2.710485 1_555
