# generated using pymatgen
data_NdHSO5
_symmetry_space_group_name_H-M   'P 1'
_cell_length_a   12.44576351
_cell_length_b   4.48008198
_cell_length_c   7.03219470
_cell_angle_alpha   68.64427749
_cell_angle_beta   90.00000000
_cell_angle_gamma   90.00000000
_symmetry_Int_Tables_number   1
_chemical_formula_structural   NdHSO5
_chemical_formula_sum   'Nd4 H4 S4 O20'
_cell_volume   365.17874112
_cell_formula_units_Z   4
loop_
 _symmetry_equiv_pos_site_id
 _symmetry_equiv_pos_as_xyz
  1  'x, y, z'
loop_
 _atom_site_type_symbol
 _atom_site_label
 _atom_site_symmetry_multiplicity
 _atom_site_fract_x
 _atom_site_fract_y
 _atom_site_fract_z
 _atom_site_occupancy
  Nd  Nd0  1  0.56411589  0.33596050  0.30189324  1
  Nd  Nd1  1  0.06411589  0.66403950  0.19810676  1
  Nd  Nd2  1  0.43588411  0.66403950  0.69810676  1
  Nd  Nd3  1  0.93588411  0.33596050  0.80189324  1
  H  H0  1  0.34435941  0.29014143  0.47472765  1
  H  H1  1  0.84435941  0.70985857  0.02527235  1
  H  H2  1  0.65564059  0.70985857  0.52527235  1
  H  H3  1  0.15564059  0.29014143  0.97472765  1
  S  S0  1  0.64560657  0.09402308  0.88737520  1
  S  S1  1  0.14560657  0.90597692  0.61262480  1
  S  S2  1  0.35439343  0.90597692  0.11262480  1
  S  S3  1  0.85439343  0.09402308  0.38737520  1
  O  O0  1  0.41422226  0.26395485  0.54123305  1
  O  O1  1  0.91422226  0.73604515  0.95876695  1
  O  O2  1  0.58577774  0.73604515  0.45876695  1
  O  O3  1  0.08577774  0.26395485  0.04123305  1
  O  O4  1  0.83434960  0.80040556  0.56105746  1
  O  O5  1  0.33434960  0.19959444  0.93894254  1
  O  O6  1  0.16565040  0.19959444  0.43894254  1
  O  O7  1  0.66565040  0.80040556  0.06105746  1
  O  O8  1  0.90361112  0.02839094  0.21617248  1
  O  O9  1  0.40361112  0.97160906  0.28382752  1
  O  O10  1  0.09638888  0.97160906  0.78382752  1
  O  O11  1  0.59638888  0.02839094  0.71617248  1
  O  O12  1  0.93133514  0.29993896  0.44992338  1
  O  O13  1  0.43133514  0.70006104  0.05007662  1
  O  O14  1  0.06866486  0.70006104  0.55007662  1
  O  O15  1  0.56866486  0.29993896  0.94992338  1
  O  O16  1  0.75456333  0.27188705  0.31958959  1
  O  O17  1  0.25456333  0.72811295  0.18041041  1
  O  O18  1  0.24543667  0.72811295  0.68041041  1
  O  O19  1  0.74543667  0.27188705  0.81958959  1
loop_
_geom_bond_atom_site_label_1
_geom_bond_atom_site_label_2
_geom_bond_distance
_geom_bond_site_symmetry_2
Nd0 O16 2.385376 1_555
Nd0 O2 2.437728 1_555
Nd0 O0 2.453904 1_555
Nd0 O7 2.495624 1_555
Nd0 O2 2.520678 1_545
Nd0 O13 2.534520 1_555
Nd0 O15 2.538973 1_554
Nd0 O9 2.611911 1_545
Nd0 O11 2.761090 1_555
Nd1 O17 2.385376 1_555
Nd1 O3 2.437728 1_555
Nd1 O1 2.453904 1_454
Nd1 O6 2.495624 1_555
Nd1 O3 2.520678 1_565
Nd1 O12 2.534520 1_455
Nd1 O14 2.538973 1_555
Nd1 O8 2.611911 1_465
Nd1 O10 2.761090 1_554
Nd2 O18 2.385376 1_555
Nd2 O0 2.437728 1_555
Nd2 O2 2.453904 1_555
Nd2 O5 2.495624 1_555
Nd2 O0 2.520678 1_565
Nd2 O15 2.534520 1_555
Nd2 O13 2.538973 1_556
Nd2 O11 2.611911 1_565
Nd2 O9 2.761090 1_555
Nd3 O19 2.385376 1_555
Nd3 O1 2.437728 1_555
Nd3 O3 2.453904 1_656
Nd3 O4 2.495624 1_555
Nd3 O1 2.520678 1_545
Nd3 O14 2.534520 1_655
Nd3 O12 2.538973 1_555
Nd3 O10 2.611911 1_645
Nd3 O8 2.761090 1_556
H0 O0 0.973936 1_555
H1 O1 0.973936 1_554
H2 O2 0.973936 1_555
H3 O3 0.973936 1_556
O4 S3 1.454029 1_565
O5 S2 1.454029 1_546
O6 S1 1.454029 1_545
O7 S0 1.454029 1_564
O8 S3 1.472736 1_555
O9 S2 1.472736 1_555
O10 S1 1.472736 1_555
O11 S0 1.472736 1_555
O12 S3 1.502343 1_555
O13 S2 1.502343 1_555
O14 S1 1.502343 1_555
O15 S0 1.502343 1_555
O16 S3 1.459197 1_555
O17 S2 1.459197 1_555
O18 S1 1.459197 1_555
O19 S0 1.459197 1_555
