# generated using pymatgen
data_Na2CaHfP2SO12
_symmetry_space_group_name_H-M   'P 1'
_cell_length_a   9.11184835
_cell_length_b   9.15097404
_cell_length_c   23.05047094
_cell_angle_alpha   90.49486394
_cell_angle_beta   90.00000000
_cell_angle_gamma   119.85866560
_symmetry_Int_Tables_number   1
_chemical_formula_structural   Na2CaHfP2SO12
_chemical_formula_sum   'Na12 Ca6 Hf6 P12 S6 O72'
_cell_volume   1666.78451312
_cell_formula_units_Z   6
loop_
 _symmetry_equiv_pos_site_id
 _symmetry_equiv_pos_as_xyz
  1  'x, y, z'
loop_
 _atom_site_type_symbol
 _atom_site_label
 _atom_site_symmetry_multiplicity
 _atom_site_fract_x
 _atom_site_fract_y
 _atom_site_fract_z
 _atom_site_occupancy
  Na  Na0  1  0.99373677  0.63331309  0.24318775  1
  Na  Na1  1  0.63957631  0.63331309  0.74318775  1
  Na  Na2  1  0.66040377  0.96664609  0.57652075  1
  Na  Na3  1  0.30624331  0.96664609  0.07652075  1
  Na  Na4  1  0.32706977  0.29998009  0.90985475  1
  Na  Na5  1  0.97290931  0.29998009  0.40985475  1
  Na  Na6  1  0.99575878  0.96974538  0.49478762  1
  Na  Na7  1  0.97398660  0.96974538  0.99478762  1
  Na  Na8  1  0.66242578  0.30307838  0.82812062  1
  Na  Na9  1  0.64065360  0.30307838  0.32812062  1
  Na  Na10  1  0.32909178  0.63641238  0.16145462  1
  Na  Na11  1  0.30731960  0.63641238  0.66145462  1
  Ca  Ca0  1  0.99801220  0.99692384  0.35185255  1
  Ca  Ca1  1  0.99891163  0.99692384  0.85185255  1
  Ca  Ca2  1  0.66467920  0.33025684  0.68518555  1
  Ca  Ca3  1  0.66557863  0.33025684  0.18518555  1
  Ca  Ca4  1  0.33134520  0.66359084  0.01851955  1
  Ca  Ca5  1  0.33224463  0.66359084  0.51851955  1
  Hf  Hf0  1  0.00070081  0.01005611  0.64918302  1
  Hf  Hf1  1  0.00935530  0.01005611  0.14918302  1
  Hf  Hf2  1  0.66736781  0.34338911  0.98251602  1
  Hf  Hf3  1  0.67602230  0.34338911  0.48251602  1
  Hf  Hf4  1  0.33403381  0.67672311  0.31585002  1
  Hf  Hf5  1  0.34268830  0.67672311  0.81585002  1
  P  P0  1  0.29376761  0.99363561  0.25082307  1
  P  P1  1  0.01093987  0.30431025  0.25420043  1
  P  P2  1  0.29337038  0.30431025  0.75420043  1
  P  P3  1  0.69986799  0.99363561  0.75082307  1
  P  P4  1  0.96043461  0.32696861  0.58415607  1
  P  P5  1  0.67760687  0.63764325  0.58753343  1
  P  P6  1  0.96003738  0.63764325  0.08753343  1
  P  P7  1  0.36653499  0.32696861  0.08415607  1
  P  P8  1  0.62710061  0.66030261  0.91749007  1
  P  P9  1  0.34427287  0.97097725  0.92086743  1
  P  P10  1  0.62670338  0.97097725  0.42086743  1
  P  P11  1  0.03320099  0.66030261  0.41749007  1
  S  S0  1  0.70006797  0.71209896  0.24928376  1
  S  S1  1  0.01203099  0.71209896  0.74928376  1
  S  S2  1  0.36673497  0.04543196  0.58261676  1
  S  S3  1  0.67869799  0.04543196  0.08261676  1
  S  S4  1  0.03340097  0.37876596  0.91595076  1
  S  S5  1  0.34536399  0.37876596  0.41595076  1
  O  O0  1  0.20472560  0.00738207  0.30335098  1
  O  O1  1  0.79798624  0.78671393  0.30157932  1
  O  O2  1  0.98854429  0.21125323  0.31027937  1
  O  O3  1  0.22270893  0.21125323  0.81027937  1
  O  O4  1  0.98872768  0.78671393  0.80157932  1
  O  O5  1  0.80265647  0.00738207  0.80335098  1
  O  O6  1  0.78921292  0.96663050  0.69457684  1
  O  O7  1  0.17563201  0.20011244  0.70056360  1
  O  O8  1  0.03170497  0.81944019  0.69727833  1
  O  O9  1  0.78773522  0.81944019  0.19727833  1
  O  O10  1  0.02448043  0.20011244  0.20056360  1
  O  O11  1  0.17741758  0.96663050  0.19457684  1
  O  O12  1  0.87139260  0.34071507  0.63668398  1
  O  O13  1  0.46465324  0.12004693  0.63491232  1
  O  O14  1  0.65521129  0.54458623  0.64361237  1
  O  O15  1  0.88937593  0.54458623  0.14361237  1
  O  O16  1  0.65539468  0.12004693  0.13491232  1
  O  O17  1  0.46932347  0.34071507  0.13668398  1
  O  O18  1  0.45587992  0.29996350  0.02790984  1
  O  O19  1  0.84229901  0.53344544  0.03389660  1
  O  O20  1  0.69837197  0.15277319  0.03061133  1
  O  O21  1  0.45440222  0.15277319  0.53061133  1
  O  O22  1  0.69114743  0.53344544  0.53389660  1
  O  O23  1  0.84408458  0.29996350  0.52790984  1
  O  O24  1  0.53805860  0.67404907  0.97001798  1
  O  O25  1  0.13131924  0.45338093  0.96824632  1
  O  O26  1  0.32187729  0.87792023  0.97694637  1
  O  O27  1  0.55604193  0.87792023  0.47694637  1
  O  O28  1  0.32206068  0.45338093  0.46824632  1
  O  O29  1  0.13598947  0.67404907  0.47001798  1
  O  O30  1  0.12254592  0.63329750  0.36124384  1
  O  O31  1  0.50896501  0.86677944  0.36723060  1
  O  O32  1  0.36503797  0.48610719  0.36394533  1
  O  O33  1  0.12106822  0.48610719  0.86394533  1
  O  O34  1  0.35781343  0.86677944  0.86723060  1
  O  O35  1  0.51075058  0.63329750  0.86124384  1
  O  O36  1  0.99927520  0.80502789  0.41174282  1
  O  O37  1  0.80945993  0.00936080  0.41320665  1
  O  O38  1  0.19552696  0.20995880  0.40958710  1
  O  O39  1  0.01443184  0.20995880  0.90958710  1
  O  O40  1  0.19990087  0.00936080  0.91320665  1
  O  O41  1  0.80575269  0.80502789  0.91174282  1
  O  O42  1  0.96283091  0.15292985  0.58816325  1
  O  O43  1  0.19531554  0.03107995  0.58680889  1
  O  O44  1  0.84804611  0.81472713  0.58954464  1
  O  O45  1  0.96668102  0.81472713  0.08954464  1
  O  O46  1  0.83576442  0.03107995  0.08680889  1
  O  O47  1  0.19009894  0.15292985  0.08816325  1
  O  O48  1  0.66594220  0.13836089  0.74507582  1
  O  O49  1  0.47612693  0.34269380  0.74653965  1
  O  O50  1  0.86219396  0.54329180  0.74292010  1
  O  O51  1  0.68109884  0.54329180  0.24292010  1
  O  O52  1  0.86656787  0.34269380  0.24653965  1
  O  O53  1  0.47241969  0.13836089  0.24507582  1
  O  O54  1  0.62949791  0.48626285  0.92149625  1
  O  O55  1  0.86198254  0.36441295  0.92014189  1
  O  O56  1  0.51471311  0.14806013  0.92287764  1
  O  O57  1  0.63334802  0.14806013  0.42287764  1
  O  O58  1  0.50243142  0.36441295  0.42014189  1
  O  O59  1  0.85676594  0.48626285  0.42149625  1
  O  O60  1  0.33260820  0.47169489  0.07840982  1
  O  O61  1  0.14279293  0.67602780  0.07987365  1
  O  O62  1  0.52885996  0.87662580  0.07625410  1
  O  O63  1  0.34776484  0.87662580  0.57625410  1
  O  O64  1  0.53323387  0.67602780  0.57987365  1
  O  O65  1  0.13908569  0.47169489  0.57840982  1
  O  O66  1  0.29616391  0.81959685  0.25483025  1
  O  O67  1  0.52864854  0.69774695  0.25347589  1
  O  O68  1  0.18137911  0.48139413  0.25621164  1
  O  O69  1  0.30001402  0.48139413  0.75621164  1
  O  O70  1  0.16909742  0.69774695  0.75347589  1
  O  O71  1  0.52343194  0.81959685  0.75483025  1
loop_
_geom_bond_atom_site_label_1
_geom_bond_atom_site_label_2
_geom_bond_distance
_geom_bond_site_symmetry_2
Na0 O52 2.314397 1_555
Na0 O66 2.426173 1_655
Na0 O15 2.455754 1_555
Na0 O51 2.541069 1_555
Na0 O68 2.705565 1_655
Na0 O11 2.887242 1_655
Na0 O30 2.963598 1_655
Na1 O49 2.314396 1_555
Na1 O71 2.426180 1_555
Na1 O14 2.455756 1_555
Na1 O50 2.541077 1_555
Na1 O69 2.705573 1_555
Na1 O6 2.887242 1_555
Na1 O35 2.963602 1_555
Na2 O64 2.314389 1_555
Na2 O42 2.426173 1_565
Na2 O27 2.455734 1_555
Na2 O63 2.541080 1_555
Na2 O44 2.705565 1_555
Na2 O23 2.887242 1_565
Na2 O6 2.963598 1_555
Na3 O61 2.314390 1_555
Na3 O47 2.426180 1_565
Na3 O26 2.455730 1_554
Na3 O62 2.541062 1_555
Na3 O45 2.705573 1_455
Na3 O18 2.887242 1_565
Na3 O11 2.963602 1_555
Na4 O40 2.314397 1_555
Na4 O54 2.426177 1_555
Na4 O3 2.455754 1_555
Na4 O39 2.541069 1_555
Na4 O56 2.705578 1_555
Na4 O35 2.887242 1_555
Na4 O18 2.963582 1_556
Na5 O37 2.314396 1_555
Na5 O59 2.426162 1_555
Na5 O2 2.455756 1_555
Na5 O38 2.541077 1_655
Na5 O57 2.705562 1_555
Na5 O30 2.887242 1_655
Na5 O23 2.963575 1_555
Na6 O36 2.436299 1_555
Na6 O44 2.597492 1_555
Na6 O43 2.661538 1_665
Na6 O37 2.678386 1_565
Na6 O42 2.823323 1_565
Na6 O38 2.844772 1_665
Na7 O41 2.436299 1_555
Na7 O45 2.597492 1_556
Na7 O46 2.661538 1_566
Na7 O40 2.678386 1_665
Na7 O47 2.823323 1_666
Na7 O39 2.844772 1_665
Na8 O48 2.436299 1_555
Na8 O56 2.597492 1_555
Na8 O55 2.661538 1_555
Na8 O49 2.678386 1_555
Na8 O54 2.823323 1_555
Na8 O50 2.844772 1_555
Na9 O53 2.436299 1_555
Na9 O57 2.597492 1_555
Na9 O58 2.661538 1_555
Na9 O52 2.678386 1_555
Na9 O59 2.823323 1_555
Na9 O51 2.844772 1_555
Na10 O60 2.436299 1_555
Na10 O68 2.597492 1_555
Na10 O67 2.661538 1_555
Na10 O61 2.678386 1_555
Na10 O66 2.823323 1_555
Na10 O62 2.844772 1_555
Na11 O65 2.436299 1_555
Na11 O69 2.597492 1_555
Na11 O70 2.661538 1_555
Na11 O64 2.678386 1_555
Na11 O71 2.823323 1_555
Na11 O63 2.844772 1_555
Ca0 O0 2.151542 1_665
Ca0 O1 2.198993 1_555
Ca0 O2 2.230130 1_565
Ca0 O36 2.247569 1_555
Ca0 O37 2.270832 1_565
Ca0 O38 2.296124 1_665
Ca1 O5 2.151542 1_565
Ca1 O4 2.198993 1_555
Ca1 O3 2.230130 1_665
Ca1 O41 2.247569 1_555
Ca1 O40 2.270832 1_665
Ca1 O39 2.296124 1_665
Ca2 O12 2.151542 1_555
Ca2 O13 2.198993 1_555
Ca2 O14 2.230130 1_555
Ca2 O48 2.247569 1_555
Ca2 O49 2.270832 1_555
Ca2 O50 2.296124 1_555
Ca3 O17 2.151542 1_555
Ca3 O16 2.198993 1_555
Ca3 O15 2.230130 1_555
Ca3 O53 2.247569 1_555
Ca3 O52 2.270832 1_555
Ca3 O51 2.296124 1_555
Ca4 O24 2.151542 1_554
Ca4 O25 2.198993 1_554
Ca4 O26 2.230130 1_554
Ca4 O60 2.247569 1_555
Ca4 O61 2.270832 1_555
Ca4 O62 2.296124 1_555
Ca5 O29 2.151542 1_555
Ca5 O28 2.198993 1_555
Ca5 O27 2.230130 1_555
Ca5 O65 2.247569 1_555
Ca5 O64 2.270832 1_555
Ca5 O63 2.296124 1_555
Hf0 O7 2.042606 1_555
Hf0 O6 2.052058 1_445
Hf0 O42 2.070695 1_455
Hf0 O44 2.121662 1_445
Hf0 O8 2.208072 1_545
Hf0 O43 2.216712 1_555
Hf1 O10 2.042606 1_555
Hf1 O11 2.052058 1_545
Hf1 O47 2.070695 1_555
Hf1 O45 2.121662 1_445
Hf1 O9 2.208072 1_445
Hf1 O46 2.216712 1_455
Hf2 O19 2.042606 1_556
Hf2 O18 2.052058 1_556
Hf2 O54 2.070695 1_555
Hf2 O56 2.121662 1_555
Hf2 O20 2.208072 1_556
Hf2 O55 2.216712 1_555
Hf3 O22 2.042606 1_555
Hf3 O23 2.052058 1_555
Hf3 O59 2.070695 1_555
Hf3 O57 2.121662 1_555
Hf3 O21 2.208072 1_555
Hf3 O58 2.216712 1_555
Hf4 O31 2.042606 1_555
Hf4 O30 2.052058 1_555
Hf4 O66 2.070695 1_555
Hf4 O68 2.121662 1_555
Hf4 O32 2.208072 1_555
Hf4 O67 2.216712 1_555
Hf5 O34 2.042606 1_555
Hf5 O35 2.052058 1_555
Hf5 O71 2.070695 1_555
Hf5 O69 2.121662 1_555
Hf5 O33 2.208072 1_555
Hf5 O70 2.216712 1_555
O0 P0 1.496364 1_545
O1 S0 1.447248 1_555
O2 P1 1.511198 1_655
O3 P2 1.511198 1_555
O4 S1 1.447248 1_655
O5 P3 1.496364 1_545
O6 P3 1.612306 1_555
O7 P2 1.596795 1_555
O8 S1 1.509639 1_555
O9 S0 1.509639 1_555
O10 P1 1.596795 1_555
O11 P0 1.612306 1_555
O12 P4 1.496364 1_555
O13 S2 1.447248 1_555
O14 P5 1.511198 1_555
O15 P6 1.511198 1_555
O16 S3 1.447248 1_555
O17 P7 1.496364 1_555
O18 P7 1.612306 1_555
O19 P6 1.596795 1_555
O20 S3 1.509639 1_555
O21 S2 1.509639 1_555
O22 P5 1.596795 1_555
O23 P4 1.612306 1_555
O24 P8 1.496364 1_555
O25 S4 1.447248 1_555
O26 P9 1.511198 1_555
O27 P10 1.511198 1_555
O28 S5 1.447248 1_555
O29 P11 1.496364 1_555
O30 P11 1.612306 1_555
O31 P10 1.596795 1_555
O32 S5 1.509639 1_555
O33 S4 1.509639 1_555
O34 P9 1.596795 1_555
O35 P8 1.612306 1_555
O36 P11 1.509227 1_655
O37 P10 1.531755 1_545
O38 S5 1.472365 1_555
O39 S4 1.472369 1_555
O40 P9 1.531746 1_545
O41 P8 1.509233 1_555
O42 P4 1.607055 1_555
O43 S2 1.504070 1_555
O44 P5 1.591481 1_555
O45 P6 1.591485 1_555
O46 S3 1.504061 1_555
O47 P7 1.607060 1_555
O48 P3 1.509227 1_545
O49 P2 1.531755 1_555
O50 S1 1.472365 1_655
O51 S0 1.472369 1_555
O52 P1 1.531746 1_655
O53 P0 1.509233 1_545
O54 P8 1.607068 1_555
O55 S4 1.504055 1_655
O56 P9 1.591480 1_545
O57 P10 1.591471 1_545
O58 S5 1.504073 1_555
O59 P11 1.607058 1_655
O60 P7 1.509239 1_555
O61 P6 1.531740 1_455
O62 S3 1.472362 1_565
O63 S2 1.472354 1_565
O64 P5 1.531758 1_555
O65 P4 1.509228 1_455
O66 P0 1.607055 1_555
O67 S0 1.504070 1_555
O68 P1 1.591481 1_555
O69 P2 1.591485 1_555
O70 S1 1.504061 1_555
O71 P3 1.607060 1_555
