# generated using pymatgen
data_MgMn2P2(O4F)2
_symmetry_space_group_name_H-M   'P 1'
_cell_length_a   5.42852869
_cell_length_b   5.14669723
_cell_length_c   7.33045965
_cell_angle_alpha   106.75978276
_cell_angle_beta   109.50791509
_cell_angle_gamma   91.42178417
_symmetry_Int_Tables_number   1
_chemical_formula_structural   MgMn2P2(O4F)2
_chemical_formula_sum   'Mg1 Mn2 P2 O8 F2'
_cell_volume   183.17694123
_cell_formula_units_Z   1
loop_
 _symmetry_equiv_pos_site_id
 _symmetry_equiv_pos_as_xyz
  1  'x, y, z'
loop_
 _atom_site_type_symbol
 _atom_site_label
 _atom_site_symmetry_multiplicity
 _atom_site_fract_x
 _atom_site_fract_y
 _atom_site_fract_z
 _atom_site_occupancy
  Mg  Mg0  1  -0.00000000  0.50000000  0.50000000  1
  Mn  Mn0  1  -0.00000000  -0.00000000  -0.00000000  1
  Mn  Mn1  1  0.50000000  0.50000000  0.50000000  1
  P  P0  1  0.40682092  0.10400979  0.75483254  1
  P  P1  1  0.59317908  0.89599021  0.24516746  1
  O  O0  1  0.29142786  0.83999652  0.14756226  1
  O  O1  1  0.74655966  0.85022816  0.10071312  1
  O  O2  1  0.68361333  0.19511677  0.40119000  1
  O  O3  1  0.67676601  0.69074951  0.37061969  1
  O  O4  1  0.25344034  0.14977184  0.89928688  1
  O  O5  1  0.31638667  0.80488323  0.59881000  1
  O  O6  1  0.32323399  0.30925049  0.62938031  1
  O  O7  1  0.70857214  0.16000348  0.85243774  1
  F  F0  1  0.11628951  0.36307542  0.26720767  1
  F  F1  1  0.88371049  0.63692458  0.73279233  1
loop_
_geom_bond_atom_site_label_1
_geom_bond_atom_site_label_2
_geom_bond_distance
_geom_bond_site_symmetry_2
Mg0 O2 2.077649 1_455
Mg0 O5 2.077649 1_555
Mg0 O3 2.110263 1_455
Mg0 O6 2.110263 1_555
Mn0 O7 1.945885 1_454
Mn0 O0 1.945885 1_545
Mn0 O1 1.996503 1_445
Mn0 O4 1.996503 1_554
Mn1 O6 1.970312 1_555
Mn1 O3 1.970312 1_555
Mn1 O2 1.970959 1_555
Mn1 O5 1.970959 1_555
O0 P1 1.533992 1_555
O1 P1 1.524731 1_555
O2 P1 1.578362 1_545
O3 P1 1.572487 1_555
O4 P0 1.524731 1_555
O5 P0 1.578362 1_565
O6 P0 1.572487 1_555
O7 P0 1.533992 1_555
F0 Mg0 1.963465 1_555
F0 Mn1 2.146417 1_555
F0 Mn0 2.175260 1_555
F1 Mg0 1.963465 1_655
F1 Mn1 2.146417 1_555
F1 Mn0 2.175260 1_666
