# generated using pymatgen
data_RbMgMn4O8
_symmetry_space_group_name_H-M   'P 1'
_cell_length_a   7.58636560
_cell_length_b   7.53693965
_cell_length_c   7.64018711
_cell_angle_alpha   82.15601917
_cell_angle_beta   157.13411155
_cell_angle_gamma   100.89332641
_symmetry_Int_Tables_number   1
_chemical_formula_structural   RbMgMn4O8
_chemical_formula_sum   'Rb1 Mg1 Mn4 O8'
_cell_volume   165.87699636
_cell_formula_units_Z   1
loop_
 _symmetry_equiv_pos_site_id
 _symmetry_equiv_pos_as_xyz
  1  'x, y, z'
loop_
 _atom_site_type_symbol
 _atom_site_label
 _atom_site_symmetry_multiplicity
 _atom_site_fract_x
 _atom_site_fract_y
 _atom_site_fract_z
 _atom_site_occupancy
  Rb  Rb0  1  0.55013423  0.08167381  0.61151931  1
  Mg  Mg0  1  0.50247322  0.83381724  0.28549098  1
  Mn  Mn0  1  0.82777416  0.18538825  0.35557968  1
  Mn  Mn1  1  0.28859297  0.47596196  0.08820594  1
  Mn  Mn2  1  0.69938320  0.51330600  0.86711469  1
  Mn  Mn3  1  0.18014428  0.80736942  0.63002102  1
  O  O0  1  0.74736808  0.33241095  0.47717905  1
  O  O1  1  0.79819162  0.97535403  0.16617559  1
  O  O2  1  0.54876979  0.67739106  0.13568686  1
  O  O3  1  0.19255256  0.38377949  0.25883015  1
  O  O4  1  0.90305843  0.65855619  0.80894719  1
  O  O5  1  0.48408232  0.31799917  0.87036505  1
  O  O6  1  0.09649255  0.00622183  0.78243851  1
  O  O7  1  0.20876060  0.65354859  0.44948297  1
loop_
_geom_bond_atom_site_label_1
_geom_bond_atom_site_label_2
_geom_bond_distance
_geom_bond_site_symmetry_2
Mg0 O6 2.003643 1_665
Mg0 O2 2.022104 1_555
Mg0 O4 2.052098 1_454
Mg0 O6 2.069125 1_564
Mg0 O4 2.156975 1_555
Mn0 O5 1.923853 1_554
Mn0 O0 2.010948 1_555
Mn0 O6 2.049822 1_655
Mn0 O5 2.088723 1_655
Mn0 O1 2.131399 1_545
Mn0 O6 2.406301 1_554
Mn1 O0 1.897499 1_555
Mn1 O3 2.006171 1_555
Mn1 O2 2.007614 1_555
Mn1 O0 2.049163 1_454
Mn1 O4 2.054413 1_454
Mn1 O4 2.507217 1_555
Mn2 O7 1.957659 1_555
Mn2 O3 1.963727 1_656
Mn2 O7 1.975285 1_656
Mn2 O5 1.997827 1_555
Mn2 O3 2.055476 1_555
Mn2 O4 2.068036 1_555
Mn3 O1 1.948444 1_455
Mn3 O2 1.948927 1_556
Mn3 O2 2.016306 1_455
Mn3 O1 2.035793 1_556
Mn3 O7 2.092183 1_555
Mn3 O6 2.490529 1_565
O0 Rb0 2.845282 1_555
O1 Rb0 2.662416 1_564
O1 Rb0 2.829904 1_665
O3 Rb0 2.644539 1_555
O3 Rb0 2.803082 1_454
