# generated using pymatgen
data_Ba3SrMgNb2O9
_symmetry_space_group_name_H-M   'P 1'
_cell_length_a   6.08478353
_cell_length_b   6.26349426
_cell_length_c   8.09285386
_cell_angle_alpha   90.00257752
_cell_angle_beta   85.10959325
_cell_angle_gamma   120.96980934
_symmetry_Int_Tables_number   1
_chemical_formula_structural   Ba3SrMgNb2O9
_chemical_formula_sum   'Ba3 Sr1 Mg1 Nb2 O9'
_cell_volume   263.15431178
_cell_formula_units_Z   1
loop_
 _symmetry_equiv_pos_site_id
 _symmetry_equiv_pos_as_xyz
  1  'x, y, z'
loop_
 _atom_site_type_symbol
 _atom_site_label
 _atom_site_symmetry_multiplicity
 _atom_site_fract_x
 _atom_site_fract_y
 _atom_site_fract_z
 _atom_site_occupancy
  Ba  Ba0  1  0.00000000  0.00000000  0.00000000  1
  Ba  Ba1  1  0.38607400  0.69315500  0.75727500  1
  Ba  Ba2  1  0.61392600  0.30684500  0.24272500  1
  Sr  Sr0  1  0.00000000  0.00000000  0.50000000  1
  Mg  Mg0  1  0.00000000  0.50000000  0.50000000  1
  Nb  Nb0  1  0.33406800  0.66696700  0.16266900  1
  Nb  Nb1  1  0.66593200  0.33303300  0.83733100  1
  O  O0  1  0.63804700  0.81903200  0.27888100  1
  O  O1  1  0.13318800  0.77837600  0.31848000  1
  O  O2  1  0.13317000  0.35474400  0.31848000  1
  O  O3  1  0.36195300  0.18096800  0.72111900  1
  O  O4  1  0.86681200  0.22162400  0.68152000  1
  O  O5  1  0.86683000  0.64525600  0.68152000  1
  O  O6  1  0.50000000  0.50000000  0.00000000  1
  O  O7  1  0.50000000  0.00000000  0.00000000  1
  O  O8  1  0.00000000  0.50000000  0.00000000  1
loop_
_geom_bond_atom_site_label_1
_geom_bond_atom_site_label_2
_geom_bond_distance
_geom_bond_site_symmetry_2
Ba0 O0 2.795116 1_445
Ba0 O3 2.795116 1_554
Ba0 O7 3.042392 1_455
Ba0 O7 3.042392 1_555
Ba0 O6 3.042701 1_555
Ba0 O6 3.042701 1_445
Ba0 O8 3.131747 1_545
Ba0 O8 3.131747 1_555
Ba0 O5 3.277080 1_444
Ba0 O2 3.277080 1_555
Ba0 O4 3.277350 1_454
Ba0 O1 3.277350 1_545
Ba1 O7 2.625569 1_566
Ba1 O6 2.626475 1_556
Ba1 O8 2.670085 1_556
Ba1 Mg0 3.037453 1_555
Ba1 O4 3.101369 1_565
Ba1 O5 3.101720 1_555
Ba1 O5 3.130962 1_455
Ba1 O4 3.131756 1_455
Ba1 O3 3.148277 1_565
Ba1 O3 3.149855 1_555
Ba2 O7 2.625569 1_555
Ba2 O6 2.626475 1_555
Ba2 O8 2.670085 1_655
Ba2 Mg0 3.037453 1_655
Ba2 O1 3.101369 1_545
Ba2 O2 3.101720 1_555
Ba2 O2 3.130962 1_655
Ba2 O1 3.131756 1_655
Ba2 O0 3.148277 1_545
Ba2 O0 3.149855 1_555
Mg0 O1 2.048882 1_555
Mg0 O4 2.048882 1_455
Mg0 O2 2.048907 1_555
Mg0 O5 2.048907 1_455
Nb0 O0 1.922575 1_555
Nb0 O2 2.045927 1_555
Nb0 O1 2.045959 1_555
Nb0 O6 2.169359 1_555
Nb0 O7 2.170194 1_565
Nb0 O8 2.286272 1_555
Nb1 O3 1.922575 1_555
Nb1 O5 2.045927 1_555
Nb1 O4 2.045959 1_555
Nb1 O6 2.169359 1_556
Nb1 O7 2.170194 1_556
Nb1 O8 2.286272 1_656
O0 Sr0 2.727673 1_665
O1 Sr0 2.386702 1_565
O2 Sr0 2.386622 1_555
O3 Sr0 2.727673 1_555
O4 Sr0 2.386702 1_655
O5 Sr0 2.386622 1_665
