# generated using pymatgen
data_Sr2MgTi2O6
_symmetry_space_group_name_H-M   'P 1'
_cell_length_a   6.01283079
_cell_length_b   6.01283010
_cell_length_c   5.66706186
_cell_angle_alpha   118.83718972
_cell_angle_beta   117.30270150
_cell_angle_gamma   96.49401820
_symmetry_Int_Tables_number   1
_chemical_formula_structural   Sr2MgTi2O6
_chemical_formula_sum   'Sr2 Mg1 Ti2 O6'
_cell_volume   144.02485155
_cell_formula_units_Z   1
loop_
 _symmetry_equiv_pos_site_id
 _symmetry_equiv_pos_as_xyz
  1  'x, y, z'
loop_
 _atom_site_type_symbol
 _atom_site_label
 _atom_site_symmetry_multiplicity
 _atom_site_fract_x
 _atom_site_fract_y
 _atom_site_fract_z
 _atom_site_occupancy
  Sr  Sr0  1  0.83194500  0.20302700  0.53497200  1
  Sr  Sr1  1  0.16805500  0.79697300  0.46502800  1
  Mg  Mg0  1  0.50000000  0.50000000  0.50000000  1
  Ti  Ti0  1  0.50000000  0.50000000  0.00000000  1
  Ti  Ti1  1  0.00000000  0.00000000  0.00000000  1
  O  O0  1  0.77096700  0.27096700  0.00000000  1
  O  O1  1  0.73469300  0.75919700  0.99389000  1
  O  O2  1  0.26530700  0.24080300  0.00611000  1
  O  O3  1  0.22903300  0.72903300  0.00000000  1
  O  O4  1  0.25284100  0.25284100  0.50000000  1
  O  O5  1  0.74715900  0.74715900  0.50000000  1
loop_
_geom_bond_atom_site_label_1
_geom_bond_atom_site_label_2
_geom_bond_distance
_geom_bond_site_symmetry_2
Mg0 O4 1.979283 1_555
Mg0 O5 1.979283 1_555
Mg0 O1 1.981269 1_555
Mg0 O2 1.981269 1_555
Mg0 Sr0 2.827760 1_555
Mg0 Sr1 2.827760 1_555
O0 Ti1 2.249130 1_655
O0 Ti0 2.249130 1_555
O0 Sr1 2.669857 1_655
O0 Sr0 2.669858 1_554
O0 Sr1 3.114719 1_544
O0 Sr0 3.114719 1_555
O1 Ti0 2.005229 1_556
O1 Ti1 2.005229 1_666
O1 Sr1 2.620845 1_656
O1 Sr0 2.640937 1_566
O2 Ti0 2.005229 1_555
O2 Ti1 2.005229 1_555
O2 Sr0 2.620845 1_454
O2 Sr1 2.640937 1_544
O3 Ti1 2.249130 1_565
O3 Ti0 2.249130 1_555
O3 Sr0 2.669857 1_454
O3 Sr1 2.669858 1_555
O3 Sr0 3.114719 1_565
O3 Sr1 3.114719 1_554
O4 Ti1 2.005311 1_555
O4 Ti0 2.005311 1_556
O4 Sr1 2.622928 1_545
O4 Sr0 2.622928 1_455
O5 Ti1 2.005311 1_666
O5 Ti0 2.005311 1_555
O5 Sr0 2.622928 1_565
O5 Sr1 2.622928 1_655
