# generated using pymatgen
data_Pu3Pb
_symmetry_space_group_name_H-M   'P 1'
_cell_length_a   4.79413402
_cell_length_b   4.79412965
_cell_length_c   4.79412965
_cell_angle_alpha   90.00000000
_cell_angle_beta   90.00000000
_cell_angle_gamma   90.00000000
_symmetry_Int_Tables_number   1
_chemical_formula_structural   Pu3Pb
_chemical_formula_sum   'Pu3 Pb1'
_cell_volume   110.18683788
_cell_formula_units_Z   1
loop_
 _symmetry_equiv_pos_site_id
 _symmetry_equiv_pos_as_xyz
  1  'x, y, z'
loop_
 _atom_site_type_symbol
 _atom_site_label
 _atom_site_symmetry_multiplicity
 _atom_site_fract_x
 _atom_site_fract_y
 _atom_site_fract_z
 _atom_site_occupancy
  Pu  Pu0  1  0.50000000  0.50000000  -0.00000000  1
  Pu  Pu1  1  0.50000000  -0.00000000  0.50000000  1
  Pu  Pu2  1  0.00000000  0.50000000  0.50000000  1
  Pb  Pb0  1  0.00000000  -0.00000000  -0.00000000  1
loop_
_geom_bond_atom_site_label_1
_geom_bond_atom_site_label_2
_geom_bond_distance
_geom_bond_site_symmetry_2
Pu0 Pu1 3.389962 1_555
Pu0 Pu1 3.389962 1_565
Pu0 Pu1 3.389962 1_564
Pu0 Pu1 3.389962 1_554
Pu0 Pu2 3.389963 1_654
Pu0 Pu2 3.389963 1_555
Pu0 Pu2 3.389963 1_554
Pu0 Pu2 3.389963 1_655
Pu1 Pu2 3.389963 1_645
Pu1 Pu2 3.389963 1_555
Pu1 Pu2 3.389963 1_655
Pu1 Pu2 3.389963 1_545
Pb0 Pu2 3.389962 1_554
Pb0 Pu2 3.389962 1_555
Pb0 Pu2 3.389962 1_545
Pb0 Pu2 3.389962 1_544
Pb0 Pu0 3.389963 1_445
Pb0 Pu0 3.389963 1_455
Pb0 Pu1 3.389963 1_554
Pb0 Pu0 3.389963 1_545
Pb0 Pu0 3.389963 1_555
Pb0 Pu1 3.389963 1_455
Pb0 Pu1 3.389963 1_454
Pb0 Pu1 3.389963 1_555
