# generated using pymatgen
data_Na8MgV2O8
_symmetry_space_group_name_H-M   'P 1'
_cell_length_a   9.26861470
_cell_length_b   5.63681767
_cell_length_c   5.99169812
_cell_angle_alpha   70.87366940
_cell_angle_beta   110.49945256
_cell_angle_gamma   98.64243508
_symmetry_Int_Tables_number   1
_chemical_formula_structural   Na8MgV2O8
_chemical_formula_sum   'Na8 Mg1 V2 O8'
_cell_volume   276.80689034
_cell_formula_units_Z   1
loop_
 _symmetry_equiv_pos_site_id
 _symmetry_equiv_pos_as_xyz
  1  'x, y, z'
loop_
 _atom_site_type_symbol
 _atom_site_label
 _atom_site_symmetry_multiplicity
 _atom_site_fract_x
 _atom_site_fract_y
 _atom_site_fract_z
 _atom_site_occupancy
  Na  Na0  1  0.17249538  0.02157961  0.64090861  1
  Na  Na1  1  0.16824985  0.51671034  0.15165411  1
  Na  Na2  1  0.32094307  0.53457747  0.72472672  1
  Na  Na3  1  0.34104773  0.03350638  0.24742434  1
  Na  Na4  1  0.51791514  0.01492576  0.82138577  1
  Na  Na5  1  0.73108665  0.51749103  0.92293305  1
  Na  Na6  1  0.80559026  0.86135883  0.28681627  1
  Na  Na7  1  0.96375472  0.52002966  0.60411581  1
  Mg  Mg0  1  0.72095242  0.08623328  0.57132453  1
  V  V0  1  0.50506595  0.56627653  0.34568816  1
  V  V1  1  0.99752165  0.00935932  0.98026697  1
  O  O0  1  0.14549660  0.26108327  0.90184499  1
  O  O1  1  0.07855403  0.78826107  0.30941403  1
  O  O2  1  0.37365274  0.75114374  0.02604502  1
  O  O3  1  0.37470877  0.31200546  0.49746686  1
  O  O4  1  0.56155702  0.80817656  0.54206036  1
  O  O5  1  0.68935846  0.43619232  0.32949633  1
  O  O6  1  0.91405001  0.88756802  0.68367782  1
  O  O7  1  0.78742054  0.13200133  0.91021125  1
loop_
_geom_bond_atom_site_label_1
_geom_bond_atom_site_label_2
_geom_bond_distance
_geom_bond_site_symmetry_2
Na0 O0 2.467453 1_555
Na0 O6 2.476621 1_445
Na0 O3 2.493099 1_555
Na0 O1 2.566951 1_545
Na0 O2 2.580822 1_546
Na1 O0 2.337092 1_554
Na1 O2 2.352204 1_555
Na1 O3 2.367760 1_555
Na1 O1 2.410109 1_555
Na2 O3 2.336484 1_555
Na2 O0 2.351678 1_555
Na2 O2 2.373951 1_556
Na2 O1 2.828857 1_555
Na2 O4 2.849519 1_555
Na3 O0 2.355361 1_554
Na3 O4 2.385515 1_545
Na3 O3 2.423417 1_555
Na3 O2 2.488539 1_545
Na3 O1 2.693307 1_545
Na4 O2 2.204199 1_546
Na4 O3 2.250943 1_555
Na4 O7 2.400432 1_555
Na4 O4 2.493356 1_545
Na5 O7 2.340401 1_555
Na5 O5 2.483704 1_556
Na5 O4 2.484670 1_555
Na5 O6 2.821762 1_555
Na6 O7 2.236676 1_564
Na6 O6 2.279917 1_555
Na6 O5 2.446429 1_555
Na6 O1 2.574062 1_655
Na7 O0 2.253513 1_655
Na7 O1 2.370453 1_655
Na7 O6 2.412361 1_555
Na7 O5 2.572229 1_555
Mg0 O4 1.993171 1_545
Mg0 O7 1.997102 1_555
Mg0 O5 2.019896 1_555
Mg0 O6 2.043254 1_545
O0 V1 1.882764 1_455
O1 V1 1.907861 1_464
O2 V0 1.917614 1_555
O3 V0 1.932906 1_555
O4 V0 1.980679 1_555
O5 V0 2.000980 1_555
O6 V1 1.976042 1_565
O7 V1 2.021926 1_555
