# generated using pymatgen
data_Na15MgTa11(SiO4)18
_symmetry_space_group_name_H-M   'P 1'
_cell_length_a   9.02741217
_cell_length_b   9.02749771
_cell_length_c   22.60253187
_cell_angle_alpha   90.16541530
_cell_angle_beta   89.84212673
_cell_angle_gamma   120.19398588
_symmetry_Int_Tables_number   1
_chemical_formula_structural   Na15MgTa11(SiO4)18
_chemical_formula_sum   'Na15 Mg1 Ta11 Si18 O72'
_cell_volume   1592.07610938
_cell_formula_units_Z   1
loop_
 _symmetry_equiv_pos_site_id
 _symmetry_equiv_pos_as_xyz
  1  'x, y, z'
loop_
 _atom_site_type_symbol
 _atom_site_label
 _atom_site_symmetry_multiplicity
 _atom_site_fract_x
 _atom_site_fract_y
 _atom_site_fract_z
 _atom_site_occupancy
  Na  Na0  1  0.36486020  0.36441707  0.25115800  1
  Na  Na1  1  0.63378289  0.61626591  0.74375066  1
  Na  Na2  1  0.98203150  0.36696372  0.74383985  1
  Na  Na3  1  0.38529905  0.01777733  0.74359110  1
  Na  Na4  1  0.31131516  0.33632111  0.58344925  1
  Na  Na5  1  0.02443849  0.68796699  0.58351418  1
  Na  Na6  1  0.66345131  0.97510227  0.58350345  1
  Na  Na7  1  0.30183665  0.96900865  0.08485316  1
  Na  Na8  1  0.69931000  0.03348586  0.91784329  1
  Na  Na9  1  0.00041396  0.00021037  0.49367292  1
  Na  Na10  1  0.00034128  0.00050587  0.00209137  1
  Na  Na11  1  0.66586496  0.33985709  0.82886610  1
  Na  Na12  1  0.67448979  0.33234549  0.33479353  1
  Na  Na13  1  0.33378367  0.66701625  0.16867572  1
  Na  Na14  1  0.33347029  0.66693394  0.66478901  1
  Mg  Mg0  1  0.66687450  0.33351762  0.68546688  1
  Ta  Ta0  1  0.99916984  -0.00018318  0.35524020  1
  Ta  Ta1  1  0.00408250  0.99965357  0.85633700  1
  Ta  Ta2  1  0.00002782  0.99991894  0.64598799  1
  Ta  Ta3  1  0.99516082  0.99950834  0.14561207  1
  Ta  Ta4  1  0.67070529  0.33395033  0.18890777  1
  Ta  Ta5  1  0.66726090  0.33766018  0.97859553  1
  Ta  Ta6  1  0.66604633  0.33340494  0.47721459  1
  Ta  Ta7  1  0.33280908  0.66233954  0.02263689  1
  Ta  Ta8  1  0.33299301  0.66659668  0.51653197  1
  Ta  Ta9  1  0.33300223  0.67113860  0.31189416  1
  Ta  Ta10  1  0.33311274  0.66576004  0.81388874  1
  Si  Si0  1  0.28583440  0.99664948  0.24915912  1
  Si  Si1  1  0.71213092  0.71209090  0.25067281  1
  Si  Si2  1  0.99744546  0.28681937  0.25079846  1
  Si  Si3  1  0.29007228  0.29072315  0.75065921  1
  Si  Si4  1  0.00061907  0.71019763  0.75077128  1
  Si  Si5  1  0.71052881  0.99976018  0.75188466  1
  Si  Si6  1  0.95567614  0.33525751  0.58506848  1
  Si  Si7  1  0.37949630  0.04374215  0.58526887  1
  Si  Si8  1  0.66371476  0.62042939  0.58517838  1
  Si  Si9  1  0.95438924  0.62192752  0.08352188  1
  Si  Si10  1  0.67046763  0.04742571  0.08234595  1
  Si  Si11  1  0.37966201  0.33527656  0.08453554  1
  Si  Si12  1  0.62091721  0.66306332  0.91688447  1
  Si  Si13  1  0.04388405  0.37825891  0.91702215  1
  Si  Si14  1  0.33105395  0.95470654  0.91833567  1
  Si  Si15  1  0.62527523  0.95848720  0.41596717  1
  Si  Si16  1  0.33397248  0.37626775  0.41480855  1
  Si  Si17  1  0.04216109  0.66698997  0.41576453  1
  O  O0  1  0.19458264  0.03359027  0.30545684  1
  O  O1  1  0.83392930  0.80568924  0.30758520  1
  O  O2  1  0.97170726  0.16621644  0.30786393  1
  O  O3  1  0.18540099  0.16579817  0.80640511  1
  O  O4  1  0.97818567  0.81369336  0.80646637  1
  O  O5  1  0.83012160  0.02044035  0.80915632  1
  O  O6  1  0.80088194  0.96481467  0.69278762  1
  O  O7  1  0.16569054  0.20127891  0.69158000  1
  O  O8  1  0.03585353  0.83505798  0.69178987  1
  O  O9  1  0.80689027  0.83326398  0.19262739  1
  O  O10  1  0.03265448  0.19510741  0.19328090  1
  O  O11  1  0.17158542  0.97239054  0.18941193  1
  O  O12  1  0.89084620  0.38115696  0.64473333  1
  O  O13  1  0.49044375  0.10941486  0.64474150  1
  O  O14  1  0.61836220  0.50949061  0.64462483  1
  O  O15  1  0.85971243  0.49973870  0.14053576  1
  O  O16  1  0.63333708  0.13955877  0.13859986  1
  O  O17  1  0.49498762  0.36122372  0.14336816  1
  O  O18  1  0.47346672  0.30134212  0.02747517  1
  O  O19  1  0.83368200  0.52648412  0.02569268  1
  O  O20  1  0.69448718  0.16139868  0.02274053  1
  O  O21  1  0.46969100  0.17187147  0.52863187  1
  O  O22  1  0.70218799  0.53028614  0.52857385  1
  O  O23  1  0.82747871  0.29786983  0.52857766  1
  O  O24  1  0.52716066  0.69985883  0.97237738  1
  O  O25  1  0.16829461  0.47553206  0.97311811  1
  O  O26  1  0.30634890  0.83715334  0.97617524  1
  O  O27  1  0.53281084  0.84165060  0.47552330  1
  O  O28  1  0.30916321  0.46953275  0.47429776  1
  O  O29  1  0.15933835  0.69166379  0.47525457  1
  O  O30  1  0.14069348  0.63956109  0.35965159  1
  O  O31  1  0.50010603  0.85876569  0.35980637  1
  O  O32  1  0.35991788  0.49551440  0.35701205  1
  O  O33  1  0.13516348  0.49579907  0.85762521  1
  O  O34  1  0.36417882  0.86369134  0.85953510  1
  O  O35  1  0.50351806  0.63843720  0.85743489  1
  O  O36  1  0.02686708  0.83830755  0.40967603  1
  O  O37  1  0.81256093  0.97479375  0.41038673  1
  O  O38  1  0.16269971  0.18752725  0.41020905  1
  O  O39  1  0.01742880  0.18539709  0.91060447  1
  O  O40  1  0.16283021  0.97500286  0.91060205  1
  O  O41  1  0.80655612  0.83978578  0.91015330  1
  O  O42  1  0.97648342  0.16154421  0.58950262  1
  O  O43  1  0.18508239  0.02316855  0.58948651  1
  O  O44  1  0.83822817  0.81509540  0.58947169  1
  O  O45  1  0.98264631  0.81565164  0.08905809  1
  O  O46  1  0.83862729  0.02624818  0.08967226  1
  O  O47  1  0.19225801  0.15903580  0.08935286  1
  O  O48  1  0.69107809  0.16603389  0.74928766  1
  O  O49  1  0.47529252  0.30914719  0.74885000  1
  O  O50  1  0.83338764  0.52456784  0.74871137  1
  O  O51  1  0.68486752  0.51826942  0.24332498  1
  O  O52  1  0.82837458  0.30654459  0.24279312  1
  O  O53  1  0.47401886  0.17313377  0.24266925  1
  O  O54  1  0.63958201  0.49413651  0.92327181  1
  O  O55  1  0.85135670  0.35163544  0.92280131  1
  O  O56  1  0.50787089  0.14070667  0.92305051  1
  O  O57  1  0.64004597  0.14540306  0.42401222  1
  O  O58  1  0.50538707  0.36022255  0.42425603  1
  O  O59  1  0.85475246  0.49473329  0.42415752  1
  O  O60  1  0.35990012  0.50449034  0.07599946  1
  O  O61  1  0.14801458  0.64834188  0.07669969  1
  O  O62  1  0.49343533  0.85956869  0.07615485  1
  O  O63  1  0.34694801  0.84753763  0.57440610  1
  O  O64  1  0.50018131  0.65272373  0.57426389  1
  O  O65  1  0.15239806  0.49932910  0.57425395  1
  O  O66  1  0.30777601  0.82845398  0.25612751  1
  O  O67  1  0.51808220  0.68421252  0.25613867  1
  O  O68  1  0.17404975  0.47378492  0.25646352  1
  O  O69  1  0.29866537  0.47781479  0.75580699  1
  O  O70  1  0.17952123  0.70247394  0.75648000  1
  O  O71  1  0.52195014  0.82062097  0.75597209  1
loop_
_geom_bond_atom_site_label_1
_geom_bond_atom_site_label_2
_geom_bond_distance
_geom_bond_site_symmetry_2
Na0 O68 2.380145 1_555
Na0 O53 2.387129 1_555
Na0 O67 2.498553 1_555
Na0 O51 2.503710 1_555
Na0 O32 2.676412 1_555
Na0 O17 2.708199 1_555
Na0 O0 2.860350 1_555
Na0 O10 2.905284 1_555
Na1 O50 2.333827 1_555
Na1 O49 2.399601 1_555
Na1 O14 2.413007 1_555
Na1 O71 2.523439 1_555
Na1 O69 2.642470 1_555
Na1 O35 2.871002 1_555
Na1 O6 2.956359 1_555
Na2 O48 2.326257 1_555
Na2 O50 2.399094 1_555
Na2 O12 2.414496 1_555
Na2 O69 2.523980 1_655
Na2 O70 2.645779 1_655
Na2 O33 2.874570 1_655
Na2 O7 2.975678 1_655
Na3 O49 2.332836 1_555
Na3 O48 2.390078 1_555
Na3 O13 2.405483 1_555
Na3 O70 2.514147 1_545
Na3 O71 2.642183 1_545
Na3 O34 2.930953 1_545
Na3 O8 2.969574 1_545
Na4 O43 2.463745 1_555
Na4 O64 2.492310 1_555
Na4 O65 2.528568 1_555
Na4 O42 2.616589 1_455
Na4 O28 2.752094 1_555
Na4 O7 2.752298 1_555
Na4 O14 2.772897 1_555
Na4 O21 2.810299 1_555
Na5 O44 2.469686 1_455
Na5 O65 2.500678 1_555
Na5 O63 2.524629 1_555
Na5 O43 2.619700 1_565
Na5 O29 2.723019 1_555
Na5 O8 2.758284 1_555
Na5 O12 2.773724 1_455
Na5 O22 2.806340 1_455
Na6 O42 2.460379 1_565
Na6 O63 2.494861 1_555
Na6 O64 2.523744 1_555
Na6 O44 2.624645 1_555
Na6 O27 2.714526 1_555
Na6 O13 2.776410 1_565
Na6 O6 2.789860 1_555
Na6 O23 2.809782 1_565
Na7 O47 2.374250 1_565
Na7 O62 2.392120 1_555
Na7 O45 2.493031 1_455
Na7 O61 2.509418 1_555
Na7 O11 2.643680 1_555
Na7 O26 2.735644 1_554
Na7 O16 2.859473 1_565
Na7 O18 2.901575 1_565
Na8 O56 2.370281 1_555
Na8 O41 2.392783 1_545
Na8 O55 2.485795 1_555
Na8 O39 2.488362 1_655
Na8 O20 2.644025 1_556
Na8 O5 2.750543 1_555
Na8 O24 2.882427 1_545
Na8 O34 2.930030 1_545
Na9 O38 2.464946 1_555
Na9 O37 2.468991 1_445
Na9 O36 2.475935 1_545
Na9 O42 2.674903 1_455
Na9 O44 2.677156 1_445
Na9 O43 2.679893 1_555
Na10 O45 2.534412 1_445
Na10 O46 2.535048 1_455
Na10 O47 2.539365 1_555
Na10 O40 2.607885 1_544
Na10 O39 2.616265 1_554
Na10 O41 2.633105 1_444
Na11 O50 2.411561 1_555
Na11 O49 2.417018 1_555
Na11 O48 2.467811 1_555
Na11 O54 2.619474 1_555
Na11 O55 2.676257 1_555
Na11 O56 2.687827 1_555
Na12 O59 2.545277 1_555
Na12 O57 2.549446 1_555
Na12 O52 2.571945 1_555
Na12 O58 2.617059 1_555
Na12 O51 2.638358 1_555
Na12 O53 2.657781 1_555
Na13 O66 2.532021 1_555
Na13 O67 2.541015 1_555
Na13 O68 2.556067 1_555
Na13 O61 2.625910 1_555
Na13 O60 2.631270 1_555
Na13 O62 2.637486 1_555
Na14 O64 2.577520 1_555
Na14 O65 2.580994 1_555
Na14 O63 2.581609 1_555
Na14 O71 2.587639 1_555
Na14 O69 2.592851 1_555
Na14 O70 2.599655 1_555
Mg0 O13 2.057470 1_555
Mg0 O12 2.058646 1_555
Mg0 O14 2.068353 1_555
Mg0 O50 2.160432 1_555
Mg0 O49 2.167343 1_555
Mg0 O48 2.182022 1_555
O0 Si0 1.636179 1_545
O0 Ta0 1.980175 1_455
O1 Si1 1.626242 1_555
O1 Ta0 1.955766 1_565
O2 Si2 1.629417 1_555
O2 Ta0 1.962140 1_555
O3 Si3 1.637701 1_555
O3 Ta1 1.932025 1_545
O4 Si4 1.637306 1_655
O4 Ta1 1.933707 1_655
O5 Si5 1.636973 1_545
O5 Ta1 1.986313 1_645
O6 Si5 1.673143 1_555
O6 Ta2 1.967163 1_655
O7 Si3 1.669125 1_555
O7 Ta2 1.966221 1_545
O8 Si4 1.671719 1_555
O8 Ta2 1.971342 1_555
O9 Si1 1.646361 1_555
O9 Ta3 1.924527 1_555
O10 Si2 1.653121 1_455
O10 Ta3 1.945055 1_445
O11 Si0 1.647467 1_555
O11 Ta3 1.994700 1_455
O12 Si6 1.602876 1_555
O13 Si7 1.602227 1_555
O14 Si8 1.602591 1_555
O15 Si9 1.631476 1_555
O15 Ta4 1.943493 1_555
O16 Si10 1.640964 1_555
O16 Ta4 1.970144 1_555
O17 Si11 1.633266 1_555
O17 Ta4 2.009895 1_555
O18 Si11 1.651340 1_555
O18 Ta5 1.950178 1_554
O19 Si9 1.641710 1_555
O19 Ta5 1.928303 1_554
O20 Si10 1.643977 1_555
O20 Ta5 1.997951 1_554
O21 Si7 1.641685 1_555
O21 Ta6 2.004387 1_555
O22 Si8 1.641814 1_555
O22 Ta6 2.004960 1_555
O23 Si6 1.642045 1_555
O23 Ta6 2.013991 1_555
O24 Si12 1.635374 1_555
O24 Ta7 1.968995 1_556
O25 Si13 1.627724 1_555
O25 Ta7 1.944573 1_556
O26 Si14 1.628907 1_555
O26 Ta7 2.010098 1_556
O27 Si15 1.654601 1_555
O27 Ta8 1.934492 1_555
O28 Si16 1.657854 1_555
O28 Ta8 1.930995 1_555
O29 Si17 1.657015 1_555
O29 Ta8 1.935275 1_555
O30 Si17 1.635418 1_555
O30 Ta9 1.937520 1_555
O31 Si15 1.636050 1_555
O31 Ta9 1.935369 1_555
O32 Si16 1.634953 1_555
O32 Ta9 2.002702 1_555
O33 Si13 1.652251 1_555
O33 Ta10 1.940572 1_555
O34 Si14 1.664183 1_555
O34 Ta10 1.955186 1_555
O35 Si12 1.657502 1_555
O35 Ta10 1.946131 1_555
O36 Si17 1.626649 1_555
O36 Ta0 2.020137 1_465
O37 Si15 1.626239 1_555
O37 Ta0 2.012415 1_565
O38 Si16 1.629270 1_555
O38 Ta0 2.018957 1_455
O39 Si13 1.640079 1_555
O39 Ta1 2.028893 1_545
O40 Si14 1.628458 1_555
O40 Ta1 1.984856 1_555
O41 Si12 1.639368 1_555
O41 Ta1 2.037576 1_655
O42 Si6 1.673878 1_555
O42 Ta2 2.031809 1_645
O43 Si7 1.671857 1_555
O43 Ta2 2.025554 1_545
O44 Si8 1.671733 1_555
O44 Ta2 2.023794 1_655
O45 Si9 1.639931 1_555
O45 Ta3 2.049751 1_555
O46 Si10 1.631541 1_555
O46 Ta3 2.002119 1_545
O47 Si11 1.642516 1_555
O47 Ta3 2.068207 1_445
O48 Si5 1.597830 1_545
O49 Si3 1.595321 1_555
O50 Si4 1.595222 1_655
O51 Si1 1.647748 1_555
O51 Ta4 2.018150 1_555
O52 Si2 1.633719 1_555
O52 Ta4 1.983939 1_555
O53 Si0 1.650263 1_545
O53 Ta4 2.035274 1_555
O54 Si12 1.623170 1_555
O54 Ta5 1.997107 1_555
O55 Si13 1.635333 1_655
O55 Ta5 2.036339 1_555
O56 Si14 1.637876 1_545
O56 Ta5 2.057080 1_555
O57 Si15 1.634060 1_545
O57 Ta6 1.992647 1_555
O58 Si16 1.639687 1_555
O58 Ta6 1.989802 1_555
O59 Si17 1.634034 1_655
O59 Ta6 1.991108 1_555
O60 Si11 1.636627 1_555
O60 Ta7 1.976670 1_555
O61 Si9 1.647846 1_455
O61 Ta7 2.017352 1_555
O62 Si10 1.650265 1_565
O62 Ta7 2.033791 1_555
O63 Si7 1.660811 1_565
O63 Ta8 2.043704 1_555
O64 Si8 1.661506 1_555
O64 Ta8 2.048965 1_555
O65 Si6 1.661708 1_455
O65 Ta8 2.040495 1_555
O66 Si0 1.635116 1_555
O66 Ta9 1.998681 1_555
O67 Si1 1.644017 1_555
O67 Ta9 2.045612 1_555
O68 Si2 1.643209 1_455
O68 Ta9 2.056308 1_555
O69 Si3 1.655084 1_555
O69 Ta10 2.039000 1_555
O70 Si4 1.656587 1_555
O70 Ta10 2.047116 1_555
O71 Si5 1.659129 1_555
O71 Ta10 2.043336 1_555
