# generated using pymatgen
data_Na30Ca4Nb20Si33(SO48)3
_symmetry_space_group_name_H-M   'P 1'
_cell_length_a   18.24612209
_cell_length_b   9.11787274
_cell_length_c   22.76095295
_cell_angle_alpha   89.93587343
_cell_angle_beta   90.20765013
_cell_angle_gamma   120.00805753
_symmetry_Int_Tables_number   1
_chemical_formula_structural   Na30Ca4Nb20Si33(SO48)3
_chemical_formula_sum   'Na30 Ca4 Nb20 Si33 S3 O144'
_cell_volume   3279.04152999
_cell_formula_units_Z   1
loop_
 _symmetry_equiv_pos_site_id
 _symmetry_equiv_pos_as_xyz
  1  'x, y, z'
loop_
 _atom_site_type_symbol
 _atom_site_label
 _atom_site_symmetry_multiplicity
 _atom_site_fract_x
 _atom_site_fract_y
 _atom_site_fract_z
 _atom_site_occupancy
  Na  Na0  1  0.31562778  0.98066922  0.25410232  1
  Na  Na1  1  0.18342419  0.38538215  0.25577489  1
  Na  Na2  1  0.68007020  0.38288350  0.25193138  1
  Na  Na3  1  0.50429786  0.63627426  0.25859133  1
  Na  Na4  1  0.31480073  0.64211560  0.75617741  1
  Na  Na5  1  0.00172214  0.38429301  0.75422742  1
  Na  Na6  1  0.18441288  0.98026787  0.75374104  1
  Na  Na7  1  0.64963662  0.33263178  0.58405619  1
  Na  Na8  1  0.64451076  0.96824143  0.08358719  1
  Na  Na9  1  0.33904135  0.71730828  0.08766444  1
  Na  Na10  1  0.51794350  0.31635972  0.08778485  1
  Na  Na11  1  0.98782081  0.65816957  0.91453752  1
  Na  Na12  1  0.34566764  0.02918700  0.91575146  1
  Na  Na13  1  0.66560656  0.29678801  0.91576292  1
  Na  Na14  1  0.48760849  0.31870124  0.41514506  1
  Na  Na15  1  0.98992078  0.32353001  0.41511543  1
  Na  Na16  1  0.34063784  0.65817620  0.41566792  1
  Na  Na17  1  0.84182949  0.65563234  0.41499276  1
  Na  Na18  1  0.00875682  0.00559067  0.50126915  1
  Na  Na19  1  0.50105819  0.98999874  0.50281448  1
  Na  Na20  1  0.00516888  0.01407885  0.00195409  1
  Na  Na21  1  0.49830328  0.99194554  0.00415996  1
  Na  Na22  1  0.33852038  0.34482377  0.83718865  1
  Na  Na23  1  0.83010565  0.32357056  0.83086885  1
  Na  Na24  1  0.32959137  0.32581754  0.33662795  1
  Na  Na25  1  0.83416807  0.32458909  0.33330786  1
  Na  Na26  1  0.15879198  0.65429088  0.16974553  1
  Na  Na27  1  0.67472386  0.66582782  0.17206897  1
  Na  Na28  1  0.16715818  0.67878600  0.66444085  1
  Na  Na29  1  0.66794713  0.67515770  0.66724111  1
  Ca  Ca0  1  0.49951907  0.00298568  0.14481440  1
  Ca  Ca1  1  0.16051428  0.66102311  0.31809231  1
  Ca  Ca2  1  0.67260915  0.67188344  0.31872080  1
  Ca  Ca3  1  0.16750736  0.67065224  0.81805895  1
  Nb  Nb0  1  0.99230921  0.99504797  0.35751033  1
  Nb  Nb1  1  0.49256124  0.99669791  0.35628108  1
  Nb  Nb2  1  0.99231703  0.99053549  0.85790217  1
  Nb  Nb3  1  0.49902198  0.99612711  0.85456069  1
  Nb  Nb4  1  0.99242104  0.98713266  0.64048495  1
  Nb  Nb5  1  0.49997690  0.99532717  0.64563363  1
  Nb  Nb6  1  0.99412921  0.99819632  0.14085405  1
  Nb  Nb7  1  0.34212828  0.33661330  0.68318093  1
  Nb  Nb8  1  0.82957316  0.33073499  0.68905357  1
  Nb  Nb9  1  0.33835721  0.33867344  0.18384553  1
  Nb  Nb10  1  0.84224658  0.34698672  0.18562160  1
  Nb  Nb11  1  0.32977644  0.33628204  0.97998792  1
  Nb  Nb12  1  0.83470446  0.32713158  0.97956079  1
  Nb  Nb13  1  0.33059056  0.32995857  0.48407273  1
  Nb  Nb14  1  0.83340905  0.33140179  0.48396635  1
  Nb  Nb15  1  0.16379273  0.66438714  0.01946453  1
  Nb  Nb16  1  0.67009621  0.66714128  0.02067653  1
  Nb  Nb17  1  0.16478094  0.66479704  0.52169473  1
  Nb  Nb18  1  0.66624490  0.67179988  0.51955329  1
  Nb  Nb19  1  0.66515840  0.66388011  0.81030999  1
  Si  Si0  1  0.35085166  0.69902853  0.24700310  1
  Si  Si1  1  0.85710038  0.70836642  0.24746753  1
  Si  Si2  1  0.99616374  0.28236353  0.24765066  1
  Si  Si3  1  0.49873682  0.29844091  0.24738029  1
  Si  Si4  1  0.64319221  0.28632893  0.74997053  1
  Si  Si5  1  0.99683597  0.71039434  0.74794829  1
  Si  Si6  1  0.50002589  0.71050277  0.74989999  1
  Si  Si7  1  0.35767612  0.00740912  0.74843974  1
  Si  Si8  1  0.85521148  0.99843070  0.74924166  1
  Si  Si9  1  0.48232808  0.33292373  0.58110446  1
  Si  Si10  1  0.97892282  0.33779357  0.58670943  1
  Si  Si11  1  0.18755972  0.04096214  0.58600498  1
  Si  Si12  1  0.68899119  0.04034393  0.58495133  1
  Si  Si13  1  0.33191123  0.62376642  0.58464352  1
  Si  Si14  1  0.83092385  0.61923314  0.58340344  1
  Si  Si15  1  0.48217493  0.62198733  0.08044185  1
  Si  Si16  1  0.97991251  0.62520076  0.08038209  1
  Si  Si17  1  0.32829599  0.03912407  0.08021052  1
  Si  Si18  1  0.83115591  0.04439467  0.08468106  1
  Si  Si19  1  0.18778915  0.33307493  0.08444530  1
  Si  Si20  1  0.69348729  0.34155246  0.08221202  1
  Si  Si21  1  0.31413070  0.66733061  0.91518617  1
  Si  Si22  1  0.80865456  0.66195176  0.91570586  1
  Si  Si23  1  0.01992194  0.37005589  0.91463029  1
  Si  Si24  1  0.52121970  0.38016227  0.91620414  1
  Si  Si25  1  0.16660772  0.96469154  0.91514070  1
  Si  Si26  1  0.66656769  0.95129869  0.91629845  1
  Si  Si27  1  0.30932458  0.96303571  0.41552796  1
  Si  Si28  1  0.81180395  0.96607627  0.41784200  1
  Si  Si29  1  0.16701641  0.36978558  0.41630558  1
  Si  Si30  1  0.66742906  0.36686804  0.41700308  1
  Si  Si31  1  0.01859821  0.66619043  0.41847732  1
  Si  Si32  1  0.51758124  0.66694882  0.41590168  1
  S  S0  1  0.14238520  0.00548458  0.24744919  1
  S  S1  1  0.64887994  0.00935650  0.24983546  1
  S  S2  1  0.14259720  0.27898707  0.74828054  1
  O  O0  1  0.10179383  0.02482074  0.30159410  1
  O  O1  1  0.60215060  0.02833691  0.30129236  1
  O  O2  1  0.41505405  0.80126641  0.30690259  1
  O  O3  1  0.91349414  0.80288877  0.30862206  1
  O  O4  1  0.48695599  0.16814256  0.30611797  1
  O  O5  1  0.98776335  0.16642489  0.30804327  1
  O  O6  1  0.10316895  0.17855780  0.80240037  1
  O  O7  1  0.59733045  0.16919151  0.80857549  1
  O  O8  1  0.48392954  0.80547654  0.80628343  1
  O  O9  1  0.98937619  0.80973320  0.80799330  1
  O  O10  1  0.41408535  0.02763957  0.80862482  1
  O  O11  1  0.91903054  0.02880366  0.80652729  1
  O  O12  1  0.41408946  0.99485875  0.69405500  1
  O  O13  1  0.90509263  0.98037607  0.69244529  1
  O  O14  1  0.09143751  0.19583761  0.69597235  1
  O  O15  1  0.58798446  0.19718660  0.69045830  1
  O  O16  1  0.00610096  0.83898520  0.69402349  1
  O  O17  1  0.51239740  0.82983342  0.69245247  1
  O  O18  1  0.39352286  0.79916509  0.18847037  1
  O  O19  1  0.91562629  0.82682965  0.19289780  1
  O  O20  1  0.00253696  0.16948201  0.19305950  1
  O  O21  1  0.51572833  0.22499519  0.18912179  1
  O  O22  1  0.09318628  0.99208743  0.19446998  1
  O  O23  1  0.60370227  0.98822597  0.19467993  1
  O  O24  1  0.43300844  0.35992073  0.63877569  1
  O  O25  1  0.93097041  0.36029685  0.64411403  1
  O  O26  1  0.24895129  0.14014823  0.64392156  1
  O  O27  1  0.74911462  0.13685984  0.64223251  1
  O  O28  1  0.32170676  0.50384009  0.64283349  1
  O  O29  1  0.81751399  0.49445622  0.63933085  1
  O  O30  1  0.43450306  0.50175251  0.14123988  1
  O  O31  1  0.93251368  0.50163355  0.13851138  1
  O  O32  1  0.31939324  0.13779702  0.14043215  1
  O  O33  1  0.81654428  0.13962524  0.14023867  1
  O  O34  1  0.24997296  0.36382829  0.14284409  1
  O  O35  1  0.75041901  0.36112765  0.14179720  1
  O  O36  1  0.23579237  0.30989345  0.02803710  1
  O  O37  1  0.74533800  0.32613465  0.02558696  1
  O  O38  1  0.41732594  0.51063285  0.02868696  1
  O  O39  1  0.92094311  0.53552525  0.02253816  1
  O  O40  1  0.33820476  0.16102457  0.02501514  1
  O  O41  1  0.84439040  0.16327030  0.02706778  1
  O  O42  1  0.23717369  0.16525478  0.53047346  1
  O  O43  1  0.73643064  0.16755223  0.52989616  1
  O  O44  1  0.34580009  0.53110968  0.52788269  1
  O  O45  1  0.84579695  0.53498740  0.52558968  1
  O  O46  1  0.42289207  0.31032733  0.52523820  1
  O  O47  1  0.92064704  0.30783164  0.52839221  1
  O  O48  1  0.26452024  0.69887544  0.97133346  1
  O  O49  1  0.76458941  0.69334930  0.97357941  1
  O  O50  1  0.08338306  0.47309416  0.97067211  1
  O  O51  1  0.58390979  0.47151315  0.97405276  1
  O  O52  1  0.14909571  0.82755596  0.96936125  1
  O  O53  1  0.65420185  0.83820465  0.97609528  1
  O  O54  1  0.26245072  0.82766019  0.46981321  1
  O  O55  1  0.76499391  0.83097917  0.47323380  1
  O  O56  1  0.14919787  0.46951618  0.47087458  1
  O  O57  1  0.64991529  0.46384335  0.47330300  1
  O  O58  1  0.08310786  0.69537808  0.47443367  1
  O  O59  1  0.58377888  0.69083777  0.47128294  1
  O  O60  1  0.04221257  0.59686549  0.36206991  1
  O  O61  1  0.54368918  0.61073966  0.35713249  1
  O  O62  1  0.26741541  0.91224693  0.35230379  1
  O  O63  1  0.76361444  0.90877397  0.35780008  1
  O  O64  1  0.19534268  0.47520772  0.35651739  1
  O  O65  1  0.69518154  0.47409904  0.35747552  1
  O  O66  1  0.04304103  0.47457691  0.85452681  1
  O  O67  1  0.57120698  0.50146635  0.86000967  1
  O  O68  1  0.19298236  0.91449747  0.85474010  1
  O  O69  1  0.67967221  0.85579560  0.86004522  1
  O  O70  1  0.26838639  0.62724180  0.85279692  1
  O  O71  1  0.74756402  0.63244826  0.85981350  1
  O  O72  1  0.00747756  0.83560643  0.41163311  1
  O  O73  1  0.50738508  0.83739011  0.41203658  1
  O  O74  1  0.40654574  0.97548138  0.41210593  1
  O  O75  1  0.90746557  0.97586306  0.41393296  1
  O  O76  1  0.07890118  0.18345284  0.41019675  1
  O  O77  1  0.57804842  0.18269704  0.41017360  1
  O  O78  1  0.01066446  0.18070781  0.91067445  1
  O  O79  1  0.51625233  0.19408715  0.90995532  1
  O  O80  1  0.07768393  0.97174314  0.91091014  1
  O  O81  1  0.58440671  0.97986160  0.90858748  1
  O  O82  1  0.40765207  0.84861816  0.91275780  1
  O  O83  1  0.90462109  0.82950174  0.90996991  1
  O  O84  1  0.49399981  0.16764137  0.58820700  1
  O  O85  1  0.98984317  0.16931858  0.59409622  1
  O  O86  1  0.09450896  0.02603270  0.59319663  1
  O  O87  1  0.59716618  0.03192377  0.58973553  1
  O  O88  1  0.41759438  0.81096141  0.59201789  1
  O  O89  1  0.91533946  0.80958414  0.58861216  1
  O  O90  1  0.49313645  0.80585754  0.07927974  1
  O  O91  1  0.99015085  0.81203589  0.08978569  1
  O  O92  1  0.41183491  0.02276894  0.07822777  1
  O  O93  1  0.91480538  0.02163583  0.08889962  1
  O  O94  1  0.09475279  0.16453923  0.09196964  1
  O  O95  1  0.60218766  0.17405598  0.07779696  1
  O  O96  1  0.34665381  0.17788250  0.74348296  1
  O  O97  1  0.85196122  0.17525960  0.74470827  1
  O  O98  1  0.22901075  0.29477975  0.74498962  1
  O  O99  1  0.73724688  0.30358497  0.74342884  1
  O  O100  1  0.41032308  0.52683785  0.74337995  1
  O  O101  1  0.91083737  0.52262526  0.74431137  1
  O  O102  1  0.34654234  0.50922584  0.24690218  1
  O  O103  1  0.85014121  0.51818641  0.24376836  1
  O  O104  1  0.40359118  0.28954614  0.24661659  1
  O  O105  1  0.90798782  0.29021924  0.24204273  1
  O  O106  1  0.22760787  0.16722508  0.24470995  1
  O  O107  1  0.73278399  0.17245304  0.24886272  1
  O  O108  1  0.33047779  0.51036140  0.93008837  1
  O  O109  1  0.82112094  0.49624452  0.92096255  1
  O  O110  1  0.42461438  0.34476963  0.92199323  1
  O  O111  1  0.92671287  0.35020215  0.92995110  1
  O  O112  1  0.24820227  0.15122395  0.92899199  1
  O  O113  1  0.74836855  0.14584904  0.92352179  1
  O  O114  1  0.33424613  0.15965732  0.42940607  1
  O  O115  1  0.83700435  0.16222211  0.43036858  1
  O  O116  1  0.24832478  0.34406919  0.43172262  1
  O  O117  1  0.74891790  0.34323904  0.43200629  1
  O  O118  1  0.42200692  0.50760891  0.43104994  1
  O  O119  1  0.92169713  0.50888059  0.43257258  1
  O  O120  1  0.18442268  0.50870415  0.07642457  1
  O  O121  1  0.68442410  0.51228654  0.07647578  1
  O  O122  1  0.07196597  0.63729403  0.07485667  1
  O  O123  1  0.57288497  0.62591159  0.07755955  1
  O  O124  1  0.24321099  0.85062615  0.07617875  1
  O  O125  1  0.74425592  0.86158878  0.07713862  1
  O  O126  1  0.18023038  0.85664273  0.57718182  1
  O  O127  1  0.67935719  0.85343448  0.57609849  1
  O  O128  1  0.24747447  0.64032841  0.57662544  1
  O  O129  1  0.74450441  0.63020273  0.57715772  1
  O  O130  1  0.07300564  0.50501348  0.57730550  1
  O  O131  1  0.57628745  0.50117951  0.57747861  1
  O  O132  1  0.15638326  0.86088334  0.24948898  1
  O  O133  1  0.65861909  0.86037958  0.25671862  1
  O  O134  1  0.25880253  0.67947801  0.25196421  1
  O  O135  1  0.76359460  0.67893505  0.24339237  1
  O  O136  1  0.08096009  0.46071734  0.24500008  1
  O  O137  1  0.57442981  0.49079449  0.25275675  1
  O  O138  1  0.15294335  0.45017338  0.75090315  1
  O  O139  1  0.65319062  0.47501085  0.75781527  1
  O  O140  1  0.07987604  0.69107708  0.74524579  1
  O  O141  1  0.58247197  0.68747021  0.75651647  1
  O  O142  1  0.26658057  0.83792604  0.74457568  1
  O  O143  1  0.76239682  0.83004970  0.75733731  1
loop_
_geom_bond_atom_site_label_1
_geom_bond_atom_site_label_2
_geom_bond_distance
_geom_bond_site_symmetry_2
Na0 O62 2.370904 1_555
Na0 O134 2.402289 1_555
Na0 O104 2.452803 1_565
Na0 O132 2.543658 1_555
Na1 O136 2.303929 1_555
Na1 O134 2.324029 1_555
Na1 O64 2.407976 1_555
Na1 O106 2.505308 1_555
Na1 O102 2.610806 1_555
Na1 O34 2.895256 1_555
Na2 O135 2.352242 1_555
Na2 O65 2.511774 1_555
Na2 O107 2.541254 1_555
Na2 O137 2.565367 1_555
Na2 O103 2.713006 1_555
Na2 O35 2.872268 1_555
Na3 O137 2.261427 1_555
Na3 O61 2.399140 1_555
Na3 O133 2.520183 1_555
Na3 O102 2.521501 1_555
Na3 O104 2.762799 1_555
Na3 O2 2.931001 1_555
Na3 O30 2.946337 1_555
Na4 O70 2.338765 1_555
Na4 O142 2.366404 1_555
Na4 O100 2.462548 1_555
Na4 O138 2.574333 1_555
Na4 O98 2.754111 1_555
Na4 O8 2.902236 1_555
Na4 O28 2.903349 1_555
Na5 O66 2.414265 1_555
Na5 O140 2.431198 1_555
Na5 O97 2.435917 1_455
Na5 O138 2.514623 1_555
Na5 O101 2.545684 1_455
Na5 O25 2.773289 1_455
Na6 O140 2.365607 1_555
Na6 O68 2.399336 1_555
Na6 O142 2.434095 1_555
Na6 O98 2.567337 1_565
Na6 O96 2.594833 1_565
Na6 O26 2.838289 1_565
Na7 O129 2.384496 1_555
Na7 O87 2.413576 1_555
Na7 O84 2.462694 1_555
Na7 O131 2.496116 1_555
Na7 O15 2.698007 1_555
Na7 O57 2.788057 1_555
Na7 O29 2.932248 1_555
Na7 O43 2.948848 1_555
Na8 O95 2.362950 1_565
Na8 O90 2.395487 1_555
Na8 O125 2.460072 1_555
Na8 O23 2.670527 1_555
Na8 O123 2.718246 1_555
Na8 O53 2.764476 1_554
Na9 O92 2.422376 1_565
Na9 O18 2.460665 1_555
Na9 O120 2.504165 1_555
Na9 O90 2.515258 1_555
Na9 O124 2.593318 1_555
Na9 O48 2.938413 1_554
Na10 O92 2.403306 1_555
Na10 O21 2.445069 1_555
Na10 O95 2.469026 1_555
Na10 O123 2.489070 1_555
Na10 O121 2.657362 1_555
Na10 O51 2.909014 1_554
Na11 O111 2.473896 1_555
Na11 O80 2.486204 1_655
Na11 O109 2.638868 1_555
Na11 O83 2.669523 1_555
Na11 O66 2.717567 1_655
Na11 O39 2.726345 1_556
Na11 O9 2.783017 1_555
Na11 O52 2.834325 1_655
Na12 O82 2.420268 1_545
Na12 O110 2.495669 1_555
Na12 O112 2.544696 1_555
Na12 O79 2.699511 1_555
Na12 O10 2.746577 1_555
Na12 O40 2.796659 1_556
Na12 O68 2.800800 1_545
Na12 O48 2.899656 1_545
Na13 O79 2.401228 1_555
Na13 O109 2.491863 1_555
Na13 O113 2.506364 1_555
Na13 O81 2.507795 1_545
Na13 O7 2.718856 1_555
Na13 O37 2.832363 1_556
Na13 O71 2.941414 1_555
Na13 O51 2.985753 1_555
Na14 O114 2.446474 1_555
Na14 O77 2.514391 1_555
Na14 O118 2.568528 1_555
Na14 O61 2.675345 1_555
Na14 O74 2.712150 1_545
Na14 O46 2.758654 1_555
Na14 O4 2.834406 1_555
Na14 O57 2.886052 1_555
Na15 O115 2.443311 1_555
Na15 O60 2.490476 1_655
Na15 O76 2.521000 1_655
Na15 O119 2.583197 1_555
Na15 O75 2.746368 1_545
Na15 O56 2.817115 1_655
Na15 O5 2.818422 1_555
Na15 O47 2.847371 1_555
Na16 O118 2.499087 1_555
Na16 O74 2.518567 1_555
Na16 O116 2.519917 1_555
Na16 O73 2.638641 1_555
Na16 O64 2.679418 1_555
Na16 O2 2.814185 1_555
Na16 O44 2.824086 1_555
Na16 O54 2.857309 1_555
Na17 O119 2.453395 1_555
Na17 O117 2.511860 1_555
Na17 O75 2.542167 1_555
Na17 O72 2.621871 1_655
Na17 O65 2.676321 1_555
Na17 O45 2.761192 1_555
Na17 O3 2.762944 1_555
Na17 O55 2.922166 1_555
Na18 O76 2.549617 1_555
Na18 O72 2.556499 1_545
Na18 O86 2.558564 1_555
Na18 O75 2.629502 1_445
Na18 O89 2.649738 1_445
Na18 O85 2.709135 1_455
Na19 O73 2.527348 1_555
Na19 O87 2.537984 1_565
Na19 O88 2.575802 1_555
Na19 O84 2.575896 1_565
Na19 O74 2.645842 1_555
Na19 O77 2.655371 1_565
Na20 O78 2.544968 1_554
Na20 O94 2.547672 1_555
Na20 O80 2.593527 1_544
Na20 O93 2.603290 1_455
Na20 O91 2.637446 1_445
Na20 O83 2.733717 1_444
Na21 O90 2.376101 1_555
Na21 O92 2.423658 1_565
Na21 O95 2.448304 1_565
Na21 O82 2.567252 1_554
Na21 O81 2.722282 1_554
Na21 O79 2.737572 1_564
Na22 O110 2.484404 1_555
Na22 O100 2.620527 1_555
Na22 O108 2.646066 1_555
Na22 O96 2.668977 1_555
Na22 O112 2.702756 1_555
Na22 O98 2.768459 1_555
Na23 O97 2.526774 1_555
Na23 O99 2.555859 1_555
Na23 O101 2.585383 1_555
Na23 O113 2.625880 1_555
Na23 O109 2.641692 1_555
Na23 O111 2.792192 1_555
Na24 O102 2.557845 1_555
Na24 O104 2.568659 1_555
Na24 O114 2.623380 1_555
Na24 O116 2.679945 1_555
Na24 O106 2.686590 1_555
Na24 O118 2.719491 1_555
Na25 O107 2.540474 1_555
Na25 O105 2.582915 1_555
Na25 O103 2.614572 1_555
Na25 O115 2.672716 1_555
Na25 O119 2.788719 1_555
Na25 O117 2.790311 1_555
Na26 O136 2.359996 1_555
Na26 O134 2.538057 1_555
Na26 O122 2.632255 1_555
Na26 O132 2.633552 1_555
Na26 O120 2.669635 1_555
Na26 O124 2.714756 1_555
Na27 O135 2.250911 1_555
Na27 O137 2.522941 1_555
Na27 O121 2.642492 1_555
Na27 O125 2.685208 1_555
Na27 O133 2.734667 1_555
Na27 O123 2.740239 1_555
Na28 O142 2.464171 1_555
Na28 O140 2.476220 1_555
Na28 O126 2.498128 1_555
Na28 O130 2.579697 1_555
Na28 O128 2.608136 1_555
Na28 O138 2.781884 1_555
Na29 O127 2.578026 1_555
Na29 O143 2.591553 1_555
Na29 O141 2.602408 1_555
Na29 O131 2.610830 1_555
Na29 O129 2.630341 1_555
Na29 O139 2.675245 1_555
Ca0 O18 2.143871 1_545
Ca0 O21 2.146085 1_555
Ca0 O92 2.271485 1_555
Ca0 O23 2.271515 1_545
Ca0 O90 2.294451 1_545
Ca0 O95 2.315539 1_555
Ca1 O60 2.180552 1_555
Ca1 O64 2.260261 1_555
Ca1 O62 2.276368 1_555
Ca1 O134 2.286290 1_555
Ca1 O136 2.355404 1_555
Ca1 O132 2.427929 1_555
Ca2 O63 2.149397 1_555
Ca2 O65 2.221845 1_555
Ca2 O137 2.284090 1_555
Ca2 O61 2.304461 1_555
Ca2 O133 2.332678 1_555
Ca2 O135 2.369274 1_555
Ca3 O68 2.196367 1_555
Ca3 O70 2.210724 1_555
Ca3 O66 2.234270 1_555
Ca3 O140 2.369777 1_555
Ca3 O142 2.376940 1_555
Ca3 O138 2.432676 1_555
Nb0 O75 1.954331 1_555
Nb0 O5 1.959921 1_565
Nb0 O3 1.961778 1_555
Nb0 O72 2.025722 1_655
Nb0 O76 2.039962 1_665
Nb0 O0 2.271428 1_665
Nb1 O74 1.955839 1_555
Nb1 O2 1.977553 1_555
Nb1 O4 1.978074 1_565
Nb1 O77 2.039273 1_565
Nb1 O73 2.044481 1_555
Nb1 O1 2.255746 1_565
Nb2 O11 1.931746 1_565
Nb2 O83 1.944367 1_555
Nb2 O9 1.981475 1_555
Nb2 O78 1.995644 1_665
Nb2 O80 2.040604 1_655
Nb2 O6 2.274030 1_665
Nb3 O8 1.956611 1_555
Nb3 O7 1.995442 1_565
Nb3 O10 2.002615 1_565
Nb3 O82 2.027844 1_555
Nb3 O81 2.044053 1_555
Nb3 O79 2.093107 1_565
Nb4 O16 1.924383 1_655
Nb4 O89 1.925523 1_555
Nb4 O13 1.963860 1_555
Nb4 O85 1.987540 1_565
Nb4 O86 2.026526 1_665
Nb4 O14 2.242832 1_665
Nb5 O12 1.917377 1_555
Nb5 O17 1.949509 1_555
Nb5 O88 2.009579 1_555
Nb5 O15 2.010755 1_565
Nb5 O87 2.073233 1_565
Nb5 O84 2.086768 1_565
Nb6 O20 1.907288 1_665
Nb6 O19 1.914634 1_555
Nb6 O93 1.958396 1_565
Nb6 O91 2.029297 1_555
Nb6 O94 2.033455 1_665
Nb6 O22 2.200826 1_655
Nb7 O24 1.864280 1_555
Nb7 O26 1.960647 1_555
Nb7 O28 1.967165 1_555
Nb7 O96 2.024740 1_555
Nb7 O100 2.065974 1_555
Nb7 O98 2.370012 1_555
Nb8 O27 1.952658 1_555
Nb8 O29 1.969929 1_555
Nb8 O99 2.007034 1_555
Nb8 O25 2.013977 1_555
Nb8 O101 2.058673 1_555
Nb8 O97 2.086287 1_555
Nb9 O30 1.904958 1_555
Nb9 O32 1.954079 1_555
Nb9 O34 1.970486 1_555
Nb9 O104 2.044061 1_555
Nb9 O102 2.066782 1_555
Nb9 O106 2.302617 1_555
Nb10 O31 1.880735 1_555
Nb10 O105 1.991055 1_555
Nb10 O33 1.993899 1_555
Nb10 O103 1.996828 1_555
Nb10 O35 2.005635 1_555
Nb10 O107 2.330245 1_555
Nb11 O38 1.938723 1_556
Nb11 O108 1.945554 1_555
Nb11 O36 1.948062 1_556
Nb11 O40 1.966853 1_556
Nb11 O112 1.972190 1_555
Nb11 O110 2.150622 1_555
Nb12 O41 1.921405 1_556
Nb12 O37 1.937501 1_556
Nb12 O111 1.948743 1_555
Nb12 O39 2.011387 1_556
Nb12 O113 2.055790 1_555
Nb12 O109 2.143174 1_555
Nb13 O42 1.930053 1_555
Nb13 O116 1.967047 1_555
Nb13 O44 1.981951 1_555
Nb13 O46 2.008980 1_555
Nb13 O114 2.017996 1_555
Nb13 O118 2.042100 1_555
Nb14 O43 1.954888 1_555
Nb14 O47 1.983018 1_555
Nb14 O117 1.984919 1_555
Nb14 O45 1.994259 1_555
Nb14 O115 1.994504 1_555
Nb14 O119 1.996005 1_555
Nb15 O50 1.964942 1_554
Nb15 O52 1.994711 1_554
Nb15 O122 2.014558 1_555
Nb15 O48 2.027953 1_554
Nb15 O124 2.044453 1_555
Nb15 O120 2.089086 1_555
Nb16 O49 1.944118 1_554
Nb16 O51 1.991782 1_554
Nb16 O53 1.998322 1_554
Nb16 O121 2.009413 1_555
Nb16 O125 2.053959 1_555
Nb16 O123 2.076611 1_555
Nb17 O58 1.964427 1_555
Nb17 O56 2.021143 1_555
Nb17 O130 2.024788 1_555
Nb17 O54 2.034645 1_555
Nb17 O128 2.052305 1_555
Nb17 O126 2.059955 1_555
Nb18 O59 1.936530 1_555
Nb18 O55 1.964449 1_555
Nb18 O127 2.015595 1_555
Nb18 O57 2.056534 1_555
Nb18 O131 2.075949 1_555
Nb18 O129 2.104505 1_555
Nb19 O67 1.970374 1_555
Nb19 O69 1.988055 1_555
Nb19 O71 2.007604 1_555
Nb19 O139 2.016795 1_555
Nb19 O141 2.032783 1_555
Nb19 O143 2.054211 1_555
O0 S0 1.495366 1_555
O1 S1 1.511271 1_555
O2 Si0 1.731771 1_555
O3 Si1 1.686508 1_555
O4 Si3 1.728616 1_555
O5 Si2 1.693132 1_555
O6 S2 1.489434 1_555
O7 Si4 1.652634 1_555
O8 Si6 1.656115 1_555
O9 Si5 1.683502 1_555
O10 Si7 1.664442 1_555
O11 Si8 1.673313 1_545
O12 Si7 1.652950 1_565
O13 Si8 1.638747 1_555
O14 S2 1.466194 1_555
O15 Si4 1.638226 1_555
O16 Si5 1.646136 1_455
O17 Si6 1.642496 1_555
O18 Si0 1.583821 1_555
O19 Si1 1.643969 1_555
O20 Si2 1.655417 1_455
O21 Si3 1.586044 1_555
O22 S0 1.468898 1_565
O23 S1 1.458360 1_565
O24 Si9 1.680567 1_555
O25 Si10 1.644154 1_555
O26 Si11 1.670050 1_555
O27 Si12 1.644470 1_555
O28 Si13 1.667166 1_555
O29 Si14 1.641718 1_555
O30 Si15 1.710240 1_555
O31 Si16 1.672783 1_555
O32 Si17 1.692691 1_555
O33 Si18 1.631118 1_555
O34 Si19 1.674650 1_555
O35 Si20 1.659857 1_555
O36 Si19 1.629163 1_555
O37 Si20 1.648697 1_555
O38 Si15 1.615397 1_555
O39 Si16 1.634566 1_555
O40 Si17 1.625998 1_555
O41 Si18 1.640135 1_555
O42 Si11 1.637169 1_555
O43 Si12 1.632548 1_555
O44 Si13 1.632792 1_555
O45 Si14 1.615125 1_555
O46 Si9 1.613235 1_555
O47 Si10 1.633142 1_555
O48 Si21 1.674793 1_555
O49 Si22 1.643873 1_555
O50 Si23 1.659621 1_555
O51 Si24 1.665652 1_555
O52 Si25 1.669840 1_555
O53 Si26 1.653182 1_555
O54 Si27 1.652283 1_555
O55 Si28 1.669835 1_555
O56 Si29 1.666260 1_555
O57 Si30 1.677546 1_555
O58 Si31 1.659804 1_555
O59 Si32 1.679794 1_555
O60 Si31 1.584867 1_555
O61 Si32 1.590357 1_555
O62 Si27 1.584091 1_555
O63 Si28 1.564322 1_555
O64 Si29 1.596309 1_555
O65 Si30 1.598408 1_555
O66 Si23 1.598995 1_555
O67 Si24 1.639327 1_555
O68 Si25 1.599234 1_555
O69 Si26 1.633334 1_555
O70 Si21 1.591910 1_555
O71 Si22 1.619816 1_555
O72 Si31 1.662626 1_555
O73 Si32 1.657173 1_555
O74 Si27 1.722014 1_555
O75 Si28 1.705228 1_555
O76 Si29 1.660546 1_555
O77 Si30 1.662284 1_555
O78 Si23 1.651006 1_555
O79 Si24 1.659386 1_555
O80 Si25 1.658059 1_555
O81 Si26 1.653630 1_555
O82 Si21 1.681164 1_555
O83 Si22 1.656050 1_555
O84 Si9 1.631819 1_555
O85 Si10 1.653182 1_555
O86 Si11 1.642771 1_555
O87 Si12 1.642415 1_555
O88 Si13 1.647802 1_555
O89 Si14 1.650443 1_555
O90 Si15 1.586165 1_555
O91 Si16 1.632472 1_555
O92 Si17 1.604843 1_555
O93 Si18 1.642406 1_555
O94 Si19 1.632390 1_555
O95 Si20 1.603733 1_555
O96 Si7 1.667728 1_555
O97 Si8 1.645877 1_545
O98 S2 1.511987 1_555
O99 Si4 1.650381 1_555
O100 Si6 1.662079 1_555
O101 Si5 1.646953 1_555
O102 Si0 1.692647 1_555
O103 Si1 1.676338 1_555
O104 Si3 1.696958 1_555
O105 Si2 1.650345 1_555
O106 S0 1.517711 1_555
O107 S1 1.509522 1_555
O108 Si21 1.636336 1_555
O109 Si22 1.640738 1_555
O110 Si24 1.631300 1_555
O111 Si23 1.656195 1_655
O112 Si25 1.635118 1_545
O113 Si26 1.658921 1_545
O114 Si27 1.644808 1_545
O115 Si28 1.633665 1_545
O116 Si29 1.650171 1_555
O117 Si30 1.640226 1_555
O118 Si32 1.655217 1_555
O119 Si31 1.659147 1_655
O120 Si19 1.642901 1_555
O121 Si20 1.650664 1_555
O122 Si16 1.632589 1_455
O123 Si15 1.639057 1_555
O124 Si17 1.644067 1_565
O125 Si18 1.636139 1_565
O126 Si11 1.630457 1_565
O127 Si12 1.636069 1_565
O128 Si13 1.631043 1_555
O129 Si14 1.634829 1_555
O130 Si10 1.643566 1_455
O131 Si9 1.633866 1_555
O132 S0 1.463667 1_565
O133 S1 1.463560 1_565
O134 Si0 1.602262 1_555
O135 Si1 1.591355 1_555
O136 Si2 1.589277 1_455
O137 Si3 1.604631 1_555
O138 S2 1.476777 1_555
O139 Si4 1.646628 1_555
O140 Si5 1.611877 1_455
O141 Si6 1.626053 1_555
O142 Si7 1.608896 1_565
O143 Si8 1.630947 1_555
