# generated using pymatgen
data_Na5Mg2Ta2SiP5O24
_symmetry_space_group_name_H-M   'P 1'
_cell_length_a   8.88877344
_cell_length_b   8.93918851
_cell_length_c   22.38801972
_cell_angle_alpha   89.84485964
_cell_angle_beta   90.02216012
_cell_angle_gamma   119.82843357
_symmetry_Int_Tables_number   1
_chemical_formula_structural   Na5Mg2Ta2SiP5O24
_chemical_formula_sum   'Na15 Mg6 Ta6 Si3 P15 O72'
_cell_volume   1543.23693694
_cell_formula_units_Z   3
loop_
 _symmetry_equiv_pos_site_id
 _symmetry_equiv_pos_as_xyz
  1  'x, y, z'
loop_
 _atom_site_type_symbol
 _atom_site_label
 _atom_site_symmetry_multiplicity
 _atom_site_fract_x
 _atom_site_fract_y
 _atom_site_fract_z
 _atom_site_occupancy
  Na  Na0  1  0.62274418  0.00235312  0.25110490  1
  Na  Na1  1  0.99848683  0.61771088  0.24854084  1
  Na  Na2  1  0.34863142  0.99978885  0.75140957  1
  Na  Na3  1  0.29782424  0.31247709  0.58560015  1
  Na  Na4  1  0.02417365  0.70819090  0.58774916  1
  Na  Na5  1  0.68058064  0.97751221  0.59070307  1
  Na  Na6  1  0.65279292  0.68754492  0.07782688  1
  Na  Na7  1  0.03961981  0.35147146  0.07918341  1
  Na  Na8  1  0.98071777  0.68023915  0.91205195  1
  Na  Na9  1  0.00681451  0.00110064  0.50573193  1
  Na  Na10  1  0.01122986  0.01169224  0.98767866  1
  Na  Na11  1  0.67008112  0.32815701  0.83227731  1
  Na  Na12  1  0.65524258  0.33534180  0.34008207  1
  Na  Na13  1  0.32652634  0.66586386  0.16365418  1
  Na  Na14  1  0.33885074  0.65996860  0.67043546  1
  Mg  Mg0  1  0.99828848  0.00997056  0.84999566  1
  Mg  Mg1  1  0.99558208  0.99848980  0.65293313  1
  Mg  Mg2  1  0.66405629  0.33495010  0.18713325  1
  Mg  Mg3  1  0.66242367  0.33117840  0.47859653  1
  Mg  Mg4  1  0.33096193  0.67261419  0.01819717  1
  Mg  Mg5  1  0.33375585  0.66034063  0.31403949  1
  Ta  Ta0  1  0.00326930  0.00258952  0.35806707  1
  Ta  Ta1  1  0.00373459  0.99817678  0.14457756  1
  Ta  Ta2  1  0.66733202  0.32846250  0.68642006  1
  Ta  Ta3  1  0.66404356  0.33185674  0.98004467  1
  Ta  Ta4  1  0.33494091  0.66991010  0.51544997  1
  Ta  Ta5  1  0.33903763  0.66718385  0.81501837  1
  Si  Si0  1  0.71317694  0.99929798  0.74901906  1
  Si  Si1  1  0.37019117  0.04109430  0.58020130  1
  Si  Si2  1  0.96290857  0.62337555  0.08705862  1
  P  P0  1  0.29212994  0.00328924  0.25153400  1
  P  P1  1  0.71025361  0.71152554  0.25120955  1
  P  P2  1  0.00257529  0.28998235  0.25027638  1
  P  P3  1  0.29197096  0.29380188  0.74892767  1
  P  P4  1  0.99728070  0.70372950  0.75172434  1
  P  P5  1  0.95762380  0.33439641  0.57996252  1
  P  P6  1  0.66750328  0.62167038  0.58008687  1
  P  P7  1  0.66223497  0.04141161  0.08714632  1
  P  P8  1  0.37894600  0.33318070  0.08520370  1
  P  P9  1  0.62672874  0.66752292  0.92103873  1
  P  P10  1  0.04420994  0.37124183  0.92038041  1
  P  P11  1  0.33230267  0.95871165  0.91771632  1
  P  P12  1  0.62419564  0.96228836  0.41176160  1
  P  P13  1  0.33846783  0.37821337  0.41385682  1
  P  P14  1  0.03728677  0.66151588  0.41219531  1
  O  O0  1  0.19180525  0.01899164  0.30606774  1
  O  O1  1  0.83363043  0.81438384  0.30458104  1
  O  O2  1  0.98459866  0.16881030  0.30421485  1
  O  O3  1  0.22083771  0.17334757  0.80170363  1
  O  O4  1  0.97177252  0.77937647  0.80843736  1
  O  O5  1  0.82307002  0.03509230  0.80771473  1
  O  O6  1  0.76956656  0.96386371  0.68537562  1
  O  O7  1  0.19459404  0.22847843  0.69013434  1
  O  O8  1  0.04185315  0.81555190  0.69528258  1
  O  O9  1  0.80803274  0.82887070  0.19370337  1
  O  O10  1  0.01904218  0.19462988  0.19311823  1
  O  O11  1  0.17149886  0.98327527  0.19562094  1
  O  O12  1  0.87330012  0.37050152  0.63707032  1
  O  O13  1  0.49721915  0.13046545  0.64151273  1
  O  O14  1  0.63315632  0.50464550  0.63703910  1
  O  O15  1  0.87488206  0.51198029  0.14567783  1
  O  O16  1  0.63981417  0.11897190  0.14389044  1
  O  O17  1  0.48922215  0.36002288  0.13901178  1
  O  O18  1  0.46291354  0.29924719  0.02799468  1
  O  O19  1  0.82740730  0.52838968  0.02689528  1
  O  O20  1  0.69410748  0.16544801  0.03162791  1
  O  O21  1  0.46268093  0.16569432  0.52637850  1
  O  O22  1  0.69984454  0.54142462  0.52671233  1
  O  O23  1  0.84554087  0.30798224  0.52677030  1
  O  O24  1  0.54366038  0.68390616  0.97732646  1
  O  O25  1  0.14047342  0.45582946  0.97750573  1
  O  O26  1  0.30613005  0.84543867  0.97076674  1
  O  O27  1  0.53182195  0.83852928  0.46934621  1
  O  O28  1  0.30569440  0.46313212  0.47273977  1
  O  O29  1  0.16088549  0.69211562  0.46984053  1
  O  O30  1  0.12515368  0.64817540  0.35659616  1
  O  O31  1  0.52094445  0.87524700  0.35649366  1
  O  O32  1  0.35121799  0.48476179  0.36044324  1
  O  O33  1  0.13358201  0.49777978  0.86562591  1
  O  O34  1  0.35926905  0.87119361  0.85970341  1
  O  O35  1  0.50691224  0.64481974  0.86541130  1
  O  O36  1  0.03070089  0.83699708  0.41050607  1
  O  O37  1  0.80648095  0.96763262  0.40995502  1
  O  O38  1  0.16334207  0.19393388  0.41026007  1
  O  O39  1  0.01972519  0.19398488  0.91216031  1
  O  O40  1  0.17329229  0.97892134  0.90853525  1
  O  O41  1  0.81210720  0.81334196  0.91270727  1
  O  O42  1  0.98753776  0.18183151  0.58918449  1
  O  O43  1  0.17517910  0.00554044  0.59017595  1
  O  O44  1  0.81845049  0.80593666  0.58829946  1
  O  O45  1  0.96563764  0.81416982  0.08965546  1
  O  O46  1  0.84244393  0.03941046  0.08953380  1
  O  O47  1  0.19164335  0.16778935  0.08980928  1
  O  O48  1  0.67402884  0.16837649  0.74229914  1
  O  O49  1  0.48353004  0.32412351  0.74044156  1
  O  O50  1  0.83753582  0.52009291  0.74124485  1
  O  O51  1  0.70505884  0.53992097  0.24875896  1
  O  O52  1  0.83201329  0.29391224  0.24958816  1
  O  O53  1  0.46957716  0.16192096  0.24782707  1
  O  O54  1  0.63529263  0.49178117  0.92215367  1
  O  O55  1  0.85815803  0.36383081  0.92367752  1
  O  O56  1  0.50299781  0.14005476  0.92297767  1
  O  O57  1  0.65362980  0.14039745  0.42168236  1
  O  O58  1  0.49026041  0.35051824  0.42136744  1
  O  O59  1  0.85977753  0.51128005  0.42269125  1
  O  O60  1  0.35245035  0.48755177  0.07586842  1
  O  O61  1  0.15038276  0.64495943  0.07826207  1
  O  O62  1  0.52134378  0.85689097  0.07740962  1
  O  O63  1  0.36063511  0.84628527  0.57534794  1
  O  O64  1  0.49330794  0.63278180  0.57495512  1
  O  O65  1  0.14260881  0.50518988  0.57597288  1
  O  O66  1  0.29747523  0.83466165  0.25230751  1
  O  O67  1  0.53883690  0.71000970  0.25241276  1
  O  O68  1  0.16056588  0.46859941  0.25224929  1
  O  O69  1  0.31590591  0.47812122  0.76106589  1
  O  O70  1  0.16185697  0.67813971  0.76014488  1
  O  O71  1  0.50503174  0.83268206  0.75970677  1
loop_
_geom_bond_atom_site_label_1
_geom_bond_atom_site_label_2
_geom_bond_distance
_geom_bond_site_symmetry_2
Na0 O52 2.330395 1_555
Na0 O67 2.333914 1_545
Na0 O53 2.413482 1_555
Na0 O66 2.509059 1_545
Na0 O31 2.577037 1_545
Na0 O16 2.588569 1_555
Na1 O51 2.341382 1_555
Na1 O66 2.388437 1_655
Na1 O68 2.401845 1_655
Na1 O52 2.511391 1_555
Na1 O15 2.525979 1_555
Na1 O30 2.624983 1_655
Na2 O71 2.502564 1_555
Na2 O70 2.512011 1_555
Na2 O48 2.518161 1_565
Na2 O49 2.538090 1_565
Na2 O3 2.594015 1_565
Na2 O8 2.695946 1_555
Na2 O34 2.702103 1_555
Na2 O13 2.759443 1_565
Na3 O43 2.397944 1_555
Na3 O42 2.402626 1_455
Na3 O7 2.487887 1_555
Na3 O64 2.514276 1_555
Na3 O65 2.698114 1_555
Na3 O21 2.747828 1_555
Na3 O14 2.841829 1_555
Na3 O28 2.844449 1_555
Na4 O43 2.306805 1_565
Na4 O44 2.386854 1_455
Na4 O65 2.524688 1_555
Na4 O8 2.569787 1_555
Na4 O63 2.621347 1_555
Na4 O12 2.843581 1_455
Na4 O22 2.851896 1_455
Na4 O29 2.940042 1_555
Na5 O6 2.286098 1_555
Na5 O44 2.393208 1_555
Na5 O42 2.413259 1_565
Na5 O63 2.502958 1_555
Na5 O64 2.700728 1_555
Na5 O13 2.836656 1_565
Na5 O23 2.931758 1_565
Na5 O27 3.009147 1_555
Na6 O62 2.327326 1_555
Na6 O60 2.361687 1_555
Na6 O45 2.440081 1_555
Na6 O24 2.443748 1_554
Na6 O46 2.744676 1_565
Na6 O19 2.817846 1_555
Na6 O17 2.882242 1_555
Na6 O9 2.917360 1_555
Na7 O61 2.298450 1_555
Na7 O60 2.419114 1_555
Na7 O25 2.452317 1_554
Na7 O46 2.457690 1_455
Na7 O47 2.604533 1_555
Na7 O10 2.869058 1_555
Na7 O20 2.873573 1_455
Na7 O15 2.919326 1_455
Na8 O41 2.331575 1_555
Na8 O40 2.348919 1_655
Na8 O55 2.487067 1_555
Na8 O4 2.496324 1_555
Na8 O54 2.677565 1_555
Na8 O33 2.793182 1_655
Na8 O26 2.834359 1_655
Na8 O19 2.907554 1_556
Na9 O43 2.398854 1_555
Na9 O44 2.518553 1_445
Na9 O42 2.534196 1_455
Na9 O36 2.658804 1_545
Na9 O38 2.659370 1_555
Na9 O37 2.707182 1_445
Na10 O39 2.319996 1_555
Na10 O40 2.392709 1_545
Na10 O41 2.446557 1_445
Na10 O47 2.745039 1_556
Na10 O45 2.785909 1_446
Na10 O46 2.808512 1_456
Na11 O48 2.482888 1_555
Na11 O55 2.560132 1_555
Na11 O56 2.579916 1_555
Na11 O54 2.598105 1_555
Na11 O50 2.599184 1_555
Na11 O49 2.629918 1_555
Na12 O58 2.383706 1_555
Na12 O57 2.516424 1_555
Na12 O59 2.523493 1_555
Na12 O53 2.619605 1_555
Na12 O51 2.625930 1_555
Na12 O52 2.701125 1_555
Na13 O61 2.418620 1_555
Na13 O68 2.572033 1_555
Na13 O62 2.585711 1_555
Na13 O66 2.585936 1_555
Na13 O60 2.615174 1_555
Na13 O67 2.631794 1_555
Na14 O71 2.511125 1_555
Na14 O69 2.540413 1_555
Na14 O70 2.606472 1_555
Na14 O64 2.617332 1_555
Na14 O63 2.646435 1_555
Na14 O65 2.653610 1_555
Mg0 O5 1.928171 1_555
Mg0 O3 2.081856 1_655
Mg0 O39 2.092717 1_655
Mg0 O40 2.154167 1_645
Mg0 O4 2.167294 1_545
Mg0 O41 2.212270 1_545
Mg1 O6 2.010157 1_555
Mg1 O8 2.098275 1_655
Mg1 O43 2.104203 1_665
Mg1 O7 2.107096 1_665
Mg1 O42 2.198168 1_565
Mg1 O44 2.202570 1_555
Mg2 O15 1.980079 1_555
Mg2 O17 1.992464 1_555
Mg2 O16 2.075397 1_555
Mg2 O53 2.134857 1_555
Mg2 O51 2.177738 1_555
Mg2 O52 2.204300 1_555
Mg3 O21 1.965971 1_555
Mg3 O23 2.046642 1_555
Mg3 O22 2.047457 1_555
Mg3 O58 2.067326 1_555
Mg3 O59 2.101674 1_555
Mg3 O57 2.101723 1_555
Mg4 O26 1.973121 1_554
Mg4 O61 2.012705 1_555
Mg4 O25 2.048517 1_554
Mg4 O24 2.057402 1_554
Mg4 O62 2.138122 1_555
Mg4 O60 2.177810 1_555
Mg5 O32 1.949413 1_555
Mg5 O30 2.039095 1_555
Mg5 O31 2.047255 1_555
Mg5 O68 2.146550 1_555
Mg5 O67 2.148766 1_555
Mg5 O66 2.220419 1_555
O0 P0 1.559436 1_555
O0 Ta0 1.985296 1_555
O1 P1 1.574060 1_555
O1 Ta0 2.005963 1_665
O2 P2 1.574145 1_655
O2 Ta0 1.981014 1_655
O3 P3 1.507204 1_555
O4 P4 1.509372 1_555
O5 Si0 1.572803 1_545
O6 Si0 1.594587 1_555
O7 P3 1.524207 1_555
O8 P4 1.533777 1_455
O9 P1 1.612405 1_555
O9 Ta1 1.974743 1_655
O10 P2 1.586082 1_555
O10 Ta1 2.013952 1_545
O11 P0 1.599390 1_565
O11 Ta1 1.934644 1_555
O12 P5 1.595068 1_555
O12 Ta2 2.007143 1_555
O13 Si1 1.704310 1_555
O13 Ta2 1.943178 1_555
O14 P6 1.577547 1_555
O14 Ta2 2.064263 1_555
O15 Si2 1.595222 1_555
O16 P7 1.508884 1_555
O17 P8 1.495418 1_555
O18 P8 1.586692 1_555
O18 Ta3 1.978626 1_554
O19 Si2 1.724368 1_555
O19 Ta3 1.940672 1_554
O20 P7 1.592136 1_555
O20 Ta3 2.000958 1_554
O21 Si1 1.565576 1_555
O22 P6 1.495047 1_555
O23 P5 1.494349 1_555
O24 P9 1.504650 1_555
O25 P10 1.516675 1_555
O26 P11 1.499797 1_555
O27 P12 1.627755 1_555
O27 Ta4 1.941342 1_555
O28 P13 1.620079 1_555
O28 Ta4 1.982404 1_555
O29 P14 1.627649 1_555
O29 Ta4 1.943937 1_555
O30 P14 1.505940 1_555
O31 P12 1.507538 1_555
O32 P13 1.495515 1_555
O33 P10 1.585115 1_555
O33 Ta5 2.037941 1_555
O34 P11 1.596456 1_555
O34 Ta5 2.010587 1_555
O35 P9 1.584857 1_555
O35 Ta5 1.957984 1_555
O36 P14 1.598931 1_555
O36 Ta0 1.994580 1_565
O37 P12 1.597593 1_555
O37 Ta0 1.990650 1_665
O38 P13 1.610256 1_555
O38 Ta0 1.975858 1_555
O39 P10 1.500154 1_555
O40 P11 1.525188 1_555
O41 P9 1.520293 1_555
O42 P5 1.527246 1_555
O43 Si1 1.614767 1_555
O44 P6 1.533012 1_555
O45 Si2 1.694766 1_555
O45 Ta1 1.946458 1_655
O46 P7 1.611674 1_555
O46 Ta1 2.057129 1_645
O47 P8 1.587121 1_555
O47 Ta1 2.016018 1_545
O48 Si0 1.717576 1_545
O48 Ta2 1.921318 1_555
O49 P3 1.596771 1_555
O49 Ta2 2.017842 1_555
O50 P4 1.564929 1_555
O50 Ta2 2.040010 1_555
O51 P1 1.512714 1_555
O52 P2 1.533934 1_655
O53 P0 1.509960 1_555
O54 P9 1.610334 1_555
O54 Ta3 2.035190 1_555
O55 P10 1.623539 1_655
O55 Ta3 2.039724 1_555
O56 P11 1.580474 1_545
O56 Ta3 2.046948 1_555
O57 P12 1.496730 1_545
O58 P13 1.497312 1_555
O59 P14 1.496318 1_655
O60 P8 1.524836 1_555
O61 Si2 1.591586 1_455
O62 P7 1.511087 1_565
O63 Si1 1.704547 1_565
O63 Ta4 1.997312 1_555
O64 P6 1.604168 1_555
O64 Ta4 2.080251 1_555
O65 P5 1.595189 1_455
O65 Ta4 2.100857 1_555
O66 P0 1.531633 1_565
O67 P1 1.517239 1_555
O68 P2 1.514340 1_555
O69 P3 1.577203 1_555
O69 Ta5 2.005683 1_555
O70 P4 1.600107 1_455
O70 Ta5 2.037275 1_555
O71 Si0 1.719229 1_555
O71 Ta5 1.928504 1_555
