# generated using pymatgen
data_SrGePt
_symmetry_space_group_name_H-M   'P 1'
_cell_length_a   6.63130121
_cell_length_b   6.63130121
_cell_length_c   6.63130121
_cell_angle_alpha   90.00000000
_cell_angle_beta   90.00000000
_cell_angle_gamma   90.00000000
_symmetry_Int_Tables_number   1
_chemical_formula_structural   SrGePt
_chemical_formula_sum   'Sr4 Ge4 Pt4'
_cell_volume   291.60587215
_cell_formula_units_Z   4
loop_
 _symmetry_equiv_pos_site_id
 _symmetry_equiv_pos_as_xyz
  1  'x, y, z'
loop_
 _atom_site_type_symbol
 _atom_site_label
 _atom_site_symmetry_multiplicity
 _atom_site_fract_x
 _atom_site_fract_y
 _atom_site_fract_z
 _atom_site_occupancy
  Sr  Sr0  1  0.13306182  0.13306182  0.13306182  1
  Sr  Sr1  1  0.36693818  0.86693818  0.63306182  1
  Sr  Sr2  1  0.63306182  0.36693818  0.86693818  1
  Sr  Sr3  1  0.86693818  0.63306182  0.36693818  1
  Ge  Ge0  1  0.16462085  0.33537915  0.66462085  1
  Ge  Ge1  1  0.33537915  0.66462085  0.16462085  1
  Ge  Ge2  1  0.66462085  0.16462085  0.33537915  1
  Ge  Ge3  1  0.83537915  0.83537915  0.83537915  1
  Pt  Pt0  1  0.58382903  0.91617097  0.08382903  1
  Pt  Pt1  1  0.91617097  0.08382903  0.58382903  1
  Pt  Pt2  1  0.08382903  0.58382903  0.91617097  1
  Pt  Pt3  1  0.41617097  0.41617097  0.41617097  1
loop_
_geom_bond_atom_site_label_1
_geom_bond_atom_site_label_2
_geom_bond_distance
_geom_bond_site_symmetry_2
Ge0 Pt2 2.404998 1_555
Ge0 Pt3 2.404998 1_555
Ge0 Pt1 2.404998 1_455
Ge0 Sr2 3.390179 1_555
Ge0 Sr1 3.390179 1_545
Ge0 Sr0 3.390179 1_556
Ge0 Sr3 3.419109 1_455
Ge1 Pt0 2.404998 1_555
Ge1 Pt2 2.404998 1_554
Ge1 Pt3 2.404998 1_555
Ge1 Sr1 3.390179 1_555
Ge1 Sr3 3.390179 1_455
Ge1 Sr0 3.390179 1_565
Ge1 Sr2 3.419109 1_554
Ge2 Pt1 2.404998 1_555
Ge2 Pt0 2.404998 1_545
Ge2 Pt3 2.404998 1_555
Ge2 Sr2 3.390179 1_554
Ge2 Sr3 3.390179 1_555
Ge2 Sr0 3.390179 1_655
Ge2 Sr1 3.419109 1_545
Ge3 Pt0 2.404998 1_556
Ge3 Pt1 2.404998 1_565
Ge3 Pt2 2.404998 1_655
Ge3 Sr1 3.390179 1_555
Ge3 Sr2 3.390179 1_555
Ge3 Sr3 3.390179 1_555
Ge3 Sr0 3.419109 1_666
Pt0 Sr3 3.251721 1_555
Pt0 Sr2 3.333221 1_564
Pt0 Sr0 3.333221 1_565
Pt0 Sr1 3.333221 1_554
Pt1 Sr2 3.251721 1_555
Pt1 Sr3 3.333221 1_545
Pt1 Sr0 3.333221 1_655
Pt1 Sr1 3.333221 1_645
Pt2 Sr1 3.251721 1_555
Pt2 Sr2 3.333221 1_455
Pt2 Sr3 3.333221 1_456
Pt2 Sr0 3.333221 1_556
Pt3 Sr0 3.251721 1_555
Pt3 Sr3 3.333221 1_555
Pt3 Sr1 3.333221 1_555
Pt3 Sr2 3.333221 1_555
