# generated using pymatgen
data_LiV3O4
_symmetry_space_group_name_H-M   'P 1'
_cell_length_a   5.19847726
_cell_length_b   5.73557712
_cell_length_c   5.90885593
_cell_angle_alpha   119.05721828
_cell_angle_beta   74.88435141
_cell_angle_gamma   90.01800587
_symmetry_Int_Tables_number   1
_chemical_formula_structural   LiV3O4
_chemical_formula_sum   'Li2 V6 O8'
_cell_volume   147.00126808
_cell_formula_units_Z   2
loop_
 _symmetry_equiv_pos_site_id
 _symmetry_equiv_pos_as_xyz
  1  'x, y, z'
loop_
 _atom_site_type_symbol
 _atom_site_label
 _atom_site_symmetry_multiplicity
 _atom_site_fract_x
 _atom_site_fract_y
 _atom_site_fract_z
 _atom_site_occupancy
  Li  Li0  1  -0.00121061  0.00038227  0.49989860  1
  Li  Li1  1  0.00116935  0.50062164  0.50037456  1
  V  V0  1  0.00001292  0.00037582  0.00002095  1
  V  V1  1  0.49917730  0.25023817  0.49848555  1
  V  V2  1  0.50087386  0.75177609  0.50150970  1
  V  V3  1  0.50003774  0.77920392  -0.00001840  1
  V  V4  1  0.50000836  0.21748600  0.00001135  1
  V  V5  1  0.00001410  0.50120619  0.00001613  1
  O  O0  1  0.72434758  0.38451957  0.77270488  1
  O  O1  1  0.76763879  0.86666738  0.73406053  1
  O  O2  1  0.27570071  0.61181075  0.22728384  1
  O  O3  1  0.23241292  0.13254726  0.26593881  1
  O  O4  1  0.25393363  0.12703696  0.75320611  1
  O  O5  1  0.24945279  0.62571475  0.74963621  1
  O  O6  1  0.75058313  0.87610798  0.25037548  1
  O  O7  1  0.74605844  0.37391525  0.24683569  1
loop_
_geom_bond_atom_site_label_1
_geom_bond_atom_site_label_2
_geom_bond_distance
_geom_bond_site_symmetry_2
Li0 O3 2.025452 1_555
Li0 O1 2.027216 1_445
Li0 O6 2.077866 1_445
Li0 O4 2.122695 1_555
Li0 O0 2.200195 1_455
Li0 O2 2.222487 1_545
Li1 O1 2.024757 1_455
Li1 O3 2.028115 1_555
Li1 O5 2.077099 1_555
Li1 O7 2.123514 1_455
Li1 O2 2.201207 1_555
Li1 O0 2.221773 1_455
O0 V1 2.089305 1_555
O0 V5 2.106099 1_656
O0 V4 2.124656 1_556
O0 V3 2.125951 1_556
O1 V4 2.060074 1_566
O1 V3 2.069070 1_556
O1 V0 2.082274 1_666
O1 V2 2.087879 1_555
O2 V2 2.089331 1_555
O2 V5 2.106031 1_555
O2 V4 2.124384 1_555
O2 V3 2.126197 1_555
O3 V4 2.060265 1_555
O3 V3 2.068878 1_545
O3 V0 2.082200 1_555
O3 V1 2.087854 1_555
O4 V4 2.066373 1_556
O4 V2 2.094994 1_545
O4 V0 2.102766 1_556
O4 V1 2.102810 1_555
O4 V5 2.105355 1_556
O5 V3 2.097480 1_556
O5 V0 2.097872 1_566
O5 V5 2.098899 1_556
O5 V2 2.100083 1_555
O5 V1 2.101917 1_555
O6 V3 2.097648 1_555
O6 V0 2.097831 1_665
O6 V5 2.098787 1_655
O6 V1 2.099687 1_565
O6 V2 2.101979 1_555
O7 V4 2.066217 1_555
O7 V1 2.095258 1_555
O7 V2 2.102263 1_555
O7 V0 2.102971 1_655
O7 V5 2.105332 1_655
