# generated using pymatgen
data_Mg2SiO4
_symmetry_space_group_name_H-M   'P 1'
_cell_length_a   4.75094062
_cell_length_b   5.96986766
_cell_length_c   10.18288019
_cell_angle_alpha   90.00000000
_cell_angle_beta   90.00000000
_cell_angle_gamma   90.00000000
_symmetry_Int_Tables_number   1
_chemical_formula_structural   Mg2SiO4
_chemical_formula_sum   'Mg8 Si4 O16'
_cell_volume   288.81180459
_cell_formula_units_Z   4
loop_
 _symmetry_equiv_pos_site_id
 _symmetry_equiv_pos_as_xyz
  1  'x, y, z'
loop_
 _atom_site_type_symbol
 _atom_site_label
 _atom_site_symmetry_multiplicity
 _atom_site_fract_x
 _atom_site_fract_y
 _atom_site_fract_z
 _atom_site_occupancy
  Mg  Mg0  1  -0.00000000  0.00000000  0.00000000  1
  Mg  Mg1  1  0.50000000  0.00000000  0.50000000  1
  Mg  Mg2  1  -0.00000000  0.50000000  0.00000000  1
  Mg  Mg3  1  0.50000000  0.50000000  0.50000000  1
  Mg  Mg4  1  0.00827624  0.75000000  0.72289476  1
  Mg  Mg5  1  0.50827624  0.25000000  0.77710524  1
  Mg  Mg6  1  0.99172376  0.25000000  0.27710524  1
  Mg  Mg7  1  0.49172376  0.75000000  0.22289476  1
  Si  Si0  1  0.92632995  0.75000000  0.40614215  1
  Si  Si1  1  0.42632995  0.25000000  0.09385785  1
  Si  Si2  1  0.07367005  0.25000000  0.59385785  1
  Si  Si3  1  0.57367005  0.75000000  0.90614215  1
  O  O0  1  0.27682257  0.46774158  0.16306021  1
  O  O1  1  0.77682257  0.53225842  0.33693979  1
  O  O2  1  0.72317743  0.96774158  0.83693979  1
  O  O3  1  0.22317743  0.03225842  0.66306021  1
  O  O4  1  0.72317743  0.53225842  0.83693979  1
  O  O5  1  0.22317743  0.46774158  0.66306021  1
  O  O6  1  0.27682257  0.03225842  0.16306021  1
  O  O7  1  0.77682257  0.96774158  0.33693979  1
  O  O8  1  0.77827183  0.75000000  0.55357236  1
  O  O9  1  0.27827183  0.25000000  0.94642764  1
  O  O10  1  0.22172817  0.25000000  0.44642764  1
  O  O11  1  0.72172817  0.75000000  0.05357236  1
  O  O12  1  0.26655181  0.75000000  0.40850370  1
  O  O13  1  0.76655181  0.25000000  0.09149630  1
  O  O14  1  0.73344819  0.25000000  0.59149630  1
  O  O15  1  0.23344819  0.75000000  0.90850370  1
loop_
_geom_bond_atom_site_label_1
_geom_bond_atom_site_label_2
_geom_bond_distance
_geom_bond_site_symmetry_2
Mg0 O9 2.067093 1_554
Mg0 O11 2.067093 1_445
Mg0 O15 2.079811 1_544
Mg0 O13 2.079811 1_455
Mg0 O2 2.126912 1_444
Mg0 O6 2.126912 1_555
Mg1 O8 2.067093 1_545
Mg1 O10 2.067093 1_555
Mg1 O12 2.079811 1_545
Mg1 O14 2.079811 1_555
Mg1 O7 2.126912 1_545
Mg1 O3 2.126912 1_555
Mg2 O11 2.067093 1_455
Mg2 O9 2.067093 1_554
Mg2 O15 2.079811 1_554
Mg2 O13 2.079811 1_455
Mg2 O4 2.126912 1_454
Mg2 O0 2.126912 1_555
Mg3 O8 2.067093 1_555
Mg3 O10 2.067093 1_555
Mg3 O12 2.079811 1_555
Mg3 O14 2.079811 1_555
Mg3 O1 2.126912 1_555
Mg3 O5 2.126912 1_555
Mg4 O8 2.041300 1_455
Mg4 O3 2.062284 1_565
Mg4 O5 2.062284 1_555
Mg4 O15 2.171786 1_555
Mg4 O2 2.207483 1_455
Mg4 O4 2.207483 1_455
Mg5 O9 2.041300 1_555
Mg5 O2 2.062284 1_545
Mg5 O4 2.062284 1_555
Mg5 O14 2.171786 1_555
Mg5 O5 2.207483 1_555
Mg5 O3 2.207483 1_555
Mg6 O10 2.041300 1_655
Mg6 O7 2.062284 1_545
Mg6 O1 2.062284 1_555
Mg6 O13 2.171786 1_555
Mg6 O0 2.207483 1_655
Mg6 O6 2.207483 1_655
Mg7 O11 2.041300 1_555
Mg7 O0 2.062284 1_555
Mg7 O6 2.062284 1_565
Mg7 O12 2.171786 1_555
Mg7 O7 2.207483 1_555
Mg7 O1 2.207483 1_555
O0 Si1 1.640369 1_555
O1 Si0 1.640369 1_555
O2 Si3 1.640369 1_555
O3 Si2 1.640369 1_555
O4 Si3 1.640369 1_555
O5 Si2 1.640369 1_555
O6 Si1 1.640369 1_555
O7 Si0 1.640369 1_555
O8 Si0 1.657886 1_555
O9 Si1 1.657886 1_556
O10 Si2 1.657886 1_555
O11 Si3 1.657886 1_554
O12 Si0 1.616553 1_455
O13 Si1 1.616553 1_555
O14 Si2 1.616553 1_655
O15 Si3 1.616553 1_555
