# generated using pymatgen
data_Hg(AuF4)2
_symmetry_space_group_name_H-M   'P 1'
_cell_length_a   5.75104176
_cell_length_b   5.75104176
_cell_length_c   10.46000474
_cell_angle_alpha   90.00000000
_cell_angle_beta   90.00000000
_cell_angle_gamma   90.00000000
_symmetry_Int_Tables_number   1
_chemical_formula_structural   Hg(AuF4)2
_chemical_formula_sum   'Hg2 Au4 F16'
_cell_volume   345.95923144
_cell_formula_units_Z   2
loop_
 _symmetry_equiv_pos_site_id
 _symmetry_equiv_pos_as_xyz
  1  'x, y, z'
loop_
 _atom_site_type_symbol
 _atom_site_label
 _atom_site_symmetry_multiplicity
 _atom_site_fract_x
 _atom_site_fract_y
 _atom_site_fract_z
 _atom_site_occupancy
  Hg  Hg0  1  0.00000000  0.00000000  0.75000000  1
  Hg  Hg1  1  0.00000000  0.00000000  0.25000000  1
  Au  Au0  1  0.50000000  0.00000000  0.50000000  1
  Au  Au1  1  0.00000000  0.50000000  0.50000000  1
  Au  Au2  1  0.50000000  0.00000000  -0.00000000  1
  Au  Au3  1  0.00000000  0.50000000  -0.00000000  1
  F  F0  1  0.68639872  0.84289827  0.62882907  1
  F  F1  1  0.31360128  0.15710173  0.62882907  1
  F  F2  1  0.84289827  0.68639872  0.87117093  1
  F  F3  1  0.84289827  0.31360128  0.62882907  1
  F  F4  1  0.15710173  0.68639872  0.62882907  1
  F  F5  1  0.31360128  0.84289827  0.87117093  1
  F  F6  1  0.84289827  0.68639872  0.12882907  1
  F  F7  1  0.31360128  0.84289827  0.12882907  1
  F  F8  1  0.68639872  0.15710173  0.12882907  1
  F  F9  1  0.84289827  0.31360128  0.37117093  1
  F  F10  1  0.15710173  0.68639872  0.37117093  1
  F  F11  1  0.15710173  0.31360128  0.12882907  1
  F  F12  1  0.68639872  0.84289827  0.37117093  1
  F  F13  1  0.31360128  0.15710173  0.37117093  1
  F  F14  1  0.15710173  0.31360128  0.87117093  1
  F  F15  1  0.68639872  0.15710173  0.87117093  1
loop_
_geom_bond_atom_site_label_1
_geom_bond_atom_site_label_2
_geom_bond_distance
_geom_bond_site_symmetry_2
Au0 F1 1.944573 1_555
Au0 F13 1.944573 1_555
Au0 F12 1.944573 1_545
Au0 F0 1.944573 1_545
Au1 F10 1.944573 1_555
Au1 F4 1.944573 1_555
Au1 F9 1.944573 1_455
Au1 F3 1.944573 1_455
Au2 F8 1.944573 1_555
Au2 F15 1.944573 1_554
Au2 F5 1.944573 1_544
Au2 F7 1.944573 1_545
Au3 F14 1.944573 1_554
Au3 F11 1.944573 1_555
Au3 F6 1.944573 1_455
Au3 F2 1.944573 1_454
F0 Hg0 2.382325 1_665
F1 Hg0 2.382325 1_555
F2 Hg0 2.382325 1_665
F3 Hg0 2.382325 1_655
F4 Hg0 2.382325 1_565
F5 Hg0 2.382325 1_565
F6 Hg1 2.382325 1_665
F7 Hg1 2.382325 1_565
F8 Hg1 2.382325 1_655
F9 Hg1 2.382325 1_655
F10 Hg1 2.382325 1_565
F11 Hg1 2.382325 1_555
F12 Hg1 2.382325 1_665
F13 Hg1 2.382325 1_555
F14 Hg0 2.382325 1_555
F15 Hg0 2.382325 1_655
