# generated using pymatgen
data_VI3
_symmetry_space_group_name_H-M   'P 1'
_cell_length_a   10.42887207
_cell_length_b   10.94864842
_cell_length_c   3.69059330
_cell_angle_alpha   89.98358921
_cell_angle_beta   90.00732919
_cell_angle_gamma   119.41189071
_symmetry_Int_Tables_number   1
_chemical_formula_structural   VI3
_chemical_formula_sum   'V2 I6'
_cell_volume   367.08612942
_cell_formula_units_Z   2
loop_
 _symmetry_equiv_pos_site_id
 _symmetry_equiv_pos_as_xyz
  1  'x, y, z'
loop_
 _atom_site_type_symbol
 _atom_site_label
 _atom_site_symmetry_multiplicity
 _atom_site_fract_x
 _atom_site_fract_y
 _atom_site_fract_z
 _atom_site_occupancy
  V  V0  1  0.33077230  0.66513991  0.74996094  1
  V  V1  1  0.66949229  0.33498398  0.25005371  1
  I  I0  1  0.22324607  0.44515906  0.24983648  1
  I  I1  1  0.56394799  0.78419335  0.24992932  1
  I  I2  1  0.22158732  0.78450989  0.24999073  1
  I  I3  1  0.77722594  0.55493833  0.74972622  1
  I  I4  1  0.43619619  0.21622565  0.75003268  1
  I  I5  1  0.77753189  0.21484983  0.75046991  1
loop_
_geom_bond_atom_site_label_1
_geom_bond_atom_site_label_2
_geom_bond_distance
_geom_bond_site_symmetry_2
I0 V0 2.794112 1_554
I0 V0 2.795440 1_555
I1 V0 2.811441 1_554
I1 V0 2.811513 1_555
I2 V0 2.805195 1_555
I2 V0 2.806023 1_554
I3 V1 2.794099 1_555
I3 V1 2.794974 1_556
I4 V1 2.812063 1_555
I4 V1 2.812245 1_556
I5 V1 2.802945 1_556
I5 V1 2.804281 1_555
