# generated using pymatgen
data_NaZr3Ta(PO4)6
_symmetry_space_group_name_H-M   'P 1'
_cell_length_a   8.87370465
_cell_length_b   8.87370435
_cell_length_c   23.11238856
_cell_angle_alpha   90.00000000
_cell_angle_beta   90.00000000
_cell_angle_gamma   120.00000108
_symmetry_Int_Tables_number   1
_chemical_formula_structural   NaZr3Ta(PO4)6
_chemical_formula_sum   'Na3 Zr9 Ta3 P18 O72'
_cell_volume   1576.10585308
_cell_formula_units_Z   3
loop_
 _symmetry_equiv_pos_site_id
 _symmetry_equiv_pos_as_xyz
  1  'x, y, z'
loop_
 _atom_site_type_symbol
 _atom_site_label
 _atom_site_symmetry_multiplicity
 _atom_site_fract_x
 _atom_site_fract_y
 _atom_site_fract_z
 _atom_site_occupancy
  Na  Na0  1  -0.00000000  0.00000000  0.99819104  1
  Na  Na1  1  0.66666700  0.33333300  0.83427106  1
  Na  Na2  1  0.66666700  0.33333300  0.33306900  1
  Zr  Zr0  1  -0.00000000  0.00000000  0.35946791  1
  Zr  Zr1  1  -0.00000000  0.00000000  0.85452094  1
  Zr  Zr2  1  0.66666700  0.33333300  0.68552213  1
  Zr  Zr3  1  0.66666700  0.33333300  0.18642883  1
  Zr  Zr4  1  0.66666700  0.33333300  0.98025811  1
  Zr  Zr5  1  0.66666700  0.33333300  0.48084452  1
  Zr  Zr6  1  0.33333300  0.66666700  0.02260992  1
  Zr  Zr7  1  0.33333300  0.66666700  0.30760937  1
  Zr  Zr8  1  0.33333300  0.66666700  0.80894122  1
  Ta  Ta0  1  -0.00000000  0.00000000  0.64532440  1
  Ta  Ta1  1  -0.00000000  0.00000000  0.14761016  1
  Ta  Ta2  1  0.33333300  0.66666700  0.52103047  1
  P  P0  1  0.28523318  0.00236535  0.25055234  1
  P  P1  1  0.71713217  0.71476682  0.25055234  1
  P  P2  1  0.99763465  0.28286783  0.25055234  1
  P  P3  1  0.28624019  0.28448513  0.74901206  1
  P  P4  1  0.99824494  0.71375981  0.74901206  1
  P  P5  1  0.71551487  0.00175506  0.74901206  1
  P  P6  1  0.96003944  0.33348020  0.58328639  1
  P  P7  1  0.37344176  0.03996056  0.58328639  1
  P  P8  1  0.66651980  0.62655824  0.58328639  1
  P  P9  1  0.95586736  0.62742152  0.08409280  1
  P  P10  1  0.67155516  0.04413264  0.08409280  1
  P  P11  1  0.37257848  0.32844484  0.08409280  1
  P  P12  1  0.62132339  0.66585293  0.91650878  1
  P  P13  1  0.04452855  0.37867661  0.91650878  1
  P  P14  1  0.33414707  0.95547145  0.91650878  1
  P  P15  1  0.61517657  0.95111314  0.41679026  1
  P  P16  1  0.33593557  0.38482343  0.41679026  1
  P  P17  1  0.04888686  0.66406443  0.41679026  1
  O  O0  1  0.20053100  0.03034434  0.30385318  1
  O  O1  1  0.82981335  0.79946900  0.30385318  1
  O  O2  1  0.96965566  0.17018665  0.30385318  1
  O  O3  1  0.20370587  0.17221439  0.80274921  1
  O  O4  1  0.96850853  0.79629413  0.80274921  1
  O  O5  1  0.82778561  0.03149147  0.80274921  1
  O  O6  1  0.81043705  0.98177166  0.69516054  1
  O  O7  1  0.17133461  0.18956295  0.69516054  1
  O  O8  1  0.01822834  0.82866539  0.69516054  1
  O  O9  1  0.80982827  0.82860342  0.19590788  1
  O  O10  1  0.01877515  0.19017173  0.19590788  1
  O  O11  1  0.17139658  0.98122485  0.19590788  1
  O  O12  1  0.87959880  0.36831753  0.63653911  1
  O  O13  1  0.48871973  0.12040120  0.63653911  1
  O  O14  1  0.63168247  0.51128027  0.63653911  1
  O  O15  1  0.87024319  0.51566072  0.13765036  1
  O  O16  1  0.64541853  0.12975681  0.13765036  1
  O  O17  1  0.48433928  0.35458147  0.13765036  1
  O  O18  1  0.45219640  0.29271037  0.03029161  1
  O  O19  1  0.84051497  0.54780360  0.03029161  1
  O  O20  1  0.70728963  0.15948503  0.03029161  1
  O  O21  1  0.45389358  0.15559959  0.53006156  1
  O  O22  1  0.70170700  0.54610642  0.53006156  1
  O  O23  1  0.84440041  0.29829300  0.53006156  1
  O  O24  1  0.53753127  0.69156193  0.97082931  1
  O  O25  1  0.15402966  0.46246873  0.97082931  1
  O  O26  1  0.30843807  0.84597034  0.97082931  1
  O  O27  1  0.52267353  0.83783264  0.47123993  1
  O  O28  1  0.31515811  0.47732647  0.47123993  1
  O  O29  1  0.16216736  0.68484189  0.47123993  1
  O  O30  1  0.13195515  0.63537665  0.36314334  1
  O  O31  1  0.50342050  0.86804485  0.36314334  1
  O  O32  1  0.36462335  0.49657950  0.36314334  1
  O  O33  1  0.12938811  0.48838954  0.86207685  1
  O  O34  1  0.35900043  0.87061189  0.86207685  1
  O  O35  1  0.51161046  0.64099957  0.86207685  1
  O  O36  1  0.03324709  0.82727997  0.41111369  1
  O  O37  1  0.79403288  0.96675291  0.41111369  1
  O  O38  1  0.17272003  0.20596712  0.41111369  1
  O  O39  1  0.02351919  0.19538955  0.91090478  1
  O  O40  1  0.17187036  0.97648081  0.91090478  1
  O  O41  1  0.80461045  0.82812964  0.91090478  1
  O  O42  1  0.98422696  0.17504841  0.59610764  1
  O  O43  1  0.19082145  0.01577304  0.59610764  1
  O  O44  1  0.82495159  0.80917855  0.59610764  1
  O  O45  1  0.97595604  0.81157560  0.09416529  1
  O  O46  1  0.83561956  0.02404396  0.09416529  1
  O  O47  1  0.18842440  0.16438044  0.09416529  1
  O  O48  1  0.69602499  0.16347651  0.74077292  1
  O  O49  1  0.46745251  0.30397501  0.74077292  1
  O  O50  1  0.83652349  0.53254749  0.74077292  1
  O  O51  1  0.69602145  0.53329131  0.24237066  1
  O  O52  1  0.83727086  0.30397855  0.24237066  1
  O  O53  1  0.46670869  0.16272914  0.24237066  1
  O  O54  1  0.64212408  0.50341958  0.92282859  1
  O  O55  1  0.86129649  0.35787592  0.92282859  1
  O  O56  1  0.49658042  0.13870351  0.92282859  1
  O  O57  1  0.63653340  0.13325937  0.42549450  1
  O  O58  1  0.49672696  0.36346660  0.42549450  1
  O  O59  1  0.86674063  0.50327304  0.42549450  1
  O  O60  1  0.34871172  0.48488817  0.07524816  1
  O  O61  1  0.13617544  0.65128828  0.07524816  1
  O  O62  1  0.51511183  0.86382456  0.07524816  1
  O  O63  1  0.34908655  0.85737187  0.57051084  1
  O  O64  1  0.50828431  0.65091345  0.57051084  1
  O  O65  1  0.14262813  0.49171569  0.57051084  1
  O  O66  1  0.29972963  0.83863833  0.25585760  1
  O  O67  1  0.53890770  0.70027037  0.25585760  1
  O  O68  1  0.16136167  0.46109230  0.25585760  1
  O  O69  1  0.30081956  0.46228812  0.75520213  1
  O  O70  1  0.16146756  0.69918044  0.75520213  1
  O  O71  1  0.53771188  0.83853244  0.75520213  1
loop_
_geom_bond_atom_site_label_1
_geom_bond_atom_site_label_2
_geom_bond_distance
_geom_bond_site_symmetry_2
Na0 O39 2.599566 1_555
Na0 O41 2.599566 1_445
Na0 O40 2.599566 1_545
Na0 O45 2.721181 1_446
Na0 O47 2.721181 1_556
Na0 O46 2.721181 1_456
Na1 O56 2.615991 1_555
Na1 O55 2.615991 1_555
Na1 O54 2.615991 1_555
Na1 O48 2.720684 1_555
Na1 O50 2.720684 1_555
Na1 O49 2.720684 1_555
Na2 O51 2.673637 1_555
Na2 O53 2.673637 1_555
Na2 O52 2.673637 1_555
Na2 O57 2.704077 1_555
Na2 O59 2.704077 1_555
Na2 O58 2.704077 1_555
O0 P0 1.526692 1_555
O0 Zr0 2.100485 1_555
O1 P1 1.526692 1_555
O1 Zr0 2.100484 1_665
O2 P2 1.526692 1_555
O2 Zr0 2.100484 1_655
O3 P3 1.530301 1_555
O3 Zr1 2.066940 1_555
O4 P4 1.530301 1_555
O4 Zr1 2.066940 1_665
O5 P5 1.530301 1_555
O5 Zr1 2.066940 1_655
O6 P5 1.561864 1_565
O6 Ta0 1.977458 1_665
O7 P3 1.561864 1_555
O7 Ta0 1.977458 1_555
O8 P4 1.561864 1_455
O8 Ta0 1.977458 1_565
O9 P1 1.568814 1_555
O9 Ta1 1.959701 1_665
O10 P2 1.568814 1_455
O10 Ta1 1.959701 1_555
O11 P0 1.568814 1_565
O11 Ta1 1.959701 1_565
O12 P6 1.529906 1_555
O12 Zr2 2.088460 1_555
O13 P7 1.529906 1_555
O13 Zr2 2.088460 1_555
O14 P8 1.529905 1_555
O14 Zr2 2.088460 1_555
O15 P9 1.529565 1_555
O15 Zr3 2.056524 1_555
O16 P10 1.529565 1_555
O16 Zr3 2.056524 1_555
O17 P11 1.529565 1_555
O17 Zr3 2.056524 1_555
O18 P11 1.539467 1_555
O18 Zr4 2.098363 1_554
O19 P9 1.539467 1_555
O19 Zr4 2.098363 1_554
O20 P10 1.539467 1_555
O20 Zr4 2.098363 1_554
O21 P7 1.530798 1_555
O21 Zr5 2.090083 1_555
O22 P8 1.530798 1_555
O22 Zr5 2.090083 1_555
O23 P6 1.530798 1_555
O23 Zr5 2.090083 1_555
O24 P12 1.533218 1_555
O24 Zr6 2.089044 1_556
O25 P13 1.533218 1_555
O25 Zr6 2.089044 1_556
O26 P14 1.533218 1_555
O26 Zr6 2.089044 1_556
O27 P15 1.562961 1_555
O27 Ta2 1.975409 1_555
O28 P16 1.562961 1_555
O28 Ta2 1.975409 1_555
O29 P17 1.562961 1_555
O29 Ta2 1.975409 1_555
O30 P17 1.527474 1_555
O30 Zr7 2.102762 1_555
O31 P15 1.527474 1_555
O31 Zr7 2.102762 1_555
O32 P16 1.527474 1_555
O32 Zr7 2.102762 1_555
O33 P13 1.537674 1_555
O33 Zr8 2.103110 1_555
O34 P14 1.537674 1_555
O34 Zr8 2.103110 1_555
O35 P12 1.537674 1_555
O35 Zr8 2.103110 1_555
O36 P17 1.528112 1_555
O36 Zr0 2.076800 1_565
O37 P15 1.528121 1_555
O37 Zr0 2.076800 1_665
O38 P16 1.528117 1_555
O38 Zr0 2.076800 1_555
O39 P13 1.547128 1_555
O39 Zr1 2.094303 1_555
O40 P14 1.547120 1_555
O40 Zr1 2.094303 1_565
O41 P12 1.547125 1_555
O41 Zr1 2.094303 1_665
O42 P6 1.553099 1_555
O42 Ta0 1.985894 1_655
O43 P7 1.553107 1_555
O43 Ta0 1.985894 1_555
O44 P8 1.553104 1_555
O44 Ta0 1.985894 1_665
O45 P9 1.570047 1_555
O45 Ta1 2.002562 1_665
O46 P10 1.570039 1_555
O46 Ta1 2.002562 1_655
O47 P11 1.570044 1_555
O47 Ta1 2.002562 1_555
O48 P5 1.540709 1_555
O48 Zr2 2.088785 1_555
O49 P3 1.540718 1_555
O49 Zr2 2.088785 1_555
O50 P4 1.540714 1_555
O50 Zr2 2.088785 1_555
O51 P1 1.537023 1_555
O51 Zr3 2.103751 1_555
O52 P2 1.537015 1_555
O52 Zr3 2.103751 1_555
O53 P0 1.537020 1_555
O53 Zr3 2.103751 1_555
O54 P12 1.548886 1_555
O54 Zr4 2.101412 1_555
O55 P13 1.548868 1_655
O55 Zr4 2.101411 1_555
O56 P14 1.548875 1_545
O56 Zr4 2.101411 1_555
O57 P15 1.543547 1_545
O57 Zr5 2.094117 1_555
O58 P16 1.543564 1_555
O58 Zr5 2.094117 1_555
O59 P17 1.543554 1_655
O59 Zr5 2.094117 1_555
O60 P11 1.519157 1_555
O60 Zr6 2.078651 1_555
O61 P9 1.519139 1_455
O61 Zr6 2.078651 1_555
O62 P10 1.519146 1_565
O62 Zr6 2.078651 1_555
O63 P7 1.552063 1_565
O63 Ta2 1.988607 1_555
O64 P8 1.552080 1_555
O64 Ta2 1.988607 1_555
O65 P6 1.552070 1_455
O65 Ta2 1.988607 1_555
O66 P0 1.526202 1_565
O66 Zr7 2.074457 1_555
O67 P1 1.526211 1_555
O67 Zr7 2.074457 1_555
O68 P2 1.526207 1_455
O68 Zr7 2.074457 1_555
O69 P3 1.523957 1_555
O69 Zr8 2.095659 1_555
O70 P4 1.523949 1_455
O70 Zr8 2.095659 1_555
O71 P5 1.523954 1_565
O71 Zr8 2.095659 1_555
