# generated using pymatgen
data_Na3CaLaP2SO12
_symmetry_space_group_name_H-M   'P 1'
_cell_length_a   9.52512062
_cell_length_b   9.50057308
_cell_length_c   23.94861284
_cell_angle_alpha   88.86057036
_cell_angle_beta   90.00000000
_cell_angle_gamma   120.08550813
_symmetry_Int_Tables_number   1
_chemical_formula_structural   Na3CaLaP2SO12
_chemical_formula_sum   'Na18 Ca6 La6 P12 S6 O72'
_cell_volume   1874.74288972
_cell_formula_units_Z   6
loop_
 _symmetry_equiv_pos_site_id
 _symmetry_equiv_pos_as_xyz
  1  'x, y, z'
loop_
 _atom_site_type_symbol
 _atom_site_label
 _atom_site_symmetry_multiplicity
 _atom_site_fract_x
 _atom_site_fract_y
 _atom_site_fract_z
 _atom_site_occupancy
  Na  Na0  1  0.35314742  0.34510077  0.24459050  1
  Na  Na1  1  0.00379609  0.63175300  0.24132871  1
  Na  Na2  1  0.62795691  0.63175300  0.74132871  1
  Na  Na3  1  0.99195335  0.34510077  0.74459050  1
  Na  Na4  1  0.01981442  0.67843377  0.57792350  1
  Na  Na5  1  0.67046309  0.96508600  0.57466171  1
  Na  Na6  1  0.29462391  0.96508600  0.07466171  1
  Na  Na7  1  0.65862035  0.67843377  0.07792350  1
  Na  Na8  1  0.68648042  0.01176777  0.91125750  1
  Na  Na9  1  0.33712909  0.29842000  0.90799571  1
  Na  Na10  1  0.96128991  0.29842000  0.40799571  1
  Na  Na11  1  0.32528635  0.01176777  0.41125750  1
  Na  Na12  1  0.96441910  0.97290817  0.49037489  1
  Na  Na13  1  0.00848906  0.97290817  0.99037489  1
  Na  Na14  1  0.63108610  0.30624117  0.82370789  1
  Na  Na15  1  0.67515606  0.30624117  0.32370789  1
  Na  Na16  1  0.29775210  0.63957517  0.15704189  1
  Na  Na17  1  0.34182206  0.63957517  0.65704189  1
  Ca  Ca0  1  0.98421063  0.99055863  0.34788679  1
  Ca  Ca1  1  0.00634800  0.99055863  0.84788679  1
  Ca  Ca2  1  0.65087763  0.32389163  0.68121979  1
  Ca  Ca3  1  0.67301500  0.32389163  0.18121979  1
  Ca  Ca4  1  0.31754363  0.65722563  0.01455379  1
  Ca  Ca5  1  0.33968100  0.65722563  0.51455379  1
  La  La0  1  0.01770253  0.02112611  0.65246018  1
  La  La1  1  0.00342357  0.02112611  0.15246018  1
  La  La2  1  0.68436953  0.35445911  0.98579318  1
  La  La3  1  0.67009057  0.35445911  0.48579318  1
  La  La4  1  0.35103553  0.68779311  0.31912718  1
  La  La5  1  0.33675657  0.68779311  0.81912718  1
  P  P0  1  0.30258581  0.00871027  0.25202825  1
  P  P1  1  0.00395895  0.31706246  0.25703960  1
  P  P2  1  0.31310351  0.31706246  0.75703960  1
  P  P3  1  0.70612447  0.00871027  0.75202825  1
  P  P4  1  0.96925281  0.34204327  0.58536125  1
  P  P5  1  0.67062595  0.65039546  0.59037260  1
  P  P6  1  0.97977051  0.65039546  0.09037260  1
  P  P7  1  0.37279147  0.34204327  0.08536125  1
  P  P8  1  0.63591881  0.67537727  0.91869525  1
  P  P9  1  0.33729195  0.98372946  0.92370660  1
  P  P10  1  0.64643651  0.98372946  0.42370660  1
  P  P11  1  0.03945747  0.67537727  0.41869525  1
  S  S0  1  0.69490335  0.68223248  0.24752994  1
  S  S1  1  0.98732914  0.68223248  0.74752994  1
  S  S2  1  0.36157035  0.01556548  0.58086294  1
  S  S3  1  0.65399614  0.01556548  0.08086294  1
  S  S4  1  0.02823635  0.34889948  0.91419694  1
  S  S5  1  0.32066214  0.34889948  0.41419694  1
  O  O0  1  0.21171336  0.01599572  0.30442007  1
  O  O1  1  0.79361633  0.77883552  0.29477606  1
  O  O2  1  0.99196360  0.22470964  0.31196716  1
  O  O3  1  0.23274604  0.22470964  0.81196716  1
  O  O4  1  0.98521919  0.77883552  0.79477606  1
  O  O5  1  0.80428236  0.01599572  0.80442007  1
  O  O6  1  0.79450341  0.99407545  0.69912937  1
  O  O7  1  0.20793998  0.22074377  0.70643542  1
  O  O8  1  0.00926793  0.77347860  0.69402523  1
  O  O9  1  0.76421067  0.77347860  0.19402523  1
  O  O10  1  0.01280379  0.22074377  0.20643542  1
  O  O11  1  0.19957204  0.99407545  0.19912937  1
  O  O12  1  0.87838036  0.34932872  0.63775307  1
  O  O13  1  0.46028333  0.11216852  0.62810906  1
  O  O14  1  0.65863060  0.55804264  0.64530016  1
  O  O15  1  0.89941304  0.55804264  0.14530016  1
  O  O16  1  0.65188619  0.11216852  0.12810906  1
  O  O17  1  0.47094936  0.34932872  0.13775307  1
  O  O18  1  0.46117041  0.32740845  0.03246237  1
  O  O19  1  0.87460698  0.55407677  0.03976842  1
  O  O20  1  0.67593493  0.10681160  0.02735823  1
  O  O21  1  0.43087767  0.10681160  0.52735823  1
  O  O22  1  0.67947079  0.55407677  0.53976842  1
  O  O23  1  0.86623904  0.32740845  0.53246237  1
  O  O24  1  0.54504636  0.68266272  0.97108707  1
  O  O25  1  0.12694933  0.44550252  0.96144306  1
  O  O26  1  0.32529660  0.89137664  0.97863416  1
  O  O27  1  0.56607904  0.89137664  0.47863416  1
  O  O28  1  0.31855219  0.44550252  0.46144306  1
  O  O29  1  0.13761536  0.68266272  0.47108707  1
  O  O30  1  0.12783641  0.66074245  0.36579637  1
  O  O31  1  0.54127298  0.88741077  0.37310242  1
  O  O32  1  0.34260093  0.44014560  0.36069223  1
  O  O33  1  0.09754367  0.44014560  0.86069223  1
  O  O34  1  0.34613679  0.88741077  0.87310242  1
  O  O35  1  0.53290504  0.66074245  0.86579637  1
  O  O36  1  0.02945278  0.83303088  0.41504170  1
  O  O37  1  0.82181767  0.01488786  0.41877661  1
  O  O38  1  0.16619927  0.19019883  0.41483407  1
  O  O39  1  0.02399956  0.19019883  0.91483407  1
  O  O40  1  0.19307019  0.01488786  0.91877661  1
  O  O41  1  0.80357811  0.83303088  0.91504170  1
  O  O42  1  0.98301079  0.18485682  0.58586663  1
  O  O43  1  0.19004985  0.98023959  0.58517552  1
  O  O44  1  0.83342699  0.81949542  0.58631332  1
  O  O45  1  0.98606843  0.81949542  0.08631332  1
  O  O46  1  0.79018975  0.98023959  0.08517552  1
  O  O47  1  0.20184603  0.18485682  0.08586663  1
  O  O48  1  0.69611978  0.16636388  0.74837470  1
  O  O49  1  0.48848467  0.34822086  0.75210961  1
  O  O50  1  0.83286627  0.52353183  0.74816707  1
  O  O51  1  0.69066656  0.52353183  0.24816707  1
  O  O52  1  0.85973719  0.34822086  0.25210961  1
  O  O53  1  0.47024511  0.16636388  0.24837470  1
  O  O54  1  0.64967779  0.51818982  0.91919963  1
  O  O55  1  0.85671685  0.31357259  0.91850852  1
  O  O56  1  0.50009399  0.15282842  0.91964632  1
  O  O57  1  0.65273543  0.15282842  0.41964632  1
  O  O58  1  0.45685675  0.31357259  0.41850852  1
  O  O59  1  0.86851303  0.51818982  0.41919963  1
  O  O60  1  0.36278578  0.49969788  0.08170870  1
  O  O61  1  0.15515067  0.68155486  0.08544361  1
  O  O62  1  0.49953227  0.85686583  0.08150107  1
  O  O63  1  0.35733256  0.85686583  0.58150107  1
  O  O64  1  0.52640319  0.68155486  0.58544361  1
  O  O65  1  0.13691111  0.49969788  0.58170870  1
  O  O66  1  0.31634379  0.85152382  0.25253363  1
  O  O67  1  0.52338285  0.64690659  0.25184252  1
  O  O68  1  0.16675999  0.48616242  0.25298032  1
  O  O69  1  0.31940143  0.48616242  0.75298032  1
  O  O70  1  0.12352275  0.64690659  0.75184252  1
  O  O71  1  0.53517903  0.85152382  0.75253363  1
loop_
_geom_bond_atom_site_label_1
_geom_bond_atom_site_label_2
_geom_bond_distance
_geom_bond_site_symmetry_2
Na0 O53 2.455321 1_555
Na0 O67 2.497883 1_555
Na0 O68 2.717438 1_555
Na0 O17 2.785296 1_555
Na0 O51 2.785402 1_555
Na0 O32 2.957585 1_555
Na0 O10 2.990507 1_555
Na1 O52 2.339269 1_455
Na1 O15 2.476650 1_455
Na1 O68 2.556919 1_555
Na1 O51 2.626520 1_455
Na1 O66 2.661706 1_555
Na2 O49 2.339269 1_555
Na2 O14 2.476652 1_555
Na2 O69 2.556927 1_555
Na2 O50 2.626529 1_555
Na2 O71 2.661712 1_555
Na3 O48 2.455313 1_555
Na3 O70 2.497884 1_655
Na3 O69 2.717429 1_655
Na3 O12 2.785292 1_555
Na3 O50 2.785394 1_555
Na3 O33 2.957583 1_655
Na3 O7 2.990507 1_655
Na4 O65 2.455305 1_555
Na4 O43 2.497883 1_555
Na4 O44 2.717438 1_455
Na4 O29 2.785268 1_555
Na4 O63 2.785395 1_555
Na4 O8 2.957585 1_555
Na4 O22 2.990507 1_455
Na5 O64 2.339263 1_555
Na5 O27 2.476629 1_555
Na5 O44 2.556919 1_555
Na5 O63 2.626532 1_555
Na5 O42 2.661706 1_565
Na6 O61 2.339263 1_555
Na6 O26 2.476624 1_554
Na6 O45 2.556927 1_455
Na6 O62 2.626514 1_555
Na6 O47 2.661712 1_565
Na7 O60 2.455320 1_555
Na7 O46 2.497884 1_555
Na7 O45 2.717429 1_555
Na7 O24 2.785276 1_554
Na7 O62 2.785412 1_555
Na7 O9 2.957583 1_555
Na7 O19 2.990507 1_555
Na8 O41 2.455321 1_545
Na8 O55 2.497874 1_555
Na8 O56 2.717419 1_555
Na8 O5 2.785296 1_555
Na8 O39 2.785402 1_655
Na8 O20 2.957557 1_556
Na8 O34 2.990507 1_545
Na9 O40 2.339269 1_555
Na9 O3 2.476650 1_555
Na9 O56 2.556933 1_555
Na9 O39 2.626520 1_555
Na9 O54 2.661708 1_555
Na10 O37 2.339269 1_555
Na10 O2 2.476652 1_555
Na10 O57 2.556916 1_555
Na10 O38 2.626529 1_655
Na10 O59 2.661694 1_555
Na11 O36 2.455313 1_545
Na11 O58 2.497873 1_555
Na11 O57 2.717437 1_555
Na11 O0 2.785292 1_555
Na11 O38 2.785394 1_555
Na11 O21 2.957560 1_555
Na11 O31 2.990507 1_545
Na12 O37 2.336684 1_565
Na12 O36 2.515012 1_655
Na12 O44 2.646435 1_555
Na12 O38 2.664965 1_665
Na13 O40 2.336684 1_565
Na13 O41 2.515012 1_455
Na13 O45 2.646435 1_456
Na13 O39 2.664965 1_565
Na14 O49 2.336684 1_555
Na14 O48 2.515012 1_555
Na14 O56 2.646435 1_555
Na14 O50 2.664965 1_555
Na15 O52 2.336684 1_555
Na15 O53 2.515012 1_555
Na15 O57 2.646435 1_555
Na15 O51 2.664965 1_555
Na16 O61 2.336684 1_555
Na16 O60 2.515012 1_555
Na16 O68 2.646435 1_555
Na16 O62 2.664965 1_555
Na17 O64 2.336684 1_555
Na17 O65 2.515012 1_555
Na17 O69 2.646435 1_555
Na17 O63 2.664965 1_555
Ca0 O0 2.302785 1_665
Ca0 O1 2.323852 1_555
Ca0 O2 2.335238 1_565
Ca0 O36 2.358587 1_655
Ca0 O37 2.387959 1_565
Ca0 O38 2.448979 1_665
Ca1 O5 2.302785 1_465
Ca1 O4 2.323852 1_455
Ca1 O3 2.335238 1_565
Ca1 O41 2.358587 1_455
Ca1 O40 2.387959 1_565
Ca1 O39 2.448979 1_565
Ca2 O12 2.302785 1_555
Ca2 O13 2.323852 1_555
Ca2 O14 2.335238 1_555
Ca2 O48 2.358587 1_555
Ca2 O49 2.387959 1_555
Ca2 O50 2.448979 1_555
Ca3 O17 2.302785 1_555
Ca3 O16 2.323852 1_555
Ca3 O15 2.335238 1_555
Ca3 O53 2.358587 1_555
Ca3 O52 2.387959 1_555
Ca3 O51 2.448979 1_555
Ca4 O24 2.302785 1_554
Ca4 O25 2.323852 1_554
Ca4 O26 2.335238 1_554
Ca4 O60 2.358587 1_555
Ca4 O61 2.387959 1_555
Ca4 O62 2.448979 1_555
Ca5 O29 2.302785 1_555
Ca5 O28 2.323852 1_555
Ca5 O27 2.335238 1_555
Ca5 O65 2.358587 1_555
Ca5 O64 2.387959 1_555
Ca5 O63 2.448979 1_555
La0 O7 2.281039 1_555
La0 O6 2.296928 1_445
La0 O42 2.342867 1_455
La0 O44 2.451435 1_445
La0 O43 2.471151 1_545
La0 O8 2.500061 1_545
La1 O10 2.281039 1_555
La1 O11 2.296928 1_545
La1 O47 2.342867 1_555
La1 O45 2.451435 1_445
La1 O46 2.471151 1_445
La1 O9 2.500061 1_445
La2 O19 2.281039 1_556
La2 O18 2.296928 1_556
La2 O54 2.342867 1_555
La2 O56 2.451435 1_555
La2 O55 2.471151 1_555
La2 O20 2.500061 1_556
La3 O22 2.281039 1_555
La3 O23 2.296928 1_555
La3 O59 2.342867 1_555
La3 O57 2.451435 1_555
La3 O58 2.471151 1_555
La3 O21 2.500061 1_555
La4 O31 2.281039 1_555
La4 O30 2.296928 1_555
La4 O66 2.342867 1_555
La4 O68 2.451435 1_555
La4 O67 2.471151 1_555
La4 O32 2.500061 1_555
La5 O34 2.281039 1_555
La5 O35 2.296928 1_555
La5 O71 2.342867 1_555
La5 O69 2.451435 1_555
La5 O70 2.471151 1_555
La5 O33 2.500061 1_555
O0 P0 1.546553 1_555
O1 S0 1.477420 1_555
O2 P1 1.538461 1_655
O3 P2 1.538461 1_555
O4 S1 1.477420 1_555
O5 P3 1.546553 1_555
O6 P3 1.567567 1_565
O7 P2 1.560312 1_555
O8 S1 1.487031 1_455
O9 S0 1.487031 1_555
O10 P1 1.560312 1_555
O11 P0 1.567568 1_565
O12 P4 1.546553 1_555
O13 S2 1.477420 1_555
O14 P5 1.538461 1_555
O15 P6 1.538461 1_555
O16 S3 1.477420 1_555
O17 P7 1.546553 1_555
O18 P7 1.567567 1_555
O19 P6 1.560312 1_555
O20 S3 1.487031 1_555
O21 S2 1.487031 1_555
O22 P5 1.560312 1_555
O23 P4 1.567568 1_555
O24 P8 1.546553 1_555
O25 S4 1.477420 1_555
O26 P9 1.538461 1_555
O27 P10 1.538461 1_555
O28 S5 1.477420 1_555
O29 P11 1.546553 1_555
O30 P11 1.567567 1_555
O31 P10 1.560312 1_555
O32 S5 1.487031 1_555
O33 S4 1.487031 1_555
O34 P9 1.560312 1_555
O35 P8 1.567568 1_555
O36 P11 1.548558 1_555
O37 P10 1.547594 1_545
O38 S5 1.487693 1_555
O39 S4 1.487698 1_555
O40 P9 1.547585 1_545
O41 P8 1.548563 1_555
O42 P4 1.562989 1_555
O43 S2 1.497113 1_565
O44 P5 1.578351 1_555
O45 P6 1.578356 1_555
O46 S3 1.497103 1_565
O47 P7 1.562994 1_555
O48 P3 1.548558 1_555
O49 P2 1.547594 1_555
O50 S1 1.487693 1_555
O51 S0 1.487698 1_555
O52 P1 1.547585 1_655
O53 P0 1.548563 1_555
O54 P8 1.563004 1_555
O55 S4 1.497099 1_655
O56 P9 1.578352 1_545
O57 P10 1.578343 1_545
O58 S5 1.497117 1_555
O59 P11 1.562993 1_655
O60 P7 1.548572 1_555
O61 P6 1.547580 1_455
O62 S3 1.487692 1_565
O63 S2 1.487683 1_565
O64 P5 1.547598 1_555
O65 P4 1.548561 1_455
O66 P0 1.562989 1_565
O67 S0 1.497113 1_555
O68 P1 1.578351 1_555
O69 P2 1.578356 1_555
O70 S1 1.497103 1_455
O71 P3 1.562994 1_565
