# generated using pymatgen
data_MgMn4(AgO4)4
_symmetry_space_group_name_H-M   'P 1'
_cell_length_a   5.91051337
_cell_length_b   7.61102445
_cell_length_c   8.66082724
_cell_angle_alpha   87.21246027
_cell_angle_beta   86.69574042
_cell_angle_gamma   98.01126048
_symmetry_Int_Tables_number   1
_chemical_formula_structural   MgMn4(AgO4)4
_chemical_formula_sum   'Mg1 Mn4 Ag4 O16'
_cell_volume   384.53091095
_cell_formula_units_Z   1
loop_
 _symmetry_equiv_pos_site_id
 _symmetry_equiv_pos_as_xyz
  1  'x, y, z'
loop_
 _atom_site_type_symbol
 _atom_site_label
 _atom_site_symmetry_multiplicity
 _atom_site_fract_x
 _atom_site_fract_y
 _atom_site_fract_z
 _atom_site_occupancy
  Mg  Mg0  1  0.53506700  0.08517600  0.10194600  1
  Mn  Mn0  1  0.80711000  0.14341900  0.33705800  1
  Mn  Mn1  1  0.29136300  0.64012100  0.20405200  1
  Mn  Mn2  1  0.70634000  0.35168400  0.79514400  1
  Mn  Mn3  1  0.23060200  0.85557900  0.69697100  1
  Ag  Ag0  1  0.13390300  0.23282900  0.96017100  1
  Ag  Ag1  1  0.77069700  0.66098600  0.46801300  1
  Ag  Ag2  1  0.28714900  0.32497600  0.50959600  1
  Ag  Ag3  1  0.73577000  0.80036300  0.93066300  1
  O  O0  1  0.87246300  0.09922000  0.14565600  1
  O  O1  1  0.53591000  0.18844200  0.30875400  1
  O  O2  1  0.26888400  0.02867800  0.57747200  1
  O  O3  1  0.28310500  0.47491400  0.09049200  1
  O  O4  1  0.75881700  0.51192500  0.91235400  1
  O  O5  1  0.47653900  0.79829900  0.73731500  1
  O  O6  1  0.79638500  0.96332000  0.44827500  1
  O  O7  1  0.07822800  0.69111300  0.61973800  1
  O  O8  1  0.50684400  0.18981200  0.89239800  1
  O  O9  1  0.09208100  0.90488500  0.85696000  1
  O  O10  1  0.45389900  0.82360700  0.11156900  1
  O  O11  1  0.93912400  0.26663900  0.74262600  1
  O  O12  1  0.04036000  0.69237900  0.25196500  1
  O  O13  1  0.58945800  0.42592600  0.63456500  1
  O  O14  1  0.97025700  0.32197900  0.38893800  1
  O  O15  1  0.42297700  0.58854600  0.36324800  1
loop_
_geom_bond_atom_site_label_1
_geom_bond_atom_site_label_2
_geom_bond_distance
_geom_bond_site_symmetry_2
Mg0 O8 1.971578 1_554
Mg0 O10 1.978246 1_545
Mg0 O1 1.990669 1_555
Mg0 O0 2.040356 1_555
Mn0 O6 1.628212 1_545
Mn0 O14 1.650074 1_555
Mn0 O1 1.713807 1_555
Mn0 O0 1.739823 1_555
Mn1 O12 1.625082 1_555
Mn1 O3 1.630783 1_555
Mn1 O15 1.678196 1_555
Mn1 O10 1.715594 1_555
Mn2 O4 1.632605 1_555
Mn2 O11 1.650338 1_555
Mn2 O13 1.695241 1_555
Mn2 O8 1.731275 1_555
Mn3 O2 1.617199 1_565
Mn3 O5 1.626504 1_555
Mn3 O7 1.631585 1_555
Mn3 O9 1.654260 1_555
Ag0 O0 2.262635 1_456
Ag0 O11 2.286252 1_455
Ag0 O3 2.304471 1_556
Ag0 O8 2.319752 1_555
Ag0 O9 2.675934 1_545
Ag1 O6 2.282229 1_555
Ag1 O7 2.296024 1_655
Ag1 O15 2.301936 1_555
Ag1 O13 2.337866 1_555
Ag1 O12 2.367536 1_655
Ag2 O14 2.194695 1_455
Ag2 O13 2.208076 1_555
Ag2 O2 2.288828 1_555
Ag2 O15 2.337035 1_555
Ag2 O1 2.564028 1_555
Ag2 O11 2.771529 1_455
Ag3 O9 2.191833 1_655
Ag3 O4 2.231099 1_555
Ag3 O10 2.251648 1_556
Ag3 O5 2.333151 1_555
