# generated using pymatgen
data_MgCrGaO4
_symmetry_space_group_name_H-M   'P 1'
_cell_length_a   5.29734394
_cell_length_b   6.04795296
_cell_length_c   5.17903783
_cell_angle_alpha   100.02860743
_cell_angle_beta   78.54020583
_cell_angle_gamma   151.15780106
_symmetry_Int_Tables_number   1
_chemical_formula_structural   MgCrGaO4
_chemical_formula_sum   'Mg1 Cr1 Ga1 O4'
_cell_volume   78.44704746
_cell_formula_units_Z   1
loop_
 _symmetry_equiv_pos_site_id
 _symmetry_equiv_pos_as_xyz
  1  'x, y, z'
loop_
 _atom_site_type_symbol
 _atom_site_label
 _atom_site_symmetry_multiplicity
 _atom_site_fract_x
 _atom_site_fract_y
 _atom_site_fract_z
 _atom_site_occupancy
  Mg  Mg0  1  0.50136913  0.03510611  0.03189001  1
  Cr  Cr0  1  0.56749262  0.03545059  0.50526916  1
  Ga  Ga0  1  0.49601536  0.53536063  0.92819874  1
  O  O0  1  0.23992882  0.03535828  0.80229794  1
  O  O1  1  0.19920383  0.53551033  0.74045699  1
  O  O2  1  0.84868072  0.03545485  0.16529874  1
  O  O3  1  0.92193051  0.53529420  0.31566243  1
loop_
_geom_bond_atom_site_label_1
_geom_bond_atom_site_label_2
_geom_bond_distance
_geom_bond_site_symmetry_2
Mg0 O0 1.997658 1_554
Mg0 O3 2.053971 1_445
Mg0 O3 2.054317 1_555
Mg0 O2 2.088103 1_555
Mg0 O1 2.206477 1_544
Mg0 O1 2.208347 1_654
Cr0 O3 1.996445 1_555
Cr0 O3 1.996619 1_445
Cr0 O2 2.068017 1_555
Cr0 O0 2.077339 1_555
Cr0 O1 2.105927 1_655
Cr0 O1 2.106220 1_545
Ga0 O2 1.965832 1_456
Ga0 O2 1.965942 1_566
Ga0 O0 1.971770 1_665
Ga0 O0 1.971787 1_555
Ga0 O1 2.006953 1_555
