# generated using pymatgen
data_Sb2MoSe
_symmetry_space_group_name_H-M   'P 1'
_cell_length_a   6.61983452
_cell_length_b   6.61792123
_cell_length_c   18.59325558
_cell_angle_alpha   86.11407027
_cell_angle_beta   90.00000000
_cell_angle_gamma   90.00000000
_symmetry_Int_Tables_number   1
_chemical_formula_structural   Sb2MoSe
_chemical_formula_sum   'Sb16 Mo8 Se8'
_cell_volume   812.68931933
_cell_formula_units_Z   8
loop_
 _symmetry_equiv_pos_site_id
 _symmetry_equiv_pos_as_xyz
  1  'x, y, z'
loop_
 _atom_site_type_symbol
 _atom_site_label
 _atom_site_symmetry_multiplicity
 _atom_site_fract_x
 _atom_site_fract_y
 _atom_site_fract_z
 _atom_site_occupancy
  Sb  Sb0  1  0.40556762  0.19796010  0.27521415  1
  Sb  Sb1  1  0.90556762  0.80203990  0.22478585  1
  Sb  Sb2  1  0.59443238  0.80203990  0.72478585  1
  Sb  Sb3  1  0.09443238  0.19796010  0.77521415  1
  Sb  Sb4  1  0.84512813  0.19889682  0.27479244  1
  Sb  Sb5  1  0.34512813  0.80110318  0.22520756  1
  Sb  Sb6  1  0.15487187  0.80110318  0.72520756  1
  Sb  Sb7  1  0.65487187  0.19889682  0.77479244  1
  Sb  Sb8  1  0.37569295  0.07417641  0.42678910  1
  Sb  Sb9  1  0.87569295  0.92582359  0.07321090  1
  Sb  Sb10  1  0.62430705  0.92582359  0.57321090  1
  Sb  Sb11  1  0.12430705  0.07417641  0.92678910  1
  Sb  Sb12  1  0.87524366  0.07463267  0.42638169  1
  Sb  Sb13  1  0.37524366  0.92536733  0.07361831  1
  Sb  Sb14  1  0.12475634  0.92536733  0.57361831  1
  Sb  Sb15  1  0.62475634  0.07463267  0.92638169  1
  Mo  Mo0  1  0.87583121  0.67205674  0.49483963  1
  Mo  Mo1  1  0.37583121  0.32794326  0.00516037  1
  Mo  Mo2  1  0.12416879  0.32794326  0.50516037  1
  Mo  Mo3  1  0.62416879  0.67205674  0.99483963  1
  Mo  Mo4  1  0.62554692  0.32774330  0.50536130  1
  Mo  Mo5  1  0.12554692  0.67225670  0.99463870  1
  Mo  Mo6  1  0.37445308  0.67225670  0.49463870  1
  Mo  Mo7  1  0.87445308  0.32774330  0.00536130  1
  Se  Se0  1  0.87518177  0.41133337  0.59943619  1
  Se  Se1  1  0.37518177  0.58866663  0.90056381  1
  Se  Se2  1  0.12481823  0.58866663  0.40056381  1
  Se  Se3  1  0.62481823  0.41133337  0.09943619  1
  Se  Se4  1  0.62523305  0.58922098  0.40079577  1
  Se  Se5  1  0.12523305  0.41077902  0.09920423  1
  Se  Se6  1  0.37476695  0.41077902  0.59920423  1
  Se  Se7  1  0.87476695  0.58922098  0.90079577  1
loop_
_geom_bond_atom_site_label_1
_geom_bond_atom_site_label_2
_geom_bond_distance
_geom_bond_site_symmetry_2
Sb0 Sb5 2.872868 1_545
Sb0 Sb8 2.887892 1_555
Sb0 Sb4 2.909834 1_555
Sb1 Sb4 2.872868 1_565
Sb1 Sb9 2.887892 1_555
Sb1 Sb5 2.909834 1_655
Sb2 Sb7 2.872868 1_565
Sb2 Sb6 2.909834 1_555
Sb3 Sb6 2.872868 1_545
Sb3 Sb7 2.909834 1_455
Sb10 Sb2 2.887892 1_555
Sb11 Sb3 2.887892 1_555
Sb12 Sb4 2.888949 1_555
Sb13 Sb5 2.888949 1_555
Sb14 Sb6 2.888949 1_555
Sb15 Sb7 2.888949 1_555
Mo0 Se2 2.495006 1_655
Mo0 Se4 2.497999 1_555
Mo0 Se0 2.510890 1_555
Mo0 Sb14 2.829132 1_655
Mo0 Sb10 2.836875 1_555
Mo0 Sb12 2.873775 1_565
Mo1 Se3 2.495006 1_555
Mo1 Se5 2.497999 1_555
Mo1 Se1 2.510890 1_554
Mo1 Sb15 2.829132 1_554
Mo1 Sb11 2.836875 1_554
Mo1 Sb13 2.873775 1_545
Mo2 Se0 2.495006 1_455
Mo2 Se6 2.497999 1_555
Mo2 Se2 2.510890 1_555
Mo2 Sb12 2.829132 1_455
Mo2 Sb8 2.836875 1_555
Mo2 Sb14 2.873775 1_545
Mo3 Se1 2.495006 1_555
Mo3 Se7 2.497999 1_555
Mo3 Se3 2.510890 1_556
Mo3 Sb13 2.829132 1_556
Mo3 Sb9 2.836875 1_556
Mo3 Sb15 2.873775 1_565
Mo4 Se0 2.495520 1_555
Mo4 Se6 2.496483 1_555
Mo4 Se4 2.513640 1_555
Mo4 Sb8 2.831644 1_555
Mo4 Sb12 2.833365 1_555
Mo4 Sb10 2.865602 1_545
Mo5 Se1 2.495520 1_555
Mo5 Se7 2.496483 1_455
Mo5 Se5 2.513640 1_556
Mo5 Sb9 2.831644 1_456
Mo5 Sb13 2.833365 1_556
Mo5 Sb11 2.865602 1_565
Mo6 Se2 2.495520 1_555
Mo6 Se4 2.496483 1_555
Mo6 Se6 2.513640 1_555
Mo6 Sb10 2.831644 1_555
Mo6 Sb14 2.833365 1_555
Mo6 Sb8 2.865602 1_565
Mo7 Se3 2.495520 1_555
Mo7 Se5 2.496483 1_655
Mo7 Se7 2.513640 1_554
Mo7 Sb11 2.831644 1_654
Mo7 Sb15 2.833365 1_554
Mo7 Sb9 2.865602 1_545
