# generated using pymatgen
data_MgTi3Nb(CuO4)3
_symmetry_space_group_name_H-M   'P 1'
_cell_length_a   6.48945487
_cell_length_b   6.48945487
_cell_length_c   6.48945487
_cell_angle_alpha   109.45325009
_cell_angle_beta   109.45325009
_cell_angle_gamma   109.45325009
_symmetry_Int_Tables_number   1
_chemical_formula_structural   MgTi3Nb(CuO4)3
_chemical_formula_sum   'Mg1 Ti3 Nb1 Cu3 O12'
_cell_volume   210.51903838
_cell_formula_units_Z   1
loop_
 _symmetry_equiv_pos_site_id
 _symmetry_equiv_pos_as_xyz
  1  'x, y, z'
loop_
 _atom_site_type_symbol
 _atom_site_label
 _atom_site_symmetry_multiplicity
 _atom_site_fract_x
 _atom_site_fract_y
 _atom_site_fract_z
 _atom_site_occupancy
  Mg  Mg0  1  0.00000000  0.00000000  0.00000000  1
  Ti  Ti0  1  0.50000000  0.00000000  0.00000000  1
  Ti  Ti1  1  0.00000000  0.50000000  0.00000000  1
  Ti  Ti2  1  0.00000000  0.00000000  0.50000000  1
  Nb  Nb0  1  0.50000000  0.50000000  0.50000000  1
  Cu  Cu0  1  0.50000000  0.50000000  0.00000000  1
  Cu  Cu1  1  0.50000000  0.00000000  0.50000000  1
  Cu  Cu2  1  0.00000000  0.50000000  0.50000000  1
  O  O0  1  0.82317300  0.29837300  0.12188200  1
  O  O1  1  0.47498000  0.17266900  0.29788200  1
  O  O2  1  0.87811800  0.17682700  0.70162700  1
  O  O3  1  0.70162700  0.87811800  0.17682700  1
  O  O4  1  0.29788200  0.47498000  0.17266900  1
  O  O5  1  0.82733100  0.70211800  0.52502000  1
  O  O6  1  0.17266900  0.29788200  0.47498000  1
  O  O7  1  0.29837300  0.12188200  0.82317300  1
  O  O8  1  0.70211800  0.52502000  0.82733100  1
  O  O9  1  0.12188200  0.82317300  0.29837300  1
  O  O10  1  0.52502000  0.82733100  0.70211800  1
  O  O11  1  0.17682700  0.70162700  0.87811800  1
loop_
_geom_bond_atom_site_label_1
_geom_bond_atom_site_label_2
_geom_bond_distance
_geom_bond_site_symmetry_2
Mg0 O0 2.599223 1_455
Mg0 O9 2.599223 1_545
Mg0 O7 2.599223 1_554
Mg0 O11 2.599223 1_544
Mg0 O3 2.599223 1_445
Mg0 O2 2.599223 1_454
Mg0 O8 2.604086 1_444
Mg0 O5 2.604086 1_444
Mg0 O6 2.604086 1_555
Mg0 O4 2.604086 1_555
Mg0 O10 2.604086 1_444
Mg0 O1 2.604086 1_555
Nb0 O8 2.007883 1_555
Nb0 O10 2.007883 1_555
Nb0 O5 2.007883 1_555
Nb0 O4 2.007883 1_555
Nb0 O6 2.007883 1_555
Nb0 O1 2.007883 1_555
Cu0 O8 1.990129 1_554
Cu0 O4 1.990129 1_555
Cu0 O7 2.008916 1_554
Cu0 O3 2.008916 1_555
Cu1 O10 1.990129 1_545
Cu1 O1 1.990129 1_555
Cu1 O2 2.008916 1_555
Cu1 O9 2.008916 1_545
Cu2 O5 1.990129 1_455
Cu2 O6 1.990129 1_555
Cu2 O11 2.008916 1_555
Cu2 O0 2.008916 1_455
O0 Ti0 1.985781 1_555
O0 Ti1 1.987010 1_655
O1 Ti0 1.976426 1_555
O2 Ti1 1.985781 1_656
O2 Ti2 1.987010 1_655
O3 Ti2 1.985781 1_665
O3 Ti0 1.987010 1_565
O4 Ti1 1.976426 1_555
O5 Ti2 1.976426 1_665
O6 Ti2 1.976426 1_555
O7 Ti2 1.985781 1_555
O7 Ti0 1.987010 1_556
O8 Ti1 1.976426 1_656
O9 Ti1 1.985781 1_555
O9 Ti2 1.987010 1_565
O10 Ti0 1.976426 1_566
O11 Ti0 1.985781 1_566
O11 Ti1 1.987010 1_556
