# generated using pymatgen
data_K3Fe5F15
_symmetry_space_group_name_H-M   'P 1'
_cell_length_a   12.89793400
_cell_length_b   12.89793400
_cell_length_c   4.05592500
_cell_angle_alpha   90.00000000
_cell_angle_beta   90.00000000
_cell_angle_gamma   90.00000000
_symmetry_Int_Tables_number   1
_chemical_formula_structural   K3Fe5F15
_chemical_formula_sum   'K6 Fe10 F30'
_cell_volume   674.73030440
_cell_formula_units_Z   2
loop_
 _symmetry_equiv_pos_site_id
 _symmetry_equiv_pos_as_xyz
  1  'x, y, z'
loop_
 _atom_site_type_symbol
 _atom_site_label
 _atom_site_symmetry_multiplicity
 _atom_site_fract_x
 _atom_site_fract_y
 _atom_site_fract_z
 _atom_site_occupancy
  K  K0  1  0.67534900  0.82465100  0.50000000  1
  K  K1  1  0.32465100  0.17534900  0.50000000  1
  K  K2  1  0.17534900  0.67534900  0.50000000  1
  K  K3  1  0.82465100  0.32465100  0.50000000  1
  K  K4  1  0.50000000  0.50000000  0.50000000  1
  K  K5  1  0.00000000  0.00000000  0.50000000  1
  Fe  Fe0  1  0.28713400  0.42333300  0.00000000  1
  Fe  Fe1  1  0.71286600  0.57666700  0.00000000  1
  Fe  Fe2  1  0.78713400  0.07666700  0.00000000  1
  Fe  Fe3  1  0.21286600  0.92333300  0.00000000  1
  Fe  Fe4  1  0.57666700  0.28713400  0.00000000  1
  Fe  Fe5  1  0.42333300  0.71286600  0.00000000  1
  Fe  Fe6  1  0.07666700  0.21286600  0.00000000  1
  Fe  Fe7  1  0.92333300  0.78713400  0.00000000  1
  Fe  Fe8  1  0.50000000  0.00000000  0.00000000  1
  Fe  Fe9  1  0.00000000  0.50000000  0.00000000  1
  F  F0  1  0.43001300  0.35862200  0.00000000  1
  F  F1  1  0.56998700  0.64137800  0.00000000  1
  F  F2  1  0.93001300  0.14137800  0.00000000  1
  F  F3  1  0.06998700  0.85862200  0.00000000  1
  F  F4  1  0.64137800  0.43001300  0.00000000  1
  F  F5  1  0.35862200  0.56998700  0.00000000  1
  F  F6  1  0.14137800  0.06998700  0.00000000  1
  F  F7  1  0.85862200  0.93001300  0.00000000  1
  F  F8  1  0.49268700  0.15248800  0.00000000  1
  F  F9  1  0.50731300  0.84751200  0.00000000  1
  F  F10  1  0.99268700  0.34751200  0.00000000  1
  F  F11  1  0.00731300  0.65248800  0.00000000  1
  F  F12  1  0.84751200  0.49268700  0.00000000  1
  F  F13  1  0.15248800  0.50731300  0.00000000  1
  F  F14  1  0.34751200  0.00731300  0.00000000  1
  F  F15  1  0.65248800  0.99268700  0.00000000  1
  F  F16  1  0.00000000  0.50000000  0.50000000  1
  F  F17  1  0.50000000  0.00000000  0.50000000  1
  F  F18  1  0.92375100  0.79087400  0.50000000  1
  F  F19  1  0.07624900  0.20912600  0.50000000  1
  F  F20  1  0.42375100  0.70912600  0.50000000  1
  F  F21  1  0.57624900  0.29087400  0.50000000  1
  F  F22  1  0.72344200  0.22344200  0.00000000  1
  F  F23  1  0.27655800  0.77655800  0.00000000  1
  F  F24  1  0.22344200  0.27655800  0.00000000  1
  F  F25  1  0.77655800  0.72344200  0.00000000  1
  F  F26  1  0.20912600  0.92375100  0.50000000  1
  F  F27  1  0.79087400  0.07624900  0.50000000  1
  F  F28  1  0.70912600  0.57624900  0.50000000  1
  F  F29  1  0.29087400  0.42375100  0.50000000  1
loop_
_geom_bond_atom_site_label_1
_geom_bond_atom_site_label_2
_geom_bond_distance
_geom_bond_site_symmetry_2
F0 Fe0 2.023041 1_555
F0 Fe4 2.104298 1_555
F0 K4 2.872729 1_554
F0 K4 2.872729 1_555
F1 Fe1 2.023041 1_555
F1 Fe5 2.104298 1_555
F1 K4 2.872729 1_554
F1 K4 2.872729 1_555
F2 Fe2 2.023041 1_555
F2 Fe6 2.104298 1_655
F2 K5 2.872729 1_654
F2 K5 2.872729 1_655
F3 Fe3 2.023041 1_555
F3 Fe7 2.104298 1_455
F3 K5 2.872729 1_565
F3 K5 2.872729 1_564
F4 Fe4 2.023041 1_555
F4 Fe1 2.104298 1_555
F4 K4 2.872729 1_554
F4 K4 2.872729 1_555
F5 Fe5 2.023041 1_555
F5 Fe0 2.104298 1_555
F5 K4 2.872729 1_554
F5 K4 2.872729 1_555
F6 Fe6 2.023041 1_555
F6 Fe3 2.104298 1_545
F6 K5 2.872729 1_555
F6 K5 2.872729 1_554
F7 Fe7 2.023041 1_555
F7 Fe2 2.104298 1_565
F7 K5 2.872729 1_664
F7 K5 2.872729 1_665
F8 Fe8 1.969041 1_555
F8 Fe4 2.046760 1_555
F8 K1 2.982757 1_555
F8 K1 2.982757 1_554
F9 Fe8 1.969041 1_565
F9 Fe5 2.046760 1_555
F9 K0 2.982757 1_554
F9 K0 2.982757 1_555
F10 Fe9 1.969041 1_655
F10 Fe6 2.046760 1_655
F10 K3 2.982757 1_554
F10 K3 2.982757 1_555
F11 Fe9 1.969041 1_555
F11 Fe7 2.046760 1_455
F11 K2 2.982757 1_554
F11 K2 2.982757 1_555
F12 Fe9 1.969041 1_655
F12 Fe1 2.046760 1_555
F12 K3 2.982757 1_554
F12 K3 2.982757 1_555
F13 Fe9 1.969041 1_555
F13 Fe0 2.046760 1_555
F13 K2 2.982757 1_554
F13 K2 2.982757 1_555
F14 Fe8 1.969041 1_555
F14 Fe3 2.046760 1_545
F14 K1 2.982757 1_555
F14 K1 2.982757 1_554
F15 Fe8 1.969041 1_565
F15 Fe2 2.046760 1_565
F15 K0 2.982757 1_554
F15 K0 2.982757 1_555
F16 Fe9 2.027963 1_555
F16 Fe9 2.027963 1_556
F17 Fe8 2.027963 1_555
F17 Fe8 2.027963 1_556
F18 Fe7 2.028543 1_556
F18 Fe7 2.028543 1_555
F18 K5 2.870988 1_665
F19 Fe6 2.028543 1_555
F19 Fe6 2.028543 1_556
F19 K5 2.870988 1_555
F20 Fe5 2.028543 1_556
F20 Fe5 2.028543 1_555
F20 K4 2.870988 1_555
F21 Fe4 2.028543 1_555
F21 Fe4 2.028543 1_556
F21 K4 2.870988 1_555
F22 Fe4 2.063652 1_555
F22 Fe2 2.063652 1_555
F22 K3 2.742390 1_554
F22 K3 2.742390 1_555
F23 Fe5 2.063652 1_555
F23 Fe3 2.063652 1_555
F23 K2 2.742390 1_554
F23 K2 2.742390 1_555
F24 Fe0 2.063652 1_555
F24 Fe6 2.063652 1_555
F24 K1 2.742390 1_555
F24 K1 2.742390 1_554
F25 Fe7 2.063652 1_555
F25 Fe1 2.063652 1_555
F25 K0 2.742390 1_554
F25 K0 2.742390 1_555
F26 Fe3 2.028543 1_556
F26 Fe3 2.028543 1_555
F26 K5 2.870988 1_565
F27 Fe2 2.028543 1_556
F27 Fe2 2.028543 1_555
F27 K5 2.870988 1_655
F28 Fe1 2.028543 1_555
F28 Fe1 2.028543 1_556
F28 K4 2.870988 1_555
F29 Fe0 2.028543 1_556
F29 Fe0 2.028543 1_555
F29 K4 2.870988 1_555
