# generated using pymatgen
data_Ta2P
_symmetry_space_group_name_H-M   'P 1'
_cell_length_a   3.40841768
_cell_length_b   11.57848827
_cell_length_c   14.44580102
_cell_angle_alpha   90.00000000
_cell_angle_beta   90.00000000
_cell_angle_gamma   90.00000000
_symmetry_Int_Tables_number   1
_chemical_formula_structural   Ta2P
_chemical_formula_sum   'Ta24 P12'
_cell_volume   570.09377373
_cell_formula_units_Z   12
loop_
 _symmetry_equiv_pos_site_id
 _symmetry_equiv_pos_as_xyz
  1  'x, y, z'
loop_
 _atom_site_type_symbol
 _atom_site_label
 _atom_site_symmetry_multiplicity
 _atom_site_fract_x
 _atom_site_fract_y
 _atom_site_fract_z
 _atom_site_occupancy
  Ta  Ta0  1  -0.00000000  0.47042663  0.39017358  1
  Ta  Ta1  1  0.00000000  0.52957337  0.60982642  1
  Ta  Ta2  1  0.50000000  0.97042663  0.10982642  1
  Ta  Ta3  1  0.50000000  0.02957337  0.89017358  1
  Ta  Ta4  1  -0.00000000  0.80452632  0.20520332  1
  Ta  Ta5  1  -0.00000000  0.19547368  0.79479668  1
  Ta  Ta6  1  0.50000000  0.30452632  0.29479668  1
  Ta  Ta7  1  0.50000000  0.69547368  0.70520332  1
  Ta  Ta8  1  0.00000000  0.87851798  0.42253196  1
  Ta  Ta9  1  -0.00000000  0.12148202  0.57746804  1
  Ta  Ta10  1  0.50000000  0.37851798  0.07746804  1
  Ta  Ta11  1  0.50000000  0.62148202  0.92253196  1
  Ta  Ta12  1  0.50000000  0.91198128  0.57985452  1
  Ta  Ta13  1  0.50000000  0.08801872  0.42014448  1
  Ta  Ta14  1  0.00000000  0.41198128  0.92014548  1
  Ta  Ta15  1  -0.00000000  0.58801872  0.07985552  1
  Ta  Ta16  1  0.50000000  0.42097903  0.75472101  1
  Ta  Ta17  1  0.50000000  0.57902097  0.24527899  1
  Ta  Ta18  1  0.00000000  0.92097903  0.74527899  1
  Ta  Ta19  1  0.00000000  0.07902097  0.25472101  1
  Ta  Ta20  1  0.50000000  0.34896355  0.52299428  1
  Ta  Ta21  1  0.50000000  0.65103645  0.47700572  1
  Ta  Ta22  1  -0.00000000  0.84896355  0.97700572  1
  Ta  Ta23  1  0.00000000  0.15103645  0.02299428  1
  P  P0  1  0.50000000  0.81510653  0.84827768  1
  P  P1  1  0.50000000  0.18489347  0.15172232  1
  P  P2  1  0.00000000  0.31510653  0.65172232  1
  P  P3  1  -0.00000000  0.68489347  0.34827768  1
  P  P4  1  0.50000000  0.25479270  0.91653170  1
  P  P5  1  0.50000000  0.74520730  0.08346830  1
  P  P6  1  0.00000000  0.75479270  0.58346830  1
  P  P7  1  -0.00000000  0.24520730  0.41653170  1
  P  P8  1  0.50000000  0.07661348  0.70500024  1
  P  P9  1  0.50000000  0.92338552  0.29499976  1
  P  P10  1  0.00000000  0.57661448  0.79499976  1
  P  P11  1  -0.00000000  0.42338652  0.20500024  1
loop_
_geom_bond_atom_site_label_1
_geom_bond_atom_site_label_2
_geom_bond_distance
_geom_bond_site_symmetry_2
P0 Ta11 2.485282 1_555
P0 Ta7 2.488061 1_555
P0 Ta22 2.552653 1_655
P0 Ta22 2.552653 1_555
P0 Ta3 2.555892 1_565
P0 Ta18 2.573104 1_655
P0 Ta18 2.573104 1_555
P1 Ta10 2.485282 1_555
P1 Ta6 2.488061 1_555
P1 Ta23 2.552653 1_555
P1 Ta23 2.552653 1_655
P1 Ta2 2.555892 1_545
P1 Ta19 2.573104 1_655
P1 Ta19 2.573104 1_555
P2 Ta9 2.485282 1_555
P2 Ta5 2.488061 1_555
P2 Ta20 2.552653 1_455
P2 Ta20 2.552653 1_555
P2 Ta1 2.555892 1_555
P2 Ta16 2.573104 1_455
P2 Ta16 2.573104 1_555
P3 Ta8 2.485282 1_555
P3 Ta4 2.488061 1_555
P3 Ta21 2.552653 1_455
P3 Ta21 2.552653 1_555
P3 Ta0 2.555892 1_555
P3 Ta17 2.573104 1_455
P3 Ta17 2.573104 1_555
P4 Ta14 2.493888 1_655
P4 Ta14 2.493888 1_555
P4 Ta5 2.543342 1_655
P4 Ta5 2.543342 1_555
P4 Ta23 2.590907 1_556
P4 Ta23 2.590907 1_656
P4 Ta3 2.635351 1_555
P4 Ta10 2.730779 1_556
P4 Ta16 3.027595 1_555
P5 Ta15 2.493887 1_655
P5 Ta15 2.493887 1_555
P5 Ta4 2.543342 1_555
P5 Ta4 2.543342 1_655
P5 Ta22 2.590907 1_654
P5 Ta22 2.590907 1_554
P5 Ta2 2.635351 1_555
P5 Ta11 2.730779 1_554
P5 Ta17 3.027595 1_555
P6 Ta12 2.493888 1_455
P6 Ta12 2.493888 1_555
P6 Ta7 2.543342 1_455
P6 Ta7 2.543342 1_555
P6 Ta21 2.590907 1_455
P6 Ta21 2.590907 1_555
P6 Ta1 2.635351 1_555
P6 Ta8 2.730779 1_555
P6 Ta18 3.027595 1_555
P7 Ta13 2.493887 1_455
P7 Ta13 2.493887 1_555
P7 Ta6 2.543342 1_455
P7 Ta6 2.543342 1_555
P7 Ta20 2.590907 1_555
P7 Ta20 2.590907 1_455
P7 Ta0 2.635351 1_555
P7 Ta9 2.730779 1_555
P7 Ta19 3.027595 1_555
P8 Ta5 2.545779 1_655
P8 Ta5 2.545779 1_555
P8 Ta18 2.547574 1_645
P8 Ta18 2.547574 1_545
P8 Ta9 2.562870 1_555
P8 Ta9 2.562870 1_655
P8 Ta12 2.627131 1_545
P8 Ta3 2.729863 1_555
P9 Ta4 2.545773 1_555
P9 Ta4 2.545773 1_655
P9 Ta19 2.547582 1_565
P9 Ta19 2.547582 1_665
P9 Ta8 2.562868 1_555
P9 Ta8 2.562868 1_655
P9 Ta13 2.627130 1_565
P9 Ta2 2.729865 1_555
P10 Ta7 2.545773 1_455
P10 Ta7 2.545773 1_555
P10 Ta16 2.547582 1_455
P10 Ta16 2.547582 1_555
P10 Ta11 2.562868 1_455
P10 Ta11 2.562868 1_555
P10 Ta14 2.627140 1_555
P10 Ta1 2.729865 1_555
P11 Ta6 2.545779 1_455
P11 Ta6 2.545779 1_555
P11 Ta17 2.547574 1_455
P11 Ta17 2.547574 1_555
P11 Ta10 2.562870 1_455
P11 Ta10 2.562870 1_555
P11 Ta15 2.627121 1_555
P11 Ta0 2.729863 1_555
