# generated using pymatgen
data_MgTe4Mo2W2(SeS)2
_symmetry_space_group_name_H-M   'P 1'
_cell_length_a   3.40148400
_cell_length_b   3.40123274
_cell_length_c   45.05765400
_cell_angle_alpha   90.00088084
_cell_angle_beta   90.00000890
_cell_angle_gamma   120.00242427
_symmetry_Int_Tables_number   1
_chemical_formula_structural   MgTe4Mo2W2(SeS)2
_chemical_formula_sum   'Mg1 Te4 Mo2 W2 Se2 S2'
_cell_volume   451.43308125
_cell_formula_units_Z   1
loop_
 _symmetry_equiv_pos_site_id
 _symmetry_equiv_pos_as_xyz
  1  'x, y, z'
loop_
 _atom_site_type_symbol
 _atom_site_label
 _atom_site_symmetry_multiplicity
 _atom_site_fract_x
 _atom_site_fract_y
 _atom_site_fract_z
 _atom_site_occupancy
  Mg  Mg0  1  0.00003700  0.00007400  0.38703800  1
  Te  Te0  1  0.33334100  0.66668300  0.69929400  1
  Te  Te1  1  0.66669100  0.33338100  0.05195400  1
  Te  Te2  1  0.66665700  0.33331400  0.13509100  1
  Te  Te3  1  0.33335900  0.66671800  0.61572300  1
  Mo  Mo0  1  0.33336400  0.66673100  0.09355400  1
  Mo  Mo1  1  0.33329300  0.66658600  0.47484300  1
  W  W0  1  0.66666300  0.33332600  0.27504600  1
  W  W1  1  0.66665600  0.33331400  0.65751600  1
  Se  Se0  1  0.33327800  0.66655600  0.31190100  1
  Se  Se1  1  0.33332700  0.66665600  0.23840500  1
  S  S0  1  0.66667100  0.33333900  0.44086200  1
  S  S1  1  0.66666300  0.33332500  0.50772900  1
loop_
_geom_bond_atom_site_label_1
_geom_bond_atom_site_label_2
_geom_bond_distance
_geom_bond_site_symmetry_2
Mg0 S0 3.120501 1_455
Mg0 S0 3.120506 1_555
Mg0 S0 3.120643 1_445
Te0 W1 2.720140 1_565
Te0 W1 2.720320 1_555
Te0 W1 2.720323 1_455
Te3 W1 2.720484 1_565
Te3 W1 2.720848 1_555
Te3 W1 2.720853 1_455
Mo0 Te2 2.712485 1_565
Mo0 Te2 2.712891 1_455
Mo0 Te2 2.712897 1_555
Mo0 Te1 2.714636 1_565
Mo0 Te1 2.714753 1_455
Mo0 Te1 2.714762 1_555
Mo1 S1 2.460034 1_455
Mo1 S1 2.460036 1_555
Mo1 S1 2.460143 1_565
Mo1 S0 2.490024 1_455
Mo1 S0 2.490031 1_555
Mo1 S0 2.490246 1_565
Se0 W0 2.571662 1_555
Se0 W0 2.571662 1_455
Se0 W0 2.571934 1_565
Se1 W0 2.565448 1_565
Se1 W0 2.565579 1_455
Se1 W0 2.565583 1_555
