# generated using pymatgen
data_LiCr2(PO4)3
_symmetry_space_group_name_H-M   'P 1'
_cell_length_a   10.03778328
_cell_length_b   10.03778328
_cell_length_c   10.03778328
_cell_angle_alpha   109.40788337
_cell_angle_beta   109.40788337
_cell_angle_gamma   109.59796957
_symmetry_Int_Tables_number   1
_chemical_formula_structural   LiCr2(PO4)3
_chemical_formula_sum   'Li4 Cr8 P12 O48'
_cell_volume   778.55618522
_cell_formula_units_Z   4
loop_
 _symmetry_equiv_pos_site_id
 _symmetry_equiv_pos_as_xyz
  1  'x, y, z'
loop_
 _atom_site_type_symbol
 _atom_site_label
 _atom_site_symmetry_multiplicity
 _atom_site_fract_x
 _atom_site_fract_y
 _atom_site_fract_z
 _atom_site_occupancy
  Li  Li0  1  0.75000000  0.75000000  0.00000000  1
  Li  Li1  1  0.50000000  0.00000000  0.50000000  1
  Li  Li2  1  0.00000000  0.50000000  0.50000000  1
  Li  Li3  1  0.25000000  0.25000000  0.00000000  1
  Cr  Cr0  1  0.12500000  0.87500000  0.25000000  1
  Cr  Cr1  1  0.12500000  0.87500000  0.75000000  1
  Cr  Cr2  1  0.62500000  0.37500000  0.75000000  1
  Cr  Cr3  1  0.62500000  0.37500000  0.25000000  1
  Cr  Cr4  1  0.12500000  0.37500000  0.25000000  1
  Cr  Cr5  1  0.12500000  0.37500000  0.75000000  1
  Cr  Cr6  1  0.62500000  0.87500000  0.75000000  1
  Cr  Cr7  1  0.62500000  0.87500000  0.25000000  1
  P  P0  1  0.87500000  0.75099300  0.37599300  1
  P  P1  1  0.74900700  0.62500000  0.62400700  1
  P  P2  1  0.50000000  0.50000000  0.00000000  1
  P  P3  1  0.50099300  0.12500000  0.87599300  1
  P  P4  1  0.37500000  0.99900700  0.12400700  1
  P  P5  1  0.75000000  0.25000000  0.50000000  1
  P  P6  1  0.25000000  0.75000000  0.50000000  1
  P  P7  1  0.87500000  0.25099300  0.87599300  1
  P  P8  1  0.00099300  0.12500000  0.37599300  1
  P  P9  1  0.37500000  0.49900700  0.62400700  1
  P  P10  1  0.00000000  0.00000000  0.00000000  1
  P  P11  1  0.24900700  0.62500000  0.12400700  1
  O  O0  1  0.32074900  0.37123100  0.86228000  1
  O  O1  1  0.73244600  0.07258900  0.74744600  1
  O  O2  1  0.51710800  0.96414200  0.14129500  1
  O  O3  1  0.32514300  0.98500000  0.25255400  1
  O  O4  1  0.70847000  0.07074900  0.44951800  1
  O  O5  1  0.23244600  0.48500000  0.65985600  1
  O  O6  1  0.21414200  0.57284700  0.94703400  1
  O  O7  1  0.42925100  0.79153000  0.55048200  1
  O  O8  1  0.82074900  0.95847000  0.94951800  1
  O  O9  1  0.03585800  0.17715300  0.55296600  1
  O  O10  1  0.01755400  0.26500000  0.84014400  1
  O  O11  1  0.82258900  0.98244600  0.24744600  1
  O  O12  1  0.51755400  0.67741100  0.75255400  1
  O  O13  1  0.54153000  0.67925100  0.05048200  1
  O  O14  1  0.73289200  0.78585800  0.35870500  1
  O  O15  1  0.92485700  0.76500000  0.24744600  1
  O  O16  1  0.04153000  0.99104900  0.86228000  1
  O  O17  1  0.01710800  0.87581300  0.55296600  1
  O  O18  1  0.42715300  0.37418700  0.64129500  1
  O  O19  1  0.23500000  0.48244600  0.15985600  1
  O  O20  1  0.71414200  0.76710800  0.64129500  1
  O  O21  1  0.42741100  0.76755400  0.25255400  1
  O  O22  1  0.62876900  0.49104900  0.94951800  1
  O  O23  1  0.12581300  0.07284700  0.35870500  1
  O  O24  1  0.50895100  0.45847000  0.13772000  1
  O  O25  1  0.32284700  0.46414200  0.44703400  1
  O  O26  1  0.00895100  0.87123100  0.05048200  1
  O  O27  1  0.82514300  0.57258900  0.34014400  1
  O  O28  1  0.92741100  0.67485700  0.65985600  1
  O  O29  1  0.62418700  0.48289200  0.44703400  1
  O  O30  1  0.12876900  0.17925100  0.13772000  1
  O  O31  1  0.51500000  0.17485700  0.74744600  1
  O  O32  1  0.73500000  0.57514300  0.75255400  1
  O  O33  1  0.12123100  0.57074900  0.36228000  1
  O  O34  1  0.62581300  0.26710800  0.05296600  1
  O  O35  1  0.32258900  0.07514300  0.84014400  1
  O  O36  1  0.42485700  0.17741100  0.15985600  1
  O  O37  1  0.24104900  0.87876900  0.44951800  1
  O  O38  1  0.92715300  0.28585800  0.05296600  1
  O  O39  1  0.74104900  0.29153000  0.36228000  1
  O  O40  1  0.12418700  0.67715300  0.14129500  1
  O  O41  1  0.62123100  0.25895100  0.55048200  1
  O  O42  1  0.20847000  0.75895100  0.63772000  1
  O  O43  1  0.53585800  0.98289200  0.85870500  1
  O  O44  1  0.01500000  0.26755400  0.34014400  1
  O  O45  1  0.82284700  0.37581300  0.85870500  1
  O  O46  1  0.23289200  0.87418700  0.94703400  1
  O  O47  1  0.92925100  0.37876900  0.63772000  1
loop_
_geom_bond_atom_site_label_1
_geom_bond_atom_site_label_2
_geom_bond_distance
_geom_bond_site_symmetry_2
Li0 O22 2.255413 1_554
Li0 O26 2.255413 1_655
Li0 O13 2.255422 1_555
Li0 O8 2.255422 1_554
Li0 O11 2.439168 1_555
Li0 O15 2.439168 1_555
Li0 O12 2.439168 1_554
Li0 O32 2.439168 1_554
Li1 O41 2.255413 1_555
Li1 O37 2.255413 1_545
Li1 O4 2.255422 1_555
Li1 O7 2.255422 1_545
Li1 O3 2.439168 1_545
Li1 O21 2.439168 1_545
Li1 O1 2.439168 1_555
Li1 O31 2.439168 1_555
Li2 O47 2.255413 1_455
Li2 O33 2.255413 1_555
Li2 O42 2.255416 1_555
Li2 O39 2.255416 1_455
Li2 O28 2.439163 1_455
Li2 O27 2.439163 1_455
Li2 O44 2.439165 1_555
Li2 O5 2.439165 1_555
Li3 O0 2.255413 1_554
Li3 O30 2.255413 1_555
Li3 O24 2.255416 1_555
Li3 O16 2.255416 1_544
Li3 O36 2.439163 1_555
Li3 O35 2.439163 1_554
Li3 O19 2.439165 1_555
Li3 O10 2.439165 1_554
Cr0 O23 1.917745 1_565
Cr0 O40 1.917745 1_555
Cr0 O15 1.927369 1_455
Cr0 O3 1.927369 1_555
Cr0 O37 1.933627 1_555
Cr0 O26 1.933627 1_555
Cr1 O17 1.917745 1_555
Cr1 O46 1.917745 1_555
Cr1 O28 1.927366 1_455
Cr1 O35 1.927366 1_565
Cr1 O16 1.933636 1_555
Cr1 O42 1.933636 1_555
Cr2 O18 1.917745 1_555
Cr2 O45 1.917745 1_555
Cr2 O32 1.927369 1_555
Cr2 O31 1.927369 1_555
Cr2 O22 1.933627 1_555
Cr2 O41 1.933627 1_555
Cr3 O34 1.917745 1_555
Cr3 O29 1.917745 1_555
Cr3 O27 1.927366 1_555
Cr3 O36 1.927366 1_555
Cr3 O39 1.933636 1_555
Cr3 O24 1.933636 1_555
Cr4 O38 1.917745 1_455
Cr4 O25 1.917745 1_555
Cr4 O19 1.927377 1_555
Cr4 O44 1.927377 1_555
Cr4 O33 1.933627 1_555
Cr4 O30 1.933627 1_555
Cr5 O6 1.917745 1_555
Cr5 O9 1.917745 1_555
Cr5 O10 1.927377 1_555
Cr5 O5 1.927377 1_555
Cr5 O47 1.933627 1_455
Cr5 O0 1.933627 1_555
Cr6 O43 1.917745 1_555
Cr6 O20 1.917745 1_555
Cr6 O12 1.927369 1_555
Cr6 O1 1.927369 1_565
Cr6 O8 1.933625 1_555
Cr6 O7 1.933625 1_555
Cr7 O14 1.917745 1_555
Cr7 O2 1.917745 1_555
Cr7 O11 1.927369 1_555
Cr7 O21 1.927369 1_555
Cr7 O4 1.933625 1_565
Cr7 O13 1.933625 1_555
O0 P2 1.555145 1_556
O1 P7 1.561308 1_555
O2 P4 1.548577 1_555
O3 P4 1.561308 1_555
O4 P5 1.555148 1_555
O5 P9 1.561303 1_555
O6 P11 1.548577 1_556
O7 P6 1.555148 1_555
O8 P10 1.555148 1_666
O9 P8 1.548577 1_555
O10 P7 1.561303 1_455
O11 P8 1.561308 1_665
O12 P9 1.561308 1_555
O13 P2 1.555148 1_555
O14 P0 1.548577 1_555
O15 P0 1.561308 1_555
O16 P10 1.555140 1_566
O17 P0 1.548577 1_455
O18 P9 1.548577 1_555
O19 P11 1.561303 1_555
O20 P1 1.548577 1_555
O21 P11 1.561308 1_555
O22 P2 1.555145 1_556
O23 P8 1.548577 1_555
O24 P2 1.555140 1_555
O25 P9 1.548577 1_555
O26 P10 1.555145 1_565
O27 P0 1.561311 1_555
O28 P1 1.561311 1_555
O29 P1 1.548577 1_555
O30 P10 1.555145 1_555
O31 P3 1.561308 1_555
O32 P1 1.561308 1_555
O33 P6 1.555145 1_555
O34 P3 1.548577 1_554
O35 P3 1.561311 1_555
O36 P4 1.561311 1_545
O37 P6 1.555145 1_555
O38 P7 1.548577 1_554
O39 P5 1.555140 1_555
O40 P11 1.548577 1_555
O41 P5 1.555145 1_555
O42 P6 1.555140 1_555
O43 P3 1.548577 1_565
O44 P8 1.561303 1_555
O45 P7 1.548577 1_555
O46 P4 1.548577 1_556
O47 P5 1.555145 1_555
