# generated using pymatgen
data_MgCoBiO3
_symmetry_space_group_name_H-M   'P 1'
_cell_length_a   3.72094714
_cell_length_b   3.72094901
_cell_length_c   6.82790173
_cell_angle_alpha   90.00000000
_cell_angle_beta   90.00000000
_cell_angle_gamma   90.00000000
_symmetry_Int_Tables_number   1
_chemical_formula_structural   MgCoBiO3
_chemical_formula_sum   'Mg1 Co1 Bi1 O3'
_cell_volume   94.53540326
_cell_formula_units_Z   1
loop_
 _symmetry_equiv_pos_site_id
 _symmetry_equiv_pos_as_xyz
  1  'x, y, z'
loop_
 _atom_site_type_symbol
 _atom_site_label
 _atom_site_symmetry_multiplicity
 _atom_site_fract_x
 _atom_site_fract_y
 _atom_site_fract_z
 _atom_site_occupancy
  Mg  Mg0  1  -0.00000000  -0.00000000  0.68159055  1
  Co  Co0  1  0.50000000  0.50000000  0.48194740  1
  Bi  Bi0  1  -0.00000000  0.00000000  0.15707921  1
  O  O0  1  0.50000000  -0.00000000  0.59403130  1
  O  O1  1  0.50000000  0.50000000  0.19482024  1
  O  O2  1  -0.00000000  0.50000000  0.59403130  1
loop_
_geom_bond_atom_site_label_1
_geom_bond_atom_site_label_2
_geom_bond_distance
_geom_bond_site_symmetry_2
Mg0 O0 1.954170 1_455
Mg0 O0 1.954170 1_555
Mg0 O2 1.954171 1_545
Mg0 O2 1.954171 1_555
Co0 O1 1.960476 1_555
Co0 O2 2.011726 1_555
Co0 O2 2.011726 1_655
Co0 O0 2.011727 1_565
Co0 O0 2.011727 1_555
Bi0 O1 2.643697 1_545
Bi0 O1 2.643697 1_455
Bi0 O1 2.643697 1_555
Bi0 O1 2.643697 1_445
Bi0 Mg0 3.246590 1_554
