# generated using pymatgen
data_GaFe3
_symmetry_space_group_name_H-M   'P 1'
_cell_length_a   3.99239961
_cell_length_b   4.06618714
_cell_length_c   4.25000768
_cell_angle_alpha   57.34731393
_cell_angle_beta   58.97715580
_cell_angle_gamma   63.66915918
_symmetry_Int_Tables_number   1
_chemical_formula_structural   GaFe3
_chemical_formula_sum   'Ga1 Fe3'
_cell_volume   48.45387118
_cell_formula_units_Z   1
loop_
 _symmetry_equiv_pos_site_id
 _symmetry_equiv_pos_as_xyz
  1  'x, y, z'
loop_
 _atom_site_type_symbol
 _atom_site_label
 _atom_site_symmetry_multiplicity
 _atom_site_fract_x
 _atom_site_fract_y
 _atom_site_fract_z
 _atom_site_occupancy
  Ga  Ga0  1  -0.00000687  -0.00000219  0.00000354  1
  Fe  Fe0  1  0.50000525  0.50000177  0.49999503  1
  Fe  Fe1  1  0.75023783  0.75021083  0.75006037  1
  Fe  Fe2  1  0.24976578  0.24979058  0.24993905  1
loop_
_geom_bond_atom_site_label_1
_geom_bond_atom_site_label_2
_geom_bond_distance
_geom_bond_site_symmetry_2
Fe0 Fe2 2.512122 1_655
Fe0 Fe1 2.512144 1_455
Fe0 Fe1 2.512375 1_554
Fe0 Fe2 2.512405 1_556
Fe0 Fe2 2.513689 1_565
Fe0 Fe1 2.513692 1_545
Fe0 Fe2 2.515052 1_555
Fe0 Fe1 2.515057 1_555
Fe0 Ga0 2.683196 1_665
Fe0 Ga0 2.683283 1_556
Fe1 Ga0 2.511716 1_666
Fe1 Ga0 2.513138 1_665
Fe1 Ga0 2.513465 1_566
Fe1 Ga0 2.514948 1_656
Fe1 Fe2 2.680846 1_665
Fe1 Fe2 2.685635 1_556
Fe2 Ga0 2.511763 1_555
Fe2 Ga0 2.513158 1_556
Fe2 Ga0 2.513411 1_655
Fe2 Ga0 2.514936 1_565
