# generated using pymatgen
data_Na7NbSi6(GeO8)3
_symmetry_space_group_name_H-M   'P 1'
_cell_length_a   8.84261212
_cell_length_b   8.85092858
_cell_length_c   21.91879945
_cell_angle_alpha   90.07289215
_cell_angle_beta   89.86658497
_cell_angle_gamma   120.04058007
_symmetry_Int_Tables_number   1
_chemical_formula_structural   Na7NbSi6(GeO8)3
_chemical_formula_sum   'Na21 Nb3 Si18 Ge9 O72'
_cell_volume   1485.03911247
_cell_formula_units_Z   3
loop_
 _symmetry_equiv_pos_site_id
 _symmetry_equiv_pos_as_xyz
  1  'x, y, z'
loop_
 _atom_site_type_symbol
 _atom_site_label
 _atom_site_symmetry_multiplicity
 _atom_site_fract_x
 _atom_site_fract_y
 _atom_site_fract_z
 _atom_site_occupancy
  Na  Na0  1  0.36934210  0.36680368  0.24876005  1
  Na  Na1  1  0.63377095  0.63081020  0.74846816  1
  Na  Na2  1  0.99710706  0.36675809  0.74842223  1
  Na  Na3  1  0.36878319  0.00305341  0.74853064  1
  Na  Na4  1  0.29770242  0.33326152  0.58286245  1
  Na  Na5  1  0.03541501  0.70222395  0.58288282  1
  Na  Na6  1  0.66677548  0.96430594  0.58286272  1
  Na  Na7  1  0.30210746  0.96638207  0.08218424  1
  Na  Na8  1  0.66381808  0.69913849  0.08226800  1
  Na  Na9  1  0.03485598  0.33654062  0.08200687  1
  Na  Na10  1  0.96453609  0.66497568  0.91827028  1
  Na  Na11  1  0.70251465  0.03387210  0.91821389  1
  Na  Na12  1  0.96623369  0.29913977  0.41584201  1
  Na  Na13  1  0.33324902  0.03487803  0.41622580  1
  Na  Na14  1  0.70090110  0.66659893  0.41576168  1
  Na  Na15  1  0.00012569  0.00009689  0.49948043  1
  Na  Na16  1  0.00804079  0.00728850  0.99660854  1
  Na  Na17  1  0.65895301  0.33244858  0.83563712  1
  Na  Na18  1  0.67339297  0.33292498  0.32987427  1
  Na  Na19  1  0.33266906  0.67284566  0.16623303  1
  Na  Na20  1  0.33319616  0.66661107  0.66402294  1
  Nb  Nb0  1  0.99926380  0.99911181  0.14553789  1
  Nb  Nb1  1  0.33290708  0.67045088  0.31099625  1
  Nb  Nb2  1  0.33447159  0.66714012  0.81428142  1
  Si  Si0  1  0.29365329  0.00513267  0.25087842  1
  Si  Si1  1  0.71656285  0.70684156  0.25168499  1
  Si  Si2  1  0.98706403  0.28469428  0.25153380  1
  Si  Si3  1  0.28462445  0.27945292  0.74835288  1
  Si  Si4  1  0.99473144  0.71506139  0.74859285  1
  Si  Si5  1  0.72035120  0.00557239  0.74849342  1
  Si  Si6  1  0.95337423  0.33327405  0.58318018  1
  Si  Si7  1  0.37995441  0.04641374  0.58333529  1
  Si  Si8  1  0.66663565  0.62028111  0.58332254  1
  Si  Si9  1  0.95089425  0.61175112  0.08162858  1
  Si  Si10  1  0.66076734  0.04991880  0.08168482  1
  Si  Si11  1  0.38845764  0.33926818  0.08180993  1
  Si  Si12  1  0.62430300  0.66214140  0.91944075  1
  Si  Si13  1  0.04295359  0.37112083  0.91956454  1
  Si  Si14  1  0.33281031  0.96432839  0.91940038  1
  Si  Si15  1  0.62547078  0.95928840  0.41954589  1
  Si  Si16  1  0.33402206  0.37501034  0.41882526  1
  Si  Si17  1  0.04088666  0.66619557  0.41948553  1
  Ge  Ge0  1  0.99934858  0.00028286  0.35241620  1
  Ge  Ge1  1  0.00397796  0.00333146  0.85406311  1
  Ge  Ge2  1  0.00054899  0.00042803  0.64546444  1
  Ge  Ge3  1  0.66653284  0.33349610  0.68564839  1
  Ge  Ge4  1  0.67005645  0.33296693  0.18768611  1
  Ge  Ge5  1  0.66398642  0.33273708  0.97921169  1
  Ge  Ge6  1  0.66653002  0.33349452  0.48092416  1
  Ge  Ge7  1  0.33259862  0.66649041  0.01972982  1
  Ge  Ge8  1  0.33320341  0.66663322  0.51959368  1
  O  O0  1  0.20376055  0.04117480  0.31076410  1
  O  O1  1  0.83460600  0.79905135  0.31216204  1
  O  O2  1  0.96530978  0.16762801  0.31229466  1
  O  O3  1  0.19919284  0.15435252  0.80753782  1
  O  O4  1  0.95650083  0.79679354  0.80969443  1
  O  O5  1  0.83907456  0.04160690  0.80962473  1
  O  O6  1  0.80006792  0.96038790  0.68829108  1
  O  O7  1  0.16152568  0.20211249  0.68758412  1
  O  O8  1  0.03987093  0.83972607  0.68838177  1
  O  O9  1  0.79975266  0.82849846  0.19040523  1
  O  O10  1  0.03198461  0.20111547  0.19109616  1
  O  O11  1  0.17154285  0.97112802  0.19001135  1
  O  O12  1  0.87059993  0.37543842  0.64396256  1
  O  O13  1  0.50486991  0.12939762  0.64393863  1
  O  O14  1  0.62471159  0.49536009  0.64393433  1
  O  O15  1  0.86603830  0.48860354  0.14092279  1
  O  O16  1  0.62027577  0.13342609  0.14098300  1
  O  O17  1  0.50439518  0.37709976  0.14379351  1
  O  O18  1  0.47011716  0.29064683  0.02387812  1
  O  O19  1  0.82871288  0.53520703  0.02101764  1
  O  O20  1  0.70865611  0.17252898  0.02099356  1
  O  O21  1  0.46345003  0.17231825  0.52357595  1
  O  O22  1  0.70901044  0.53665863  0.52353555  1
  O  O23  1  0.82746846  0.29119764  0.52350951  1
  O  O24  1  0.53604886  0.70801050  0.97719858  1
  O  O25  1  0.16691735  0.46516654  0.97856657  1
  O  O26  1  0.29187659  0.83100949  0.97728052  1
  O  O27  1  0.53905783  0.82982151  0.47892391  1
  O  O28  1  0.29114687  0.46221265  0.47817237  1
  O  O29  1  0.17026511  0.70946641  0.47885643  1
  O  O30  1  0.13089084  0.62505859  0.36121413  1
  O  O31  1  0.49477649  0.86856430  0.36133443  1
  O  O32  1  0.37439070  0.49999348  0.35901972  1
  O  O33  1  0.12991572  0.49809482  0.85857568  1
  O  O34  1  0.36923811  0.87221862  0.85850343  1
  O  O35  1  0.50394914  0.63382738  0.85779075  1
  O  O36  1  0.02479561  0.84191076  0.41175296  1
  O  O37  1  0.81789028  0.97613562  0.41220491  1
  O  O38  1  0.15824976  0.18168111  0.41219520  1
  O  O39  1  0.01916588  0.17772861  0.91111837  1
  O  O40  1  0.15188855  0.96793497  0.91062159  1
  O  O41  1  0.81522450  0.84084026  0.91116658  1
  O  O42  1  0.97318155  0.15770107  0.58868488  1
  O  O43  1  0.18424847  0.02654300  0.58879550  1
  O  O44  1  0.84250892  0.81583618  0.58885411  1
  O  O45  1  0.97505353  0.80969432  0.08650937  1
  O  O46  1  0.83452293  0.02557039  0.08708078  1
  O  O47  1  0.19003144  0.16590952  0.08683482  1
  O  O48  1  0.69608121  0.17787594  0.74348819  1
  O  O49  1  0.48166044  0.30406648  0.74321555  1
  O  O50  1  0.82196528  0.51829594  0.74344784  1
  O  O51  1  0.68966005  0.51334213  0.24453561  1
  O  O52  1  0.81771982  0.30343712  0.24400473  1
  O  O53  1  0.48003117  0.18172484  0.24403932  1
  O  O54  1  0.64739667  0.49201741  0.92280237  1
  O  O55  1  0.85145592  0.35835520  0.92269177  1
  O  O56  1  0.51416408  0.14932623  0.92294548  1
  O  O57  1  0.64206954  0.15165737  0.42455507  1
  O  O58  1  0.50979282  0.35769647  0.42467448  1
  O  O59  1  0.84826056  0.49016262  0.42463081  1
  O  O60  1  0.36311651  0.51186977  0.07685639  1
  O  O61  1  0.14963292  0.63880743  0.07708487  1
  O  O62  1  0.48863001  0.85156687  0.07650826  1
  O  O63  1  0.36019768  0.85108883  0.57784464  1
  O  O64  1  0.49071143  0.63963817  0.57781188  1
  O  O65  1  0.14891619  0.50926386  0.57771833  1
  O  O66  1  0.30836559  0.82930038  0.25515335  1
  O  O67  1  0.52063587  0.68523682  0.25608123  1
  O  O68  1  0.17071042  0.47338135  0.25629040  1
  O  O69  1  0.30731656  0.47619925  0.75415713  1
  O  O70  1  0.16898371  0.69266678  0.75422758  1
  O  O71  1  0.52332968  0.83129856  0.75368807  1
loop_
_geom_bond_atom_site_label_1
_geom_bond_atom_site_label_2
_geom_bond_distance
_geom_bond_site_symmetry_2
Na0 O53 2.292723 1_555
Na0 O68 2.378916 1_555
Na0 O67 2.446166 1_555
Na0 O51 2.456509 1_555
Na0 O17 2.570341 1_555
Na0 O32 2.678241 1_555
Na0 O0 2.841309 1_555
Na0 O10 2.877476 1_555
Na1 O50 2.330514 1_555
Na1 O71 2.418626 1_555
Na1 O69 2.502977 1_555
Na1 O49 2.508233 1_555
Na1 O14 2.567342 1_555
Na1 O35 2.660475 1_555
Na1 O4 2.813977 1_555
Na1 O6 2.849104 1_555
Na2 O48 2.331824 1_555
Na2 O69 2.412351 1_655
Na2 O70 2.501491 1_655
Na2 O50 2.508040 1_555
Na2 O12 2.568681 1_555
Na2 O33 2.683126 1_655
Na2 O5 2.830045 1_555
Na2 O7 2.850082 1_655
Na3 O49 2.333616 1_555
Na3 O70 2.413383 1_545
Na3 O71 2.504501 1_545
Na3 O48 2.509558 1_555
Na3 O13 2.569172 1_555
Na3 O34 2.676413 1_545
Na3 O3 2.777080 1_555
Na3 O8 2.844356 1_545
Na4 O64 2.375840 1_555
Na4 O43 2.380474 1_555
Na4 O42 2.489940 1_455
Na4 O65 2.494700 1_555
Na4 O28 2.577809 1_555
Na4 O7 2.580811 1_555
Na4 O21 2.818289 1_555
Na4 O14 2.840979 1_555
Na5 O65 2.377425 1_555
Na5 O44 2.377829 1_455
Na5 O43 2.491214 1_565
Na5 O63 2.491271 1_555
Na5 O29 2.556595 1_555
Na5 O8 2.602919 1_555
Na5 O22 2.819218 1_455
Na5 O12 2.839433 1_455
Na6 O42 2.375893 1_565
Na6 O63 2.376278 1_555
Na6 O44 2.490934 1_555
Na6 O64 2.492871 1_555
Na6 O27 2.557674 1_555
Na6 O6 2.604674 1_555
Na6 O23 2.822663 1_565
Na6 O13 2.838592 1_565
Na7 O62 2.333540 1_555
Na7 O47 2.421308 1_565
Na7 O45 2.505878 1_455
Na7 O61 2.514455 1_555
Na7 O26 2.572218 1_554
Na7 O11 2.637453 1_555
Na7 O16 2.758563 1_565
Na7 O18 2.794454 1_565
Na8 O60 2.328064 1_555
Na8 O45 2.417649 1_555
Na8 O46 2.504131 1_565
Na8 O62 2.515899 1_555
Na8 O24 2.586086 1_554
Na8 O9 2.646170 1_555
Na8 O17 2.812153 1_555
Na8 O19 2.852691 1_555
Na9 O61 2.341108 1_555
Na9 O46 2.417473 1_455
Na9 O47 2.500153 1_555
Na9 O60 2.517023 1_555
Na9 O25 2.542344 1_554
Na9 O10 2.670451 1_555
Na9 O15 2.775913 1_455
Na9 O20 2.834877 1_455
Na10 O40 2.348414 1_655
Na10 O55 2.378567 1_555
Na10 O54 2.432796 1_555
Na10 O41 2.499915 1_555
Na10 O19 2.538989 1_556
Na10 O4 2.668485 1_555
Na10 O26 2.822170 1_655
Na10 O33 2.860262 1_655
Na11 O56 2.351994 1_555
Na11 O41 2.374798 1_545
Na11 O39 2.431966 1_655
Na11 O55 2.491027 1_555
Na11 O20 2.551670 1_556
Na11 O5 2.651830 1_555
Na11 O24 2.811885 1_545
Na11 O34 2.869934 1_545
Na12 O38 2.395131 1_655
Na12 O59 2.397514 1_555
Na12 O37 2.479000 1_545
Na12 O57 2.491738 1_555
Na12 O2 2.547557 1_555
Na12 O23 2.642061 1_555
Na12 O30 2.769561 1_655
Na12 O28 2.840016 1_655
Na13 O36 2.388044 1_545
Na13 O57 2.394715 1_555
Na13 O38 2.470783 1_555
Na13 O58 2.483798 1_555
Na13 O0 2.595030 1_555
Na13 O21 2.635328 1_555
Na13 O31 2.783374 1_545
Na13 O29 2.846392 1_545
Na14 O58 2.396440 1_555
Na14 O37 2.396799 1_555
Na14 O36 2.483535 1_655
Na14 O59 2.492729 1_555
Na14 O1 2.556395 1_555
Na14 O22 2.645461 1_555
Na14 O32 2.794027 1_555
Na14 O27 2.847378 1_555
Na15 O38 2.437987 1_555
Na15 O37 2.443835 1_445
Na15 O36 2.449963 1_545
Na15 O42 2.479779 1_455
Na15 O44 2.481819 1_445
Na15 O43 2.483989 1_555
Na16 O39 2.377907 1_555
Na16 O40 2.392123 1_545
Na16 O41 2.465290 1_445
Na16 O47 2.493508 1_556
Na16 O45 2.553816 1_446
Na16 O46 2.558607 1_456
Na17 O54 2.406674 1_555
Na17 O56 2.418105 1_555
Na17 O55 2.492860 1_555
Na17 O49 2.498762 1_555
Na17 O50 2.547078 1_555
Na17 O48 2.549251 1_555
Na18 O52 2.358060 1_555
Na18 O51 2.417823 1_555
Na18 O53 2.443702 1_555
Na18 O59 2.548440 1_555
Na18 O57 2.553129 1_555
Na18 O58 2.600189 1_555
Na19 O66 2.460004 1_555
Na19 O61 2.460403 1_555
Na19 O62 2.466373 1_555
Na19 O60 2.512929 1_555
Na19 O67 2.546614 1_555
Na19 O68 2.555099 1_555
Na20 O64 2.426374 1_555
Na20 O63 2.430328 1_555
Na20 O65 2.430812 1_555
Na20 O71 2.523571 1_555
Na20 O70 2.528174 1_555
Na20 O69 2.532987 1_555
Nb0 O9 1.920482 1_555
Nb0 O11 1.928118 1_655
Nb0 O10 1.938143 1_665
Nb0 O45 2.041318 1_555
Nb0 O46 2.041985 1_565
Nb0 O47 2.044989 1_665
Nb1 O31 1.957132 1_555
Nb1 O66 1.957838 1_555
Nb1 O30 1.958938 1_555
Nb1 O67 1.998794 1_555
Nb1 O68 2.008782 1_555
Nb1 O32 2.019580 1_555
Nb2 O35 1.921479 1_555
Nb2 O33 1.933616 1_555
Nb2 O34 1.940866 1_555
Nb2 O71 2.056474 1_555
Nb2 O69 2.059128 1_555
Nb2 O70 2.065392 1_555
Ge0 O1 1.864697 1_545
Ge0 O2 1.873156 1_555
Ge0 O0 1.889400 1_655
Ge0 O37 1.996315 1_545
Ge0 O38 2.003354 1_655
Ge0 O36 2.007200 1_645
Ge1 O3 1.868558 1_555
Ge1 O5 1.921417 1_455
Ge1 O4 1.921660 1_445
Ge1 O39 1.937250 1_555
Ge1 O40 1.940216 1_545
Ge1 O41 2.003065 1_445
Ge2 O6 1.874452 1_445
Ge2 O7 1.876944 1_555
Ge2 O8 1.878570 1_545
Ge2 O43 1.962220 1_555
Ge2 O44 1.969480 1_445
Ge2 O42 1.971860 1_455
Ge3 O12 1.884495 1_555
Ge3 O13 1.886528 1_555
Ge3 O14 1.886951 1_555
Ge3 O49 1.974160 1_555
Ge3 O50 1.980258 1_555
Ge3 O48 1.984700 1_555
Ge4 O15 1.885897 1_555
Ge4 O16 1.892084 1_555
Ge4 O52 1.909737 1_555
Ge4 O17 1.950503 1_555
Ge4 O51 1.962238 1_555
Ge4 O53 1.970678 1_555
Ge5 O18 1.841151 1_556
Ge5 O19 1.887152 1_556
Ge5 O20 1.889762 1_556
Ge5 O54 1.936514 1_555
Ge5 O56 1.939241 1_555
Ge5 O55 1.987211 1_555
Ge6 O21 1.887985 1_555
Ge6 O22 1.888914 1_555
Ge6 O23 1.891343 1_555
Ge6 O59 1.947232 1_555
Ge6 O58 1.947505 1_555
Ge6 O57 1.952243 1_555
Ge7 O25 1.877204 1_554
Ge7 O24 1.889906 1_554
Ge7 O26 1.909381 1_554
Ge7 O61 1.962769 1_555
Ge7 O62 1.968689 1_555
Ge7 O60 1.972126 1_555
Ge8 O27 1.886169 1_555
Ge8 O28 1.886771 1_555
Ge8 O29 1.889622 1_555
Ge8 O65 1.985199 1_555
Ge8 O63 1.989599 1_555
Ge8 O64 1.991867 1_555
O0 Si0 1.644551 1_555
O1 Si1 1.632039 1_555
O2 Si2 1.639226 1_555
O3 Si3 1.625175 1_555
O4 Si4 1.634482 1_555
O5 Si5 1.633853 1_555
O6 Si5 1.635437 1_565
O7 Si3 1.638905 1_555
O8 Si4 1.636719 1_455
O9 Si1 1.646427 1_555
O10 Si2 1.658056 1_455
O11 Si0 1.648246 1_565
O12 Si6 1.648532 1_555
O13 Si7 1.648072 1_555
O14 Si8 1.648027 1_555
O15 Si9 1.618756 1_555
O16 Si10 1.619934 1_555
O17 Si11 1.634189 1_555
O18 Si11 1.620014 1_555
O19 Si9 1.631796 1_555
O20 Si10 1.633277 1_555
O21 Si7 1.636488 1_555
O22 Si8 1.636590 1_555
O23 Si6 1.636841 1_555
O24 Si12 1.639470 1_555
O25 Si13 1.630111 1_555
O26 Si14 1.645280 1_555
O27 Si15 1.647222 1_555
O28 Si16 1.649151 1_555
O29 Si17 1.648020 1_555
O30 Si17 1.637540 1_555
O31 Si15 1.638138 1_555
O32 Si16 1.635743 1_555
O33 Si13 1.665877 1_555
O34 Si14 1.675775 1_555
O35 Si12 1.661389 1_555
O36 Si17 1.640151 1_555
O37 Si15 1.639499 1_555
O38 Si16 1.643924 1_555
O39 Si13 1.627060 1_555
O40 Si14 1.627898 1_555
O41 Si12 1.646359 1_555
O42 Si6 1.653236 1_555
O43 Si7 1.653608 1_555
O44 Si8 1.653594 1_555
O45 Si9 1.658739 1_555
O46 Si10 1.659383 1_555
O47 Si11 1.658040 1_555
O48 Si5 1.646842 1_555
O49 Si3 1.647698 1_555
O50 Si4 1.648052 1_555
O51 Si1 1.614275 1_555
O52 Si2 1.595943 1_555
O53 Si0 1.613050 1_555
O54 Si12 1.619459 1_555
O55 Si13 1.640970 1_655
O56 Si14 1.621734 1_545
O57 Si15 1.637675 1_545
O58 Si16 1.641687 1_555
O59 Si17 1.638286 1_655
O60 Si11 1.655023 1_555
O61 Si9 1.653329 1_455
O62 Si10 1.654288 1_565
O63 Si7 1.652559 1_565
O64 Si8 1.652787 1_555
O65 Si6 1.653270 1_455
O66 Si0 1.628143 1_565
O67 Si1 1.647725 1_555
O68 Si2 1.649862 1_455
O69 Si3 1.654867 1_555
O70 Si4 1.653930 1_455
O71 Si5 1.654196 1_565
