# generated using pymatgen
data_Ba(P2Pd)2
_symmetry_space_group_name_H-M   'P 1'
_cell_length_a   5.68686857
_cell_length_b   5.68686791
_cell_length_c   5.68686790
_cell_angle_alpha   106.01345933
_cell_angle_beta   106.01346438
_cell_angle_gamma   116.63297086
_symmetry_Int_Tables_number   1
_chemical_formula_structural   Ba(P2Pd)2
_chemical_formula_sum   'Ba1 P4 Pd2'
_cell_volume   139.89976608
_cell_formula_units_Z   1
loop_
 _symmetry_equiv_pos_site_id
 _symmetry_equiv_pos_as_xyz
  1  'x, y, z'
loop_
 _atom_site_type_symbol
 _atom_site_label
 _atom_site_symmetry_multiplicity
 _atom_site_fract_x
 _atom_site_fract_y
 _atom_site_fract_z
 _atom_site_occupancy
  Ba  Ba0  1  0.00000000  0.00000000  -0.00000000  1
  P  P0  1  0.50000000  0.27381488  0.77381488  1
  P  P1  1  0.27381488  0.50000000  0.77381488  1
  P  P2  1  0.72618512  0.50000000  0.22618512  1
  P  P3  1  0.50000000  0.72618512  0.22618512  1
  Pd  Pd0  1  0.75000000  0.25000000  0.50000000  1
  Pd  Pd1  1  0.25000000  0.75000000  0.50000000  1
loop_
_geom_bond_atom_site_label_1
_geom_bond_atom_site_label_2
_geom_bond_distance
_geom_bond_site_symmetry_2
Ba0 P1 3.364187 1_554
Ba0 P2 3.364187 1_445
Ba0 P3 3.364187 1_555
Ba0 P0 3.364187 1_444
Ba0 P0 3.364187 1_554
Ba0 P3 3.364187 1_445
Ba0 P1 3.364188 1_444
Ba0 P2 3.364188 1_555
Ba0 Pd1 3.733610 1_545
Ba0 Pd0 3.733610 1_454
Ba0 Pd1 3.733611 1_555
Ba0 Pd0 3.733611 1_444
Ba0 Pd1 3.733611 1_544
Ba0 Pd0 3.733611 1_455
Ba0 Pd1 3.733611 1_444
Ba0 Pd0 3.733611 1_555
Ba0 P0 3.901424 1_555
Ba0 P3 3.901424 1_444
Ba0 P2 3.901424 1_444
Ba0 P1 3.901424 1_555
Ba0 P3 3.901424 1_545
Ba0 P0 3.901424 1_454
Ba0 P2 3.901424 1_455
Ba0 P1 3.901424 1_544
P0 P2 2.189160 1_556
P0 P1 2.189160 1_555
P0 Pd1 2.396254 1_545
P0 Pd0 2.396254 1_555
P1 P3 2.189160 1_556
P1 Pd1 2.396254 1_555
P1 Pd0 2.396255 1_455
P2 P3 2.189160 1_555
P2 Pd0 2.396254 1_555
P2 Pd1 2.396255 1_655
P3 Pd0 2.396254 1_565
P3 Pd1 2.396254 1_555
