# generated using pymatgen
data_Na6Mg(BiO4)2
_symmetry_space_group_name_H-M   'P 1'
_cell_length_a   6.24807071
_cell_length_b   6.06138135
_cell_length_c   6.94813160
_cell_angle_alpha   91.76360308
_cell_angle_beta   91.88596754
_cell_angle_gamma   112.20393657
_symmetry_Int_Tables_number   1
_chemical_formula_structural   Na6Mg(BiO4)2
_chemical_formula_sum   'Na6 Mg1 Bi2 O8'
_cell_volume   243.22840619
_cell_formula_units_Z   1
loop_
 _symmetry_equiv_pos_site_id
 _symmetry_equiv_pos_as_xyz
  1  'x, y, z'
loop_
 _atom_site_type_symbol
 _atom_site_label
 _atom_site_symmetry_multiplicity
 _atom_site_fract_x
 _atom_site_fract_y
 _atom_site_fract_z
 _atom_site_occupancy
  Na  Na0  1  0.75740226  0.03370353  0.37839465  1
  Na  Na1  1  0.24554350  0.48601121  0.42427404  1
  Na  Na2  1  0.63151085  0.55390016  0.18962230  1
  Na  Na3  1  0.34953377  0.47616067  0.80786595  1
  Na  Na4  1  0.25955515  0.97641551  0.62126067  1
  Na  Na5  1  0.79133672  0.51788751  0.59677389  1
  Mg  Mg0  1  0.05321527  0.53735674  0.06521417  1
  Bi  Bi0  1  0.76143699  0.99705145  0.84373078  1
  Bi  Bi1  1  0.26536809  0.02238768  0.13765148  1
  O  O0  1  0.98749523  0.26198598  0.66456881  1
  O  O1  1  0.56182381  0.75743756  0.60729966  1
  O  O2  1  0.01727780  0.73337335  0.30261712  1
  O  O3  1  0.46719712  0.22273769  0.37705866  1
  O  O4  1  0.50718677  0.23204224  0.93656063  1
  O  O5  1  0.01651896  0.78791344  0.89087070  1
  O  O6  1  0.04279132  0.22562867  0.14277397  1
  O  O7  1  0.39939039  0.74050664  0.09679551  1
loop_
_geom_bond_atom_site_label_1
_geom_bond_atom_site_label_2
_geom_bond_distance
_geom_bond_site_symmetry_2
Na0 O1 2.360553 1_545
Na0 O6 2.440207 1_655
Na0 O0 2.464564 1_555
Na0 O3 2.484060 1_555
Na0 O2 2.908424 1_645
Na0 O7 2.912653 1_545
Na1 O1 2.340428 1_555
Na1 O0 2.427547 1_455
Na1 O6 2.461111 1_555
Na1 O3 2.498043 1_555
Na1 O2 2.571298 1_555
Na1 O7 2.778517 1_555
Na2 O7 2.240967 1_555
Na2 O2 2.334622 1_655
Na2 O3 2.338949 1_555
Na2 O4 2.460618 1_554
Na3 O4 2.254869 1_555
Na3 O1 2.273068 1_555
Na3 O0 2.312179 1_455
Na3 O7 2.465390 1_556
Na4 O3 2.372363 1_565
Na4 O5 2.475519 1_555
Na4 O1 2.690113 1_555
Na4 O2 2.693805 1_555
Na4 O4 2.711104 1_565
Na4 O0 2.863860 1_465
Na5 O0 2.360888 1_555
Na5 O1 2.396699 1_555
Na5 O3 2.553955 1_555
Na5 O5 2.588128 1_655
Na5 O2 2.614724 1_655
Mg0 O6 1.958786 1_555
Mg0 O7 2.044947 1_555
Mg0 O5 2.045633 1_554
Mg0 O2 2.070829 1_555
Bi0 O0 2.155891 1_565
Bi0 O1 2.170895 1_555
Bi0 O5 2.402616 1_655
Bi0 O4 2.586403 1_565
Bi0 O6 2.658693 1_666
Bi1 O3 2.100509 1_555
Bi1 O4 2.155685 1_554
Bi1 O6 2.179056 1_555
Bi1 O7 2.183626 1_545
Bi1 O2 2.230156 1_545
Bi1 O5 2.319878 1_544
