# generated using pymatgen
data_Ba2LaMgNbO6
_symmetry_space_group_name_H-M   'P 1'
_cell_length_a   5.95292178
_cell_length_b   5.95292178
_cell_length_c   7.00469350
_cell_angle_alpha   90.26068816
_cell_angle_beta   114.50914644
_cell_angle_gamma   120.43186995
_symmetry_Int_Tables_number   1
_chemical_formula_structural   Ba2LaMgNbO6
_chemical_formula_sum   'Ba2 La1 Mg1 Nb1 O6'
_cell_volume   187.31217329
_cell_formula_units_Z   1
loop_
 _symmetry_equiv_pos_site_id
 _symmetry_equiv_pos_as_xyz
  1  'x, y, z'
loop_
 _atom_site_type_symbol
 _atom_site_label
 _atom_site_symmetry_multiplicity
 _atom_site_fract_x
 _atom_site_fract_y
 _atom_site_fract_z
 _atom_site_occupancy
  Ba  Ba0  1  0.96497244  0.79525157  0.76022300  1
  Ba  Ba1  1  0.09197361  0.36365292  0.45562753  1
  La  La0  1  0.36821766  0.98366492  0.35188258  1
  Mg  Mg0  1  0.72569600  0.18876719  0.91446318  1
  Nb  Nb0  1  0.51400931  0.53716947  0.05117878  1
  O  O0  1  0.43855351  0.21377555  0.65233006  1
  O  O1  1  0.58352764  0.72993630  0.31346294  1
  O  O2  1  0.06547141  0.31117044  0.83589771  1
  O  O3  1  0.49879475  0.18004485  0.10201826  1
  O  O4  1  0.92197340  0.60322350  0.10201826  1
  O  O5  1  0.52472727  0.77042629  0.83589771  1
loop_
_geom_bond_atom_site_label_1
_geom_bond_atom_site_label_2
_geom_bond_distance
_geom_bond_site_symmetry_2
Ba0 O3 2.709472 1_666
Ba0 O4 2.709476 1_556
Ba0 O2 2.816392 1_665
Ba0 O5 2.816395 1_555
Ba0 O1 2.880869 1_555
Ba0 O0 3.065257 1_665
Ba0 O0 3.065268 1_555
Ba0 O5 3.231149 1_655
Ba0 O2 3.231151 1_655
Ba1 O0 2.543330 1_555
Ba1 O2 2.742986 1_555
Ba1 O5 2.742989 1_555
Ba1 O3 2.933883 1_455
Ba1 O4 2.933885 1_455
Ba1 O1 3.206616 1_445
Ba1 O1 3.206627 1_555
La0 O0 2.267707 1_565
La0 O3 2.293680 1_565
La0 O4 2.293680 1_455
La0 O1 2.498056 1_555
Mg0 O0 1.992918 1_555
Mg0 O2 2.087846 1_655
Mg0 O5 2.087846 1_545
Mg0 O4 2.225983 1_556
Mg0 O3 2.225983 1_556
Nb0 O1 1.931938 1_555
Nb0 O5 2.053119 1_554
Nb0 O2 2.053119 1_554
Nb0 O4 2.119720 1_555
Nb0 O3 2.119720 1_555
