# generated using pymatgen
data_V2FeO4
_symmetry_space_group_name_H-M   'P 1'
_cell_length_a   6.07719523
_cell_length_b   6.09711393
_cell_length_c   6.08560431
_cell_angle_alpha   119.49611667
_cell_angle_beta   90.45951885
_cell_angle_gamma   119.69626222
_symmetry_Int_Tables_number   1
_chemical_formula_structural   V2FeO4
_chemical_formula_sum   'V4 Fe2 O8'
_cell_volume   160.74549062
_cell_formula_units_Z   2
loop_
 _symmetry_equiv_pos_site_id
 _symmetry_equiv_pos_as_xyz
  1  'x, y, z'
loop_
 _atom_site_type_symbol
 _atom_site_label
 _atom_site_symmetry_multiplicity
 _atom_site_fract_x
 _atom_site_fract_y
 _atom_site_fract_z
 _atom_site_occupancy
  V  V0  1  0.99951800  0.49952700  0.99969500  1
  V  V1  1  0.99978100  0.49925300  0.49993700  1
  V  V2  1  0.00054900  0.00094100  0.50033900  1
  V  V3  1  0.50024600  0.00092300  0.50092600  1
  Fe  Fe0  1  0.62535100  0.75052300  0.87586600  1
  Fe  Fe1  1  0.37508200  0.24999900  0.12466600  1
  O  O0  1  0.21476500  0.47500400  0.74274000  1
  O  O1  1  0.24026900  0.52608000  0.26227600  1
  O  O2  1  0.23682300  0.97080000  0.71485300  1
  O  O3  1  0.23771500  0.97754100  0.26209900  1
  O  O4  1  0.76133000  0.02678400  0.28444800  1
  O  O5  1  0.76134300  0.01883400  0.73486600  1
  O  O6  1  0.78545300  0.52759100  0.25973200  1
  O  O7  1  0.76177500  0.47620100  0.73755400  1
loop_
_geom_bond_atom_site_label_1
_geom_bond_atom_site_label_2
_geom_bond_distance
_geom_bond_site_symmetry_2
Fe0 O5 2.037068 1_565
Fe0 O4 2.041144 1_566
Fe0 O0 2.044190 1_555
Fe0 O7 2.047474 1_555
Fe1 O3 2.039935 1_545
Fe1 O6 2.043236 1_555
Fe1 O2 2.047494 1_544
Fe1 O1 2.048246 1_555
O0 V0 2.043301 1_455
O0 V2 2.065821 1_555
O0 V1 2.070667 1_455
O1 V0 2.047776 1_454
O1 V3 2.068337 1_565
O1 V1 2.069912 1_455
O2 V1 2.053080 1_455
O2 V2 2.065757 1_565
O2 V3 2.066149 1_565
O3 V3 2.052216 1_565
O3 V2 2.057499 1_565
O3 V0 2.083160 1_454
O4 V1 2.057064 1_555
O4 V2 2.065098 1_655
O4 V3 2.065935 1_555
O5 V3 2.048284 1_555
O5 V2 2.049206 1_655
O5 V0 2.095314 1_555
O6 V0 2.052520 1_554
O6 V2 2.062069 1_665
O6 V1 2.074700 1_555
O7 V0 2.046622 1_555
O7 V1 2.057950 1_555
O7 V3 2.070716 1_555
