# generated using pymatgen
data_Ba2YMgMn2TlO7
_symmetry_space_group_name_H-M   'P 1'
_cell_length_a   4.03957050
_cell_length_b   3.82031036
_cell_length_c   16.04626571
_cell_angle_alpha   89.99819569
_cell_angle_beta   90.19959971
_cell_angle_gamma   89.97893868
_symmetry_Int_Tables_number   1
_chemical_formula_structural   Ba2YMgMn2TlO7
_chemical_formula_sum   'Ba2 Y1 Mg1 Mn2 Tl1 O7'
_cell_volume   247.63108024
_cell_formula_units_Z   1
loop_
 _symmetry_equiv_pos_site_id
 _symmetry_equiv_pos_as_xyz
  1  'x, y, z'
loop_
 _atom_site_type_symbol
 _atom_site_label
 _atom_site_symmetry_multiplicity
 _atom_site_fract_x
 _atom_site_fract_y
 _atom_site_fract_z
 _atom_site_occupancy
  Ba  Ba0  1  0.49586257  0.49983351  0.24785585  1
  Ba  Ba1  1  0.50122351  0.50016463  0.73861820  1
  Y  Y0  1  0.49967405  0.50006277  0.50096020  1
  Mg  Mg0  1  0.50538348  0.99967680  0.05476212  1
  Mn  Mn0  1  0.99818329  -0.00004507  0.38496694  1
  Mn  Mn1  1  0.00001565  0.00030909  0.62245348  1
  Tl  Tl0  1  0.00329766  0.00004921  0.90768337  1
  O  O0  1  0.99636934  0.99990560  0.25917996  1
  O  O1  1  0.99879641  0.49992789  0.43358670  1
  O  O2  1  0.49859220  -0.00000573  0.41184193  1
  O  O3  1  0.49962720  0.00025787  0.59697128  1
  O  O4  1  0.50208113  0.49968510  0.08305942  1
  O  O5  1  0.99950067  0.50011523  0.60752976  1
  O  O6  1  0.00139184  0.00006410  0.76053079  1
loop_
_geom_bond_atom_site_label_1
_geom_bond_atom_site_label_2
_geom_bond_distance
_geom_bond_site_symmetry_2
Ba0 O4 2.644574 1_555
Ba0 O0 2.784560 1_455
Ba0 O0 2.785192 1_445
Ba0 O0 2.786224 1_545
Ba0 O0 2.787628 1_555
Ba1 O6 2.801472 1_655
Ba1 O6 2.801749 1_565
Ba1 O6 2.801976 1_665
Ba1 O6 2.803269 1_555
Ba1 O5 2.915925 1_455
Ba1 O5 2.916435 1_555
Ba1 O3 2.968779 1_555
Ba1 O3 2.969142 1_565
Mg0 O4 1.963398 1_555
Mg0 O4 1.963478 1_565
Mn0 O0 2.018399 1_545
Mn0 O1 2.063261 1_555
Mn0 O1 2.063405 1_545
Mn0 O2 2.065163 1_555
Mn0 O2 2.065455 1_655
Mn1 O5 1.924365 1_455
Mn1 O5 1.925851 1_445
Mn1 O3 2.060616 1_555
Mn1 O3 2.060900 1_455
Mn1 O6 2.215613 1_555
O1 Y0 2.290718 1_655
O1 Y0 2.291107 1_555
O2 Y0 2.385882 1_545
O2 Y0 2.386376 1_555
O3 Y0 2.453400 1_555
O3 Y0 2.454636 1_545
O5 Y0 2.641382 1_555
O5 Y0 2.651544 1_655
O6 Tl0 2.361235 1_555
