# generated using pymatgen
data_Na7Mg4P3(SO8)3
_symmetry_space_group_name_H-M   'P 1'
_cell_length_a   8.95779408
_cell_length_b   8.95238255
_cell_length_c   22.10878537
_cell_angle_alpha   89.82190308
_cell_angle_beta   90.12174072
_cell_angle_gamma   120.05390277
_symmetry_Int_Tables_number   1
_chemical_formula_structural   Na7Mg4P3(SO8)3
_chemical_formula_sum   'Na21 Mg12 P9 S9 O72'
_cell_volume   1534.60596814
_cell_formula_units_Z   3
loop_
 _symmetry_equiv_pos_site_id
 _symmetry_equiv_pos_as_xyz
  1  'x, y, z'
loop_
 _atom_site_type_symbol
 _atom_site_label
 _atom_site_symmetry_multiplicity
 _atom_site_fract_x
 _atom_site_fract_y
 _atom_site_fract_z
 _atom_site_occupancy
  Na  Na0  1  0.63437786  0.00529652  0.25335568  1
  Na  Na1  1  0.35689031  0.35616726  0.24638903  1
  Na  Na2  1  0.00791802  0.63512368  0.25135300  1
  Na  Na3  1  0.63634176  0.64123219  0.74533981  1
  Na  Na4  1  0.99587058  0.35754859  0.75365065  1
  Na  Na5  1  0.02428478  0.69721236  0.57988107  1
  Na  Na6  1  0.66553526  0.95899525  0.58378207  1
  Na  Na7  1  0.30185971  0.97578483  0.08209937  1
  Na  Na8  1  0.04107091  0.33378196  0.08324211  1
  Na  Na9  1  0.97866116  0.66682474  0.91708349  1
  Na  Na10  1  0.69762625  0.03709884  0.91265156  1
  Na  Na11  1  0.32744065  0.29425099  0.92039783  1
  Na  Na12  1  0.96204849  0.30083267  0.41308604  1
  Na  Na13  1  0.33229399  0.02256717  0.41444413  1
  Na  Na14  1  0.70534219  0.67322674  0.42080443  1
  Na  Na15  1  0.99664590  0.99526347  0.50002463  1
  Na  Na16  1  0.00543873  0.00378854  0.00031976  1
  Na  Na17  1  0.65823580  0.31188208  0.83271252  1
  Na  Na18  1  0.67084280  0.32675964  0.33326735  1
  Na  Na19  1  0.33688630  0.66053651  0.16606616  1
  Na  Na20  1  0.34616936  0.67144132  0.66663580  1
  Mg  Mg0  1  0.00015088  0.00105318  0.34904945  1
  Mg  Mg1  1  0.00273780  0.00767981  0.84978449  1
  Mg  Mg2  1  0.99411944  0.99760408  0.65041985  1
  Mg  Mg3  1  0.00892441  0.00717239  0.15095646  1
  Mg  Mg4  1  0.65753151  0.32659597  0.68315986  1
  Mg  Mg5  1  0.66015638  0.33029020  0.18292192  1
  Mg  Mg6  1  0.66043425  0.32789000  0.98363148  1
  Mg  Mg7  1  0.67040439  0.33835887  0.48385325  1
  Mg  Mg8  1  0.33313453  0.66124800  0.01562260  1
  Mg  Mg9  1  0.34018358  0.66730763  0.51595286  1
  Mg  Mg10  1  0.32705178  0.67177292  0.31745455  1
  Mg  Mg11  1  0.33472758  0.67985439  0.81717032  1
  P  P0  1  0.29526072  0.99952030  0.25001406  1
  P  P1  1  0.99992932  0.29607840  0.24970682  1
  P  P2  1  0.70273781  0.99979559  0.74974532  1
  P  P3  1  0.66443640  0.62654918  0.58413578  1
  P  P4  1  0.37307005  0.33738499  0.08345041  1
  P  P5  1  0.03823747  0.37256507  0.91628005  1
  P  P6  1  0.33290370  0.96039366  0.91793662  1
  P  P7  1  0.62953867  0.96257643  0.41680966  1
  P  P8  1  0.03746179  0.66597609  0.41756404  1
  S  S0  1  0.70793785  0.70748157  0.24993090  1
  S  S1  1  0.29420221  0.29237053  0.75019875  1
  S  S2  1  0.00210977  0.70694100  0.74976731  1
  S  S3  1  0.96278756  0.33414306  0.58370851  1
  S  S4  1  0.37206264  0.04150259  0.58288284  1
  S  S5  1  0.95740251  0.62742863  0.08333972  1
  S  S6  1  0.66693489  0.03651566  0.08350221  1
  S  S7  1  0.62628444  0.66656893  0.91609873  1
  S  S8  1  0.33323749  0.37437903  0.41638538  1
  O  O0  1  0.21312154  0.03001512  0.30654154  1
  O  O1  1  0.81189705  0.78283054  0.30533816  1
  O  O2  1  0.96657245  0.18237204  0.30643992  1
  O  O3  1  0.21808826  0.19105206  0.80582666  1
  O  O4  1  0.97480447  0.78706286  0.80408868  1
  O  O5  1  0.81701433  0.02966998  0.80657520  1
  O  O6  1  0.78804381  0.97164944  0.69313887  1
  O  O7  1  0.18378379  0.20857500  0.69715714  1
  O  O8  1  0.02654869  0.81209531  0.69508970  1
  O  O9  1  0.78919943  0.81854380  0.19691443  1
  O  O10  1  0.02674660  0.21220397  0.19304843  1
  O  O11  1  0.18031022  0.96542012  0.19370610  1
  O  O12  1  0.88215644  0.36176638  0.63798560  1
  O  O13  1  0.48364454  0.12222229  0.63530179  1
  O  O14  1  0.64472767  0.52016349  0.64155367  1
  O  O15  1  0.87757021  0.51891689  0.13754152  1
  O  O16  1  0.64002500  0.11755417  0.13775456  1
  O  O17  1  0.47899822  0.35824160  0.14089999  1
  O  O18  1  0.45611063  0.30685058  0.02705670  1
  O  O19  1  0.85613408  0.54600773  0.02828131  1
  O  O20  1  0.69792079  0.14679070  0.02916086  1
  O  O21  1  0.44873662  0.14143057  0.52698048  1
  O  O22  1  0.69445705  0.54421786  0.52746659  1
  O  O23  1  0.85302255  0.30296182  0.52946614  1
  O  O24  1  0.54753559  0.69786649  0.96879138  1
  O  O25  1  0.15128509  0.45392587  0.97270954  1
  O  O26  1  0.30233324  0.85134161  0.97610044  1
  O  O27  1  0.54793514  0.84932895  0.47328247  1
  O  O28  1  0.30394453  0.45502709  0.46908311  1
  O  O29  1  0.15005441  0.69471202  0.47427398  1
  O  O30  1  0.11730439  0.63295249  0.36105093  1
  O  O31  1  0.51861600  0.87976796  0.35982845  1
  O  O32  1  0.36365167  0.47992084  0.36101382  1
  O  O33  1  0.12054910  0.48341399  0.85916750  1
  O  O34  1  0.36742805  0.87728776  0.86396352  1
  O  O35  1  0.52058188  0.63491312  0.86101339  1
  O  O36  1  0.01997524  0.83077572  0.41137517  1
  O  O37  1  0.81370213  0.98478718  0.41146290  1
  O  O38  1  0.17715345  0.19851852  0.41101215  1
  O  O39  1  0.01579628  0.18785488  0.91145392  1
  O  O40  1  0.16738397  0.97741382  0.91055480  1
  O  O41  1  0.80333643  0.82181491  0.90983158  1
  O  O42  1  0.98032892  0.17787630  0.58997872  1
  O  O43  1  0.19564553  0.01885216  0.58989735  1
  O  O44  1  0.83288105  0.81152710  0.58808263  1
  O  O45  1  0.97848526  0.80299687  0.08879334  1
  O  O46  1  0.82294099  0.01916567  0.08983984  1
  O  O47  1  0.18823967  0.16928488  0.08720813  1
  O  O48  1  0.69122429  0.16732524  0.74321693  1
  O  O49  1  0.47154060  0.31845903  0.74450811  1
  O  O50  1  0.84226149  0.53143518  0.74467837  1
  O  O51  1  0.69043263  0.53290737  0.24384395  1
  O  O52  1  0.83909260  0.32026778  0.24337792  1
  O  O53  1  0.47794168  0.16398798  0.24435168  1
  O  O54  1  0.64770553  0.51154813  0.92311927  1
  O  O55  1  0.85571652  0.35495651  0.92281040  1
  O  O56  1  0.49448959  0.14596706  0.92281352  1
  O  O57  1  0.64579249  0.14448686  0.42304961  1
  O  O58  1  0.48804615  0.35322532  0.42297032  1
  O  O59  1  0.85325603  0.50365038  0.42267596  1
  O  O60  1  0.34629157  0.49566282  0.07837624  1
  O  O61  1  0.13454778  0.64736266  0.07921011  1
  O  O62  1  0.50769542  0.86569987  0.07699759  1
  O  O63  1  0.35095617  0.86351483  0.57857339  1
  O  O64  1  0.50625325  0.65353606  0.57906495  1
  O  O65  1  0.13431359  0.49303921  0.57701397  1
  O  O66  1  0.31840473  0.83821559  0.25491052  1
  O  O67  1  0.53144322  0.68515425  0.25584819  1
  O  O68  1  0.16678637  0.47680745  0.25554688  1
  O  O69  1  0.31058246  0.46803379  0.75498899  1
  O  O70  1  0.15244584  0.68046315  0.75478167  1
  O  O71  1  0.52485093  0.83177343  0.75550170  1
loop_
_geom_bond_atom_site_label_1
_geom_bond_atom_site_label_2
_geom_bond_distance
_geom_bond_site_symmetry_2
Na0 O66 2.451395 1_545
Na0 O53 2.452089 1_555
Na0 O52 2.486165 1_555
Na0 O67 2.533704 1_545
Na0 O31 2.589620 1_545
Na0 O16 2.734649 1_555
Na0 O2 2.831458 1_555
Na0 O9 2.935721 1_545
Na1 O68 2.439741 1_555
Na1 O53 2.450951 1_555
Na1 O67 2.559821 1_555
Na1 O17 2.574165 1_555
Na1 O51 2.588176 1_555
Na1 O32 2.757340 1_555
Na1 O10 2.823949 1_555
Na1 O0 2.858207 1_555
Na2 O66 2.445875 1_555
Na2 O52 2.448580 1_455
Na2 O68 2.462010 1_555
Na2 O51 2.518994 1_455
Na2 O30 2.617482 1_555
Na2 O15 2.750302 1_455
Na2 O11 2.857237 1_555
Na2 O1 2.932702 1_455
Na3 O71 2.380622 1_555
Na3 O50 2.487002 1_555
Na3 O49 2.501377 1_555
Na3 O69 2.536437 1_555
Na3 O14 2.557977 1_555
Na3 O35 2.751435 1_555
Na3 O6 2.808501 1_555
Na3 O4 2.934775 1_555
Na4 O48 2.396953 1_555
Na4 O69 2.476598 1_655
Na4 O70 2.502786 1_655
Na4 O50 2.549208 1_555
Na4 O33 2.589201 1_655
Na4 O12 2.757757 1_555
Na4 O5 2.797882 1_555
Na4 O7 2.905174 1_655
Na5 O44 2.404141 1_455
Na5 O65 2.474248 1_555
Na5 O43 2.504362 1_565
Na5 O63 2.533124 1_555
Na5 O29 2.599621 1_555
Na5 O8 2.746122 1_555
Na5 O22 2.808932 1_455
Na5 O12 2.905655 1_455
Na6 O64 2.370165 1_555
Na6 O44 2.445396 1_555
Na6 O63 2.504249 1_555
Na6 O42 2.505100 1_565
Na6 O6 2.632211 1_555
Na6 O27 2.647635 1_555
Na6 O13 2.913844 1_565
Na6 O23 2.924111 1_565
Na7 O47 2.411873 1_565
Na7 O62 2.491059 1_555
Na7 O45 2.513554 1_455
Na7 O61 2.545956 1_555
Na7 O26 2.598882 1_554
Na7 O11 2.681684 1_555
Na7 O18 2.838521 1_565
Na7 O16 2.905857 1_565
Na8 O60 2.370368 1_555
Na8 O47 2.420239 1_555
Na8 O61 2.496848 1_555
Na8 O46 2.501703 1_455
Na8 O10 2.634344 1_555
Na8 O25 2.652119 1_554
Na8 O20 2.919480 1_455
Na8 O15 2.963858 1_455
Na9 O40 2.429059 1_655
Na9 O55 2.437733 1_555
Na9 O41 2.568606 1_555
Na9 O54 2.571364 1_555
Na9 O19 2.687817 1_556
Na9 O4 2.724138 1_555
Na9 O26 2.835087 1_655
Na9 O33 2.839256 1_655
Na10 O56 2.467997 1_555
Na10 O39 2.468305 1_655
Na10 O55 2.473773 1_555
Na10 O41 2.538515 1_545
Na10 O5 2.594432 1_555
Na10 O20 2.759093 1_556
Na10 O34 2.777019 1_545
Na10 O24 2.909477 1_545
Na11 O56 2.448098 1_555
Na11 O39 2.464771 1_555
Na11 O40 2.465271 1_545
Na11 O54 2.535416 1_555
Na11 O18 2.600330 1_556
Na11 O3 2.706817 1_555
Na11 O25 2.854528 1_555
Na11 O35 2.952579 1_555
Na12 O37 2.450901 1_545
Na12 O57 2.462176 1_555
Na12 O59 2.463145 1_555
Na12 O38 2.514423 1_655
Na12 O2 2.597038 1_555
Na12 O23 2.757580 1_555
Na12 O30 2.818104 1_655
Na12 O28 2.928806 1_655
Na13 O36 2.442991 1_545
Na13 O57 2.458191 1_555
Na13 O38 2.570935 1_555
Na13 O58 2.571061 1_555
Na13 O0 2.625757 1_555
Na13 O21 2.702658 1_555
Na13 O31 2.834309 1_545
Na13 O29 2.866214 1_545
Na14 O36 2.448523 1_655
Na14 O37 2.459675 1_555
Na14 O59 2.464970 1_555
Na14 O58 2.532244 1_555
Na14 O22 2.602999 1_555
Na14 O1 2.728997 1_555
Na14 O27 2.839829 1_555
Na14 O32 2.966853 1_555
Na15 O44 2.494631 1_555
Na15 O37 2.522234 1_555
Na15 O36 2.526133 1_655
Na15 O43 2.604003 1_665
Na15 O38 2.615842 1_665
Na15 O42 2.628691 1_565
Na16 O47 2.478103 1_555
Na16 O39 2.532110 1_554
Na16 O40 2.541072 1_544
Na16 O45 2.580904 1_445
Na16 O46 2.617147 1_455
Na16 O41 2.642834 1_444
Na17 O48 2.465471 1_555
Na17 O56 2.477432 1_555
Na17 O55 2.559775 1_555
Na17 O49 2.585968 1_555
Na17 O50 2.667094 1_555
Na17 O54 2.718647 1_555
Na18 O57 2.503632 1_555
Na18 O52 2.515074 1_555
Na18 O53 2.540672 1_555
Na18 O59 2.549331 1_555
Na18 O51 2.645718 1_555
Na18 O58 2.660054 1_555
Na19 O60 2.467261 1_555
Na19 O68 2.534385 1_555
Na19 O67 2.574750 1_555
Na19 O66 2.588512 1_555
Na19 O61 2.599823 1_555
Na19 O62 2.601497 1_555
Na20 O64 2.464637 1_555
Na20 O71 2.487018 1_555
Na20 O69 2.575343 1_555
Na20 O63 2.579707 1_555
Na20 O70 2.640353 1_555
Na20 O65 2.654461 1_555
Mg0 O2 2.022660 1_455
Mg0 O0 2.024995 1_555
Mg0 O1 2.073468 1_445
Mg0 O37 2.116529 1_445
Mg0 O36 2.123930 1_545
Mg0 O38 2.171190 1_555
Mg1 O5 2.009801 1_455
Mg1 O3 2.046168 1_555
Mg1 O39 2.073259 1_555
Mg1 O40 2.107933 1_545
Mg1 O4 2.121418 1_445
Mg1 O41 2.177384 1_445
Mg2 O6 1.982443 1_555
Mg2 O8 2.071139 1_655
Mg2 O7 2.076535 1_665
Mg2 O44 2.087203 1_555
Mg2 O42 2.142673 1_565
Mg2 O43 2.179501 1_665
Mg3 O11 1.989066 1_545
Mg3 O10 1.994272 1_555
Mg3 O47 2.081993 1_555
Mg3 O9 2.103978 1_445
Mg3 O46 2.186679 1_455
Mg3 O45 2.195237 1_445
Mg4 O13 2.010925 1_555
Mg4 O14 2.012692 1_555
Mg4 O48 2.074786 1_555
Mg4 O49 2.123243 1_555
Mg4 O12 2.125410 1_555
Mg4 O50 2.217530 1_555
Mg5 O17 1.989483 1_555
Mg5 O53 2.070770 1_555
Mg5 O16 2.079391 1_555
Mg5 O15 2.086816 1_555
Mg5 O52 2.120844 1_555
Mg5 O51 2.167688 1_555
Mg6 O18 1.992041 1_556
Mg6 O56 2.061635 1_555
Mg6 O20 2.070807 1_556
Mg6 O19 2.106298 1_556
Mg6 O55 2.123754 1_555
Mg6 O54 2.163243 1_555
Mg7 O22 1.996248 1_555
Mg7 O59 2.066691 1_555
Mg7 O23 2.074521 1_555
Mg7 O21 2.109807 1_555
Mg7 O57 2.120866 1_555
Mg7 O58 2.169164 1_555
Mg8 O25 1.993629 1_554
Mg8 O26 2.048356 1_554
Mg8 O24 2.060036 1_554
Mg8 O60 2.073104 1_555
Mg8 O62 2.185444 1_555
Mg8 O61 2.223596 1_555
Mg9 O27 1.992252 1_555
Mg9 O28 2.045393 1_555
Mg9 O29 2.054366 1_555
Mg9 O64 2.085419 1_555
Mg9 O65 2.184722 1_555
Mg9 O63 2.203677 1_555
Mg10 O30 1.982815 1_555
Mg10 O31 2.023133 1_555
Mg10 O66 2.059290 1_555
Mg10 O68 2.116006 1_555
Mg10 O32 2.130083 1_555
Mg10 O67 2.238657 1_555
Mg11 O34 1.942067 1_555
Mg11 O33 2.062436 1_555
Mg11 O71 2.070608 1_555
Mg11 O35 2.129503 1_555
Mg11 O70 2.137304 1_555
Mg11 O69 2.266453 1_555
O0 P0 1.544352 1_545
O1 S0 1.481190 1_555
O2 P1 1.545236 1_555
O3 S1 1.475585 1_555
O4 S2 1.482904 1_655
O5 P2 1.555783 1_545
O6 P2 1.553242 1_555
O7 S1 1.474317 1_555
O8 S2 1.477527 1_555
O9 S0 1.470981 1_555
O10 P1 1.542222 1_455
O11 P0 1.544447 1_555
O12 S3 1.485690 1_555
O13 S4 1.463272 1_555
O14 P3 1.541019 1_555
O15 S5 1.480431 1_555
O16 S6 1.484902 1_555
O17 P4 1.538633 1_555
O18 P4 1.546701 1_555
O19 S5 1.474617 1_555
O20 S6 1.488168 1_555
O21 S4 1.476775 1_555
O22 P3 1.546288 1_555
O23 S3 1.484931 1_555
O24 S7 1.461768 1_555
O25 P5 1.540767 1_555
O26 P6 1.551655 1_555
O27 P7 1.541029 1_555
O28 S8 1.464183 1_555
O29 P8 1.546657 1_555
O30 P8 1.542047 1_555
O31 P7 1.544863 1_555
O32 S8 1.483920 1_555
O33 P5 1.544700 1_555
O34 P6 1.520079 1_555
O35 S7 1.479371 1_555
O36 P8 1.565262 1_555
O37 P7 1.564333 1_555
O38 S8 1.497754 1_555
O39 P5 1.566598 1_555
O40 P6 1.572683 1_555
O41 S7 1.502691 1_555
O42 S3 1.489925 1_555
O43 S4 1.497471 1_555
O44 P3 1.588785 1_555
O45 S5 1.491435 1_555
O46 S6 1.487659 1_555
O47 P4 1.586505 1_555
O48 P2 1.560245 1_545
O49 S1 1.490956 1_555
O50 S2 1.509500 1_655
O51 S0 1.496985 1_555
O52 P1 1.566420 1_555
O53 P0 1.564547 1_545
O54 S7 1.500728 1_555
O55 P5 1.568941 1_655
O56 P6 1.567989 1_545
O57 P7 1.567214 1_545
O58 S8 1.497375 1_555
O59 P8 1.563743 1_655
O60 P4 1.554754 1_555
O61 S5 1.508339 1_455
O62 S6 1.486439 1_565
O63 S4 1.510929 1_565
O64 P3 1.555891 1_555
O65 S3 1.488846 1_455
O66 P0 1.561671 1_555
O67 S0 1.496938 1_555
O68 P1 1.564200 1_455
O69 S1 1.508534 1_555
O70 S2 1.483564 1_555
O71 P2 1.554617 1_555
