# generated using pymatgen
data_Sc11Ga9
_symmetry_space_group_name_H-M   'P 1'
_cell_length_a   10.68962484
_cell_length_b   10.31454008
_cell_length_c   10.31226024
_cell_angle_alpha   62.42848196
_cell_angle_beta   58.79620982
_cell_angle_gamma   58.77530822
_symmetry_Int_Tables_number   1
_chemical_formula_structural   Sc11Ga9
_chemical_formula_sum   'Sc22 Ga18'
_cell_volume   801.76933795
_cell_formula_units_Z   2
loop_
 _symmetry_equiv_pos_site_id
 _symmetry_equiv_pos_as_xyz
  1  'x, y, z'
loop_
 _atom_site_type_symbol
 _atom_site_label
 _atom_site_symmetry_multiplicity
 _atom_site_fract_x
 _atom_site_fract_y
 _atom_site_fract_z
 _atom_site_occupancy
  Sc  Sc0  1  0.66531119  0.66531119  0.33468881  1
  Sc  Sc1  1  0.34200899  0.34200899  0.65799101  1
  Sc  Sc2  1  0.17718258  0.82928141  0.17071859  1
  Sc  Sc3  1  0.82928141  0.17718258  0.82281742  1
  Sc  Sc4  1  0.18387881  0.82368961  0.81612119  1
  Sc  Sc5  1  0.82368961  0.18387881  0.17631039  1
  Sc  Sc6  1  0.80190113  0.84206075  0.42475655  1
  Sc  Sc7  1  0.84206075  0.80190113  0.93128157  1
  Sc  Sc8  1  0.06871843  0.57524345  0.15793925  1
  Sc  Sc9  1  0.57524345  0.06871843  0.19809887  1
  Sc  Sc10  1  0.20562027  0.16542739  0.56781797  1
  Sc  Sc11  1  0.16542739  0.20562027  0.06113537  1
  Sc  Sc12  1  0.93886463  0.43218203  0.83457261  1
  Sc  Sc13  1  0.43218203  0.93886463  0.79437973  1
  Sc  Sc14  1  0.65196177  0.58351963  0.69769244  1
  Sc  Sc15  1  0.58351963  0.65196177  0.06682516  1
  Sc  Sc16  1  0.93317484  0.30230756  0.41648037  1
  Sc  Sc17  1  0.30230756  0.93317484  0.34803823  1
  Sc  Sc18  1  0.35644381  0.42365375  0.29415019  1
  Sc  Sc19  1  0.42365375  0.35644381  0.92575225  1
  Sc  Sc20  1  0.07424775  0.70584981  0.57634625  1
  Sc  Sc21  1  0.70584981  0.07424775  0.64355619  1
  Ga  Ga0  1  0.38098366  0.62633663  0.37366337  1
  Ga  Ga1  1  0.62633663  0.38098366  0.61901634  1
  Ga  Ga2  1  0.38162992  0.62549820  0.61837008  1
  Ga  Ga3  1  0.62549820  0.38162992  0.37450180  1
  Ga  Ga4  1  0.38067298  0.62735801  0.98668509  1
  Ga  Ga5  1  0.62735801  0.38067298  0.00528392  1
  Ga  Ga6  1  0.01331491  0.99471608  0.61932702  1
  Ga  Ga7  1  0.99471608  0.01331491  0.37264199  1
  Ga  Ga8  1  0.90822028  0.90822028  0.09177972  1
  Ga  Ga9  1  0.09921194  0.09921194  0.90078806  1
  Ga  Ga10  1  0.75377326  0.75377326  0.74622674  1
  Ga  Ga11  1  0.25377326  0.25377326  0.24622674  1
  Ga  Ga12  1  0.87204048  0.47156825  0.12795952  1
  Ga  Ga13  1  0.47156825  0.87204048  0.52843175  1
  Ga  Ga14  1  0.00506683  0.50420435  0.49579565  1
  Ga  Ga15  1  0.50420435  0.00506683  0.99493317  1
  Ga  Ga16  1  0.13544092  0.53565747  0.86455908  1
  Ga  Ga17  1  0.53565747  0.13544092  0.46434253  1
loop_
_geom_bond_atom_site_label_1
_geom_bond_atom_site_label_2
_geom_bond_distance
_geom_bond_site_symmetry_2
Sc0 Sc14 3.375336 1_555
Sc0 Sc17 3.375339 1_555
Sc0 Sc16 3.375340 1_555
Sc0 Sc15 3.375346 1_555
Sc0 Sc6 3.471414 1_555
Sc0 Sc7 3.471414 1_554
Sc0 Sc8 3.471414 1_655
Sc0 Sc9 3.471414 1_565
Sc1 Sc18 3.379428 1_555
Sc1 Sc19 3.379428 1_555
Sc1 Sc21 3.379428 1_555
Sc1 Sc20 3.379428 1_555
Sc1 Sc10 3.468915 1_555
Sc1 Sc11 3.468922 1_556
Sc1 Sc12 3.468923 1_455
Sc1 Sc13 3.468924 1_545
Sc4 Sc8 3.304540 1_556
Sc4 Sc7 3.304540 1_455
Sc5 Sc6 3.304540 1_545
Sc5 Sc9 3.304540 1_555
Sc10 Sc4 3.303451 1_545
Sc11 Sc5 3.303453 1_455
Sc12 Sc5 3.303449 1_556
Sc13 Sc4 3.303443 1_555
Ga0 Ga3 2.523068 1_555
Ga0 Ga2 2.523068 1_555
Ga0 Sc18 2.736782 1_555
Ga0 Sc20 2.736782 1_555
Ga0 Sc15 2.736805 1_555
Ga0 Sc17 2.736808 1_555
Ga0 Sc0 3.067946 1_555
Ga0 Sc1 3.067948 1_555
Ga0 Sc2 3.073847 1_555
Ga1 Ga2 2.523068 1_555
Ga1 Ga3 2.523068 1_555
Ga1 Sc19 2.736782 1_555
Ga1 Sc21 2.736782 1_555
Ga1 Sc14 2.736798 1_555
Ga1 Sc16 2.736805 1_555
Ga1 Sc0 3.067946 1_555
Ga1 Sc1 3.067948 1_555
Ga1 Sc3 3.073847 1_555
Ga2 Sc4 2.778158 1_555
Ga2 Sc1 2.982479 1_555
Ga2 Sc0 2.984858 1_555
Ga2 Sc20 3.160807 1_555
Ga2 Sc19 3.160807 1_555
Ga2 Sc14 3.167234 1_555
Ga2 Sc17 3.167239 1_555
Ga3 Sc5 2.778158 1_555
Ga3 Sc1 2.982479 1_555
Ga3 Sc0 2.984858 1_555
Ga3 Sc18 3.160807 1_555
Ga3 Sc21 3.160807 1_555
Ga3 Sc15 3.167241 1_555
Ga3 Sc16 3.167245 1_555
Ga4 Ga5 2.565230 1_556
Ga4 Sc2 2.712106 1_556
Ga4 Sc4 2.782064 1_555
Ga4 Sc15 2.840881 1_556
Ga4 Sc18 2.842736 1_556
Ga4 Sc19 2.899917 1_555
Ga4 Sc14 2.903212 1_555
Ga4 Sc13 3.060052 1_555
Ga4 Sc8 3.066828 1_556
Ga5 Sc3 2.712106 1_554
Ga5 Sc5 2.782064 1_555
Ga5 Sc14 2.840889 1_554
Ga5 Sc19 2.842736 1_554
Ga5 Sc18 2.899917 1_555
Ga5 Sc15 2.903206 1_555
Ga5 Sc12 3.060051 1_554
Ga5 Sc9 3.066828 1_555
Ga6 Ga7 2.565230 1_465
Ga6 Sc3 2.712106 1_465
Ga6 Sc4 2.782064 1_555
Ga6 Sc16 2.840888 1_465
Ga6 Sc21 2.842736 1_465
Ga6 Sc20 2.899917 1_555
Ga6 Sc17 2.903211 1_555
Ga6 Sc10 3.060061 1_565
Ga6 Sc7 3.066828 1_455
Ga7 Sc2 2.712106 1_645
Ga7 Sc5 2.782064 1_555
Ga7 Sc17 2.840892 1_645
Ga7 Sc20 2.842736 1_645
Ga7 Sc21 2.899917 1_555
Ga7 Sc16 2.903216 1_555
Ga7 Sc11 3.060056 1_655
Ga7 Sc6 3.066828 1_545
Ga8 Sc6 2.852940 1_555
Ga8 Sc8 2.852940 1_655
Ga8 Sc9 2.852940 1_565
Ga8 Sc7 2.852940 1_554
Ga8 Ga9 2.887894 1_664
Ga8 Sc4 2.911212 1_654
Ga8 Sc5 2.911212 1_565
Ga8 Sc3 2.996044 1_564
Ga8 Sc2 2.996044 1_655
Ga9 Sc10 2.852718 1_555
Ga9 Sc12 2.852719 1_455
Ga9 Sc13 2.852719 1_545
Ga9 Sc11 2.852727 1_556
Ga9 Sc4 2.910191 1_545
Ga9 Sc5 2.910191 1_456
Ga9 Sc2 3.003092 1_546
Ga9 Sc3 3.003092 1_455
Ga10 Sc21 2.806525 1_565
Ga10 Sc20 2.806525 1_655
Ga10 Sc15 2.806831 1_556
Ga10 Sc14 2.806838 1_555
Ga10 Sc7 2.829785 1_555
Ga10 Sc6 2.829785 1_555
Ga10 Sc12 2.830796 1_555
Ga10 Sc13 2.830797 1_555
Ga11 Sc19 2.806525 1_554
Ga11 Sc18 2.806525 1_555
Ga11 Sc17 2.806829 1_545
Ga11 Sc16 2.806830 1_455
Ga11 Sc8 2.829785 1_555
Ga11 Sc9 2.829785 1_555
Ga11 Sc11 2.830789 1_555
Ga11 Sc10 2.830799 1_555
Ga12 Ga3 2.771054 1_555
Ga12 Sc0 2.811654 1_555
Ga12 Ga16 2.843565 1_654
Ga12 Sc16 2.889764 1_555
Ga12 Sc15 2.889764 1_555
Ga12 Sc11 2.902825 1_655
Ga12 Sc12 2.902830 1_554
Ga12 Sc7 2.994953 1_554
Ga12 Sc8 2.994953 1_655
Ga12 Sc5 3.045418 1_555
Ga13 Ga2 2.771054 1_555
Ga13 Sc0 2.811654 1_555
Ga13 Ga17 2.843565 1_565
Ga13 Sc17 2.889755 1_555
Ga13 Sc14 2.889759 1_555
Ga13 Sc13 2.902820 1_555
Ga13 Sc10 2.902826 1_565
Ga13 Sc6 2.994953 1_555
Ga13 Sc9 2.994953 1_565
Ga13 Sc4 3.045418 1_555
Ga14 Sc6 2.972521 1_455
Ga14 Sc8 2.972521 1_555
Ga14 Sc12 2.972955 1_455
Ga14 Sc10 2.972957 1_555
Ga14 Sc18 3.064850 1_555
Ga14 Sc20 3.064850 1_555
Ga14 Sc16 3.079544 1_455
Ga14 Sc14 3.079552 1_455
Ga15 Sc9 2.972521 1_556
Ga15 Sc7 2.972521 1_545
Ga15 Sc11 2.972956 1_556
Ga15 Sc13 2.972964 1_545
Ga15 Sc19 3.064850 1_555
Ga15 Sc21 3.064850 1_555
Ga15 Sc17 3.079552 1_546
Ga15 Sc15 3.079554 1_546
Ga16 Ga2 2.767214 1_555
Ga16 Sc1 2.809844 1_555
Ga16 Sc20 2.887410 1_555
Ga16 Sc19 2.887410 1_555
Ga16 Sc7 2.904181 1_455
Ga16 Sc8 2.904181 1_556
Ga16 Sc11 2.992383 1_556
Ga16 Sc12 2.992391 1_455
Ga16 Sc4 3.049118 1_555
Ga17 Ga3 2.767214 1_555
Ga17 Sc1 2.809844 1_555
Ga17 Sc18 2.887410 1_555
Ga17 Sc21 2.887410 1_555
Ga17 Sc6 2.904181 1_545
Ga17 Sc9 2.904181 1_555
Ga17 Sc10 2.992381 1_555
Ga17 Sc13 2.992385 1_545
Ga17 Sc5 3.049118 1_555
