# generated using pymatgen
data_MgV2(Ag3O4)2
_symmetry_space_group_name_H-M   'P 1'
_cell_length_a   5.52239980
_cell_length_b   5.62037029
_cell_length_c   10.05454251
_cell_angle_alpha   79.38948523
_cell_angle_beta   74.06050116
_cell_angle_gamma   60.57496408
_symmetry_Int_Tables_number   1
_chemical_formula_structural   MgV2(Ag3O4)2
_chemical_formula_sum   'Mg1 V2 Ag6 O8'
_cell_volume   260.91233969
_cell_formula_units_Z   1
loop_
 _symmetry_equiv_pos_site_id
 _symmetry_equiv_pos_as_xyz
  1  'x, y, z'
loop_
 _atom_site_type_symbol
 _atom_site_label
 _atom_site_symmetry_multiplicity
 _atom_site_fract_x
 _atom_site_fract_y
 _atom_site_fract_z
 _atom_site_occupancy
  Mg  Mg0  1  0.12535600  0.25000000  0.75000000  1
  V  V0  1  0.42493000  0.75000000  0.25000000  1
  V  V1  1  0.62603100  0.25000000  0.75000000  1
  Ag  Ag0  1  0.28756400  0.37834900  0.08992800  1
  Ag  Ag1  1  0.18193500  0.79804700  0.57773300  1
  Ag  Ag2  1  0.55771700  0.70195300  0.92226700  1
  Ag  Ag3  1  0.75584200  0.12165100  0.41007200  1
  Ag  Ag4  1  0.93193400  0.99466100  0.04279600  1
  Ag  Ag5  1  0.96939100  0.50533900  0.45720400  1
  O  O0  1  0.96992700  0.97925200  0.78950100  1
  O  O1  1  0.73867800  0.52074800  0.71049900  1
  O  O2  1  0.10551600  0.04334500  0.21882400  1
  O  O3  1  0.36768700  0.45665500  0.28117600  1
  O  O4  1  0.70470700  0.71298900  0.10776900  1
  O  O5  1  0.33371500  0.23475900  0.88763100  1
  O  O6  1  0.52546400  0.78701100  0.39223100  1
  O  O7  1  0.45610500  0.26524100  0.61236900  1
loop_
_geom_bond_atom_site_label_1
_geom_bond_atom_site_label_2
_geom_bond_distance
_geom_bond_site_symmetry_2
Mg0 O7 1.995072 1_555
Mg0 O5 1.995072 1_555
Mg0 O0 2.020802 1_445
Mg0 O1 2.020810 1_455
Ag0 O5 2.229597 1_554
Ag0 O3 2.248861 1_555
Ag0 O2 2.545798 1_555
Ag1 O6 2.250589 1_555
Ag1 O0 2.280213 1_455
Ag1 O7 2.613757 1_555
Ag2 O4 2.250586 1_556
Ag2 O1 2.280214 1_555
Ag2 O5 2.613756 1_565
Ag3 O7 2.229599 1_555
Ag3 O2 2.248853 1_655
Ag3 O3 2.545794 1_555
Ag4 O2 2.343959 1_665
Ag4 O4 2.372425 1_555
Ag4 O0 2.511458 1_554
Ag5 O3 2.343966 1_655
Ag5 O6 2.372429 1_555
Ag5 O1 2.511460 1_555
O0 V1 1.852618 1_565
O1 V1 1.852610 1_555
O2 V0 1.784322 1_545
O3 V0 1.784316 1_555
O4 V0 1.748059 1_555
O5 V1 1.842139 1_555
O6 V0 1.748056 1_555
O7 V1 1.842140 1_555
