# generated using pymatgen
data_Na14Hf4Ti4Si11SO48
_symmetry_space_group_name_H-M   'P 1'
_cell_length_a   18.16317457
_cell_length_b   9.08188441
_cell_length_c   22.30351450
_cell_angle_alpha   89.95237789
_cell_angle_beta   90.04918759
_cell_angle_gamma   119.99654838
_symmetry_Int_Tables_number   1
_chemical_formula_structural   Na14Hf4Ti4Si11SO48
_chemical_formula_sum   'Na42 Hf12 Ti12 Si33 S3 O144'
_cell_volume   3186.29923317
_cell_formula_units_Z   3
loop_
 _symmetry_equiv_pos_site_id
 _symmetry_equiv_pos_as_xyz
  1  'x, y, z'
loop_
 _atom_site_type_symbol
 _atom_site_label
 _atom_site_symmetry_multiplicity
 _atom_site_fract_x
 _atom_site_fract_y
 _atom_site_fract_z
 _atom_site_occupancy
  Na  Na0  1  0.31766189  0.00034747  0.25003572  1
  Na  Na1  1  0.81698925  0.99972330  0.24992631  1
  Na  Na2  1  0.31744301  0.63050143  0.74974854  1
  Na  Na3  1  0.81380986  0.62816436  0.74929678  1
  Na  Na4  1  0.49721372  0.36679821  0.75035268  1
  Na  Na5  1  0.68469618  0.00134139  0.74928614  1
  Na  Na6  1  0.15072163  0.33541312  0.58270491  1
  Na  Na7  1  0.64630665  0.32703455  0.58572113  1
  Na  Na8  1  0.02071445  0.69975530  0.58295721  1
  Na  Na9  1  0.51551228  0.70422040  0.58415095  1
  Na  Na10  1  0.33221173  0.95467587  0.58321813  1
  Na  Na11  1  0.83419918  0.97514417  0.58428972  1
  Na  Na12  1  0.14972948  0.96772012  0.08361334  1
  Na  Na13  1  0.64735947  0.96610329  0.08405383  1
  Na  Na14  1  0.33224796  0.69631011  0.08324087  1
  Na  Na15  1  0.83290915  0.69424582  0.08464186  1
  Na  Na16  1  0.01754078  0.33609062  0.08361243  1
  Na  Na17  1  0.51557759  0.33671582  0.08346923  1
  Na  Na18  1  0.48080046  0.66519614  0.91621227  1
  Na  Na19  1  0.98772399  0.66712786  0.91590963  1
  Na  Na20  1  0.34969481  0.03363964  0.91651197  1
  Na  Na21  1  0.84898950  0.03372924  0.91550877  1
  Na  Na22  1  0.16836526  0.30310528  0.91741698  1
  Na  Na23  1  0.66237039  0.29352435  0.91453711  1
  Na  Na24  1  0.48111245  0.30305584  0.41739037  1
  Na  Na25  1  0.98642823  0.30670996  0.41612551  1
  Na  Na26  1  0.16839633  0.03991421  0.41776253  1
  Na  Na27  1  0.66334390  0.02880721  0.41571214  1
  Na  Na28  1  0.34736644  0.65947220  0.41782647  1
  Na  Na29  1  0.84925595  0.66362520  0.41580403  1
  Na  Na30  1  0.00300291  0.00389368  0.49996590  1
  Na  Na31  1  0.50133689  0.99925493  0.50245790  1
  Na  Na32  1  0.00348113  0.00339325  0.00002182  1
  Na  Na33  1  0.50081381  0.99885094  0.99692223  1
  Na  Na34  1  0.33009552  0.32187491  0.83342005  1
  Na  Na35  1  0.84005410  0.33488658  0.83235172  1
  Na  Na36  1  0.33847845  0.35244661  0.33509127  1
  Na  Na37  1  0.83861007  0.35265651  0.33289971  1
  Na  Na38  1  0.16240136  0.64709978  0.16743656  1
  Na  Na39  1  0.66194344  0.64691497  0.16751345  1
  Na  Na40  1  0.16251471  0.67600611  0.66560816  1
  Na  Na41  1  0.66672610  0.66732453  0.66584415  1
  Hf  Hf0  1  0.83842990  0.33663188  0.68904631  1
  Hf  Hf1  1  0.33829615  0.34661172  0.18878529  1
  Hf  Hf2  1  0.83813813  0.34618251  0.18876004  1
  Hf  Hf3  1  0.83303663  0.33417969  0.98139892  1
  Hf  Hf4  1  0.83435188  0.33208523  0.48159756  1
  Hf  Hf5  1  0.16660113  0.66660394  0.01794785  1
  Hf  Hf6  1  0.66641658  0.66628718  0.01849141  1
  Hf  Hf7  1  0.66477235  0.66521192  0.51879981  1
  Hf  Hf8  1  0.16631863  0.65417227  0.31257935  1
  Hf  Hf9  1  0.66363720  0.65279826  0.31208983  1
  Hf  Hf10  1  0.16652596  0.67777205  0.81269685  1
  Hf  Hf11  1  0.66496895  0.66505621  0.81218050  1
  Ti  Ti0  1  0.99363319  0.99768130  0.35548751  1
  Ti  Ti1  1  0.48977035  0.99519505  0.35644245  1
  Ti  Ti2  1  0.99466583  0.99002668  0.85491233  1
  Ti  Ti3  1  0.49677566  0.99766223  0.85096388  1
  Ti  Ti4  1  0.99648281  0.98814148  0.64484442  1
  Ti  Ti5  1  0.49818378  0.99734784  0.64759060  1
  Ti  Ti6  1  0.99470697  0.00341813  0.14522468  1
  Ti  Ti7  1  0.49240929  0.00366283  0.14385778  1
  Ti  Ti8  1  0.33587859  0.32736055  0.68316171  1
  Ti  Ti9  1  0.33302975  0.33603156  0.98135535  1
  Ti  Ti10  1  0.33234507  0.33318846  0.48218853  1
  Ti  Ti11  1  0.16667910  0.66454894  0.51869484  1
  Si  Si0  1  0.35662531  0.71267010  0.25002642  1
  Si  Si1  1  0.85678839  0.71298758  0.25074474  1
  Si  Si2  1  0.00125679  0.28804041  0.25002236  1
  Si  Si3  1  0.50009624  0.28668692  0.25010359  1
  Si  Si4  1  0.64205868  0.28345987  0.74947198  1
  Si  Si5  1  0.00315143  0.71692105  0.74968402  1
  Si  Si6  1  0.49611051  0.70817927  0.74871735  1
  Si  Si7  1  0.35473423  0.00158727  0.74808764  1
  Si  Si8  1  0.85855671  0.00239730  0.75010379  1
  Si  Si9  1  0.47646009  0.32858815  0.58278766  1
  Si  Si10  1  0.98396683  0.33540168  0.58309977  1
  Si  Si11  1  0.18966916  0.04400824  0.58318556  1
  Si  Si12  1  0.68471424  0.03990474  0.58546034  1
  Si  Si13  1  0.33240934  0.61980434  0.58464734  1
  Si  Si14  1  0.83351705  0.62774555  0.58500848  1
  Si  Si15  1  0.47845957  0.62781726  0.08226475  1
  Si  Si16  1  0.98187849  0.63256815  0.08373857  1
  Si  Si17  1  0.33209473  0.04598725  0.08451534  1
  Si  Si18  1  0.83258732  0.03997194  0.08628511  1
  Si  Si19  1  0.18782188  0.33041751  0.08341188  1
  Si  Si20  1  0.68479718  0.32867133  0.08473049  1
  Si  Si21  1  0.31429819  0.66524462  0.91434990  1
  Si  Si22  1  0.81459209  0.66684016  0.91533750  1
  Si  Si23  1  0.02027192  0.37010698  0.91535669  1
  Si  Si24  1  0.51646199  0.36708603  0.91626425  1
  Si  Si25  1  0.16773513  0.96751108  0.91754651  1
  Si  Si26  1  0.66452468  0.96219640  0.91485650  1
  Si  Si27  1  0.30929839  0.95811146  0.41673515  1
  Si  Si28  1  0.81239822  0.95922380  0.41397668  1
  Si  Si29  1  0.16740754  0.37323865  0.41881551  1
  Si  Si30  1  0.66468907  0.36662303  0.41692947  1
  Si  Si31  1  0.02401641  0.67193340  0.41723290  1
  Si  Si32  1  0.51750953  0.66594735  0.41630378  1
  S  S0  1  0.14316406  0.99989604  0.25041010  1
  S  S1  1  0.64258461  0.99950643  0.25000838  1
  S  S2  1  0.14530719  0.28744088  0.74945975  1
  O  O0  1  0.10162953  0.01357387  0.30564971  1
  O  O1  1  0.60120877  0.01275630  0.30523925  1
  O  O2  1  0.41212875  0.81162223  0.31044039  1
  O  O3  1  0.91403755  0.81152775  0.31111916  1
  O  O4  1  0.49158798  0.16811990  0.30912317  1
  O  O5  1  0.99421926  0.16940331  0.30895439  1
  O  O6  1  0.10309835  0.19052918  0.80484377  1
  O  O7  1  0.59468807  0.16628546  0.80867063  1
  O  O8  1  0.48370326  0.80248250  0.80768472  1
  O  O9  1  0.99453267  0.81808971  0.80860588  1
  O  O10  1  0.41450673  0.02994643  0.80781211  1
  O  O11  1  0.91371409  0.01527205  0.81038023  1
  O  O12  1  0.40325006  0.97776807  0.68929152  1
  O  O13  1  0.90822778  0.98374085  0.69101128  1
  O  O14  1  0.09527577  0.20363772  0.69446165  1
  O  O15  1  0.58338737  0.19117906  0.68971297  1
  O  O16  1  0.01041993  0.82998881  0.68929891  1
  O  O17  1  0.51014421  0.82914986  0.68981752  1
  O  O18  1  0.40721958  0.83024647  0.19067002  1
  O  O19  1  0.90837933  0.83210971  0.19197478  1
  O  O20  1  0.00892800  0.19083767  0.18955448  1
  O  O21  1  0.50660356  0.18770477  0.18966285  1
  O  O22  1  0.09507311  0.98686689  0.19517816  1
  O  O23  1  0.59468025  0.98610460  0.19457542  1
  O  O24  1  0.43247058  0.36367994  0.64216889  1
  O  O25  1  0.93669905  0.37323390  0.63798720  1
  O  O26  1  0.25470627  0.14390306  0.63951338  1
  O  O27  1  0.74643763  0.12921805  0.64319641  1
  O  O28  1  0.31757628  0.49763116  0.64345916  1
  O  O29  1  0.81742683  0.50907759  0.64337595  1
  O  O30  1  0.43634037  0.50047774  0.13937367  1
  O  O31  1  0.93536081  0.50055930  0.13904736  1
  O  O32  1  0.31572048  0.12592096  0.14461688  1
  O  O33  1  0.81696083  0.12688536  0.14473304  1
  O  O34  1  0.25086308  0.36601988  0.13987922  1
  O  O35  1  0.75068348  0.36486276  0.13949360  1
  O  O36  1  0.23332237  0.30257517  0.02350370  1
  O  O37  1  0.72589644  0.29621231  0.02393138  1
  O  O38  1  0.41740167  0.53650027  0.02334736  1
  O  O39  1  0.92260538  0.55196457  0.02361635  1
  O  O40  1  0.34812910  0.17008744  0.02638114  1
  O  O41  1  0.85041543  0.15949420  0.02695855  1
  O  O42  1  0.23280517  0.16481047  0.52376498  1
  O  O43  1  0.72975195  0.15800094  0.52610262  1
  O  O44  1  0.34763770  0.52706862  0.52594088  1
  O  O45  1  0.85093460  0.54340436  0.52586299  1
  O  O46  1  0.41686868  0.30513206  0.52423660  1
  O  O47  1  0.92343486  0.29174352  0.52332441  1
  O  O48  1  0.27088436  0.70146810  0.97302771  1
  O  O49  1  0.77277185  0.70184699  0.97447778  1
  O  O50  1  0.07707346  0.45082145  0.97643810  1
  O  O51  1  0.57909959  0.45562953  0.97417268  1
  O  O52  1  0.14561183  0.84385271  0.97639803  1
  O  O53  1  0.65062964  0.84317313  0.97386166  1
  O  O54  1  0.26410031  0.83028823  0.47453548  1
  O  O55  1  0.76975231  0.83937613  0.47318230  1
  O  O56  1  0.14985754  0.46517212  0.47678925  1
  O  O57  1  0.64605328  0.44836190  0.47691574  1
  O  O58  1  0.08343623  0.69890717  0.47739765  1
  O  O59  1  0.57732036  0.70491891  0.47638385  1
  O  O60  1  0.06864492  0.63328607  0.36121469  1
  O  O61  1  0.56551242  0.62981804  0.36142102  1
  O  O62  1  0.25237773  0.87705919  0.35670397  1
  O  O63  1  0.75265533  0.87264945  0.35574226  1
  O  O64  1  0.18902791  0.50119202  0.36171818  1
  O  O65  1  0.68479790  0.49916904  0.36165492  1
  O  O66  1  0.06798035  0.50328452  0.86097137  1
  O  O67  1  0.56122437  0.49022174  0.85773702  1
  O  O68  1  0.18808545  0.87473571  0.86235501  1
  O  O69  1  0.68142252  0.87339154  0.85644691  1
  O  O70  1  0.25338521  0.62876185  0.85584972  1
  O  O71  1  0.75389699  0.63588089  0.85729563  1
  O  O72  1  0.01617509  0.84429799  0.41105590  1
  O  O73  1  0.50885007  0.83683352  0.40842058  1
  O  O74  1  0.40525466  0.97669971  0.41271344  1
  O  O75  1  0.90841759  0.97851820  0.41038621  1
  O  O76  1  0.08231694  0.18528739  0.41144936  1
  O  O77  1  0.58095634  0.17752274  0.40851434  1
  O  O78  1  0.01218805  0.18276931  0.90784831  1
  O  O79  1  0.50703333  0.17855861  0.91035859  1
  O  O80  1  0.08396598  0.98892225  0.90799006  1
  O  O81  1  0.57927783  0.97893269  0.90975169  1
  O  O82  1  0.40834469  0.83642548  0.90901120  1
  O  O83  1  0.91024904  0.83751401  0.91058029  1
  O  O84  1  0.48458112  0.15769961  0.58699896  1
  O  O85  1  0.99598614  0.16893174  0.59227154  1
  O  O86  1  0.09556481  0.02701420  0.59055403  1
  O  O87  1  0.59036078  0.02212581  0.58916784  1
  O  O88  1  0.41764674  0.80924794  0.58860533  1
  O  O89  1  0.91969328  0.82007056  0.58905010  1
  O  O90  1  0.48760447  0.81617190  0.08897816  1
  O  O91  1  0.99259231  0.82138799  0.09245373  1
  O  O92  1  0.41862691  0.02699047  0.08785977  1
  O  O93  1  0.91875486  0.02019232  0.08987787  1
  O  O94  1  0.09345294  0.15915404  0.08952180  1
  O  O95  1  0.59105428  0.15696771  0.09203891  1
  O  O96  1  0.34827458  0.17556566  0.74295221  1
  O  O97  1  0.84479328  0.16582668  0.74852526  1
  O  O98  1  0.23150761  0.30716894  0.74716524  1
  O  O99  1  0.73654093  0.30358223  0.74743907  1
  O  O100  1  0.41090240  0.51868548  0.74481279  1
  O  O101  1  0.91352903  0.53562396  0.74855635  1
  O  O102  1  0.34578276  0.52423885  0.24915179  1
  O  O103  1  0.84612213  0.52458034  0.24916415  1
  O  O104  1  0.41041508  0.28944978  0.24960778  1
  O  O105  1  0.91118085  0.28960320  0.24968615  1
  O  O106  1  0.23033893  0.15281807  0.24883399  1
  O  O107  1  0.73014649  0.15230863  0.24834315  1
  O  O108  1  0.32380431  0.49570461  0.92235569  1
  O  O109  1  0.82508213  0.49970307  0.91949248  1
  O  O110  1  0.42311859  0.35159005  0.92289403  1
  O  O111  1  0.92535737  0.34812571  0.92058154  1
  O  O112  1  0.25284678  0.15456828  0.92349432  1
  O  O113  1  0.75019692  0.14931246  0.92021110  1
  O  O114  1  0.32195391  0.14838778  0.42433038  1
  O  O115  1  0.82505397  0.14959823  0.41962516  1
  O  O116  1  0.25169893  0.35328757  0.42517120  1
  O  O117  1  0.75023815  0.34997001  0.42126168  1
  O  O118  1  0.42298278  0.49647540  0.42254223  1
  O  O119  1  0.92853277  0.50499242  0.42238881  1
  O  O120  1  0.17720816  0.49910320  0.07836472  1
  O  O121  1  0.67405307  0.49694872  0.07989926  1
  O  O122  1  0.07545455  0.64907041  0.07995897  1
  O  O123  1  0.57314858  0.64922065  0.07734093  1
  O  O124  1  0.25065990  0.85454566  0.07781883  1
  O  O125  1  0.74979986  0.84975745  0.08045411  1
  O  O126  1  0.18118103  0.85603188  0.57841363  1
  O  O127  1  0.67555977  0.85118646  0.58024637  1
  O  O128  1  0.24758022  0.63939426  0.57800842  1
  O  O129  1  0.74981239  0.64997411  0.57986464  1
  O  O130  1  0.07732681  0.50798781  0.57717515  1
  O  O131  1  0.57055905  0.49918884  0.58007102  1
  O  O132  1  0.15359249  0.84667980  0.25214412  1
  O  O133  1  0.65345780  0.84635588  0.25181069  1
  O  O134  1  0.26576373  0.71116339  0.25098236  1
  O  O135  1  0.76570380  0.71021985  0.25152542  1
  O  O136  1  0.08449459  0.47651690  0.25222610  1
  O  O137  1  0.58365319  0.47526223  0.25116413  1
  O  O138  1  0.15524602  0.46131500  0.75134112  1
  O  O139  1  0.64988052  0.47161280  0.75200787  1
  O  O140  1  0.08627447  0.69486225  0.75159870  1
  O  O141  1  0.58243509  0.69237422  0.75146325  1
  O  O142  1  0.26465758  0.82277996  0.75143590  1
  O  O143  1  0.76428609  0.82767607  0.75105146  1
loop_
_geom_bond_atom_site_label_1
_geom_bond_atom_site_label_2
_geom_bond_distance
_geom_bond_site_symmetry_2
Na0 O104 2.304160 1_555
Na0 O134 2.304598 1_545
Na0 O106 2.574811 1_555
Na0 O132 2.583038 1_545
Na0 O32 2.620240 1_555
Na0 O62 2.644356 1_545
Na1 O135 2.309300 1_555
Na1 O105 2.313930 1_565
Na1 O107 2.568073 1_565
Na1 O133 2.574416 1_555
Na1 O33 2.614264 1_565
Na1 O63 2.630402 1_555
Na2 O142 2.375759 1_555
Na2 O100 2.376781 1_555
Na2 O98 2.545513 1_555
Na2 O138 2.552469 1_555
Na2 O70 2.634433 1_555
Na2 O28 2.661525 1_555
Na3 O101 2.347181 1_555
Na3 O143 2.392415 1_555
Na3 O99 2.554298 1_555
Na3 O139 2.580266 1_555
Na3 O29 2.613532 1_555
Na3 O71 2.659368 1_555
Na4 O96 2.379837 1_555
Na4 O139 2.440725 1_555
Na4 O100 2.556830 1_555
Na4 O141 2.561868 1_555
Na4 O67 2.653495 1_555
Na4 O24 2.677231 1_555
Na5 O99 2.416268 1_555
Na5 O141 2.472759 1_545
Na5 O97 2.518762 1_555
Na5 O143 2.618873 1_545
Na5 O27 2.627332 1_555
Na5 O69 2.644386 1_545
Na6 O128 2.423028 1_555
Na6 O85 2.445809 1_455
Na6 O86 2.464315 1_555
Na6 O130 2.517396 1_555
Na6 O56 2.642580 1_555
Na6 O14 2.730126 1_555
Na6 O42 2.944144 1_555
Na6 O28 2.953484 1_555
Na7 O87 2.427518 1_555
Na7 O84 2.545111 1_555
Na7 O131 2.550188 1_555
Na7 O129 2.576794 1_555
Na7 O15 2.607258 1_555
Na7 O57 2.665305 1_555
Na8 O130 2.428662 1_555
Na8 O126 2.526560 1_555
Na8 O89 2.566042 1_455
Na8 O86 2.582778 1_565
Na8 O58 2.618065 1_555
Na8 O16 2.699233 1_555
Na8 O25 2.846271 1_455
Na8 O45 2.960613 1_455
Na9 O88 2.403159 1_555
Na9 O87 2.504423 1_565
Na9 O131 2.517386 1_555
Na9 O127 2.521942 1_555
Na9 O17 2.639407 1_555
Na9 O59 2.652367 1_555
Na9 O44 2.943258 1_555
Na9 O24 2.974375 1_555
Na10 O126 2.425192 1_555
Na10 O84 2.442032 1_565
Na10 O128 2.484838 1_555
Na10 O88 2.493101 1_555
Na10 O12 2.651580 1_555
Na10 O54 2.698969 1_555
Na11 O127 2.516784 1_555
Na11 O129 2.560165 1_555
Na11 O89 2.567544 1_555
Na11 O85 2.567629 1_565
Na11 O13 2.714690 1_555
Na11 O55 2.754704 1_555
Na11 O47 2.842675 1_565
Na11 O27 2.908946 1_565
Na12 O94 2.421235 1_565
Na12 O91 2.481709 1_455
Na12 O122 2.509582 1_555
Na12 O124 2.513666 1_555
Na12 O52 2.628565 1_554
Na12 O22 2.717517 1_555
Na12 O32 2.944519 1_565
Na12 O36 2.954801 1_565
Na13 O95 2.419848 1_565
Na13 O123 2.498634 1_555
Na13 O90 2.517030 1_555
Na13 O125 2.559520 1_555
Na13 O23 2.683917 1_555
Na13 O53 2.713159 1_554
Na13 O37 2.922583 1_565
Na13 O33 2.991938 1_565
Na14 O90 2.468192 1_555
Na14 O120 2.471093 1_555
Na14 O124 2.530735 1_555
Na14 O92 2.603898 1_565
Na14 O48 2.708173 1_554
Na14 O18 2.723595 1_555
Na14 O34 2.888262 1_555
Na14 O38 2.921375 1_555
Na15 O121 2.525329 1_555
Na15 O125 2.532466 1_555
Na15 O91 2.535058 1_555
Na15 O93 2.567639 1_565
Na15 O49 2.702856 1_554
Na15 O19 2.731426 1_555
Na15 O35 2.864549 1_555
Na15 O39 2.878917 1_555
Na16 O122 2.490530 1_555
Na16 O93 2.514446 1_455
Na16 O120 2.514589 1_555
Na16 O94 2.591407 1_555
Na16 O50 2.615815 1_554
Na16 O20 2.671515 1_555
Na16 O31 2.867634 1_455
Na16 O41 2.917559 1_455
Na17 O92 2.463710 1_555
Na17 O123 2.489832 1_555
Na17 O121 2.494234 1_555
Na17 O95 2.611036 1_555
Na17 O51 2.682240 1_554
Na17 O21 2.691192 1_555
Na17 O30 2.825658 1_555
Na17 O40 2.925040 1_555
Na18 O108 2.476073 1_555
Na18 O82 2.494304 1_555
Na18 O81 2.498503 1_555
Na18 O110 2.499529 1_555
Na18 O38 2.656328 1_556
Na18 O8 2.710323 1_555
Na18 O67 2.947496 1_555
Na18 O53 2.965152 1_555
Na19 O111 2.530947 1_555
Na19 O80 2.553315 1_655
Na19 O109 2.560067 1_555
Na19 O83 2.562333 1_555
Na19 O39 2.650917 1_556
Na19 O9 2.729131 1_555
Na19 O52 2.831037 1_655
Na19 O66 2.831154 1_655
Na20 O79 2.481418 1_555
Na20 O112 2.501442 1_555
Na20 O82 2.505857 1_545
Na20 O110 2.507347 1_555
Na20 O10 2.703531 1_555
Na20 O40 2.753477 1_556
Na20 O68 2.814074 1_545
Na20 O48 2.901303 1_545
Na21 O111 2.475830 1_555
Na21 O113 2.493316 1_555
Na21 O83 2.531552 1_545
Na21 O78 2.576140 1_655
Na21 O11 2.666525 1_555
Na21 O41 2.731134 1_556
Na21 O49 2.924978 1_545
Na21 O69 2.946813 1_545
Na22 O108 2.470726 1_555
Na22 O80 2.482480 1_545
Na22 O78 2.487203 1_555
Na22 O112 2.502359 1_555
Na22 O36 2.644115 1_556
Na22 O6 2.746250 1_555
Na22 O70 2.906488 1_555
Na22 O50 2.917699 1_555
Na23 O79 2.472526 1_555
Na23 O81 2.478060 1_545
Na23 O113 2.522794 1_555
Na23 O109 2.592118 1_555
Na23 O7 2.645931 1_555
Na23 O37 2.692959 1_556
Na23 O51 2.908135 1_555
Na23 O71 2.981556 1_555
Na24 O118 2.463467 1_555
Na24 O114 2.508804 1_555
Na24 O74 2.571201 1_545
Na24 O77 2.587657 1_555
Na24 O46 2.658515 1_555
Na24 O4 2.758225 1_555
Na24 O61 2.857160 1_555
Na24 O57 2.919280 1_555
Na25 O76 2.486190 1_655
Na25 O119 2.502442 1_555
Na25 O115 2.540001 1_555
Na25 O75 2.585636 1_545
Na25 O47 2.625394 1_555
Na25 O5 2.733225 1_555
Na25 O60 2.845191 1_655
Na25 O56 2.904822 1_655
Na26 O72 2.431286 1_545
Na26 O114 2.454216 1_555
Na26 O116 2.472061 1_555
Na26 O76 2.504130 1_555
Na26 O42 2.630144 1_555
Na26 O0 2.736079 1_555
Na26 O62 2.937956 1_545
Na26 O58 2.993291 1_545
Na27 O73 2.459305 1_545
Na27 O77 2.471703 1_555
Na27 O117 2.532009 1_555
Na27 O115 2.572150 1_555
Na27 O1 2.682763 1_555
Na27 O43 2.734609 1_555
Na27 O59 2.885554 1_545
Na27 O63 2.956182 1_545
Na28 O116 2.438651 1_555
Na28 O118 2.474090 1_555
Na28 O74 2.527763 1_555
Na28 O73 2.553021 1_555
Na28 O44 2.694730 1_555
Na28 O2 2.720954 1_555
Na28 O64 2.786845 1_555
Na28 O54 2.940435 1_555
Na29 O117 2.498194 1_555
Na29 O119 2.498809 1_555
Na29 O75 2.504951 1_555
Na29 O72 2.630853 1_655
Na29 O3 2.656954 1_555
Na29 O45 2.692079 1_555
Na29 O65 2.854441 1_555
Na29 O55 2.929488 1_555
Na30 O76 2.512629 1_555
Na30 O72 2.538253 1_545
Na30 O89 2.549166 1_445
Na30 O86 2.568001 1_555
Na30 O75 2.568131 1_445
Na30 O85 2.588013 1_455
Na31 O87 2.461153 1_565
Na31 O84 2.482339 1_565
Na31 O88 2.521279 1_555
Na31 O74 2.594464 1_555
Na31 O77 2.600225 1_565
Na31 O73 2.607750 1_555
Na32 O94 2.518714 1_555
Na32 O83 2.562215 1_444
Na32 O80 2.562286 1_544
Na32 O78 2.577317 1_554
Na32 O93 2.578466 1_455
Na32 O91 2.586413 1_445
Na33 O81 2.471206 1_555
Na33 O79 2.492939 1_565
Na33 O82 2.522531 1_555
Na33 O90 2.573473 1_556
Na33 O92 2.606704 1_566
Na33 O95 2.625784 1_566
Na34 O112 2.486248 1_555
Na34 O96 2.527895 1_555
Na34 O110 2.539508 1_555
Na34 O108 2.574083 1_555
Na34 O100 2.574989 1_555
Na34 O98 2.584698 1_555
Na35 O97 2.448980 1_555
Na35 O111 2.469067 1_555
Na35 O101 2.482621 1_555
Na35 O109 2.550414 1_555
Na35 O113 2.567824 1_555
Na35 O99 2.581219 1_555
Na36 O118 2.421312 1_555
Na36 O102 2.431924 1_555
Na36 O104 2.534392 1_555
Na36 O116 2.557033 1_555
Na36 O114 2.631497 1_555
Na36 O106 2.699021 1_555
Na37 O103 2.393126 1_555
Na37 O105 2.504120 1_555
Na37 O119 2.510969 1_555
Na37 O117 2.535185 1_555
Na37 O115 2.596889 1_555
Na37 O107 2.676484 1_555
Na38 O136 2.405499 1_555
Na38 O120 2.488440 1_555
Na38 O134 2.497767 1_555
Na38 O122 2.514722 1_555
Na38 O124 2.663420 1_555
Na38 O132 2.678905 1_555
Na39 O137 2.390889 1_555
Na39 O121 2.454909 1_555
Na39 O135 2.511102 1_555
Na39 O123 2.583498 1_555
Na39 O125 2.602000 1_555
Na39 O133 2.669218 1_555
Na40 O140 2.422277 1_555
Na40 O126 2.451877 1_555
Na40 O130 2.500346 1_555
Na40 O142 2.531511 1_555
Na40 O128 2.614380 1_555
Na40 O138 2.685572 1_555
Na41 O127 2.487195 1_555
Na41 O129 2.494565 1_555
Na41 O143 2.508170 1_555
Na41 O131 2.524795 1_555
Na41 O141 2.529090 1_555
Na41 O139 2.529341 1_555
Hf0 O25 2.000689 1_555
Hf0 O29 2.056680 1_555
Hf0 O27 2.058900 1_555
Hf0 O97 2.086890 1_555
Hf0 O101 2.103414 1_555
Hf0 O99 2.158504 1_555
Hf1 O30 1.962411 1_555
Hf1 O34 2.004844 1_555
Hf1 O102 2.053675 1_555
Hf1 O32 2.082445 1_555
Hf1 O104 2.121636 1_555
Hf1 O106 2.299155 1_555
Hf2 O31 1.959232 1_555
Hf2 O35 2.006368 1_555
Hf2 O103 2.056555 1_555
Hf2 O33 2.077353 1_555
Hf2 O105 2.132614 1_555
Hf2 O107 2.293663 1_555
Hf3 O37 2.034062 1_556
Hf3 O41 2.036313 1_556
Hf3 O39 2.056304 1_556
Hf3 O109 2.097730 1_555
Hf3 O113 2.102270 1_555
Hf3 O111 2.111639 1_555
Hf4 O43 2.022775 1_555
Hf4 O45 2.042870 1_555
Hf4 O47 2.051334 1_555
Hf4 O115 2.099829 1_555
Hf4 O117 2.101337 1_555
Hf4 O119 2.109625 1_555
Hf5 O48 2.023546 1_554
Hf5 O50 2.038599 1_554
Hf5 O52 2.050846 1_554
Hf5 O122 2.102122 1_555
Hf5 O124 2.102880 1_555
Hf5 O120 2.110972 1_555
Hf6 O53 2.027607 1_554
Hf6 O51 2.029555 1_554
Hf6 O49 2.044148 1_554
Hf6 O123 2.087470 1_555
Hf6 O125 2.111152 1_555
Hf6 O121 2.114169 1_555
Hf7 O59 2.029195 1_555
Hf7 O55 2.039067 1_555
Hf7 O57 2.049344 1_555
Hf7 O127 2.107557 1_555
Hf7 O129 2.114160 1_555
Hf7 O131 2.118939 1_555
Hf8 O64 1.967555 1_555
Hf8 O60 2.006596 1_555
Hf8 O136 2.055835 1_555
Hf8 O62 2.084766 1_555
Hf8 O134 2.118040 1_555
Hf8 O132 2.307943 1_555
Hf9 O65 1.961990 1_555
Hf9 O61 2.015348 1_555
Hf9 O137 2.053008 1_555
Hf9 O63 2.078782 1_555
Hf9 O135 2.137719 1_555
Hf9 O133 2.291815 1_555
Hf10 O68 1.970271 1_555
Hf10 O66 2.009618 1_555
Hf10 O140 2.056251 1_555
Hf10 O70 2.076588 1_555
Hf10 O142 2.105287 1_555
Hf10 O138 2.319573 1_555
Hf11 O69 2.020206 1_555
Hf11 O67 2.028108 1_555
Hf11 O71 2.028871 1_555
Hf11 O139 2.117678 1_555
Hf11 O141 2.123794 1_555
Hf11 O143 2.152005 1_555
O0 S0 1.482571 1_545
O0 Ti0 2.196471 1_445
O1 S1 1.479511 1_545
O1 Ti1 2.259953 1_545
O2 Si0 1.653278 1_555
O2 Ti1 1.862908 1_555
O3 Si1 1.662676 1_555
O3 Ti0 1.866538 1_555
O4 Si3 1.657640 1_555
O4 Ti1 1.877980 1_545
O5 Si2 1.662854 1_655
O5 Ti0 1.868209 1_545
O6 S2 1.487747 1_555
O6 Ti2 2.203671 1_445
O7 Si4 1.643207 1_555
O7 Ti3 1.917036 1_545
O8 Si6 1.646013 1_555
O8 Ti3 1.926619 1_555
O9 Si5 1.655871 1_655
O9 Ti2 1.871869 1_555
O10 Si7 1.654656 1_555
O10 Ti3 1.918389 1_545
O11 Si8 1.644843 1_555
O11 Ti2 1.880200 1_545
O12 Si7 1.654097 1_565
O12 Ti5 1.888322 1_555
O13 Si8 1.653769 1_565
O13 Ti4 1.889480 1_555
O14 S2 1.489230 1_555
O14 Ti4 2.182547 1_445
O15 Si4 1.649504 1_555
O15 Ti5 1.911203 1_545
O16 Si5 1.657773 1_555
O16 Ti4 1.863041 1_455
O17 Si6 1.647995 1_555
O17 Ti5 1.896493 1_555
O18 Si0 1.660081 1_555
O18 Ti7 1.878323 1_565
O19 Si1 1.659131 1_555
O19 Ti6 1.878082 1_565
O20 Si2 1.656158 1_555
O20 Ti6 1.871961 1_455
O21 Si3 1.657652 1_555
O21 Ti7 1.864245 1_555
O22 S0 1.479702 1_555
O22 Ti6 2.203937 1_465
O23 S1 1.480862 1_555
O23 Ti7 2.246736 1_565
O24 Si9 1.658658 1_555
O24 Ti8 1.856426 1_555
O25 Si10 1.628253 1_555
O26 Si11 1.650626 1_555
O26 Ti8 1.855119 1_555
O27 Si12 1.631870 1_555
O28 Si13 1.650328 1_555
O28 Ti8 1.948625 1_555
O29 Si14 1.620179 1_555
O30 Si15 1.630852 1_555
O31 Si16 1.630770 1_555
O32 Si17 1.621885 1_555
O33 Si18 1.621520 1_555
O34 Si19 1.621661 1_555
O35 Si20 1.623834 1_555
O36 Si19 1.656403 1_555
O36 Ti9 1.925616 1_554
O37 Si20 1.644815 1_555
O38 Si15 1.650491 1_555
O38 Ti9 1.936729 1_554
O39 Si16 1.644434 1_555
O40 Si17 1.645074 1_555
O40 Ti9 1.940437 1_554
O41 Si18 1.637333 1_555
O42 Si11 1.647354 1_555
O42 Ti10 1.924350 1_555
O43 Si12 1.641464 1_555
O44 Si13 1.653977 1_555
O44 Ti10 1.908707 1_555
O45 Si14 1.634521 1_555
O46 Si9 1.640046 1_555
O46 Ti10 1.920832 1_555
O47 Si10 1.644964 1_555
O48 Si21 1.644577 1_555
O49 Si22 1.631501 1_555
O50 Si23 1.643393 1_555
O51 Si24 1.641207 1_555
O52 Si25 1.640989 1_555
O53 Si26 1.639969 1_555
O54 Si27 1.652242 1_555
O54 Ti11 1.924615 1_555
O55 Si28 1.638522 1_555
O56 Si29 1.655063 1_555
O56 Ti11 1.922173 1_555
O57 Si30 1.645998 1_555
O58 Si31 1.661070 1_555
O58 Ti11 1.923699 1_555
O59 Si32 1.647682 1_555
O60 Si31 1.621178 1_555
O61 Si32 1.629347 1_555
O62 Si27 1.625331 1_555
O63 Si28 1.621368 1_555
O64 Si29 1.633532 1_555
O65 Si30 1.631252 1_555
O66 Si23 1.623733 1_555
O67 Si24 1.644952 1_555
O68 Si25 1.635769 1_555
O69 Si26 1.640651 1_555
O70 Si21 1.633383 1_555
O71 Si22 1.630468 1_555
O72 Si31 1.646894 1_555
O72 Ti0 2.051997 1_455
O73 Si32 1.645549 1_555
O73 Ti1 2.006848 1_555
O74 Si27 1.667391 1_555
O74 Ti1 1.924819 1_555
O75 Si28 1.665340 1_555
O75 Ti0 1.912779 1_555
O76 Si29 1.640573 1_555
O76 Ti0 2.076383 1_445
O77 Si30 1.638921 1_555
O77 Ti1 2.022748 1_545
O78 Si23 1.641627 1_555
O78 Ti2 2.001280 1_445
O79 Si24 1.638719 1_555
O79 Ti3 2.045914 1_545
O80 Si25 1.641174 1_555
O80 Ti2 2.011288 1_455
O81 Si26 1.633540 1_555
O81 Ti3 2.060277 1_555
O82 Si21 1.641246 1_555
O82 Ti3 2.012194 1_555
O83 Si22 1.655231 1_555
O83 Ti2 1.920386 1_555
O84 Si9 1.633367 1_555
O84 Ti5 2.089034 1_545
O85 Si10 1.644584 1_555
O85 Ti4 2.020510 1_545
O86 Si11 1.645897 1_555
O86 Ti4 2.048733 1_445
O87 Si12 1.641162 1_555
O87 Ti5 2.044044 1_545
O88 Si13 1.643605 1_555
O88 Ti5 2.071382 1_555
O89 Si14 1.665924 1_555
O89 Ti4 1.922296 1_555
O90 Si15 1.640881 1_555
O90 Ti7 2.063961 1_565
O91 Si16 1.638032 1_555
O91 Ti6 2.014798 1_565
O92 Si17 1.666276 1_555
O92 Ti7 1.918663 1_555
O93 Si18 1.664040 1_555
O93 Ti6 1.912336 1_555
O94 Si19 1.646230 1_555
O94 Ti6 2.055519 1_455
O95 Si20 1.643946 1_555
O95 Ti7 1.997748 1_555
O96 Si7 1.645749 1_555
O96 Ti8 2.009053 1_555
O97 Si8 1.624076 1_555
O98 S2 1.485155 1_555
O98 Ti8 2.306886 1_555
O99 Si4 1.633090 1_555
O100 Si6 1.643582 1_555
O100 Ti8 2.097631 1_555
O101 Si5 1.637531 1_655
O102 Si0 1.621979 1_555
O103 Si1 1.623343 1_555
O104 Si3 1.641611 1_555
O105 Si2 1.643217 1_655
O106 S0 1.496112 1_545
O107 S1 1.499917 1_545
O108 Si21 1.642504 1_555
O108 Ti9 2.025331 1_555
O109 Si22 1.624158 1_555
O110 Si24 1.636434 1_555
O110 Ti9 2.041996 1_555
O111 Si23 1.637566 1_655
O112 Si25 1.633249 1_545
O112 Ti9 2.025547 1_555
O113 Si26 1.636899 1_545
O114 Si27 1.634317 1_545
O114 Ti10 2.050397 1_555
O115 Si28 1.631235 1_545
O116 Si29 1.635190 1_555
O116 Ti10 2.014915 1_555
O117 Si30 1.637478 1_555
O118 Si32 1.641289 1_555
O118 Ti10 2.058763 1_555
O119 Si31 1.640292 1_655
O120 Si19 1.640667 1_555
O121 Si20 1.638053 1_555
O122 Si16 1.632134 1_455
O123 Si15 1.635161 1_555
O124 Si17 1.631457 1_565
O125 Si18 1.632465 1_565
O126 Si11 1.639104 1_565
O126 Ti11 2.100687 1_555
O127 Si12 1.641351 1_565
O128 Si13 1.643532 1_555
O128 Ti11 2.072022 1_555
O129 Si14 1.634598 1_555
O130 Si10 1.640767 1_455
O130 Ti11 2.012471 1_555
O131 Si9 1.636333 1_555
O132 S0 1.495681 1_555
O133 S1 1.499921 1_555
O134 Si0 1.643693 1_555
O135 Si1 1.642070 1_555
O136 Si2 1.621891 1_555
O137 Si3 1.624198 1_555
O138 S2 1.497660 1_555
O139 Si4 1.643389 1_555
O140 Si5 1.619782 1_555
O141 Si6 1.645482 1_555
O142 Si7 1.631824 1_565
O143 Si8 1.653323 1_565
