# generated using pymatgen
data_Dy(GeRu)2
_symmetry_space_group_name_H-M   'P 1'
_cell_length_a   4.23586134
_cell_length_b   4.23586107
_cell_length_c   5.74620857
_cell_angle_alpha   111.62800090
_cell_angle_beta   111.62799393
_cell_angle_gamma   89.99999731
_symmetry_Int_Tables_number   1
_chemical_formula_structural   Dy(GeRu)2
_chemical_formula_sum   'Dy1 Ge2 Ru2'
_cell_volume   87.98725545
_cell_formula_units_Z   1
loop_
 _symmetry_equiv_pos_site_id
 _symmetry_equiv_pos_as_xyz
  1  'x, y, z'
loop_
 _atom_site_type_symbol
 _atom_site_label
 _atom_site_symmetry_multiplicity
 _atom_site_fract_x
 _atom_site_fract_y
 _atom_site_fract_z
 _atom_site_occupancy
  Dy  Dy0  1  -0.00000000  0.00000000  -0.00000000  1
  Ge  Ge0  1  0.63067172  0.63067172  0.26134244  1
  Ge  Ge1  1  0.36932828  0.36932828  0.73865756  1
  Ru  Ru0  1  0.75000000  0.25000000  0.50000000  1
  Ru  Ru1  1  0.25000000  0.75000000  0.50000000  1
loop_
_geom_bond_atom_site_label_1
_geom_bond_atom_site_label_2
_geom_bond_distance
_geom_bond_site_symmetry_2
Dy0 Ru0 3.239991 1_444
Dy0 Ru1 3.239991 1_555
Dy0 Ru0 3.239991 1_455
Dy0 Ru1 3.239991 1_544
Dy0 Ru1 3.239991 1_444
Dy0 Ru0 3.239991 1_555
Dy0 Ru1 3.239991 1_545
Dy0 Ru0 3.239991 1_454
Dy0 Ge0 3.257867 1_445
Dy0 Ge1 3.257867 1_554
Dy0 Ge0 3.257869 1_455
Dy0 Ge1 3.257869 1_544
Dy0 Ge0 3.257869 1_545
Dy0 Ge1 3.257869 1_454
Dy0 Ge0 3.257872 1_555
Dy0 Ge1 3.257872 1_444
Ge0 Ru0 2.419775 1_565
Ge0 Ru1 2.419776 1_655
Ge0 Ru1 2.419779 1_555
Ge0 Ru0 2.419779 1_555
Ge0 Ge1 2.563163 1_554
Ge1 Ru1 2.419775 1_545
Ge1 Ru0 2.419776 1_455
Ge1 Ru0 2.419779 1_555
Ge1 Ru1 2.419779 1_555
