# generated using pymatgen
data_U3Co4Ge7
_symmetry_space_group_name_H-M   'P 1'
_cell_length_a   13.88967522
_cell_length_b   13.88967522
_cell_length_c   13.88967522
_cell_angle_alpha   162.86630101
_cell_angle_beta   162.86630101
_cell_angle_gamma   24.32274909
_symmetry_Int_Tables_number   1
_chemical_formula_structural   U3Co4Ge7
_chemical_formula_sum   'U3 Co4 Ge7'
_cell_volume   232.50755413
_cell_formula_units_Z   1
loop_
 _symmetry_equiv_pos_site_id
 _symmetry_equiv_pos_as_xyz
  1  'x, y, z'
loop_
 _atom_site_type_symbol
 _atom_site_label
 _atom_site_symmetry_multiplicity
 _atom_site_fract_x
 _atom_site_fract_y
 _atom_site_fract_z
 _atom_site_occupancy
  U  U0  1  0.67342000  0.67342000  0.00000000  1
  U  U1  1  0.32658000  0.32658000  0.00000000  1
  U  U2  1  0.00000000  0.00000000  0.00000000  1
  Co  Co0  1  0.25000000  0.75000000  0.50000000  1
  Co  Co1  1  0.75000000  0.25000000  0.50000000  1
  Co  Co2  1  0.88231100  0.88231100  0.00000000  1
  Co  Co3  1  0.11768900  0.11768900  0.00000000  1
  Ge  Ge0  1  0.08076200  0.58076200  0.50000000  1
  Ge  Ge1  1  0.79676200  0.79676200  0.00000000  1
  Ge  Ge2  1  0.20323800  0.20323800  0.00000000  1
  Ge  Ge3  1  0.50000000  0.50000000  0.00000000  1
  Ge  Ge4  1  0.41923800  0.91923800  0.50000000  1
  Ge  Ge5  1  0.91923800  0.41923800  0.50000000  1
  Ge  Ge6  1  0.58076200  0.08076200  0.50000000  1
loop_
_geom_bond_atom_site_label_1
_geom_bond_atom_site_label_2
_geom_bond_distance
_geom_bond_site_symmetry_2
Co0 Ge1 2.427660 1_455
Co0 Ge1 2.427660 1_556
Co0 Ge2 2.427660 1_566
Co0 Ge2 2.427660 1_555
Co0 U1 2.933550 1_566
Co0 U1 2.933550 1_555
Co0 U0 2.933550 1_556
Co0 U0 2.933550 1_455
Co1 Ge1 2.427660 1_545
Co1 Ge2 2.427660 1_656
Co1 Ge1 2.427660 1_556
Co1 Ge2 2.427660 1_555
Co1 U1 2.933550 1_656
Co1 U1 2.933550 1_555
Co1 U0 2.933550 1_556
Co1 U0 2.933550 1_545
Co2 Ge4 2.299251 1_554
Co2 Ge5 2.299251 1_565
Co2 Ge5 2.299251 1_554
Co2 Ge4 2.299251 1_655
Co2 Ge1 2.323163 1_555
Co2 U1 3.294299 1_554
Co2 U1 3.294299 1_565
Co2 U1 3.294299 1_655
Co2 U1 3.294299 1_666
Co3 Ge6 2.299251 1_555
Co3 Ge0 2.299251 1_555
Co3 Ge6 2.299251 1_454
Co3 Ge0 2.299251 1_544
Co3 Ge2 2.323163 1_555
Co3 U0 3.294299 1_556
Co3 U0 3.294299 1_455
Co3 U0 3.294299 1_545
Co3 U0 3.294299 1_444
Ge0 U2 3.015121 1_555
Ge0 U2 3.015121 1_566
Ge0 U0 3.257653 1_556
Ge0 U0 3.257653 1_455
Ge1 U1 3.036053 1_666
Ge1 U1 3.036053 1_655
Ge1 U1 3.036053 1_554
Ge1 U1 3.036053 1_565
Ge2 U0 3.036053 1_556
Ge2 U0 3.036053 1_545
Ge2 U0 3.036053 1_444
Ge2 U0 3.036053 1_455
Ge3 U2 2.926080 1_655
Ge3 U2 2.926080 1_666
Ge3 U2 2.926080 1_554
Ge3 U2 2.926080 1_565
Ge4 U2 3.015121 1_565
Ge4 U2 3.015121 1_666
Ge4 U1 3.257653 1_555
Ge4 U1 3.257653 1_566
Ge5 U2 3.015121 1_655
Ge5 U2 3.015121 1_666
Ge5 U1 3.257653 1_555
Ge5 U1 3.257653 1_656
Ge6 U2 3.015121 1_656
Ge6 U2 3.015121 1_555
Ge6 U0 3.257653 1_556
Ge6 U0 3.257653 1_545
