# generated using pymatgen
data_MgMn6(O5F)2
_symmetry_space_group_name_H-M   'P 1'
_cell_length_a   5.00002066
_cell_length_b   7.51853481
_cell_length_c   5.67004069
_cell_angle_alpha   95.77022745
_cell_angle_beta   95.74941874
_cell_angle_gamma   87.30025478
_symmetry_Int_Tables_number   1
_chemical_formula_structural   MgMn6(O5F)2
_chemical_formula_sum   'Mg1 Mn6 O10 F2'
_cell_volume   210.85833990
_cell_formula_units_Z   1
loop_
 _symmetry_equiv_pos_site_id
 _symmetry_equiv_pos_as_xyz
  1  'x, y, z'
loop_
 _atom_site_type_symbol
 _atom_site_label
 _atom_site_symmetry_multiplicity
 _atom_site_fract_x
 _atom_site_fract_y
 _atom_site_fract_z
 _atom_site_occupancy
  Mg  Mg0  1  0.00258200  0.83506200  0.34679600  1
  Mn  Mn0  1  0.50269900  0.00522900  0.48441800  1
  Mn  Mn1  1  0.51503300  0.66146300  0.14977000  1
  Mn  Mn2  1  0.52396300  0.33497200  0.81874800  1
  Mn  Mn3  1  0.96977600  0.64768800  0.72144600  1
  Mn  Mn4  1  0.98456000  0.32157200  0.34504800  1
  Mn  Mn5  1  0.00432500  0.00238200  0.95987500  1
  O  O0  1  0.79721000  0.42780300  0.65505100  1
  O  O1  1  0.82845500  0.77967000  0.99762200  1
  O  O2  1  0.86052500  0.08702200  0.26422400  1
  O  O3  1  0.69914200  0.09782100  0.77756300  1
  O  O4  1  0.67198400  0.76261600  0.46387100  1
  O  O5  1  0.69432400  0.42400000  0.12913800  1
  O  O6  1  0.31575200  0.55275800  0.87151200  1
  O  O7  1  0.32141600  0.23849400  0.51667500  1
  O  O8  1  0.31077600  0.89526800  0.18551100  1
  O  O9  1  0.14541400  0.87344500  0.69266300  1
  F  F0  1  0.13935900  0.57176000  0.37901000  1
  F  F1  1  0.21270700  0.22205300  0.99105700  1
loop_
_geom_bond_atom_site_label_1
_geom_bond_atom_site_label_2
_geom_bond_distance
_geom_bond_site_symmetry_2
Mg0 O8 1.961402 1_555
Mg0 O4 1.961406 1_455
Mg0 O9 2.015975 1_555
Mg0 O2 2.072993 1_465
Mg0 O1 2.091457 1_454
Mn0 O3 1.927889 1_555
Mn0 O7 1.936456 1_555
Mn0 O4 1.972032 1_545
Mn0 O8 1.985928 1_545
Mn0 O2 2.417343 1_555
Mn0 O9 2.528215 1_545
Mn1 O6 1.911155 1_554
Mn1 O5 1.957836 1_555
Mn1 O4 1.967212 1_555
Mn1 O8 1.993721 1_555
Mn1 O1 2.132178 1_554
Mn2 O6 1.912539 1_555
Mn2 O0 1.920785 1_555
Mn2 O5 1.946133 1_556
Mn2 O3 1.952192 1_555
Mn2 O7 1.989278 1_555
Mn3 O0 1.887715 1_555
Mn3 O1 1.944041 1_555
Mn3 O9 1.975787 1_655
Mn3 O6 1.984142 1_655
Mn3 O4 2.189402 1_555
Mn4 O2 1.894216 1_555
Mn4 O7 1.966899 1_655
Mn4 O5 1.981430 1_555
Mn4 O0 2.140600 1_555
Mn5 O9 1.894030 1_545
Mn5 O3 1.908368 1_455
Mn5 O1 1.967586 1_445
Mn5 O2 1.970925 1_456
Mn5 O8 2.081187 1_546
F0 Mn4 2.051572 1_455
F0 Mg0 2.083315 1_555
F0 Mn3 2.208199 1_455
F0 Mn1 2.541148 1_555
F1 Mn5 1.977656 1_555
F1 Mn2 2.166385 1_555
F1 Mn4 2.442564 1_456
