# generated using pymatgen
data_NaScGeP2SO12
_symmetry_space_group_name_H-M   'P 1'
_cell_length_a   8.57243921
_cell_length_b   8.63367489
_cell_length_c   22.43782041
_cell_angle_alpha   88.79416337
_cell_angle_beta   90.00000000
_cell_angle_gamma   119.76565287
_symmetry_Int_Tables_number   1
_chemical_formula_structural   NaScGeP2SO12
_chemical_formula_sum   'Na6 Sc6 Ge6 P12 S6 O72'
_cell_volume   1441.13434914
_cell_formula_units_Z   6
loop_
 _symmetry_equiv_pos_site_id
 _symmetry_equiv_pos_as_xyz
  1  'x, y, z'
loop_
 _atom_site_type_symbol
 _atom_site_label
 _atom_site_symmetry_multiplicity
 _atom_site_fract_x
 _atom_site_fract_y
 _atom_site_fract_z
 _atom_site_occupancy
  Na  Na0  1  0.99019060  0.99467655  0.50032947  1
  Na  Na1  1  0.00448594  0.99467655  0.00032947  1
  Na  Na2  1  0.65685760  0.32800955  0.83366247  1
  Na  Na3  1  0.67115294  0.32800955  0.33366247  1
  Na  Na4  1  0.32352360  0.66134355  0.16699647  1
  Na  Na5  1  0.33781894  0.66134355  0.66699647  1
  Sc  Sc0  1  0.99413101  0.00420268  0.64538636  1
  Sc  Sc1  1  0.01007167  0.00420268  0.14538636  1
  Sc  Sc2  1  0.66079801  0.33753568  0.97871936  1
  Sc  Sc3  1  0.67673867  0.33753568  0.47871936  1
  Sc  Sc4  1  0.32746401  0.67086968  0.31205336  1
  Sc  Sc5  1  0.34340467  0.67086968  0.81205336  1
  Ge  Ge0  1  0.99879245  0.00112433  0.35141619  1
  Ge  Ge1  1  0.00233188  0.00112433  0.85141619  1
  Ge  Ge2  1  0.66545945  0.33445733  0.68474919  1
  Ge  Ge3  1  0.66899888  0.33445733  0.18474919  1
  Ge  Ge4  1  0.33212545  0.66779133  0.01808319  1
  Ge  Ge5  1  0.33566488  0.66779133  0.51808319  1
  P  P0  1  0.29585734  0.01192236  0.24979439  1
  P  P1  1  0.99272730  0.28507423  0.24886261  1
  P  P2  1  0.29234693  0.28507423  0.74886261  1
  P  P3  1  0.71606501  0.01192236  0.74979439  1
  P  P4  1  0.96252434  0.34525536  0.58312739  1
  P  P5  1  0.65939430  0.61840723  0.58219561  1
  P  P6  1  0.95901393  0.61840723  0.08219561  1
  P  P7  1  0.38273201  0.34525536  0.08312739  1
  P  P8  1  0.62919034  0.67858936  0.91646139  1
  P  P9  1  0.32606030  0.95174123  0.91552961  1
  P  P10  1  0.62567993  0.95174123  0.41552961  1
  P  P11  1  0.04939801  0.67858936  0.41646139  1
  S  S0  1  0.71325657  0.70510781  0.24996664  1
  S  S1  1  0.99185124  0.70510781  0.74996664  1
  S  S2  1  0.37992357  0.03844081  0.58329964  1
  S  S3  1  0.65851824  0.03844081  0.08329964  1
  S  S4  1  0.04658957  0.37177481  0.91663364  1
  S  S5  1  0.32518424  0.37177481  0.41663364  1
  O  O0  1  0.20820163  0.04182038  0.30720932  1
  O  O1  1  0.82389000  0.78287854  0.30486374  1
  O  O2  1  0.95611097  0.16485367  0.30775429  1
  O  O3  1  0.20874270  0.16485367  0.80775429  1
  O  O4  1  0.95898853  0.78287854  0.80486374  1
  O  O5  1  0.83361875  0.04182038  0.80720932  1
  O  O6  1  0.79607745  0.97765189  0.69523790  1
  O  O7  1  0.18152729  0.20007568  0.69456966  1
  O  O8  1  0.02258827  0.81394357  0.69628806  1
  O  O9  1  0.79135530  0.81394357  0.19628806  1
  O  O10  1  0.01854838  0.20007568  0.19456966  1
  O  O11  1  0.18157444  0.97765189  0.19523790  1
  O  O12  1  0.87486863  0.37515338  0.64054232  1
  O  O13  1  0.49055700  0.11621154  0.63819674  1
  O  O14  1  0.62277797  0.49818667  0.64108729  1
  O  O15  1  0.87540970  0.49818667  0.14108729  1
  O  O16  1  0.62565553  0.11621154  0.13819674  1
  O  O17  1  0.50028575  0.37515338  0.14054232  1
  O  O18  1  0.46274445  0.31098489  0.02857090  1
  O  O19  1  0.84819429  0.53340868  0.02790266  1
  O  O20  1  0.68925527  0.14727657  0.02962106  1
  O  O21  1  0.45802230  0.14727657  0.52962106  1
  O  O22  1  0.68521538  0.53340868  0.52790266  1
  O  O23  1  0.84824144  0.31098489  0.52857090  1
  O  O24  1  0.54153463  0.70848738  0.97387632  1
  O  O25  1  0.15722300  0.44954554  0.97153074  1
  O  O26  1  0.28944397  0.83152067  0.97442129  1
  O  O27  1  0.54207570  0.83152067  0.47442129  1
  O  O28  1  0.29232153  0.44954554  0.47153074  1
  O  O29  1  0.16695175  0.70848738  0.47387632  1
  O  O30  1  0.12941045  0.64431889  0.36190490  1
  O  O31  1  0.51486029  0.86674268  0.36123666  1
  O  O32  1  0.35592127  0.48061057  0.36295506  1
  O  O33  1  0.12468830  0.48061057  0.86295506  1
  O  O34  1  0.35188138  0.86674268  0.86123666  1
  O  O35  1  0.51490744  0.64431889  0.86190490  1
  O  O36  1  0.03414181  0.85225950  0.40858683  1
  O  O37  1  0.81816226  0.96993481  0.40914406  1
  O  O38  1  0.15966021  0.19201977  0.41181443  1
  O  O39  1  0.03235955  0.19201977  0.91181443  1
  O  O40  1  0.15177255  0.96993481  0.90914406  1
  O  O41  1  0.81811768  0.85225950  0.90858683  1
  O  O42  1  0.99062243  0.18473621  0.58934092  1
  O  O43  1  0.19956715  0.01517985  0.58989114  1
  O  O44  1  0.82352731  0.80253820  0.58954399  1
  O  O45  1  0.97901088  0.80253820  0.08954399  1
  O  O46  1  0.81561270  0.01517985  0.08989114  1
  O  O47  1  0.19411378  0.18473621  0.08934092  1
  O  O48  1  0.70080881  0.18559250  0.74191983  1
  O  O49  1  0.48482926  0.30326781  0.74247706  1
  O  O50  1  0.82632721  0.52535277  0.74514743  1
  O  O51  1  0.69902655  0.52535277  0.24514743  1
  O  O52  1  0.81843955  0.30326781  0.24247706  1
  O  O53  1  0.48478468  0.18559250  0.24191983  1
  O  O54  1  0.65728943  0.51806921  0.92267392  1
  O  O55  1  0.86623415  0.34851285  0.92322414  1
  O  O56  1  0.49019431  0.13587120  0.92287699  1
  O  O57  1  0.64567788  0.13587120  0.42287699  1
  O  O58  1  0.48227970  0.34851285  0.42322414  1
  O  O59  1  0.86078078  0.51806921  0.42267392  1
  O  O60  1  0.36747481  0.51892650  0.07525383  1
  O  O61  1  0.15149526  0.63660181  0.07581106  1
  O  O62  1  0.49299321  0.85868677  0.07848143  1
  O  O63  1  0.36569255  0.85868677  0.57848143  1
  O  O64  1  0.48510555  0.63660181  0.57581106  1
  O  O65  1  0.15145068  0.51892650  0.57525383  1
  O  O66  1  0.32395543  0.85140321  0.25600792  1
  O  O67  1  0.53290015  0.68184685  0.25655814  1
  O  O68  1  0.15686031  0.46920520  0.25621099  1
  O  O69  1  0.31234388  0.46920520  0.75621099  1
  O  O70  1  0.14894570  0.68184685  0.75655814  1
  O  O71  1  0.52744678  0.85140321  0.75600792  1
loop_
_geom_bond_atom_site_label_1
_geom_bond_atom_site_label_2
_geom_bond_distance
_geom_bond_site_symmetry_2
Na0 O37 2.472269 1_555
Na0 O44 2.511408 1_555
Na0 O38 2.521488 1_665
Na0 O36 2.541217 1_655
Na0 O42 2.610252 1_565
Na0 O43 2.644003 1_665
Na1 O40 2.472269 1_554
Na1 O45 2.511408 1_455
Na1 O39 2.521488 1_564
Na1 O41 2.541217 1_454
Na1 O47 2.610252 1_565
Na1 O46 2.644003 1_465
Na2 O49 2.472269 1_555
Na2 O56 2.511408 1_555
Na2 O50 2.521488 1_555
Na2 O48 2.541217 1_555
Na2 O54 2.610252 1_555
Na2 O55 2.644003 1_555
Na3 O52 2.472269 1_555
Na3 O57 2.511408 1_555
Na3 O51 2.521488 1_555
Na3 O53 2.541217 1_555
Na3 O59 2.610252 1_555
Na3 O58 2.644003 1_555
Na4 O61 2.472269 1_555
Na4 O68 2.511408 1_555
Na4 O62 2.521488 1_555
Na4 O60 2.541217 1_555
Na4 O66 2.610252 1_555
Na4 O67 2.644003 1_555
Na5 O64 2.472269 1_555
Na5 O69 2.511408 1_555
Na5 O63 2.521488 1_555
Na5 O65 2.541217 1_555
Na5 O71 2.610252 1_555
Na5 O70 2.644003 1_555
Ge0 O2 1.883380 1_555
Ge0 O0 1.920664 1_655
Ge0 O36 1.925240 1_645
Ge0 O37 1.928540 1_545
Ge0 O1 2.041384 1_545
Ge0 O38 2.071700 1_655
Ge1 O3 1.883380 1_555
Ge1 O5 1.920664 1_455
Ge1 O41 1.925240 1_445
Ge1 O40 1.928540 1_545
Ge1 O4 2.041384 1_445
Ge1 O39 2.071700 1_555
Ge2 O14 1.883380 1_555
Ge2 O12 1.920664 1_555
Ge2 O48 1.925240 1_555
Ge2 O49 1.928540 1_555
Ge2 O13 2.041384 1_555
Ge2 O50 2.071700 1_555
Ge3 O15 1.883380 1_555
Ge3 O17 1.920664 1_555
Ge3 O53 1.925240 1_555
Ge3 O52 1.928540 1_555
Ge3 O16 2.041384 1_555
Ge3 O51 2.071700 1_555
Ge4 O26 1.883380 1_554
Ge4 O24 1.920664 1_554
Ge4 O60 1.925240 1_555
Ge4 O61 1.928540 1_555
Ge4 O25 2.041384 1_554
Ge4 O62 2.071700 1_555
Ge5 O27 1.883380 1_555
Ge5 O29 1.920664 1_555
Ge5 O65 1.925240 1_555
Ge5 O64 1.928540 1_555
Ge5 O28 2.041384 1_555
Ge5 O63 2.071700 1_555
O0 P0 1.580342 1_555
O1 S0 1.506681 1_555
O2 P1 1.593970 1_555
O3 P2 1.593970 1_555
O4 S1 1.506681 1_555
O5 P3 1.580342 1_555
O6 P3 1.507729 1_565
O6 Sc0 1.946544 1_565
O7 P2 1.506815 1_555
O7 Sc0 2.009852 1_455
O8 S1 1.452432 1_455
O8 Sc0 2.093113 1_465
O9 S0 1.452432 1_555
O9 Sc1 2.093113 1_665
O10 P1 1.506815 1_455
O10 Sc1 2.009852 1_555
O11 P0 1.507729 1_565
O11 Sc1 1.946544 1_565
O12 P4 1.580342 1_555
O13 S2 1.506681 1_555
O14 P5 1.593970 1_555
O15 P6 1.593970 1_555
O16 S3 1.506681 1_555
O17 P7 1.580342 1_555
O18 P7 1.507729 1_555
O18 Sc2 1.946544 1_554
O19 P6 1.506815 1_555
O19 Sc2 2.009852 1_554
O20 S3 1.452432 1_555
O20 Sc2 2.093113 1_554
O21 S2 1.452432 1_555
O21 Sc3 2.093113 1_555
O22 P5 1.506815 1_555
O22 Sc3 2.009852 1_555
O23 P4 1.507729 1_555
O23 Sc3 1.946544 1_555
O24 P8 1.580342 1_555
O25 S4 1.506681 1_555
O26 P9 1.593970 1_555
O27 P10 1.593970 1_555
O28 S5 1.506681 1_555
O29 P11 1.580342 1_555
O30 P11 1.507729 1_555
O30 Sc4 1.946544 1_555
O31 P10 1.506815 1_555
O31 Sc4 2.009852 1_555
O32 S5 1.452432 1_555
O32 Sc4 2.093113 1_555
O33 S4 1.452432 1_555
O33 Sc5 2.093113 1_555
O34 P9 1.506815 1_555
O34 Sc5 2.009852 1_555
O35 P8 1.507729 1_555
O35 Sc5 1.946544 1_555
O36 P11 1.574838 1_555
O37 P10 1.584156 1_555
O38 S5 1.501396 1_555
O39 S4 1.501400 1_555
O40 P9 1.584148 1_555
O41 P8 1.574842 1_555
O42 P4 1.523616 1_555
O42 Sc0 1.993941 1_555
O43 S2 1.463922 1_555
O43 Sc0 2.119017 1_455
O44 P5 1.524547 1_555
O44 Sc0 2.074564 1_565
O45 P6 1.524550 1_555
O45 Sc1 2.074564 1_665
O46 S3 1.463914 1_555
O46 Sc1 2.119017 1_655
O47 P7 1.523621 1_555
O47 Sc1 1.993941 1_555
O48 P3 1.574838 1_555
O49 P2 1.584156 1_555
O50 S1 1.501396 1_555
O51 S0 1.501400 1_555
O52 P1 1.584148 1_555
O53 P0 1.574842 1_555
O54 P8 1.523628 1_555
O54 Sc2 1.993941 1_555
O55 S4 1.463908 1_655
O55 Sc2 2.119017 1_555
O56 P9 1.524542 1_545
O56 Sc2 2.074564 1_555
O57 P10 1.524535 1_545
O57 Sc3 2.074564 1_555
O58 S5 1.463925 1_555
O58 Sc3 2.119017 1_555
O59 P11 1.523617 1_655
O59 Sc3 1.993941 1_555
O60 P7 1.574849 1_555
O61 P6 1.584142 1_455
O62 S3 1.501393 1_565
O63 S2 1.501385 1_565
O64 P5 1.584159 1_555
O65 P4 1.574839 1_455
O66 P0 1.523616 1_565
O66 Sc4 1.993941 1_555
O67 S0 1.463922 1_555
O67 Sc4 2.119017 1_555
O68 P1 1.524547 1_455
O68 Sc4 2.074564 1_555
O69 P2 1.524550 1_555
O69 Sc5 2.074564 1_555
O70 S1 1.463914 1_455
O70 Sc5 2.119017 1_555
O71 P3 1.523621 1_565
O71 Sc5 1.993941 1_555
