# generated using pymatgen
data_Sr2YMgCrO6
_symmetry_space_group_name_H-M   'P 1'
_cell_length_a   6.67457764
_cell_length_b   5.83493657
_cell_length_c   5.83868402
_cell_angle_alpha   59.72728036
_cell_angle_beta   59.46360717
_cell_angle_gamma   59.49416777
_symmetry_Int_Tables_number   1
_chemical_formula_structural   Sr2YMgCrO6
_chemical_formula_sum   'Sr2 Y1 Mg1 Cr1 O6'
_cell_volume   159.18604351
_cell_formula_units_Z   1
loop_
 _symmetry_equiv_pos_site_id
 _symmetry_equiv_pos_as_xyz
  1  'x, y, z'
loop_
 _atom_site_type_symbol
 _atom_site_label
 _atom_site_symmetry_multiplicity
 _atom_site_fract_x
 _atom_site_fract_y
 _atom_site_fract_z
 _atom_site_occupancy
  Sr  Sr0  1  0.45401471  0.15433523  0.15207382  1
  Sr  Sr1  1  0.75642790  0.69909113  0.69857594  1
  Y  Y0  1  0.38034521  0.54267592  0.54161152  1
  Mg  Mg0  1  0.92284289  0.30062111  0.30034501  1
  Cr  Cr0  1  0.00830354  0.99692086  0.99715380  1
  O  O0  1  0.66261513  0.26859222  0.26950863  1
  O  O1  1  0.80498249  0.21952393  0.72204609  1
  O  O2  1  0.80324152  0.72243755  0.21988095  1
  O  O3  1  0.32323858  0.77450690  0.77784953  1
  O  O4  1  0.13455117  0.86926364  0.31667771  1
  O  O5  1  0.13485387  0.31661450  0.86885998  1
loop_
_geom_bond_atom_site_label_1
_geom_bond_atom_site_label_2
_geom_bond_distance
_geom_bond_site_symmetry_2
Mg0 O0 1.940479 1_555
Mg0 O2 2.033799 1_555
Mg0 O1 2.034721 1_555
Mg0 O4 2.150566 1_645
Mg0 O5 2.152306 1_654
Cr0 O3 1.978160 1_555
Cr0 O5 2.074169 1_565
Cr0 O4 2.074731 1_556
Cr0 O1 2.104958 1_465
Cr0 O2 2.108675 1_456
Cr0 O0 2.337741 1_466
O0 Y0 2.256619 1_555
O0 Sr0 2.286162 1_555
O0 Sr1 2.966253 1_545
O0 Sr1 2.974463 1_554
O1 Sr0 2.429260 1_556
O1 Sr1 2.586852 1_555
O2 Sr0 2.430832 1_565
O2 Sr1 2.588403 1_555
O3 Y0 2.168209 1_555
O3 Sr1 2.514262 1_555
O4 Y0 2.130685 1_555
O4 Sr1 2.630760 1_455
O4 Sr0 2.853734 1_565
O5 Y0 2.132453 1_555
O5 Sr1 2.634530 1_455
O5 Sr0 2.849914 1_556
