# generated using pymatgen
data_Sr4MgTi3O10
_symmetry_space_group_name_H-M   'P 1'
_cell_length_a   3.96596540
_cell_length_b   3.94656314
_cell_length_c   16.79975510
_cell_angle_alpha   103.61372751
_cell_angle_beta   93.69549367
_cell_angle_gamma   90.03467026
_symmetry_Int_Tables_number   1
_chemical_formula_structural   Sr4MgTi3O10
_chemical_formula_sum   'Sr4 Mg1 Ti3 O10'
_cell_volume   254.99587089
_cell_formula_units_Z   1
loop_
 _symmetry_equiv_pos_site_id
 _symmetry_equiv_pos_as_xyz
  1  'x, y, z'
loop_
 _atom_site_type_symbol
 _atom_site_label
 _atom_site_symmetry_multiplicity
 _atom_site_fract_x
 _atom_site_fract_y
 _atom_site_fract_z
 _atom_site_occupancy
  Sr  Sr0  1  0.62413397  0.48790498  0.17508959  1
  Sr  Sr1  1  0.55621989  0.24236091  0.93276331  1
  Sr  Sr2  1  0.22344598  0.38073300  0.57290747  1
  Sr  Sr3  1  0.68462351  0.71639862  0.40526792  1
  Mg  Mg0  1  0.96692491  0.60851050  0.80112619  1
  Ti  Ti0  1  0.09129751  0.86346675  0.05213152  1
  Ti  Ti1  1  0.73369666  0.98488286  0.67755907  1
  Ti  Ti2  1  0.15487049  0.10983369  0.29818633  1
  O  O0  1  0.15093735  0.60019722  0.28928339  1
  O  O1  1  0.74313357  0.86300518  0.55422958  1
  O  O2  1  0.18444949  0.22319014  0.41402364  1
  O  O3  1  0.57868420  0.85094929  0.04102646  1
  O  O4  1  0.07800955  0.34644493  0.03632407  1
  O  O5  1  0.11270513  0.97679799  0.16684112  1
  O  O6  1  0.83741497  0.10804672  0.80039732  1
  O  O7  1  0.65065214  0.10175245  0.29032285  1
  O  O8  1  0.27680315  0.97966971  0.67215121  1
  O  O9  1  0.78533053  0.48918808  0.68147996  1
loop_
_geom_bond_atom_site_label_1
_geom_bond_atom_site_label_2
_geom_bond_distance
_geom_bond_site_symmetry_2
Mg0 O9 2.036675 1_555
Mg0 O6 2.037550 1_555
Mg0 O6 2.040188 1_565
O0 Ti2 1.975804 1_555
O0 Ti2 1.981423 1_565
O0 Sr0 2.706260 1_455
O0 Sr0 2.731956 1_555
O0 Sr3 2.733520 1_455
O0 Sr3 2.744714 1_555
O1 Ti1 2.016539 1_555
O1 Sr3 2.427876 1_555
O1 Sr2 2.741968 1_665
O1 Sr2 2.749221 1_655
O1 Sr2 2.882350 1_565
O1 Sr2 2.885971 1_555
O2 Ti2 1.887231 1_555
O2 Sr2 2.588550 1_555
O2 Sr3 2.787576 1_445
O2 Sr3 2.800315 1_455
O2 Sr3 2.803721 1_545
O2 Sr3 2.813023 1_555
O3 Ti0 1.953417 1_555
O3 Ti0 2.029042 1_655
O3 Sr1 2.646510 1_564
O3 Sr1 2.647104 1_554
O3 Sr0 2.936824 1_555
O3 Sr0 2.950602 1_565
O4 Ti0 1.985733 1_545
O4 Ti0 1.994933 1_555
O4 Sr1 2.583887 1_454
O4 Sr1 2.623442 1_554
O4 Sr0 2.985963 1_455
O4 Sr0 3.028605 1_555
O5 Ti0 1.869239 1_555
O5 Ti2 2.139981 1_565
O5 Sr0 2.766303 1_455
O5 Sr0 2.783924 1_465
O5 Sr0 2.819641 1_555
O5 Sr0 2.833590 1_565
O6 Ti1 2.020461 1_545
O6 Sr1 2.497016 1_555
O7 Ti2 1.978938 1_555
O7 Ti2 1.995296 1_655
O7 Sr3 2.718876 1_555
O7 Sr0 2.719073 1_545
O7 Sr3 2.721986 1_545
O7 Sr0 2.728372 1_555
O8 Ti1 1.808303 1_555
O8 Ti1 2.161606 1_455
O8 Sr2 2.551575 1_555
O8 Sr2 2.554824 1_565
O9 Ti1 1.983117 1_555
O9 Ti1 1.985827 1_545
O9 Sr2 2.563426 1_655
O9 Sr2 2.753788 1_555
