# generated using pymatgen
data_Mg(Fe2O3)4
_symmetry_space_group_name_H-M   'P 1'
_cell_length_a   5.31251700
_cell_length_b   5.70925804
_cell_length_c   7.67832318
_cell_angle_alpha   84.02167378
_cell_angle_beta   90.00000000
_cell_angle_gamma   90.00000000
_symmetry_Int_Tables_number   1
_chemical_formula_structural   Mg(Fe2O3)4
_chemical_formula_sum   'Mg1 Fe8 O12'
_cell_volume   231.62102387
_cell_formula_units_Z   1
loop_
 _symmetry_equiv_pos_site_id
 _symmetry_equiv_pos_as_xyz
  1  'x, y, z'
loop_
 _atom_site_type_symbol
 _atom_site_label
 _atom_site_symmetry_multiplicity
 _atom_site_fract_x
 _atom_site_fract_y
 _atom_site_fract_z
 _atom_site_occupancy
  Mg  Mg0  1  0.75500100  0.75000000  0.00000000  1
  Fe  Fe0  1  0.24382700  0.45141800  0.09158600  1
  Fe  Fe1  1  0.23592500  0.04100200  0.40272100  1
  Fe  Fe2  1  0.23592500  0.45899800  0.59727900  1
  Fe  Fe3  1  0.24382800  0.04858200  0.90841400  1
  Fe  Fe4  1  0.73945500  0.30351700  0.78271400  1
  Fe  Fe5  1  0.74122300  0.93557000  0.60095500  1
  Fe  Fe6  1  0.74122300  0.56443000  0.39904500  1
  Fe  Fe7  1  0.73945400  0.19648300  0.21728600  1
  O  O0  1  0.38043500  0.39899000  0.83634900  1
  O  O1  1  0.07578300  0.10599300  0.65621500  1
  O  O2  1  0.07578300  0.39400700  0.34378500  1
  O  O3  1  0.38043500  0.10101000  0.16365100  1
  O  O4  1  0.58723600  0.54217800  0.17148900  1
  O  O5  1  0.89377300  0.90520900  0.35690400  1
  O  O6  1  0.89377300  0.59479100  0.64309600  1
  O  O7  1  0.58723600  0.95782200  0.82851100  1
  O  O8  1  0.11124500  0.75000000  0.00000000  1
  O  O9  1  0.54905700  0.25000000  0.50000000  1
  O  O10  1  0.95704700  0.25000000  0.00000000  1
  O  O11  1  0.43233500  0.75000000  0.50000000  1
loop_
_geom_bond_atom_site_label_1
_geom_bond_atom_site_label_2
_geom_bond_distance
_geom_bond_site_symmetry_2
Mg0 O8 1.892552 1_655
Mg0 O7 1.900138 1_554
Mg0 O4 1.900138 1_555
Fe0 O8 1.909675 1_555
Fe0 O4 2.009837 1_555
Fe0 O10 2.075206 1_455
Fe0 O2 2.126522 1_555
Fe0 O0 2.139921 1_554
Fe0 O3 2.145823 1_555
Fe1 O3 1.986301 1_555
Fe1 O5 2.021292 1_445
Fe1 O11 2.036771 1_545
Fe1 O1 2.190985 1_555
Fe1 O2 2.190985 1_555
Fe1 O9 2.221408 1_555
Fe2 O0 1.986301 1_555
Fe2 O6 2.021292 1_455
Fe2 O11 2.036771 1_555
Fe2 O2 2.190985 1_555
Fe2 O1 2.190985 1_555
Fe2 O9 2.221408 1_555
Fe3 O8 1.909677 1_546
Fe3 O7 2.009832 1_545
Fe3 O10 2.075210 1_456
Fe3 O1 2.126525 1_555
Fe3 O3 2.139919 1_556
Fe3 O0 2.145822 1_555
Fe4 O10 2.026561 1_556
Fe4 O0 2.037466 1_555
Fe4 O6 2.053151 1_555
Fe4 O7 2.127996 1_545
Fe4 O1 2.373984 1_655
Fe4 O9 2.442719 1_555
Fe5 O7 1.945373 1_555
Fe5 O5 2.065431 1_555
Fe5 O1 2.090869 1_665
Fe5 O6 2.101355 1_555
Fe5 O9 2.139119 1_565
Fe5 O11 2.141779 1_555
Fe6 O4 1.945373 1_555
Fe6 O6 2.065431 1_555
Fe6 O2 2.090869 1_655
Fe6 O5 2.101355 1_555
Fe6 O9 2.139119 1_555
Fe6 O11 2.141779 1_555
Fe7 O10 2.026564 1_555
Fe7 O3 2.037461 1_555
Fe7 O5 2.053153 1_545
Fe7 O4 2.127994 1_555
Fe7 O2 2.373988 1_655
Fe7 O9 2.442716 1_555
