# generated using pymatgen
data_Na10NbIn7(PO4)12
_symmetry_space_group_name_H-M   'P 1'
_cell_length_a   18.08351539
_cell_length_b   9.04912792
_cell_length_c   22.85522826
_cell_angle_alpha   89.98897419
_cell_angle_beta   89.99919570
_cell_angle_gamma   120.09456082
_symmetry_Int_Tables_number   1
_chemical_formula_structural   Na10NbIn7(PO4)12
_chemical_formula_sum   'Na30 Nb3 In21 P36 O144'
_cell_volume   3235.87070844
_cell_formula_units_Z   3
loop_
 _symmetry_equiv_pos_site_id
 _symmetry_equiv_pos_as_xyz
  1  'x, y, z'
loop_
 _atom_site_type_symbol
 _atom_site_label
 _atom_site_symmetry_multiplicity
 _atom_site_fract_x
 _atom_site_fract_y
 _atom_site_fract_z
 _atom_site_occupancy
  Na  Na0  1  0.31726827  0.99981033  0.25221170  1
  Na  Na1  1  0.68346049  0.36518490  0.25202276  1
  Na  Na2  1  0.31487499  0.63136493  0.75277803  1
  Na  Na3  1  0.81487166  0.63125849  0.75253377  1
  Na  Na4  1  0.15126182  0.33382619  0.58260239  1
  Na  Na5  1  0.65107011  0.33407011  0.58257075  1
  Na  Na6  1  0.01502550  0.69774704  0.58318603  1
  Na  Na7  1  0.51568609  0.69752209  0.58314800  1
  Na  Na8  1  0.33276604  0.96817278  0.58249237  1
  Na  Na9  1  0.83330031  0.96928761  0.58250360  1
  Na  Na10  1  0.15118437  0.96884923  0.08266485  1
  Na  Na11  1  0.65200045  0.97003719  0.08353169  1
  Na  Na12  1  0.33287778  0.69651432  0.08330346  1
  Na  Na13  1  0.83311628  0.69728621  0.08295651  1
  Na  Na14  1  0.01508854  0.33339371  0.08287588  1
  Na  Na15  1  0.51543717  0.33395124  0.08342115  1
  Na  Na16  1  0.66705967  0.03289469  0.41417337  1
  Na  Na17  1  0.34849865  0.66614899  0.41361352  1
  Na  Na18  1  0.00027374  0.99937032  0.49759438  1
  Na  Na19  1  0.49957013  0.01133064  0.49552860  1
  Na  Na20  1  0.00002652  0.00014991  0.99942566  1
  Na  Na21  1  0.50021053  0.99974569  0.99952314  1
  Na  Na22  1  0.33376162  0.32355042  0.83644426  1
  Na  Na23  1  0.83376530  0.32365101  0.83647375  1
  Na  Na24  1  0.33468251  0.33498949  0.33287460  1
  Na  Na25  1  0.84252603  0.34182477  0.33330459  1
  Na  Na26  1  0.16228816  0.65461034  0.17132715  1
  Na  Na27  1  0.66579198  0.67784891  0.17107631  1
  Na  Na28  1  0.16131888  0.66739707  0.67148258  1
  Na  Na29  1  0.66126794  0.66657100  0.67149935  1
  Nb  Nb0  1  0.00026867  0.99939126  0.35098955  1
  Nb  Nb1  1  0.00105491  0.00238013  0.85349143  1
  Nb  Nb2  1  0.50107625  0.00245960  0.85345276  1
  In  In0  1  0.49962459  0.00445901  0.34932677  1
  In  In1  1  0.00146391  0.00278859  0.65355899  1
  In  In2  1  0.50140034  0.00225639  0.65308560  1
  In  In3  1  0.99988017  0.00002801  0.15332499  1
  In  In4  1  0.50030167  0.99779191  0.15356509  1
  In  In5  1  0.33369569  0.32698221  0.68815492  1
  In  In6  1  0.83382953  0.32747546  0.68820830  1
  In  In7  1  0.33248033  0.34021785  0.18543091  1
  In  In8  1  0.83755093  0.33158284  0.18709069  1
  In  In9  1  0.33332788  0.33410962  0.98017438  1
  In  In10  1  0.83336659  0.33377577  0.98030262  1
  In  In11  1  0.33281135  0.32485839  0.48133372  1
  In  In12  1  0.83657827  0.34090591  0.48084259  1
  In  In13  1  0.16632408  0.66696193  0.01076591  1
  In  In14  1  0.66642605  0.66672017  0.01080353  1
  In  In15  1  0.16310200  0.66411646  0.51144738  1
  In  In16  1  0.66828770  0.66586946  0.51193709  1
  In  In17  1  0.16388859  0.66091791  0.31629204  1
  In  In18  1  0.66500890  0.66867817  0.31665995  1
  In  In19  1  0.16363994  0.66725006  0.81753879  1
  In  In20  1  0.66363359  0.66724847  0.81757007  1
  P  P0  1  0.14720131  0.99845773  0.24958618  1
  P  P1  1  0.65014045  0.00012628  0.24987116  1
  P  P2  1  0.34975845  0.70108026  0.25091222  1
  P  P3  1  0.85223425  0.70478958  0.24983416  1
  P  P4  1  0.00068728  0.29409961  0.24983284  1
  P  P5  1  0.49983714  0.29907326  0.24830615  1
  P  P6  1  0.14734372  0.29619924  0.75009041  1
  P  P7  1  0.64735400  0.29603728  0.75008312  1
  P  P8  1  0.00110995  0.70770924  0.74973631  1
  P  P9  1  0.50112086  0.70783208  0.74965285  1
  P  P10  1  0.35308164  0.99882697  0.75059228  1
  P  P11  1  0.85304920  0.99894610  0.75060668  1
  P  P12  1  0.48116611  0.33439576  0.58417572  1
  P  P13  1  0.98046387  0.33393868  0.58365751  1
  P  P14  1  0.18577842  0.03786110  0.58385435  1
  P  P15  1  0.68643518  0.03839096  0.58224087  1
  P  P16  1  0.33269544  0.62756936  0.58371108  1
  P  P17  1  0.83330729  0.62872039  0.58555015  1
  P  P18  1  0.48099261  0.62773442  0.08260391  1
  P  P19  1  0.98080770  0.62741950  0.08318889  1
  P  P20  1  0.33282693  0.03800917  0.08438522  1
  P  P21  1  0.83309136  0.03811808  0.08267899  1
  P  P22  1  0.18556866  0.33363919  0.08236160  1
  P  P23  1  0.68649954  0.33433725  0.08451210  1
  P  P24  1  0.31593252  0.66675370  0.91464682  1
  P  P25  1  0.81590289  0.66645100  0.91465111  1
  P  P26  1  0.01703120  0.36786011  0.91624977  1
  P  P27  1  0.51715049  0.36784115  0.91634979  1
  P  P28  1  0.16694820  0.96561128  0.91612703  1
  P  P29  1  0.66690157  0.96564791  0.91612982  1
  P  P30  1  0.31530980  0.96326431  0.41581940  1
  P  P31  1  0.81672155  0.96486808  0.41675547  1
  P  P32  1  0.16562883  0.36726603  0.41692182  1
  P  P33  1  0.66690050  0.36720588  0.41615250  1
  P  P34  1  0.01748160  0.66881724  0.41587003  1
  P  P35  1  0.51731418  0.66626027  0.41754808  1
  O  O0  1  0.09423532  0.01353643  0.30203047  1
  O  O1  1  0.60852318  0.02947704  0.30459197  1
  O  O2  1  0.40305247  0.78415530  0.30646374  1
  O  O3  1  0.91273969  0.81122651  0.30232812  1
  O  O4  1  0.48316824  0.18100862  0.30102413  1
  O  O5  1  0.99395846  0.17227807  0.30202667  1
  O  O6  1  0.09494252  0.17529126  0.80204792  1
  O  O7  1  0.59490211  0.17530050  0.80206512  1
  O  O8  1  0.49169038  0.81251605  0.80136288  1
  O  O9  1  0.99174840  0.81258354  0.80144568  1
  O  O10  1  0.41368118  0.01454514  0.80256666  1
  O  O11  1  0.91368681  0.01482825  0.80257381  1
  O  O12  1  0.38898563  0.96827650  0.69302828  1
  O  O13  1  0.88895328  0.96859343  0.69304944  1
  O  O14  1  0.09934788  0.22494465  0.69200821  1
  O  O15  1  0.59927083  0.22447356  0.69197324  1
  O  O16  1  0.01232316  0.80331644  0.69148113  1
  O  O17  1  0.51245952  0.80360085  0.69131296  1
  O  O18  1  0.38897819  0.80985791  0.19470246  1
  O  O19  1  0.88875049  0.80249536  0.19241987  1
  O  O20  1  0.01194547  0.22118730  0.19175502  1
  O  O21  1  0.51589477  0.22475543  0.19154201  1
  O  O22  1  0.09855433  0.97518951  0.19218766  1
  O  O23  1  0.59890314  0.97577792  0.19287806  1
  O  O24  1  0.44247959  0.37067630  0.63828219  1
  O  O25  1  0.94235133  0.37071082  0.63799715  1
  O  O26  1  0.24257196  0.11494291  0.63806513  1
  O  O27  1  0.74405113  0.11934342  0.63576374  1
  O  O28  1  0.31719961  0.51804414  0.63922154  1
  O  O29  1  0.81698623  0.52104041  0.64164204  1
  O  O30  1  0.44290433  0.51511951  0.13700140  1
  O  O31  1  0.94299318  0.51538921  0.13788306  1
  O  O32  1  0.31598372  0.11086443  0.14097618  1
  O  O33  1  0.81499171  0.11375089  0.13724744  1
  O  O34  1  0.24131377  0.36979714  0.13710866  1
  O  O35  1  0.74014488  0.36813517  0.14089512  1
  O  O36  1  0.22462216  0.29729147  0.02893949  1
  O  O37  1  0.72708637  0.29927669  0.03164788  1
  O  O38  1  0.42393918  0.55107247  0.02885407  1
  O  O39  1  0.92371823  0.55057416  0.02949720  1
  O  O40  1  0.35030467  0.15486641  0.03173886  1
  O  O41  1  0.85147140  0.15212586  0.02901929  1
  O  O42  1  0.22386952  0.15186507  0.52987922  1
  O  O43  1  0.72376055  0.14583179  0.52633510  1
  O  O44  1  0.34861992  0.54861294  0.52879756  1
  O  O45  1  0.85058054  0.54785387  0.53236986  1
  O  O46  1  0.42441720  0.29664933  0.53004984  1
  O  O47  1  0.92374741  0.29647167  0.52959525  1
  O  O48  1  0.28164529  0.70381081  0.97133916  1
  O  O49  1  0.78164895  0.70355206  0.97130020  1
  O  O50  1  0.06846324  0.43263684  0.97371116  1
  O  O51  1  0.56857638  0.43255801  0.97376975  1
  O  O52  1  0.14725686  0.86242670  0.97358196  1
  O  O53  1  0.64721628  0.86231011  0.97345408  1
  O  O54  1  0.27601514  0.85396399  0.47243558  1
  O  O55  1  0.78505210  0.86482292  0.47502980  1
  O  O56  1  0.14647471  0.43094115  0.47477398  1
  O  O57  1  0.65493018  0.44379724  0.47368342  1
  O  O58  1  0.06677188  0.70541701  0.47445849  1
  O  O59  1  0.57050460  0.69898020  0.47467580  1
  O  O60  1  0.06190803  0.64351679  0.36421191  1
  O  O61  1  0.56008436  0.64023092  0.36470609  1
  O  O62  1  0.26255796  0.87909384  0.36072839  1
  O  O63  1  0.75614561  0.87735318  0.36585932  1
  O  O64  1  0.18304513  0.48748703  0.36577542  1
  O  O65  1  0.67793611  0.47345078  0.36130426  1
  O  O66  1  0.06057289  0.47916817  0.86355994  1
  O  O67  1  0.56042223  0.47926248  0.86363822  1
  O  O68  1  0.17995767  0.87939780  0.86353828  1
  O  O69  1  0.68007652  0.87974041  0.86346115  1
  O  O70  1  0.26265780  0.64375270  0.86000692  1
  O  O71  1  0.76265747  0.64346675  0.86000329  1
  O  O72  1  0.00890834  0.83343959  0.40527307  1
  O  O73  1  0.51041789  0.83121599  0.41287050  1
  O  O74  1  0.40314678  0.97088419  0.41311753  1
  O  O75  1  0.90730434  0.98444946  0.40542328  1
  O  O76  1  0.08515721  0.18550688  0.40574810  1
  O  O77  1  0.58727627  0.18447161  0.41307422  1
  O  O78  1  0.00942254  0.18612226  0.90566019  1
  O  O79  1  0.50947489  0.18618526  0.90572242  1
  O  O80  1  0.08404832  0.98181523  0.90524844  1
  O  O81  1  0.58399743  0.98177695  0.90515978  1
  O  O82  1  0.40743426  0.83310072  0.90528530  1
  O  O83  1  0.90744885  0.83288950  0.90524415  1
  O  O84  1  0.49125500  0.17309399  0.58950424  1
  O  O85  1  0.99128013  0.17372780  0.58912984  1
  O  O86  1  0.09497144  0.01734951  0.58899518  1
  O  O87  1  0.59602255  0.01921681  0.58812080  1
  O  O88  1  0.41350805  0.80938704  0.58837925  1
  O  O89  1  0.91368205  0.81101324  0.58927618  1
  O  O90  1  0.49134377  0.80952774  0.08840924  1
  O  O91  1  0.99152647  0.80947854  0.08889230  1
  O  O92  1  0.41322879  0.01659821  0.08888339  1
  O  O93  1  0.91345069  0.01656817  0.08825635  1
  O  O94  1  0.09466606  0.17265729  0.08808800  1
  O  O95  1  0.59524917  0.17308917  0.08871015  1
  O  O96  1  0.34783992  0.16232108  0.75023867  1
  O  O97  1  0.84767532  0.16225325  0.75006742  1
  O  O98  1  0.23668745  0.31194630  0.74996652  1
  O  O99  1  0.73657138  0.31131027  0.75000518  1
  O  O100  1  0.41477167  0.53660797  0.74960558  1
  O  O101  1  0.91491047  0.53638094  0.74982982  1
  O  O102  1  0.34057637  0.52346672  0.24700485  1
  O  O103  1  0.84542586  0.52813456  0.25028821  1
  O  O104  1  0.41696906  0.30838969  0.24432362  1
  O  O105  1  0.91769044  0.30062176  0.25138323  1
  O  O106  1  0.23633027  0.16045649  0.25018940  1
  O  O107  1  0.73696700  0.17045792  0.24645566  1
  O  O108  1  0.32900772  0.51338686  0.91952575  1
  O  O109  1  0.82898629  0.51312148  0.91967655  1
  O  O110  1  0.42689207  0.33973776  0.92060974  1
  O  O111  1  0.92696162  0.34033840  0.92034495  1
  O  O112  1  0.24365125  0.14570363  0.92050427  1
  O  O113  1  0.74335025  0.14610079  0.92055948  1
  O  O114  1  0.32501757  0.14134182  0.42001073  1
  O  O115  1  0.82443272  0.14193085  0.42121409  1
  O  O116  1  0.24708121  0.35376269  0.42183518  1
  O  O117  1  0.74586544  0.34254486  0.41961084  1
  O  O118  1  0.42539757  0.51259186  0.42175011  1
  O  O119  1  0.92744223  0.51369764  0.41964317  1
  O  O120  1  0.17583596  0.49509777  0.07644103  1
  O  O121  1  0.67685137  0.49560631  0.07746902  1
  O  O122  1  0.07139660  0.64742280  0.07708319  1
  O  O123  1  0.57175817  0.64866264  0.07664997  1
  O  O124  1  0.25205477  0.85711448  0.07749020  1
  O  O125  1  0.75241865  0.85647206  0.07658603  1
  O  O126  1  0.17546014  0.85674348  0.57783872  1
  O  O127  1  0.67590302  0.85669001  0.57745113  1
  O  O128  1  0.25191661  0.64672419  0.57795432  1
  O  O129  1  0.75244255  0.64727690  0.57920537  1
  O  O130  1  0.07108519  0.49548620  0.57762866  1
  O  O131  1  0.57182339  0.49476262  0.57809497  1
  O  O132  1  0.15849242  0.84211088  0.25604775  1
  O  O133  1  0.66033659  0.84228810  0.25438055  1
  O  O134  1  0.26244781  0.69477537  0.25426081  1
  O  O135  1  0.76220791  0.68009986  0.25678963  1
  O  O136  1  0.08045936  0.46935112  0.25627628  1
  O  O137  1  0.58272820  0.47336467  0.25421382  1
  O  O138  1  0.15987951  0.47699522  0.75631103  1
  O  O139  1  0.65991141  0.47683465  0.75634330  1
  O  O140  1  0.07915979  0.68642519  0.75576998  1
  O  O141  1  0.57907110  0.68638213  0.75571804  1
  O  O142  1  0.26591555  0.83349932  0.75689721  1
  O  O143  1  0.76589189  0.83357009  0.75689608  1
loop_
_geom_bond_atom_site_label_1
_geom_bond_atom_site_label_2
_geom_bond_distance
_geom_bond_site_symmetry_2
Na0 O134 2.420730 1_555
Na0 O104 2.455886 1_565
Na0 O132 2.485749 1_555
Na0 O106 2.528126 1_565
Na0 O62 2.690432 1_555
Na0 O32 2.737925 1_565
Na0 O4 2.828622 1_565
Na0 O18 2.932585 1_555
Na1 O107 2.401539 1_555
Na1 O137 2.463199 1_555
Na1 O135 2.467998 1_555
Na1 O103 2.534396 1_555
Na1 O65 2.703179 1_555
Na1 O35 2.733995 1_555
Na1 O1 2.894587 1_555
Na1 O21 2.974344 1_555
Na2 O100 2.357400 1_555
Na2 O142 2.400544 1_555
Na2 O138 2.426383 1_555
Na2 O98 2.501915 1_555
Na2 O70 2.648875 1_555
Na2 O28 2.798833 1_555
Na3 O101 2.360350 1_555
Na3 O143 2.402564 1_555
Na3 O139 2.426047 1_555
Na3 O99 2.505905 1_555
Na3 O71 2.653585 1_555
Na3 O29 2.731100 1_555
Na4 O128 2.484528 1_555
Na4 O85 2.507472 1_455
Na4 O86 2.517026 1_555
Na4 O130 2.526278 1_555
Na4 O56 2.632250 1_555
Na4 O14 2.678796 1_555
Na4 O42 2.838332 1_555
Na4 O28 2.905562 1_555
Na5 O129 2.487730 1_555
Na5 O131 2.503669 1_555
Na5 O84 2.505449 1_555
Na5 O87 2.506037 1_555
Na5 O57 2.667148 1_555
Na5 O15 2.679634 1_555
Na5 O43 2.920222 1_555
Na5 O29 2.932158 1_555
Na6 O130 2.500925 1_555
Na6 O86 2.505817 1_565
Na6 O89 2.512432 1_455
Na6 O126 2.513143 1_555
Na6 O58 2.643933 1_555
Na6 O16 2.662498 1_555
Na6 O45 2.826207 1_455
Na6 O25 2.855278 1_455
Na7 O131 2.505669 1_555
Na7 O127 2.510122 1_555
Na7 O88 2.515742 1_555
Na7 O87 2.521242 1_565
Na7 O17 2.663340 1_555
Na7 O59 2.667563 1_555
Na7 O24 2.856585 1_555
Na7 O44 2.899006 1_555
Na8 O126 2.498709 1_555
Na8 O88 2.513662 1_555
Na8 O128 2.518879 1_555
Na8 O84 2.519679 1_565
Na8 O54 2.717687 1_555
Na8 O12 2.723050 1_555
Na8 O46 2.841987 1_565
Na8 O26 2.865388 1_565
Na9 O127 2.498912 1_555
Na9 O89 2.505185 1_555
Na9 O85 2.511335 1_565
Na9 O129 2.522262 1_555
Na9 O55 2.619596 1_555
Na9 O13 2.720799 1_555
Na9 O47 2.836462 1_565
Na9 O27 2.851095 1_565
Na10 O124 2.492644 1_555
Na10 O91 2.502022 1_455
Na10 O122 2.519852 1_555
Na10 O94 2.520269 1_565
Na10 O52 2.660907 1_554
Na10 O22 2.688810 1_555
Na10 O36 2.853963 1_565
Na10 O32 2.910147 1_565
Na11 O125 2.500076 1_555
Na11 O90 2.516069 1_555
Na11 O95 2.516861 1_565
Na11 O123 2.521094 1_555
Na11 O53 2.683963 1_554
Na11 O23 2.687070 1_555
Na11 O33 2.835949 1_565
Na11 O37 2.840403 1_565
Na12 O120 2.494142 1_555
Na12 O92 2.509304 1_565
Na12 O90 2.516417 1_555
Na12 O124 2.529023 1_555
Na12 O48 2.733563 1_554
Na12 O18 2.742467 1_555
Na12 O34 2.843239 1_555
Na12 O38 2.857714 1_555
Na13 O121 2.481909 1_555
Na13 O93 2.502717 1_565
Na13 O125 2.516705 1_555
Na13 O91 2.517659 1_555
Na13 O19 2.686642 1_555
Na13 O49 2.726668 1_554
Na13 O39 2.849865 1_555
Na13 O35 2.903137 1_555
Na14 O122 2.495515 1_555
Na14 O94 2.509923 1_555
Na14 O93 2.515605 1_455
Na14 O120 2.519312 1_555
Na14 O50 2.663243 1_554
Na14 O20 2.677270 1_555
Na14 O41 2.844959 1_455
Na14 O31 2.854222 1_455
Na15 O123 2.502524 1_555
Na15 O95 2.514656 1_555
Na15 O92 2.521040 1_555
Na15 O121 2.529105 1_555
Na15 O21 2.662742 1_555
Na15 O51 2.671959 1_554
Na15 O30 2.839882 1_555
Na15 O40 2.843669 1_555
Na16 O117 2.427638 1_555
Na16 O77 2.438891 1_555
Na16 O73 2.484157 1_545
Na16 O115 2.506479 1_555
Na16 O1 2.713173 1_555
Na16 O43 2.759969 1_555
Na16 O63 2.840812 1_545
Na16 O59 2.966213 1_545
Na17 O118 2.415985 1_555
Na17 O74 2.418282 1_555
Na17 O116 2.488044 1_555
Na17 O73 2.533545 1_555
Na17 O2 2.655799 1_555
Na17 O64 2.812634 1_555
Na17 O44 2.839519 1_555
Na17 O54 2.940899 1_555
Na18 O72 2.639604 1_555
Na18 O76 2.646787 1_565
Na18 O86 2.653997 1_565
Na18 O75 2.656125 1_455
Na18 O89 2.658918 1_455
Na18 O85 2.674169 1_465
Na19 O77 2.455281 1_555
Na19 O74 2.466244 1_545
Na19 O73 2.566275 1_545
Na19 O84 2.645847 1_555
Na19 O87 2.720483 1_555
Na19 O88 2.722353 1_545
Na20 O94 2.606564 1_556
Na20 O93 2.613112 1_456
Na20 O91 2.629535 1_446
Na20 O78 2.676827 1_555
Na20 O83 2.680900 1_445
Na20 O80 2.687377 1_545
Na21 O90 2.614862 1_556
Na21 O95 2.620501 1_566
Na21 O92 2.628528 1_566
Na21 O79 2.680598 1_565
Na21 O82 2.681770 1_555
Na21 O81 2.687119 1_555
Na22 O112 2.511007 1_555
Na22 O110 2.512142 1_555
Na22 O96 2.539472 1_555
Na22 O108 2.591020 1_555
Na22 O98 2.610431 1_555
Na22 O100 2.639750 1_555
Na23 O111 2.506505 1_555
Na23 O113 2.512425 1_555
Na23 O97 2.542806 1_555
Na23 O109 2.590970 1_555
Na23 O99 2.609713 1_555
Na23 O101 2.635530 1_555
Na24 O106 2.532428 1_555
Na24 O102 2.566783 1_555
Na24 O104 2.593734 1_555
Na24 O118 2.599504 1_555
Na24 O114 2.599787 1_555
Na24 O116 2.634814 1_555
Na25 O105 2.449613 1_555
Na25 O119 2.505392 1_555
Na25 O103 2.520956 1_555
Na25 O115 2.611694 1_555
Na25 O117 2.637745 1_555
Na25 O107 2.649770 1_555
Na26 O136 2.506096 1_555
Na26 O134 2.519058 1_555
Na26 O132 2.598251 1_555
Na26 O120 2.683732 1_555
Na26 O122 2.690409 1_555
Na26 O124 2.758243 1_555
Na27 O133 2.448928 1_555
Na27 O137 2.549882 1_555
Na27 O135 2.615819 1_555
Na27 O123 2.677462 1_555
Na27 O125 2.681373 1_555
Na27 O121 2.769269 1_555
Na28 O140 2.490919 1_555
Na28 O138 2.584934 1_555
Na28 O142 2.607292 1_555
Na28 O130 2.672000 1_555
Na28 O126 2.672272 1_555
Na28 O128 2.756065 1_555
Na29 O141 2.492756 1_555
Na29 O139 2.581707 1_555
Na29 O143 2.608940 1_555
Na29 O131 2.658969 1_555
Na29 O127 2.681814 1_555
Na29 O129 2.736272 1_555
Nb0 O5 1.972627 1_465
Nb0 O0 1.984360 1_565
Nb0 O3 1.984817 1_455
Nb0 O72 2.013303 1_555
Nb0 O75 2.040624 1_455
Nb0 O76 2.041414 1_565
Nb1 O78 1.989370 1_555
Nb1 O80 1.991588 1_545
Nb1 O83 2.003091 1_445
Nb1 O11 2.010373 1_455
Nb1 O6 2.012046 1_555
Nb1 O9 2.025828 1_445
Nb2 O81 1.990366 1_545
Nb2 O79 1.990442 1_555
Nb2 O82 2.004061 1_545
Nb2 O10 2.008878 1_555
Nb2 O7 2.010568 1_555
Nb2 O8 2.027003 1_545
In0 O4 2.082262 1_555
In0 O2 2.119701 1_545
In0 O1 2.127764 1_555
In0 O77 2.168005 1_555
In0 O74 2.174843 1_545
In0 O73 2.216068 1_545
In1 O14 2.092590 1_555
In1 O16 2.098296 1_545
In1 O13 2.101996 1_445
In1 O86 2.197846 1_555
In1 O85 2.209039 1_455
In1 O89 2.220001 1_445
In2 O17 2.096391 1_545
In2 O15 2.097028 1_555
In2 O12 2.105564 1_545
In2 O84 2.195183 1_555
In2 O87 2.211897 1_555
In2 O88 2.231255 1_545
In3 O20 2.094527 1_655
In3 O22 2.103717 1_645
In3 O19 2.104513 1_545
In3 O91 2.214595 1_545
In3 O93 2.216175 1_555
In3 O94 2.217019 1_655
In4 O23 2.093441 1_555
In4 O18 2.096370 1_555
In4 O21 2.114468 1_565
In4 O90 2.206894 1_555
In4 O95 2.220156 1_565
In4 O92 2.227642 1_565
In5 O26 2.130185 1_555
In5 O24 2.131943 1_555
In5 O96 2.163430 1_555
In5 O28 2.201252 1_555
In5 O98 2.202763 1_555
In5 O100 2.220904 1_555
In6 O25 2.133315 1_555
In6 O27 2.134056 1_555
In6 O97 2.161370 1_555
In6 O29 2.197243 1_555
In6 O99 2.202574 1_555
In6 O101 2.219997 1_555
In7 O34 2.109924 1_555
In7 O102 2.123463 1_555
In7 O30 2.132450 1_555
In7 O104 2.161073 1_555
In7 O32 2.192873 1_555
In7 O106 2.241082 1_555
In8 O31 2.117967 1_555
In8 O33 2.131706 1_555
In8 O107 2.148202 1_555
In8 O105 2.178295 1_555
In8 O35 2.216086 1_555
In8 O103 2.239873 1_555
In9 O38 2.133555 1_556
In9 O36 2.135527 1_556
In9 O40 2.147713 1_556
In9 O112 2.150503 1_555
In9 O110 2.152244 1_555
In9 O108 2.164622 1_555
In10 O37 2.136923 1_556
In10 O39 2.137491 1_556
In10 O41 2.141943 1_556
In10 O113 2.151038 1_555
In10 O111 2.155256 1_555
In10 O109 2.165216 1_555
In11 O42 2.114047 1_555
In11 O46 2.114959 1_555
In11 O114 2.123252 1_555
In11 O118 2.165716 1_555
In11 O116 2.174310 1_555
In11 O44 2.186006 1_555
In12 O45 2.117388 1_555
In12 O47 2.126864 1_555
In12 O119 2.126911 1_555
In12 O117 2.161970 1_555
In12 O43 2.178745 1_555
In12 O115 2.179878 1_555
In13 O48 2.138830 1_554
In13 O52 2.140277 1_554
In13 O50 2.140736 1_554
In13 O120 2.229068 1_555
In13 O122 2.229536 1_555
In13 O124 2.239589 1_555
In14 O49 2.138025 1_554
In14 O51 2.139631 1_554
In14 O53 2.144292 1_554
In14 O123 2.222954 1_555
In14 O125 2.224922 1_555
In14 O121 2.246455 1_555
In15 O54 2.096922 1_555
In15 O58 2.131126 1_555
In15 O56 2.147003 1_555
In15 O130 2.199531 1_555
In15 O126 2.236336 1_555
In15 O128 2.273374 1_555
In16 O57 2.091640 1_555
In16 O59 2.114957 1_555
In16 O55 2.144371 1_555
In16 O129 2.228153 1_555
In16 O127 2.237233 1_555
In16 O131 2.239875 1_555
In17 O60 2.081804 1_555
In17 O64 2.099195 1_555
In17 O136 2.130932 1_555
In17 O62 2.140336 1_555
In17 O134 2.175448 1_555
In17 O132 2.180223 1_555
In18 O61 2.093382 1_555
In18 O63 2.103857 1_555
In18 O65 2.151804 1_555
In18 O133 2.152578 1_555
In18 O137 2.176781 1_555
In18 O135 2.188667 1_555
In19 O66 2.072411 1_555
In19 O68 2.076173 1_555
In19 O70 2.139000 1_555
In19 O140 2.150067 1_555
In19 O138 2.193271 1_555
In19 O142 2.193994 1_555
In20 O67 2.073909 1_555
In20 O69 2.076852 1_555
In20 O71 2.140072 1_555
In20 O141 2.152270 1_555
In20 O143 2.194478 1_555
In20 O139 2.194615 1_555
O0 P0 1.582347 1_545
O1 P1 1.549719 1_555
O2 P2 1.542648 1_555
O3 P3 1.583635 1_555
O4 P5 1.536415 1_555
O5 P4 1.586830 1_655
O6 P6 1.570003 1_555
O7 P7 1.570050 1_555
O8 P9 1.576594 1_555
O9 P8 1.577202 1_655
O10 P10 1.573526 1_545
O11 P11 1.573466 1_545
O12 P10 1.552098 1_555
O13 P11 1.551274 1_555
O14 P6 1.539610 1_555
O15 P7 1.541097 1_555
O16 P8 1.544655 1_555
O17 P9 1.546707 1_555
O18 P2 1.556190 1_555
O19 P3 1.534180 1_555
O20 P4 1.540700 1_555
O21 P5 1.554315 1_555
O22 P0 1.534135 1_555
O23 P1 1.548934 1_565
O24 P12 1.535219 1_555
O25 P13 1.535673 1_555
O26 P14 1.535705 1_555
O27 P15 1.534127 1_555
O28 P16 1.546419 1_555
O29 P17 1.546346 1_555
O30 P18 1.534338 1_555
O31 P19 1.536958 1_555
O32 P20 1.549837 1_555
O33 P21 1.534914 1_555
O34 P22 1.535680 1_555
O35 P23 1.548509 1_555
O36 P22 1.526695 1_555
O37 P23 1.527350 1_555
O38 P18 1.528864 1_555
O39 P19 1.528280 1_555
O40 P20 1.526509 1_555
O41 P21 1.527909 1_555
O42 P14 1.532121 1_555
O43 P15 1.541055 1_555
O44 P16 1.541191 1_555
O45 P17 1.529684 1_555
O46 P12 1.532574 1_555
O47 P13 1.531360 1_555
O48 P24 1.544160 1_555
O49 P25 1.543190 1_555
O50 P26 1.544979 1_555
O51 P27 1.544087 1_555
O52 P28 1.545664 1_555
O53 P29 1.543815 1_555
O54 P30 1.565957 1_555
O55 P31 1.549527 1_555
O56 P32 1.549418 1_555
O57 P33 1.551432 1_555
O58 P34 1.549643 1_555
O59 P35 1.559551 1_555
O60 P34 1.508753 1_555
O61 P35 1.514939 1_555
O62 P30 1.532076 1_555
O63 P31 1.520085 1_555
O64 P32 1.518247 1_555
O65 P33 1.530592 1_555
O66 P26 1.512896 1_555
O67 P27 1.512805 1_555
O68 P28 1.514277 1_555
O69 P29 1.515326 1_555
O70 P24 1.526437 1_555
O71 P25 1.526315 1_555
O72 P34 1.591648 1_555
O73 P35 1.562618 1_555
O74 P30 1.556195 1_555
O75 P31 1.578161 1_555
O76 P32 1.577325 1_555
O77 P33 1.557189 1_555
O78 P26 1.598545 1_555
O79 P27 1.597425 1_555
O80 P28 1.597225 1_555
O81 P29 1.597246 1_555
O82 P24 1.597377 1_555
O83 P25 1.598317 1_555
O84 P12 1.563861 1_555
O85 P13 1.562063 1_555
O86 P14 1.561762 1_555
O87 P15 1.561028 1_555
O88 P16 1.562946 1_555
O89 P17 1.560942 1_555
O90 P18 1.565303 1_555
O91 P19 1.564792 1_555
O92 P20 1.563515 1_555
O93 P21 1.565309 1_555
O94 P22 1.562007 1_555
O95 P23 1.564139 1_555
O96 P10 1.529229 1_545
O97 P11 1.528877 1_545
O98 P6 1.549113 1_555
O99 P7 1.548687 1_555
O100 P9 1.553275 1_555
O101 P8 1.552376 1_655
O102 P2 1.533365 1_555
O103 P3 1.540558 1_555
O104 P5 1.545228 1_555
O105 P4 1.531730 1_655
O106 P0 1.541906 1_545
O107 P1 1.555661 1_555
O108 P24 1.524289 1_555
O109 P25 1.524294 1_555
O110 P27 1.523782 1_555
O111 P26 1.522129 1_655
O112 P28 1.524121 1_545
O113 P29 1.524495 1_545
O114 P30 1.533986 1_545
O115 P31 1.540479 1_545
O116 P32 1.541949 1_555
O117 P33 1.553931 1_555
O118 P35 1.545218 1_555
O119 P34 1.528663 1_655
O120 P22 1.562623 1_555
O121 P23 1.562464 1_555
O122 P19 1.561549 1_455
O123 P18 1.560993 1_555
O124 P20 1.562106 1_565
O125 P21 1.563579 1_565
O126 P14 1.559903 1_565
O127 P15 1.561340 1_565
O128 P16 1.560485 1_555
O129 P17 1.560081 1_555
O130 P13 1.561723 1_455
O131 P12 1.557860 1_555
O132 P0 1.534533 1_555
O133 P1 1.532548 1_565
O134 P2 1.552946 1_555
O135 P3 1.536477 1_555
O136 P4 1.524304 1_555
O137 P5 1.543316 1_555
O138 P6 1.541558 1_555
O139 P7 1.541504 1_555
O140 P8 1.523424 1_555
O141 P9 1.522594 1_555
O142 P10 1.542265 1_555
O143 P11 1.542347 1_555
