# generated using pymatgen
data_Ba2Cu5F14
_symmetry_space_group_name_H-M   'P 1'
_cell_length_a   6.71429700
_cell_length_b   9.83189242
_cell_length_c   10.49201738
_cell_angle_alpha   114.79963839
_cell_angle_beta   90.00000000
_cell_angle_gamma   109.96554642
_symmetry_Int_Tables_number   1
_chemical_formula_structural   Ba2Cu5F14
_chemical_formula_sum   'Ba4 Cu10 F28'
_cell_volume   582.57476931
_cell_formula_units_Z   2
loop_
 _symmetry_equiv_pos_site_id
 _symmetry_equiv_pos_as_xyz
  1  'x, y, z'
loop_
 _atom_site_type_symbol
 _atom_site_label
 _atom_site_symmetry_multiplicity
 _atom_site_fract_x
 _atom_site_fract_y
 _atom_site_fract_z
 _atom_site_occupancy
  Ba  Ba0  1  0.77990800  0.32532700  0.62993800  1
  Ba  Ba1  1  0.45458200  0.67467300  0.87006200  1
  Ba  Ba2  1  0.22009200  0.67467300  0.37006200  1
  Ba  Ba3  1  0.54541800  0.32532700  0.12993800  1
  Cu  Cu0  1  0.64573800  0.00000000  0.75000000  1
  Cu  Cu1  1  0.35426200  0.00000000  0.25000000  1
  Cu  Cu2  1  0.17658600  0.06985200  0.64025800  1
  Cu  Cu3  1  0.10673400  0.93014800  0.85974200  1
  Cu  Cu4  1  0.82341400  0.93014800  0.35974200  1
  Cu  Cu5  1  0.89326600  0.06985200  0.14025800  1
  Cu  Cu6  1  0.29504900  0.35072800  0.49254200  1
  Cu  Cu7  1  0.94432100  0.64927200  0.00745800  1
  Cu  Cu8  1  0.70495100  0.64927200  0.50745800  1
  Cu  Cu9  1  0.05567900  0.35072800  0.99254200  1
  F  F0  1  0.01712200  0.72100400  0.86093200  1
  F  F1  1  0.29611800  0.27899600  0.63906800  1
  F  F2  1  0.98287800  0.27899600  0.13906800  1
  F  F3  1  0.70388200  0.72100400  0.36093200  1
  F  F4  1  0.11372200  0.92947100  0.36713400  1
  F  F5  1  0.18425000  0.07052900  0.13286600  1
  F  F6  1  0.88627800  0.07052900  0.63286600  1
  F  F7  1  0.81575000  0.92947100  0.86713400  1
  F  F8  1  0.82938700  0.50086100  0.39478400  1
  F  F9  1  0.32852600  0.49913900  0.10521600  1
  F  F10  1  0.17061300  0.49913900  0.60521600  1
  F  F11  1  0.67147400  0.50086100  0.89478400  1
  F  F12  1  0.05896400  0.84658000  0.61106300  1
  F  F13  1  0.21238300  0.15342000  0.88893700  1
  F  F14  1  0.53694700  0.93260700  0.35550600  1
  F  F15  1  0.60434000  0.06739300  0.14449400  1
  F  F16  1  0.46305300  0.06739300  0.64449400  1
  F  F17  1  0.39566000  0.93260700  0.85550600  1
  F  F18  1  0.54127200  0.78080500  0.60286000  1
  F  F19  1  0.76046800  0.21919500  0.89714000  1
  F  F20  1  0.45872800  0.21919500  0.39714000  1
  F  F21  1  0.23953200  0.78080500  0.10286000  1
  F  F22  1  0.64407400  0.55521000  0.63723800  1
  F  F23  1  0.08886300  0.44479000  0.86276200  1
  F  F24  1  0.35592600  0.44479000  0.36276200  1
  F  F25  1  0.91113700  0.55521000  0.13723800  1
  F  F26  1  0.78761700  0.84658000  0.11106300  1
  F  F27  1  0.94103700  0.15342000  0.38893700  1
loop_
_geom_bond_atom_site_label_1
_geom_bond_atom_site_label_2
_geom_bond_distance
_geom_bond_site_symmetry_2
Ba0 F10 2.679506 1_655
Ba0 F22 2.684883 1_555
Ba0 F23 2.753027 1_655
Ba0 F16 2.760628 1_555
Ba0 F20 2.833798 1_555
Ba0 F11 2.839918 1_555
Ba0 F6 2.841336 1_555
Ba0 F27 2.843305 1_555
Ba1 F11 2.679501 1_555
Ba1 F23 2.684892 1_555
Ba1 F22 2.753028 1_555
Ba1 F17 2.760631 1_555
Ba1 F21 2.833807 1_556
Ba1 F10 2.839921 1_555
Ba1 F7 2.841336 1_555
Ba1 F26 2.843301 1_556
Ba2 F8 2.679506 1_455
Ba2 F24 2.684883 1_555
Ba2 F25 2.753027 1_455
Ba2 F14 2.760628 1_555
Ba2 F18 2.833798 1_555
Ba2 F9 2.839918 1_555
Ba2 F4 2.841336 1_555
Ba2 F12 2.843301 1_555
Ba3 F9 2.679501 1_555
Ba3 F25 2.684892 1_555
Ba3 F24 2.753028 1_555
Ba3 F15 2.760631 1_555
Ba3 F19 2.833807 1_554
Ba3 F8 2.839921 1_555
Ba3 F5 2.841336 1_555
Ba3 F13 2.843301 1_554
Cu0 F18 1.922608 1_545
Cu0 F19 1.922609 1_555
Cu0 F17 2.083103 1_545
Cu0 F16 2.083103 1_555
Cu0 F6 2.133010 1_555
Cu0 F7 2.133014 1_545
Cu1 F20 1.922608 1_555
Cu1 F21 1.922609 1_545
Cu1 F15 2.083103 1_555
Cu1 F14 2.083103 1_545
Cu1 F4 2.133010 1_545
Cu1 F5 2.133014 1_555
Cu2 F16 1.932558 1_555
Cu2 F1 1.940900 1_555
Cu2 F12 1.946372 1_545
Cu2 F6 1.953148 1_455
Cu2 F13 2.367961 1_555
Cu2 F4 2.564981 1_545
Cu3 F17 1.932558 1_555
Cu3 F0 1.940900 1_555
Cu3 F13 1.946372 1_565
Cu3 F7 1.953142 1_455
Cu3 F12 2.367961 1_555
Cu3 F5 2.564981 1_566
Cu4 F14 1.932558 1_555
Cu4 F3 1.940900 1_555
Cu4 F27 1.946372 1_565
Cu4 F4 1.953148 1_655
Cu4 F26 2.367961 1_555
Cu4 F6 2.564981 1_565
Cu5 F15 1.932558 1_555
Cu5 F2 1.940900 1_555
Cu5 F26 1.946372 1_545
Cu5 F5 1.953142 1_655
Cu5 F27 2.367961 1_555
Cu5 F7 2.564981 1_544
Cu6 F10 1.900061 1_555
Cu6 F24 1.916947 1_555
Cu6 F20 1.940818 1_555
Cu6 F1 1.942657 1_555
Cu6 F27 2.382602 1_455
Cu6 F22 2.461824 1_555
Cu7 F11 1.900061 1_554
Cu7 F25 1.916948 1_555
Cu7 F21 1.940812 1_655
Cu7 F0 1.942657 1_654
Cu7 F26 2.382603 1_555
Cu7 F23 2.461819 1_654
Cu8 F8 1.900061 1_555
Cu8 F22 1.916947 1_555
Cu8 F18 1.940818 1_555
Cu8 F3 1.942657 1_555
Cu8 F12 2.382607 1_655
Cu8 F24 2.461824 1_555
Cu9 F9 1.900061 1_556
Cu9 F23 1.916948 1_555
Cu9 F19 1.940812 1_455
Cu9 F2 1.942657 1_456
Cu9 F13 2.382603 1_555
Cu9 F25 2.461819 1_456
