# generated using pymatgen
data_Sr5(AlSb3)2
_symmetry_space_group_name_H-M   'P 1'
_cell_length_a   10.42027424
_cell_length_b   12.21689202
_cell_length_c   13.51607695
_cell_angle_alpha   90.00000000
_cell_angle_beta   90.00000000
_cell_angle_gamma   90.00000000
_symmetry_Int_Tables_number   1
_chemical_formula_structural   Sr5(AlSb3)2
_chemical_formula_sum   'Sr20 Al8 Sb24'
_cell_volume   1720.64208016
_cell_formula_units_Z   4
loop_
 _symmetry_equiv_pos_site_id
 _symmetry_equiv_pos_as_xyz
  1  'x, y, z'
loop_
 _atom_site_type_symbol
 _atom_site_label
 _atom_site_symmetry_multiplicity
 _atom_site_fract_x
 _atom_site_fract_y
 _atom_site_fract_z
 _atom_site_occupancy
  Sr  Sr0  1  0.97810884  0.83042410  0.46540493  1
  Sr  Sr1  1  0.25000000  0.16213797  0.81446703  1
  Sr  Sr2  1  0.47810884  0.66957590  0.96540493  1
  Sr  Sr3  1  0.52189116  0.33042410  0.03459507  1
  Sr  Sr4  1  0.47442649  0.58002004  0.26260403  1
  Sr  Sr5  1  0.52557351  0.91997996  0.76260403  1
  Sr  Sr6  1  0.75000000  0.33786203  0.31446703  1
  Sr  Sr7  1  0.47810884  0.16957590  0.53459507  1
  Sr  Sr8  1  0.02557351  0.08002004  0.23739597  1
  Sr  Sr9  1  0.02557351  0.58002004  0.26260403  1
  Sr  Sr10  1  0.52557351  0.41997996  0.73739597  1
  Sr  Sr11  1  0.75000000  0.83786203  0.18553297  1
  Sr  Sr12  1  0.97810884  0.33042410  0.03459507  1
  Sr  Sr13  1  0.52189116  0.83042410  0.46540493  1
  Sr  Sr14  1  0.02189116  0.66957590  0.96540493  1
  Sr  Sr15  1  0.47442649  0.08002004  0.23739597  1
  Sr  Sr16  1  0.97442649  0.41997996  0.73739597  1
  Sr  Sr17  1  0.97442649  0.91997996  0.76260403  1
  Sr  Sr18  1  0.25000000  0.66213797  0.68553297  1
  Sr  Sr19  1  0.02189116  0.16957590  0.53459507  1
  Al  Al0  1  0.75000000  0.57876888  0.56669092  1
  Al  Al1  1  0.25000000  0.42123112  0.43330908  1
  Al  Al2  1  0.25000000  0.81031108  0.29960022  1
  Al  Al3  1  0.75000000  0.18968892  0.70039978  1
  Al  Al4  1  0.25000000  0.92123112  0.06669092  1
  Al  Al5  1  0.75000000  0.68968892  0.79960022  1
  Al  Al6  1  0.75000000  0.07876888  0.93330908  1
  Al  Al7  1  0.25000000  0.31031108  0.20039978  1
  Sb  Sb0  1  0.75000000  0.64460412  0.37862234  1
  Sb  Sb1  1  0.05683084  0.82668665  0.17083455  1
  Sb  Sb2  1  0.94316916  0.67331335  0.67083455  1
  Sb  Sb3  1  0.25000000  0.95419871  0.62143987  1
  Sb  Sb4  1  0.05683084  0.32668665  0.32916545  1
  Sb  Sb5  1  0.25000000  0.64845626  0.43553237  1
  Sb  Sb6  1  0.44316916  0.32668665  0.32916545  1
  Sb  Sb7  1  0.55683084  0.17331335  0.82916545  1
  Sb  Sb8  1  0.25000000  0.49987959  0.08977877  1
  Sb  Sb9  1  0.75000000  0.35154374  0.56446763  1
  Sb  Sb10  1  0.25000000  0.14845626  0.06446763  1
  Sb  Sb11  1  0.25000000  0.45419871  0.87856013  1
  Sb  Sb12  1  0.55683084  0.67331335  0.67083455  1
  Sb  Sb13  1  0.25000000  0.35539588  0.62137766  1
  Sb  Sb14  1  0.75000000  0.14460412  0.12137766  1
  Sb  Sb15  1  0.94316916  0.17331335  0.82916545  1
  Sb  Sb16  1  0.75000000  0.00012041  0.58977877  1
  Sb  Sb17  1  0.75000000  0.04580129  0.37856013  1
  Sb  Sb18  1  0.75000000  0.54580129  0.12143987  1
  Sb  Sb19  1  0.75000000  0.50012041  0.91022123  1
  Sb  Sb20  1  0.25000000  -0.00012041  0.41022123  1
  Sb  Sb21  1  0.75000000  0.85154374  0.93553237  1
  Sb  Sb22  1  0.44316916  0.82668665  0.17083455  1
  Sb  Sb23  1  0.25000000  0.85539588  0.87862234  1
loop_
_geom_bond_atom_site_label_1
_geom_bond_atom_site_label_2
_geom_bond_distance
_geom_bond_site_symmetry_2
Al0 Sb0 2.666160 1_555
Al0 Sb12 2.714251 1_555
Al0 Sb2 2.714251 1_555
Al0 Sb9 2.776148 1_555
Al1 Sb13 2.666160 1_555
Al1 Sb4 2.714251 1_555
Al1 Sb6 2.714251 1_555
Al1 Sb5 2.776148 1_555
Al2 Sb1 2.668465 1_555
Al2 Sb22 2.668465 1_555
Al2 Sb5 2.699171 1_555
Al2 Sb20 2.756643 1_565
Al2 Sr0 3.620704 1_455
Al2 Sr13 3.620704 1_555
Al3 Sb7 2.668465 1_555
Al3 Sb15 2.668465 1_555
Al3 Sb9 2.699171 1_555
Al3 Sb16 2.756643 1_555
Al3 Sr19 3.620704 1_655
Al3 Sr7 3.620704 1_555
Al4 Sb23 2.666160 1_554
Al4 Sb1 2.714251 1_555
Al4 Sb22 2.714251 1_555
Al4 Sb10 2.776148 1_565
Al5 Sb2 2.668465 1_555
Al5 Sb12 2.668465 1_555
Al5 Sb21 2.699171 1_555
Al5 Sb19 2.756643 1_555
Al5 Sr2 3.620704 1_555
Al5 Sr14 3.620704 1_655
Al6 Sb14 2.666160 1_556
Al6 Sb7 2.714251 1_555
Al6 Sb15 2.714251 1_555
Al6 Sb21 2.776148 1_545
Al7 Sb6 2.668465 1_555
Al7 Sb4 2.668465 1_555
Al7 Sb10 2.699171 1_555
Al7 Sb8 2.756643 1_555
Al7 Sr12 3.620704 1_455
Al7 Sr3 3.620704 1_555
Sb0 Sr4 3.365610 1_555
Sb0 Sr9 3.365610 1_655
Sb0 Sr13 3.489886 1_555
Sb0 Sr0 3.489886 1_555
Sb0 Sr11 3.519302 1_555
Sb0 Sr6 3.846450 1_555
Sb1 Sr11 3.206336 1_455
Sb1 Sr8 3.239468 1_565
Sb1 Sr9 3.275022 1_555
Sb1 Sr14 3.395025 1_554
Sb2 Sr18 3.206336 1_655
Sb2 Sr16 3.239468 1_555
Sb2 Sr17 3.275022 1_555
Sb2 Sr0 3.395025 1_555
Sb3 Sr17 3.472892 1_455
Sb3 Sr5 3.472892 1_555
Sb3 Sr1 3.641457 1_565
Sb3 Sr18 3.671731 1_555
Sb3 Sr7 3.735125 1_565
Sb3 Sr19 3.735125 1_565
Sb3 Sr0 3.842041 1_455
Sb3 Sr13 3.842041 1_555
Sb4 Sr6 3.206336 1_455
Sb4 Sr9 3.239468 1_555
Sb4 Sr8 3.275022 1_555
Sb4 Sr19 3.395025 1_555
Sb5 Sr18 3.383159 1_555
Sb5 Sr4 3.410431 1_555
Sb5 Sr9 3.410431 1_555
Sb5 Sr0 3.623814 1_455
Sb5 Sr13 3.623814 1_555
Sb6 Sr6 3.206336 1_555
Sb6 Sr4 3.239468 1_555
Sb6 Sr15 3.275022 1_555
Sb6 Sr7 3.395025 1_555
Sb7 Sr1 3.206336 1_555
Sb7 Sr5 3.239468 1_545
Sb7 Sr10 3.275022 1_555
Sb7 Sr3 3.395025 1_556
Sb8 Sr4 3.447329 1_555
Sb8 Sr9 3.447329 1_555
Sb8 Sr14 3.574051 1_554
Sb8 Sr2 3.574051 1_554
Sb8 Sr12 3.587344 1_455
Sb8 Sr3 3.587344 1_555
Sb9 Sr6 3.383159 1_555
Sb9 Sr16 3.410431 1_555
Sb9 Sr10 3.410431 1_555
Sb9 Sr19 3.623814 1_655
Sb9 Sr7 3.623814 1_555
Sb10 Sr1 3.383159 1_554
Sb10 Sr15 3.410431 1_555
Sb10 Sr8 3.410431 1_555
Sb10 Sr12 3.623814 1_455
Sb10 Sr3 3.623814 1_555
Sb11 Sb8 2.908884 1_556
Sb11 Sr16 3.472892 1_455
Sb11 Sr10 3.472892 1_555
Sb11 Sr18 3.641457 1_555
Sb11 Sr1 3.671731 1_555
Sb11 Sr14 3.735125 1_555
Sb11 Sr2 3.735125 1_555
Sb11 Sr3 3.842041 1_556
Sb11 Sr12 3.842041 1_456
Sb12 Sr18 3.206336 1_555
Sb12 Sr10 3.239468 1_555
Sb12 Sr5 3.275022 1_555
Sb12 Sr13 3.395025 1_555
Sb13 Sr10 3.365610 1_555
Sb13 Sr16 3.365610 1_455
Sb13 Sr7 3.489886 1_555
Sb13 Sr19 3.489886 1_555
Sb13 Sr1 3.519302 1_555
Sb13 Sr18 3.846450 1_555
Sb14 Sr15 3.365610 1_555
Sb14 Sr8 3.365610 1_655
Sb14 Sr12 3.489886 1_555
Sb14 Sr3 3.489886 1_555
Sb14 Sr6 3.519302 1_555
Sb14 Sr11 3.846450 1_545
Sb15 Sr1 3.206336 1_655
Sb15 Sr17 3.239468 1_545
Sb15 Sr16 3.275022 1_555
Sb15 Sr12 3.395025 1_556
Sb16 Sb17 2.908884 1_555
Sb16 Sr5 3.447329 1_545
Sb16 Sr17 3.447329 1_545
Sb16 Sr13 3.574051 1_545
Sb16 Sr0 3.574051 1_545
Sb16 Sr19 3.587344 1_655
Sb16 Sr7 3.587344 1_555
Sb17 Sr15 3.472892 1_555
Sb17 Sr8 3.472892 1_655
Sb17 Sr11 3.641457 1_545
Sb17 Sr6 3.671731 1_555
Sb17 Sr0 3.735125 1_545
Sb17 Sr13 3.735125 1_545
Sb17 Sr7 3.842041 1_555
Sb17 Sr19 3.842041 1_655
Sb18 Sb19 2.908884 1_554
Sb18 Sr4 3.472892 1_555
Sb18 Sr9 3.472892 1_655
Sb18 Sr6 3.641457 1_555
Sb18 Sr11 3.671731 1_555
Sb18 Sr12 3.735125 1_555
Sb18 Sr3 3.735125 1_555
Sb18 Sr14 3.842041 1_654
Sb18 Sr2 3.842041 1_554
Sb19 Sr16 3.447329 1_555
Sb19 Sr10 3.447329 1_555
Sb19 Sr3 3.574051 1_556
Sb19 Sr12 3.574051 1_556
Sb19 Sr2 3.587344 1_555
Sb19 Sr14 3.587344 1_655
Sb20 Sb3 2.908884 1_545
Sb20 Sr15 3.447329 1_555
Sb20 Sr8 3.447329 1_555
Sb20 Sr7 3.574051 1_555
Sb20 Sr19 3.574051 1_555
Sb20 Sr13 3.587344 1_545
Sb20 Sr0 3.587344 1_445
Sb21 Sr11 3.383159 1_556
Sb21 Sr5 3.410431 1_555
Sb21 Sr17 3.410431 1_555
Sb21 Sr2 3.623814 1_555
Sb21 Sr14 3.623814 1_655
Sb22 Sr11 3.206336 1_555
Sb22 Sr15 3.239468 1_565
Sb22 Sr4 3.275022 1_555
Sb22 Sr2 3.395025 1_554
Sb23 Sr17 3.365610 1_455
Sb23 Sr5 3.365610 1_555
Sb23 Sr2 3.489886 1_555
Sb23 Sr14 3.489886 1_555
Sb23 Sr18 3.519302 1_555
Sb23 Sr1 3.846450 1_565
