# generated using pymatgen
data_Sr8MgMn6O20
_symmetry_space_group_name_H-M   'P 1'
_cell_length_a   5.77656483
_cell_length_b   7.05123588
_cell_length_c   13.49761313
_cell_angle_alpha   90.75164572
_cell_angle_beta   92.43290571
_cell_angle_gamma   116.81405764
_symmetry_Int_Tables_number   1
_chemical_formula_structural   Sr8MgMn6O20
_chemical_formula_sum   'Sr8 Mg1 Mn6 O20'
_cell_volume   489.90494631
_cell_formula_units_Z   1
loop_
 _symmetry_equiv_pos_site_id
 _symmetry_equiv_pos_as_xyz
  1  'x, y, z'
loop_
 _atom_site_type_symbol
 _atom_site_label
 _atom_site_symmetry_multiplicity
 _atom_site_fract_x
 _atom_site_fract_y
 _atom_site_fract_z
 _atom_site_occupancy
  Sr  Sr0  1  0.30155000  0.48293000  0.10825200  1
  Sr  Sr1  1  0.76714700  0.52394000  0.90070500  1
  Sr  Sr2  1  0.65499800  0.46803000  0.46013500  1
  Sr  Sr3  1  0.19273000  0.51074700  0.65509300  1
  Sr  Sr4  1  0.90660600  0.92252200  0.64078900  1
  Sr  Sr5  1  0.98459400  0.20250500  0.39330400  1
  Sr  Sr6  1  0.58007400  0.09164400  0.12300000  1
  Sr  Sr7  1  0.47563500  0.93511700  0.86160900  1
  Mg  Mg0  1  0.12204400  0.85773400  0.33514800  1
  Mn  Mn0  1  0.55998600  0.23761600  0.66217900  1
  Mn  Mn1  1  0.48053700  0.74631000  0.33064100  1
  Mn  Mn2  1  0.94855400  0.76720700  0.14124200  1
  Mn  Mn3  1  0.11065600  0.25570800  0.84672300  1
  Mn  Mn4  1  0.43968800  0.95644500  0.50476500  1
  Mn  Mn5  1  0.03048000  0.00982700  0.99326400  1
  O  O0  1  0.27020100  0.21671200  0.73271700  1
  O  O1  1  0.24509100  0.76243200  0.21769800  1
  O  O2  1  0.82432200  0.85338300  0.26467500  1
  O  O3  1  0.82335100  0.25409100  0.77088600  1
  O  O4  1  0.12934300  0.70347400  0.45535700  1
  O  O5  1  0.26332200  0.13255100  0.51367100  1
  O  O6  1  0.35743700  0.21321400  0.94611600  1
  O  O7  1  0.14029000  0.79096600  0.01816400  1
  O  O8  1  0.77119600  0.20802900  0.55167700  1
  O  O9  1  0.63802500  0.80496000  0.47295800  1
  O  O10  1  0.70456300  0.80589300  0.04603100  1
  O  O11  1  0.91829300  0.22694700  0.97056400  1
  O  O12  1  0.69298000  0.53215200  0.64543900  1
  O  O13  1  0.36256000  0.45906100  0.31774900  1
  O  O14  1  0.13849500  0.08910500  0.12884400  1
  O  O15  1  0.92335700  0.92570300  0.85472800  1
  O  O16  1  0.40570600  0.90819900  0.64730300  1
  O  O17  1  0.75644900  0.47723400  0.13356500  1
  O  O18  1  0.28946900  0.55179200  0.84413100  1
  O  O19  1  0.50455400  0.04174500  0.36504800  1
loop_
_geom_bond_atom_site_label_1
_geom_bond_atom_site_label_2
_geom_bond_distance
_geom_bond_site_symmetry_2
Mg0 O2 1.917354 1_455
Mg0 O4 1.974693 1_555
Mg0 O1 1.992136 1_555
Mg0 O19 2.013132 1_565
Mn0 O12 1.882049 1_555
Mn0 O0 1.909645 1_555
Mn0 O3 2.031619 1_555
Mn0 O8 2.032898 1_555
Mn0 O16 2.082042 1_545
Mn0 O5 2.455125 1_555
Mn1 O13 1.825528 1_555
Mn1 O2 2.030183 1_555
Mn1 O1 2.038309 1_555
Mn1 O9 2.044511 1_555
Mn1 O19 2.069535 1_565
Mn2 O17 1.833159 1_555
Mn2 O1 1.975657 1_655
Mn2 O10 1.978567 1_555
Mn2 O7 2.002669 1_655
Mn2 O2 2.031827 1_555
Mn2 O14 2.040215 1_665
Mn3 O18 1.867163 1_555
Mn3 O0 1.905482 1_555
Mn3 O3 1.908064 1_455
Mn3 O11 2.008300 1_455
Mn3 O6 2.038459 1_555
Mn3 O15 2.083766 1_445
Mn4 O5 1.934478 1_565
Mn4 O9 1.942097 1_555
Mn4 O4 1.955165 1_555
Mn4 O16 1.960799 1_555
Mn4 O19 1.986204 1_565
Mn4 O8 2.004444 1_565
Mn5 O14 1.900598 1_556
Mn5 O6 1.926433 1_555
Mn5 O11 1.936044 1_455
Mn5 O15 1.942376 1_445
Mn5 O7 1.943089 1_546
Mn5 O10 1.953918 1_446
O0 Sr4 2.456534 1_445
O0 Sr3 2.539866 1_555
O0 Sr7 3.227804 1_545
O1 Sr0 2.591769 1_555
O1 Sr6 2.646153 1_565
O2 Sr5 2.761672 1_565
O2 Sr6 3.234774 1_565
O3 Sr7 2.607295 1_545
O3 Sr3 2.672876 1_655
O3 Sr1 2.704528 1_555
O3 Sr4 3.123994 1_545
O4 Sr2 2.486387 1_455
O4 Sr3 3.116135 1_555
O5 Sr5 2.447591 1_455
O5 Sr2 2.567496 1_555
O5 Sr4 2.645160 1_445
O6 Sr1 2.501524 1_555
O6 Sr7 2.613016 1_545
O6 Sr6 2.979373 1_556
O6 Sr0 3.002533 1_556
O7 Sr1 2.583573 1_454
O7 Sr6 2.776325 1_565
O7 Sr7 2.806851 1_554
O7 Sr0 2.977015 1_555
O8 Sr5 2.521015 1_555
O8 Sr2 2.537238 1_555
O8 Sr3 2.716247 1_655
O8 Sr4 2.741497 1_545
O9 Sr2 2.425834 1_555
O9 Sr4 2.591899 1_555
O9 Sr5 2.867134 1_565
O10 Sr0 2.596959 1_555
O10 Sr6 2.640453 1_565
O10 Sr1 2.921872 1_554
O10 Sr7 3.105255 1_554
O11 Sr0 2.751491 1_656
O11 Sr1 2.769201 1_555
O11 Sr6 2.769810 1_556
O11 Sr7 2.791023 1_545
O12 Sr4 2.459692 1_555
O12 Sr2 2.518456 1_555
O12 Sr3 2.833597 1_555
O12 Sr3 2.955550 1_655
O13 Sr5 2.398672 1_455
O13 Sr2 2.485171 1_555
O13 Sr0 2.851292 1_555
O14 Sr0 2.521624 1_555
O14 Sr6 2.547370 1_555
O14 Sr6 3.231497 1_455
O15 Sr7 2.622418 1_555
O15 Sr1 2.648059 1_555
O15 Sr4 2.884632 1_555
O15 Sr7 3.158240 1_655
O16 Sr3 2.507360 1_555
O16 Sr4 2.854532 1_555
O16 Sr7 2.895457 1_555
O16 Sr4 2.927714 1_455
O17 Sr6 2.434960 1_555
O17 Sr0 2.653826 1_555
O17 Sr0 3.164010 1_655
O17 Sr1 3.164863 1_554
O18 Sr7 2.420166 1_555
O18 Sr3 2.572968 1_555
O18 Sr1 2.923966 1_555
O18 Sr1 3.064356 1_455
O19 Sr5 2.486527 1_555
O19 Sr2 2.980754 1_555
O19 Sr6 3.316706 1_555
