# generated using pymatgen
data_MgMn4(AgO4)4
_symmetry_space_group_name_H-M   'P 1'
_cell_length_a   5.62262441
_cell_length_b   8.08308665
_cell_length_c   8.72422085
_cell_angle_alpha   89.32601243
_cell_angle_beta   83.09389380
_cell_angle_gamma   96.97365251
_symmetry_Int_Tables_number   1
_chemical_formula_structural   MgMn4(AgO4)4
_chemical_formula_sum   'Mg1 Mn4 Ag4 O16'
_cell_volume   390.57116666
_cell_formula_units_Z   1
loop_
 _symmetry_equiv_pos_site_id
 _symmetry_equiv_pos_as_xyz
  1  'x, y, z'
loop_
 _atom_site_type_symbol
 _atom_site_label
 _atom_site_symmetry_multiplicity
 _atom_site_fract_x
 _atom_site_fract_y
 _atom_site_fract_z
 _atom_site_occupancy
  Mg  Mg0  1  0.91123400  0.13093400  0.89653400  1
  Mn  Mn0  1  0.79653800  0.13486200  0.30791100  1
  Mn  Mn1  1  0.24872300  0.63130700  0.20956200  1
  Mn  Mn2  1  0.73122700  0.39303700  0.77386700  1
  Mn  Mn3  1  0.20132600  0.86109900  0.68537100  1
  Ag  Ag0  1  0.33823600  0.18814200  0.08258400  1
  Ag  Ag1  1  0.69676600  0.68730600  0.48952700  1
  Ag  Ag2  1  0.27672400  0.30877000  0.52124200  1
  Ag  Ag3  1  0.80052600  0.76315000  0.04274700  1
  O  O0  1  0.92881900  0.10143000  0.12177300  1
  O  O1  1  0.52887600  0.20344900  0.29746500  1
  O  O2  1  0.25277700  0.01778300  0.56526800  1
  O  O3  1  0.25479700  0.47539000  0.09569100  1
  O  O4  1  0.72300000  0.54676700  0.89429900  1
  O  O5  1  0.45340400  0.79736000  0.71495200  1
  O  O6  1  0.75642500  0.95912400  0.40746600  1
  O  O7  1  0.03193600  0.71122500  0.61512800  1
  O  O8  1  0.59348500  0.20462400  0.87071600  1
  O  O9  1  0.05187300  0.92079900  0.85163200  1
  O  O10  1  0.41373800  0.79622000  0.12513000  1
  O  O11  1  0.01592600  0.32198800  0.74593800  1
  O  O12  1  0.96860600  0.67272200  0.25097200  1
  O  O13  1  0.60721800  0.42227300  0.60759500  1
  O  O14  1  0.97200700  0.28316700  0.38071100  1
  O  O15  1  0.36248000  0.58744200  0.36779400  1
loop_
_geom_bond_atom_site_label_1
_geom_bond_atom_site_label_2
_geom_bond_distance
_geom_bond_site_symmetry_2
Mg0 O9 1.982701 1_645
Mg0 O8 1.987317 1_555
Mg0 O0 1.992345 1_556
Mg0 O11 2.000770 1_655
Mn0 O6 1.633749 1_545
Mn0 O14 1.641706 1_555
Mn0 O1 1.677786 1_555
Mn0 O0 1.741254 1_555
Mn1 O3 1.614980 1_555
Mn1 O10 1.640901 1_555
Mn1 O15 1.642059 1_555
Mn1 O12 1.648400 1_455
Mn2 O4 1.638026 1_555
Mn2 O13 1.709215 1_555
Mn2 O11 1.756225 1_655
Mn2 O8 1.777377 1_555
Mn3 O2 1.610124 1_565
Mn3 O5 1.613396 1_555
Mn3 O7 1.621077 1_555
Mn3 O9 1.692558 1_555
Ag0 O8 2.191760 1_554
Ag0 O1 2.266088 1_555
Ag0 O0 2.306653 1_455
Ag0 O3 2.425287 1_555
Ag1 O6 2.275678 1_555
Ag1 O7 2.280939 1_655
Ag1 O15 2.333248 1_555
Ag1 O13 2.337807 1_555
Ag1 O12 2.442544 1_555
Ag1 O5 2.494194 1_555
Ag2 O13 2.191184 1_555
Ag2 O14 2.215043 1_455
Ag2 O11 2.314327 1_555
Ag2 O2 2.363750 1_555
Ag2 O1 2.492534 1_555
Ag2 O15 2.570725 1_555
Ag3 O4 2.220438 1_554
Ag3 O10 2.255528 1_555
Ag3 O12 2.297126 1_555
Ag3 O9 2.312376 1_654
