# generated using pymatgen
data_Tm2In
_symmetry_space_group_name_H-M   'P 1'
_cell_length_a   5.28449968
_cell_length_b   5.28449952
_cell_length_c   6.62983516
_cell_angle_alpha   90.00000000
_cell_angle_beta   90.00000000
_cell_angle_gamma   120.00000749
_symmetry_Int_Tables_number   1
_chemical_formula_structural   Tm2In
_chemical_formula_sum   'Tm4 In2'
_cell_volume   160.33970054
_cell_formula_units_Z   2
loop_
 _symmetry_equiv_pos_site_id
 _symmetry_equiv_pos_as_xyz
  1  'x, y, z'
loop_
 _atom_site_type_symbol
 _atom_site_label
 _atom_site_symmetry_multiplicity
 _atom_site_fract_x
 _atom_site_fract_y
 _atom_site_fract_z
 _atom_site_occupancy
  Tm  Tm0  1  0.00000000  -0.00000000  -0.00000000  1
  Tm  Tm1  1  0.66666700  0.33333300  0.25000000  1
  Tm  Tm2  1  0.33333300  0.66666700  0.75000000  1
  Tm  Tm3  1  0.00000000  -0.00000000  0.50000000  1
  In  In0  1  0.33333300  0.66666700  0.25000000  1
  In  In1  1  0.66666700  0.33333300  0.75000000  1
loop_
_geom_bond_atom_site_label_1
_geom_bond_atom_site_label_2
_geom_bond_distance
_geom_bond_site_symmetry_2
Tm0 Tm3 3.314918 1_554
Tm0 Tm3 3.314918 1_555
Tm0 Tm2 3.472146 1_544
Tm0 Tm1 3.472146 1_455
Tm0 Tm1 3.472150 1_445
Tm0 Tm2 3.472150 1_554
Tm0 Tm2 3.472150 1_444
Tm0 Tm1 3.472150 1_555
Tm1 Tm3 3.472146 1_655
Tm1 Tm3 3.472150 1_665
Tm1 Tm3 3.472150 1_555
Tm2 Tm3 3.472146 1_565
Tm2 Tm3 3.472150 1_555
Tm2 Tm3 3.472150 1_665
In0 Tm1 3.051004 1_565
In0 Tm1 3.051004 1_455
In0 Tm1 3.051013 1_555
In0 Tm2 3.314918 1_554
In0 Tm2 3.314918 1_555
In0 Tm3 3.472146 1_565
In0 Tm0 3.472146 1_565
In0 Tm0 3.472150 1_555
In0 Tm3 3.472150 1_555
In0 Tm3 3.472150 1_665
In0 Tm0 3.472150 1_665
In1 Tm2 3.051004 1_545
In1 Tm2 3.051004 1_655
In1 Tm2 3.051013 1_555
In1 Tm1 3.314918 1_556
In1 Tm1 3.314918 1_555
In1 Tm3 3.472146 1_655
In1 Tm0 3.472146 1_656
In1 Tm0 3.472150 1_666
In1 Tm3 3.472150 1_665
In1 Tm0 3.472150 1_556
In1 Tm3 3.472150 1_555
