# generated using pymatgen
data_Na10Ti4Zn4Si5S7O48
_symmetry_space_group_name_H-M   'P 1'
_cell_length_a   17.81150612
_cell_length_b   8.96281405
_cell_length_c   22.18760183
_cell_angle_alpha   89.72958205
_cell_angle_beta   89.48533917
_cell_angle_gamma   120.17580274
_symmetry_Int_Tables_number   1
_chemical_formula_structural   Na10Ti4Zn4Si5S7O48
_chemical_formula_sum   'Na30 Ti12 Zn12 Si15 S21 O144'
_cell_volume   3061.76348016
_cell_formula_units_Z   3
loop_
 _symmetry_equiv_pos_site_id
 _symmetry_equiv_pos_as_xyz
  1  'x, y, z'
loop_
 _atom_site_type_symbol
 _atom_site_label
 _atom_site_symmetry_multiplicity
 _atom_site_fract_x
 _atom_site_fract_y
 _atom_site_fract_z
 _atom_site_occupancy
  Na  Na0  1  0.32559064  0.02310896  0.24904698  1
  Na  Na1  1  0.67985765  0.35433642  0.25356870  1
  Na  Na2  1  0.99599710  0.62806594  0.24429406  1
  Na  Na3  1  0.49671302  0.62494666  0.24262632  1
  Na  Na4  1  0.32305723  0.62457110  0.75162335  1
  Na  Na5  1  0.82317757  0.62459104  0.75049726  1
  Na  Na6  1  0.99556507  0.36709794  0.74242623  1
  Na  Na7  1  0.49573283  0.36709418  0.74293362  1
  Na  Na8  1  0.17948168  0.00757658  0.75236706  1
  Na  Na9  1  0.68028494  0.00812140  0.75166196  1
  Na  Na10  1  0.33271452  0.96390065  0.57702194  1
  Na  Na11  1  0.83258260  0.96458534  0.57586530  1
  Na  Na12  1  0.33316805  0.70172820  0.07706464  1
  Na  Na13  1  0.83065966  0.69949653  0.07625885  1
  Na  Na14  1  0.48549981  0.68177441  0.91084658  1
  Na  Na15  1  0.98590357  0.68196899  0.91012196  1
  Na  Na16  1  0.48789275  0.29197314  0.40861392  1
  Na  Na17  1  0.16329699  0.03104579  0.41118787  1
  Na  Na18  1  0.99096622  0.00045776  0.49539203  1
  Na  Na19  1  0.50225912  0.99447840  0.49525134  1
  Na  Na20  1  0.99973695  0.01096663  0.99346636  1
  Na  Na21  1  0.49858668  0.00554689  0.99619893  1
  Na  Na22  1  0.32713316  0.33313469  0.83106573  1
  Na  Na23  1  0.82752806  0.33319706  0.83000671  1
  Na  Na24  1  0.32851606  0.33473253  0.32553473  1
  Na  Na25  1  0.82488519  0.30534655  0.33232179  1
  Na  Na26  1  0.15717375  0.65655142  0.15916406  1
  Na  Na27  1  0.65703293  0.67117176  0.16076881  1
  Na  Na28  1  0.15298974  0.64461261  0.65906023  1
  Na  Na29  1  0.65496036  0.64698048  0.65807183  1
  Ti  Ti0  1  0.01096396  0.01702506  0.64804904  1
  Ti  Ti1  1  0.51250254  0.01871856  0.64818528  1
  Ti  Ti2  1  0.00730038  0.98985875  0.14560705  1
  Ti  Ti3  1  0.51118156  0.00458912  0.14926001  1
  Ti  Ti4  1  0.33582527  0.35552133  0.98171341  1
  Ti  Ti5  1  0.83554458  0.35430152  0.98062612  1
  Ti  Ti6  1  0.34072278  0.32691329  0.48131109  1
  Ti  Ti7  1  0.83843276  0.31400163  0.47939511  1
  Ti  Ti8  1  0.17045319  0.68369368  0.31592302  1
  Ti  Ti9  1  0.67079648  0.68834784  0.31158625  1
  Ti  Ti10  1  0.16646238  0.65151218  0.81340529  1
  Ti  Ti11  1  0.66637866  0.65132487  0.81334863  1
  Zn  Zn0  1  0.99618267  0.00777830  0.35076470  1
  Zn  Zn1  1  0.50136490  0.00957447  0.34844184  1
  Zn  Zn2  1  0.99879143  0.98898271  0.84931192  1
  Zn  Zn3  1  0.49852703  0.98904773  0.84981015  1
  Zn  Zn4  1  0.34102746  0.35415325  0.68264654  1
  Zn  Zn5  1  0.84127042  0.35527428  0.68165735  1
  Zn  Zn6  1  0.33810282  0.32832416  0.18367835  1
  Zn  Zn7  1  0.83550931  0.31926115  0.18169075  1
  Zn  Zn8  1  0.16567746  0.67348449  0.01685258  1
  Zn  Zn9  1  0.66430830  0.67200991  0.01690377  1
  Zn  Zn10  1  0.16271340  0.65090372  0.51654693  1
  Zn  Zn11  1  0.66706255  0.65812775  0.51583608  1
  Si  Si0  1  0.14637291  0.00543889  0.25493852  1
  Si  Si1  1  0.65108403  0.00948383  0.25232190  1
  Si  Si2  1  0.50190583  0.29607187  0.25213426  1
  Si  Si3  1  0.14677070  0.28925478  0.75233842  1
  Si  Si4  1  0.64712458  0.28961779  0.75267161  1
  Si  Si5  1  0.00129569  0.70813357  0.75220043  1
  Si  Si6  1  0.50147414  0.70848683  0.75225228  1
  Si  Si7  1  0.48584265  0.33585712  0.58631345  1
  Si  Si8  1  0.98436020  0.33483947  0.58638160  1
  Si  Si9  1  0.48475055  0.63424532  0.08639853  1
  Si  Si10  1  0.98300008  0.62255124  0.08666312  1
  Si  Si11  1  0.31310194  0.67434698  0.92090922  1
  Si  Si12  1  0.81290681  0.67548733  0.92100123  1
  Si  Si13  1  0.31508639  0.95456418  0.42233351  1
  Si  Si14  1  0.81435409  0.95250842  0.42020075  1
  S  S0  1  0.35105189  0.70798510  0.25097884  1
  S  S1  1  0.85418199  0.71316098  0.24990447  1
  S  S2  1  0.00265310  0.29259541  0.24970119  1
  S  S3  1  0.35281785  0.99512199  0.75011986  1
  S  S4  1  0.85281029  0.99520407  0.75051405  1
  S  S5  1  0.18696978  0.04496013  0.58416141  1
  S  S6  1  0.68740962  0.04499187  0.58475132  1
  S  S7  1  0.33501659  0.62666225  0.58307896  1
  S  S8  1  0.83516389  0.62815697  0.58339981  1
  S  S9  1  0.33485245  0.04344711  0.08348441  1
  S  S10  1  0.83599885  0.04452268  0.08320305  1
  S  S11  1  0.18684903  0.32824476  0.08542526  1
  S  S12  1  0.68651079  0.32953361  0.08443564  1
  S  S13  1  0.01896333  0.37158625  0.91793679  1
  S  S14  1  0.51890581  0.37107568  0.91767303  1
  S  S15  1  0.17095307  0.96438872  0.91674569  1
  S  S16  1  0.67138925  0.96524197  0.91674079  1
  S  S17  1  0.16903411  0.37875027  0.41656177  1
  S  S18  1  0.67145060  0.37713273  0.41668759  1
  S  S19  1  0.01841082  0.66093326  0.41735639  1
  S  S20  1  0.52005771  0.66776618  0.41727767  1
  O  O0  1  0.09981130  0.01588478  0.31471998  1
  O  O1  1  0.60401180  0.03456225  0.30889870  1
  O  O2  1  0.40397948  0.78530423  0.30397339  1
  O  O3  1  0.90843617  0.79290195  0.30179817  1
  O  O4  1  0.47790240  0.17856545  0.31182716  1
  O  O5  1  0.98965474  0.19384219  0.30477857  1
  O  O6  1  0.10103397  0.17071888  0.80938546  1
  O  O7  1  0.60053426  0.17018228  0.80926594  1
  O  O8  1  0.47843303  0.77701434  0.81202521  1
  O  O9  1  0.97847174  0.77663251  0.81211980  1
  O  O10  1  0.40603307  0.02686761  0.80300287  1
  O  O11  1  0.90596122  0.02665676  0.80345521  1
  O  O12  1  0.39226147  0.96647146  0.69477185  1
  O  O13  1  0.89228920  0.96648139  0.69524374  1
  O  O14  1  0.08172690  0.20365082  0.69209532  1
  O  O15  1  0.58222305  0.20478919  0.69208503  1
  O  O16  1  0.01705909  0.84605222  0.69473668  1
  O  O17  1  0.51690492  0.84625086  0.69467968  1
  O  O18  1  0.39013003  0.81813459  0.19538290  1
  O  O19  1  0.89376230  0.81820749  0.19323066  1
  O  O20  1  0.01240802  0.20592760  0.19578648  1
  O  O21  1  0.51610652  0.18573976  0.19505291  1
  O  O22  1  0.07870507  0.96529502  0.19549815  1
  O  O23  1  0.58411170  0.96397587  0.19211735  1
  O  O24  1  0.43772111  0.34693961  0.64537245  1
  O  O25  1  0.93863396  0.34684220  0.64681444  1
  O  O26  1  0.23758221  0.12554709  0.63819709  1
  O  O27  1  0.73629299  0.12211302  0.63991035  1
  O  O28  1  0.32143271  0.53078243  0.64013882  1
  O  O29  1  0.82173883  0.53269496  0.64080299  1
  O  O30  1  0.43711344  0.52672703  0.14565797  1
  O  O31  1  0.93605377  0.52161610  0.14728085  1
  O  O32  1  0.32205156  0.11346470  0.14005704  1
  O  O33  1  0.82204822  0.11561602  0.13839406  1
  O  O34  1  0.23886023  0.34999784  0.13828641  1
  O  O35  1  0.73692588  0.35306834  0.13895858  1
  O  O36  1  0.22773250  0.30183187  0.02953597  1
  O  O37  1  0.73195021  0.30732273  0.03021667  1
  O  O38  1  0.41510169  0.52812637  0.02651843  1
  O  O39  1  0.91503022  0.52814071  0.02713412  1
  O  O40  1  0.34228290  0.15323250  0.03065861  1
  O  O41  1  0.84575916  0.15288842  0.02962988  1
  O  O42  1  0.23045760  0.15373478  0.52836707  1
  O  O43  1  0.73150483  0.15595313  0.53047933  1
  O  O44  1  0.34265093  0.53062264  0.53093055  1
  O  O45  1  0.84374439  0.53600481  0.53134294  1
  O  O46  1  0.41648901  0.30463552  0.52624930  1
  O  O47  1  0.91427667  0.30095139  0.52813577  1
  O  O48  1  0.26719012  0.68371255  0.98132685  1
  O  O49  1  0.76689948  0.68422405  0.98139911  1
  O  O50  1  0.07034000  0.45456417  0.97045236  1
  O  O51  1  0.57063311  0.45426326  0.97001935  1
  O  O52  1  0.15426674  0.85198337  0.96923555  1
  O  O53  1  0.65529399  0.85330140  0.96913210  1
  O  O54  1  0.26441446  0.84943987  0.48094564  1
  O  O55  1  0.77073690  0.85325740  0.48180474  1
  O  O56  1  0.15616220  0.45181033  0.47123419  1
  O  O57  1  0.65430488  0.45583644  0.46884775  1
  O  O58  1  0.07304134  0.68704175  0.46900812  1
  O  O59  1  0.57060914  0.68656707  0.47036408  1
  O  O60  1  0.05981701  0.63499056  0.36063833  1
  O  O61  1  0.55848865  0.63271481  0.36150463  1
  O  O62  1  0.24853354  0.86010363  0.36126992  1
  O  O63  1  0.74720746  0.85137886  0.36153392  1
  O  O64  1  0.17793808  0.48764723  0.36253340  1
  O  O65  1  0.68067816  0.47919910  0.36022164  1
  O  O66  1  0.05968207  0.48483448  0.86151213  1
  O  O67  1  0.55991614  0.48513408  0.86122225  1
  O  O68  1  0.18002539  0.88009673  0.86050299  1
  O  O69  1  0.68121926  0.88243468  0.86045274  1
  O  O70  1  0.24955799  0.64396104  0.86005137  1
  O  O71  1  0.74954757  0.64381305  0.86018949  1
  O  O72  1  0.00958303  0.81379040  0.41084773  1
  O  O73  1  0.50563756  0.81218114  0.40981339  1
  O  O74  1  0.41217456  0.99197488  0.41576716  1
  O  O75  1  0.91033776  0.98540579  0.41064841  1
  O  O76  1  0.09508897  0.20070604  0.41187080  1
  O  O77  1  0.59460581  0.20193916  0.41323088  1
  O  O78  1  0.00616831  0.19998952  0.91021924  1
  O  O79  1  0.50641691  0.19976266  0.90987487  1
  O  O80  1  0.09431644  0.98623226  0.91303074  1
  O  O81  1  0.59488724  0.98714541  0.91294323  1
  O  O82  1  0.41133252  0.83131237  0.91502508  1
  O  O83  1  0.91142654  0.83138741  0.91530820  1
  O  O84  1  0.48328449  0.14534795  0.58882176  1
  O  O85  1  0.98330482  0.14561827  0.58936163  1
  O  O86  1  0.09993987  0.03192085  0.58602095  1
  O  O87  1  0.59991610  0.03185837  0.58668955  1
  O  O88  1  0.41581265  0.80013446  0.58489862  1
  O  O89  1  0.91563690  0.80364181  0.58634824  1
  O  O90  1  0.48343750  0.82121700  0.08929014  1
  O  O91  1  0.98422842  0.81629833  0.09132032  1
  O  O92  1  0.41534233  0.02992856  0.08543071  1
  O  O93  1  0.91743191  0.03107172  0.08707375  1
  O  O94  1  0.09815625  0.16818056  0.08953382  1
  O  O95  1  0.60013068  0.16819624  0.08632055  1
  O  O96  1  0.33625941  0.13965685  0.74378141  1
  O  O97  1  0.83624347  0.13954082  0.74423444  1
  O  O98  1  0.24202556  0.31483183  0.74235980  1
  O  O99  1  0.74227591  0.31516196  0.74260228  1
  O  O100  1  0.42074920  0.51387922  0.74633610  1
  O  O101  1  0.92049655  0.51367148  0.74641996  1
  O  O102  1  0.33716273  0.53404361  0.24419740  1
  O  O103  1  0.84159129  0.53794963  0.24469707  1
  O  O104  1  0.42100124  0.32877951  0.24606437  1
  O  O105  1  0.92813419  0.32266625  0.24559008  1
  O  O106  1  0.24322991  0.15818489  0.24414683  1
  O  O107  1  0.74401558  0.18039768  0.24245454  1
  O  O108  1  0.32068436  0.48890868  0.92499614  1
  O  O109  1  0.82106160  0.48988595  0.92543073  1
  O  O110  1  0.43203582  0.36447060  0.92139829  1
  O  O111  1  0.93204937  0.36516885  0.92168521  1
  O  O112  1  0.25182483  0.13478236  0.92180299  1
  O  O113  1  0.75233384  0.13659280  0.92223269  1
  O  O114  1  0.31845290  0.15130365  0.42498654  1
  O  O115  1  0.81923099  0.14933823  0.42491692  1
  O  O116  1  0.25019446  0.36535828  0.41941525  1
  O  O117  1  0.75215330  0.36778732  0.42257849  1
  O  O118  1  0.43151905  0.49990715  0.42248957  1
  O  O119  1  0.93124866  0.50197652  0.42186403  1
  O  O120  1  0.17657105  0.47973515  0.07910775  1
  O  O121  1  0.67680665  0.48123801  0.07787046  1
  O  O122  1  0.07790414  0.65282861  0.07650799  1
  O  O123  1  0.57820781  0.65554308  0.07590128  1
  O  O124  1  0.25990980  0.86532786  0.07958775  1
  O  O125  1  0.76221457  0.86630561  0.07916618  1
  O  O126  1  0.17755009  0.87357266  0.57885983  1
  O  O127  1  0.67704544  0.87276551  0.57912640  1
  O  O128  1  0.26046215  0.65531582  0.57845700  1
  O  O129  1  0.76025609  0.65658176  0.57982527  1
  O  O130  1  0.07773142  0.50068621  0.57661742  1
  O  O131  1  0.57867391  0.50170429  0.57530001  1
  O  O132  1  0.15034135  0.81666524  0.25922228  1
  O  O133  1  0.65347798  0.82507315  0.25723820  1
  O  O134  1  0.26363628  0.69926294  0.25695553  1
  O  O135  1  0.76578400  0.69397462  0.25467467  1
  O  O136  1  0.08322721  0.47017435  0.25335201  1
  O  O137  1  0.59338344  0.48551768  0.25716647  1
  O  O138  1  0.15427857  0.48408252  0.75748382  1
  O  O139  1  0.65431035  0.48417691  0.75761111  1
  O  O140  1  0.09302313  0.70064245  0.75798814  1
  O  O141  1  0.59315701  0.70111144  0.75795836  1
  O  O142  1  0.26533019  0.83177842  0.75543747  1
  O  O143  1  0.76537784  0.83163741  0.75573286  1
loop_
_geom_bond_atom_site_label_1
_geom_bond_atom_site_label_2
_geom_bond_distance
_geom_bond_site_symmetry_2
Na0 O106 2.327353 1_555
Na0 O104 2.390373 1_555
Na0 O134 2.538729 1_545
Na0 O32 2.557969 1_555
Na0 O132 2.719406 1_545
Na0 O4 2.743658 1_555
Na0 O62 2.847200 1_545
Na0 O18 2.869395 1_545
Na1 O137 2.362271 1_555
Na1 O107 2.363611 1_555
Na1 O103 2.503278 1_555
Na1 O65 2.619455 1_555
Na1 O135 2.631974 1_555
Na1 O35 2.732262 1_555
Na1 O1 2.755190 1_555
Na1 O21 2.851619 1_555
Na2 O105 2.372091 1_555
Na2 O31 2.391661 1_555
Na2 O132 2.423758 1_655
Na2 O103 2.445899 1_555
Na2 O136 2.582703 1_655
Na2 O22 2.818183 1_655
Na2 O60 2.818321 1_655
Na2 O3 2.922550 1_555
Na3 O104 2.295266 1_555
Na3 O30 2.377023 1_555
Na3 O133 2.470974 1_555
Na3 O102 2.532058 1_555
Na3 O137 2.607656 1_555
Na3 O23 2.844956 1_555
Na3 O61 2.854727 1_555
Na4 O100 2.399729 1_555
Na4 O98 2.411417 1_555
Na4 O142 2.536339 1_555
Na4 O28 2.611990 1_555
Na4 O138 2.612600 1_555
Na4 O8 2.757607 1_555
Na4 O70 2.776290 1_555
Na4 O12 2.939260 1_555
Na5 O101 2.394082 1_555
Na5 O99 2.406275 1_555
Na5 O143 2.537232 1_555
Na5 O29 2.569341 1_555
Na5 O139 2.615278 1_555
Na5 O9 2.770104 1_555
Na5 O71 2.801212 1_555
Na5 O13 2.924635 1_555
Na6 O101 2.299200 1_555
Na6 O25 2.327820 1_555
Na6 O138 2.498595 1_655
Na6 O97 2.528428 1_555
Na6 O140 2.621667 1_655
Na6 O14 2.827217 1_655
Na6 O66 2.875440 1_655
Na6 O11 2.952573 1_555
Na7 O100 2.299090 1_555
Na7 O24 2.375336 1_555
Na7 O139 2.495016 1_555
Na7 O96 2.530155 1_555
Na7 O141 2.623363 1_555
Na7 O15 2.828324 1_555
Na7 O67 2.859832 1_555
Na7 O10 2.941641 1_555
Na8 O140 2.385245 1_545
Na8 O98 2.404119 1_555
Na8 O96 2.429093 1_555
Na8 O68 2.654764 1_545
Na8 O142 2.692282 1_545
Na8 O26 2.726429 1_555
Na8 O6 2.780393 1_555
Na8 O16 2.823785 1_545
Na9 O141 2.387277 1_545
Na9 O99 2.401845 1_555
Na9 O97 2.414877 1_555
Na9 O69 2.662641 1_545
Na9 O27 2.663449 1_555
Na9 O143 2.686751 1_545
Na9 O7 2.796471 1_555
Na9 O17 2.830324 1_545
Na10 O84 2.353251 1_565
Na10 O128 2.393104 1_555
Na10 O54 2.426752 1_555
Na10 O126 2.458355 1_555
Na10 O88 2.561633 1_555
Na10 O12 2.824331 1_555
Na10 O46 2.859777 1_565
Na11 O55 2.349578 1_555
Na11 O85 2.359955 1_565
Na11 O129 2.389264 1_555
Na11 O127 2.461947 1_555
Na11 O89 2.543933 1_555
Na11 O47 2.803536 1_565
Na11 O13 2.860040 1_555
Na12 O90 2.349135 1_555
Na12 O48 2.403456 1_554
Na12 O124 2.403901 1_555
Na12 O120 2.481616 1_555
Na12 O92 2.551751 1_565
Na12 O18 2.831804 1_555
Na12 O38 2.842243 1_555
Na13 O125 2.357433 1_555
Na13 O49 2.372268 1_554
Na13 O91 2.414633 1_555
Na13 O121 2.438439 1_555
Na13 O93 2.583417 1_565
Na13 O19 2.829716 1_555
Na13 O39 2.848108 1_555
Na14 O82 2.308462 1_555
Na14 O8 2.376415 1_555
Na14 O81 2.435412 1_555
Na14 O110 2.513310 1_555
Na14 O108 2.565409 1_555
Na14 O38 2.868524 1_556
Na14 O67 2.901029 1_555
Na14 O53 2.932087 1_555
Na15 O83 2.313250 1_555
Na15 O9 2.359283 1_555
Na15 O80 2.424819 1_655
Na15 O111 2.509750 1_555
Na15 O109 2.568040 1_555
Na15 O66 2.887681 1_655
Na15 O39 2.896973 1_556
Na15 O52 2.920741 1_655
Na16 O74 2.328181 1_545
Na16 O4 2.349912 1_555
Na16 O77 2.412276 1_555
Na16 O118 2.541141 1_555
Na16 O114 2.642062 1_555
Na16 O61 2.843638 1_555
Na16 O57 2.905518 1_555
Na16 O46 2.920786 1_555
Na17 O76 2.376047 1_555
Na17 O0 2.402113 1_555
Na17 O114 2.432397 1_555
Na17 O72 2.434881 1_545
Na17 O116 2.599061 1_555
Na17 O42 2.856613 1_555
Na17 O62 2.864125 1_545
Na17 O58 2.946058 1_545
Na18 O75 2.339257 1_545
Na18 O85 2.501476 1_555
Na18 O89 2.554034 1_545
Na18 O76 2.579818 1_655
Na18 O72 2.646513 1_645
Na18 O86 2.723165 1_655
Na19 O74 2.387515 1_555
Na19 O77 2.512839 1_565
Na19 O73 2.528400 1_555
Na19 O88 2.564619 1_555
Na19 O84 2.593499 1_565
Na19 O87 2.595725 1_565
Na20 O83 2.366897 1_545
Na20 O78 2.463032 1_655
Na20 O80 2.529280 1_645
Na20 O93 2.590285 1_556
Na20 O94 2.685902 1_656
Na20 O91 2.702474 1_546
Na21 O82 2.394738 1_545
Na21 O79 2.537260 1_555
Na21 O92 2.538311 1_556
Na21 O90 2.564777 1_546
Na21 O81 2.571376 1_545
Na21 O95 2.614682 1_556
Na22 O98 2.450551 1_555
Na22 O100 2.477554 1_555
Na22 O108 2.547609 1_555
Na22 O112 2.556036 1_555
Na22 O96 2.663364 1_555
Na22 O110 2.670613 1_555
Na23 O99 2.429372 1_555
Na23 O101 2.453934 1_555
Na23 O113 2.574928 1_555
Na23 O109 2.579630 1_555
Na23 O97 2.637277 1_555
Na23 O111 2.687539 1_555
Na24 O106 2.394190 1_555
Na24 O104 2.421278 1_555
Na24 O102 2.481888 1_555
Na24 O116 2.588130 1_555
Na24 O114 2.695639 1_555
Na24 O118 2.748763 1_555
Na25 O107 2.399112 1_555
Na25 O115 2.452291 1_555
Na25 O117 2.587389 1_555
Na25 O105 2.599211 1_555
Na25 O119 2.717768 1_555
Na25 O103 2.746342 1_555
Na26 O122 2.314665 1_555
Na26 O120 2.520306 1_555
Na26 O124 2.536886 1_555
Na26 O136 2.568703 1_555
Na26 O132 2.683963 1_555
Na26 O134 2.793238 1_555
Na27 O123 2.321381 1_555
Na27 O125 2.542043 1_555
Na27 O133 2.569315 1_555
Na27 O137 2.579746 1_555
Na27 O121 2.650614 1_555
Na27 O135 2.795267 1_555
Na28 O130 2.266025 1_555
Na28 O126 2.572569 1_555
Na28 O128 2.573743 1_555
Na28 O140 2.591996 1_555
Na28 O138 2.616110 1_555
Na28 O142 2.850761 1_555
Na29 O131 2.281058 1_555
Na29 O129 2.513308 1_555
Na29 O127 2.544013 1_555
Na29 O141 2.619568 1_555
Na29 O139 2.638013 1_555
Na29 O143 2.853163 1_555
O0 Si0 1.585996 1_555
O0 Zn0 1.972282 1_455
O1 Si1 1.581924 1_555
O1 Zn1 1.928804 1_555
O2 S0 1.456831 1_555
O2 Zn1 2.137055 1_565
O3 S1 1.450442 1_555
O3 Zn0 2.087198 1_565
O4 Si2 1.603164 1_555
O4 Zn1 1.938958 1_555
O5 S2 1.452269 1_655
O5 Zn0 2.004159 1_555
O6 Si3 1.578973 1_555
O6 Zn2 1.931240 1_445
O7 Si4 1.576982 1_555
O7 Zn3 1.933272 1_545
O8 Si6 1.598698 1_555
O8 Zn3 1.944009 1_555
O9 Si5 1.599557 1_655
O9 Zn2 1.939595 1_555
O10 S3 1.451935 1_545
O10 Zn3 2.120473 1_545
O11 S4 1.452683 1_545
O11 Zn2 2.114560 1_545
O12 S3 1.495474 1_555
O12 Ti1 2.195884 1_565
O13 S4 1.494676 1_555
O13 Ti0 2.182401 1_665
O14 Si3 1.691565 1_555
O14 Ti0 1.805460 1_555
O15 Si4 1.695712 1_555
O15 Ti1 1.796441 1_555
O16 Si5 1.691813 1_555
O16 Ti0 1.894036 1_565
O17 Si6 1.693971 1_555
O17 Ti1 1.888938 1_565
O18 S0 1.504334 1_555
O18 Ti3 2.193336 1_565
O19 S1 1.506741 1_555
O19 Ti2 2.095608 1_655
O20 S2 1.485023 1_555
O20 Ti2 2.200742 1_545
O21 Si2 1.703940 1_555
O21 Ti3 1.884185 1_555
O22 Si0 1.708372 1_565
O22 Ti2 1.787697 1_555
O23 Si1 1.708305 1_565
O23 Ti3 1.793986 1_565
O24 Si7 1.590046 1_555
O24 Zn4 1.934214 1_555
O25 Si8 1.594565 1_555
O25 Zn5 1.928473 1_555
O26 S5 1.464510 1_555
O26 Zn4 2.195943 1_555
O27 S6 1.468257 1_555
O27 Zn5 2.200564 1_555
O28 S7 1.474802 1_555
O28 Zn4 2.016133 1_555
O29 S8 1.479852 1_555
O29 Zn5 2.004893 1_555
O30 Si9 1.588505 1_555
O30 Zn6 1.946869 1_555
O31 Si10 1.591971 1_555
O31 Zn7 1.943332 1_555
O32 S9 1.472244 1_555
O32 Zn6 2.048425 1_555
O33 S10 1.458894 1_555
O33 Zn7 1.972956 1_555
O34 S11 1.453249 1_555
O34 Zn6 2.133547 1_555
O35 S12 1.464855 1_555
O35 Zn7 2.153157 1_555
O36 S11 1.511254 1_555
O36 Ti4 2.022691 1_554
O37 S12 1.512810 1_555
O37 Ti5 1.992661 1_554
O38 Si9 1.750464 1_555
O38 Ti4 1.794179 1_554
O39 Si10 1.713367 1_555
O39 Ti5 1.822269 1_554
O40 S9 1.488260 1_555
O40 Ti4 2.161742 1_554
O41 S10 1.483957 1_555
O41 Ti5 2.188453 1_554
O42 S5 1.514983 1_555
O42 Ti6 2.059071 1_555
O43 S6 1.497467 1_555
O43 Ti7 2.037757 1_555
O44 S7 1.490787 1_555
O44 Ti6 2.122130 1_555
O45 S8 1.473885 1_555
O45 Ti7 2.265169 1_555
O46 Si7 1.750963 1_555
O46 Ti6 1.774368 1_555
O47 Si8 1.723991 1_555
O47 Ti7 1.786618 1_555
O48 Si11 1.588444 1_555
O48 Zn8 1.925096 1_556
O49 Si12 1.587212 1_555
O49 Zn9 1.934894 1_556
O50 S13 1.446147 1_555
O50 Zn8 2.119979 1_556
O51 S14 1.445865 1_555
O51 Zn9 2.109885 1_556
O52 S15 1.463340 1_555
O52 Zn8 2.007942 1_556
O53 S16 1.460792 1_555
O53 Zn9 2.009618 1_556
O54 Si13 1.583033 1_555
O54 Zn10 1.947372 1_555
O55 Si14 1.593058 1_555
O55 Zn11 1.937666 1_555
O56 S17 1.451302 1_555
O56 Zn10 2.004579 1_555
O57 S18 1.465657 1_555
O57 Zn11 2.008434 1_555
O58 S19 1.452111 1_555
O58 Zn10 2.077402 1_555
O59 S20 1.447363 1_555
O59 Zn11 2.122094 1_555
O60 S19 1.529749 1_555
O60 Ti8 2.038170 1_555
O61 S20 1.517638 1_555
O61 Ti9 2.104536 1_555
O62 Si13 1.728685 1_555
O62 Ti8 1.809964 1_555
O63 Si14 1.701649 1_555
O63 Ti9 1.805194 1_555
O64 S17 1.498241 1_555
O64 Ti8 2.096570 1_555
O65 S18 1.505930 1_555
O65 Ti9 2.241747 1_555
O66 S13 1.534675 1_555
O66 Ti10 2.020009 1_555
O67 S14 1.538891 1_555
O67 Ti11 2.012988 1_555
O68 S15 1.510669 1_555
O68 Ti10 2.207930 1_555
O69 S16 1.508873 1_555
O69 Ti11 2.219862 1_555
O70 Si11 1.702793 1_555
O70 Ti10 1.842244 1_555
O71 Si12 1.698108 1_555
O71 Ti11 1.845630 1_555
O72 S19 1.462075 1_555
O72 Zn0 2.293065 1_465
O73 S20 1.449736 1_555
O73 Zn1 2.259320 1_565
O74 Si13 1.592540 1_555
O74 Zn1 2.117357 1_565
O75 Si14 1.593981 1_555
O75 Zn0 1.948402 1_565
O76 S17 1.477544 1_555
O76 Zn0 2.221338 1_455
O77 S18 1.478953 1_555
O77 Zn1 2.232690 1_555
O78 S13 1.448272 1_555
O78 Zn2 2.279848 1_445
O79 S14 1.448049 1_555
O79 Zn3 2.263389 1_545
O80 S15 1.476115 1_555
O80 Zn2 2.231437 1_455
O81 S16 1.474175 1_555
O81 Zn3 2.231724 1_555
O82 Si11 1.605339 1_555
O82 Zn3 2.058500 1_555
O83 Si12 1.605319 1_555
O83 Zn2 2.071389 1_555
O84 Si7 1.685695 1_555
O84 Ti1 1.971241 1_555
O85 Si8 1.687559 1_555
O85 Ti0 1.958271 1_655
O86 S5 1.494977 1_555
O86 Ti0 2.042022 1_555
O87 S6 1.502871 1_555
O87 Ti1 2.018837 1_555
O88 S7 1.497425 1_555
O88 Ti1 2.335241 1_565
O89 S8 1.506268 1_555
O89 Ti0 2.284013 1_665
O90 Si9 1.689181 1_555
O90 Ti3 1.982882 1_565
O91 Si10 1.729218 1_555
O91 Ti2 1.850259 1_655
O92 S9 1.499193 1_555
O92 Ti3 2.324089 1_555
O93 S10 1.517773 1_555
O93 Ti2 2.238872 1_645
O94 S11 1.509923 1_555
O94 Ti2 2.016440 1_545
O95 S12 1.490498 1_555
O95 Ti3 2.053255 1_555
O96 S3 1.472428 1_545
O96 Zn4 2.313500 1_555
O97 S4 1.470663 1_545
O97 Zn5 2.339418 1_555
O98 Si3 1.606829 1_555
O98 Zn4 2.077954 1_555
O99 Si4 1.605390 1_555
O99 Zn5 2.093340 1_555
O100 Si6 1.615939 1_555
O100 Zn4 2.018465 1_555
O101 Si5 1.615295 1_655
O101 Zn5 2.028114 1_555
O102 S0 1.459279 1_555
O102 Zn6 2.292818 1_555
O103 S1 1.475768 1_555
O103 Zn7 2.371287 1_555
O104 Si2 1.615070 1_555
O104 Zn6 2.031481 1_555
O105 S2 1.484670 1_655
O105 Zn7 2.173620 1_555
O106 Si0 1.588371 1_555
O106 Zn6 2.080952 1_555
O107 Si1 1.604881 1_555
O107 Zn7 1.981940 1_555
O108 Si11 1.735893 1_555
O108 Ti4 1.844357 1_555
O109 Si12 1.743457 1_555
O109 Ti5 1.830260 1_555
O110 S14 1.519868 1_555
O110 Ti4 2.133907 1_555
O111 S13 1.521469 1_655
O111 Ti5 2.112918 1_555
O112 S15 1.487555 1_545
O112 Ti4 2.237067 1_555
O113 S16 1.493676 1_545
O113 Ti5 2.198578 1_555
O114 Si13 1.735273 1_545
O114 Ti6 1.896385 1_555
O115 Si14 1.725852 1_545
O115 Ti7 1.809138 1_555
O116 S17 1.511340 1_555
O116 Ti6 2.280043 1_555
O117 S18 1.488165 1_555
O117 Ti7 2.226444 1_555
O118 S20 1.540683 1_555
O118 Ti6 2.035913 1_555
O119 S19 1.490733 1_655
O119 Ti7 2.083905 1_555
O120 S11 1.464676 1_555
O120 Zn8 2.298280 1_555
O121 S12 1.461069 1_555
O121 Zn9 2.273588 1_555
O122 Si10 1.585318 1_455
O122 Zn8 1.974817 1_555
O123 Si9 1.592105 1_555
O123 Zn9 1.954926 1_555
O124 S9 1.482896 1_565
O124 Zn8 2.207804 1_555
O125 S10 1.476387 1_565
O125 Zn9 2.234972 1_555
O126 S5 1.464444 1_565
O126 Zn10 2.338104 1_555
O127 S6 1.465680 1_565
O127 Zn11 2.321748 1_555
O128 S7 1.478142 1_555
O128 Zn10 2.212231 1_555
O129 S8 1.481476 1_555
O129 Zn11 2.199211 1_555
O130 Si8 1.589839 1_455
O130 Zn10 1.943794 1_555
O131 Si7 1.587977 1_555
O131 Zn11 1.977658 1_555
O132 Si0 1.730761 1_565
O132 Ti8 1.885350 1_555
O133 Si1 1.677744 1_565
O133 Ti9 1.850324 1_555
O134 S0 1.523740 1_555
O134 Ti8 2.052409 1_555
O135 S1 1.498155 1_555
O135 Ti9 2.081995 1_555
O136 S2 1.518686 1_555
O136 Ti8 2.253514 1_555
O137 Si2 1.665573 1_555
O137 Ti9 2.048091 1_555
O138 Si3 1.687468 1_555
O138 Ti10 1.879771 1_555
O139 Si4 1.687277 1_555
O139 Ti11 1.875757 1_555
O140 Si5 1.674598 1_555
O140 Ti10 2.004901 1_555
O141 Si6 1.673104 1_555
O141 Ti11 2.004765 1_555
O142 S3 1.512323 1_555
O142 Ti10 2.108348 1_555
O143 S4 1.512551 1_555
O143 Ti11 2.104866 1_555
