# generated using pymatgen
data_Li7Br3O2
_symmetry_space_group_name_H-M   'P 1'
_cell_length_a   11.23365323
_cell_length_b   11.23365323
_cell_length_c   11.23365323
_cell_angle_alpha   159.57853016
_cell_angle_beta   159.57853016
_cell_angle_gamma   29.03745263
_symmetry_Int_Tables_number   1
_chemical_formula_structural   Li7Br3O2
_chemical_formula_sum   'Li7 Br3 O2'
_cell_volume   172.50200394
_cell_formula_units_Z   1
loop_
 _symmetry_equiv_pos_site_id
 _symmetry_equiv_pos_as_xyz
  1  'x, y, z'
loop_
 _atom_site_type_symbol
 _atom_site_label
 _atom_site_symmetry_multiplicity
 _atom_site_fract_x
 _atom_site_fract_y
 _atom_site_fract_z
 _atom_site_occupancy
  Li  Li0  1  0.09327700  0.59327700  0.50000000  1
  Li  Li1  1  0.59327700  0.09327700  0.50000000  1
  Li  Li2  1  0.90672300  0.40672300  0.50000000  1
  Li  Li3  1  0.40672300  0.90672300  0.50000000  1
  Li  Li4  1  0.18101700  0.18101700  0.00000000  1
  Li  Li5  1  0.81898300  0.81898300  0.00000000  1
  Li  Li6  1  0.00000000  0.00000000  0.00000000  1
  Br  Br0  1  0.50000000  0.50000000  0.00000000  1
  Br  Br1  1  0.68923500  0.68923500  0.00000000  1
  Br  Br2  1  0.31076500  0.31076500  0.00000000  1
  O  O0  1  0.90779300  0.90779300  0.00000000  1
  O  O1  1  0.09220700  0.09220700  0.00000000  1
loop_
_geom_bond_atom_site_label_1
_geom_bond_atom_site_label_2
_geom_bond_distance
_geom_bond_site_symmetry_2
Li0 O1 1.991516 1_555
Li0 O1 1.991516 1_566
Li1 O1 1.991516 1_555
Li1 O1 1.991516 1_656
Li2 O0 1.991516 1_556
Li2 O0 1.991516 1_545
Li3 O0 1.991516 1_556
Li3 O0 1.991516 1_455
Li4 O1 1.931602 1_555
Li5 O0 1.931602 1_555
Li6 O1 2.005487 1_555
Li6 O0 2.005487 1_445
Br0 Li6 2.816237 1_554
Br0 Li6 2.816237 1_565
Br0 Li6 2.816237 1_655
Br0 Li6 2.816237 1_666
Br0 Li1 2.842790 1_554
Br0 Li0 2.842790 1_554
Br0 Li1 2.842790 1_565
Br0 Li0 2.842790 1_655
Br0 Li3 2.842790 1_555
Br0 Li2 2.842790 1_454
Br0 Li2 2.842790 1_555
Br0 Li3 2.842790 1_544
Br1 Li4 2.821903 1_554
Br1 Li4 2.821903 1_666
Br1 Li4 2.821903 1_565
Br1 Li4 2.821903 1_655
Br1 Li5 2.821997 1_555
Br1 Li1 2.884693 1_554
Br1 Li0 2.884693 1_554
Br1 Li0 2.884693 1_655
Br1 Li1 2.884693 1_565
Br2 Li5 2.821903 1_455
Br2 Li5 2.821903 1_556
Br2 Li5 2.821903 1_444
Br2 Li5 2.821903 1_545
Br2 Li4 2.821997 1_555
Br2 Li3 2.884693 1_555
Br2 Li2 2.884693 1_454
Br2 Li3 2.884693 1_544
Br2 Li2 2.884693 1_555
