# generated using pymatgen
data_Mg4FeO5
_symmetry_space_group_name_H-M   'P 1'
_cell_length_a   5.15772354
_cell_length_b   5.15772010
_cell_length_c   15.30738456
_cell_angle_alpha   83.57212444
_cell_angle_beta   83.57216795
_cell_angle_gamma   109.40835338
_symmetry_Int_Tables_number   1
_chemical_formula_structural   Mg4FeO5
_chemical_formula_sum   'Mg16 Fe4 O20'
_cell_volume   376.79033106
_cell_formula_units_Z   4
loop_
 _symmetry_equiv_pos_site_id
 _symmetry_equiv_pos_as_xyz
  1  'x, y, z'
loop_
 _atom_site_type_symbol
 _atom_site_label
 _atom_site_symmetry_multiplicity
 _atom_site_fract_x
 _atom_site_fract_y
 _atom_site_fract_z
 _atom_site_occupancy
  Mg  Mg0  1  0.19881215  0.19839457  0.60030700  1
  Mg  Mg1  1  0.69831438  0.69865011  0.60054593  1
  Mg  Mg2  1  0.44843336  0.94841227  0.10094699  1
  Mg  Mg3  1  0.94847905  0.44854342  0.10067829  1
  Mg  Mg4  1  0.05157960  0.55158726  0.89905337  1
  Mg  Mg5  1  0.55148102  0.05150574  0.89932179  1
  Mg  Mg6  1  0.30134992  0.30167719  0.39945386  1
  Mg  Mg7  1  0.80159149  0.80119294  0.39969300  1
  Mg  Mg8  1  0.14870286  0.64870206  0.70038555  1
  Mg  Mg9  1  0.64835340  0.14833965  0.70181940  1
  Mg  Mg10  1  0.39911583  0.39921169  0.20086107  1
  Mg  Mg11  1  0.89845999  0.89838151  0.20211570  1
  Mg  Mg12  1  0.10162633  0.10154314  0.79788432  1
  Mg  Mg13  1  0.60081227  0.60090310  0.79913724  1
  Mg  Mg14  1  0.35129565  0.85130751  0.29960995  1
  Mg  Mg15  1  0.85166080  0.35164890  0.29818239  1
  Fe  Fe0  1  0.24997830  0.74996878  0.49998518  1
  Fe  Fe1  1  0.49992589  0.49995591  0.99998392  1
  Fe  Fe2  1  0.74998697  0.24998734  0.50000498  1
  Fe  Fe3  1  0.00002810  0.00002069  0.00000334  1
  O  O0  1  0.49206925  0.50792228  0.49999942  1
  O  O1  1  0.00792446  0.99206703  0.49999959  1
  O  O2  1  0.74240055  0.25760318  0.99999879  1
  O  O3  1  0.25759192  0.74241161  0.99999926  1
  O  O4  1  0.35070206  0.84943544  0.80046269  1
  O  O5  1  0.84924545  0.35052121  0.80042928  1
  O  O6  1  0.59919374  0.60090970  0.30071341  1
  O  O7  1  0.10084479  0.09912531  0.30069516  1
  O  O8  1  0.90088199  0.89914917  0.69930920  1
  O  O9  1  0.39909079  0.40081166  0.69929022  1
  O  O10  1  0.15056884  0.64930414  0.19954090  1
  O  O11  1  0.64948216  0.15076424  0.19957257  1
  O  O12  1  0.80719257  0.80721180  0.89510834  1
  O  O13  1  0.29880594  0.29880232  0.89503370  1
  O  O14  1  0.04790970  0.54794213  0.39537652  1
  O  O15  1  0.55822699  0.05819247  0.39557043  1
  O  O16  1  0.45207075  0.95209413  0.60463067  1
  O  O17  1  0.94180462  0.44176485  0.60442973  1
  O  O18  1  0.70121915  0.70121853  0.10496718  1
  O  O19  1  0.19279295  0.19281604  0.10489768  1
loop_
_geom_bond_atom_site_label_1
_geom_bond_atom_site_label_2
_geom_bond_distance
_geom_bond_site_symmetry_2
Mg0 O8 2.102074 1_445
Mg0 O16 2.104227 1_545
Mg0 O9 2.107287 1_555
Mg0 O17 2.107506 1_455
Mg0 O1 2.113625 1_545
Mg0 O0 2.126121 1_555
Mg1 O9 2.099639 1_555
Mg1 O16 2.104661 1_555
Mg1 O8 2.105279 1_555
Mg1 O17 2.107393 1_555
Mg1 O0 2.116187 1_555
Mg1 O1 2.128662 1_655
Mg2 O10 2.098171 1_555
Mg2 O11 2.104229 1_565
Mg2 O18 2.105788 1_555
Mg2 O19 2.105948 1_565
Mg2 O3 2.121003 1_554
Mg2 O2 2.132257 1_564
Mg3 O11 2.100312 1_555
Mg3 O18 2.105723 1_555
Mg3 O19 2.106051 1_655
Mg3 O10 2.106072 1_655
Mg3 O2 2.117935 1_554
Mg3 O3 2.129579 1_654
Mg4 O4 2.098139 1_555
Mg4 O5 2.104208 1_455
Mg4 O12 2.105809 1_455
Mg4 O13 2.105920 1_555
Mg4 O3 2.120972 1_555
Mg4 O2 2.132241 1_455
Mg5 O5 2.100305 1_555
Mg5 O13 2.105876 1_555
Mg5 O12 2.105898 1_545
Mg5 O4 2.106024 1_545
Mg5 O2 2.117905 1_555
Mg5 O3 2.129565 1_545
Mg6 O6 2.099637 1_555
Mg6 O14 2.104730 1_555
Mg6 O7 2.105200 1_555
Mg6 O15 2.107335 1_555
Mg6 O0 2.116158 1_555
Mg6 O1 2.128674 1_545
Mg7 O7 2.102058 1_665
Mg7 O14 2.104265 1_655
Mg7 O6 2.107209 1_555
Mg7 O15 2.107447 1_565
Mg7 O1 2.113600 1_655
Mg7 O0 2.126126 1_555
Mg8 O17 2.092946 1_455
Mg8 O16 2.095479 1_555
Mg8 O8 2.097590 1_455
Mg8 O9 2.097635 1_555
Mg8 O5 2.111963 1_455
Mg8 O4 2.121261 1_555
Mg9 O16 2.063017 1_545
Mg9 O17 2.066623 1_555
Mg9 O4 2.097710 1_545
Mg9 O5 2.103337 1_555
Mg9 O8 2.112388 1_545
Mg9 O9 2.112459 1_555
Mg10 O19 2.090628 1_555
Mg10 O18 2.090880 1_555
Mg10 O10 2.099180 1_555
Mg10 O11 2.099910 1_555
Mg10 O7 2.111678 1_555
Mg10 O6 2.116391 1_555
Mg11 O18 2.066461 1_555
Mg11 O19 2.069150 1_665
Mg11 O6 2.097715 1_555
Mg11 O7 2.103072 1_665
Mg11 O10 2.110162 1_655
Mg11 O11 2.110889 1_565
Mg12 O13 2.066546 1_555
Mg12 O12 2.069195 1_445
Mg12 O9 2.097674 1_555
Mg12 O8 2.103038 1_445
Mg12 O4 2.110151 1_545
Mg12 O5 2.110882 1_455
Mg13 O12 2.090660 1_555
Mg13 O13 2.090894 1_555
Mg13 O4 2.099194 1_555
Mg13 O5 2.099916 1_555
Mg13 O8 2.111539 1_555
Mg13 O9 2.116401 1_555
Mg14 O15 2.092962 1_565
Mg14 O14 2.095555 1_555
Mg14 O7 2.097594 1_565
Mg14 O6 2.097710 1_555
Mg14 O11 2.111919 1_565
Mg14 O10 2.121153 1_555
Mg15 O14 2.063116 1_655
Mg15 O15 2.066638 1_555
Mg15 O10 2.097711 1_655
Mg15 O11 2.103315 1_555
Mg15 O7 2.112341 1_655
Mg15 O6 2.112431 1_555
Fe0 O0 2.038039 1_555
Fe0 O1 2.038100 1_555
Fe0 O14 2.182109 1_555
Fe0 O16 2.182837 1_555
Fe0 O15 2.189042 1_565
Fe0 O17 2.189104 1_455
Fe1 O3 2.040784 1_555
Fe1 O2 2.040943 1_555
Fe1 O13 2.182747 1_555
Fe1 O18 2.183756 1_556
Fe1 O19 2.188831 1_556
Fe1 O12 2.189013 1_555
Fe2 O17 2.137762 1_555
Fe2 O15 2.137808 1_555
Fe2 O16 2.148415 1_545
Fe2 O14 2.148578 1_655
Fe2 O0 2.171548 1_555
Fe2 O1 2.171569 1_645
Fe3 O19 2.147862 1_555
Fe3 O12 2.148041 1_444
Fe3 O13 2.155054 1_554
Fe3 O18 2.155107 1_445
Fe3 O3 2.168686 1_544
Fe3 O2 2.168843 1_454
