# generated using pymatgen
data_MgMn6O7F5
_symmetry_space_group_name_H-M   'P 1'
_cell_length_a   7.89757836
_cell_length_b   5.97754406
_cell_length_c   5.63802340
_cell_angle_alpha   69.01736057
_cell_angle_beta   70.57015412
_cell_angle_gamma   68.43170253
_symmetry_Int_Tables_number   1
_chemical_formula_structural   MgMn6O7F5
_chemical_formula_sum   'Mg1 Mn6 O7 F5'
_cell_volume   224.83208718
_cell_formula_units_Z   1
loop_
 _symmetry_equiv_pos_site_id
 _symmetry_equiv_pos_as_xyz
  1  'x, y, z'
loop_
 _atom_site_type_symbol
 _atom_site_label
 _atom_site_symmetry_multiplicity
 _atom_site_fract_x
 _atom_site_fract_y
 _atom_site_fract_z
 _atom_site_occupancy
  Mg  Mg0  1  0.49580256  0.52347548  0.96306631  1
  Mn  Mn0  1  0.84433079  0.69797442  0.70413778  1
  Mn  Mn1  1  0.67596109  0.33768989  0.36948351  1
  Mn  Mn2  1  0.23479462  0.69065216  0.53190455  1
  Mn  Mn3  1  0.13889763  0.31179669  0.33870661  1
  Mn  Mn4  1  0.50008690  0.99715207  0.99501697  1
  Mn  Mn5  1  0.99742012  0.98147233  0.04735511  1
  O  O0  1  0.65425450  0.04257905  0.64923232  1
  O  O1  1  0.94641981  0.20518381  0.26026482  1
  O  O2  1  0.02420263  0.78356292  0.80665198  1
  O  O3  1  0.40144066  0.44830747  0.36417121  1
  O  O4  1  0.33046452  0.97007041  0.33343893  1
  O  O5  1  0.67287594  0.64785256  0.04574343  1
  O  O6  1  0.01939766  0.68977686  0.36144117  1
  F  F0  1  0.33635251  0.36700437  0.91331631  1
  F  F1  1  0.31528982  0.85801354  0.90433489  1
  F  F2  1  0.66624956  0.56131534  0.61032654  1
  F  F3  1  0.67469738  0.16311701  0.07007595  1
  F  F4  1  0.01748830  0.28252464  0.74323861  1
loop_
_geom_bond_atom_site_label_1
_geom_bond_atom_site_label_2
_geom_bond_distance
_geom_bond_site_symmetry_2
Mg0 O5 2.042545 1_556
Mg0 O3 2.066061 1_556
Mn0 O5 1.944901 1_556
Mn0 O6 1.971762 1_655
Mn0 O2 1.976391 1_655
Mn0 O0 2.042413 1_565
Mn1 O0 1.918001 1_555
Mn1 O1 1.949175 1_555
Mn1 O3 2.028195 1_555
Mn1 O5 2.083826 1_555
Mn2 O3 1.864483 1_555
Mn2 O4 1.907747 1_555
Mn2 O2 1.922772 1_555
Mn2 O6 2.217056 1_555
Mn3 O4 2.050311 1_545
Mn3 O1 2.067318 1_455
Mn3 O6 2.138029 1_555
Mn3 O3 2.551779 1_555
Mn4 O0 1.908302 1_565
Mn4 O4 1.923288 1_556
Mn4 O5 2.010145 1_556
Mn5 O1 1.955334 1_565
Mn5 O6 1.994208 1_655
Mn5 O2 2.015138 1_654
F0 Mg0 1.956547 1_555
F0 Mn4 2.082567 1_545
F0 Mn3 2.369826 1_556
F0 Mn2 2.457142 1_555
F1 Mg0 1.970976 1_555
F1 Mn4 2.185525 1_555
F1 Mn5 2.283476 1_456
F2 Mg0 1.984680 1_555
F2 Mn0 2.138701 1_555
F2 Mn1 2.189026 1_555
F3 Mg0 2.097362 1_554
F3 Mn4 2.181663 1_544
F3 Mn1 2.284516 1_555
F3 Mn5 2.353534 1_545
F4 Mn5 2.005628 1_446
F4 Mn3 2.129427 1_555
F4 Mn0 2.323248 1_455
