# generated using pymatgen
data_Na4Ca2Si(SO6)2
_symmetry_space_group_name_H-M   'P 1'
_cell_length_a   9.58085051
_cell_length_b   9.58297145
_cell_length_c   22.99957504
_cell_angle_alpha   90.00942850
_cell_angle_beta   90.00000000
_cell_angle_gamma   119.99267897
_symmetry_Int_Tables_number   1
_chemical_formula_structural   Na4Ca2Si(SO6)2
_chemical_formula_sum   'Na24 Ca12 Si6 S12 O72'
_cell_volume   1828.88638813
_cell_formula_units_Z   6
loop_
 _symmetry_equiv_pos_site_id
 _symmetry_equiv_pos_as_xyz
  1  'x, y, z'
loop_
 _atom_site_type_symbol
 _atom_site_label
 _atom_site_symmetry_multiplicity
 _atom_site_fract_x
 _atom_site_fract_y
 _atom_site_fract_z
 _atom_site_occupancy
  Na  Na0  1  0.61225962  0.99532141  0.26066355  1
  Na  Na1  1  0.36115845  0.33370495  0.25399907  1
  Na  Na2  1  0.01769264  0.65751225  0.23418114  1
  Na  Na3  1  0.63981961  0.65751225  0.73418114  1
  Na  Na4  1  0.97254650  0.33370495  0.75399907  1
  Na  Na5  1  0.38306179  0.99532141  0.76066355  1
  Na  Na6  1  0.32918868  0.35745081  0.58729551  1
  Na  Na7  1  0.00457900  0.69451989  0.57915379  1
  Na  Na8  1  0.66759079  0.94645718  0.58317281  1
  Na  Na9  1  0.27886739  0.94645718  0.08317281  1
  Na  Na10  1  0.68994189  0.69451989  0.07915379  1
  Na  Na11  1  0.02826313  0.35745081  0.08729551  1
  Na  Na12  1  0.99334916  0.68653203  0.93236495  1
  Na  Na13  1  0.67321970  0.02740152  0.90104765  1
  Na  Na14  1  0.33244514  0.28244261  0.91652633  1
  Na  Na15  1  0.94999646  0.28244261  0.41652633  1
  Na  Na16  1  0.35418082  0.02740152  0.40104765  1
  Na  Na17  1  0.69318187  0.68653203  0.43236495  1
  Na  Na18  1  0.96105535  0.98006143  0.49961800  1
  Na  Na19  1  0.01900607  0.98006143  0.99961800  1
  Na  Na20  1  0.64892217  0.29632508  0.83336270  1
  Na  Na21  1  0.64740391  0.29632508  0.33336270  1
  Na  Na22  1  0.31406099  0.68668397  0.16676149  1
  Na  Na23  1  0.37262198  0.68668397  0.66676149  1
  Ca  Ca0  1  0.00283831  0.99637128  0.34704387  1
  Ca  Ca1  1  0.99353297  0.99637128  0.84704387  1
  Ca  Ca2  1  0.98721716  0.99314400  0.65277646  1
  Ca  Ca3  1  0.00592684  0.99314400  0.15277646  1
  Ca  Ca4  1  0.66424185  0.33198144  0.68039899  1
  Ca  Ca5  1  0.66774059  0.33198144  0.18039899  1
  Ca  Ca6  1  0.66818806  0.33245915  0.98609833  1
  Ca  Ca7  1  0.66427209  0.33245915  0.48609833  1
  Ca  Ca8  1  0.32805954  0.67778992  0.01371591  1
  Ca  Ca9  1  0.34972938  0.67778992  0.51371591  1
  Ca  Ca10  1  0.33994028  0.68022347  0.31963002  1
  Ca  Ca11  1  0.34028219  0.68022347  0.81963002  1
  Si  Si0  1  0.31144836  0.00103914  0.25063176  1
  Si  Si1  1  0.68959078  0.00103914  0.75063176  1
  Si  Si2  1  0.66647800  0.64031769  0.58328647  1
  Si  Si3  1  0.97384068  0.64031769  0.08328647  1
  Si  Si4  1  0.33254583  0.98062168  0.91634807  1
  Si  Si5  1  0.64807485  0.98062168  0.41634807  1
  S  S0  1  0.69224785  0.69169074  0.25000853  1
  S  S1  1  0.00110189  0.30411188  0.24991830  1
  S  S2  1  0.30300999  0.30411188  0.74991830  1
  S  S3  1  -0.00055711  0.69169074  0.75000853  1
  S  S4  1  0.97584123  0.33760749  0.58316122  1
  S  S5  1  0.35764499  0.02859357  0.58328147  1
  S  S6  1  0.67094958  0.02859357  0.08328147  1
  S  S7  1  0.36176726  0.33760749  0.08316122  1
  S  S8  1  0.63567081  0.66304078  0.91777018  1
  S  S9  1  0.03076508  0.36086628  0.91601420  1
  S  S10  1  0.33010019  0.36086628  0.41601420  1
  S  S11  1  0.02736897  0.66304078  0.41777018  1
  O  O0  1  0.22821269  0.02260440  0.31010373  1
  O  O1  1  0.78906131  0.77523571  0.30183365  1
  O  O2  1  0.98661271  0.20632606  0.30177889  1
  O  O3  1  0.21971335  0.20632606  0.80177889  1
  O  O4  1  0.98617440  0.77523571  0.80183365  1
  O  O5  1  0.79439170  0.02260440  0.81010373  1
  O  O6  1  0.78395667  0.98866776  0.69301529  1
  O  O7  1  0.21176937  0.22326662  0.69620305  1
  O  O8  1  0.02323245  0.79118235  0.69723631  1
  O  O9  1  0.76794990  0.79118235  0.19723631  1
  O  O10  1  0.01149725  0.22326662  0.19620305  1
  O  O11  1  0.20471109  0.98866776  0.19301529  1
  O  O12  1  0.89435038  0.34949078  0.63609510  1
  O  O13  1  0.45811727  0.10500300  0.63538604  1
  O  O14  1  0.65147894  0.53582175  0.64198252  1
  O  O15  1  0.88434380  0.53582175  0.14198252  1
  O  O16  1  0.64688673  0.10500300  0.13538604  1
  O  O17  1  0.45514140  0.34949078  0.13609510  1
  O  O18  1  0.43860142  0.31368546  0.03120926  1
  O  O19  1  0.87001783  0.55068862  0.02453191  1
  O  O20  1  0.68311367  0.12185951  0.03068397  1
  O  O21  1  0.43874684  0.12185951  0.53068397  1
  O  O22  1  0.68067179  0.55068862  0.52453191  1
  O  O23  1  0.87508504  0.31368546  0.53120926  1
  O  O24  1  0.55493441  0.67570029  0.97118771  1
  O  O25  1  0.12854584  0.44408778  0.96844340  1
  O  O26  1  0.31179391  0.87307542  0.97478478  1
  O  O27  1  0.56128051  0.87307542  0.47478478  1
  O  O28  1  0.31554094  0.44408778  0.46844340  1
  O  O29  1  0.12076488  0.67570029  0.47118771  1
  O  O30  1  0.11075223  0.64793981  0.36591745  1
  O  O31  1  0.53984618  0.89355298  0.35795711  1
  O  O32  1  0.34184229  0.45454014  0.36300796  1
  O  O33  1  0.11269685  0.45454014  0.86300796  1
  O  O34  1  0.35370580  0.89355298  0.85795711  1
  O  O35  1  0.53718657  0.64793981  0.86591745  1
  O  O36  1  0.01262604  0.81147397  0.41492761  1
  O  O37  1  0.83003433  0.99782657  0.41519749  1
  O  O38  1  0.18406252  0.19698060  0.41435364  1
  O  O39  1  0.01291808  0.19698060  0.91435364  1
  O  O40  1  0.16779223  0.99782657  0.91519749  1
  O  O41  1  0.79884793  0.81147397  0.91492761  1
  O  O42  1  0.00633624  0.19840730  0.58637257  1
  O  O43  1  0.19817162  0.02202825  0.58787140  1
  O  O44  1  0.83265728  0.82181496  0.58244101  1
  O  O45  1  0.98915768  0.82181496  0.08244101  1
  O  O46  1  0.82385663  0.02202825  0.08787140  1
  O  O47  1  0.19207106  0.19840730  0.08637257  1
  O  O48  1  0.66805433  0.16339749  0.74970302  1
  O  O49  1  0.46856700  0.32501813  0.74846717  1
  O  O50  1  0.84879770  0.53091418  0.74626748  1
  O  O51  1  0.68211748  0.53091418  0.24626748  1
  O  O52  1  0.85645212  0.32501813  0.24846717  1
  O  O53  1  0.49534416  0.16339749  0.24970302  1
  O  O54  1  0.65430521  0.51757495  0.91967147  1
  O  O55  1  0.86769139  0.34606924  0.91860031  1
  O  O56  1  0.49730953  0.16258115  0.91712146  1
  O  O57  1  0.66527263  0.16258115  0.41712146  1
  O  O58  1  0.47837885  0.34606924  0.41860031  1
  O  O59  1  0.86327074  0.51757495  0.41967147  1
  O  O60  1  0.35543229  0.49063200  0.07865469  1
  O  O61  1  0.15574842  0.65645049  0.08444901  1
  O  O62  1  0.53164714  0.85887987  0.08008652  1
  O  O63  1  0.32723173  0.85887987  0.58008652  1
  O  O64  1  0.50070107  0.65645049  0.58444901  1
  O  O65  1  0.13519871  0.49063200  0.57865469  1
  O  O66  1  0.32200359  0.83255693  0.24944562  1
  O  O67  1  0.52404667  0.66415368  0.25393678  1
  O  O68  1  0.15145519  0.46624018  0.25284387  1
  O  O69  1  0.31478399  0.46624018  0.75284387  1
  O  O70  1  0.14010601  0.66415368  0.75393678  1
  O  O71  1  0.51055234  0.83255693  0.74944562  1
loop_
_geom_bond_atom_site_label_1
_geom_bond_atom_site_label_2
_geom_bond_distance
_geom_bond_site_symmetry_2
Na0 O53 2.390912 1_565
Na0 O31 2.400842 1_555
Na0 O66 2.428192 1_555
Na0 O67 2.850973 1_555
Na0 O52 2.853887 1_565
Na0 O16 3.028078 1_565
Na1 O53 2.534527 1_555
Na1 O51 2.692424 1_555
Na1 O67 2.742720 1_555
Na1 O32 2.806111 1_555
Na1 O17 2.837457 1_555
Na1 O68 2.863852 1_555
Na1 O0 2.894859 1_555
Na2 O15 2.449174 1_455
Na2 O66 2.558858 1_555
Na2 O68 2.745021 1_555
Na2 O52 2.779572 1_455
Na2 O51 2.826022 1_455
Na2 O11 2.914418 1_555
Na3 O14 2.449177 1_555
Na3 O71 2.558866 1_555
Na3 O69 2.745028 1_555
Na3 O49 2.779572 1_555
Na3 O50 2.826030 1_555
Na3 O6 2.914418 1_555
Na4 O48 2.534519 1_555
Na4 O50 2.692416 1_555
Na4 O70 2.742720 1_655
Na4 O33 2.806108 1_655
Na4 O12 2.837454 1_555
Na4 O69 2.863843 1_655
Na4 O5 2.894859 1_555
Na5 O48 2.390919 1_565
Na5 O34 2.400842 1_555
Na5 O71 2.428184 1_555
Na5 O70 2.850976 1_555
Na5 O49 2.853885 1_565
Na5 O13 3.028078 1_565
Na6 O64 2.491428 1_555
Na6 O42 2.679162 1_555
Na6 O65 2.737579 1_555
Na6 O7 2.783526 1_555
Na6 O43 2.806054 1_555
Na6 O28 2.878882 1_555
Na6 O14 2.959861 1_555
Na7 O44 2.493139 1_455
Na7 O63 2.677580 1_555
Na7 O43 2.740522 1_565
Na7 O29 2.763759 1_555
Na7 O65 2.797925 1_555
Na7 O8 2.845960 1_555
Na7 O22 2.971791 1_455
Na8 O44 2.411764 1_555
Na8 O64 2.416272 1_555
Na8 O27 2.651360 1_555
Na8 O6 2.708823 1_555
Na8 O42 2.921246 1_665
Na8 O63 2.933750 1_555
Na9 O45 2.411773 1_455
Na9 O61 2.416270 1_555
Na9 O26 2.651356 1_554
Na9 O11 2.708827 1_555
Na9 O47 2.921253 1_565
Na9 O62 2.933731 1_555
Na10 O45 2.493131 1_555
Na10 O62 2.677597 1_555
Na10 O46 2.740523 1_565
Na10 O24 2.763768 1_554
Na10 O60 2.797941 1_555
Na10 O9 2.845959 1_555
Na10 O19 2.971791 1_555
Na11 O61 2.491430 1_555
Na11 O47 2.679154 1_555
Na11 O60 2.737562 1_555
Na11 O10 2.783525 1_555
Na11 O46 2.806055 1_455
Na11 O25 2.878879 1_554
Na11 O15 2.959861 1_455
Na12 O19 2.459158 1_556
Na12 O40 2.619921 1_655
Na12 O41 2.701451 1_555
Na12 O54 2.828427 1_555
Na12 O26 2.828878 1_655
Na12 O55 2.875252 1_555
Na13 O5 2.403807 1_555
Na13 O56 2.614935 1_555
Na13 O55 2.696504 1_555
Na13 O39 2.835310 1_655
Na13 O34 2.841199 1_545
Na13 O41 2.884886 1_545
Na14 O40 2.372102 1_545
Na14 O56 2.372424 1_555
Na14 O39 2.745614 1_555
Na14 O54 2.764907 1_555
Na14 O18 2.788657 1_556
Na14 O3 2.806312 1_555
Na15 O37 2.372103 1_545
Na15 O57 2.372407 1_555
Na15 O38 2.745624 1_655
Na15 O59 2.764893 1_555
Na15 O23 2.788651 1_555
Na15 O2 2.806315 1_555
Na16 O0 2.403802 1_555
Na16 O57 2.614952 1_555
Na16 O58 2.696501 1_555
Na16 O38 2.835301 1_555
Na16 O31 2.841199 1_545
Na16 O36 2.884879 1_545
Na17 O22 2.459162 1_555
Na17 O37 2.619920 1_555
Na17 O36 2.701459 1_655
Na17 O59 2.828443 1_555
Na17 O27 2.828878 1_555
Na17 O58 2.875250 1_555
Na18 O44 2.361666 1_555
Na18 O37 2.363992 1_555
Na18 O36 2.728609 1_655
Na18 O42 2.763825 1_665
Na18 O38 2.879719 1_665
Na18 O43 2.920454 1_665
Na19 O45 2.361666 1_456
Na19 O40 2.363992 1_555
Na19 O41 2.728609 1_455
Na19 O47 2.763825 1_566
Na19 O39 2.879718 1_565
Na19 O46 2.920454 1_466
Na20 O48 2.364575 1_555
Na20 O56 2.367115 1_555
Na20 O49 2.710928 1_555
Na20 O55 2.732119 1_555
Na20 O54 2.885795 1_555
Na20 O50 2.903616 1_555
Na21 O53 2.364575 1_555
Na21 O57 2.367115 1_555
Na21 O52 2.710928 1_555
Na21 O58 2.732119 1_555
Na21 O59 2.885795 1_555
Na21 O51 2.903616 1_555
Na22 O66 2.338619 1_555
Na22 O61 2.351387 1_555
Na22 O68 2.742373 1_555
Na22 O62 2.757650 1_555
Na22 O60 2.921728 1_555
Na22 O67 2.923789 1_555
Na23 O71 2.338619 1_555
Na23 O64 2.351387 1_555
Na23 O69 2.742373 1_555
Na23 O63 2.757650 1_555
Na23 O65 2.921728 1_555
Na23 O70 2.923789 1_555
Ca0 O0 2.214696 1_565
Ca0 O37 2.285034 1_455
Ca0 O1 2.329556 1_455
Ca0 O2 2.338697 1_465
Ca0 O36 2.398537 1_555
Ca0 O38 2.401853 1_565
Ca1 O5 2.214696 1_565
Ca1 O40 2.285034 1_655
Ca1 O4 2.329556 1_555
Ca1 O3 2.338697 1_665
Ca1 O41 2.398537 1_555
Ca1 O39 2.401853 1_665
Ca2 O6 2.137111 1_555
Ca2 O44 2.252502 1_555
Ca2 O8 2.361939 1_655
Ca2 O7 2.396917 1_665
Ca2 O43 2.414703 1_665
Ca2 O42 2.424057 1_665
Ca3 O11 2.137111 1_555
Ca3 O45 2.252502 1_455
Ca3 O9 2.361939 1_455
Ca3 O10 2.396917 1_565
Ca3 O46 2.414703 1_465
Ca3 O47 2.424057 1_565
Ca4 O14 2.202445 1_555
Ca4 O48 2.282948 1_555
Ca4 O13 2.325440 1_555
Ca4 O12 2.357348 1_555
Ca4 O50 2.384280 1_555
Ca4 O49 2.417632 1_555
Ca5 O15 2.202445 1_555
Ca5 O53 2.282948 1_555
Ca5 O16 2.325440 1_555
Ca5 O17 2.357348 1_555
Ca5 O51 2.384280 1_555
Ca5 O52 2.417632 1_555
Ca6 O19 2.202367 1_556
Ca6 O56 2.276358 1_555
Ca6 O20 2.331143 1_556
Ca6 O18 2.356195 1_556
Ca6 O54 2.394902 1_555
Ca6 O55 2.414820 1_555
Ca7 O22 2.202367 1_555
Ca7 O57 2.276358 1_555
Ca7 O21 2.331143 1_555
Ca7 O23 2.356195 1_555
Ca7 O59 2.394902 1_555
Ca7 O58 2.414820 1_555
Ca8 O26 2.149499 1_554
Ca8 O61 2.253089 1_555
Ca8 O25 2.339432 1_554
Ca8 O24 2.392786 1_554
Ca8 O62 2.400269 1_555
Ca8 O60 2.446916 1_555
Ca9 O27 2.149499 1_555
Ca9 O64 2.253089 1_555
Ca9 O28 2.339432 1_555
Ca9 O29 2.392786 1_555
Ca9 O63 2.400269 1_555
Ca9 O65 2.446916 1_555
Ca10 O31 2.170121 1_555
Ca10 O66 2.240052 1_555
Ca10 O30 2.317673 1_555
Ca10 O67 2.385248 1_555
Ca10 O32 2.390218 1_555
Ca10 O68 2.474309 1_555
Ca11 O34 2.170121 1_555
Ca11 O71 2.240052 1_555
Ca11 O35 2.317673 1_555
Ca11 O70 2.385248 1_555
Ca11 O33 2.390218 1_555
Ca11 O69 2.474309 1_555
O0 Si0 1.647513 1_555
O1 S0 1.476257 1_555
O2 S1 1.480001 1_655
O3 S2 1.480001 1_555
O4 S3 1.476257 1_655
O5 Si1 1.647513 1_555
O6 Si1 1.641526 1_565
O7 S2 1.487699 1_555
O8 S3 1.489044 1_555
O9 S0 1.489044 1_555
O10 S1 1.487699 1_555
O11 Si0 1.641526 1_565
O12 S4 1.481076 1_555
O13 S5 1.481187 1_555
O14 Si2 1.643912 1_555
O15 Si3 1.643912 1_555
O16 S6 1.481187 1_555
O17 S7 1.481076 1_555
O18 S7 1.480135 1_555
O19 Si3 1.642775 1_555
O20 S6 1.473784 1_555
O21 S5 1.473784 1_555
O22 Si2 1.642775 1_555
O23 S4 1.480135 1_555
O24 S8 1.488703 1_555
O25 S9 1.490119 1_555
O26 Si4 1.644285 1_555
O27 Si5 1.644285 1_555
O28 S10 1.490119 1_555
O29 S11 1.488703 1_555
O30 S11 1.482212 1_555
O31 Si5 1.646084 1_555
O32 S10 1.484630 1_555
O33 S9 1.484630 1_555
O34 Si4 1.646084 1_555
O35 S8 1.482212 1_555
O36 S11 1.499480 1_555
O37 Si5 1.667245 1_555
O38 S10 1.492880 1_555
O39 S9 1.492884 1_555
O40 Si4 1.667236 1_555
O41 S8 1.499485 1_555
O42 S4 1.503306 1_455
O43 S5 1.501149 1_555
O44 Si2 1.670878 1_555
O45 Si3 1.670882 1_555
O46 S6 1.501139 1_555
O47 S7 1.503312 1_555
O48 Si1 1.668759 1_555
O49 S2 1.496496 1_555
O50 S3 1.497021 1_655
O51 S0 1.497025 1_555
O52 S1 1.496487 1_655
O53 Si0 1.668764 1_555
O54 S8 1.491928 1_555
O55 S9 1.497731 1_655
O56 Si4 1.667564 1_545
O57 Si5 1.667555 1_545
O58 S10 1.497750 1_555
O59 S11 1.491916 1_655
O60 S7 1.501292 1_555
O61 Si3 1.671135 1_455
O62 S6 1.503843 1_565
O63 S5 1.503837 1_565
O64 Si2 1.671154 1_555
O65 S4 1.501282 1_455
O66 Si0 1.667634 1_565
O67 S0 1.499870 1_555
O68 S1 1.501957 1_555
O69 S2 1.501961 1_555
O70 S3 1.499861 1_555
O71 Si1 1.667639 1_565
