# generated using pymatgen
data_VP2O7
_symmetry_space_group_name_H-M   'P 1'
_cell_length_a   8.14980000
_cell_length_b   7.07670300
_cell_length_c   9.01737443
_cell_angle_alpha   65.34150740
_cell_angle_beta   90.00000000
_cell_angle_gamma   90.00000000
_symmetry_Int_Tables_number   1
_chemical_formula_structural   VP2O7
_chemical_formula_sum   'V4 P8 O28'
_cell_volume   472.64104707
_cell_formula_units_Z   4
loop_
 _symmetry_equiv_pos_site_id
 _symmetry_equiv_pos_as_xyz
  1  'x, y, z'
loop_
 _atom_site_type_symbol
 _atom_site_label
 _atom_site_symmetry_multiplicity
 _atom_site_fract_x
 _atom_site_fract_y
 _atom_site_fract_z
 _atom_site_occupancy
  V  V0  1  0.09216500  0.23279700  0.38803400  1
  V  V1  1  0.90783500  0.76720300  0.61196600  1
  V  V2  1  0.59216500  0.76720300  0.11196600  1
  V  V3  1  0.40783500  0.23279700  0.88803400  1
  P  P0  1  0.73711200  0.07236900  0.75678500  1
  P  P1  1  0.24100800  0.54601800  0.03752600  1
  P  P2  1  0.76288800  0.07236900  0.25678500  1
  P  P3  1  0.25899200  0.54601800  0.53752600  1
  P  P4  1  0.23711200  0.92763100  0.74321500  1
  P  P5  1  0.74100800  0.45398200  0.46247400  1
  P  P6  1  0.75899200  0.45398200  0.96247400  1
  P  P7  1  0.26288800  0.92763100  0.24321500  1
  O  O0  1  0.15359100  0.73702200  0.89490300  1
  O  O1  1  0.61171100  0.12502400  0.32031200  1
  O  O2  1  0.88828900  0.12502400  0.82031200  1
  O  O3  1  0.40101100  0.62624400  0.07991900  1
  O  O4  1  0.84640900  0.26297800  0.10509700  1
  O  O5  1  0.08655600  0.99084500  0.62021100  1
  O  O6  1  0.59898900  0.37375600  0.92008100  1
  O  O7  1  0.11277800  0.46377700  0.17161300  1
  O  O8  1  0.22752000  0.37830800  0.47436100  1
  O  O9  1  0.91344400  0.00915500  0.37978900  1
  O  O10  1  0.41344400  0.99084500  0.12021100  1
  O  O11  1  0.74039700  0.90699300  0.18356700  1
  O  O12  1  0.24039700  0.09300700  0.31643300  1
  O  O13  1  0.34640900  0.73702200  0.39490300  1
  O  O14  1  0.58655600  0.00915500  0.87978900  1
  O  O15  1  0.11171100  0.87497600  0.17968800  1
  O  O16  1  0.25960300  0.09300700  0.81643300  1
  O  O17  1  0.88722200  0.53622300  0.82838700  1
  O  O18  1  0.27248000  0.37830800  0.97436100  1
  O  O19  1  0.72752000  0.62169200  0.02563900  1
  O  O20  1  0.90101100  0.37375600  0.42008100  1
  O  O21  1  0.38722200  0.46377700  0.67161300  1
  O  O22  1  0.61277800  0.53622300  0.32838700  1
  O  O23  1  0.38828900  0.87497600  0.67968800  1
  O  O24  1  0.75960300  0.90699300  0.68356700  1
  O  O25  1  0.09898900  0.62624400  0.57991900  1
  O  O26  1  0.77248000  0.62169200  0.52563900  1
  O  O27  1  0.65359100  0.26297800  0.60509700  1
loop_
_geom_bond_atom_site_label_1
_geom_bond_atom_site_label_2
_geom_bond_distance
_geom_bond_site_symmetry_2
O0 P1 1.593135 1_556
O0 P4 1.616858 1_555
O1 P2 1.470745 1_555
O2 P0 1.470745 1_555
O3 P1 1.532954 1_555
O3 V2 1.935471 1_555
O4 P6 1.593135 1_554
O4 P2 1.616858 1_555
O5 P4 1.588046 1_555
O5 V0 2.079877 1_565
O5 V1 2.174855 1_455
O6 P6 1.532954 1_555
O6 V3 1.935471 1_555
O7 P1 1.518427 1_555
O7 V0 1.961339 1_555
O8 P3 1.537157 1_555
O8 V0 1.884691 1_555
O9 P2 1.588046 1_555
O9 V1 2.079877 1_545
O9 V0 2.174855 1_655
O10 P7 1.588046 1_555
O10 V3 2.079877 1_564
O10 V2 2.174855 1_555
O11 P2 1.576036 1_565
O11 V2 1.840612 1_555
O12 P7 1.576036 1_545
O12 V0 1.840612 1_555
O13 P3 1.593135 1_555
O13 P7 1.616858 1_555
O14 P0 1.588046 1_555
O14 V2 2.079877 1_546
O14 V3 2.174855 1_555
O15 P7 1.470745 1_555
O16 P4 1.576036 1_545
O16 V3 1.840612 1_555
O17 P6 1.518427 1_555
O17 V1 1.961339 1_555
O18 P1 1.537157 1_556
O18 V3 1.884691 1_555
O19 P6 1.537157 1_554
O19 V2 1.884691 1_555
O20 P5 1.532954 1_555
O20 V0 1.935471 1_655
O21 P3 1.518427 1_555
O21 V3 1.961339 1_555
O22 P5 1.518427 1_555
O22 V2 1.961339 1_555
O23 P4 1.470745 1_555
O24 P0 1.576036 1_565
O24 V1 1.840612 1_555
O25 P3 1.532954 1_555
O25 V1 1.935471 1_455
O26 P5 1.537157 1_555
O26 V1 1.884691 1_555
O27 P5 1.593135 1_555
O27 P0 1.616858 1_555
