# generated using pymatgen
data_Li4MnCo5O12
_symmetry_space_group_name_H-M   'P 1'
_cell_length_a   4.82940724
_cell_length_b   4.82940522
_cell_length_c   9.71543908
_cell_angle_alpha   84.89948535
_cell_angle_beta   84.89965027
_cell_angle_gamma   119.89561657
_symmetry_Int_Tables_number   1
_chemical_formula_structural   Li4MnCo5O12
_chemical_formula_sum   'Li4 Mn1 Co5 O12'
_cell_volume   193.32272999
_cell_formula_units_Z   1
loop_
 _symmetry_equiv_pos_site_id
 _symmetry_equiv_pos_as_xyz
  1  'x, y, z'
loop_
 _atom_site_type_symbol
 _atom_site_label
 _atom_site_symmetry_multiplicity
 _atom_site_fract_x
 _atom_site_fract_y
 _atom_site_fract_z
 _atom_site_occupancy
  Li  Li0  1  0.41170752  0.74463234  0.74327692  1
  Li  Li1  1  0.25536715  0.58829274  0.25672298  1
  Li  Li2  1  0.74463285  0.41170726  0.74327702  1
  Li  Li3  1  0.58829248  0.25536766  0.25672308  1
  Mn  Mn0  1  -0.00000000  0.00000000  -0.00000000  1
  Co  Co0  1  0.16486691  0.83513039  0.49999939  1
  Co  Co1  1  0.66673879  0.33326259  0.00000084  1
  Co  Co2  1  0.33326121  0.66673741  0.99999916  1
  Co  Co3  1  0.83513309  0.16486961  0.50000061  1
  Co  Co4  1  0.50000000  0.50000000  0.50000000  1
  O  O0  1  0.29790543  0.96214426  0.10646994  1
  O  O1  1  0.03785661  0.70209415  0.89353201  1
  O  O2  1  0.53115047  0.87034149  0.39713565  1
  O  O3  1  0.87033935  0.53114911  0.39713368  1
  O  O4  1  0.12966065  0.46885089  0.60286632  1
  O  O5  1  0.79014862  0.79014443  0.60431714  1
  O  O6  1  0.46884953  0.12965851  0.60286435  1
  O  O7  1  0.96214339  0.29790585  0.10646799  1
  O  O8  1  0.62714227  0.62714081  0.10662474  1
  O  O9  1  0.70209457  0.03785574  0.89353006  1
  O  O10  1  0.37285773  0.37285919  0.89337526  1
  O  O11  1  0.20985138  0.20985557  0.39568286  1
loop_
_geom_bond_atom_site_label_1
_geom_bond_atom_site_label_2
_geom_bond_distance
_geom_bond_site_symmetry_2
Li0 O5 2.078301 1_555
Li0 O4 2.082097 1_555
Li0 O6 2.089302 1_565
Li0 O10 2.129644 1_555
Li0 O1 2.131028 1_555
Li0 O9 2.203379 1_565
Li1 O11 2.078277 1_555
Li1 O2 2.082120 1_555
Li1 O3 2.089299 1_455
Li1 O8 2.129658 1_555
Li1 O0 2.131014 1_555
Li1 O7 2.203393 1_455
Li2 O5 2.078277 1_555
Li2 O6 2.082120 1_555
Li2 O4 2.089299 1_655
Li2 O10 2.129658 1_555
Li2 O9 2.131014 1_555
Li2 O1 2.203393 1_655
Li3 O11 2.078301 1_555
Li3 O3 2.082097 1_555
Li3 O2 2.089302 1_545
Li3 O8 2.129644 1_555
Li3 O7 2.131028 1_555
Li3 O0 2.203379 1_545
Mn0 O10 1.913760 1_554
Mn0 O8 1.913760 1_445
Mn0 O1 1.914795 1_544
Mn0 O7 1.914795 1_455
Mn0 O0 1.914801 1_545
Mn0 O9 1.914801 1_454
Co0 O2 1.874135 1_555
Co0 O4 1.874139 1_555
Co0 O5 1.895281 1_455
Co0 O11 1.895304 1_565
Co0 O6 1.899790 1_565
Co0 O3 1.899791 1_455
Co1 O7 1.899516 1_555
Co1 O9 1.899546 1_554
Co1 O1 1.901422 1_654
Co1 O0 1.901427 1_545
Co1 O8 1.902808 1_555
Co1 O10 1.902828 1_554
Co2 O1 1.899516 1_555
Co2 O0 1.899546 1_556
Co2 O7 1.901422 1_456
Co2 O9 1.901427 1_565
Co2 O10 1.902808 1_555
Co2 O8 1.902828 1_556
Co3 O6 1.874135 1_555
Co3 O3 1.874139 1_555
Co3 O11 1.895281 1_655
Co3 O5 1.895304 1_545
Co3 O2 1.899790 1_545
Co3 O4 1.899791 1_655
Co4 O11 1.871316 1_555
Co4 O5 1.871316 1_555
Co4 O2 1.899330 1_555
Co4 O6 1.899330 1_555
Co4 O4 1.899336 1_555
Co4 O3 1.899336 1_555
