# generated using pymatgen
data_V3(P3O10)2
_symmetry_space_group_name_H-M   'P 1'
_cell_length_a   8.55381157
_cell_length_b   8.55381157
_cell_length_c   12.65201500
_cell_angle_alpha   90.00000000
_cell_angle_beta   90.00000000
_cell_angle_gamma   107.23102674
_symmetry_Int_Tables_number   1
_chemical_formula_structural   V3(P3O10)2
_chemical_formula_sum   'V6 P12 O40'
_cell_volume   884.17071750
_cell_formula_units_Z   2
loop_
 _symmetry_equiv_pos_site_id
 _symmetry_equiv_pos_as_xyz
  1  'x, y, z'
loop_
 _atom_site_type_symbol
 _atom_site_label
 _atom_site_symmetry_multiplicity
 _atom_site_fract_x
 _atom_site_fract_y
 _atom_site_fract_z
 _atom_site_occupancy
  V  V0  1  0.82255300  0.27891600  0.28760500  1
  V  V1  1  0.77891600  0.32255300  0.78760500  1
  V  V2  1  0.36168400  0.36168400  0.00000000  1
  V  V3  1  0.86168400  0.86168400  0.50000000  1
  V  V4  1  0.32255300  0.77891600  0.21239500  1
  V  V5  1  0.27891600  0.82255300  0.71239500  1
  P  P0  1  0.87694000  0.24786400  0.55072400  1
  P  P1  1  0.40319900  0.14217100  0.30519300  1
  P  P2  1  0.36800500  0.22277000  0.78168600  1
  P  P3  1  0.74786400  0.37694000  0.05072400  1
  P  P4  1  0.22277000  0.36800500  0.21831400  1
  P  P5  1  0.14217100  0.40319900  0.69480700  1
  P  P6  1  0.90319900  0.64217100  0.19480700  1
  P  P7  1  0.86800500  0.72277000  0.71831400  1
  P  P8  1  0.37694000  0.74786400  0.94927600  1
  P  P9  1  0.72277000  0.86800500  0.28168600  1
  P  P10  1  0.64217100  0.90319900  0.80519300  1
  P  P11  1  0.24786400  0.87694000  0.44927600  1
  O  O0  1  0.82306200  0.04517300  0.29486400  1
  O  O1  1  0.86676600  0.06431700  0.55667000  1
  O  O2  1  0.71698000  0.08575100  0.80879100  1
  O  O3  1  0.33264400  0.01709400  0.22051000  1
  O  O4  1  0.34615800  0.06663100  0.42005400  1
  O  O5  1  0.33989100  0.05622200  0.73214400  1
  O  O6  1  0.78869200  0.26581600  0.13349400  1
  O  O7  1  0.58575100  0.21698000  0.30879100  1
  O  O8  1  0.85124100  0.30487000  0.44141700  1
  O  O9  1  0.76581600  0.28869200  0.63349400  1
  O  O10  1  0.80487000  0.35124100  0.94141700  1
  O  O11  1  0.27698400  0.21304400  0.88909500  1
  O  O12  1  0.54517300  0.32306200  0.79486400  1
  O  O13  1  0.32310100  0.28752100  0.29976600  1
  O  O14  1  0.56431700  0.36676600  0.05667000  1
  O  O15  1  0.21304400  0.27698400  0.11090500  1
  O  O16  1  0.28752000  0.32310100  0.70023400  1
  O  O17  1  0.83264400  0.51709400  0.27949000  1
  O  O18  1  0.84615800  0.56663100  0.07994600  1
  O  O19  1  0.83989100  0.55622200  0.76785600  1
  O  O20  1  0.05622200  0.33989100  0.26785600  1
  O  O21  1  0.01709400  0.33264400  0.77949000  1
  O  O22  1  0.06663100  0.34615800  0.57994600  1
  O  O23  1  0.32306200  0.54517300  0.20513600  1
  O  O24  1  0.36676600  0.56431700  0.94333000  1
  O  O25  1  0.77698400  0.71304400  0.61090500  1
  O  O26  1  0.21698000  0.58575100  0.69120900  1
  O  O27  1  0.82310100  0.78752000  0.20023400  1
  O  O28  1  0.71304400  0.77698400  0.38909500  1
  O  O29  1  0.78752000  0.82310100  0.79976600  1
  O  O30  1  0.28869200  0.76581600  0.36650600  1
  O  O31  1  0.55622200  0.83989100  0.23214400  1
  O  O32  1  0.51709400  0.83264400  0.72051000  1
  O  O33  1  0.08575100  0.71698000  0.19120900  1
  O  O34  1  0.56663100  0.84615800  0.92005400  1
  O  O35  1  0.35124100  0.80487000  0.05858300  1
  O  O36  1  0.26581600  0.78869200  0.86650600  1
  O  O37  1  0.30487000  0.85124100  0.55858300  1
  O  O38  1  0.04517300  0.82306200  0.70513600  1
  O  O39  1  0.06431700  0.86676600  0.44333000  1
loop_
_geom_bond_atom_site_label_1
_geom_bond_atom_site_label_2
_geom_bond_distance
_geom_bond_site_symmetry_2
O0 P9 1.513322 1_545
O0 V0 2.002794 1_555
O1 P0 1.548311 1_555
O1 V3 1.864296 1_545
O2 P10 1.502628 1_545
O2 V1 1.954392 1_555
O3 P1 1.508066 1_555
O3 V4 2.016065 1_545
O4 P1 1.606442 1_555
O4 P11 1.633443 1_545
O5 P2 1.509069 1_555
O5 V5 1.926625 1_545
O6 P3 1.522758 1_555
O6 V0 1.969517 1_555
O7 P1 1.502628 1_555
O7 V0 1.954392 1_555
O8 P0 1.504048 1_555
O8 V0 1.965774 1_555
O9 P0 1.522758 1_555
O9 V1 1.969517 1_555
O10 P3 1.504048 1_556
O10 V1 1.965774 1_555
O11 P2 1.556100 1_555
O11 V2 1.888018 1_556
O12 P2 1.513322 1_555
O12 V1 2.002794 1_555
O13 P1 1.588897 1_555
O13 P4 1.619420 1_555
O14 P3 1.548311 1_555
O14 V2 1.864296 1_555
O15 P4 1.556100 1_555
O15 V2 1.888018 1_555
O16 P5 1.588889 1_555
O16 P2 1.619425 1_555
O17 P6 1.508066 1_555
O17 V0 2.016065 1_555
O18 P6 1.606442 1_555
O18 P3 1.633443 1_555
O19 P7 1.509069 1_555
O19 V1 1.926625 1_555
O20 P4 1.509069 1_555
O20 V0 1.926625 1_455
O21 P5 1.508066 1_555
O21 V1 2.016065 1_455
O22 P5 1.606442 1_555
O22 P0 1.633443 1_455
O23 P4 1.513322 1_555
O23 V4 2.002794 1_555
O24 P8 1.548311 1_555
O24 V2 1.864296 1_556
O25 P7 1.556100 1_555
O25 V3 1.888018 1_555
O26 P5 1.502628 1_555
O26 V5 1.954392 1_555
O27 P6 1.588889 1_555
O27 P9 1.619425 1_555
O28 P9 1.556100 1_555
O28 V3 1.888018 1_555
O29 P10 1.588889 1_555
O29 P7 1.619425 1_555
O30 P11 1.522758 1_555
O30 V4 1.969517 1_555
O31 P9 1.509069 1_555
O31 V4 1.926625 1_555
O32 P10 1.508066 1_555
O32 V5 2.016065 1_555
O33 P6 1.502628 1_455
O33 V4 1.954392 1_555
O34 P10 1.606442 1_555
O34 P8 1.633443 1_555
O35 P8 1.504048 1_554
O35 V4 1.965774 1_555
O36 P8 1.522758 1_555
O36 V5 1.969517 1_555
O37 P11 1.504048 1_555
O37 V5 1.965774 1_555
O38 P7 1.513322 1_455
O38 V5 2.002794 1_555
O39 P11 1.548311 1_555
O39 V3 1.864296 1_455
