# generated using pymatgen
data_BaYMgCu2O5
_symmetry_space_group_name_H-M   'P 1'
_cell_length_a   3.76488701
_cell_length_b   4.19375588
_cell_length_c   9.41880661
_cell_angle_alpha   90.07041495
_cell_angle_beta   90.00049475
_cell_angle_gamma   89.99333279
_symmetry_Int_Tables_number   1
_chemical_formula_structural   BaYMgCu2O5
_chemical_formula_sum   'Ba1 Y1 Mg1 Cu2 O5'
_cell_volume   148.71358448
_cell_formula_units_Z   1
loop_
 _symmetry_equiv_pos_site_id
 _symmetry_equiv_pos_as_xyz
  1  'x, y, z'
loop_
 _atom_site_type_symbol
 _atom_site_label
 _atom_site_symmetry_multiplicity
 _atom_site_fract_x
 _atom_site_fract_y
 _atom_site_fract_z
 _atom_site_occupancy
  Ba  Ba0  1  0.99990800  0.99992600  0.11113300  1
  Y  Y0  1  0.00010000  0.99952000  0.48153400  1
  Mg  Mg0  1  0.99993500  0.49948400  0.82366000  1
  Cu  Cu0  1  0.50003200  0.50004700  0.60574800  1
  Cu  Cu1  1  0.49991300  0.50010100  0.31309200  1
  O  O0  1  0.00008900  0.50002900  0.61520200  1
  O  O1  1  0.50009300  0.00006700  0.61320100  1
  O  O2  1  0.00006700  0.50064200  0.29876200  1
  O  O3  1  0.49996000  0.00024300  0.30389600  1
  O  O4  1  0.49989900  0.49993700  0.92169200  1
loop_
_geom_bond_atom_site_label_1
_geom_bond_atom_site_label_2
_geom_bond_distance
_geom_bond_site_symmetry_2
Ba0 O3 2.615206 1_565
Ba0 O3 2.615466 1_665
Ba0 O2 2.741633 1_655
Ba0 O2 2.742904 1_665
Ba0 O4 3.333747 1_654
Ba0 O4 3.334043 1_554
Ba0 O4 3.336583 1_564
Ba0 O4 3.336838 1_664
Mg0 O0 1.963430 1_655
Mg0 O4 2.096573 1_655
Mg0 O4 2.096830 1_555
Cu0 O0 1.884335 1_555
Cu0 O0 1.884762 1_655
Cu0 O1 2.098050 1_565
Cu0 O1 2.098055 1_555
Cu1 O2 1.886698 1_555
Cu1 O2 1.887857 1_655
Cu1 O3 2.097965 1_555
Cu1 O3 2.099367 1_565
O0 Y0 2.445301 1_555
O0 Y0 2.446308 1_545
O1 Y0 2.254200 1_545
O1 Y0 2.254261 1_645
O2 Y0 2.707744 1_555
O2 Y0 2.718288 1_545
O3 Y0 2.518150 1_545
O3 Y0 2.518915 1_645
