# generated using pymatgen
data_Na2HfSc(PO4)3
_symmetry_space_group_name_H-M   'P 1'
_cell_length_a   8.96246627
_cell_length_b   8.96246596
_cell_length_c   23.03003066
_cell_angle_alpha   90.09241444
_cell_angle_beta   89.90758556
_cell_angle_gamma   120.50546407
_symmetry_Int_Tables_number   1
_chemical_formula_structural   Na2HfSc(PO4)3
_chemical_formula_sum   'Na12 Hf6 Sc6 P18 O72'
_cell_volume   1593.84032206
_cell_formula_units_Z   6
loop_
 _symmetry_equiv_pos_site_id
 _symmetry_equiv_pos_as_xyz
  1  'x, y, z'
loop_
 _atom_site_type_symbol
 _atom_site_label
 _atom_site_symmetry_multiplicity
 _atom_site_fract_x
 _atom_site_fract_y
 _atom_site_fract_z
 _atom_site_occupancy
  Na  Na0  1  0.36571176  0.36143108  0.24927871  1
  Na  Na1  1  0.63856892  0.63428824  0.74927871  1
  Na  Na2  1  0.03237876  0.69476408  0.58261171  1
  Na  Na3  1  0.30523592  0.96762124  0.08261171  1
  Na  Na4  1  0.69904476  0.02809808  0.91594571  1
  Na  Na5  1  0.97190192  0.30095524  0.41594571  1
  Na  Na6  1  0.99984818  0.99940943  0.49780811  1
  Na  Na7  1  0.00059057  0.00015182  0.99780811  1
  Na  Na8  1  0.66651518  0.33274243  0.83114111  1
  Na  Na9  1  0.66725757  0.33348482  0.33114111  1
  Na  Na10  1  0.33318118  0.66607643  0.16447511  1
  Na  Na11  1  0.33392357  0.66681882  0.66447511  1
  Hf  Hf0  1  0.00120512  0.00757408  0.64768970  1
  Hf  Hf1  1  0.99242592  0.99879488  0.14768970  1
  Hf  Hf2  1  0.66787212  0.34090708  0.98102270  1
  Hf  Hf3  1  0.65909292  0.33212788  0.48102270  1
  Hf  Hf4  1  0.33453812  0.67424108  0.31435670  1
  Hf  Hf5  1  0.32575892  0.66546188  0.81435670  1
  Sc  Sc0  1  0.99891801  0.99216245  0.35173016  1
  Sc  Sc1  1  0.00783755  0.00108199  0.85173016  1
  Sc  Sc2  1  0.66558501  0.32549545  0.68506316  1
  Sc  Sc3  1  0.67450455  0.33441499  0.18506316  1
  Sc  Sc4  1  0.33225101  0.65882945  0.01839716  1
  Sc  Sc5  1  0.34117055  0.66774899  0.51839716  1
  P  P0  1  0.29056150  0.99982710  0.24943688  1
  P  P1  1  0.70814355  0.70694391  0.25075469  1
  P  P2  1  0.99722712  0.28996880  0.25174007  1
  P  P3  1  0.29305609  0.29185644  0.75075469  1
  P  P4  1  0.00017290  0.70943850  0.74943688  1
  P  P5  1  0.71003120  0.00277288  0.75174007  1
  P  P6  1  0.95722850  0.33316010  0.58276988  1
  P  P7  1  0.37481055  0.04027691  0.58408769  1
  P  P8  1  0.66389412  0.62330180  0.58507307  1
  P  P9  1  0.95972309  0.62518944  0.08408769  1
  P  P10  1  0.66683990  0.04277150  0.08276988  1
  P  P11  1  0.37669820  0.33610588  0.08507307  1
  P  P12  1  0.62389450  0.66649410  0.91610388  1
  P  P13  1  0.04147655  0.37361091  0.91742169  1
  P  P14  1  0.33056012  0.95663580  0.91840707  1
  P  P15  1  0.62638909  0.95852344  0.41742169  1
  P  P16  1  0.33350590  0.37610550  0.41610388  1
  P  P17  1  0.04336420  0.66943988  0.41840707  1
  O  O0  1  0.20639758  0.03123916  0.30253842  1
  O  O1  1  0.81908734  0.79233376  0.30408988  1
  O  O2  1  0.97464751  0.18436910  0.30668896  1
  O  O3  1  0.20766624  0.18091266  0.80408988  1
  O  O4  1  0.96876084  0.79360242  0.80253842  1
  O  O5  1  0.81563090  0.02535249  0.80668896  1
  O  O6  1  0.79489899  0.96775503  0.69770863  1
  O  O7  1  0.17829172  0.20689747  0.69628229  1
  O  O8  1  0.02835733  0.82047017  0.69365699  1
  O  O9  1  0.79310253  0.82170828  0.19628229  1
  O  O10  1  0.03224497  0.20510101  0.19770863  1
  O  O11  1  0.17952983  0.97164267  0.19365699  1
  O  O12  1  0.87306458  0.36457216  0.63587142  1
  O  O13  1  0.48575434  0.12566676  0.63742288  1
  O  O14  1  0.64131451  0.51770210  0.64002196  1
  O  O15  1  0.87433324  0.51424566  0.13742288  1
  O  O16  1  0.63542784  0.12693542  0.13587142  1
  O  O17  1  0.48229790  0.35868549  0.14002196  1
  O  O18  1  0.46156599  0.30108803  0.03104163  1
  O  O19  1  0.84495872  0.54023047  0.02961529  1
  O  O20  1  0.69502433  0.15380317  0.02698999  1
  O  O21  1  0.45976953  0.15504128  0.52961529  1
  O  O22  1  0.69891197  0.53843401  0.53104163  1
  O  O23  1  0.84619683  0.30497567  0.52698999  1
  O  O24  1  0.53973058  0.69790616  0.96920542  1
  O  O25  1  0.15242034  0.45900076  0.97075688  1
  O  O26  1  0.30798051  0.85103610  0.97335596  1
  O  O27  1  0.54099924  0.84757966  0.47075688  1
  O  O28  1  0.30209384  0.46026942  0.46920542  1
  O  O29  1  0.14896390  0.69201949  0.47335596  1
  O  O30  1  0.12823199  0.63442203  0.36437563  1
  O  O31  1  0.51162472  0.87356447  0.36294929  1
  O  O32  1  0.36169033  0.48713717  0.36032399  1
  O  O33  1  0.12643553  0.48837528  0.86294929  1
  O  O34  1  0.36557797  0.87176801  0.86437563  1
  O  O35  1  0.51286283  0.63830967  0.86032399  1
  O  O36  1  0.02131583  0.82643213  0.41037711  1
  O  O37  1  0.81061025  0.98791701  0.41036697  1
  O  O38  1  0.16814704  0.19658636  0.40966373  1
  O  O39  1  0.01208299  0.18938975  0.91036697  1
  O  O40  1  0.17356787  0.97868417  0.91037711  1
  O  O41  1  0.80341364  0.83185296  0.90966373  1
  O  O42  1  0.97469652  0.17011521  0.58985967  1
  O  O43  1  0.18948131  0.01782677  0.59008651  1
  O  O44  1  0.83600340  0.80429107  0.59024254  1
  O  O45  1  0.98217323  0.81051869  0.09008651  1
  O  O46  1  0.82988479  0.02530348  0.08985967  1
  O  O47  1  0.19570893  0.16399660  0.09024254  1
  O  O48  1  0.68798283  0.15976513  0.74371011  1
  O  O49  1  0.47727725  0.32125001  0.74369997  1
  O  O50  1  0.83481404  0.52991936  0.74299673  1
  O  O51  1  0.67874999  0.52272275  0.24369997  1
  O  O52  1  0.84023487  0.31201717  0.24371011  1
  O  O53  1  0.47008064  0.16518596  0.24299673  1
  O  O54  1  0.64136352  0.50344821  0.92319267  1
  O  O55  1  0.85614831  0.35115977  0.92341951  1
  O  O56  1  0.50267040  0.13762407  0.92357554  1
  O  O57  1  0.64884023  0.14385169  0.42341951  1
  O  O58  1  0.49655179  0.35863648  0.42319267  1
  O  O59  1  0.86237593  0.49732960  0.42357554  1
  O  O60  1  0.35464883  0.49309913  0.07704411  1
  O  O61  1  0.14394325  0.65458401  0.07703397  1
  O  O62  1  0.50148004  0.86325336  0.07633073  1
  O  O63  1  0.34541599  0.85605675  0.57703397  1
  O  O64  1  0.50690087  0.64535117  0.57704411  1
  O  O65  1  0.13674664  0.49851996  0.57633073  1
  O  O66  1  0.30802952  0.83678221  0.25652667  1
  O  O67  1  0.52281431  0.68449377  0.25675351  1
  O  O68  1  0.16933640  0.47095807  0.25690954  1
  O  O69  1  0.31550623  0.47718569  0.75675351  1
  O  O70  1  0.16321779  0.69197048  0.75652667  1
  O  O71  1  0.52904193  0.83066360  0.75690954  1
loop_
_geom_bond_atom_site_label_1
_geom_bond_atom_site_label_2
_geom_bond_distance
_geom_bond_site_symmetry_2
Na0 O53 2.378754 1_555
Na0 O68 2.417554 1_555
Na0 O51 2.420636 1_555
Na0 O67 2.501184 1_555
Na0 O17 2.727826 1_555
Na0 O32 2.800431 1_555
Na0 O0 2.831443 1_555
Na0 O10 2.839132 1_555
Na1 O50 2.378754 1_555
Na1 O71 2.417554 1_555
Na1 O49 2.420636 1_555
Na1 O69 2.501184 1_555
Na1 O14 2.727826 1_555
Na1 O35 2.800431 1_555
Na1 O4 2.831443 1_555
Na1 O6 2.839132 1_555
Na2 O65 2.378737 1_555
Na2 O44 2.417554 1_455
Na2 O63 2.420628 1_555
Na2 O43 2.501184 1_565
Na2 O29 2.727800 1_555
Na2 O8 2.800431 1_555
Na2 O12 2.831443 1_455
Na2 O22 2.839132 1_455
Na3 O62 2.378737 1_555
Na3 O47 2.417554 1_565
Na3 O61 2.420627 1_555
Na3 O45 2.501184 1_455
Na3 O26 2.727800 1_554
Na3 O11 2.800431 1_555
Na3 O16 2.831443 1_565
Na3 O18 2.839132 1_565
Na4 O41 2.378754 1_545
Na4 O56 2.417537 1_555
Na4 O39 2.420636 1_655
Na4 O55 2.501174 1_555
Na4 O5 2.727826 1_555
Na4 O20 2.800405 1_556
Na4 O24 2.831443 1_545
Na4 O34 2.839132 1_545
Na5 O38 2.378754 1_655
Na5 O59 2.417537 1_555
Na5 O37 2.420636 1_545
Na5 O57 2.501174 1_555
Na5 O2 2.727826 1_555
Na5 O23 2.800405 1_555
Na5 O28 2.831443 1_655
Na5 O30 2.839132 1_655
Na6 O37 2.602965 1_555
Na6 O36 2.605054 1_655
Na6 O38 2.610442 1_665
Na6 O44 2.672255 1_555
Na6 O43 2.675423 1_665
Na6 O42 2.687725 1_565
Na7 O39 2.602965 1_555
Na7 O40 2.605054 1_545
Na7 O41 2.610442 1_445
Na7 O47 2.672255 1_556
Na7 O45 2.675423 1_446
Na7 O46 2.687725 1_456
Na8 O49 2.602965 1_555
Na8 O48 2.605054 1_555
Na8 O50 2.610442 1_555
Na8 O56 2.672255 1_555
Na8 O55 2.675423 1_555
Na8 O54 2.687725 1_555
Na9 O51 2.602965 1_555
Na9 O52 2.605054 1_555
Na9 O53 2.610442 1_555
Na9 O59 2.672255 1_555
Na9 O57 2.675423 1_555
Na9 O58 2.687725 1_555
Na10 O61 2.602965 1_555
Na10 O60 2.605054 1_555
Na10 O62 2.610442 1_555
Na10 O68 2.672255 1_555
Na10 O67 2.675423 1_555
Na10 O66 2.687725 1_555
Na11 O63 2.602965 1_555
Na11 O64 2.605054 1_555
Na11 O65 2.610442 1_555
Na11 O71 2.672255 1_555
Na11 O69 2.675423 1_555
Na11 O70 2.687725 1_555
Hf0 O7 2.020754 1_555
Hf0 O6 2.048827 1_445
Hf0 O42 2.076305 1_455
Hf0 O8 2.100667 1_545
Hf0 O43 2.109847 1_555
Hf0 O44 2.126459 1_445
Hf1 O9 2.020754 1_555
Hf1 O10 2.048827 1_665
Hf1 O46 2.076305 1_565
Hf1 O11 2.100667 1_655
Hf1 O45 2.109847 1_555
Hf1 O47 2.126459 1_665
Hf2 O19 2.020754 1_556
Hf2 O18 2.048827 1_556
Hf2 O54 2.076305 1_555
Hf2 O20 2.100667 1_556
Hf2 O55 2.109847 1_555
Hf2 O56 2.126459 1_555
Hf3 O21 2.020754 1_555
Hf3 O22 2.048827 1_555
Hf3 O58 2.076305 1_555
Hf3 O23 2.100667 1_555
Hf3 O57 2.109847 1_555
Hf3 O59 2.126459 1_555
Hf4 O31 2.020754 1_555
Hf4 O30 2.048827 1_555
Hf4 O66 2.076305 1_555
Hf4 O32 2.100667 1_555
Hf4 O67 2.109847 1_555
Hf4 O68 2.126459 1_555
Hf5 O33 2.020754 1_555
Hf5 O34 2.048827 1_555
Hf5 O70 2.076305 1_555
Hf5 O35 2.100667 1_555
Hf5 O69 2.109847 1_555
Hf5 O71 2.126459 1_555
O0 P0 1.534706 1_545
O0 Sc0 2.048718 1_445
O1 P1 1.520354 1_555
O1 Sc0 2.019352 1_555
O2 P2 1.531896 1_555
O2 Sc0 2.116066 1_545
O3 P3 1.520354 1_555
O3 Sc1 2.019352 1_555
O4 P4 1.534706 1_655
O4 Sc1 2.048718 1_665
O5 P5 1.531896 1_555
O5 Sc1 2.116066 1_655
O6 P5 1.569551 1_565
O7 P3 1.554823 1_555
O8 P4 1.565942 1_555
O9 P1 1.554823 1_555
O10 P2 1.569551 1_455
O11 P0 1.565942 1_555
O12 P6 1.534706 1_555
O12 Sc2 2.048718 1_555
O13 P7 1.520354 1_555
O13 Sc2 2.019352 1_555
O14 P8 1.531896 1_555
O14 Sc2 2.116066 1_555
O15 P9 1.520354 1_555
O15 Sc3 2.019352 1_555
O16 P10 1.534706 1_555
O16 Sc3 2.048718 1_555
O17 P11 1.531896 1_555
O17 Sc3 2.116066 1_555
O18 P11 1.569551 1_555
O19 P9 1.554823 1_555
O20 P10 1.565942 1_555
O21 P7 1.554823 1_555
O22 P8 1.569551 1_555
O23 P6 1.565942 1_555
O24 P12 1.534706 1_555
O24 Sc4 2.048718 1_556
O25 P13 1.520354 1_555
O25 Sc4 2.019352 1_556
O26 P14 1.531896 1_555
O26 Sc4 2.116066 1_556
O27 P15 1.520354 1_555
O27 Sc5 2.019352 1_555
O28 P16 1.534706 1_555
O28 Sc5 2.048718 1_555
O29 P17 1.531896 1_555
O29 Sc5 2.116066 1_555
O30 P17 1.569551 1_555
O31 P15 1.554823 1_555
O32 P16 1.565942 1_555
O33 P13 1.554823 1_555
O34 P14 1.569551 1_555
O35 P12 1.565942 1_555
O36 P17 1.528476 1_555
O36 Sc0 2.093050 1_455
O37 P15 1.542574 1_555
O37 Sc0 2.144995 1_555
O38 P16 1.544726 1_555
O38 Sc0 2.148194 1_445
O39 P13 1.542574 1_555
O39 Sc1 2.144995 1_555
O40 P14 1.528476 1_555
O40 Sc1 2.093050 1_565
O41 P12 1.544726 1_555
O41 Sc1 2.148194 1_665
O42 P6 1.555517 1_555
O43 P7 1.574345 1_555
O44 P8 1.576225 1_555
O45 P9 1.574345 1_555
O46 P10 1.555517 1_555
O47 P11 1.576225 1_555
O48 P5 1.528476 1_555
O48 Sc2 2.093050 1_555
O49 P3 1.542574 1_555
O49 Sc2 2.144995 1_555
O50 P4 1.544726 1_655
O50 Sc2 2.148194 1_555
O51 P1 1.542574 1_555
O51 Sc3 2.144995 1_555
O52 P2 1.528476 1_555
O52 Sc3 2.093050 1_555
O53 P0 1.544726 1_545
O53 Sc3 2.148194 1_555
O54 P12 1.555529 1_555
O55 P13 1.574331 1_655
O56 P14 1.576223 1_545
O57 P15 1.574331 1_545
O58 P16 1.555529 1_555
O59 P17 1.576223 1_655
O60 P11 1.528488 1_555
O60 Sc4 2.093050 1_555
O61 P9 1.542559 1_455
O61 Sc4 2.144995 1_555
O62 P10 1.544723 1_565
O62 Sc4 2.148194 1_555
O63 P7 1.542559 1_565
O63 Sc5 2.144995 1_555
O64 P8 1.528488 1_555
O64 Sc5 2.093050 1_555
O65 P6 1.544723 1_455
O65 Sc5 2.148194 1_555
O66 P0 1.555517 1_555
O67 P1 1.574345 1_555
O68 P2 1.576225 1_455
O69 P3 1.574345 1_555
O70 P4 1.555517 1_555
O71 P5 1.576225 1_565
