# generated using pymatgen
data_La4MgCoO8
_symmetry_space_group_name_H-M   'P 1'
_cell_length_a   4.67663685
_cell_length_b   9.35620579
_cell_length_c   9.35716233
_cell_angle_alpha   33.44637272
_cell_angle_beta   72.10552554
_cell_angle_gamma   72.11526417
_symmetry_Int_Tables_number   1
_chemical_formula_structural   La4MgCoO8
_chemical_formula_sum   'La4 Mg1 Co1 O8'
_cell_volume   213.73589830
_cell_formula_units_Z   1
loop_
 _symmetry_equiv_pos_site_id
 _symmetry_equiv_pos_as_xyz
  1  'x, y, z'
loop_
 _atom_site_type_symbol
 _atom_site_label
 _atom_site_symmetry_multiplicity
 _atom_site_fract_x
 _atom_site_fract_y
 _atom_site_fract_z
 _atom_site_occupancy
  La  La0  1  0.61677817  0.58296193  0.58267848  1
  La  La1  1  0.93533358  0.83024570  0.83069180  1
  La  La2  1  0.06608209  0.16988912  0.16923900  1
  La  La3  1  0.38372607  0.41691378  0.41721991  1
  Mg  Mg0  1  -0.00154591  0.00039217  0.00038773  1
  Co  Co0  1  0.49912153  -0.00023161  -0.00024083  1
  O  O0  1  0.80257827  0.69033057  0.21405039  1
  O  O1  1  0.80280632  0.21402513  0.69032823  1
  O  O2  1  0.37517517  0.88491349  0.88473030  1
  O  O3  1  0.62493694  0.11502662  0.11511275  1
  O  O4  1  0.19665878  0.30981957  0.78583455  1
  O  O5  1  -0.17799953  0.30253795  0.30186632  1
  O  O6  1  0.17993495  0.69724083  0.69831015  1
  O  O7  1  0.19641557  0.78593476  0.30979222  1
loop_
_geom_bond_atom_site_label_1
_geom_bond_atom_site_label_2
_geom_bond_distance
_geom_bond_site_symmetry_2
La0 O6 2.391266 1_555
La0 O0 2.563925 1_555
La0 O1 2.564825 1_555
La0 O4 2.585819 1_555
La0 O7 2.586638 1_555
La0 O3 2.755449 1_565
La0 O3 2.757627 1_556
La0 O7 2.879349 1_655
La0 O4 2.881518 1_655
La1 O6 2.284484 1_655
La1 O2 2.484854 1_555
La1 O0 2.502179 1_556
La1 O1 2.503115 1_565
La1 O2 2.542725 1_655
La1 O5 2.817976 1_656
La1 O5 2.824239 1_665
La2 O5 2.283208 1_555
La2 O3 2.479335 1_555
La2 O4 2.502833 1_554
La2 O7 2.503910 1_545
La2 O3 2.550032 1_455
La2 O6 2.816790 1_554
La2 O6 2.826145 1_545
La3 O5 2.394189 1_655
La3 O4 2.565696 1_555
La3 O7 2.567130 1_555
La3 O0 2.582382 1_555
La3 O1 2.583135 1_555
La3 O2 2.755265 1_545
La3 O2 2.758074 1_554
La3 O1 2.884510 1_455
La3 O0 2.886831 1_455
Mg0 O4 2.019009 1_554
Mg0 O7 2.019136 1_545
Mg0 O0 2.019874 1_445
Mg0 O1 2.019979 1_454
Mg0 O3 2.229889 1_455
Mg0 O2 2.247871 1_544
Co0 O4 1.988028 1_554
Co0 O7 1.988158 1_545
Co0 O0 1.988451 1_545
Co0 O1 1.988585 1_554
Co0 O2 2.312034 1_544
Co0 O3 2.323068 1_555
