# generated using pymatgen
data_CoF3
_symmetry_space_group_name_H-M   'P 1'
_cell_length_a   5.20949897
_cell_length_b   6.51021854
_cell_length_c   6.51319910
_cell_angle_alpha   71.37038363
_cell_angle_beta   89.98424818
_cell_angle_gamma   90.01245119
_symmetry_Int_Tables_number   1
_chemical_formula_structural   CoF3
_chemical_formula_sum   'Co4 F12'
_cell_volume   209.32083307
_cell_formula_units_Z   4
loop_
 _symmetry_equiv_pos_site_id
 _symmetry_equiv_pos_as_xyz
  1  'x, y, z'
loop_
 _atom_site_type_symbol
 _atom_site_label
 _atom_site_symmetry_multiplicity
 _atom_site_fract_x
 _atom_site_fract_y
 _atom_site_fract_z
 _atom_site_occupancy
  Co  Co0  1  0.00174083  0.49698925  0.49729310  1
  Co  Co1  1  0.50143039  0.75283215  0.75273170  1
  Co  Co2  1  0.00113279  0.00325033  0.00322818  1
  Co  Co3  1  0.50111120  0.24686528  0.24680893  1
  F  F0  1  0.31148904  0.90636099  0.90431714  1
  F  F1  1  0.67425297  0.08856323  0.08683257  1
  F  F2  1  0.30646858  0.41167948  0.41311134  1
  F  F3  1  0.70944729  0.59350542  0.59475035  1
  F  F4  1  0.81159709  0.34433652  0.34499699  1
  F  F5  1  0.20918753  0.65586722  0.65593427  1
  F  F6  1  0.80594224  0.83810385  0.83740779  1
  F  F7  1  0.17421208  0.16193284  0.16273594  1
  F  F8  1  0.49891877  0.00819196  0.49228945  1
  F  F9  1  0.99839164  0.24101514  0.75697249  1
  F  F10  1  0.49677444  0.49435942  0.01029489  1
  F  F11  1  0.99790310  0.75614491  0.24028887  1
loop_
_geom_bond_atom_site_label_1
_geom_bond_atom_site_label_2
_geom_bond_distance
_geom_bond_site_symmetry_2
Co0 F2 1.823081 1_555
Co0 F3 1.836045 1_455
Co0 F4 1.892804 1_455
Co0 F9 1.958879 1_455
Co0 F11 1.960763 1_455
Co0 F5 1.997075 1_555
Co1 F6 1.823340 1_555
Co1 F5 1.835259 1_555
Co1 F0 1.892951 1_555
Co1 F8 1.959512 1_565
Co1 F10 1.960297 1_556
Co1 F3 1.997687 1_555
Co2 F9 1.839176 1_454
Co2 F11 1.839909 1_445
Co2 F7 1.909274 1_555
Co2 F0 1.920010 1_544
Co2 F1 1.922997 1_455
Co2 F6 2.024437 1_444
Co3 F8 1.839451 1_555
Co3 F10 1.839534 1_555
Co3 F1 1.909789 1_555
Co3 F4 1.920227 1_555
Co3 F7 1.923348 1_555
Co3 F2 2.023634 1_555
