# generated using pymatgen
data_MgV4O8
_symmetry_space_group_name_H-M   'P 1'
_cell_length_a   5.91987614
_cell_length_b   5.98096986
_cell_length_c   5.99909167
_cell_angle_alpha   119.48603587
_cell_angle_beta   120.00818962
_cell_angle_gamma   89.58312061
_symmetry_Int_Tables_number   1
_chemical_formula_structural   MgV4O8
_chemical_formula_sum   'Mg1 V4 O8'
_cell_volume   151.85770471
_cell_formula_units_Z   1
loop_
 _symmetry_equiv_pos_site_id
 _symmetry_equiv_pos_as_xyz
  1  'x, y, z'
loop_
 _atom_site_type_symbol
 _atom_site_label
 _atom_site_symmetry_multiplicity
 _atom_site_fract_x
 _atom_site_fract_y
 _atom_site_fract_z
 _atom_site_occupancy
  Mg  Mg0  1  0.50000500  0.00007400  0.49998800  1
  V  V0  1  0.49999300  0.49982200  0.00008100  1
  V  V1  1  0.00000000  0.99997000  0.49994700  1
  V  V2  1  0.99976000  0.50021300  0.00003400  1
  V  V3  1  0.00005800  0.50001400  0.49998900  1
  O  O0  1  0.75565100  0.71311500  0.01493500  1
  O  O1  1  0.21763900  0.74101100  0.45989600  1
  O  O2  1  0.24441400  0.28680200  0.98508600  1
  O  O3  1  0.24139400  0.71814200  0.98587900  1
  O  O4  1  0.78241000  0.25898800  0.54006400  1
  O  O5  1  0.25409800  0.26070500  0.53873200  1
  O  O6  1  0.74593300  0.73925200  0.46123600  1
  O  O7  1  0.75865200  0.28190000  0.01413900  1
loop_
_geom_bond_atom_site_label_1
_geom_bond_atom_site_label_2
_geom_bond_distance
_geom_bond_site_symmetry_2
Mg0 O4 2.126003 1_555
Mg0 O1 2.126377 1_545
Mg0 O5 2.133514 1_555
Mg0 O6 2.134378 1_545
Mg0 O3 2.212332 1_544
Mg0 O7 2.212450 1_556
O0 V0 1.925412 1_555
O0 V2 1.925647 1_555
O0 V1 2.100934 1_655
O1 V2 1.976139 1_455
O1 V1 2.007690 1_555
O1 V3 2.114884 1_555
O2 V0 1.923430 1_556
O2 V2 1.930082 1_456
O2 V1 2.101402 1_545
O3 V0 2.001456 1_556
O3 V2 2.002471 1_456
O3 V3 2.087542 1_555
O4 V2 1.976848 1_556
O4 V1 2.007762 1_645
O4 V3 2.115198 1_655
O5 V0 1.981987 1_556
O5 V1 2.018807 1_545
O5 V3 2.076258 1_555
O6 V0 1.981289 1_555
O6 V1 2.018889 1_655
O6 V3 2.076284 1_655
O7 V0 2.000147 1_555
O7 V2 2.001508 1_555
O7 V3 2.087364 1_655
