# generated using pymatgen
data_Nd2MgCuO4
_symmetry_space_group_name_H-M   'P 1'
_cell_length_a   4.08626930
_cell_length_b   4.08626930
_cell_length_c   9.27348416
_cell_angle_alpha   102.47126746
_cell_angle_beta   102.47126746
_cell_angle_gamma   90.01482735
_symmetry_Int_Tables_number   1
_chemical_formula_structural   Nd2MgCuO4
_chemical_formula_sum   'Nd2 Mg1 Cu1 O4'
_cell_volume   147.44511454
_cell_formula_units_Z   1
loop_
 _symmetry_equiv_pos_site_id
 _symmetry_equiv_pos_as_xyz
  1  'x, y, z'
loop_
 _atom_site_type_symbol
 _atom_site_label
 _atom_site_symmetry_multiplicity
 _atom_site_fract_x
 _atom_site_fract_y
 _atom_site_fract_z
 _atom_site_occupancy
  Nd  Nd0  1  0.68894500  0.68894500  0.37474100  1
  Nd  Nd1  1  0.31105500  0.31105500  0.62525900  1
  Mg  Mg0  1  0.50000000  0.50000000  0.00000000  1
  Cu  Cu0  1  0.00000000  0.00000000  0.00000000  1
  O  O0  1  0.50000000  0.00000000  0.00000000  1
  O  O1  1  0.74826200  0.25173800  0.50000000  1
  O  O2  1  0.00000000  0.50000000  0.00000000  1
  O  O3  1  0.25173800  0.74826200  0.50000000  1
loop_
_geom_bond_atom_site_label_1
_geom_bond_atom_site_label_2
_geom_bond_distance
_geom_bond_site_symmetry_2
Nd0 O3 2.318339 1_555
Nd0 O1 2.318339 1_555
Nd0 O1 2.328331 1_565
Nd0 O3 2.328331 1_655
Nd1 O1 2.318339 1_555
Nd1 O3 2.318339 1_555
Nd1 O3 2.328331 1_545
Nd1 O1 2.328331 1_455
Mg0 O2 2.043135 1_555
Mg0 O2 2.043135 1_655
Mg0 O0 2.043135 1_555
Mg0 O0 2.043135 1_565
Cu0 O2 2.043135 1_555
Cu0 O0 2.043135 1_455
Cu0 O0 2.043135 1_555
Cu0 O2 2.043135 1_545
