# generated using pymatgen
data_Sn2OF5
_symmetry_space_group_name_H-M   'P 1'
_cell_length_a   5.68321393
_cell_length_b   5.68321322
_cell_length_c   8.21195456
_cell_angle_alpha   98.82538571
_cell_angle_beta   109.04696777
_cell_angle_gamma   107.86416496
_symmetry_Int_Tables_number   1
_chemical_formula_structural   Sn2OF5
_chemical_formula_sum   'Sn4 O2 F10'
_cell_volume   228.95681026
_cell_formula_units_Z   2
loop_
 _symmetry_equiv_pos_site_id
 _symmetry_equiv_pos_as_xyz
  1  'x, y, z'
loop_
 _atom_site_type_symbol
 _atom_site_label
 _atom_site_symmetry_multiplicity
 _atom_site_fract_x
 _atom_site_fract_y
 _atom_site_fract_z
 _atom_site_occupancy
  Sn  Sn0  1  0.50000000  0.50000000  0.00000000  1
  Sn  Sn1  1  0.00000000  0.50000000  0.50000000  1
  Sn  Sn2  1  0.29586060  0.02755045  0.32341205  1
  Sn  Sn3  1  0.70413940  0.97244955  0.67658795  1
  O  O0  1  0.69489127  0.19489127  0.50000000  1
  O  O1  1  0.30510873  0.80510873  0.50000000  1
  F  F0  1  0.34909096  0.79760459  0.14669555  1
  F  F1  1  0.65090904  0.20239541  0.85330445  1
  F  F2  1  0.77536461  0.72284034  0.49820595  1
  F  F3  1  0.22463539  0.27715966  0.50179405  1
  F  F4  1  0.15777201  0.60472203  0.76249304  1
  F  F5  1  0.84222799  0.39527797  0.23750696  1
  F  F6  1  0.67793178  0.70354837  0.80090895  1
  F  F7  1  0.90264042  0.87702284  0.19909105  1
  F  F8  1  0.32206822  0.29645163  0.19909105  1
  F  F9  1  0.09735958  0.12297716  0.80090895  1
loop_
_geom_bond_atom_site_label_1
_geom_bond_atom_site_label_2
_geom_bond_distance
_geom_bond_site_symmetry_2
O0 Sn1 2.041761 1_655
O0 Sn3 2.063334 1_545
O0 Sn2 2.063339 1_555
O1 Sn1 2.041761 1_555
O1 Sn2 2.063334 1_565
O1 Sn3 2.063339 1_555
F0 Sn2 1.962763 1_565
F0 Sn0 2.446738 1_555
F1 Sn3 1.962763 1_545
F1 Sn0 2.446738 1_556
F2 Sn1 2.054106 1_655
F2 Sn3 2.103268 1_555
F3 Sn1 2.054106 1_555
F3 Sn2 2.103268 1_555
F4 Sn1 1.955031 1_555
F4 Sn0 2.555692 1_556
F5 Sn1 1.955031 1_655
F5 Sn0 2.555692 1_555
F6 Sn3 1.959148 1_555
F6 Sn0 2.444480 1_556
F7 Sn2 1.959139 1_665
F7 Sn0 2.444483 1_555
F8 Sn2 1.959148 1_555
F8 Sn0 2.444480 1_555
F9 Sn3 1.959139 1_445
F9 Sn0 2.444483 1_556
