# generated using pymatgen
data_Lu4MgTi2O10
_symmetry_space_group_name_H-M   'P 1'
_cell_length_a   4.04642434
_cell_length_b   5.77524777
_cell_length_c   10.53012101
_cell_angle_alpha   90.00347343
_cell_angle_beta   90.00041249
_cell_angle_gamma   69.44507402
_symmetry_Int_Tables_number   1
_chemical_formula_structural   Lu4MgTi2O10
_chemical_formula_sum   'Lu4 Mg1 Ti2 O10'
_cell_volume   230.41308832
_cell_formula_units_Z   1
loop_
 _symmetry_equiv_pos_site_id
 _symmetry_equiv_pos_as_xyz
  1  'x, y, z'
loop_
 _atom_site_type_symbol
 _atom_site_label
 _atom_site_symmetry_multiplicity
 _atom_site_fract_x
 _atom_site_fract_y
 _atom_site_fract_z
 _atom_site_occupancy
  Lu  Lu0  1  0.13660700  0.72622800  0.92807300  1
  Lu  Lu1  1  0.13660000  0.72622300  0.57193700  1
  Lu  Lu2  1  0.85585400  0.28994000  0.05771500  1
  Lu  Lu3  1  0.85585000  0.28992800  0.44227500  1
  Mg  Mg0  1  0.53543900  0.94721300  0.24995600  1
  Ti  Ti0  1  0.21236100  0.57723900  0.25003200  1
  Ti  Ti1  1  0.81788000  0.36466000  0.74999400  1
  O  O0  1  0.03983400  0.90875700  0.37474100  1
  O  O1  1  0.03985200  0.90880200  0.12526900  1
  O  O2  1  0.69965000  0.60064700  0.91041100  1
  O  O3  1  0.69963800  0.60063900  0.58962500  1
  O  O4  1  0.26119000  0.47797100  0.75000300  1
  O  O5  1  0.71661200  0.56762700  0.25000200  1
  O  O6  1  0.29202600  0.41758200  0.07318000  1
  O  O7  1  0.29199100  0.41762500  0.42679400  1
  O  O8  1  0.94596100  0.11032500  0.62337400  1
  O  O9  1  0.94598700  0.11026200  0.87661700  1
loop_
_geom_bond_atom_site_label_1
_geom_bond_atom_site_label_2
_geom_bond_distance
_geom_bond_site_symmetry_2
Lu0 O2 2.141792 1_455
Lu0 O2 2.142655 1_555
Lu0 O9 2.146260 1_465
Lu0 O6 2.262905 1_556
Lu0 O1 2.299298 1_556
Lu0 O4 2.306058 1_555
Lu1 O3 2.141856 1_455
Lu1 O3 2.142664 1_555
Lu1 O8 2.146500 1_465
Lu1 O7 2.262830 1_555
Lu1 O0 2.299316 1_555
Lu1 O4 2.306143 1_555
Lu2 O9 2.140188 1_554
Lu2 O6 2.143387 1_555
Lu2 O6 2.144417 1_655
Lu2 O1 2.180563 1_645
Lu2 O2 2.286767 1_554
Lu2 O5 2.520774 1_555
Lu3 O8 2.140121 1_555
Lu3 O7 2.143513 1_555
Lu3 O7 2.144521 1_655
Lu3 O0 2.180581 1_645
Lu3 O3 2.286970 1_555
Lu3 O5 2.520844 1_555
Mg0 O5 2.052965 1_555
Mg0 O1 2.370890 1_655
Mg0 O0 2.371346 1_655
Mg0 O1 2.471205 1_555
Mg0 O0 2.471942 1_555
O0 Ti0 2.222313 1_555
O1 Ti0 2.222975 1_555
O2 Ti1 2.116988 1_555
O3 Ti1 2.116685 1_555
O4 Ti1 2.113607 1_555
O4 Ti1 2.114317 1_455
O5 Ti0 2.021591 1_555
O5 Ti0 2.026168 1_655
O6 Ti0 2.052620 1_555
O7 Ti0 2.051759 1_555
O8 Ti1 1.915484 1_555
O9 Ti1 1.915869 1_555
