# generated using pymatgen
data_MgMnV3O8
_symmetry_space_group_name_H-M   'P 1'
_cell_length_a   5.60277389
_cell_length_b   7.08575311
_cell_length_c   5.40545832
_cell_angle_alpha   91.28369069
_cell_angle_beta   90.14357034
_cell_angle_gamma   87.42087584
_symmetry_Int_Tables_number   1
_chemical_formula_structural   MgMnV3O8
_chemical_formula_sum   'Mg1 Mn1 V3 O8'
_cell_volume   214.32458294
_cell_formula_units_Z   1
loop_
 _symmetry_equiv_pos_site_id
 _symmetry_equiv_pos_as_xyz
  1  'x, y, z'
loop_
 _atom_site_type_symbol
 _atom_site_label
 _atom_site_symmetry_multiplicity
 _atom_site_fract_x
 _atom_site_fract_y
 _atom_site_fract_z
 _atom_site_occupancy
  Mg  Mg0  1  0.91768600  0.37345000  0.50556900  1
  Mn  Mn0  1  0.90160000  0.87187800  0.49018800  1
  V  V0  1  0.08010900  0.10740200  0.00946300  1
  V  V1  1  0.41455000  0.64131100  0.49848600  1
  V  V2  1  0.58205900  0.37688500  0.99914600  1
  O  O0  1  0.99760800  0.12586200  0.33623900  1
  O  O1  1  0.09856500  0.60626500  0.45091900  1
  O  O2  1  0.39311900  0.18285800  0.97544700  1
  O  O3  1  0.51554500  0.57879500  0.81827700  1
  O  O4  1  0.60797200  0.44499000  0.33633700  1
  O  O5  1  0.54551100  0.84723500  0.42777600  1
  O  O6  1  0.88333400  0.30311400  0.86164500  1
  O  O7  1  0.01025800  0.90661900  0.84932400  1
loop_
_geom_bond_atom_site_label_1
_geom_bond_atom_site_label_2
_geom_bond_distance
_geom_bond_site_symmetry_2
Mg0 O0 1.993850 1_555
Mg0 O1 2.002373 1_655
Mg0 O4 2.009615 1_555
Mg0 O6 2.010865 1_555
Mn0 O5 2.037158 1_555
Mn0 O7 2.045971 1_655
Mn0 O0 2.092157 1_565
Mn0 O1 2.145090 1_655
O0 V0 1.827333 1_655
O1 V1 1.815624 1_555
O2 V2 1.774706 1_555
O2 V0 1.866984 1_556
O3 V2 1.776079 1_555
O3 V1 1.873867 1_555
O4 V2 1.881930 1_554
O4 V1 1.921511 1_555
O5 V1 1.713555 1_555
O6 V2 1.893252 1_555
O6 V0 1.919550 1_656
O7 V0 1.708734 1_566
