# generated using pymatgen
data_Ga3Pt2
_symmetry_space_group_name_H-M   'P 1'
_cell_length_a   4.24388408
_cell_length_b   4.24388458
_cell_length_c   5.24719751
_cell_angle_alpha   90.00000000
_cell_angle_beta   90.00000000
_cell_angle_gamma   120.00000403
_symmetry_Int_Tables_number   1
_chemical_formula_structural   Ga3Pt2
_chemical_formula_sum   'Ga3 Pt2'
_cell_volume   81.84367138
_cell_formula_units_Z   1
loop_
 _symmetry_equiv_pos_site_id
 _symmetry_equiv_pos_as_xyz
  1  'x, y, z'
loop_
 _atom_site_type_symbol
 _atom_site_label
 _atom_site_symmetry_multiplicity
 _atom_site_fract_x
 _atom_site_fract_y
 _atom_site_fract_z
 _atom_site_occupancy
  Ga  Ga0  1  -0.00000000  -0.00000000  0.00000000  1
  Ga  Ga1  1  0.33333300  0.66666700  0.64393748  1
  Ga  Ga2  1  0.66666700  0.33333300  0.35606252  1
  Pt  Pt0  1  0.33333300  0.66666700  0.16642144  1
  Pt  Pt1  1  0.66666700  0.33333300  0.83357856  1
loop_
_geom_bond_atom_site_label_1
_geom_bond_atom_site_label_2
_geom_bond_distance
_geom_bond_site_symmetry_2
Ga0 Pt1 2.601166 1_454
Ga0 Pt0 2.601166 1_545
Ga0 Pt0 2.601169 1_445
Ga0 Pt1 2.601169 1_554
Ga0 Pt0 2.601170 1_555
Ga0 Pt1 2.601170 1_444
Ga1 Pt0 2.505621 1_555
Ga1 Pt1 2.644560 1_455
Ga1 Pt1 2.644560 1_565
Ga1 Pt1 2.644567 1_555
Ga1 Pt0 2.741577 1_556
Ga2 Pt1 2.505621 1_555
Ga2 Pt0 2.644560 1_655
Ga2 Pt0 2.644560 1_545
Ga2 Pt0 2.644567 1_555
Ga2 Pt1 2.741577 1_554
