# generated using pymatgen
data_Sr2NbInO6
_symmetry_space_group_name_H-M   'P 1'
_cell_length_a   5.85139400
_cell_length_b   5.79715100
_cell_length_c   10.05942299
_cell_angle_alpha   54.73701641
_cell_angle_beta   90.00000000
_cell_angle_gamma   90.00000000
_symmetry_Int_Tables_number   1
_chemical_formula_structural   Sr2NbInO6
_chemical_formula_sum   'Sr4 Nb2 In2 O12'
_cell_volume   278.61784666
_cell_formula_units_Z   2
loop_
 _symmetry_equiv_pos_site_id
 _symmetry_equiv_pos_as_xyz
  1  'x, y, z'
loop_
 _atom_site_type_symbol
 _atom_site_label
 _atom_site_symmetry_multiplicity
 _atom_site_fract_x
 _atom_site_fract_y
 _atom_site_fract_z
 _atom_site_occupancy
  Sr  Sr0  1  0.03405300  0.24191800  0.25080800  1
  Sr  Sr1  1  0.53405300  0.75808200  0.24919200  1
  Sr  Sr2  1  0.46594700  0.24191800  0.75080800  1
  Sr  Sr3  1  0.96594700  0.75808200  0.74919200  1
  Nb  Nb0  1  0.50000000  0.50000000  0.00000000  1
  Nb  Nb1  1  0.00000000  0.50000000  0.50000000  1
  In  In0  1  0.50000000  0.00000000  0.50000000  1
  In  In1  1  0.00000000  0.00000000  0.00000000  1
  O  O0  1  0.51938100  0.66405100  0.76034000  1
  O  O1  1  0.01938100  0.33594900  0.73966000  1
  O  O2  1  0.48061900  0.33594900  0.23966000  1
  O  O3  1  0.98061900  0.66405100  0.26034000  1
  O  O4  1  0.79541500  0.81396400  0.46170800  1
  O  O5  1  0.29541500  0.18603600  0.03829200  1
  O  O6  1  0.20458500  0.18603600  0.53829200  1
  O  O7  1  0.70458500  0.81396400  0.96170800  1
  O  O8  1  0.22406500  0.74406400  0.95862100  1
  O  O9  1  0.72406500  0.25593600  0.54137900  1
  O  O10  1  0.77593500  0.25593600  0.04137900  1
  O  O11  1  0.27593500  0.74406400  0.45862100  1
loop_
_geom_bond_atom_site_label_1
_geom_bond_atom_site_label_2
_geom_bond_distance
_geom_bond_site_symmetry_2
Nb0 O0 2.020419 1_554
Nb0 O2 2.020419 1_555
Nb0 O7 2.021057 1_554
Nb0 O5 2.021057 1_555
Nb0 O10 2.025354 1_555
Nb0 O8 2.025354 1_554
Nb1 O3 2.020419 1_455
Nb1 O1 2.020419 1_555
Nb1 O4 2.021057 1_455
Nb1 O6 2.021057 1_555
Nb1 O11 2.025354 1_555
Nb1 O9 2.025354 1_455
In0 O2 2.185196 1_555
In0 O0 2.185196 1_545
In0 O6 2.186136 1_555
In0 O4 2.186136 1_545
In0 O9 2.192418 1_555
In0 O11 2.192418 1_545
In1 O1 2.185196 1_554
In1 O3 2.185196 1_445
In1 O5 2.186136 1_555
In1 O7 2.186136 1_444
In1 O8 2.192418 1_544
In1 O10 2.192418 1_455
O0 Sr2 2.523198 1_555
O0 Sr3 2.658399 1_555
O1 Sr3 2.523198 1_455
O1 Sr2 2.658399 1_555
O2 Sr1 2.523198 1_555
O2 Sr0 2.658399 1_555
O3 Sr0 2.523198 1_655
O3 Sr1 2.658399 1_555
O4 Sr0 2.555054 1_665
O4 Sr1 2.795282 1_555
O4 Sr3 2.895189 1_555
O5 Sr1 2.555054 1_545
O5 Sr0 2.795282 1_555
O5 Sr2 2.895189 1_554
O6 Sr3 2.555054 1_445
O6 Sr2 2.795282 1_555
O6 Sr0 2.895189 1_555
O7 Sr2 2.555054 1_565
O7 Sr3 2.795282 1_555
O7 Sr1 2.895189 1_556
O8 Sr3 2.555076 1_455
O8 Sr2 2.781465 1_565
O8 Sr0 2.910297 1_556
O9 Sr2 2.555076 1_555
O9 Sr3 2.781465 1_545
O9 Sr1 2.910297 1_555
O10 Sr0 2.555076 1_655
O10 Sr1 2.781465 1_545
O10 Sr3 2.910297 1_554
O11 Sr1 2.555076 1_555
O11 Sr0 2.781465 1_565
O11 Sr2 2.910297 1_555
