# generated using pymatgen
data_Na30Ca20Nb4Si9(S3O16)9
_symmetry_space_group_name_H-M   'P 1'
_cell_length_a   18.72722542
_cell_length_b   9.37775315
_cell_length_c   23.32610045
_cell_angle_alpha   89.98387669
_cell_angle_beta   90.15111700
_cell_angle_gamma   120.11937586
_symmetry_Int_Tables_number   1
_chemical_formula_structural   Na30Ca20Nb4Si9(S3O16)9
_chemical_formula_sum   'Na30 Ca20 Nb4 Si9 S27 O144'
_cell_volume   3543.39450283
_cell_formula_units_Z   1
loop_
 _symmetry_equiv_pos_site_id
 _symmetry_equiv_pos_as_xyz
  1  'x, y, z'
loop_
 _atom_site_type_symbol
 _atom_site_label
 _atom_site_symmetry_multiplicity
 _atom_site_fract_x
 _atom_site_fract_y
 _atom_site_fract_z
 _atom_site_occupancy
  Na  Na0  1  0.80920852  0.00370749  0.23484359  1
  Na  Na1  1  0.00231185  0.63251048  0.23806338  1
  Na  Na2  1  0.50196550  0.62903183  0.23539575  1
  Na  Na3  1  0.00181448  0.37046859  0.73361557  1
  Na  Na4  1  0.50066848  0.37280878  0.73530875  1
  Na  Na5  1  0.18125951  0.01169356  0.75094795  1
  Na  Na6  1  0.66147749  0.34694611  0.58424810  1
  Na  Na7  1  0.66983520  0.97502023  0.08922353  1
  Na  Na8  1  0.83559483  0.68598796  0.07800015  1
  Na  Na9  1  0.00734540  0.34027349  0.08418257  1
  Na  Na10  1  0.48164742  0.65962834  0.92944670  1
  Na  Na11  1  0.84957765  0.03566557  0.92971978  1
  Na  Na12  1  0.16436840  0.29647068  0.90794461  1
  Na  Na13  1  0.66417909  0.30039814  0.90556519  1
  Na  Na14  1  0.48051944  0.30212020  0.42892991  1
  Na  Na15  1  0.98627696  0.30655254  0.43070664  1
  Na  Na16  1  0.16478269  0.02945690  0.40624104  1
  Na  Na17  1  0.66352458  0.02878841  0.40639790  1
  Na  Na18  1  0.98938263  0.98922667  0.50257533  1
  Na  Na19  1  0.47567193  0.96450478  0.50109469  1
  Na  Na20  1  0.00196902  0.96919806  0.99928252  1
  Na  Na21  1  0.47633799  0.98818282  0.00321891  1
  Na  Na22  1  0.32271468  0.33642508  0.82811303  1
  Na  Na23  1  0.82253595  0.34832717  0.82303075  1
  Na  Na24  1  0.31086057  0.30741156  0.32430914  1
  Na  Na25  1  0.81511499  0.32966854  0.32731278  1
  Na  Na26  1  0.16990996  0.70513655  0.16323330  1
  Na  Na27  1  0.65764264  0.66878442  0.16029496  1
  Na  Na28  1  0.16284816  0.62600327  0.66005051  1
  Na  Na29  1  0.66227161  0.65380788  0.66462200  1
  Ca  Ca0  1  0.00392305  0.99985304  0.34978683  1
  Ca  Ca1  1  0.49898350  0.99852163  0.34914968  1
  Ca  Ca2  1  0.00156318  0.99322544  0.84975813  1
  Ca  Ca3  1  0.50025439  0.00311097  0.84786664  1
  Ca  Ca4  1  0.33385063  0.34174505  0.67851377  1
  Ca  Ca5  1  0.83200404  0.33289516  0.68218998  1
  Ca  Ca6  1  0.32961584  0.32605213  0.18121977  1
  Ca  Ca7  1  0.82972627  0.32674520  0.18151726  1
  Ca  Ca8  1  0.33832352  0.33443007  0.99247532  1
  Ca  Ca9  1  0.84331658  0.34532996  0.99016102  1
  Ca  Ca10  1  0.33692247  0.33909834  0.49206866  1
  Ca  Ca11  1  0.84090119  0.33904021  0.49083276  1
  Ca  Ca12  1  0.16793459  0.67722577  0.01748885  1
  Ca  Ca13  1  0.66100126  0.66444927  0.02038891  1
  Ca  Ca14  1  0.16555718  0.66085715  0.52084235  1
  Ca  Ca15  1  0.66562901  0.66744330  0.51923076  1
  Ca  Ca16  1  0.17170593  0.67677683  0.31021249  1
  Ca  Ca17  1  0.66690623  0.66358320  0.31203778  1
  Ca  Ca18  1  0.16933474  0.66000428  0.81210620  1
  Ca  Ca19  1  0.66883707  0.66362959  0.80831264  1
  Nb  Nb0  1  0.00483860  0.01611125  0.64904322  1
  Nb  Nb1  1  0.50258478  0.01101301  0.65063220  1
  Nb  Nb2  1  0.00866339  0.00011454  0.14883984  1
  Nb  Nb3  1  0.50293474  0.99426743  0.15174125  1
  Si  Si0  1  0.15263629  0.00073436  0.25512078  1
  Si  Si1  1  0.65089519  0.99966515  0.25530830  1
  Si  Si2  1  0.15138963  0.29909617  0.75384641  1
  Si  Si3  1  0.65186828  0.30433400  0.75414260  1
  Si  Si4  1  0.48914702  0.33899835  0.58610033  1
  Si  Si5  1  0.98851736  0.33992863  0.58605371  1
  Si  Si6  1  0.48599287  0.63885235  0.08661624  1
  Si  Si7  1  0.98612786  0.63603720  0.09060420  1
  Si  Si8  1  0.83757074  0.02445591  0.08506227  1
  S  S0  1  0.35456521  0.70921453  0.24674042  1
  S  S1  1  0.85600108  0.71437277  0.24622931  1
  S  S2  1  0.00020420  0.29388245  0.24939624  1
  S  S3  1  0.50011579  0.29460817  0.24919696  1
  S  S4  1  0.00156532  0.70789286  0.74738019  1
  S  S5  1  0.49951464  0.70578841  0.74959574  1
  S  S6  1  0.35304536  0.99955641  0.74614304  1
  S  S7  1  0.85623337  -0.00030777  0.74849597  1
  S  S8  1  0.17485141  0.02695315  0.58647813  1
  S  S9  1  0.67547347  0.03114065  0.58474342  1
  S  S10  1  0.33983386  0.65194764  0.58621582  1
  S  S11  1  0.83881841  0.64699206  0.58556520  1
  S  S12  1  0.34015540  0.02956896  0.08687205  1
  S  S13  1  0.17789153  0.32673779  0.08304510  1
  S  S14  1  0.67529100  0.31943770  0.08353059  1
  S  S15  1  0.31709663  0.65976991  0.91748599  1
  S  S16  1  0.81384697  0.66280628  0.91849876  1
  S  S17  1  0.01494084  0.36202385  0.91579637  1
  S  S18  1  0.51594183  0.36815435  0.91409738  1
  S  S19  1  0.16923020  0.97667718  0.91445758  1
  S  S20  1  0.66702847  0.96837133  0.91733431  1
  S  S21  1  0.31605849  0.97253049  0.41824306  1
  S  S22  1  0.81609745  0.97264859  0.41506391  1
  S  S23  1  0.16633162  0.36527944  0.41628908  1
  S  S24  1  0.66616332  0.36240483  0.41893422  1
  S  S25  1  0.01698399  0.66294956  0.41490068  1
  S  S26  1  0.51608420  0.66388166  0.41503085  1
  O  O0  1  0.11281957  0.00572340  0.31611893  1
  O  O1  1  0.60815020  0.00446471  0.31438111  1
  O  O2  1  0.39969699  0.78995277  0.29937642  1
  O  O3  1  0.90323135  0.79543754  0.29767241  1
  O  O4  1  0.49459564  0.21190242  0.30421841  1
  O  O5  1  0.99191307  0.19962625  0.30188307  1
  O  O6  1  0.11048394  0.20057489  0.81263626  1
  O  O7  1  0.61012234  0.21442286  0.81392585  1
  O  O8  1  0.49377176  0.77705663  0.80448334  1
  O  O9  1  0.99102177  0.77829461  0.80059216  1
  O  O10  1  0.39817070  0.01081862  0.79877971  1
  O  O11  1  0.89781148  0.00726155  0.80307744  1
  O  O12  1  0.39990490  0.98430412  0.69547022  1
  O  O13  1  0.90676280  0.98766483  0.69928962  1
  O  O14  1  0.08406125  0.16684777  0.69913329  1
  O  O15  1  0.58224924  0.16497170  0.69961188  1
  O  O16  1  0.00269046  0.80748971  0.69692442  1
  O  O17  1  0.49825895  0.80850233  0.70041647  1
  O  O18  1  0.40494620  0.82128954  0.19624345  1
  O  O19  1  0.90173765  0.81624953  0.19371375  1
  O  O20  1  0.00238914  0.20035177  0.19741615  1
  O  O21  1  0.49999899  0.18909876  0.20024067  1
  O  O22  1  0.08417223  0.00455238  0.20272600  1
  O  O23  1  0.58586116  0.00007484  0.19892724  1
  O  O24  1  0.44499816  0.35143925  0.64307306  1
  O  O25  1  0.94132477  0.34575415  0.64243477  1
  O  O26  1  0.22301618  0.10940839  0.63817194  1
  O  O27  1  0.72646474  0.11897005  0.63380607  1
  O  O28  1  0.32583226  0.54709643  0.63610787  1
  O  O29  1  0.82225738  0.53500780  0.63420971  1
  O  O30  1  0.44150228  0.53648213  0.14299597  1
  O  O31  1  0.94632902  0.53755561  0.14913187  1
  O  O32  1  0.32693409  0.10892995  0.13560786  1
  O  O33  1  0.81272924  0.10394791  0.13781891  1
  O  O34  1  0.22924286  0.34621193  0.13189465  1
  O  O35  1  0.72890071  0.34389985  0.13276205  1
  O  O36  1  0.20793161  0.29305264  0.02883252  1
  O  O37  1  0.70674636  0.28034411  0.03072594  1
  O  O38  1  0.43740206  0.57749085  0.02578241  1
  O  O39  1  0.91947065  0.57531140  0.03825668  1
  O  O40  1  0.35421138  0.12287761  0.03271550  1
  O  O41  1  0.86124435  0.13938318  0.02720497  1
  O  O42  1  0.20874851  0.12883825  0.53442937  1
  O  O43  1  0.70647096  0.13114264  0.53128045  1
  O  O44  1  0.35393708  0.58321272  0.53333494  1
  O  O45  1  0.85309673  0.57939917  0.53237881  1
  O  O46  1  0.43911722  0.30220341  0.52601156  1
  O  O47  1  0.93851786  0.29819853  0.52548599  1
  O  O48  1  0.27656610  0.67293478  0.96928394  1
  O  O49  1  0.77529869  0.67563216  0.97229207  1
  O  O50  1  0.06320234  0.44667278  0.96785542  1
  O  O51  1  0.56902375  0.45487663  0.96378012  1
  O  O52  1  0.16777687  0.87857022  0.96390633  1
  O  O53  1  0.66236190  0.87987496  0.97114839  1
  O  O54  1  0.27640473  0.87784806  0.47001905  1
  O  O55  1  0.77329889  0.87274163  0.46550322  1
  O  O56  1  0.16256971  0.45329341  0.46740902  1
  O  O57  1  0.66380810  0.44553566  0.47248418  1
  O  O58  1  0.07012370  0.68000762  0.46435725  1
  O  O59  1  0.57047306  0.68323867  0.46418132  1
  O  O60  1  0.05473685  0.64709056  0.36107382  1
  O  O61  1  0.55427011  0.64773953  0.36122055  1
  O  O62  1  0.26995686  0.88785086  0.36578830  1
  O  O63  1  0.77164131  0.89054414  0.36113316  1
  O  O64  1  0.17274534  0.45595920  0.36329844  1
  O  O65  1  0.67270050  0.46079345  0.36793062  1
  O  O66  1  0.05727562  0.45479653  0.86357984  1
  O  O67  1  0.55455531  0.46139483  0.86060115  1
  O  O68  1  0.17200841  0.89993063  0.85920083  1
  O  O69  1  0.67495589  0.88160201  0.86728818  1
  O  O70  1  0.27034218  0.65226890  0.86520209  1
  O  O71  1  0.76281379  0.65190184  0.86824270  1
  O  O72  1  0.00771332  0.81235815  0.41512438  1
  O  O73  1  0.50758429  0.81410299  0.41477589  1
  O  O74  1  0.40366397  0.00625884  0.41647108  1
  O  O75  1  0.90317286  0.00680416  0.41468788  1
  O  O76  1  0.08648648  0.19946232  0.41701000  1
  O  O77  1  0.58647849  0.19850181  0.41800140  1
  O  O78  1  0.00628987  0.19278364  0.91590027  1
  O  O79  1  0.50635012  0.19985087  0.91360593  1
  O  O80  1  0.09316664  0.99283972  0.91817990  1
  O  O81  1  0.58957043  0.97889102  0.91496590  1
  O  O82  1  0.40422805  0.80182506  0.91596387  1
  O  O83  1  0.89704985  0.81507104  0.91552721  1
  O  O84  1  0.49662266  0.15736095  0.59937311  1
  O  O85  1  0.99461097  0.15553283  0.59886803  1
  O  O86  1  0.08725919  0.00360458  0.59342432  1
  O  O87  1  0.58931387  0.01280167  0.59298865  1
  O  O88  1  0.41920836  0.81830604  0.59502816  1
  O  O89  1  0.91436372  0.81378352  0.59555620  1
  O  O90  1  0.49552567  0.83770497  0.09939493  1
  O  O91  1  0.00384898  0.83496905  0.10114058  1
  O  O92  1  0.41895192  0.02007590  0.09542362  1
  O  O93  1  0.92514244  0.01770306  0.09996873  1
  O  O94  1  0.09057342  0.17492438  0.09163214  1
  O  O95  1  0.59036618  0.16794272  0.09336373  1
  O  O96  1  0.34815758  0.15243912  0.74134231  1
  O  O97  1  0.85404141  0.15439269  0.74353237  1
  O  O98  1  0.23815883  0.30293394  0.74553328  1
  O  O99  1  0.74119384  0.32379507  0.74583059  1
  O  O100  1  0.42825060  0.53404701  0.74627540  1
  O  O101  1  0.93451246  0.53354503  0.74352151  1
  O  O102  1  0.35170707  0.55006207  0.24169664  1
  O  O103  1  0.84577640  0.54818162  0.24284509  1
  O  O104  1  0.42965742  0.32372875  0.24517713  1
  O  O105  1  0.92536441  0.31221103  0.24635045  1
  O  O106  1  0.24187747  0.16066777  0.24662396  1
  O  O107  1  0.74283972  0.15682555  0.24969498  1
  O  O108  1  0.32091816  0.50232712  0.91810557  1
  O  O109  1  0.81939854  0.50891965  0.91836061  1
  O  O110  1  0.43364657  0.35731727  0.91903205  1
  O  O111  1  0.92973041  0.33785476  0.91679941  1
  O  O112  1  0.24228998  0.14873681  0.91660372  1
  O  O113  1  0.74050422  0.14006680  0.91887943  1
  O  O114  1  0.32005502  0.13809029  0.41937840  1
  O  O115  1  0.81832308  0.13616027  0.41722537  1
  O  O116  1  0.23632912  0.33068090  0.41935514  1
  O  O117  1  0.73649229  0.32932409  0.41953140  1
  O  O118  1  0.43392658  0.51146568  0.42044536  1
  O  O119  1  0.93400010  0.50958615  0.41951813  1
  O  O120  1  0.16224030  0.46618469  0.07818238  1
  O  O121  1  0.66543535  0.46397627  0.07742026  1
  O  O122  1  0.07346829  0.64442371  0.08014372  1
  O  O123  1  0.58330773  0.69463869  0.08482601  1
  O  O124  1  0.27033427  0.85772462  0.08177276  1
  O  O125  1  0.76404736  0.83304036  0.07895532  1
  O  O126  1  0.16450534  0.86200743  0.58134133  1
  O  O127  1  0.66412278  0.86526797  0.57973764  1
  O  O128  1  0.27172706  0.68699415  0.58088522  1
  O  O129  1  0.76599080  0.66989843  0.57995740  1
  O  O130  1  0.08350737  0.48420329  0.58459275  1
  O  O131  1  0.58684416  0.47864685  0.58400706  1
  O  O132  1  0.14480273  0.82088921  0.24349554  1
  O  O133  1  0.64961700  0.82497581  0.24369912  1
  O  O134  1  0.27264567  0.69246059  0.24310065  1
  O  O135  1  0.77460090  0.70715379  0.24494869  1
  O  O136  1  0.07500245  0.45898332  0.24863750  1
  O  O137  1  0.57829359  0.45692400  0.24498071  1
  O  O138  1  0.14593344  0.46564361  0.74533058  1
  O  O139  1  0.64334901  0.46706516  0.74172507  1
  O  O140  1  0.08309203  0.71265772  0.74718027  1
  O  O141  1  0.57709247  0.69892343  0.74533342  1
  O  O142  1  0.26835017  0.85543261  0.74466119  1
  O  O143  1  0.77311737  0.85312864  0.74427657  1
loop_
_geom_bond_atom_site_label_1
_geom_bond_atom_site_label_2
_geom_bond_distance
_geom_bond_site_symmetry_2
Na0 O107 2.349535 1_555
Na0 O33 2.438749 1_555
Na0 O135 2.530050 1_545
Na0 O133 2.599994 1_545
Na0 O105 2.618236 1_555
Na1 O31 2.290841 1_455
Na1 O132 2.350493 1_555
Na1 O136 2.604470 1_555
Na1 O105 2.606379 1_455
Na1 O103 2.628009 1_455
Na2 O30 2.383845 1_555
Na2 O133 2.440881 1_555
Na2 O104 2.488604 1_555
Na2 O102 2.529609 1_555
Na2 O137 2.647950 1_555
Na3 O25 2.363199 1_455
Na3 O138 2.394634 1_555
Na3 O101 2.432458 1_455
Na3 O97 2.488603 1_455
Na3 O140 2.794711 1_555
Na4 O24 2.352605 1_555
Na4 O139 2.360289 1_555
Na4 O100 2.500210 1_555
Na4 O96 2.554641 1_555
Na4 O141 2.657378 1_555
Na5 O98 2.385476 1_555
Na5 O140 2.465106 1_545
Na5 O142 2.688655 1_545
Na5 O68 2.706160 1_545
Na5 O96 2.724810 1_555
Na5 O26 2.767981 1_555
Na6 O131 2.282823 1_555
Na6 O129 2.657984 1_555
Na6 O84 2.704327 1_555
Na6 O87 2.727268 1_555
Na6 O57 2.758981 1_555
Na6 O43 2.837314 1_555
Na6 O29 2.861418 1_555
Na7 O123 2.296305 1_555
Na7 O33 2.577870 1_565
Na7 O125 2.702408 1_555
Na7 O90 2.855802 1_555
Na7 O95 2.863625 1_565
Na7 O53 2.876720 1_554
Na7 O37 2.924787 1_565
Na8 O125 2.356281 1_555
Na8 O39 2.459340 1_555
Na8 O49 2.690693 1_554
Na8 O93 2.740889 1_565
Na8 O91 2.782990 1_655
Na8 O121 2.798343 1_555
Na8 O19 2.962695 1_555
Na9 O122 2.476562 1_555
Na9 O120 2.528388 1_555
Na9 O93 2.642876 1_455
Na9 O94 2.699601 1_555
Na9 O41 2.758753 1_455
Na9 O50 2.901483 1_554
Na9 O20 2.929833 1_555
Na10 O38 2.387008 1_556
Na10 O82 2.432457 1_555
Na10 O110 2.519106 1_555
Na10 O108 2.616489 1_555
Na10 O81 2.663246 1_555
Na11 O41 2.439253 1_556
Na11 O111 2.471340 1_555
Na11 O78 2.559844 1_655
Na11 O83 2.650863 1_545
Na11 O113 2.683107 1_555
Na12 O6 2.418274 1_555
Na12 O112 2.473224 1_555
Na12 O80 2.476574 1_545
Na12 O108 2.587382 1_555
Na12 O78 2.618702 1_555
Na12 O36 2.938054 1_556
Na13 O7 2.326921 1_555
Na13 O113 2.560162 1_555
Na13 O109 2.579463 1_555
Na13 O81 2.619930 1_545
Na13 O79 2.620349 1_555
Na14 O46 2.395655 1_555
Na14 O74 2.417532 1_555
Na14 O118 2.524416 1_555
Na14 O114 2.608383 1_555
Na14 O77 2.623864 1_555
Na15 O47 2.373578 1_555
Na15 O75 2.463790 1_555
Na15 O119 2.553601 1_555
Na15 O76 2.554842 1_655
Na15 O115 2.737918 1_555
Na16 O0 2.277685 1_555
Na16 O116 2.463362 1_555
Na16 O114 2.570921 1_555
Na16 O72 2.613986 1_545
Na16 O76 2.665140 1_555
Na17 O1 2.342127 1_555
Na17 O117 2.457109 1_555
Na17 O115 2.558969 1_555
Na17 O73 2.592670 1_545
Na17 O77 2.644808 1_555
Na18 O89 2.660634 1_555
Na18 O75 2.661938 1_565
Na18 O85 2.708236 1_565
Na18 O76 2.756135 1_665
Na18 O86 2.756874 1_665
Na18 O72 2.758093 1_655
Na19 O88 2.520774 1_555
Na19 O74 2.526595 1_565
Na19 O73 2.693415 1_555
Na19 O84 2.822339 1_565
Na19 O77 2.885643 1_565
Na19 O87 2.887591 1_565
Na20 O80 2.486309 1_555
Na20 O83 2.626359 1_455
Na20 O91 2.696893 1_556
Na20 O94 2.808278 1_566
Na20 O78 2.830909 1_565
Na20 O93 2.910005 1_466
Na21 O92 2.491058 1_565
Na21 O82 2.576684 1_554
Na21 O79 2.740373 1_564
Na21 O90 2.766985 1_555
Na21 O95 2.861608 1_565
Na21 O81 2.991761 1_554
Na22 O98 2.408676 1_555
Na22 O108 2.623526 1_555
Na22 O112 2.642141 1_555
Na22 O100 2.706791 1_555
Na22 O96 2.851794 1_555
Na22 O110 2.901795 1_555
Na23 O99 2.291345 1_555
Na23 O101 2.686498 1_555
Na23 O109 2.703254 1_555
Na23 O113 2.859636 1_555
Na23 O97 2.859894 1_555
Na23 O111 2.999698 1_555
Na24 O106 2.247485 1_555
Na24 O116 2.689494 1_555
Na24 O102 2.781176 1_555
Na24 O114 2.781915 1_555
Na24 O104 2.838986 1_555
Na25 O107 2.350354 1_555
Na25 O117 2.609041 1_555
Na25 O103 2.689550 1_555
Na25 O115 2.793200 1_555
Na25 O105 2.866389 1_555
Na25 O119 2.938750 1_555
Na26 O132 2.328638 1_555
Na26 O122 2.508526 1_555
Na26 O124 2.551780 1_555
Na26 O134 2.719738 1_555
Na26 O136 2.890449 1_555
Na26 O120 2.942078 1_555
Na27 O123 2.328358 1_555
Na27 O133 2.485365 1_555
Na27 O125 2.623186 1_555
Na27 O137 2.666064 1_555
Na27 O121 2.780662 1_555
Na27 O135 2.830678 1_555
Na28 O130 2.253583 1_555
Na28 O138 2.417123 1_555
Na28 O128 2.596823 1_555
Na28 O142 2.853689 1_555
Na28 O126 2.863401 1_555
Na28 O140 2.873488 1_555
Na29 O139 2.409522 1_555
Na29 O131 2.426642 1_555
Na29 O141 2.638498 1_555
Na29 O143 2.709743 1_555
Na29 O129 2.724281 1_555
Na29 O127 2.789841 1_555
Ca0 O0 2.162038 1_565
Ca0 O3 2.251593 1_455
Ca0 O5 2.286761 1_465
Ca0 O76 2.331862 1_565
Ca0 O72 2.354263 1_555
Ca0 O75 2.448381 1_465
Ca1 O1 2.175948 1_565
Ca1 O2 2.229527 1_555
Ca1 O4 2.296241 1_565
Ca1 O73 2.374239 1_555
Ca1 O77 2.384334 1_565
Ca1 O74 2.408851 1_565
Ca2 O6 2.172383 1_565
Ca2 O9 2.239984 1_455
Ca2 O11 2.285517 1_465
Ca2 O80 2.341350 1_555
Ca2 O83 2.389192 1_455
Ca2 O78 2.392698 1_565
Ca3 O7 2.168597 1_555
Ca3 O10 2.257901 1_555
Ca3 O8 2.296733 1_545
Ca3 O79 2.357480 1_555
Ca3 O81 2.380404 1_545
Ca3 O82 2.434495 1_545
Ca4 O24 2.200770 1_555
Ca4 O28 2.235578 1_555
Ca4 O98 2.268848 1_555
Ca4 O26 2.322295 1_555
Ca4 O100 2.379714 1_555
Ca4 O96 2.417643 1_555
Ca5 O25 2.197272 1_555
Ca5 O99 2.229506 1_555
Ca5 O27 2.283613 1_555
Ca5 O29 2.285441 1_555
Ca5 O101 2.373674 1_555
Ca5 O97 2.389292 1_555
Ca6 O106 2.210669 1_555
Ca6 O30 2.222302 1_555
Ca6 O32 2.275653 1_555
Ca6 O34 2.288657 1_555
Ca6 O102 2.387584 1_555
Ca6 O104 2.400496 1_555
Ca7 O33 2.199474 1_555
Ca7 O31 2.218694 1_555
Ca7 O107 2.264050 1_555
Ca7 O35 2.275504 1_555
Ca7 O105 2.396675 1_555
Ca7 O103 2.412870 1_555
Ca8 O38 2.233993 1_556
Ca8 O40 2.344200 1_556
Ca8 O110 2.408120 1_555
Ca8 O36 2.427420 1_556
Ca8 O108 2.470873 1_555
Ca8 O112 2.498167 1_555
Ca9 O39 2.202263 1_556
Ca9 O41 2.288591 1_556
Ca9 O111 2.383412 1_555
Ca9 O109 2.458326 1_555
Ca9 O37 2.501225 1_556
Ca9 O113 2.538186 1_555
Ca10 O46 2.250715 1_555
Ca10 O44 2.352932 1_555
Ca10 O118 2.402417 1_555
Ca10 O42 2.426376 1_555
Ca10 O114 2.435036 1_555
Ca10 O116 2.503173 1_555
Ca11 O47 2.199252 1_555
Ca11 O45 2.356985 1_555
Ca11 O119 2.362234 1_555
Ca11 O115 2.436630 1_555
Ca11 O43 2.472776 1_555
Ca11 O117 2.530171 1_555
Ca12 O122 2.197159 1_555
Ca12 O52 2.265299 1_554
Ca12 O48 2.344966 1_554
Ca12 O124 2.349389 1_555
Ca12 O50 2.365456 1_554
Ca12 O120 2.391634 1_555
Ca13 O123 2.209416 1_555
Ca13 O125 2.239467 1_555
Ca13 O51 2.272680 1_554
Ca13 O53 2.312647 1_554
Ca13 O121 2.337879 1_555
Ca13 O49 2.374580 1_554
Ca14 O130 2.184653 1_555
Ca14 O56 2.288475 1_555
Ca14 O58 2.296067 1_555
Ca14 O128 2.339076 1_555
Ca14 O126 2.364127 1_555
Ca14 O54 2.372268 1_555
Ca15 O131 2.232301 1_555
Ca15 O59 2.258120 1_555
Ca15 O57 2.334646 1_555
Ca15 O55 2.336426 1_555
Ca15 O129 2.341389 1_555
Ca15 O127 2.342777 1_555
Ca16 O132 2.276002 1_555
Ca16 O62 2.306028 1_555
Ca16 O60 2.384295 1_555
Ca16 O134 2.404591 1_555
Ca16 O136 2.406222 1_555
Ca16 O64 2.420893 1_555
Ca17 O133 2.329016 1_555
Ca17 O61 2.342175 1_555
Ca17 O63 2.342744 1_555
Ca17 O65 2.352241 1_555
Ca17 O137 2.390963 1_555
Ca17 O135 2.423380 1_555
Ca18 O138 2.266425 1_555
Ca18 O70 2.289674 1_555
Ca18 O66 2.346876 1_555
Ca18 O142 2.423909 1_555
Ca18 O140 2.435768 1_555
Ca18 O68 2.481872 1_555
Ca19 O139 2.269999 1_555
Ca19 O71 2.290161 1_555
Ca19 O67 2.367216 1_555
Ca19 O143 2.394551 1_555
Ca19 O141 2.403486 1_555
Ca19 O69 2.418591 1_555
Nb0 O85 1.834459 1_455
Nb0 O14 1.857822 1_555
Nb0 O86 2.066805 1_555
Nb0 O13 2.082725 1_445
Nb0 O89 2.188890 1_445
Nb0 O16 2.235301 1_545
Nb1 O15 1.856281 1_555
Nb1 O84 1.864883 1_555
Nb1 O12 2.093157 1_545
Nb1 O87 2.104852 1_555
Nb1 O88 2.131863 1_545
Nb1 O17 2.192381 1_545
Nb2 O91 1.872124 1_545
Nb2 O22 1.874261 1_555
Nb2 O93 2.005644 1_455
Nb2 O94 2.075319 1_555
Nb2 O19 2.150182 1_445
Nb2 O20 2.246572 1_555
Nb3 O90 1.860502 1_555
Nb3 O23 1.879446 1_565
Nb3 O18 2.024349 1_555
Nb3 O95 2.126493 1_565
Nb3 O92 2.151474 1_565
Nb3 O21 2.173337 1_565
O0 Si0 1.619672 1_555
O1 Si1 1.607341 1_545
O2 S0 1.465572 1_555
O3 S1 1.456109 1_555
O4 S3 1.476182 1_555
O5 S2 1.472075 1_655
O6 Si2 1.617258 1_555
O7 Si3 1.615646 1_555
O8 S5 1.473359 1_555
O9 S4 1.465638 1_655
O10 S6 1.462136 1_545
O11 S7 1.473650 1_555
O12 S6 1.522895 1_555
O13 S7 1.529217 1_565
O14 Si2 1.783176 1_555
O15 Si3 1.818767 1_555
O16 S4 1.495905 1_555
O17 S5 1.505424 1_555
O18 S0 1.546679 1_555
O19 S1 1.526623 1_555
O20 S2 1.509308 1_555
O21 S3 1.510470 1_555
O22 Si0 1.782313 1_555
O23 Si1 1.791417 1_545
O24 Si4 1.601870 1_555
O25 Si5 1.602595 1_555
O26 S8 1.469796 1_555
O27 S9 1.451008 1_555
O28 S10 1.460200 1_555
O29 S11 1.469984 1_555
O30 Si6 1.596141 1_555
O31 Si7 1.608135 1_555
O32 S12 1.447213 1_555
O33 Si8 1.624224 1_555
O34 S13 1.440357 1_555
O35 S14 1.463647 1_555
O36 S13 1.482474 1_555
O37 S14 1.489758 1_555
O38 Si6 1.625087 1_555
O39 Si7 1.628641 1_555
O40 S12 1.483495 1_555
O41 Si8 1.643866 1_555
O42 S8 1.478036 1_555
O43 S9 1.492803 1_555
O44 S10 1.476413 1_555
O45 S11 1.478090 1_555
O46 Si4 1.621837 1_555
O47 Si5 1.628346 1_555
O48 S15 1.466349 1_555
O49 S16 1.483950 1_555
O50 S17 1.482001 1_555
O51 S18 1.475038 1_555
O52 S19 1.466990 1_555
O53 S20 1.482997 1_555
O54 S21 1.463162 1_555
O55 S22 1.468054 1_555
O56 S23 1.472225 1_555
O57 S24 1.485032 1_555
O58 S25 1.476846 1_555
O59 S26 1.480957 1_555
O60 S25 1.486186 1_555
O61 S26 1.491066 1_555
O62 S21 1.476484 1_555
O63 S22 1.490031 1_555
O64 S23 1.470748 1_555
O65 S24 1.472585 1_555
O66 S17 1.476908 1_555
O67 S18 1.488014 1_555
O68 S19 1.490125 1_555
O69 S20 1.472961 1_555
O70 S15 1.480394 1_555
O71 S16 1.481266 1_555
O72 S25 1.495807 1_555
O73 S26 1.494978 1_555
O74 S21 1.507616 1_545
O75 S22 1.495884 1_545
O76 S23 1.523393 1_555
O77 S24 1.512529 1_555
O78 S17 1.512305 1_555
O79 S18 1.496304 1_555
O80 S19 1.508953 1_555
O81 S20 1.503376 1_555
O82 S15 1.502386 1_555
O83 S16 1.496382 1_555
O84 Si4 1.804344 1_555
O85 Si5 1.813874 1_555
O86 S8 1.551094 1_555
O87 S9 1.546988 1_555
O88 S10 1.535207 1_555
O89 S11 1.509957 1_555
O90 Si6 1.806679 1_555
O91 Si7 1.740472 1_455
O92 S12 1.534766 1_555
O93 Si8 1.707524 1_555
O94 S13 1.551151 1_555
O95 S14 1.527897 1_555
O96 S6 1.485922 1_545
O97 S7 1.476276 1_555
O98 Si2 1.619356 1_555
O99 Si3 1.601413 1_555
O100 S5 1.491085 1_555
O101 S4 1.482267 1_655
O102 S0 1.471099 1_555
O103 S1 1.473876 1_555
O104 S3 1.478306 1_555
O105 S2 1.496711 1_655
O106 Si0 1.602423 1_555
O107 Si1 1.615026 1_545
O108 S15 1.513702 1_555
O109 S16 1.497988 1_555
O110 S18 1.497497 1_555
O111 S17 1.495179 1_655
O112 S19 1.504015 1_545
O113 S20 1.504463 1_545
O114 S21 1.516640 1_545
O115 S22 1.513737 1_545
O116 S23 1.501693 1_555
O117 S24 1.497015 1_555
O118 S26 1.489970 1_555
O119 S25 1.500937 1_655
O120 S13 1.480968 1_555
O121 S14 1.463709 1_555
O122 Si7 1.616801 1_455
O123 Si6 1.624885 1_555
O124 S12 1.485049 1_565
O125 Si8 1.630008 1_565
O126 S8 1.464155 1_565
O127 S9 1.465117 1_565
O128 S10 1.473123 1_555
O129 S11 1.488770 1_555
O130 Si5 1.606546 1_455
O131 Si4 1.631136 1_555
O132 Si0 1.640494 1_565
O133 Si1 1.648770 1_555
O134 S0 1.463849 1_555
O135 S1 1.491797 1_555
O136 S2 1.477543 1_555
O137 S3 1.494726 1_555
O138 Si2 1.627614 1_555
O139 Si3 1.637695 1_555
O140 S4 1.504863 1_555
O141 S5 1.489745 1_555
O142 S6 1.480516 1_555
O143 S7 1.474365 1_565
