# generated using pymatgen
data_Li3Mo3(PO4)4
_symmetry_space_group_name_H-M   'P 1'
_cell_length_a   8.39285600
_cell_length_b   9.15291799
_cell_length_c   13.03439537
_cell_angle_alpha   94.17702804
_cell_angle_beta   90.29617292
_cell_angle_gamma   90.02660431
_symmetry_Int_Tables_number   1
_chemical_formula_structural   Li3Mo3(PO4)4
_chemical_formula_sum   'Li9 Mo9 P12 O48'
_cell_volume   998.61745177
_cell_formula_units_Z   3
loop_
 _symmetry_equiv_pos_site_id
 _symmetry_equiv_pos_as_xyz
  1  'x, y, z'
loop_
 _atom_site_type_symbol
 _atom_site_label
 _atom_site_symmetry_multiplicity
 _atom_site_fract_x
 _atom_site_fract_y
 _atom_site_fract_z
 _atom_site_occupancy
  Li  Li0  1  0.13854100  0.22434700  0.83610000  1
  Li  Li1  1  0.85978200  0.10758600  0.49702400  1
  Li  Li2  1  0.36284900  0.74577200  0.83621900  1
  Li  Li3  1  0.37261100  0.40473600  0.50939400  1
  Li  Li4  1  0.35800000  0.05581300  0.16820700  1
  Li  Li5  1  0.62799600  0.92409800  0.82231900  1
  Li  Li6  1  0.63337500  0.59227700  0.50206600  1
  Li  Li7  1  0.13120000  0.57635400  0.16666900  1
  Li  Li8  1  0.87367300  0.76406300  0.16269000  1
  Mo  Mo0  1  0.48838400  0.33053800  0.83452300  1
  Mo  Mo1  1  0.50996600  0.00453700  0.49844800  1
  Mo  Mo2  1  0.86352600  0.44089200  0.83675700  1
  Mo  Mo3  1  0.00229900  0.83798600  0.83147700  1
  Mo  Mo4  1  0.00046000  0.49538800  0.50402500  1
  Mo  Mo5  1  0.01068200  0.16144200  0.16800000  1
  Mo  Mo6  1  0.63649500  0.27471500  0.16661700  1
  Mo  Mo7  1  0.13654700  0.89261900  0.49785800  1
  Mo  Mo8  1  0.49631400  0.67289300  0.16483900  1
  P  P0  1  0.19214800  0.85267600  0.05445300  1
  P  P1  1  0.70111400  0.97412400  0.27376700  1
  P  P2  1  0.29742800  0.35723700  0.05656700  1
  P  P3  1  0.31554400  0.67788500  0.38686200  1
  P  P4  1  0.81462200  0.48727800  0.28124700  1
  P  P5  1  0.79983800  0.80951300  0.60987400  1
  P  P6  1  0.20157800  0.19425100  0.39309800  1
  P  P7  1  0.19990000  0.52395800  0.72372600  1
  P  P8  1  0.69703900  0.31191800  0.61137600  1
  P  P9  1  0.79589400  0.13668400  0.94064400  1
  P  P10  1  0.68470500  0.65570200  0.94628300  1
  P  P11  1  0.30334300  0.02193100  0.72261100  1
  O  O0  1  0.08323300  0.09900000  0.45244700  1
  O  O1  1  0.36463700  0.83955100  0.10098500  1
  O  O2  1  0.07470700  0.75096000  0.10022200  1
  O  O3  1  0.69769300  0.68461800  0.06336300  1
  O  O4  1  0.64708400  0.81275600  0.25726300  1
  O  O5  1  0.35329400  0.51737800  0.07769500  1
  O  O6  1  0.35200600  0.84798100  0.41400100  1
  O  O7  1  0.30078400  0.99500800  0.59907400  1
  O  O8  1  0.92797700  0.58755200  0.23323700  1
  O  O9  1  0.13014400  0.00709100  0.76311000  1
  O  O10  1  0.62468100  0.15746200  0.90174700  1
  O  O11  1  0.91622700  0.23550900  0.88728000  1
  O  O12  1  0.29702600  0.31566800  0.93899700  1
  O  O13  1  0.34613500  0.18666300  0.74366600  1
  O  O14  1  0.64854700  0.48473700  0.92113600  1
  O  O15  1  0.65425000  0.14749600  0.58897500  1
  O  O16  1  0.70030400  0.33650500  0.73524500  1
  O  O17  1  0.08579300  0.41779800  0.77669600  1
  O  O18  1  0.69651600  0.02427800  0.39018900  1
  O  O19  1  0.87244800  0.98835300  0.23147200  1
  O  O20  1  0.36848000  0.50834500  0.77061200  1
  O  O21  1  0.86136600  0.65966800  0.89501100  1
  O  O22  1  0.37318600  0.17915900  0.43581100  1
  O  O23  1  0.86997700  0.32727800  0.57079200  1
  O  O24  1  0.57176600  0.75235800  0.89461200  1
  O  O25  1  0.19703300  0.82471100  0.93505300  1
  O  O26  1  0.57885000  0.41647900  0.57060600  1
  O  O27  1  0.19776700  0.48227700  0.60639100  1
  O  O28  1  0.58403900  0.06881400  0.21229800  1
  O  O29  1  0.19720100  0.14489700  0.27647100  1
  O  O30  1  0.14637300  0.68488100  0.74475700  1
  O  O31  1  0.14846900  0.35559600  0.41053500  1
  O  O32  1  0.15135500  0.01905700  0.07890200  1
  O  O33  1  0.84779200  0.97650100  0.92277600  1
  O  O34  1  0.85321800  0.64831600  0.58887200  1
  O  O35  1  0.85107600  0.31777000  0.25191200  1
  O  O36  1  0.80359700  0.85153900  0.72690500  1
  O  O37  1  0.42136000  0.91811800  0.76420800  1
  O  O38  1  0.80146000  0.51103700  0.39841800  1
  O  O39  1  0.42927200  0.57848600  0.43590000  1
  O  O40  1  0.80415100  0.17904500  0.06162400  1
  O  O41  1  0.41083700  0.25053300  0.10972600  1
  O  O42  1  0.13974100  0.67281600  0.43882600  1
  O  O43  1  0.63125600  0.82481700  0.56258200  1
  O  O44  1  0.12863000  0.34216000  0.10247700  1
  O  O45  1  0.63838500  0.49291300  0.22844900  1
  O  O46  1  0.91275000  0.91487300  0.55528400  1
  O  O47  1  0.30127500  0.65198000  0.26964900  1
loop_
_geom_bond_atom_site_label_1
_geom_bond_atom_site_label_2
_geom_bond_distance
_geom_bond_site_symmetry_2
Li0 O11 1.984936 1_455
Li0 O12 2.020881 1_555
Li0 O17 2.031649 1_555
Li0 O13 2.137269 1_555
Li0 O9 2.141940 1_555
Li1 O0 1.966119 1_655
Li1 O46 2.019394 1_545
Li1 O18 2.054949 1_555
Li1 O15 2.122195 1_555
Li1 O23 2.166237 1_555
Li2 O24 1.907040 1_555
Li2 O37 1.957118 1_555
Li2 O25 2.000556 1_555
Li2 O30 2.216454 1_555
Li2 O20 2.277254 1_555
Li3 O26 1.901927 1_555
Li3 O39 1.974555 1_555
Li3 O27 2.035920 1_555
Li3 O22 2.212336 1_555
Li3 O31 2.300285 1_555
Li4 O28 1.980412 1_555
Li4 O41 2.038334 1_555
Li4 O29 2.081013 1_555
Li4 O32 2.097056 1_555
Li4 O1 2.106398 1_545
Li5 O37 1.888037 1_555
Li5 O24 1.949683 1_555
Li5 O36 2.014788 1_555
Li5 O33 2.286978 1_555
Li5 O10 2.305028 1_565
Li6 O39 1.913841 1_555
Li6 O26 1.951815 1_555
Li6 O38 2.059741 1_555
Li6 O34 2.200165 1_555
Li6 O43 2.215464 1_555
Li7 O8 1.917033 1_455
Li7 O2 1.930576 1_555
Li7 O47 2.040171 1_555
Li7 O44 2.243630 1_555
Li7 O5 2.245648 1_555
Li8 O2 1.877321 1_655
Li8 O8 1.968800 1_555
Li8 O3 2.056322 1_555
Li8 O19 2.179519 1_555
Li8 O4 2.297770 1_555
Mo0 O13 2.078154 1_555
Mo0 O12 2.121715 1_555
Mo0 O20 2.132048 1_555
Mo0 O10 2.186181 1_555
Mo0 O14 2.196330 1_555
Mo0 O16 2.207931 1_555
Mo1 O15 2.080797 1_555
Mo1 O18 2.129536 1_555
Mo1 O43 2.152684 1_545
Mo1 O22 2.172806 1_555
Mo1 O6 2.185374 1_545
Mo1 O7 2.202380 1_545
Mo2 O17 2.031952 1_655
Mo2 O16 2.082330 1_555
Mo2 O11 2.083570 1_555
Mo2 O21 2.089334 1_555
Mo2 O14 2.140799 1_555
Mo3 O30 2.118625 1_555
Mo3 O33 2.121978 1_455
Mo3 O25 2.123641 1_555
Mo3 O9 2.133159 1_565
Mo3 O36 2.157711 1_455
Mo3 O21 2.225750 1_455
Mo4 O31 2.110729 1_555
Mo4 O34 2.121256 1_455
Mo4 O23 2.127819 1_455
Mo4 O27 2.130165 1_555
Mo4 O38 2.170254 1_455
Mo4 O42 2.221615 1_555
Mo5 O32 2.058201 1_555
Mo5 O29 2.116839 1_555
Mo5 O44 2.158333 1_555
Mo5 O19 2.177047 1_445
Mo5 O35 2.197035 1_455
Mo5 O40 2.227342 1_455
Mo6 O41 2.036410 1_555
Mo6 O28 2.065299 1_555
Mo6 O45 2.098513 1_555
Mo6 O40 2.113309 1_555
Mo6 O35 2.132969 1_555
Mo7 O46 2.030379 1_455
Mo7 O0 2.068761 1_565
Mo7 O7 2.078151 1_555
Mo7 O42 2.101194 1_555
Mo7 O6 2.141893 1_555
Mo8 O1 2.101890 1_555
Mo8 O4 2.109352 1_555
Mo8 O5 2.122717 1_555
Mo8 O47 2.154864 1_555
Mo8 O3 2.158983 1_555
Mo8 O45 2.239089 1_555
O0 P6 1.565388 1_555
O1 P0 1.574724 1_555
O2 P0 1.510075 1_555
O3 P10 1.533045 1_554
O4 P1 1.544502 1_555
O5 P2 1.543811 1_555
O6 P3 1.600265 1_555
O7 P11 1.611167 1_565
O8 P4 1.492675 1_555
O9 P11 1.558318 1_555
O10 P9 1.537809 1_555
O11 P9 1.555649 1_555
O12 P2 1.551836 1_556
O13 P11 1.554316 1_555
O14 P10 1.603755 1_555
O15 P8 1.553535 1_555
O16 P8 1.613938 1_555
O17 P7 1.562596 1_555
O18 P1 1.553750 1_545
O19 P1 1.551501 1_555
O20 P7 1.549104 1_555
O21 P10 1.630963 1_555
O22 P6 1.551305 1_555
O23 P8 1.557198 1_555
O24 P10 1.488531 1_555
O25 P0 1.559464 1_556
O26 P8 1.500598 1_555
O27 P7 1.549069 1_555
O28 P1 1.566011 1_545
O29 P6 1.554245 1_555
O30 P7 1.545805 1_555
O31 P6 1.544012 1_555
O32 P0 1.571250 1_545
O33 P9 1.531482 1_565
O34 P5 1.547762 1_555
O35 P4 1.600678 1_555
O36 P5 1.545931 1_555
O37 P11 1.499433 1_565
O38 P4 1.531463 1_555
O39 P3 1.492166 1_555
O40 P9 1.597351 1_554
O41 P2 1.559665 1_555
O42 P3 1.628751 1_555
O43 P5 1.550884 1_555
O44 P2 1.550736 1_555
O45 P4 1.630587 1_555
O46 P5 1.562180 1_555
O47 P3 1.532986 1_555
