# generated using pymatgen
data_NaLaTa3SiP5O24
_symmetry_space_group_name_H-M   'P 1'
_cell_length_a   8.91551375
_cell_length_b   8.91833628
_cell_length_c   23.26386157
_cell_angle_alpha   89.78564924
_cell_angle_beta   90.12562068
_cell_angle_gamma   120.05257482
_symmetry_Int_Tables_number   1
_chemical_formula_structural   NaLaTa3SiP5O24
_chemical_formula_sum   'Na3 La3 Ta9 Si3 P15 O72'
_cell_volume   1601.06609951
_cell_formula_units_Z   3
loop_
 _symmetry_equiv_pos_site_id
 _symmetry_equiv_pos_as_xyz
  1  'x, y, z'
loop_
 _atom_site_type_symbol
 _atom_site_label
 _atom_site_symmetry_multiplicity
 _atom_site_fract_x
 _atom_site_fract_y
 _atom_site_fract_z
 _atom_site_occupancy
  Na  Na0  1  0.00061142  0.99993283  0.99524821  1
  Na  Na1  1  0.65932778  0.33092971  0.83679399  1
  Na  Na2  1  0.66652256  0.33326618  0.33538734  1
  La  La0  1  0.00547170  0.00213208  0.85291676  1
  La  La1  1  0.66741921  0.33458106  0.97881750  1
  La  La2  1  0.66600704  0.33452487  0.47955523  1
  Ta  Ta0  1  0.99432139  0.99749442  0.35676912  1
  Ta  Ta1  1  0.00292918  0.00329937  0.65229917  1
  Ta  Ta2  1  0.99710996  0.00051570  0.15275113  1
  Ta  Ta3  1  0.66482775  0.33330968  0.67950841  1
  Ta  Ta4  1  0.66855799  0.33542766  0.18696760  1
  Ta  Ta5  1  0.33348955  0.66620782  0.02515451  1
  Ta  Ta6  1  0.33310909  0.66576110  0.52118548  1
  Ta  Ta7  1  0.33208288  0.66574321  0.30549004  1
  Ta  Ta8  1  0.33386076  0.66648764  0.80732112  1
  Si  Si0  1  0.71648609  0.70858018  0.25305447  1
  Si  Si1  1  0.99171277  0.28202121  0.25242599  1
  Si  Si2  1  0.30555010  0.29822349  0.75029882  1
  P  P0  1  0.28797683  0.00788268  0.25240297  1
  P  P1  1  0.99299081  0.69457672  0.74828388  1
  P  P2  1  0.70256363  0.00641980  0.74805025  1
  P  P3  1  0.96722913  0.32977032  0.58323634  1
  P  P4  1  0.36172189  0.03085026  0.58353624  1
  P  P5  1  0.67055976  0.63861346  0.58335922  1
  P  P6  1  0.96547498  0.63490927  0.08666381  1
  P  P7  1  0.66883315  0.03554376  0.08649628  1
  P  P8  1  0.36616542  0.32968336  0.08629623  1
  P  P9  1  0.60584710  0.66894737  0.91667421  1
  P  P10  1  0.06179239  0.39537286  0.91674477  1
  P  P11  1  0.33227260  0.93794456  0.91681880  1
  P  P12  1  0.61600139  0.93693606  0.41264865  1
  P  P13  1  0.31938937  0.38342681  0.41233506  1
  P  P14  1  0.06480305  0.68208087  0.41248242  1
  O  O0  1  0.20672807  0.04242782  0.30550561  1
  O  O1  1  0.84360923  0.79898303  0.30864358  1
  O  O2  1  0.96042849  0.15644957  0.30801362  1
  O  O3  1  0.25423642  0.18818050  0.80809037  1
  O  O4  1  0.93601889  0.74187040  0.80294347  1
  O  O5  1  0.80571553  0.05850743  0.80301857  1
  O  O6  1  0.80129626  0.97347745  0.69921444  1
  O  O7  1  0.16631659  0.18795358  0.69870196  1
  O  O8  1  0.02083073  0.82493200  0.69934002  1
  O  O9  1  0.81049959  0.83100699  0.19783507  1
  O  O10  1  0.02679903  0.19275071  0.19737721  1
  O  O11  1  0.17299926  0.97433658  0.19940036  1
  O  O12  1  0.87155426  0.36593619  0.63195035  1
  O  O13  1  0.49584891  0.12962679  0.63219621  1
  O  O14  1  0.63458650  0.50298540  0.63177905  1
  O  O15  1  0.86293667  0.50453001  0.13744929  1
  O  O16  1  0.64075419  0.13486220  0.13708504  1
  O  O17  1  0.49429834  0.35732710  0.13712614  1
  O  O18  1  0.42287494  0.28240340  0.03178709  1
  O  O19  1  0.85886589  0.58071777  0.03261597  1
  O  O20  1  0.71940685  0.14073048  0.03201638  1
  O  O21  1  0.41680952  0.13780634  0.52925980  1
  O  O22  1  0.72015962  0.58285806  0.52891094  1
  O  O23  1  0.86270396  0.28300687  0.52843110  1
  O  O24  1  0.50021581  0.65304558  0.97348501  1
  O  O25  1  0.15211705  0.49938660  0.97372232  1
  O  O26  1  0.34761662  0.84711688  0.97381689  1
  O  O27  1  0.52690756  0.83531087  0.46912130  1
  O  O28  1  0.30820065  0.47347817  0.46871234  1
  O  O29  1  0.16592914  0.69160074  0.46901950  1
  O  O30  1  0.16204367  0.67150916  0.35952451  1
  O  O31  1  0.50823810  0.84101888  0.35960291  1
  O  O32  1  0.33069531  0.49333097  0.35930315  1
  O  O33  1  0.16640606  0.48781092  0.86107043  1
  O  O34  1  0.31871945  0.83501861  0.86116859  1
  O  O35  1  0.51498340  0.68361407  0.86082896  1
  O  O36  1  0.05876956  0.85291877  0.40639721  1
  O  O37  1  0.79510102  0.94483415  0.40701974  1
  O  O38  1  0.15175455  0.20456987  0.40610962  1
  O  O39  1  0.05315176  0.22135967  0.92338213  1
  O  O40  1  0.16587396  0.94434908  0.92441009  1
  O  O41  1  0.77956780  0.83443646  0.92340484  1
  O  O42  1  0.99814299  0.18114114  0.60230845  1
  O  O43  1  0.18149982  0.99480610  0.60368831  1
  O  O44  1  0.81389969  0.81654728  0.60404366  1
  O  O45  1  0.00198972  0.81850874  0.10312207  1
  O  O46  1  0.82045622  0.00225116  0.10176088  1
  O  O47  1  0.18353376  0.17779227  0.10184936  1
  O  O48  1  0.67307827  0.15682313  0.72853345  1
  O  O49  1  0.49637791  0.33223617  0.72908999  1
  O  O50  1  0.84827091  0.51190665  0.72858153  1
  O  O51  1  0.69065284  0.51594377  0.23930720  1
  O  O52  1  0.81997901  0.29968023  0.23897364  1
  O  O53  1  0.46996481  0.16750636  0.24029579  1
  O  O54  1  0.61272211  0.50231824  0.91087048  1
  O  O55  1  0.88783875  0.38789488  0.91088031  1
  O  O56  1  0.49855579  0.11276797  0.91159554  1
  O  O57  1  0.63908407  0.11783504  0.41234554  1
  O  O58  1  0.48047216  0.36556859  0.41175042  1
  O  O59  1  0.88460481  0.52272777  0.41220868  1
  O  O60  1  0.35168104  0.49514791  0.07820064  1
  O  O61  1  0.14323242  0.64520885  0.07839789  1
  O  O62  1  0.50430172  0.85508987  0.07825245  1
  O  O63  1  0.35110579  0.85254483  0.57242370  1
  O  O64  1  0.50184313  0.64805631  0.57225713  1
  O  O65  1  0.14819639  0.49547657  0.57218547  1
  O  O66  1  0.31149429  0.84874054  0.26145015  1
  O  O67  1  0.52627232  0.68881258  0.26229438  1
  O  O68  1  0.15634624  0.47621729  0.26208354  1
  O  O69  1  0.32017357  0.48762714  0.75839076  1
  O  O70  1  0.16073896  0.68560162  0.75660279  1
  O  O71  1  0.52123658  0.84411446  0.75615660  1
loop_
_geom_bond_atom_site_label_1
_geom_bond_atom_site_label_2
_geom_bond_distance
_geom_bond_site_symmetry_2
Na0 O40 2.425025 1_555
Na0 O41 2.438503 1_455
Na0 O39 2.442647 1_565
Na0 O47 2.957469 1_566
Na0 O46 2.961637 1_466
Na0 O45 2.984188 1_556
Na1 O56 2.461831 1_555
Na1 O54 2.477442 1_555
Na1 O55 2.516689 1_555
Na1 O49 2.896476 1_555
Na1 O48 2.998406 1_555
Na1 O50 3.007523 1_555
Na2 O57 2.542038 1_555
Na2 O58 2.546706 1_555
Na2 O59 2.558553 1_555
Na2 O51 2.705628 1_555
Na2 O52 2.724209 1_555
Na2 O53 2.750073 1_555
La0 O3 2.251863 1_555
La0 O5 2.378108 1_455
La0 O4 2.387469 1_445
La0 O40 2.407948 1_545
La0 O39 2.424681 1_555
La0 O41 2.441586 1_445
La1 O18 2.340900 1_556
La1 O20 2.349340 1_556
La1 O19 2.357288 1_556
La1 O56 2.378094 1_555
La1 O55 2.378647 1_555
La1 O54 2.384085 1_555
La2 O23 2.318106 1_555
La2 O22 2.324238 1_555
La2 O21 2.333057 1_555
La2 O58 2.396873 1_555
La2 O59 2.405723 1_555
La2 O57 2.406926 1_555
O0 P0 1.541452 1_555
O0 Ta0 2.101251 1_445
O1 Si0 1.641071 1_555
O1 Ta0 1.954187 1_555
O2 Si1 1.637732 1_555
O2 Ta0 1.950117 1_545
O3 Si2 1.588437 1_555
O4 P1 1.508067 1_555
O5 P2 1.506060 1_555
O6 P2 1.554929 1_565
O6 Ta1 2.005269 1_665
O7 Si2 1.651806 1_555
O7 Ta1 1.898146 1_555
O8 P1 1.553036 1_455
O8 Ta1 1.998507 1_565
O9 Si0 1.619419 1_555
O9 Ta2 1.905268 1_565
O10 Si1 1.621906 1_455
O10 Ta2 1.909107 1_455
O11 P0 1.533217 1_565
O11 Ta2 2.012133 1_465
O12 P3 1.548700 1_555
O12 Ta3 2.043297 1_555
O13 P4 1.560093 1_555
O13 Ta3 2.011846 1_555
O14 P5 1.561289 1_555
O14 Ta3 1.997553 1_555
O15 P6 1.585372 1_555
O15 Ta4 1.995691 1_555
O16 P7 1.569549 1_555
O16 Ta4 2.043960 1_555
O17 P8 1.574253 1_555
O17 Ta4 2.022531 1_555
O18 P8 1.503935 1_555
O19 P6 1.502382 1_555
O20 P7 1.503201 1_555
O21 P4 1.506627 1_555
O22 P5 1.508203 1_555
O23 P3 1.509120 1_555
O24 P9 1.588721 1_555
O24 Ta5 1.962613 1_556
O25 P10 1.588178 1_555
O25 Ta5 1.963447 1_556
O26 P11 1.592258 1_555
O26 Ta5 1.956537 1_556
O27 P12 1.566198 1_555
O27 Ta6 2.029168 1_555
O28 P13 1.569650 1_555
O28 Ta6 2.028111 1_555
O29 P14 1.571299 1_555
O29 Ta6 2.020263 1_555
O30 P14 1.538099 1_555
O30 Ta7 1.991973 1_555
O31 P12 1.535326 1_555
O31 Ta7 2.010460 1_555
O32 P13 1.544507 1_555
O32 Ta7 1.974418 1_555
O33 P10 1.566606 1_555
O33 Ta8 1.985486 1_555
O34 P11 1.558973 1_555
O34 Ta8 2.016082 1_555
O35 P9 1.568907 1_555
O35 Ta8 1.981416 1_555
O36 P14 1.557145 1_555
O36 Ta0 2.013354 1_455
O37 P12 1.568428 1_555
O37 Ta0 1.977729 1_555
O38 P13 1.553076 1_555
O38 Ta0 2.027501 1_445
O39 P10 1.522075 1_555
O40 P11 1.523616 1_555
O41 P9 1.520768 1_555
O42 P3 1.546226 1_555
O42 Ta1 1.980825 1_655
O43 P4 1.545862 1_565
O43 Ta1 1.987098 1_565
O44 P5 1.534512 1_555
O44 Ta1 2.017118 1_665
O45 P6 1.550455 1_455
O45 Ta2 2.013618 1_465
O46 P7 1.562284 1_555
O46 Ta2 1.975845 1_555
O47 P8 1.551408 1_555
O47 Ta2 2.006744 1_455
O48 P2 1.556456 1_555
O48 Ta3 1.971220 1_555
O49 Si2 1.647920 1_555
O49 Ta3 1.891858 1_555
O50 P1 1.557734 1_555
O50 Ta3 1.977729 1_555
O51 Si0 1.647518 1_555
O51 Ta4 1.951711 1_555
O52 Si1 1.645004 1_555
O52 Ta4 1.951645 1_555
O53 P0 1.556927 1_555
O53 Ta4 2.063184 1_555
O54 P9 1.524176 1_555
O55 P10 1.524419 1_655
O56 P11 1.525698 1_545
O57 P12 1.520716 1_545
O58 P13 1.522245 1_555
O59 P14 1.521181 1_655
O60 P8 1.555128 1_555
O60 Ta5 2.027171 1_555
O61 P6 1.553192 1_455
O61 Ta5 2.033680 1_555
O62 P7 1.554068 1_565
O62 Ta5 2.029915 1_555
O63 P4 1.567389 1_565
O63 Ta6 1.991937 1_555
O64 P5 1.568889 1_555
O64 Ta6 1.981996 1_555
O65 P3 1.569717 1_455
O65 Ta6 1.979728 1_555
O66 P0 1.548629 1_565
O66 Ta7 2.008385 1_555
O67 Si0 1.629440 1_555
O67 Ta7 1.923242 1_555
O68 Si1 1.630870 1_455
O68 Ta7 1.919593 1_555
O69 Si2 1.639333 1_555
O69 Ta8 1.916538 1_555
O70 P1 1.548896 1_455
O70 Ta8 2.014340 1_555
O71 P2 1.549128 1_565
O71 Ta8 2.015200 1_555
