# generated using pymatgen
data_EuMgNiO3
_symmetry_space_group_name_H-M   'P 1'
_cell_length_a   3.79982295
_cell_length_b   3.80790350
_cell_length_c   7.12839872
_cell_angle_alpha   90.00000000
_cell_angle_beta   90.00000000
_cell_angle_gamma   90.00000000
_symmetry_Int_Tables_number   1
_chemical_formula_structural   EuMgNiO3
_chemical_formula_sum   'Eu1 Mg1 Ni1 O3'
_cell_volume   103.14336096
_cell_formula_units_Z   1
loop_
 _symmetry_equiv_pos_site_id
 _symmetry_equiv_pos_as_xyz
  1  'x, y, z'
loop_
 _atom_site_type_symbol
 _atom_site_label
 _atom_site_symmetry_multiplicity
 _atom_site_fract_x
 _atom_site_fract_y
 _atom_site_fract_z
 _atom_site_occupancy
  Eu  Eu0  1  0.50000000  0.50000000  0.50000000  1
  Mg  Mg0  1  0.50000000  0.50000000  0.00000000  1
  Ni  Ni0  1  -0.00000000  -0.00000000  0.00000000  1
  O  O0  1  0.50000000  -0.00000000  0.00000000  1
  O  O1  1  -0.00000000  0.50000000  0.00000000  1
  O  O2  1  -0.00000000  -0.00000000  0.50000000  1
loop_
_geom_bond_atom_site_label_1
_geom_bond_atom_site_label_2
_geom_bond_distance
_geom_bond_site_symmetry_2
Eu0 O2 2.689739 1_655
Eu0 O2 2.689739 1_565
Eu0 O2 2.689739 1_555
Eu0 O2 2.689739 1_665
Mg0 O1 1.899911 1_555
Mg0 O1 1.899911 1_655
Mg0 O0 1.903952 1_555
Mg0 O0 1.903952 1_565
Ni0 O0 1.899911 1_455
Ni0 O0 1.899911 1_555
Ni0 O1 1.903952 1_545
Ni0 O1 1.903952 1_555
