# generated using pymatgen
data_Sm2Ge2Ru
_symmetry_space_group_name_H-M   'P 1'
_cell_length_a   4.32132889
_cell_length_b   5.92146522
_cell_length_c   9.36449838
_cell_angle_alpha   82.65495886
_cell_angle_beta   76.65999662
_cell_angle_gamma   68.59938575
_symmetry_Int_Tables_number   1
_chemical_formula_structural   Sm2Ge2Ru
_chemical_formula_sum   'Sm4 Ge4 Ru2'
_cell_volume   216.83081017
_cell_formula_units_Z   2
loop_
 _symmetry_equiv_pos_site_id
 _symmetry_equiv_pos_as_xyz
  1  'x, y, z'
loop_
 _atom_site_type_symbol
 _atom_site_label
 _atom_site_symmetry_multiplicity
 _atom_site_fract_x
 _atom_site_fract_y
 _atom_site_fract_z
 _atom_site_occupancy
  Sm  Sm0  1  0.31528446  0.25978814  0.10964494  1
  Sm  Sm1  1  0.68471554  0.74021186  0.89035506  1
  Sm  Sm2  1  0.49835209  0.32995142  0.67334440  1
  Sm  Sm3  1  0.50164791  0.67004858  0.32665560  1
  Ge  Ge0  1  0.00529333  0.86250664  0.12690770  1
  Ge  Ge1  1  0.99470667  0.13749336  0.87309230  1
  Ge  Ge2  1  0.84791028  0.73804661  0.56613283  1
  Ge  Ge3  1  0.15208972  0.26195339  0.43386717  1
  Ru  Ru0  1  0.22714351  0.92105462  0.62465737  1
  Ru  Ru1  1  0.77285649  0.07894538  0.37534263  1
loop_
_geom_bond_atom_site_label_1
_geom_bond_atom_site_label_2
_geom_bond_distance
_geom_bond_site_symmetry_2
Ge0 Ru1 2.609317 1_465
Ge0 Ge1 2.703552 1_464
Ge0 Sm3 2.986776 1_555
Ge0 Sm3 2.986780 1_455
Ge0 Sm0 3.075283 1_465
Ge0 Sm0 3.075286 1_565
Ge0 Sm1 3.147850 1_554
Ge0 Sm1 3.147858 1_454
Ge0 Sm0 3.334186 1_555
Ge1 Ru0 2.609317 1_645
Ge1 Sm2 2.986776 1_555
Ge1 Sm2 2.986780 1_655
Ge1 Sm1 3.075283 1_645
Ge1 Sm1 3.075286 1_545
Ge1 Sm0 3.147850 1_556
Ge1 Sm0 3.147858 1_656
Ge1 Sm1 3.334186 1_555
Ge2 Ru0 2.454116 1_655
Ge2 Ru0 2.454120 1_555
Ge2 Ru1 2.497921 1_565
Ge2 Ge3 2.940556 1_655
Ge2 Sm1 2.954856 1_555
Ge2 Sm3 3.106332 1_555
Ge2 Sm3 3.106332 1_655
Ge2 Sm2 3.236209 1_655
Ge2 Sm2 3.236209 1_555
Ge2 Sm2 3.451170 1_565
Ge3 Ru1 2.454116 1_455
Ge3 Ru1 2.454120 1_555
Ge3 Ru0 2.497921 1_545
Ge3 Sm0 2.954856 1_555
Ge3 Sm2 3.106332 1_555
Ge3 Sm2 3.106332 1_455
Ge3 Sm3 3.236209 1_455
Ge3 Sm3 3.236209 1_555
Ge3 Sm3 3.451170 1_545
Ru0 Sm3 3.106483 1_555
Ru0 Sm2 3.169170 1_465
Ru0 Sm2 3.169173 1_565
Ru0 Sm2 3.267671 1_555
Ru0 Sm1 3.360220 1_555
Ru0 Sm1 3.360224 1_455
Ru1 Sm2 3.106483 1_555
Ru1 Sm3 3.169170 1_645
Ru1 Sm3 3.169173 1_545
Ru1 Sm3 3.267671 1_555
Ru1 Sm0 3.360220 1_555
Ru1 Sm0 3.360224 1_655
