# generated using pymatgen
data_Yb3SnC
_symmetry_space_group_name_H-M   'P 1'
_cell_length_a   5.45359790
_cell_length_b   5.45359790
_cell_length_c   5.45359790
_cell_angle_alpha   90.00000000
_cell_angle_beta   90.00000000
_cell_angle_gamma   90.00000000
_symmetry_Int_Tables_number   1
_chemical_formula_structural   Yb3SnC
_chemical_formula_sum   'Yb3 Sn1 C1'
_cell_volume   162.19943687
_cell_formula_units_Z   1
loop_
 _symmetry_equiv_pos_site_id
 _symmetry_equiv_pos_as_xyz
  1  'x, y, z'
loop_
 _atom_site_type_symbol
 _atom_site_label
 _atom_site_symmetry_multiplicity
 _atom_site_fract_x
 _atom_site_fract_y
 _atom_site_fract_z
 _atom_site_occupancy
  Yb  Yb0  1  0.00000000  0.50000000  0.50000000  1
  Yb  Yb1  1  0.50000000  0.00000000  0.50000000  1
  Yb  Yb2  1  0.50000000  0.50000000  0.00000000  1
  Sn  Sn0  1  0.50000000  0.50000000  0.50000000  1
  C  C0  1  0.00000000  0.00000000  0.00000000  1
loop_
_geom_bond_atom_site_label_1
_geom_bond_atom_site_label_2
_geom_bond_distance
_geom_bond_site_symmetry_2
Sn0 Yb0 2.726799 1_555
Sn0 Yb1 2.726799 1_555
Sn0 Yb1 2.726799 1_565
Sn0 Yb0 2.726799 1_655
Sn0 Yb2 2.726799 1_556
Sn0 Yb2 2.726799 1_555
