# generated using pymatgen
data_NaHfTaSi2SO12
_symmetry_space_group_name_H-M   'P 1'
_cell_length_a   8.92243884
_cell_length_b   8.90320280
_cell_length_c   23.09145317
_cell_angle_alpha   90.26080501
_cell_angle_beta   90.00000000
_cell_angle_gamma   120.07149703
_symmetry_Int_Tables_number   1
_chemical_formula_structural   NaHfTaSi2SO12
_chemical_formula_sum   'Na6 Hf6 Ta6 Si12 S6 O72'
_cell_volume   1587.42199987
_cell_formula_units_Z   6
loop_
 _symmetry_equiv_pos_site_id
 _symmetry_equiv_pos_as_xyz
  1  'x, y, z'
loop_
 _atom_site_type_symbol
 _atom_site_label
 _atom_site_symmetry_multiplicity
 _atom_site_fract_x
 _atom_site_fract_y
 _atom_site_fract_z
 _atom_site_occupancy
  Na  Na0  1  0.01926629  0.01149210  0.49795318  1
  Na  Na1  1  0.99222581  0.01149210  0.99795318  1
  Na  Na2  1  0.68593329  0.34482510  0.83128618  1
  Na  Na3  1  0.65889281  0.34482510  0.33128618  1
  Na  Na4  1  0.35259929  0.67815910  0.16462018  1
  Na  Na5  1  0.32555881  0.67815910  0.66462018  1
  Hf  Hf0  1  0.01136397  0.99279807  0.35508423  1
  Hf  Hf1  1  0.98143411  0.99279807  0.85508423  1
  Hf  Hf2  1  0.67803097  0.32613107  0.68841723  1
  Hf  Hf3  1  0.64810111  0.32613107  0.18841723  1
  Hf  Hf4  1  0.34469697  0.65946507  0.02175123  1
  Hf  Hf5  1  0.31476711  0.65946507  0.52175123  1
  Ta  Ta0  1  0.99720083  0.99315238  0.64511373  1
  Ta  Ta1  1  0.99595155  0.99315238  0.14511373  1
  Ta  Ta2  1  0.66386783  0.32648538  0.97844673  1
  Ta  Ta3  1  0.66261855  0.32648538  0.47844673  1
  Ta  Ta4  1  0.33053383  0.65981938  0.31178073  1
  Ta  Ta5  1  0.32928455  0.65981938  0.81178073  1
  Si  Si0  1  0.28726606  0.99352252  0.24984942  1
  Si  Si1  1  0.71155811  0.71204872  0.25097411  1
  Si  Si2  1  0.00049061  0.71204872  0.75097411  1
  Si  Si3  1  0.70625646  0.99352252  0.74984942  1
  Si  Si4  1  0.95393306  0.32685552  0.58318242  1
  Si  Si5  1  0.37822511  0.04538172  0.58430711  1
  Si  Si6  1  0.66715761  0.04538172  0.08430711  1
  Si  Si7  1  0.37292346  0.32685552  0.08318242  1
  Si  Si8  1  0.62059906  0.66018952  0.91651642  1
  Si  Si9  1  0.04489111  0.37871572  0.91764111  1
  Si  Si10  1  0.33382361  0.37871572  0.41764111  1
  Si  Si11  1  0.03958946  0.66018952  0.41651642  1
  S  S0  1  0.00143305  0.28724241  0.24989646  1
  S  S1  1  0.28580936  0.28724241  0.74989646  1
  S  S2  1  0.66810005  0.62057541  0.58322946  1
  S  S3  1  0.95247636  0.62057541  0.08322946  1
  S  S4  1  0.33476605  0.95390941  0.91656346  1
  S  S5  1  0.61914236  0.95390941  0.41656346  1
  O  O0  1  0.20298592  0.02888228  0.30645761  1
  O  O1  1  0.82315707  0.81110066  0.30729371  1
  O  O2  1  0.97634554  0.18589522  0.30204250  1
  O  O3  1  0.20954968  0.18589522  0.80204250  1
  O  O4  1  0.98794360  0.81110066  0.80729371  1
  O  O5  1  0.82589636  0.02888228  0.80645761  1
  O  O6  1  0.80773685  0.97209842  0.69283658  1
  O  O7  1  0.17673121  0.20585462  0.69696876  1
  O  O8  1  0.02984450  0.83484288  0.69280753  1
  O  O9  1  0.80499838  0.83484288  0.19280753  1
  O  O10  1  0.02912341  0.20585462  0.19696876  1
  O  O11  1  0.16436156  0.97209842  0.19283658  1
  O  O12  1  0.86965292  0.36221528  0.63979061  1
  O  O13  1  0.48982407  0.14443366  0.64062671  1
  O  O14  1  0.64301254  0.51922822  0.63537550  1
  O  O15  1  0.87621668  0.51922822  0.13537550  1
  O  O16  1  0.65461060  0.14443366  0.14062671  1
  O  O17  1  0.49256336  0.36221528  0.13979061  1
  O  O18  1  0.47440385  0.30543142  0.02616958  1
  O  O19  1  0.84339821  0.53918762  0.03030176  1
  O  O20  1  0.69651150  0.16817588  0.02614053  1
  O  O21  1  0.47166538  0.16817588  0.52614053  1
  O  O22  1  0.69579041  0.53918762  0.53030176  1
  O  O23  1  0.83102856  0.30543142  0.52616958  1
  O  O24  1  0.53631892  0.69554928  0.97312461  1
  O  O25  1  0.15649007  0.47776766  0.97396071  1
  O  O26  1  0.30967854  0.85256222  0.96870950  1
  O  O27  1  0.54288268  0.85256222  0.46870950  1
  O  O28  1  0.32127660  0.47776766  0.47396071  1
  O  O29  1  0.15922936  0.69554928  0.47312461  1
  O  O30  1  0.14106985  0.63876542  0.35950358  1
  O  O31  1  0.51006421  0.87252162  0.36363576  1
  O  O32  1  0.36317750  0.50150988  0.35947453  1
  O  O33  1  0.13833138  0.50150988  0.85947453  1
  O  O34  1  0.36245641  0.87252162  0.86363576  1
  O  O35  1  0.49769456  0.63876542  0.85950358  1
  O  O36  1  0.01080904  0.82610475  0.41158879  1
  O  O37  1  0.79462623  0.98305806  0.40904380  1
  O  O38  1  0.15918958  0.19261355  0.41062516  1
  O  O39  1  0.03342396  0.19261355  0.91062516  1
  O  O40  1  0.18843183  0.98305806  0.90904380  1
  O  O41  1  0.81529571  0.82610475  0.91158879  1
  O  O42  1  0.96744768  0.15014446  0.59143499  1
  O  O43  1  0.18285937  0.02336441  0.59180077  1
  O  O44  1  0.83150475  0.79578449  0.58822867  1
  O  O45  1  0.96427974  0.79578449  0.08822867  1
  O  O46  1  0.84050503  0.02336441  0.09180077  1
  O  O47  1  0.18269678  0.15014446  0.09143499  1
  O  O48  1  0.67747604  0.15943775  0.74492179  1
  O  O49  1  0.46129323  0.31639106  0.74237680  1
  O  O50  1  0.82585658  0.52594655  0.74395816  1
  O  O51  1  0.70009096  0.52594655  0.24395816  1
  O  O52  1  0.85509883  0.31639106  0.24237680  1
  O  O53  1  0.48196271  0.15943775  0.24492179  1
  O  O54  1  0.63411468  0.48347746  0.92476799  1
  O  O55  1  0.84952637  0.35669741  0.92513377  1
  O  O56  1  0.49817175  0.12911749  0.92156167  1
  O  O57  1  0.63094674  0.12911749  0.42156167  1
  O  O58  1  0.50717203  0.35669741  0.42513377  1
  O  O59  1  0.84936378  0.48347746  0.42476799  1
  O  O60  1  0.34414204  0.49277175  0.07825579  1
  O  O61  1  0.12795923  0.64972506  0.07571080  1
  O  O62  1  0.49252258  0.85928055  0.07729216  1
  O  O63  1  0.36675696  0.85928055  0.57729216  1
  O  O64  1  0.52176483  0.64972506  0.57571080  1
  O  O65  1  0.14862871  0.49277175  0.57825579  1
  O  O66  1  0.30078068  0.81681146  0.25810199  1
  O  O67  1  0.51619237  0.69003141  0.25846777  1
  O  O68  1  0.16483775  0.46245149  0.25489567  1
  O  O69  1  0.29761274  0.46245149  0.75489567  1
  O  O70  1  0.17383803  0.69003141  0.75846777  1
  O  O71  1  0.51602978  0.81681146  0.75810199  1
loop_
_geom_bond_atom_site_label_1
_geom_bond_atom_site_label_2
_geom_bond_distance
_geom_bond_site_symmetry_2
Na0 O38 2.497486 1_555
Na0 O36 2.559755 1_545
Na0 O43 2.584815 1_555
Na0 O42 2.635344 1_455
Na0 O44 2.766319 1_445
Na0 O37 2.789843 1_445
Na1 O39 2.497486 1_655
Na1 O41 2.559755 1_545
Na1 O46 2.584815 1_556
Na1 O47 2.635344 1_656
Na1 O45 2.766319 1_546
Na1 O40 2.789843 1_645
Na2 O50 2.497486 1_555
Na2 O48 2.559755 1_555
Na2 O55 2.584815 1_555
Na2 O54 2.635344 1_555
Na2 O56 2.766319 1_555
Na2 O49 2.789843 1_555
Na3 O51 2.497486 1_555
Na3 O53 2.559755 1_555
Na3 O58 2.584815 1_555
Na3 O59 2.635344 1_555
Na3 O57 2.766319 1_555
Na3 O52 2.789843 1_555
Na4 O62 2.497486 1_555
Na4 O60 2.559755 1_555
Na4 O67 2.584815 1_555
Na4 O66 2.635344 1_555
Na4 O68 2.766319 1_555
Na4 O61 2.789843 1_555
Na5 O63 2.497486 1_555
Na5 O65 2.559755 1_555
Na5 O70 2.584815 1_555
Na5 O71 2.635344 1_555
Na5 O69 2.766319 1_555
Na5 O64 2.789843 1_555
Hf0 O0 1.933918 1_565
Hf0 O36 1.978708 1_555
Hf0 O1 1.978895 1_455
Hf0 O38 2.043792 1_565
Hf0 O2 2.260722 1_465
Hf0 O37 2.265539 1_455
Hf1 O5 1.933918 1_565
Hf1 O41 1.978708 1_555
Hf1 O4 1.978895 1_555
Hf1 O39 2.043792 1_665
Hf1 O3 2.260722 1_665
Hf1 O40 2.265539 1_655
Hf2 O12 1.933918 1_555
Hf2 O48 1.978708 1_555
Hf2 O13 1.978895 1_555
Hf2 O50 2.043792 1_555
Hf2 O14 2.260722 1_555
Hf2 O49 2.265539 1_555
Hf3 O17 1.933918 1_555
Hf3 O53 1.978708 1_555
Hf3 O16 1.978895 1_555
Hf3 O51 2.043792 1_555
Hf3 O15 2.260722 1_555
Hf3 O52 2.265539 1_555
Hf4 O24 1.933918 1_554
Hf4 O60 1.978708 1_555
Hf4 O25 1.978895 1_554
Hf4 O62 2.043792 1_555
Hf4 O26 2.260722 1_554
Hf4 O61 2.265539 1_555
Hf5 O29 1.933918 1_555
Hf5 O65 1.978708 1_555
Hf5 O28 1.978895 1_555
Hf5 O63 2.043792 1_555
Hf5 O27 2.260722 1_555
Hf5 O64 2.265539 1_555
O0 Si0 1.614550 1_545
O1 Si1 1.603137 1_555
O2 S0 1.456599 1_655
O3 S1 1.456599 1_555
O4 Si2 1.603137 1_655
O5 Si3 1.614550 1_545
O6 Si3 1.661391 1_555
O6 Ta0 1.947194 1_555
O7 S1 1.500391 1_555
O7 Ta0 2.127265 1_445
O8 Si2 1.671612 1_555
O8 Ta0 1.926099 1_455
O9 Si1 1.671612 1_555
O9 Ta1 1.926099 1_555
O10 S0 1.500391 1_555
O10 Ta1 2.127265 1_445
O11 Si0 1.661391 1_555
O11 Ta1 1.947194 1_455
O12 Si4 1.614550 1_555
O13 Si5 1.603137 1_555
O14 S2 1.456599 1_555
O15 S3 1.456599 1_555
O16 Si6 1.603137 1_555
O17 Si7 1.614550 1_555
O18 Si7 1.661391 1_555
O18 Ta2 1.947194 1_554
O19 S3 1.500391 1_555
O19 Ta2 2.127265 1_554
O20 Si6 1.671612 1_555
O20 Ta2 1.926099 1_554
O21 Si5 1.671612 1_555
O21 Ta3 1.926099 1_555
O22 S2 1.500391 1_555
O22 Ta3 2.127265 1_555
O23 Si4 1.661391 1_555
O23 Ta3 1.947194 1_555
O24 Si8 1.614550 1_555
O25 Si9 1.603137 1_555
O26 S4 1.456599 1_555
O27 S5 1.456599 1_555
O28 Si10 1.603137 1_555
O29 Si11 1.614550 1_555
O30 Si11 1.661391 1_555
O30 Ta4 1.947194 1_555
O31 S5 1.500391 1_555
O31 Ta4 2.127265 1_555
O32 Si10 1.671612 1_555
O32 Ta4 1.926099 1_555
O33 Si9 1.671612 1_555
O33 Ta5 1.926099 1_555
O34 S4 1.500391 1_555
O34 Ta5 2.127265 1_555
O35 Si8 1.661391 1_555
O35 Ta5 1.947194 1_555
O36 Si11 1.625613 1_555
O37 S5 1.463643 1_555
O38 Si10 1.615457 1_555
O39 Si9 1.615461 1_555
O40 S4 1.463634 1_555
O41 Si8 1.625618 1_555
O42 Si4 1.648928 1_555
O42 Ta0 1.987001 1_545
O43 Si5 1.662761 1_555
O43 Ta0 1.971915 1_445
O44 S2 1.513765 1_555
O44 Ta0 2.091510 1_555
O45 S3 1.513769 1_555
O45 Ta1 2.091510 1_555
O46 Si6 1.662752 1_555
O46 Ta1 1.971915 1_545
O47 Si7 1.648933 1_555
O47 Ta1 1.987001 1_445
O48 Si3 1.625613 1_545
O49 S1 1.463643 1_555
O50 Si2 1.615457 1_655
O51 Si1 1.615461 1_555
O52 S0 1.463634 1_655
O53 Si0 1.625618 1_545
O54 Si8 1.648939 1_555
O54 Ta2 1.987001 1_555
O55 Si9 1.662746 1_655
O55 Ta2 1.971915 1_555
O56 S4 1.513762 1_545
O56 Ta2 2.091510 1_555
O57 S5 1.513754 1_545
O57 Ta3 2.091510 1_555
O58 Si10 1.662764 1_555
O58 Ta3 1.971915 1_555
O59 Si11 1.648929 1_655
O59 Ta3 1.987001 1_555
O60 Si7 1.625625 1_555
O61 S3 1.463628 1_455
O62 Si6 1.615454 1_565
O63 Si5 1.615446 1_565
O64 S2 1.463646 1_555
O65 Si4 1.625614 1_455
O66 Si0 1.648928 1_555
O66 Ta4 1.987001 1_555
O67 Si1 1.662761 1_555
O67 Ta4 1.971915 1_555
O68 S0 1.513765 1_555
O68 Ta4 2.091510 1_555
O69 S1 1.513769 1_555
O69 Ta5 2.091510 1_555
O70 Si2 1.662752 1_555
O70 Ta5 1.971915 1_555
O71 Si3 1.648933 1_555
O71 Ta5 1.987001 1_555
