# generated using pymatgen
data_Nb3In(PO4)6
_symmetry_space_group_name_H-M   'P 1'
_cell_length_a   8.84160297
_cell_length_b   8.84160268
_cell_length_c   22.81408208
_cell_angle_alpha   90.00000000
_cell_angle_beta   90.00000000
_cell_angle_gamma   120.00000110
_symmetry_Int_Tables_number   1
_chemical_formula_structural   Nb3In(PO4)6
_chemical_formula_sum   'Nb9 In3 P18 O72'
_cell_volume   1544.52744870
_cell_formula_units_Z   3
loop_
 _symmetry_equiv_pos_site_id
 _symmetry_equiv_pos_as_xyz
  1  'x, y, z'
loop_
 _atom_site_type_symbol
 _atom_site_label
 _atom_site_symmetry_multiplicity
 _atom_site_fract_x
 _atom_site_fract_y
 _atom_site_fract_z
 _atom_site_occupancy
  Nb  Nb0  1  0.00000000  0.00000000  0.85547006  1
  Nb  Nb1  1  0.00000000  0.00000000  0.64037037  1
  Nb  Nb2  1  0.00000000  0.00000000  0.14794397  1
  Nb  Nb3  1  0.66666700  0.33333300  0.97850183  1
  Nb  Nb4  1  0.66666700  0.33333300  0.47438091  1
  Nb  Nb5  1  0.33333300  0.66666700  0.02437001  1
  Nb  Nb6  1  0.33333300  0.66666700  0.52108342  1
  Nb  Nb7  1  0.33333300  0.66666700  0.30738534  1
  Nb  Nb8  1  0.33333300  0.66666700  0.80796152  1
  In  In0  1  0.00000000  0.00000000  0.35633036  1
  In  In1  1  0.66666700  0.33333300  0.68790605  1
  In  In2  1  0.66666700  0.33333300  0.18837285  1
  P  P0  1  0.28948360  0.00216687  0.25145942  1
  P  P1  1  0.71268327  0.71051640  0.25145942  1
  P  P2  1  0.99783313  0.28731673  0.25145942  1
  P  P3  1  0.28542058  0.28366997  0.74963627  1
  P  P4  1  0.99824939  0.71457942  0.74963627  1
  P  P5  1  0.71633003  0.00175061  0.74963627  1
  P  P6  1  0.95394544  0.33595760  0.58284936  1
  P  P7  1  0.38201316  0.04605456  0.58284936  1
  P  P8  1  0.66404240  0.61798684  0.58284936  1
  P  P9  1  0.95343446  0.62328408  0.08359232  1
  P  P10  1  0.66985062  0.04656554  0.08359232  1
  P  P11  1  0.37671592  0.33014938  0.08359232  1
  P  P12  1  0.61777202  0.66615269  0.91645864  1
  P  P13  1  0.04837967  0.38222798  0.91645864  1
  P  P14  1  0.33384731  0.95162033  0.91645864  1
  P  P15  1  0.61891845  0.95079712  0.41617464  1
  P  P16  1  0.33187767  0.38108155  0.41617464  1
  P  P17  1  0.04920288  0.66812233  0.41617464  1
  O  O0  1  0.20893966  0.02928515  0.30509276  1
  O  O1  1  0.82034550  0.79106034  0.30509276  1
  O  O2  1  0.97071485  0.17965450  0.30509276  1
  O  O3  1  0.19101159  0.17056014  0.80506606  1
  O  O4  1  0.97954855  0.80898841  0.80506606  1
  O  O5  1  0.82943986  0.02045145  0.80506606  1
  O  O6  1  0.80014643  0.96616918  0.69583472  1
  O  O7  1  0.16602275  0.19985357  0.69583472  1
  O  O8  1  0.03383082  0.83397725  0.69583472  1
  O  O9  1  0.80045118  0.83304462  0.19518752  1
  O  O10  1  0.03259345  0.19954882  0.19518752  1
  O  O11  1  0.16695538  0.96740655  0.19518752  1
  O  O12  1  0.88577366  0.37168459  0.63840453  1
  O  O13  1  0.48591193  0.11422634  0.63840453  1
  O  O14  1  0.62831541  0.51408807  0.63840453  1
  O  O15  1  0.88528435  0.51058532  0.13655486  1
  O  O16  1  0.62530196  0.11471565  0.13655486  1
  O  O17  1  0.48941468  0.37469804  0.13655486  1
  O  O18  1  0.46778569  0.30560127  0.02777325  1
  O  O19  1  0.83781658  0.53221431  0.02777325  1
  O  O20  1  0.69439873  0.16218342  0.02777325  1
  O  O21  1  0.46464585  0.16285771  0.52846710  1
  O  O22  1  0.69821286  0.53535415  0.52846710  1
  O  O23  1  0.83714229  0.30178714  0.52846710  1
  O  O24  1  0.53341317  0.69639230  0.97079451  1
  O  O25  1  0.16297813  0.46658683  0.97079451  1
  O  O26  1  0.30360770  0.83702187  0.97079451  1
  O  O27  1  0.52499259  0.83819555  0.47131383  1
  O  O28  1  0.31320196  0.47500741  0.47131383  1
  O  O29  1  0.16180445  0.68679804  0.47131383  1
  O  O30  1  0.13304288  0.63230818  0.36243384  1
  O  O31  1  0.49926429  0.86695712  0.36243384  1
  O  O32  1  0.36769182  0.50073571  0.36243384  1
  O  O33  1  0.13416429  0.49720102  0.86207456  1
  O  O34  1  0.36303574  0.86583571  0.86207456  1
  O  O35  1  0.50279898  0.63696426  0.86207456  1
  O  O36  1  0.02549440  0.82320618  0.41238622  1
  O  O37  1  0.79771178  0.97450560  0.41238622  1
  O  O38  1  0.17679382  0.20228822  0.41238622  1
  O  O39  1  0.02546976  0.19850189  0.90618206  1
  O  O40  1  0.17303213  0.97453024  0.90618206  1
  O  O41  1  0.80149811  0.82696787  0.90618206  1
  O  O42  1  0.97595436  0.17081906  0.59281285  1
  O  O43  1  0.19486469  0.02404564  0.59281285  1
  O  O44  1  0.82918094  0.80513531  0.59281285  1
  O  O45  1  0.97712974  0.80707647  0.09058989  1
  O  O46  1  0.82994673  0.02287026  0.09058989  1
  O  O47  1  0.19292353  0.17005327  0.09058989  1
  O  O48  1  0.69283799  0.15737908  0.74538591  1
  O  O49  1  0.46454209  0.30716201  0.74538591  1
  O  O50  1  0.84262092  0.53545791  0.74538591  1
  O  O51  1  0.68478863  0.53181931  0.24094856  1
  O  O52  1  0.84703168  0.31521137  0.24094856  1
  O  O53  1  0.46818069  0.15296832  0.24094856  1
  O  O54  1  0.64054756  0.50522388  0.92699583  1
  O  O55  1  0.86467732  0.35945244  0.92699583  1
  O  O56  1  0.49477612  0.13532268  0.92699583  1
  O  O57  1  0.63274309  0.13335212  0.42810263  1
  O  O58  1  0.50061003  0.36725691  0.42810263  1
  O  O59  1  0.86664788  0.49938997  0.42810263  1
  O  O60  1  0.35381882  0.49215408  0.06938789  1
  O  O61  1  0.13833426  0.64618118  0.06938789  1
  O  O62  1  0.50784592  0.86166574  0.06938789  1
  O  O63  1  0.35119650  0.86031957  0.57079552  1
  O  O64  1  0.50912208  0.64880350  0.57079552  1
  O  O65  1  0.13968043  0.49087792  0.57079552  1
  O  O66  1  0.30137854  0.83080569  0.25904468  1
  O  O67  1  0.52942615  0.69862146  0.25904468  1
  O  O68  1  0.16919431  0.47057385  0.25904468  1
  O  O69  1  0.29950388  0.46625457  0.76150752  1
  O  O70  1  0.16674969  0.70049612  0.76150752  1
  O  O71  1  0.53374543  0.83325031  0.76150752  1
loop_
_geom_bond_atom_site_label_1
_geom_bond_atom_site_label_2
_geom_bond_distance
_geom_bond_site_symmetry_2
Nb0 O4 1.975308 1_445
Nb0 O3 1.975308 1_555
Nb0 O5 1.975308 1_455
Nb0 O39 2.018489 1_555
Nb0 O41 2.018489 1_445
Nb0 O40 2.018489 1_545
Nb1 O44 1.955640 1_445
Nb1 O43 1.955640 1_555
Nb1 O42 1.955640 1_455
Nb1 O7 2.069893 1_555
Nb1 O8 2.069893 1_545
Nb1 O6 2.069893 1_445
Nb2 O10 1.961928 1_555
Nb2 O9 1.961928 1_445
Nb2 O11 1.961928 1_545
Nb2 O45 2.077904 1_445
Nb2 O47 2.077904 1_555
Nb2 O46 2.077904 1_455
Nb3 O19 1.996146 1_556
Nb3 O20 1.996146 1_556
Nb3 O18 1.996146 1_556
Nb3 O56 2.023572 1_555
Nb3 O54 2.023572 1_555
Nb3 O55 2.023572 1_555
Nb4 O57 1.949535 1_555
Nb4 O59 1.949535 1_555
Nb4 O58 1.949536 1_555
Nb4 O22 2.071871 1_555
Nb4 O21 2.071871 1_555
Nb4 O23 2.071871 1_555
Nb5 O62 1.935940 1_555
Nb5 O60 1.935940 1_555
Nb5 O61 1.935940 1_555
Nb5 O25 2.056104 1_554
Nb5 O26 2.056104 1_554
Nb5 O24 2.056104 1_554
Nb6 O28 1.972536 1_555
Nb6 O27 1.972536 1_555
Nb6 O29 1.972536 1_555
Nb6 O63 1.993090 1_555
Nb6 O65 1.993090 1_555
Nb6 O64 1.993090 1_555
Nb7 O68 1.952496 1_555
Nb7 O66 1.952496 1_555
Nb7 O67 1.952496 1_555
Nb7 O32 2.065814 1_555
Nb7 O31 2.065814 1_555
Nb7 O30 2.065814 1_555
Nb8 O69 1.955126 1_555
Nb8 O71 1.955126 1_555
Nb8 O70 1.955126 1_555
Nb8 O34 2.057087 1_555
Nb8 O33 2.057087 1_555
Nb8 O35 2.057087 1_555
In0 O2 2.089946 1_455
In0 O1 2.089946 1_445
In0 O0 2.089946 1_555
In0 O38 2.117087 1_555
In0 O36 2.117087 1_545
In0 O37 2.117088 1_445
In1 O13 2.118118 1_555
In1 O14 2.118118 1_555
In1 O12 2.118118 1_555
In1 O50 2.133873 1_555
In1 O48 2.133873 1_555
In1 O49 2.133873 1_555
In2 O51 2.064706 1_555
In2 O53 2.064706 1_555
In2 O52 2.064706 1_555
In2 O16 2.135552 1_555
In2 O15 2.135552 1_555
In2 O17 2.135552 1_555
O0 P0 1.494176 1_555
O1 P1 1.494177 1_555
O2 P2 1.494177 1_555
O3 P3 1.568849 1_555
O4 P4 1.568849 1_555
O5 P5 1.568849 1_555
O6 P5 1.545279 1_565
O7 P3 1.545279 1_555
O8 P4 1.545279 1_455
O9 P1 1.607253 1_555
O10 P2 1.607253 1_455
O11 P0 1.607253 1_565
O12 P6 1.503293 1_555
O13 P7 1.503293 1_555
O14 P8 1.503293 1_555
O15 P9 1.488463 1_555
O16 P10 1.488463 1_555
O17 P11 1.488463 1_555
O18 P11 1.578584 1_555
O19 P9 1.578584 1_555
O20 P10 1.578584 1_555
O21 P7 1.544372 1_555
O22 P8 1.544372 1_555
O23 P6 1.544372 1_555
O24 P12 1.537494 1_555
O25 P13 1.537494 1_555
O26 P14 1.537494 1_555
O27 P15 1.560925 1_555
O28 P16 1.560925 1_555
O29 P17 1.560925 1_555
O30 P17 1.545214 1_555
O31 P15 1.545214 1_555
O32 P16 1.545214 1_555
O33 P13 1.541758 1_555
O34 P14 1.541758 1_555
O35 P12 1.541758 1_555
O36 P17 1.489632 1_555
O37 P15 1.489640 1_555
O38 P16 1.489637 1_555
O39 P13 1.551043 1_555
O40 P14 1.551035 1_555
O41 P12 1.551040 1_555
O42 P6 1.582884 1_555
O43 P7 1.582893 1_555
O44 P8 1.582889 1_555
O45 P9 1.539356 1_555
O46 P10 1.539347 1_555
O47 P11 1.539353 1_555
O48 P5 1.493901 1_555
O49 P3 1.493910 1_555
O50 P4 1.493907 1_555
O51 P1 1.491629 1_555
O52 P2 1.491621 1_555
O53 P0 1.491626 1_555
O54 P12 1.552231 1_555
O55 P13 1.552214 1_655
O56 P14 1.552221 1_545
O57 P15 1.580175 1_545
O58 P16 1.580192 1_555
O59 P17 1.580182 1_655
O60 P11 1.577244 1_555
O61 P9 1.577227 1_455
O62 P10 1.577233 1_565
O63 P7 1.548942 1_565
O64 P8 1.548959 1_555
O65 P6 1.548948 1_455
O66 P0 1.579843 1_565
O67 P1 1.579851 1_555
O68 P2 1.579847 1_455
O69 P3 1.579219 1_555
O70 P4 1.579211 1_455
O71 P5 1.579216 1_565
