# generated using pymatgen
data_Na3Zr2Ta2Si3(PO8)3
_symmetry_space_group_name_H-M   'P 1'
_cell_length_a   8.95741433
_cell_length_b   8.91425903
_cell_length_c   22.96699302
_cell_angle_alpha   90.02362978
_cell_angle_beta   90.00048754
_cell_angle_gamma   119.80360729
_symmetry_Int_Tables_number   1
_chemical_formula_structural   Na3Zr2Ta2Si3(PO8)3
_chemical_formula_sum   'Na9 Zr6 Ta6 Si9 P9 O72'
_cell_volume   1591.32430737
_cell_formula_units_Z   3
loop_
 _symmetry_equiv_pos_site_id
 _symmetry_equiv_pos_as_xyz
  1  'x, y, z'
loop_
 _atom_site_type_symbol
 _atom_site_label
 _atom_site_symmetry_multiplicity
 _atom_site_fract_x
 _atom_site_fract_y
 _atom_site_fract_z
 _atom_site_occupancy
  Na  Na0  1  0.99969025  0.63290208  0.25176838  1
  Na  Na1  1  0.66542054  0.96202294  0.58466395  1
  Na  Na2  1  0.66694247  0.70075188  0.08150837  1
  Na  Na3  1  0.01383944  0.99981158  0.50049471  1
  Na  Na4  1  0.00996366  0.00942355  0.99807087  1
  Na  Na5  1  0.66791747  0.33458259  0.83317585  1
  Na  Na6  1  0.65924697  0.32619820  0.33401017  1
  Na  Na7  1  0.33329802  0.66664977  0.16664422  1
  Na  Na8  1  0.32385435  0.66265452  0.66786112  1
  Zr  Zr0  1  0.00712606  0.99593602  0.64780710  1
  Zr  Zr1  1  0.00082595  0.00137520  0.14462494  1
  Zr  Zr2  1  0.66584766  0.33191820  0.18833430  1
  Zr  Zr3  1  0.32466495  0.66358727  0.01708832  1
  Zr  Zr4  1  0.32875188  0.66961394  0.51934047  1
  Zr  Zr5  1  0.34133719  0.67031721  0.31654388  1
  Ta  Ta0  1  0.99406931  0.99482377  0.35507559  1
  Ta  Ta1  1  0.99040772  0.99398808  0.85284225  1
  Ta  Ta2  1  0.66575033  0.33055039  0.69032508  1
  Ta  Ta3  1  0.67277021  0.33832523  0.97662063  1
  Ta  Ta4  1  0.66462666  0.33337940  0.47821713  1
  Ta  Ta5  1  0.33322282  0.66581208  0.81372452  1
  Si  Si0  1  0.70566536  0.71064047  0.24882764  1
  Si  Si1  1  0.00168635  0.70688396  0.75085851  1
  Si  Si2  1  0.70751803  0.99622551  0.74845725  1
  Si  Si3  1  0.37803168  0.04940923  0.58347923  1
  Si  Si4  1  0.95984118  0.62195109  0.08394751  1
  Si  Si5  1  0.62287827  0.66708391  0.91775466  1
  Si  Si6  1  0.04324757  0.37275847  0.91518286  1
  Si  Si7  1  0.62830555  0.96136010  0.41887547  1
  Si  Si8  1  0.03857907  0.66536486  0.41490042  1
  P  P0  1  0.28647634  0.00080592  0.25172527  1
  P  P1  1  0.00165027  0.28832664  0.25115878  1
  P  P2  1  0.28921668  0.28953831  0.75139798  1
  P  P3  1  0.94951903  0.33577711  0.58398963  1
  P  P4  1  0.66523348  0.61605943  0.58409012  1
  P  P5  1  0.66559457  0.04615106  0.08158785  1
  P  P6  1  0.38096735  0.33224753  0.08096083  1
  P  P7  1  0.33280657  0.95930460  0.91497025  1
  P  P8  1  0.33190866  0.37135557  0.41738839  1
  O  O0  1  0.19528144  0.02261789  0.30559351  1
  O  O1  1  0.83653730  0.81572630  0.30426736  1
  O  O2  1  0.98631192  0.17761439  0.30509789  1
  O  O3  1  0.20408111  0.17431269  0.80443813  1
  O  O4  1  0.97611650  0.80586069  0.80648015  1
  O  O5  1  0.83544920  0.02723945  0.80418864  1
  O  O6  1  0.78717977  0.96865445  0.68891579  1
  O  O7  1  0.18054133  0.21312234  0.69623479  1
  O  O8  1  0.03711783  0.82541502  0.69336132  1
  O  O9  1  0.79661617  0.82024042  0.18977765  1
  O  O10  1  0.02368050  0.20445916  0.19588107  1
  O  O11  1  0.17647034  0.97570801  0.19681052  1
  O  O12  1  0.85861618  0.35544570  0.63908922  1
  O  O13  1  0.50205742  0.14888312  0.64015295  1
  O  O14  1  0.65161278  0.50783829  0.63857983  1
  O  O15  1  0.86939433  0.51276411  0.14304485  1
  O  O16  1  0.64293504  0.12927700  0.13700179  1
  O  O17  1  0.49066252  0.35733075  0.13604310  1
  O  O18  1  0.47249186  0.31076201  0.02691667  1
  O  O19  1  0.82934313  0.51659137  0.02796881  1
  O  O20  1  0.68058322  0.15690518  0.02749455  1
  O  O21  1  0.48230335  0.16711841  0.52707285  1
  O  O22  1  0.68607932  0.52781110  0.52924100  1
  O  O23  1  0.83723722  0.31617804  0.52989567  1
  O  O24  1  0.55077469  0.70193425  0.97746725  1
  O  O25  1  0.15624523  0.45702065  0.97291282  1
  O  O26  1  0.29974777  0.84868754  0.96948446  1
  O  O27  1  0.55075173  0.84609054  0.47748701  1
  O  O28  1  0.30066468  0.45179389  0.47161001  1
  O  O29  1  0.16078246  0.69805164  0.47133813  1
  O  O30  1  0.11351063  0.62945192  0.35568160  1
  O  O31  1  0.50850071  0.87530279  0.36250743  1
  O  O32  1  0.36626735  0.48414720  0.36336694  1
  O  O33  1  0.13714541  0.50035175  0.85983779  1
  O  O34  1  0.36099156  0.86878296  0.86172674  1
  O  O35  1  0.49872341  0.64232781  0.86230144  1
  O  O36  1  0.02141837  0.84051398  0.40729828  1
  O  O37  1  0.82215346  0.99011888  0.40687525  1
  O  O38  1  0.17502753  0.18958851  0.40744557  1
  O  O39  1  0.02342877  0.18298616  0.90537644  1
  O  O40  1  0.17561897  0.98310542  0.90506493  1
  O  O41  1  0.81722057  0.83216350  0.90596426  1
  O  O42  1  0.95431522  0.16551953  0.58743975  1
  O  O43  1  0.19034249  0.03335350  0.58535860  1
  O  O44  1  0.82439939  0.79988442  0.58728163  1
  O  O45  1  0.96269985  0.80747864  0.08446334  1
  O  O46  1  0.83128113  0.03157826  0.08457024  1
  O  O47  1  0.20123369  0.17331348  0.08534823  1
  O  O48  1  0.68761531  0.17078959  0.74260015  1
  O  O49  1  0.47181538  0.31142161  0.74254201  1
  O  O50  1  0.82675745  0.51844351  0.74231646  1
  O  O51  1  0.70291467  0.52505787  0.24845875  1
  O  O52  1  0.83583893  0.30291547  0.24835581  1
  O  O53  1  0.46640756  0.15968931  0.24757640  1
  O  O54  1  0.64009600  0.49098790  0.92386137  1
  O  O55  1  0.84883000  0.34898774  0.92453098  1
  O  O56  1  0.49612449  0.13829119  0.92310886  1
  O  O57  1  0.65222712  0.15516380  0.42695870  1
  O  O58  1  0.49383393  0.35122585  0.42586179  1
  O  O59  1  0.84530735  0.50338588  0.42742041  1
  O  O60  1  0.37321933  0.50112243  0.07671568  1
  O  O61  1  0.14989001  0.64607983  0.07930698  1
  O  O62  1  0.51132467  0.86154785  0.07729765  1
  O  O63  1  0.37344626  0.86297567  0.58086442  1
  O  O64  1  0.50256309  0.63319190  0.58057646  1
  O  O65  1  0.12859798  0.49424017  0.57988270  1
  O  O66  1  0.29433485  0.83217685  0.25632666  1
  O  O67  1  0.51594394  0.68736669  0.25416461  1
  O  O68  1  0.15598853  0.47272543  0.25564180  1
  O  O69  1  0.31360395  0.47301337  0.76034852  1
  O  O70  1  0.16858888  0.68242079  0.76069800  1
  O  O71  1  0.51741956  0.83085449  0.76120011  1
loop_
_geom_bond_atom_site_label_1
_geom_bond_atom_site_label_2
_geom_bond_distance
_geom_bond_site_symmetry_2
Na0 O51 2.335868 1_555
Na0 O66 2.339132 1_655
Na0 O68 2.448271 1_655
Na0 O52 2.553686 1_555
Na0 O30 2.601408 1_655
Na0 O15 2.738541 1_555
Na0 O1 2.934563 1_555
Na0 O11 2.938021 1_655
Na1 O42 2.307542 1_565
Na1 O63 2.309037 1_555
Na1 O44 2.483262 1_555
Na1 O64 2.545264 1_555
Na1 O6 2.619480 1_555
Na1 O27 2.669240 1_555
Na2 O45 2.328648 1_555
Na2 O60 2.333824 1_555
Na2 O62 2.448110 1_555
Na2 O46 2.559951 1_565
Na2 O24 2.608358 1_554
Na2 O9 2.726702 1_555
Na2 O17 2.938007 1_555
Na2 O19 2.948804 1_555
Na3 O43 2.432574 1_565
Na3 O36 2.587640 1_555
Na3 O44 2.650553 1_455
Na3 O38 2.662438 1_565
Na3 O42 2.689661 1_465
Na3 O37 2.726001 1_455
Na4 O47 2.568486 1_556
Na4 O45 2.569480 1_446
Na4 O39 2.599578 1_555
Na4 O46 2.619419 1_456
Na4 O40 2.676808 1_545
Na4 O41 2.690327 1_445
Na5 O54 2.585914 1_555
Na5 O48 2.596929 1_555
Na5 O50 2.598077 1_555
Na5 O55 2.614889 1_555
Na5 O56 2.649984 1_555
Na5 O49 2.664626 1_555
Na6 O51 2.543562 1_555
Na6 O53 2.564456 1_555
Na6 O52 2.596387 1_555
Na6 O57 2.606345 1_555
Na6 O58 2.650211 1_555
Na6 O59 2.693573 1_555
Na7 O67 2.539771 1_555
Na7 O61 2.540931 1_555
Na7 O68 2.638664 1_555
Na7 O62 2.649743 1_555
Na7 O66 2.655371 1_555
Na7 O60 2.663263 1_555
Na8 O63 2.567635 1_555
Na8 O70 2.599011 1_555
Na8 O65 2.604413 1_555
Na8 O64 2.658508 1_555
Na8 O69 2.688303 1_555
Na8 O71 2.694980 1_555
O0 P0 1.547072 1_555
O0 Ta0 2.039047 1_445
O1 Si0 1.667446 1_555
O1 Ta0 1.913299 1_555
O2 P1 1.547184 1_655
O2 Ta0 2.022754 1_545
O3 P2 1.530666 1_555
O3 Ta1 2.103859 1_445
O4 Si1 1.631804 1_655
O4 Ta1 1.935894 1_555
O5 Si2 1.647029 1_545
O5 Ta1 1.916338 1_545
O6 Si2 1.616687 1_555
O6 Zr0 2.087098 1_655
O7 P2 1.535203 1_555
O7 Zr0 2.099280 1_545
O8 Si1 1.621355 1_555
O8 Zr0 1.970952 1_555
O9 Si0 1.633223 1_555
O9 Zr1 2.023353 1_665
O10 P1 1.534775 1_555
O10 Zr1 2.082038 1_555
O11 P0 1.546706 1_565
O11 Zr1 2.078998 1_565
O12 P3 1.561064 1_555
O12 Ta2 2.009383 1_555
O13 Si3 1.653631 1_555
O13 Ta2 1.933473 1_555
O14 P4 1.547810 1_555
O14 Ta2 2.031387 1_555
O15 Si4 1.631931 1_555
O15 Zr2 2.021059 1_555
O16 P5 1.535828 1_555
O16 Zr2 2.079621 1_555
O17 P6 1.548299 1_555
O17 Zr2 2.075961 1_555
O18 P6 1.550921 1_555
O18 Ta3 2.043328 1_554
O19 Si4 1.676025 1_555
O19 Ta3 1.914677 1_554
O20 P5 1.550960 1_555
O20 Ta3 2.024744 1_554
O21 Si3 1.636637 1_555
O21 Ta4 1.928242 1_555
O22 P4 1.544607 1_555
O22 Ta4 2.020265 1_555
O23 P3 1.552640 1_555
O23 Ta4 2.014597 1_555
O24 Si5 1.610452 1_555
O24 Zr3 2.087834 1_556
O25 Si6 1.609364 1_555
O25 Zr3 1.983175 1_556
O26 P7 1.529169 1_555
O26 Zr3 2.082147 1_556
O27 Si7 1.625447 1_555
O27 Zr4 2.060269 1_555
O28 P8 1.530368 1_555
O28 Zr4 2.132570 1_555
O29 Si8 1.626611 1_555
O29 Zr4 1.980602 1_555
O30 Si8 1.617422 1_555
O30 Zr5 2.089641 1_555
O31 Si7 1.611501 1_555
O31 Zr5 1.993488 1_555
O32 P8 1.529199 1_555
O32 Zr5 2.080949 1_555
O33 Si6 1.633116 1_555
O33 Ta5 1.951432 1_555
O34 P7 1.553038 1_555
O34 Ta5 2.025333 1_555
O35 Si5 1.631963 1_555
O35 Ta5 1.948045 1_555
O36 Si8 1.652466 1_555
O36 Ta0 1.930560 1_455
O37 Si7 1.647499 1_555
O37 Ta0 1.929853 1_555
O38 P8 1.545501 1_555
O38 Ta0 2.071026 1_445
O39 Si6 1.626399 1_555
O39 Ta1 1.970960 1_445
O40 P7 1.541495 1_555
O40 Ta1 2.088143 1_455
O41 Si5 1.650176 1_555
O41 Ta1 1.937260 1_555
O42 P3 1.541595 1_555
O42 Zr0 2.268014 1_645
O43 Si3 1.615434 1_555
O43 Zr0 2.077976 1_545
O44 P4 1.549442 1_555
O44 Zr0 2.195470 1_655
O45 Si4 1.641302 1_555
O45 Zr1 2.103468 1_665
O46 P5 1.554299 1_555
O46 Zr1 2.165183 1_655
O47 P6 1.530388 1_555
O47 Zr1 2.166062 1_555
O48 Si2 1.657497 1_545
O48 Ta2 1.945938 1_555
O49 P2 1.561256 1_555
O49 Ta2 2.047137 1_555
O50 Si1 1.642774 1_655
O50 Ta2 1.976934 1_555
O51 Si0 1.642243 1_555
O51 Zr2 2.100259 1_555
O52 P1 1.555316 1_655
O52 Zr2 2.162705 1_555
O53 P0 1.530901 1_555
O53 Zr2 2.162214 1_555
O54 Si5 1.657849 1_555
O54 Ta3 1.950177 1_555
O55 Si6 1.660411 1_655
O55 Ta3 1.943823 1_555
O56 P7 1.549279 1_545
O56 Ta3 2.094563 1_555
O57 Si7 1.642189 1_545
O57 Ta4 1.935240 1_555
O58 P8 1.559669 1_555
O58 Ta4 2.013385 1_555
O59 Si8 1.637121 1_655
O59 Ta4 1.959703 1_555
O60 P6 1.544187 1_555
O60 Zr3 2.188556 1_555
O61 Si4 1.609859 1_455
O61 Zr3 2.067502 1_555
O62 P5 1.538387 1_565
O62 Zr3 2.210610 1_555
O63 Si3 1.642962 1_565
O63 Zr4 2.107126 1_555
O64 P4 1.540849 1_555
O64 Zr4 2.238337 1_555
O65 P3 1.524811 1_455
O65 Zr4 2.192583 1_555
O66 P0 1.543068 1_565
O66 Zr5 2.185706 1_555
O67 Si0 1.611092 1_555
O67 Zr5 2.070199 1_555
O68 P1 1.537765 1_555
O68 Zr5 2.215024 1_555
O69 P2 1.552272 1_555
O69 Ta5 2.045847 1_555
O70 Si1 1.630279 1_555
O70 Ta5 1.974077 1_555
O71 Si2 1.631991 1_555
O71 Ta5 1.982550 1_555
