# generated using pymatgen
data_Mg(CoO2)4
_symmetry_space_group_name_H-M   'P 1'
_cell_length_a   6.17698780
_cell_length_b   6.12441136
_cell_length_c   5.84847407
_cell_angle_alpha   121.70460016
_cell_angle_beta   121.71081811
_cell_angle_gamma   90.26226721
_symmetry_Int_Tables_number   1
_chemical_formula_structural   Mg(CoO2)4
_chemical_formula_sum   'Mg1 Co4 O8'
_cell_volume   147.58707698
_cell_formula_units_Z   1
loop_
 _symmetry_equiv_pos_site_id
 _symmetry_equiv_pos_as_xyz
  1  'x, y, z'
loop_
 _atom_site_type_symbol
 _atom_site_label
 _atom_site_symmetry_multiplicity
 _atom_site_fract_x
 _atom_site_fract_y
 _atom_site_fract_z
 _atom_site_occupancy
  Mg  Mg0  1  0.37471700  0.13089500  0.24763900  1
  Co  Co0  1  0.50144700  0.51014900  0.01431500  1
  Co  Co1  1  0.99111200  0.99374700  0.48156400  1
  Co  Co2  1  0.01390600  0.50968500  0.01434500  1
  Co  Co3  1  0.99332700  0.49280100  0.48535300  1
  O  O0  1  0.76136800  0.72507100  0.02091000  1
  O  O1  1  0.20741700  0.74005300  0.48200600  1
  O  O2  1  0.23800200  0.26825500  0.97593800  1
  O  O3  1  0.23453300  0.71609600  0.96714100  1
  O  O4  1  0.78500100  0.25884700  0.51905200  1
  O  O5  1  0.23668100  0.26008100  0.52006800  1
  O  O6  1  0.77059900  0.28705500  0.04123200  1
  O  O7  1  0.77284900  0.73821800  0.48044000  1
loop_
_geom_bond_atom_site_label_1
_geom_bond_atom_site_label_2
_geom_bond_distance
_geom_bond_site_symmetry_2
Mg0 O2 1.986641 1_554
Mg0 O3 2.000197 1_544
Mg0 O5 2.000230 1_555
Mg0 O4 2.000458 1_555
Co0 O7 1.834389 1_555
Co0 O5 1.931306 1_554
Co0 O2 2.034124 1_554
Co0 O0 2.043029 1_555
Co0 O3 2.071691 1_554
Co0 O6 2.151142 1_555
Co1 O0 1.810960 1_555
Co1 O2 1.934908 1_665
Co1 O1 2.053988 1_655
Co1 O7 2.056058 1_555
Co1 O4 2.059904 1_565
Co1 O5 2.060198 1_665
Co2 O1 1.841680 1_555
Co2 O4 1.935770 1_454
Co2 O2 2.037005 1_554
Co2 O0 2.050235 1_455
Co2 O3 2.068357 1_554
Co2 O6 2.144192 1_455
Co3 O6 1.736234 1_555
Co3 O3 1.883444 1_655
Co3 O1 2.020462 1_655
Co3 O7 2.034128 1_555
Co3 O4 2.072276 1_555
Co3 O5 2.082102 1_655
