# generated using pymatgen
data_Na3Y2(PO4)3
_symmetry_space_group_name_H-M   'P 1'
_cell_length_a   16.23164503
_cell_length_b   9.30829624
_cell_length_c   9.42660017
_cell_angle_alpha   90.00000000
_cell_angle_beta   125.10901873
_cell_angle_gamma   90.00000000
_symmetry_Int_Tables_number   1
_chemical_formula_structural   Na3Y2(PO4)3
_chemical_formula_sum   'Na12 Y8 P12 O48'
_cell_volume   1165.12508301
_cell_formula_units_Z   4
loop_
 _symmetry_equiv_pos_site_id
 _symmetry_equiv_pos_as_xyz
  1  'x, y, z'
loop_
 _atom_site_type_symbol
 _atom_site_label
 _atom_site_symmetry_multiplicity
 _atom_site_fract_x
 _atom_site_fract_y
 _atom_site_fract_z
 _atom_site_occupancy
  Na  Na0  1  0.24252493  0.77448550  0.99678222  1
  Na  Na1  1  0.74252493  0.72551450  0.49678222  1
  Na  Na2  1  0.74252493  0.27448550  0.99678222  1
  Na  Na3  1  0.24252493  0.22551450  0.49678222  1
  Na  Na4  1  0.50184129  0.09932267  0.74372917  1
  Na  Na5  1  0.50184129  0.90067733  0.24372917  1
  Na  Na6  1  0.00184129  0.59932267  0.74372917  1
  Na  Na7  1  0.00184129  0.40067733  0.24372917  1
  Na  Na8  1  0.81079632  0.93141029  0.19820827  1
  Na  Na9  1  0.81079632  0.06858971  0.69820827  1
  Na  Na10  1  0.31079632  0.43141029  0.19820827  1
  Na  Na11  1  0.31079632  0.56858971  0.69820827  1
  Y  Y0  1  0.10372906  0.76182860  0.55274006  1
  Y  Y1  1  0.89845129  0.75025234  0.94393572  1
  Y  Y2  1  0.89845129  0.24974766  0.44393572  1
  Y  Y3  1  0.10372906  0.23817140  0.05274006  1
  Y  Y4  1  0.60372906  0.26182860  0.55274006  1
  Y  Y5  1  0.39845129  0.25025234  0.94393572  1
  Y  Y6  1  0.39845129  0.74974766  0.44393572  1
  Y  Y7  1  0.60372906  0.73817140  0.05274006  1
  P  P0  1  0.99613892  0.94331504  0.74155006  1
  P  P1  1  0.99613892  0.05668496  0.24155006  1
  P  P2  1  0.49613892  0.44331504  0.74155006  1
  P  P3  1  0.49613892  0.55668496  0.24155006  1
  P  P4  1  0.35599533  0.89795129  0.76166896  1
  P  P5  1  0.65283328  0.90503402  0.74934765  1
  P  P6  1  0.65283328  0.09496598  0.24934765  1
  P  P7  1  0.35599533  0.10204871  0.26166896  1
  P  P8  1  0.85599533  0.39795129  0.76166896  1
  P  P9  1  0.15283328  0.40503402  0.74934765  1
  P  P10  1  0.15283328  0.59496598  0.24934765  1
  P  P11  1  0.85599533  0.60204871  0.26166896  1
  O  O0  1  0.15882066  0.57254539  0.74906062  1
  O  O1  1  0.84625319  0.56401627  0.74906939  1
  O  O2  1  0.84625319  0.43598373  0.24906939  1
  O  O3  1  0.15882066  0.42745461  0.24906062  1
  O  O4  1  0.65882066  0.07254539  0.74906062  1
  O  O5  1  0.34625319  0.06401627  0.74906939  1
  O  O6  1  0.34625319  0.93598373  0.24906939  1
  O  O7  1  0.65882066  0.92745461  0.24906062  1
  O  O8  1  0.43596542  0.53681560  0.57603380  1
  O  O9  1  0.55210725  0.54185037  0.90160158  1
  O  O10  1  0.55210725  0.45814963  0.40160158  1
  O  O11  1  0.43596542  0.46318440  0.07603380  1
  O  O12  1  0.93596542  0.03681560  0.57603380  1
  O  O13  1  0.05210725  0.04185037  0.90160158  1
  O  O14  1  0.05210725  0.95814963  0.40160158  1
  O  O15  1  0.93596542  0.96318440  0.07603380  1
  O  O16  1  0.26725226  0.82540040  0.75284757  1
  O  O17  1  0.74092954  0.84399956  0.74716609  1
  O  O18  1  0.74092954  0.15600044  0.24716609  1
  O  O19  1  0.26725226  0.17459960  0.25284757  1
  O  O20  1  0.76725226  0.32540040  0.75284757  1
  O  O21  1  0.24092954  0.34399956  0.74716609  1
  O  O22  1  0.24092954  0.65600044  0.24716609  1
  O  O23  1  0.76725226  0.67459960  0.25284757  1
  O  O24  1  0.35927724  0.84547753  0.60917641  1
  O  O25  1  0.66016845  0.86393151  0.91671070  1
  O  O26  1  0.66016845  0.13606849  0.41671070  1
  O  O27  1  0.35927724  0.15452247  0.10917641  1
  O  O28  1  0.85927724  0.34547753  0.60917641  1
  O  O29  1  0.16016845  0.36393151  0.91671070  1
  O  O30  1  0.16016845  0.63606849  0.41671070  1
  O  O31  1  0.85927724  0.65452247  0.10917641  1
  O  O32  1  0.45528709  0.85237109  0.93374134  1
  O  O33  1  0.55162730  0.85062658  0.58801542  1
  O  O34  1  0.55162730  0.14937342  0.08801542  1
  O  O35  1  0.45528709  0.14762891  0.43374134  1
  O  O36  1  0.95528709  0.35237109  0.93374134  1
  O  O37  1  0.05162730  0.35062658  0.58801542  1
  O  O38  1  0.05162730  0.64937342  0.08801542  1
  O  O39  1  0.95528709  0.64762891  0.43374134  1
  O  O40  1  0.07281576  0.84092702  0.74566218  1
  O  O41  1  0.91718542  0.84874225  0.74295278  1
  O  O42  1  0.91718542  0.15125775  0.24295278  1
  O  O43  1  0.07281576  0.15907298  0.24566218  1
  O  O44  1  0.57281576  0.34092702  0.74566218  1
  O  O45  1  0.41718542  0.34874225  0.74295278  1
  O  O46  1  0.41718542  0.65125775  0.24295278  1
  O  O47  1  0.57281576  0.65907298  0.24566218  1
loop_
_geom_bond_atom_site_label_1
_geom_bond_atom_site_label_2
_geom_bond_distance
_geom_bond_site_symmetry_2
Na0 O40 2.464464 1_555
Na0 O6 2.478841 1_556
Na0 O16 2.595169 1_555
Na0 O22 2.618820 1_556
Na0 O46 2.677802 1_556
Na0 O0 2.680087 1_555
Na1 O47 2.464464 1_555
Na1 O1 2.478841 1_555
Na1 O23 2.595169 1_555
Na1 O17 2.618820 1_555
Na1 O41 2.677802 1_555
Na1 O7 2.680087 1_555
Na2 O44 2.464464 1_555
Na2 O2 2.478841 1_556
Na2 O20 2.595169 1_555
Na2 O18 2.618820 1_556
Na2 O42 2.677802 1_556
Na2 O4 2.680087 1_555
Na3 O43 2.464464 1_555
Na3 O5 2.478841 1_555
Na3 O19 2.595169 1_555
Na3 O21 2.618820 1_555
Na3 O45 2.677802 1_555
Na3 O3 2.680087 1_555
Na4 O44 2.522108 1_555
Na4 O4 2.531763 1_555
Na4 O5 2.575787 1_555
Na4 O35 2.602330 1_555
Na4 O45 2.695701 1_555
Na4 O34 2.895902 1_556
Na5 O47 2.522108 1_555
Na5 O7 2.531763 1_555
Na5 O6 2.575787 1_555
Na5 O32 2.602330 1_554
Na5 O46 2.695701 1_555
Na5 O33 2.895902 1_555
Na6 O40 2.522108 1_555
Na6 O0 2.531763 1_555
Na6 O1 2.575787 1_455
Na6 O39 2.602330 1_455
Na6 O41 2.695701 1_455
Na6 O38 2.895902 1_556
Na7 O43 2.522108 1_555
Na7 O3 2.531763 1_555
Na7 O2 2.575787 1_455
Na7 O36 2.602330 1_454
Na7 O42 2.695701 1_455
Na7 O37 2.895902 1_555
Na8 O25 2.439456 1_554
Na8 O18 2.543912 1_565
Na8 O42 2.551457 1_565
Na8 O23 2.626392 1_555
Na8 O7 2.770653 1_555
Na8 O15 2.869350 1_555
Na8 O31 2.953990 1_555
Na8 O12 3.074416 1_565
Na9 O26 2.439456 1_555
Na9 O17 2.543912 1_545
Na9 O41 2.551457 1_545
Na9 O20 2.626392 1_555
Na9 O4 2.770653 1_555
Na9 O12 2.869350 1_555
Na9 O28 2.953990 1_555
Na9 O15 3.074416 1_546
Na10 O29 2.439456 1_554
Na10 O22 2.543912 1_555
Na10 O46 2.551457 1_555
Na10 O19 2.626392 1_555
Na10 O3 2.770653 1_555
Na10 O11 2.869350 1_555
Na10 O27 2.953990 1_555
Na10 O8 3.074416 1_555
Na11 O30 2.439456 1_555
Na11 O21 2.543912 1_555
Na11 O45 2.551457 1_555
Na11 O16 2.626392 1_555
Na11 O0 2.770653 1_555
Na11 O8 2.869350 1_555
Na11 O24 2.953990 1_555
Na11 O11 3.074416 1_556
O0 P9 1.562370 1_555
O0 Y0 2.329213 1_555
O1 P8 1.551435 1_555
O1 Y1 2.303712 1_555
O2 P11 1.551435 1_555
O2 Y2 2.303712 1_555
O3 P10 1.562370 1_555
O3 Y3 2.329213 1_555
O4 P5 1.562370 1_545
O4 Y4 2.329213 1_555
O5 P4 1.551435 1_545
O5 Y5 2.303712 1_555
O6 P7 1.551435 1_565
O6 Y6 2.303712 1_555
O7 P6 1.562370 1_565
O7 Y7 2.329213 1_555
O8 P2 1.546908 1_555
O8 Y6 2.231069 1_555
O9 P2 1.538264 1_555
O9 Y7 2.167531 1_556
O10 P3 1.538264 1_555
O10 Y4 2.167531 1_555
O11 P3 1.546908 1_555
O11 Y5 2.231069 1_554
O12 P0 1.546908 1_545
O12 Y2 2.231069 1_555
O13 P0 1.538264 1_445
O13 Y3 2.167531 1_556
O14 P1 1.538264 1_465
O14 Y0 2.167531 1_555
O15 P1 1.546908 1_565
O15 Y1 2.231069 1_554
O16 P4 1.549220 1_555
O16 Y0 2.279100 1_555
O17 P5 1.549763 1_555
O17 Y1 2.298733 1_555
O18 P6 1.549763 1_555
O18 Y2 2.298733 1_555
O19 P7 1.549220 1_555
O19 Y3 2.279100 1_555
O20 P8 1.549220 1_555
O20 Y4 2.279100 1_555
O21 P9 1.549763 1_555
O21 Y5 2.298733 1_555
O22 P10 1.549763 1_555
O22 Y6 2.298733 1_555
O23 P11 1.549220 1_555
O23 Y7 2.279100 1_555
O24 P4 1.547857 1_555
O24 Y6 2.182642 1_555
O25 P5 1.559972 1_555
O25 Y7 2.281468 1_556
O26 P6 1.559972 1_555
O26 Y4 2.281468 1_555
O27 P7 1.547857 1_555
O27 Y5 2.182642 1_554
O28 P8 1.547857 1_555
O28 Y2 2.182642 1_555
O29 P9 1.559972 1_555
O29 Y3 2.281468 1_556
O30 P10 1.559972 1_555
O30 Y0 2.281468 1_555
O31 P11 1.547857 1_555
O31 Y1 2.182642 1_554
O32 P4 1.549678 1_555
O32 Y7 2.254957 1_556
O33 P5 1.547332 1_555
O33 Y6 2.241384 1_555
O34 P6 1.547332 1_555
O34 Y5 2.241384 1_554
O35 P7 1.549678 1_555
O35 Y4 2.254957 1_555
O36 P8 1.549678 1_555
O36 Y3 2.254957 1_656
O37 P9 1.547332 1_555
O37 Y2 2.241384 1_455
O38 P10 1.547332 1_555
O38 Y1 2.241384 1_454
O39 P11 1.549678 1_555
O39 Y0 2.254957 1_655
O40 P0 1.550269 1_455
O40 Y0 2.269543 1_555
O41 P0 1.561081 1_555
O41 Y1 2.277078 1_555
O42 P1 1.561081 1_555
O42 Y2 2.277078 1_555
O43 P1 1.550269 1_455
O43 Y3 2.269543 1_555
O44 P2 1.550269 1_555
O44 Y4 2.269543 1_555
O45 P2 1.561081 1_555
O45 Y5 2.277078 1_555
O46 P3 1.561081 1_555
O46 Y6 2.277078 1_555
O47 P3 1.550269 1_555
O47 Y7 2.269543 1_555
