# generated using pymatgen
data_Ba3CoO5
_symmetry_space_group_name_H-M   'P 1'
_cell_length_a   7.26990506
_cell_length_b   7.26951290
_cell_length_c   11.81748632
_cell_angle_alpha   89.99317879
_cell_angle_beta   90.21899440
_cell_angle_gamma   89.99491302
_symmetry_Int_Tables_number   1
_chemical_formula_structural   Ba3CoO5
_chemical_formula_sum   'Ba12 Co4 O20'
_cell_volume   624.53384961
_cell_formula_units_Z   4
loop_
 _symmetry_equiv_pos_site_id
 _symmetry_equiv_pos_as_xyz
  1  'x, y, z'
loop_
 _atom_site_type_symbol
 _atom_site_label
 _atom_site_symmetry_multiplicity
 _atom_site_fract_x
 _atom_site_fract_y
 _atom_site_fract_z
 _atom_site_occupancy
  Ba  Ba0  1  0.00136840  0.00350425  0.25006214  1
  Ba  Ba1  1  0.49677585  0.49900269  0.74999661  1
  Ba  Ba2  1  0.50118854  0.49648185  0.25006096  1
  Ba  Ba3  1  -0.00326308  0.00156795  0.74999505  1
  Ba  Ba4  1  0.67857269  0.17731851  0.00064381  1
  Ba  Ba5  1  0.17562078  0.67713074  0.50032991  1
  Ba  Ba6  1  0.32400075  0.82259836  -0.00061887  1
  Ba  Ba7  1  0.82111699  0.32259750  0.49955997  1
  Ba  Ba8  1  0.82400138  0.67740367  -0.00066650  1
  Ba  Ba9  1  0.32111520  0.17743929  0.49953829  1
  Ba  Ba10  1  0.17853957  0.32267545  0.00068915  1
  Ba  Ba11  1  0.67561612  0.82295846  0.50036057  1
  Co  Co0  1  0.49722540  0.00046397  0.74999493  1
  Co  Co1  1  0.99733755  0.49991322  0.75000657  1
  Co  Co2  1  0.00064044  0.50389493  0.24995238  1
  Co  Co3  1  0.50084751  0.99613812  0.24994004  1
  O  O0  1  0.00168665  -0.00054344  0.00009775  1
  O  O1  1  0.49857294  0.49948430  0.50017933  1
  O  O2  1  0.50181471  0.50046956  0.00008758  1
  O  O3  1  -0.00130546  0.00052151  0.50016036  1
  O  O4  1  0.12963643  0.62913893  0.15049838  1
  O  O5  1  0.63180872  0.12701868  0.65452053  1
  O  O6  1  0.36778546  0.87201764  0.34796959  1
  O  O7  1  0.87264032  0.36995426  0.84921320  1
  O  O8  1  0.87390629  0.36839335  0.15488749  1
  O  O9  1  0.37057859  0.87156832  0.65075924  1
  O  O10  1  0.37379677  0.13148654  0.15496572  1
  O  O11  1  0.87054273  0.62812966  0.65051259  1
  O  O12  1  0.86797160  0.62819346  0.34807580  1
  O  O13  1  0.37245575  0.12965797  0.84951260  1
  O  O14  1  0.62415029  0.13324321  0.34641809  1
  O  O15  1  0.13398252  0.62541894  0.84555602  1
  O  O16  1  0.12422511  0.36687338  0.34633001  1
  O  O17  1  0.63382297  0.87436084  0.84523277  1
  O  O18  1  0.62967344  0.87082023  0.15043822  1
  O  O19  1  0.13155009  0.37270369  0.65473672  1
loop_
_geom_bond_atom_site_label_1
_geom_bond_atom_site_label_2
_geom_bond_distance
_geom_bond_site_symmetry_2
Ba0 O0 2.954111 1_555
Ba0 O3 2.955747 1_555
Ba0 O16 3.010472 1_555
Ba0 O8 3.025005 1_455
Ba0 O6 3.053519 1_545
Ba0 O10 3.079388 1_555
Ba0 O18 3.097520 1_445
Ba0 O4 3.109490 1_545
Ba0 O14 3.119328 1_455
Ba0 O12 3.119960 1_445
Ba1 O1 2.952293 1_555
Ba1 O2 2.955554 1_556
Ba1 O15 3.016395 1_555
Ba1 O19 3.022900 1_555
Ba1 O13 3.068662 1_555
Ba1 O9 3.089152 1_555
Ba1 O5 3.091574 1_555
Ba1 O11 3.109880 1_555
Ba1 O7 3.113863 1_555
Ba1 O17 3.114094 1_555
Ba2 O2 2.954217 1_555
Ba2 O1 2.955987 1_555
Ba2 O14 3.009886 1_555
Ba2 O10 3.025558 1_555
Ba2 O12 3.057059 1_555
Ba2 O8 3.081745 1_555
Ba2 O4 3.096044 1_555
Ba2 O18 3.109959 1_555
Ba2 O16 3.117098 1_555
Ba2 O6 3.121033 1_555
Ba3 O3 2.952517 1_555
Ba3 O0 2.955705 1_556
Ba3 O17 3.017547 1_445
Ba3 O5 3.019849 1_455
Ba3 O7 3.060836 1_455
Ba3 O19 3.084646 1_555
Ba3 O11 3.096192 1_445
Ba3 O9 3.111098 1_545
Ba3 O13 3.112403 1_555
Ba3 O15 3.120584 1_545
Ba4 O2 2.677538 1_555
Ba4 O7 2.678247 1_554
Ba4 O0 2.681274 1_655
Ba4 O8 2.692509 1_555
Ba4 O18 2.868514 1_545
Ba4 O13 2.869197 1_554
Ba4 O17 2.885430 1_544
Ba4 O10 2.894312 1_555
Ba5 O9 2.673686 1_555
Ba5 O1 2.679465 1_555
Ba5 O3 2.679655 1_565
Ba5 O6 2.686936 1_555
Ba5 O11 2.868074 1_455
Ba5 O19 2.886753 1_555
Ba5 O12 2.887165 1_455
Ba5 O16 2.921380 1_555
Ba6 O0 2.672676 1_565
Ba6 O2 2.674723 1_555
Ba6 O4 2.680047 1_555
Ba6 O15 2.692435 1_554
Ba6 O18 2.866654 1_555
Ba6 O13 2.871819 1_564
Ba6 O10 2.923992 1_565
Ba6 O17 2.926525 1_554
Ba7 O3 2.673556 1_655
Ba7 O1 2.674235 1_555
Ba7 O14 2.683570 1_555
Ba7 O5 2.699617 1_555
Ba7 O11 2.870658 1_555
Ba7 O12 2.873981 1_555
Ba7 O16 2.875546 1_655
Ba7 O19 2.925303 1_655
Ba8 O2 2.672332 1_555
Ba8 O0 2.673992 1_665
Ba8 O18 2.679736 1_555
Ba8 O17 2.694003 1_554
Ba8 O4 2.867170 1_655
Ba8 O7 2.876304 1_554
Ba8 O8 2.924158 1_555
Ba8 O15 2.924891 1_654
Ba9 O1 2.673141 1_555
Ba9 O3 2.673756 1_555
Ba9 O16 2.683748 1_555
Ba9 O19 2.701386 1_555
Ba9 O6 2.873746 1_545
Ba9 O9 2.874188 1_545
Ba9 O14 2.874257 1_555
Ba9 O5 2.925507 1_555
Ba10 O13 2.677198 1_554
Ba10 O0 2.678504 1_555
Ba10 O2 2.682267 1_555
Ba10 O10 2.692554 1_555
Ba10 O4 2.868707 1_555
Ba10 O7 2.870068 1_454
Ba10 O15 2.881621 1_554
Ba10 O8 2.892501 1_455
Ba11 O11 2.672544 1_555
Ba11 O3 2.680180 1_665
Ba11 O1 2.680796 1_555
Ba11 O12 2.686689 1_555
Ba11 O9 2.869085 1_555
Ba11 O5 2.882937 1_565
Ba11 O6 2.889194 1_555
Ba11 O14 2.920790 1_565
Co0 O17 1.756201 1_545
Co0 O5 1.756418 1_555
Co0 O9 1.758726 1_545
Co0 O13 1.759595 1_555
Co1 O19 1.755905 1_655
Co1 O15 1.756721 1_655
Co1 O11 1.758460 1_555
Co1 O7 1.759776 1_555
Co2 O8 1.753216 1_455
Co2 O16 1.757362 1_555
Co2 O4 1.760123 1_555
Co2 O12 1.760672 1_455
Co3 O10 1.752870 1_565
Co3 O14 1.757676 1_565
Co3 O18 1.760177 1_555
Co3 O6 1.760798 1_555
