# generated using pymatgen
data_Na3CaAlP2SO12
_symmetry_space_group_name_H-M   'P 1'
_cell_length_a   9.18053061
_cell_length_b   9.06081092
_cell_length_c   22.11404843
_cell_angle_alpha   92.20894706
_cell_angle_beta   90.00000000
_cell_angle_gamma   120.43805059
_symmetry_Int_Tables_number   1
_chemical_formula_structural   Na3CaAlP2SO12
_chemical_formula_sum   'Na18 Ca6 Al6 P12 S6 O72'
_cell_volume   1584.40182951
_cell_formula_units_Z   6
loop_
 _symmetry_equiv_pos_site_id
 _symmetry_equiv_pos_as_xyz
  1  'x, y, z'
loop_
 _atom_site_type_symbol
 _atom_site_label
 _atom_site_symmetry_multiplicity
 _atom_site_fract_x
 _atom_site_fract_y
 _atom_site_fract_z
 _atom_site_occupancy
  Na  Na0  1  0.36337057  0.35750365  0.24838463  1
  Na  Na1  1  0.99424201  0.63731066  0.24482089  1
  Na  Na2  1  0.64306865  0.63731066  0.74482089  1
  Na  Na3  1  0.99413308  0.35750365  0.74838463  1
  Na  Na4  1  0.03003757  0.69083665  0.58171763  1
  Na  Na5  1  0.66090901  0.97064366  0.57815389  1
  Na  Na6  1  0.30973565  0.97064366  0.07815389  1
  Na  Na7  1  0.66080008  0.69083665  0.08171763  1
  Na  Na8  1  0.69670357  0.02417065  0.91505163  1
  Na  Na9  1  0.32757501  0.30397766  0.91148789  1
  Na  Na10  1  0.97640165  0.30397766  0.41148789  1
  Na  Na11  1  0.32746608  0.02417065  0.41505163  1
  Na  Na12  1  0.98382348  0.98421836  0.49965012  1
  Na  Na13  1  0.00039488  0.98421836  0.99965012  1
  Na  Na14  1  0.65049048  0.31755136  0.83298312  1
  Na  Na15  1  0.66706188  0.31755136  0.33298312  1
  Na  Na16  1  0.31715648  0.65088536  0.16631712  1
  Na  Na17  1  0.33372788  0.65088536  0.66631712  1
  Ca  Ca0  1  0.98865942  0.99483897  0.35118042  1
  Ca  Ca1  1  0.00617955  0.99483897  0.85118042  1
  Ca  Ca2  1  0.65532642  0.32817197  0.68451342  1
  Ca  Ca3  1  0.67284655  0.32817197  0.18451342  1
  Ca  Ca4  1  0.32199242  0.66150597  0.01784742  1
  Ca  Ca5  1  0.33951255  0.66150597  0.51784742  1
  Al  Al0  1  0.98494848  0.01992247  0.64882899  1
  Al  Al1  1  0.03497400  0.01992247  0.14882899  1
  Al  Al2  1  0.65161548  0.35325547  0.98216199  1
  Al  Al3  1  0.70164100  0.35325547  0.48216199  1
  Al  Al4  1  0.31828148  0.68658947  0.31549599  1
  Al  Al5  1  0.36830700  0.68658947  0.81549599  1
  P  P0  1  0.29068384  0.98884724  0.25182040  1
  P  P1  1  0.02197176  0.30712588  0.25297734  1
  P  P2  1  0.28515412  0.30712588  0.75297734  1
  P  P3  1  0.69816340  0.98884724  0.75182040  1
  P  P4  1  0.95735084  0.32218024  0.58515340  1
  P  P5  1  0.68863876  0.64045888  0.58631034  1
  P  P6  1  0.95182112  0.64045888  0.08631034  1
  P  P7  1  0.36483040  0.32218024  0.08515340  1
  P  P8  1  0.62401684  0.65551424  0.91848740  1
  P  P9  1  0.35530476  0.97379288  0.91964434  1
  P  P10  1  0.61848712  0.97379288  0.41964434  1
  P  P11  1  0.03149640  0.65551424  0.41848740  1
  S  S0  1  0.68799545  0.70817638  0.24652323  1
  S  S1  1  0.02018093  0.70817638  0.74652323  1
  S  S2  1  0.35466245  0.04150938  0.57985623  1
  S  S3  1  0.68684793  0.04150938  0.07985623  1
  S  S4  1  0.02132845  0.37484338  0.91319023  1
  S  S5  1  0.35351393  0.37484338  0.41319023  1
  O  O0  1  0.21421993  0.01255666  0.30945075  1
  O  O1  1  0.79200587  0.78401361  0.30093283  1
  O  O2  1  0.99790701  0.21791578  0.31167081  1
  O  O3  1  0.22000876  0.21791578  0.81167081  1
  O  O4  1  0.99200774  0.78401361  0.80093283  1
  O  O5  1  0.79833673  0.01255666  0.80945075  1
  O  O6  1  0.79002177  0.96232527  0.69483920  1
  O  O7  1  0.15557082  0.20001823  0.69873018  1
  O  O8  1  0.03210213  0.80609745  0.69224982  1
  O  O9  1  0.77399532  0.80609745  0.19224982  1
  O  O10  1  0.04444740  0.20001823  0.19873018  1
  O  O11  1  0.17230350  0.96232527  0.19483920  1
  O  O12  1  0.88088693  0.34588966  0.64278375  1
  O  O13  1  0.45867287  0.11734661  0.63426583  1
  O  O14  1  0.66457401  0.55124878  0.64500381  1
  O  O15  1  0.88667576  0.55124878  0.14500381  1
  O  O16  1  0.65867474  0.11734661  0.13426583  1
  O  O17  1  0.46500373  0.34588966  0.14278375  1
  O  O18  1  0.45668877  0.29565827  0.02817220  1
  O  O19  1  0.82223782  0.53335123  0.03206318  1
  O  O20  1  0.69876913  0.13943045  0.02558282  1
  O  O21  1  0.44066232  0.13943045  0.52558282  1
  O  O22  1  0.71111440  0.53335123  0.53206318  1
  O  O23  1  0.83897050  0.29565827  0.52817220  1
  O  O24  1  0.54755293  0.67922366  0.97611775  1
  O  O25  1  0.12533887  0.45068061  0.96759983  1
  O  O26  1  0.33124001  0.88458278  0.97833781  1
  O  O27  1  0.55334176  0.88458278  0.47833781  1
  O  O28  1  0.32534074  0.45068061  0.46759983  1
  O  O29  1  0.13166973  0.67922366  0.47611775  1
  O  O30  1  0.12335477  0.62899227  0.36150620  1
  O  O31  1  0.48890382  0.86668523  0.36539718  1
  O  O32  1  0.36543513  0.47276445  0.35891682  1
  O  O33  1  0.10732832  0.47276445  0.85891682  1
  O  O34  1  0.37778040  0.86668523  0.86539718  1
  O  O35  1  0.50563650  0.62899227  0.86150620  1
  O  O36  1  0.01037814  0.81107136  0.41258773  1
  O  O37  1  0.79987667  0.01206990  0.41102364  1
  O  O38  1  0.20332623  0.19706064  0.40933900  1
  O  O39  1  0.99373441  0.19706064  0.90933900  1
  O  O40  1  0.21219323  0.01206990  0.91102364  1
  O  O41  1  0.80069322  0.81107136  0.91258773  1
  O  O42  1  0.95975705  0.14874009  0.58871541  1
  O  O43  1  0.18562508  0.02820850  0.58531036  1
  O  O44  1  0.86107215  0.82197892  0.59096426  1
  O  O45  1  0.96090677  0.82197892  0.09096426  1
  O  O46  1  0.84258343  0.02820850  0.08531036  1
  O  O47  1  0.18898303  0.14874009  0.08871541  1
  O  O48  1  0.67704514  0.14440436  0.74592073  1
  O  O49  1  0.46654367  0.34540290  0.74435664  1
  O  O50  1  0.86999323  0.53039364  0.74267200  1
  O  O51  1  0.66040141  0.53039364  0.24267200  1
  O  O52  1  0.87886023  0.34540290  0.24435664  1
  O  O53  1  0.46736022  0.14440436  0.24592073  1
  O  O54  1  0.62642405  0.48207309  0.92204841  1
  O  O55  1  0.85229208  0.36154150  0.91864336  1
  O  O56  1  0.52773915  0.15531192  0.92429726  1
  O  O57  1  0.62757377  0.15531192  0.42429726  1
  O  O58  1  0.50925043  0.36154150  0.41864336  1
  O  O59  1  0.85565003  0.48207309  0.42204841  1
  O  O60  1  0.34371114  0.47773836  0.07925473  1
  O  O61  1  0.13320967  0.67873690  0.07769064  1
  O  O62  1  0.53665923  0.86372764  0.07600600  1
  O  O63  1  0.32706741  0.86372764  0.57600600  1
  O  O64  1  0.54552623  0.67873690  0.57769064  1
  O  O65  1  0.13402622  0.47773836  0.57925473  1
  O  O66  1  0.29309005  0.81540709  0.25538241  1
  O  O67  1  0.51895808  0.69487550  0.25197736  1
  O  O68  1  0.19440515  0.48864592  0.25763126  1
  O  O69  1  0.29423977  0.48864592  0.75763126  1
  O  O70  1  0.17591643  0.69487550  0.75197736  1
  O  O71  1  0.52231603  0.81540709  0.75538241  1
loop_
_geom_bond_atom_site_label_1
_geom_bond_atom_site_label_2
_geom_bond_distance
_geom_bond_site_symmetry_2
Na0 O51 2.364953 1_555
Na0 O68 2.389309 1_555
Na0 O17 2.532912 1_555
Na0 O53 2.549935 1_555
Na0 O32 2.617035 1_555
Na0 O67 2.635947 1_555
Na0 O10 2.731391 1_555
Na1 O52 2.297166 1_555
Na1 O15 2.354310 1_555
Na1 O66 2.381377 1_655
Na1 O51 2.705938 1_555
Na1 O68 2.794446 1_655
Na2 O49 2.297165 1_555
Na2 O14 2.354313 1_555
Na2 O71 2.381384 1_555
Na2 O50 2.705946 1_555
Na2 O69 2.794454 1_555
Na3 O50 2.364945 1_555
Na3 O69 2.389301 1_655
Na3 O12 2.532908 1_555
Na3 O48 2.549928 1_555
Na3 O33 2.617033 1_655
Na3 O70 2.635946 1_655
Na3 O7 2.731391 1_655
Na4 O63 2.364944 1_555
Na4 O44 2.389309 1_455
Na4 O29 2.532886 1_555
Na4 O65 2.549919 1_555
Na4 O8 2.617035 1_555
Na4 O43 2.635947 1_565
Na4 O22 2.731391 1_455
Na5 O64 2.297157 1_555
Na5 O27 2.354292 1_555
Na5 O42 2.381377 1_565
Na5 O63 2.705948 1_555
Na5 O44 2.794446 1_555
Na6 O61 2.297159 1_555
Na6 O26 2.354287 1_554
Na6 O47 2.381384 1_565
Na6 O62 2.705931 1_555
Na6 O45 2.794454 1_455
Na7 O62 2.364959 1_555
Na7 O45 2.389301 1_555
Na7 O24 2.532893 1_554
Na7 O60 2.549933 1_555
Na7 O9 2.617033 1_555
Na7 O46 2.635946 1_565
Na7 O19 2.731391 1_555
Na8 O39 2.364953 1_555
Na8 O56 2.389292 1_555
Na8 O5 2.532912 1_555
Na8 O41 2.549935 1_545
Na8 O20 2.617009 1_556
Na8 O55 2.635939 1_555
Na8 O34 2.731391 1_545
Na9 O40 2.297166 1_555
Na9 O3 2.354310 1_555
Na9 O54 2.381382 1_555
Na9 O39 2.705938 1_455
Na9 O56 2.794459 1_555
Na10 O37 2.297165 1_555
Na10 O2 2.354313 1_555
Na10 O59 2.381367 1_555
Na10 O38 2.705946 1_655
Na10 O57 2.794443 1_555
Na11 O38 2.364945 1_555
Na11 O57 2.389308 1_555
Na11 O0 2.532908 1_555
Na11 O36 2.549928 1_545
Na11 O21 2.617013 1_555
Na11 O58 2.635940 1_555
Na11 O31 2.731391 1_545
Na12 O44 2.461490 1_555
Na12 O42 2.501535 1_565
Na12 O43 2.524504 1_665
Na12 O36 2.526300 1_655
Na12 O37 2.688230 1_565
Na12 O38 2.850950 1_665
Na13 O45 2.461490 1_456
Na13 O47 2.501535 1_566
Na13 O46 2.524504 1_466
Na13 O41 2.526300 1_455
Na13 O40 2.688230 1_565
Na13 O39 2.850950 1_465
Na14 O56 2.461490 1_555
Na14 O54 2.501535 1_555
Na14 O55 2.524504 1_555
Na14 O48 2.526300 1_555
Na14 O49 2.688230 1_555
Na14 O50 2.850950 1_555
Na15 O57 2.461490 1_555
Na15 O59 2.501535 1_555
Na15 O58 2.524504 1_555
Na15 O53 2.526300 1_555
Na15 O52 2.688230 1_555
Na15 O51 2.850950 1_555
Na16 O68 2.461490 1_555
Na16 O66 2.501535 1_555
Na16 O67 2.524504 1_555
Na16 O60 2.526300 1_555
Na16 O61 2.688230 1_555
Na16 O62 2.850950 1_555
Na17 O69 2.461490 1_555
Na17 O71 2.501535 1_555
Na17 O70 2.524504 1_555
Na17 O65 2.526300 1_555
Na17 O64 2.688230 1_555
Na17 O63 2.850950 1_555
Ca0 O1 2.117841 1_555
Ca0 O2 2.195071 1_565
Ca0 O0 2.200004 1_665
Ca0 O37 2.244473 1_565
Ca0 O38 2.248312 1_665
Ca0 O36 2.273108 1_655
Ca1 O4 2.117841 1_455
Ca1 O3 2.195071 1_565
Ca1 O5 2.200004 1_465
Ca1 O40 2.244473 1_565
Ca1 O39 2.248312 1_465
Ca1 O41 2.273108 1_455
Ca2 O13 2.117841 1_555
Ca2 O14 2.195071 1_555
Ca2 O12 2.200004 1_555
Ca2 O49 2.244473 1_555
Ca2 O50 2.248312 1_555
Ca2 O48 2.273108 1_555
Ca3 O16 2.117841 1_555
Ca3 O15 2.195071 1_555
Ca3 O17 2.200004 1_555
Ca3 O52 2.244473 1_555
Ca3 O51 2.248312 1_555
Ca3 O53 2.273108 1_555
Ca4 O25 2.117841 1_554
Ca4 O26 2.195071 1_554
Ca4 O24 2.200004 1_554
Ca4 O61 2.244473 1_555
Ca4 O62 2.248312 1_555
Ca4 O60 2.273108 1_555
Ca5 O28 2.117841 1_555
Ca5 O27 2.195071 1_555
Ca5 O29 2.200004 1_555
Ca5 O64 2.244473 1_555
Ca5 O63 2.248312 1_555
Ca5 O65 2.273108 1_555
Al0 O42 1.891064 1_555
Al0 O6 1.898606 1_545
Al0 O7 1.898821 1_655
Al0 O44 1.975844 1_545
Al0 O43 2.289281 1_655
Al0 O8 2.419964 1_645
Al1 O47 1.891063 1_555
Al1 O11 1.898605 1_545
Al1 O10 1.898821 1_555
Al1 O45 1.975844 1_445
Al1 O46 2.289281 1_455
Al1 O9 2.419964 1_445
Al2 O54 1.891064 1_555
Al2 O18 1.898606 1_556
Al2 O19 1.898821 1_556
Al2 O56 1.975844 1_555
Al2 O55 2.289281 1_555
Al2 O20 2.419964 1_556
Al3 O59 1.891063 1_555
Al3 O23 1.898605 1_555
Al3 O22 1.898821 1_555
Al3 O57 1.975844 1_555
Al3 O58 2.289281 1_555
Al3 O21 2.419964 1_555
Al4 O66 1.891064 1_555
Al4 O30 1.898606 1_555
Al4 O31 1.898821 1_555
Al4 O68 1.975844 1_555
Al4 O67 2.289281 1_555
Al4 O32 2.419964 1_555
Al5 O71 1.891063 1_555
Al5 O35 1.898605 1_555
Al5 O34 1.898821 1_555
Al5 O69 1.975844 1_555
Al5 O70 2.289281 1_555
Al5 O33 2.419964 1_555
O0 P0 1.514865 1_545
O1 S0 1.450220 1_555
O2 P1 1.512216 1_655
O3 P2 1.512216 1_555
O4 S1 1.450220 1_655
O5 P3 1.514865 1_545
O6 P3 1.593337 1_555
O7 P2 1.592689 1_555
O8 S1 1.491099 1_555
O9 S0 1.491099 1_555
O10 P1 1.592688 1_555
O11 P0 1.593337 1_555
O12 P4 1.514865 1_555
O13 S2 1.450220 1_555
O14 P5 1.512216 1_555
O15 P6 1.512216 1_555
O16 S3 1.450220 1_555
O17 P7 1.514865 1_555
O18 P7 1.593337 1_555
O19 P6 1.592689 1_555
O20 S3 1.491099 1_555
O21 S2 1.491099 1_555
O22 P5 1.592688 1_555
O23 P4 1.593337 1_555
O24 P8 1.514865 1_555
O25 S4 1.450220 1_555
O26 P9 1.512216 1_555
O27 P10 1.512216 1_555
O28 S5 1.450220 1_555
O29 P11 1.514865 1_555
O30 P11 1.593337 1_555
O31 P10 1.592689 1_555
O32 S5 1.491099 1_555
O33 S4 1.491099 1_555
O34 P9 1.592688 1_555
O35 P8 1.593337 1_555
O36 P11 1.527179 1_555
O37 P10 1.532845 1_545
O38 S5 1.497408 1_555
O39 S4 1.497412 1_655
O40 P9 1.532836 1_545
O41 P8 1.527185 1_555
O42 P4 1.587781 1_555
O43 S2 1.499648 1_555
O44 P5 1.603305 1_555
O45 P6 1.603309 1_555
O46 S3 1.499639 1_555
O47 P7 1.587786 1_555
O48 P3 1.527179 1_545
O49 P2 1.532845 1_555
O50 S1 1.497408 1_655
O51 S0 1.497412 1_555
O52 P1 1.532836 1_655
O53 P0 1.527185 1_545
O54 P8 1.587793 1_555
O55 S4 1.499633 1_655
O56 P9 1.603304 1_545
O57 P10 1.603295 1_545
O58 S5 1.499651 1_555
O59 P11 1.587783 1_655
O60 P7 1.527191 1_555
O61 P6 1.532831 1_455
O62 S3 1.497406 1_565
O63 S2 1.497399 1_565
O64 P5 1.532848 1_555
O65 P4 1.527180 1_455
O66 P0 1.587781 1_555
O67 S0 1.499648 1_555
O68 P1 1.603305 1_555
O69 P2 1.603309 1_555
O70 S1 1.499639 1_555
O71 P3 1.587786 1_555
