# generated using pymatgen
data_Na5Y2Al2P5SO24
_symmetry_space_group_name_H-M   'P 1'
_cell_length_a   8.92386904
_cell_length_b   8.86530756
_cell_length_c   22.46892505
_cell_angle_alpha   90.53438643
_cell_angle_beta   89.72349105
_cell_angle_gamma   119.93628946
_symmetry_Int_Tables_number   1
_chemical_formula_structural   Na5Y2Al2P5SO24
_chemical_formula_sum   'Na15 Y6 Al6 P15 S3 O72'
_cell_volume   1540.35023485
_cell_formula_units_Z   3
loop_
 _symmetry_equiv_pos_site_id
 _symmetry_equiv_pos_as_xyz
  1  'x, y, z'
loop_
 _atom_site_type_symbol
 _atom_site_label
 _atom_site_symmetry_multiplicity
 _atom_site_fract_x
 _atom_site_fract_y
 _atom_site_fract_z
 _atom_site_occupancy
  Na  Na0  1  0.63648411  0.00142382  0.25031677  1
  Na  Na1  1  0.99845625  0.35588776  0.74962028  1
  Na  Na2  1  0.35715498  0.99848679  0.75000765  1
  Na  Na3  1  0.03561532  0.69837131  0.57640886  1
  Na  Na4  1  0.66225652  0.96535216  0.57969849  1
  Na  Na5  1  0.30758445  0.97878983  0.08745937  1
  Na  Na6  1  0.02459022  0.33219234  0.08797827  1
  Na  Na7  1  0.97233117  0.66430550  0.91959612  1
  Na  Na8  1  0.69730068  0.67049859  0.41507215  1
  Na  Na9  1  0.02385855  0.02133454  0.49048983  1
  Na  Na10  1  0.99522945  0.00511896  0.00846364  1
  Na  Na11  1  0.65349853  0.32198890  0.83654152  1
  Na  Na12  1  0.68274668  0.33975248  0.33105446  1
  Na  Na13  1  0.33798447  0.64637185  0.17126025  1
  Na  Na14  1  0.34848338  0.64917923  0.66298043  1
  Y  Y0  1  0.00133227  0.01222120  0.85943745  1
  Y  Y1  1  0.00415457  0.00169510  0.64178368  1
  Y  Y2  1  0.66625427  0.34504613  0.68174959  1
  Y  Y3  1  0.66317938  0.32628669  0.99281976  1
  Y  Y4  1  0.32724571  0.66313102  0.50367190  1
  Y  Y5  1  0.34286829  0.66901638  0.81837457  1
  Al  Al0  1  0.98231857  0.98841023  0.34422528  1
  Al  Al1  1  0.99054355  0.00085617  0.15454384  1
  Al  Al2  1  0.68131873  0.35963354  0.18226795  1
  Al  Al3  1  0.67814281  0.32647735  0.47805018  1
  Al  Al4  1  0.33208466  0.66958164  0.02525673  1
  Al  Al5  1  0.31880289  0.65721183  0.31559456  1
  P  P0  1  0.70614304  0.70588537  0.24973705  1
  P  P1  1  0.00127513  0.29176924  0.25035786  1
  P  P2  1  0.30162444  0.30043959  0.75065513  1
  P  P3  1  0.99928446  0.69808856  0.75278580  1
  P  P4  1  0.69801926  0.99916152  0.74607373  1
  P  P5  1  0.96038475  0.33526939  0.57718108  1
  P  P6  1  0.38002904  0.04674413  0.57476211  1
  P  P7  1  0.66466021  0.62267850  0.56982977  1
  P  P8  1  0.96942175  0.64377698  0.08742590  1
  P  P9  1  0.66793566  0.02956374  0.09220449  1
  P  P10  1  0.36316746  0.33121519  0.09156300  1
  P  P11  1  0.04686173  0.37946610  0.92667406  1
  P  P12  1  0.33293598  0.95840393  0.92543258  1
  P  P13  1  0.63797064  0.97172370  0.40898026  1
  P  P14  1  0.02933925  0.67150376  0.41101571  1
  S  S0  1  0.28407068  0.99610774  0.25137660  1
  S  S1  1  0.62447089  0.66736371  0.92732408  1
  S  S2  1  0.32570701  0.35576053  0.40716156  1
  O  O0  1  0.18951847  0.01328916  0.30249318  1
  O  O1  1  0.81230812  0.78241643  0.30741321  1
  O  O2  1  0.96455962  0.16080976  0.30103330  1
  O  O3  1  0.20775962  0.19896706  0.80673002  1
  O  O4  1  0.99434248  0.79153308  0.81017952  1
  O  O5  1  0.80869373  0.00868263  0.79963710  1
  O  O6  1  0.78027643  0.99271400  0.68610644  1
  O  O7  1  0.19972993  0.20684763  0.69430022  1
  O  O8  1  0.00763899  0.79693422  0.69531783  1
  O  O9  1  0.80207336  0.83711120  0.19920783  1
  O  O10  1  0.03095106  0.21179777  0.19276405  1
  O  O11  1  0.18593898  0.97561885  0.19556145  1
  O  O12  1  0.89042532  0.35023463  0.63864930  1
  O  O13  1  0.46288436  0.11462033  0.63649356  1
  O  O14  1  0.65498766  0.53551279  0.62907818  1
  O  O15  1  0.86823907  0.50026677  0.13506196  1
  O  O16  1  0.62994749  0.12548493  0.14454989  1
  O  O17  1  0.49409570  0.36107730  0.14208805  1
  O  O18  1  0.42328342  0.27966227  0.03457413  1
  O  O19  1  0.87337869  0.58639640  0.02785184  1
  O  O20  1  0.72068521  0.14600102  0.03668043  1
  O  O21  1  0.49178143  0.16280088  0.52341380  1
  O  O22  1  0.67012997  0.51785677  0.51496293  1
  O  O23  1  0.84356097  0.33173529  0.52605937  1
  O  O24  1  0.52026383  0.66810669  0.97805541  1
  O  O25  1  0.15943185  0.48928504  0.97994231  1
  O  O26  1  0.33381929  0.84707463  0.97850639  1
  O  O27  1  0.57586242  0.86052524  0.46627336  1
  O  O28  1  0.28930373  0.41244112  0.46498955  1
  O  O29  1  0.12037096  0.70784792  0.47194972  1
  O  O30  1  0.13954348  0.64319013  0.36308541  1
  O  O31  1  0.50890758  0.86927096  0.35699497  1
  O  O32  1  0.35825143  0.49111605  0.36096425  1
  O  O33  1  0.12544006  0.46255911  0.86594597  1
  O  O34  1  0.33889053  0.88065291  0.86433966  1
  O  O35  1  0.54636402  0.66085781  0.86961250  1
  O  O36  1  0.00604532  0.83145623  0.39856779  1
  O  O37  1  0.81840571  0.98870859  0.39795152  1
  O  O38  1  0.17463352  0.18356610  0.39438178  1
  O  O39  1  0.02289712  0.19643823  0.93139205  1
  O  O40  1  0.15900350  0.95820234  0.92967735  1
  O  O41  1  0.79806948  0.82574573  0.93042417  1
  O  O42  1  0.96459266  0.16409163  0.57271822  1
  O  O43  1  0.19637775  0.02132450  0.57200164  1
  O  O44  1  0.83597987  0.80157197  0.56919125  1
  O  O45  1  0.99732357  0.82589975  0.10324451  1
  O  O46  1  0.82853074  0.00957922  0.10275942  1
  O  O47  1  0.17930786  0.16884492  0.10265358  1
  O  O48  1  0.68258176  0.16481882  0.75041862  1
  O  O49  1  0.47833111  0.31148677  0.75269844  1
  O  O50  1  0.84355909  0.51276179  0.75448391  1
  O  O51  1  0.68981851  0.52433555  0.23766864  1
  O  O52  1  0.83368936  0.30831738  0.24209912  1
  O  O53  1  0.46140226  0.15096575  0.24851041  1
  O  O54  1  0.64971095  0.51447116  0.92726036  1
  O  O55  1  0.86980532  0.37242878  0.92670725  1
  O  O56  1  0.49013191  0.14279660  0.92541360  1
  O  O57  1  0.65408528  0.15278688  0.41927365  1
  O  O58  1  0.48804736  0.34905912  0.41098818  1
  O  O59  1  0.84467772  0.50530849  0.41648243  1
  O  O60  1  0.34074751  0.49320871  0.08242157  1
  O  O61  1  0.15247561  0.65780832  0.08202057  1
  O  O62  1  0.49963081  0.85231501  0.08130096  1
  O  O63  1  0.36148930  0.86267492  0.57167438  1
  O  O64  1  0.51136857  0.65593903  0.56964630  1
  O  O65  1  0.14052942  0.49825168  0.57377047  1
  O  O66  1  0.30567959  0.83733451  0.25697499  1
  O  O67  1  0.52289705  0.69077620  0.25730850  1
  O  O68  1  0.16387934  0.47444763  0.26210505  1
  O  O69  1  0.31458130  0.47885737  0.74895175  1
  O  O70  1  0.16535725  0.68368495  0.75056402  1
  O  O71  1  0.51422938  0.84155959  0.74682810  1
loop_
_geom_bond_atom_site_label_1
_geom_bond_atom_site_label_2
_geom_bond_distance
_geom_bond_site_symmetry_2
Na0 O52 2.400170 1_555
Na0 O67 2.420114 1_545
Na0 O53 2.503857 1_555
Na0 O66 2.562593 1_545
Na0 O16 2.640980 1_555
Na0 O31 2.666245 1_545
Na0 O9 2.779398 1_545
Na0 O2 2.782062 1_555
Na1 O50 2.402330 1_555
Na1 O48 2.459643 1_555
Na1 O69 2.465250 1_655
Na1 O70 2.518530 1_655
Na1 O12 2.668632 1_555
Na1 O33 2.814752 1_655
Na1 O5 2.906707 1_555
Na1 O7 2.972101 1_655
Na2 O71 2.418440 1_555
Na2 O49 2.423926 1_565
Na2 O70 2.439519 1_555
Na2 O48 2.516754 1_565
Na2 O13 2.740746 1_565
Na2 O34 2.755584 1_555
Na3 O44 2.381073 1_455
Na3 O65 2.383878 1_555
Na3 O29 2.451744 1_555
Na3 O43 2.483861 1_565
Na3 O63 2.522297 1_555
Na3 O8 2.851643 1_555
Na4 O63 2.372370 1_555
Na4 O42 2.380070 1_565
Na4 O64 2.386073 1_555
Na4 O6 2.577369 1_555
Na4 O44 2.608448 1_555
Na4 O27 2.685662 1_555
Na5 O45 2.425436 1_455
Na5 O61 2.468246 1_555
Na5 O62 2.475098 1_555
Na5 O47 2.485225 1_565
Na5 O18 2.625122 1_565
Na5 O11 2.650341 1_555
Na5 O26 2.761395 1_554
Na5 O16 2.807642 1_565
Na6 O60 2.448173 1_555
Na6 O47 2.474049 1_555
Na6 O46 2.523719 1_455
Na6 O61 2.524081 1_555
Na6 O10 2.606601 1_555
Na6 O20 2.633413 1_455
Na6 O15 2.705079 1_455
Na6 O25 2.764470 1_554
Na7 O55 2.280700 1_555
Na7 O40 2.296859 1_655
Na7 O54 2.503085 1_555
Na7 O19 2.564216 1_556
Na7 O41 2.595594 1_555
Na7 O4 2.679701 1_555
Na8 O59 2.408092 1_555
Na8 O36 2.416789 1_655
Na8 O37 2.499500 1_555
Na8 O58 2.510317 1_555
Na8 O22 2.579033 1_555
Na8 O1 2.625584 1_555
Na8 O27 2.666436 1_555
Na8 O32 2.891121 1_555
Na9 O43 2.398304 1_555
Na9 O42 2.431048 1_455
Na9 O44 2.551317 1_445
Na9 O38 2.576927 1_555
Na9 O36 2.606904 1_545
Na9 O37 2.695304 1_445
Na10 O39 2.359929 1_654
Na10 O41 2.425751 1_544
Na10 O40 2.451681 1_644
Na10 O46 2.594269 1_555
Na10 O47 2.623103 1_655
Na10 O45 2.674542 1_545
Na11 O49 2.425079 1_555
Na11 O48 2.461538 1_555
Na11 O50 2.510267 1_555
Na11 O56 2.521117 1_555
Na11 O54 2.657048 1_555
Na11 O55 2.681365 1_555
Na12 O59 2.405018 1_555
Na12 O52 2.495047 1_555
Na12 O58 2.522204 1_555
Na12 O57 2.524895 1_555
Na12 O53 2.611607 1_555
Na12 O51 2.654094 1_555
Na13 O60 2.410637 1_555
Na13 O67 2.446273 1_555
Na13 O68 2.562688 1_555
Na13 O62 2.629051 1_555
Na13 O61 2.640960 1_555
Na13 O66 2.660687 1_555
Na14 O69 2.386571 1_555
Na14 O71 2.468811 1_555
Na14 O64 2.529887 1_555
Na14 O65 2.599917 1_555
Na14 O70 2.663364 1_555
Na14 O63 2.766864 1_555
Al0 O1 1.881367 1_555
Al0 O2 1.890442 1_565
Al0 O37 1.893047 1_555
Al0 O36 1.949378 1_655
Al0 O0 1.981632 1_665
Al0 O38 2.056082 1_665
Al1 O9 1.875424 1_545
Al1 O46 1.891982 1_555
Al1 O10 1.914326 1_655
Al1 O45 1.948747 1_545
Al1 O47 1.981020 1_655
Al1 O11 2.085331 1_645
Al2 O15 1.842216 1_555
Al2 O51 1.882478 1_555
Al2 O17 1.908598 1_555
Al2 O16 2.063611 1_555
Al2 O52 2.123570 1_555
Al2 O53 2.426646 1_555
Al3 O23 1.814010 1_555
Al3 O21 1.874279 1_555
Al3 O22 1.914639 1_555
Al3 O57 1.948359 1_555
Al3 O59 2.074911 1_555
Al3 O58 2.357443 1_555
Al4 O25 1.868742 1_554
Al4 O26 1.893675 1_554
Al4 O24 1.987318 1_554
Al4 O62 2.002056 1_555
Al4 O61 2.005585 1_555
Al4 O60 2.063893 1_555
Al5 O30 1.870994 1_555
Al5 O68 1.930036 1_555
Al5 O32 1.969817 1_555
Al5 O31 2.019171 1_555
Al5 O66 2.127391 1_555
Al5 O67 2.136392 1_555
O0 S0 1.473072 1_545
O1 P0 1.546354 1_555
O2 P1 1.546972 1_655
O3 P2 1.535326 1_555
O3 Y0 2.123317 1_555
O4 P3 1.538573 1_555
O4 Y0 2.212482 1_665
O5 P4 1.535376 1_545
O5 Y0 2.174696 1_655
O6 P4 1.545471 1_555
O6 Y1 2.193873 1_665
O7 P2 1.535288 1_555
O7 Y1 2.134938 1_555
O8 P3 1.547817 1_455
O8 Y1 2.200103 1_565
O9 P0 1.548065 1_555
O10 P1 1.553822 1_555
O11 S0 1.490048 1_555
O12 P5 1.544603 1_555
O12 Y2 2.198211 1_555
O13 P6 1.543676 1_555
O13 Y2 2.186212 1_555
O14 P7 1.525884 1_555
O14 Y2 2.114181 1_555
O15 P8 1.564951 1_555
O16 P9 1.576891 1_555
O17 P10 1.556428 1_555
O18 P10 1.537356 1_555
O18 Y3 2.176861 1_554
O19 P8 1.532425 1_555
O19 Y3 2.262483 1_554
O20 P9 1.541730 1_555
O20 Y3 2.154523 1_554
O21 P6 1.539869 1_555
O22 P7 1.552112 1_555
O23 P5 1.544511 1_555
O24 S1 1.469653 1_555
O25 P11 1.550243 1_555
O26 P12 1.557582 1_555
O27 P13 1.551658 1_555
O27 Y4 2.196628 1_555
O28 S2 1.480867 1_555
O28 Y4 2.241670 1_555
O29 P14 1.542562 1_555
O29 Y4 2.195854 1_555
O30 P14 1.555987 1_555
O31 P13 1.570011 1_555
O32 S2 1.508052 1_555
O33 P11 1.546015 1_555
O33 Y5 2.174687 1_555
O34 P12 1.542863 1_555
O34 Y5 2.148975 1_555
O35 S1 1.462134 1_555
O35 Y5 2.186596 1_555
O36 P14 1.560257 1_555
O37 P13 1.559363 1_555
O38 S2 1.473719 1_555
O39 P11 1.531813 1_555
O39 Y0 2.226682 1_555
O40 P12 1.553730 1_555
O40 Y0 2.325492 1_565
O41 S1 1.484757 1_555
O41 Y0 2.365489 1_665
O42 P5 1.538962 1_555
O42 Y1 2.271517 1_655
O43 P6 1.540346 1_555
O43 Y1 2.261058 1_555
O44 P7 1.559808 1_555
O44 Y1 2.317868 1_665
O45 P8 1.544048 1_555
O46 P9 1.548862 1_555
O47 P10 1.572160 1_555
O48 P4 1.544159 1_545
O48 Y2 2.288058 1_555
O49 P2 1.531278 1_555
O49 Y2 2.219734 1_555
O50 P3 1.534236 1_555
O50 Y2 2.239786 1_555
O51 P0 1.563154 1_555
O52 P1 1.585774 1_655
O53 S0 1.491802 1_545
O54 S1 1.480750 1_555
O54 Y3 2.283696 1_555
O55 P11 1.549834 1_655
O55 Y3 2.237416 1_555
O56 P12 1.533412 1_545
O56 Y3 2.189550 1_555
O57 P13 1.553636 1_545
O58 S2 1.482182 1_555
O59 P14 1.574677 1_655
O60 P10 1.561198 1_555
O61 P8 1.579324 1_455
O62 P9 1.557511 1_565
O63 P6 1.556790 1_565
O63 Y4 2.229789 1_555
O64 P7 1.536530 1_555
O64 Y4 2.243004 1_555
O65 P5 1.536385 1_455
O65 Y4 2.231687 1_555
O66 S0 1.519446 1_555
O67 P0 1.581168 1_555
O68 P1 1.564698 1_555
O69 P2 1.528153 1_555
O69 Y5 2.206552 1_555
O70 P3 1.550226 1_455
O70 Y5 2.253947 1_555
O71 P4 1.534745 1_555
O71 Y5 2.224878 1_555
