# generated using pymatgen
data_NaClO3
_symmetry_space_group_name_H-M   'P 1'
_cell_length_a   6.67544456
_cell_length_b   6.67544456
_cell_length_c   6.67544456
_cell_angle_alpha   90.00000000
_cell_angle_beta   90.00000000
_cell_angle_gamma   90.00000000
_symmetry_Int_Tables_number   1
_chemical_formula_structural   NaClO3
_chemical_formula_sum   'Na4 Cl4 O12'
_cell_volume   297.46822378
_cell_formula_units_Z   4
loop_
 _symmetry_equiv_pos_site_id
 _symmetry_equiv_pos_as_xyz
  1  'x, y, z'
loop_
 _atom_site_type_symbol
 _atom_site_label
 _atom_site_symmetry_multiplicity
 _atom_site_fract_x
 _atom_site_fract_y
 _atom_site_fract_z
 _atom_site_occupancy
  Na  Na0  1  0.06800261  0.06800261  0.06800261  1
  Na  Na1  1  0.43199739  0.93199739  0.56800261  1
  Na  Na2  1  0.56800261  0.43199739  0.93199739  1
  Na  Na3  1  0.93199739  0.56800261  0.43199739  1
  Cl  Cl0  1  0.41796738  0.41796738  0.41796738  1
  Cl  Cl1  1  0.08203262  0.58203262  0.91796738  1
  Cl  Cl2  1  0.91796738  0.08203262  0.58203262  1
  Cl  Cl3  1  0.58203262  0.91796738  0.08203262  1
  O  O0  1  0.19599044  0.40572050  0.00185736  1
  O  O1  1  0.69599044  0.09427950  0.99814264  1
  O  O2  1  0.80400956  0.90572050  0.49814264  1
  O  O3  1  0.09427950  0.99814264  0.69599044  1
  O  O4  1  0.49814264  0.80400956  0.90572050  1
  O  O5  1  0.99814264  0.69599044  0.09427950  1
  O  O6  1  0.40572050  0.00185736  0.19599044  1
  O  O7  1  0.00185736  0.19599044  0.40572050  1
  O  O8  1  0.30400956  0.59427950  0.50185736  1
  O  O9  1  0.50185736  0.30400956  0.59427950  1
  O  O10  1  0.59427950  0.50185736  0.30400956  1
  O  O11  1  0.90572050  0.49814264  0.80400956  1
loop_
_geom_bond_atom_site_label_1
_geom_bond_atom_site_label_2
_geom_bond_distance
_geom_bond_site_symmetry_2
Na0 O7 2.450983 1_555
Na0 O6 2.450983 1_555
Na0 O0 2.450983 1_555
Na0 O3 2.532836 1_544
Na0 O1 2.532836 1_454
Na0 O5 2.532836 1_445
Na1 O4 2.450983 1_555
Na1 O3 2.450983 1_555
Na1 O8 2.450983 1_555
Na1 O9 2.532836 1_565
Na1 O6 2.532836 1_565
Na1 O2 2.532836 1_555
Na2 O11 2.450983 1_555
Na2 O1 2.450983 1_555
Na2 O9 2.450983 1_555
Na2 O10 2.532836 1_556
Na2 O0 2.532836 1_556
Na2 O4 2.532836 1_555
Na3 O2 2.450983 1_555
Na3 O5 2.450983 1_555
Na3 O10 2.450983 1_555
Na3 O8 2.532836 1_655
Na3 O7 2.532836 1_655
Na3 O11 2.532836 1_555
Cl0 O8 1.509151 1_555
Cl0 O9 1.509151 1_555
Cl0 O10 1.509151 1_555
Cl1 O0 1.509151 1_556
Cl1 O5 1.509151 1_456
Cl1 O11 1.509151 1_455
Cl2 O7 1.509151 1_655
Cl2 O3 1.509151 1_645
Cl2 O2 1.509151 1_545
Cl3 O6 1.509151 1_565
Cl3 O1 1.509151 1_564
Cl3 O4 1.509151 1_554
