# generated using pymatgen
data_Na3ScSi3Ge3(SO8)3
_symmetry_space_group_name_H-M   'P 1'
_cell_length_a   8.62567542
_cell_length_b   8.69108768
_cell_length_c   22.17636974
_cell_angle_alpha   89.32031959
_cell_angle_beta   90.54651234
_cell_angle_gamma   120.18212424
_symmetry_Int_Tables_number   1
_chemical_formula_structural   Na3ScSi3Ge3(SO8)3
_chemical_formula_sum   'Na9 Sc3 Si9 Ge9 S9 O72'
_cell_volume   1436.99119949
_cell_formula_units_Z   3
loop_
 _symmetry_equiv_pos_site_id
 _symmetry_equiv_pos_as_xyz
  1  'x, y, z'
loop_
 _atom_site_type_symbol
 _atom_site_label
 _atom_site_symmetry_multiplicity
 _atom_site_fract_x
 _atom_site_fract_y
 _atom_site_fract_z
 _atom_site_occupancy
  Na  Na0  1  0.35981442  0.35897925  0.24505726  1
  Na  Na1  1  0.63303813  0.62462464  0.75397849  1
  Na  Na2  1  0.96749063  0.28968367  0.41691368  1
  Na  Na3  1  0.99671168  0.99945012  0.50008037  1
  Na  Na4  1  0.99985265  0.99561913  0.00111435  1
  Na  Na5  1  0.66437245  0.33372556  0.83386655  1
  Na  Na6  1  0.66954784  0.32533078  0.33216594  1
  Na  Na7  1  0.31999500  0.66361691  0.16294083  1
  Na  Na8  1  0.30791959  0.65299046  0.66624365  1
  Sc  Sc0  1  0.99427919  0.00543106  0.35820672  1
  Sc  Sc1  1  0.68102051  0.34170977  0.68850168  1
  Sc  Sc2  1  0.68820662  0.34624069  0.18074179  1
  Si  Si0  1  0.99964731  0.29538787  0.25116829  1
  Si  Si1  1  0.27953522  0.28147350  0.75485922  1
  Si  Si2  1  0.01455299  0.72638500  0.75019270  1
  Si  Si3  1  0.96309359  0.33269493  0.58150746  1
  Si  Si4  1  0.97261267  0.63989607  0.08130060  1
  Si  Si5  1  0.37465745  0.33672082  0.08392507  1
  Si  Si6  1  0.62006176  0.67652182  0.91518827  1
  Si  Si7  1  0.60229439  0.93891165  0.41871555  1
  Si  Si8  1  0.34963697  0.38020324  0.41936543  1
  Ge  Ge0  1  0.99915914  0.98119919  0.85317350  1
  Ge  Ge1  1  0.02054772  0.02372651  0.64904095  1
  Ge  Ge2  1  0.01978210  0.01746851  0.14257529  1
  Ge  Ge3  1  0.65987066  0.37402718  0.98420595  1
  Ge  Ge4  1  0.65492896  0.30306060  0.47887972  1
  Ge  Ge5  1  0.34182086  0.66423204  0.02150105  1
  Ge  Ge6  1  0.33126664  0.64572039  0.51792795  1
  Ge  Ge7  1  0.34020803  0.65633052  0.31628641  1
  Ge  Ge8  1  0.31603669  0.64431600  0.81279873  1
  S  S0  1  0.28732112  0.98844833  0.25021872  1
  S  S1  1  0.71037296  0.71623789  0.24925236  1
  S  S2  1  0.71411425  0.99731276  0.75183659  1
  S  S3  1  0.37086648  0.03500031  0.58263745  1
  S  S4  1  0.66935149  0.62899801  0.58206888  1
  S  S5  1  0.66725135  0.04349160  0.07973316  1
  S  S6  1  0.03825016  0.37305581  0.91779056  1
  S  S7  1  0.33881177  0.95638780  0.91658050  1
  S  S8  1  0.04756094  0.66268832  0.41840747  1
  O  O0  1  0.20301774  0.01343153  0.30343833  1
  O  O1  1  0.81444745  0.79146893  0.30425589  1
  O  O2  1  0.98233483  0.18922620  0.31293355  1
  O  O3  1  0.18204722  0.16059213  0.81457805  1
  O  O4  1  0.95395494  0.79638237  0.80884607  1
  O  O5  1  0.82372304  0.02846819  0.80682461  1
  O  O6  1  0.79027006  0.96136491  0.69666326  1
  O  O7  1  0.16272677  0.21259554  0.69213692  1
  O  O8  1  0.03854129  0.84700439  0.68872021  1
  O  O9  1  0.79318024  0.82173710  0.19436246  1
  O  O10  1  0.04541359  0.19953168  0.19309951  1
  O  O11  1  0.17752042  0.95896488  0.19372748  1
  O  O12  1  0.87980134  0.36818105  0.63979697  1
  O  O13  1  0.47755747  0.11801269  0.63646405  1
  O  O14  1  0.63498803  0.52438773  0.63840729  1
  O  O15  1  0.90358616  0.51392304  0.13973380  1
  O  O16  1  0.63443495  0.11390360  0.13491905  1
  O  O17  1  0.48013732  0.36703583  0.14642959  1
  O  O18  1  0.45838325  0.28840373  0.02440367  1
  O  O19  1  0.84175252  0.55077195  0.02123621  1
  O  O20  1  0.69966434  0.15670781  0.02555362  1
  O  O21  1  0.44910349  0.15082504  0.52689165  1
  O  O22  1  0.69332029  0.54177831  0.52933883  1
  O  O23  1  0.83721710  0.30065439  0.51944988  1
  O  O24  1  0.52718965  0.70659665  0.97352542  1
  O  O25  1  0.15420537  0.45845064  0.97067320  1
  O  O26  1  0.30374242  0.84473530  0.97101218  1
  O  O27  1  0.51010503  0.82635011  0.47972714  1
  O  O28  1  0.28726545  0.46076861  0.47382105  1
  O  O29  1  0.15651750  0.69416602  0.47333360  1
  O  O30  1  0.12254240  0.62441712  0.36320755  1
  O  O31  1  0.48111218  0.85795959  0.35683004  1
  O  O32  1  0.38311026  0.49614903  0.35593699  1
  O  O33  1  0.11292887  0.48687163  0.86121384  1
  O  O34  1  0.36123931  0.87350301  0.86163236  1
  O  O35  1  0.49755611  0.64070051  0.85386321  1
  O  O36  1  0.02792287  0.81878126  0.41185685  1
  O  O37  1  0.80168887  0.96584754  0.41749928  1
  O  O38  1  0.17560640  0.18395356  0.41560312  1
  O  O39  1  0.02705192  0.19903617  0.91145048  1
  O  O40  1  0.17329573  0.97533810  0.91249101  1
  O  O41  1  0.82289278  0.85559779  0.90917719  1
  O  O42  1  0.97789843  0.14830081  0.58873281  1
  O  O43  1  0.18923583  0.01798525  0.58546575  1
  O  O44  1  0.83055360  0.80847383  0.58711714  1
  O  O45  1  0.97403569  0.82753723  0.09343672  1
  O  O46  1  0.82615932  0.01928173  0.08677524  1
  O  O47  1  0.17386550  0.15971067  0.08579311  1
  O  O48  1  0.69223134  0.15301364  0.74623791  1
  O  O49  1  0.47807484  0.30906728  0.74920421  1
  O  O50  1  0.83933980  0.53021675  0.74581417  1
  O  O51  1  0.67690997  0.53136371  0.24606134  1
  O  O52  1  0.82593495  0.31592571  0.24785732  1
  O  O53  1  0.46429933  0.15175110  0.24467671  1
  O  O54  1  0.63818097  0.49414018  0.92064583  1
  O  O55  1  0.85708093  0.35160153  0.92308909  1
  O  O56  1  0.50249191  0.13453177  0.92154537  1
  O  O57  1  0.63477456  0.14490111  0.42202856  1
  O  O58  1  0.53552809  0.37683431  0.43056035  1
  O  O59  1  0.86828075  0.49848607  0.42338318  1
  O  O60  1  0.35983734  0.51512399  0.07357261  1
  O  O61  1  0.17021575  0.66618023  0.06691833  1
  O  O62  1  0.50397426  0.86356854  0.07376636  1
  O  O63  1  0.35389271  0.85943119  0.57591658  1
  O  O64  1  0.50442299  0.64746226  0.57694959  1
  O  O65  1  0.16134659  0.51698328  0.57347470  1
  O  O66  1  0.30475739  0.82721091  0.25472638  1
  O  O67  1  0.52803010  0.70272720  0.25274009  1
  O  O68  1  0.19093047  0.49635234  0.25765736  1
  O  O69  1  0.30533017  0.48501440  0.75857744  1
  O  O70  1  0.19635206  0.71333707  0.76137480  1
  O  O71  1  0.53510810  0.83297851  0.75655332  1
loop_
_geom_bond_atom_site_label_1
_geom_bond_atom_site_label_2
_geom_bond_distance
_geom_bond_site_symmetry_2
Na0 O68 2.321657 1_555
Na0 O51 2.367591 1_555
Na0 O53 2.385098 1_555
Na0 O17 2.415063 1_555
Na0 O67 2.590065 1_555
Na0 O10 2.608067 1_555
Na0 O32 2.706861 1_555
Na0 O0 2.895098 1_555
Na1 O50 2.313091 1_555
Na1 O71 2.353144 1_555
Na1 O49 2.374355 1_555
Na1 O69 2.454950 1_555
Na1 O35 2.551996 1_555
Na1 O4 2.682410 1_555
Na1 O14 2.719642 1_555
Na1 O6 2.823780 1_555
Na2 O59 2.369835 1_555
Na2 O38 2.393332 1_655
Na2 O37 2.432909 1_545
Na2 O57 2.490838 1_555
Na2 O2 2.502330 1_555
Na2 O23 2.569813 1_555
Na2 O28 2.695527 1_655
Na2 O30 2.776073 1_655
Na3 O37 2.393507 1_555
Na3 O42 2.417138 1_565
Na3 O38 2.440889 1_665
Na3 O43 2.459158 1_665
Na3 O44 2.473739 1_555
Na3 O36 2.621798 1_655
Na4 O47 2.381297 1_665
Na4 O45 2.446622 1_555
Na4 O41 2.469699 1_554
Na4 O46 2.503796 1_565
Na4 O40 2.541912 1_654
Na4 O39 2.577367 1_664
Na5 O49 2.399777 1_555
Na5 O54 2.467170 1_555
Na5 O56 2.503758 1_555
Na5 O55 2.527261 1_555
Na5 O50 2.528362 1_555
Na5 O48 2.600316 1_555
Na6 O52 2.341915 1_555
Na6 O57 2.446361 1_555
Na6 O53 2.548127 1_555
Na6 O51 2.581368 1_555
Na6 O59 2.589865 1_555
Na6 O58 2.624801 1_555
Na7 O68 2.471741 1_555
Na7 O61 2.485846 1_555
Na7 O60 2.496214 1_555
Na7 O66 2.538430 1_555
Na7 O67 2.576026 1_555
Na7 O62 2.579628 1_555
Na8 O65 2.394466 1_555
Na8 O69 2.494341 1_555
Na8 O70 2.494865 1_555
Na8 O63 2.569706 1_555
Na8 O64 2.635276 1_555
Na8 O71 2.686140 1_555
Ge0 O4 1.760350 1_555
Ge0 O3 1.781305 1_665
Ge0 O41 1.838686 1_555
Ge0 O40 2.006686 1_655
Ge0 O5 2.024992 1_565
Ge0 O39 2.215080 1_665
Ge1 O7 1.761409 1_555
Ge1 O8 1.833691 1_545
Ge1 O42 1.858218 1_455
Ge1 O43 2.054553 1_555
Ge1 O6 2.073265 1_445
Ge1 O44 2.237553 1_445
Ge2 O47 1.795346 1_555
Ge2 O45 1.856759 1_445
Ge2 O10 1.869120 1_555
Ge2 O11 2.012224 1_545
Ge2 O46 2.075431 1_455
Ge2 O9 2.164803 1_445
Ge3 O19 1.754267 1_556
Ge3 O18 1.755659 1_556
Ge3 O54 1.807754 1_555
Ge3 O20 2.265110 1_556
Ge3 O55 2.269851 1_555
Ge3 O56 2.301691 1_555
Ge4 O58 1.801853 1_555
Ge4 O23 1.813239 1_555
Ge4 O57 1.818197 1_555
Ge4 O21 1.917533 1_555
Ge4 O59 2.153340 1_555
Ge4 O22 2.241307 1_555
Ge5 O60 1.789015 1_555
Ge5 O24 1.804241 1_554
Ge5 O61 1.805488 1_555
Ge5 O62 1.970113 1_555
Ge5 O25 2.047164 1_554
Ge5 O26 2.071707 1_554
Ge6 O28 1.761082 1_555
Ge6 O27 1.766396 1_555
Ge6 O65 1.808393 1_555
Ge6 O64 1.970955 1_555
Ge6 O29 2.006777 1_555
Ge6 O63 2.197516 1_555
Ge7 O31 1.797608 1_555
Ge7 O32 1.825096 1_555
Ge7 O68 1.868801 1_555
Ge7 O67 2.036275 1_555
Ge7 O30 2.047319 1_555
Ge7 O66 2.136215 1_555
Ge8 O69 1.811087 1_555
Ge8 O35 1.817522 1_555
Ge8 O70 1.819371 1_555
Ge8 O33 1.919645 1_555
Ge8 O34 2.134156 1_555
Ge8 O71 2.167046 1_555
O0 S0 1.466306 1_545
O0 Sc0 2.153061 1_455
O1 S1 1.459143 1_555
O1 Sc0 2.100613 1_565
O2 Si0 1.607837 1_555
O2 Sc0 1.922420 1_555
O3 Si1 1.632385 1_555
O4 Si2 1.639102 1_655
O5 S2 1.477377 1_545
O6 S2 1.502313 1_555
O7 Si1 1.641590 1_555
O8 Si2 1.659386 1_555
O9 S1 1.471122 1_555
O10 Si0 1.695298 1_455
O11 S0 1.507667 1_555
O12 Si3 1.591292 1_555
O12 Sc1 1.947368 1_555
O13 S3 1.457454 1_555
O13 Sc1 2.185262 1_555
O14 S4 1.478026 1_555
O14 Sc1 2.120398 1_555
O15 Si4 1.599368 1_555
O15 Sc2 1.918521 1_555
O16 S5 1.466598 1_555
O16 Sc2 2.103127 1_555
O17 Si5 1.600665 1_555
O17 Sc2 2.032138 1_555
O18 Si5 1.666280 1_555
O19 Si4 1.662827 1_555
O20 S5 1.480448 1_555
O21 S3 1.516694 1_555
O22 S4 1.472410 1_555
O23 Si3 1.681360 1_555
O24 Si6 1.619280 1_555
O25 S6 1.475944 1_555
O26 S7 1.474535 1_555
O27 Si7 1.620784 1_555
O28 Si8 1.627673 1_555
O29 S8 1.472864 1_555
O30 S8 1.506160 1_555
O31 Si7 1.651410 1_555
O32 Si8 1.661006 1_555
O33 S6 1.520818 1_555
O34 S7 1.485480 1_555
O35 Si6 1.647690 1_555
O36 S8 1.454691 1_555
O36 Sc0 2.133595 1_465
O37 Si7 1.615399 1_555
O37 Sc0 2.015750 1_565
O38 Si8 1.611225 1_555
O38 Sc0 2.010611 1_455
O39 S6 1.474587 1_555
O40 S7 1.518963 1_555
O41 Si6 1.662103 1_555
O42 Si3 1.676174 1_555
O43 S3 1.499670 1_555
O44 S4 1.483031 1_555
O45 Si4 1.649950 1_555
O46 S5 1.494181 1_555
O47 Si5 1.639773 1_555
O48 S2 1.461033 1_545
O48 Sc1 2.108440 1_555
O49 Si1 1.611351 1_555
O49 Sc1 2.119805 1_555
O50 Si2 1.615720 1_655
O50 Sc1 1.982695 1_555
O51 S1 1.485252 1_555
O51 Sc2 2.216313 1_555
O52 Si0 1.596537 1_555
O52 Sc2 1.991914 1_555
O53 S0 1.476735 1_545
O53 Sc2 2.304433 1_555
O54 Si6 1.672060 1_555
O55 S6 1.483450 1_655
O56 S7 1.485162 1_545
O57 Si7 1.669540 1_545
O58 Si8 1.634913 1_555
O59 S8 1.490192 1_655
O60 Si5 1.632007 1_555
O61 Si4 1.635919 1_455
O62 S5 1.494389 1_565
O63 S3 1.467081 1_565
O64 S4 1.512787 1_555
O65 Si3 1.663254 1_455
O66 S0 1.484804 1_555
O67 S1 1.519858 1_555
O68 Si0 1.702183 1_455
O69 Si1 1.671222 1_555
O70 Si2 1.644426 1_555
O71 S2 1.488972 1_555
