# generated using pymatgen
data_Li2Mn(PO3)4
_symmetry_space_group_name_H-M   'P 1'
_cell_length_a   9.39103400
_cell_length_b   9.57316400
_cell_length_c   10.34489700
_cell_angle_alpha   90.00000000
_cell_angle_beta   90.00000000
_cell_angle_gamma   90.00000000
_symmetry_Int_Tables_number   1
_chemical_formula_structural   Li2Mn(PO3)4
_chemical_formula_sum   'Li8 Mn4 P16 O48'
_cell_volume   930.02598469
_cell_formula_units_Z   4
loop_
 _symmetry_equiv_pos_site_id
 _symmetry_equiv_pos_as_xyz
  1  'x, y, z'
loop_
 _atom_site_type_symbol
 _atom_site_label
 _atom_site_symmetry_multiplicity
 _atom_site_fract_x
 _atom_site_fract_y
 _atom_site_fract_z
 _atom_site_occupancy
  Li  Li0  1  0.09929500  0.00596900  0.18183600  1
  Li  Li1  1  0.40070500  0.00596900  0.18183600  1
  Li  Li2  1  0.59929500  0.49403100  0.68183600  1
  Li  Li3  1  0.90070500  0.49403100  0.68183600  1
  Li  Li4  1  0.09929500  0.50596900  0.31816400  1
  Li  Li5  1  0.40070500  0.50596900  0.31816400  1
  Li  Li6  1  0.59929500  0.99403100  0.81816400  1
  Li  Li7  1  0.90070500  0.99403100  0.81816400  1
  Mn  Mn0  1  0.25000000  0.01122000  0.80078900  1
  Mn  Mn1  1  0.75000000  0.48878000  0.30078900  1
  Mn  Mn2  1  0.25000000  0.51122000  0.69921100  1
  Mn  Mn3  1  0.75000000  0.98878000  0.19921100  1
  P  P0  1  0.75000000  0.19806700  0.60546700  1
  P  P1  1  0.53652700  0.20992600  0.38944000  1
  P  P2  1  0.96347300  0.20992600  0.38944000  1
  P  P3  1  0.25000000  0.22829400  0.51829400  1
  P  P4  1  0.75000000  0.27170600  0.01829400  1
  P  P5  1  0.03652700  0.29007400  0.88944000  1
  P  P6  1  0.46347300  0.29007400  0.88944000  1
  P  P7  1  0.25000000  0.30193300  0.10546700  1
  P  P8  1  0.75000000  0.69806700  0.89453300  1
  P  P9  1  0.53652700  0.70992600  0.11056000  1
  P  P10  1  0.96347300  0.70992600  0.11056000  1
  P  P11  1  0.25000000  0.72829400  0.98170600  1
  P  P12  1  0.75000000  0.77170600  0.48170600  1
  P  P13  1  0.03652700  0.79007400  0.61056000  1
  P  P14  1  0.46347300  0.79007400  0.61056000  1
  P  P15  1  0.25000000  0.80193300  0.39453300  1
  O  O0  1  0.75000000  0.10070600  0.71885300  1
  O  O1  1  0.56947700  0.11527600  0.27690600  1
  O  O2  1  0.93052300  0.11527600  0.27690600  1
  O  O3  1  0.75000000  0.11475500  0.02638600  1
  O  O4  1  0.05929100  0.13467600  0.87543200  1
  O  O5  1  0.44070900  0.13467600  0.87543200  1
  O  O6  1  0.61608400  0.15257600  0.51680100  1
  O  O7  1  0.88391600  0.15257600  0.51680100  1
  O  O8  1  0.25000000  0.14709900  0.12698500  1
  O  O9  1  0.25000000  0.14297700  0.63819800  1
  O  O10  1  0.12425700  0.17564300  0.42441000  1
  O  O11  1  0.37574300  0.17564300  0.42441000  1
  O  O12  1  0.62425700  0.32435700  0.92441000  1
  O  O13  1  0.87574300  0.32435700  0.92441000  1
  O  O14  1  0.75000000  0.35702300  0.13819800  1
  O  O15  1  0.75000000  0.35290100  0.62698500  1
  O  O16  1  0.11608400  0.34742400  0.01680100  1
  O  O17  1  0.38391600  0.34742400  0.01680100  1
  O  O18  1  0.55929100  0.36532400  0.37543200  1
  O  O19  1  0.94070900  0.36532400  0.37543200  1
  O  O20  1  0.25000000  0.38524500  0.52638600  1
  O  O21  1  0.06947700  0.38472400  0.77690600  1
  O  O22  1  0.43052300  0.38472400  0.77690600  1
  O  O23  1  0.25000000  0.39929400  0.21885300  1
  O  O24  1  0.75000000  0.60070600  0.78114700  1
  O  O25  1  0.56947700  0.61527600  0.22309400  1
  O  O26  1  0.93052300  0.61527600  0.22309400  1
  O  O27  1  0.75000000  0.61475500  0.47361400  1
  O  O28  1  0.05929100  0.63467600  0.62456800  1
  O  O29  1  0.44070900  0.63467600  0.62456800  1
  O  O30  1  0.61608400  0.65257600  0.98319900  1
  O  O31  1  0.88391600  0.65257600  0.98319900  1
  O  O32  1  0.25000000  0.64709900  0.37301500  1
  O  O33  1  0.25000000  0.64297700  0.86180200  1
  O  O34  1  0.12425700  0.67564300  0.07559000  1
  O  O35  1  0.37574300  0.67564300  0.07559000  1
  O  O36  1  0.62425700  0.82435700  0.57559000  1
  O  O37  1  0.87574300  0.82435700  0.57559000  1
  O  O38  1  0.75000000  0.85702300  0.36180200  1
  O  O39  1  0.75000000  0.85290100  0.87301500  1
  O  O40  1  0.11608400  0.84742400  0.48319900  1
  O  O41  1  0.38391600  0.84742400  0.48319900  1
  O  O42  1  0.55929100  0.86532400  0.12456800  1
  O  O43  1  0.94070900  0.86532400  0.12456800  1
  O  O44  1  0.25000000  0.88524500  0.97361400  1
  O  O45  1  0.06947700  0.88472400  0.72309400  1
  O  O46  1  0.43052300  0.88472400  0.72309400  1
  O  O47  1  0.25000000  0.89929400  0.28114700  1
loop_
_geom_bond_atom_site_label_1
_geom_bond_atom_site_label_2
_geom_bond_distance
_geom_bond_site_symmetry_2
Li0 O47 2.025182 1_545
Li0 O8 2.037240 1_555
Li0 O43 2.093273 1_445
Li0 O2 2.138757 1_455
Li1 O47 2.025182 1_545
Li1 O8 2.037240 1_555
Li1 O42 2.093273 1_545
Li1 O1 2.138757 1_555
Li2 O24 2.025182 1_555
Li2 O15 2.037240 1_555
Li2 O29 2.093273 1_555
Li2 O22 2.138757 1_555
Li3 O24 2.025182 1_555
Li3 O15 2.037240 1_555
Li3 O28 2.093273 1_655
Li3 O21 2.138757 1_655
Li4 O23 2.025182 1_555
Li4 O32 2.037240 1_555
Li4 O19 2.093273 1_455
Li4 O26 2.138757 1_455
Li5 O23 2.025182 1_555
Li5 O32 2.037240 1_555
Li5 O18 2.093273 1_555
Li5 O25 2.138757 1_555
Li6 O0 2.025182 1_565
Li6 O39 2.037240 1_555
Li6 O5 2.093273 1_565
Li6 O46 2.138757 1_555
Li7 O0 2.025182 1_565
Li7 O39 2.037240 1_555
Li7 O4 2.093273 1_665
Li7 O45 2.138757 1_655
Mn0 O9 2.102389 1_555
Mn0 O44 2.156576 1_545
Mn0 O46 2.233044 1_545
Mn0 O45 2.233044 1_545
Mn0 O4 2.280477 1_555
Mn0 O5 2.280477 1_555
Mn1 O14 2.102389 1_555
Mn1 O27 2.156576 1_555
Mn1 O26 2.233044 1_555
Mn1 O25 2.233044 1_555
Mn1 O18 2.280477 1_555
Mn1 O19 2.280477 1_555
Mn2 O33 2.102389 1_555
Mn2 O20 2.156576 1_555
Mn2 O21 2.233044 1_555
Mn2 O22 2.233044 1_555
Mn2 O28 2.280477 1_555
Mn2 O29 2.280477 1_555
Mn3 O38 2.102389 1_555
Mn3 O3 2.156576 1_565
Mn3 O1 2.233044 1_565
Mn3 O2 2.233044 1_565
Mn3 O42 2.280477 1_555
Mn3 O43 2.280477 1_555
O0 P0 1.498190 1_555
O1 P1 1.507322 1_555
O2 P2 1.507322 1_555
O3 P4 1.504848 1_555
O4 P5 1.509902 1_555
O5 P6 1.509902 1_555
O6 P1 1.611061 1_555
O6 P0 1.616344 1_555
O7 P2 1.611061 1_555
O7 P0 1.616344 1_555
O8 P7 1.498873 1_555
O9 P3 1.485148 1_555
O10 P2 1.586968 1_455
O10 P3 1.609890 1_555
O11 P1 1.586968 1_555
O11 P3 1.609890 1_555
O12 P6 1.586968 1_555
O12 P4 1.609890 1_556
O13 P5 1.586968 1_655
O13 P4 1.609890 1_556
O14 P4 1.485148 1_555
O15 P0 1.498873 1_555
O16 P5 1.611061 1_554
O16 P7 1.616344 1_555
O17 P6 1.611061 1_554
O17 P7 1.616344 1_555
O18 P1 1.509902 1_555
O19 P2 1.509902 1_555
O20 P3 1.504848 1_555
O21 P5 1.507322 1_555
O22 P6 1.507322 1_555
O23 P7 1.498190 1_555
O24 P8 1.498190 1_555
O25 P9 1.507322 1_555
O26 P10 1.507322 1_555
O27 P12 1.504848 1_555
O28 P13 1.509902 1_555
O29 P14 1.509902 1_555
O30 P9 1.611061 1_556
O30 P8 1.616344 1_555
O31 P10 1.611061 1_556
O31 P8 1.616344 1_555
O32 P15 1.498873 1_555
O33 P11 1.485148 1_555
O34 P10 1.586968 1_455
O34 P11 1.609890 1_554
O35 P9 1.586968 1_555
O35 P11 1.609890 1_554
O36 P14 1.586968 1_555
O36 P12 1.609890 1_555
O37 P13 1.586968 1_655
O37 P12 1.609890 1_555
O38 P12 1.485148 1_555
O39 P8 1.498873 1_555
O40 P13 1.611061 1_555
O40 P15 1.616344 1_555
O41 P14 1.611061 1_555
O41 P15 1.616344 1_555
O42 P9 1.509902 1_555
O43 P10 1.509902 1_555
O44 P11 1.504848 1_555
O45 P13 1.507322 1_555
O46 P14 1.507322 1_555
O47 P15 1.498190 1_555
