# generated using pymatgen
data_Ba3MgMnNb2O9
_symmetry_space_group_name_H-M   'P 1'
_cell_length_a   6.18968112
_cell_length_b   6.18959129
_cell_length_c   7.46385181
_cell_angle_alpha   86.15713924
_cell_angle_beta   93.84287540
_cell_angle_gamma   123.00034473
_symmetry_Int_Tables_number   1
_chemical_formula_structural   Ba3MgMnNb2O9
_chemical_formula_sum   'Ba3 Mg1 Mn1 Nb2 O9'
_cell_volume   239.12025859
_cell_formula_units_Z   1
loop_
 _symmetry_equiv_pos_site_id
 _symmetry_equiv_pos_as_xyz
  1  'x, y, z'
loop_
 _atom_site_type_symbol
 _atom_site_label
 _atom_site_symmetry_multiplicity
 _atom_site_fract_x
 _atom_site_fract_y
 _atom_site_fract_z
 _atom_site_occupancy
  Ba  Ba0  1  0.27881500  0.72114800  0.69720900  1
  Ba  Ba1  1  0.72118100  0.27882000  0.30286400  1
  Ba  Ba2  1  0.99997400  0.99998700  0.99992900  1
  Mg  Mg0  1  0.50001000  0.50003700  0.50002300  1
  Mn  Mn0  1  0.00012000  0.99974100  0.49981900  1
  Nb  Nb0  1  0.33793800  0.66209100  0.15690100  1
  Nb  Nb1  1  0.66207200  0.33794600  0.84309200  1
  O  O0  1  0.33213900  0.19511700  0.67075100  1
  O  O1  1  0.80230600  0.19765800  0.68282700  1
  O  O2  1  0.80492300  0.66786500  0.67075100  1
  O  O3  1  0.19763600  0.80242800  0.31730300  1
  O  O4  1  0.66785400  0.80491300  0.32923300  1
  O  O5  1  0.19510300  0.33216400  0.32924900  1
  O  O6  1  0.49998900  0.00003700  0.00001600  1
  O  O7  1  0.99996900  0.50001800  0.00003000  1
  O  O8  1  0.49996900  0.50003100  0.00000500  1
loop_
_geom_bond_atom_site_label_1
_geom_bond_atom_site_label_2
_geom_bond_distance
_geom_bond_site_symmetry_2
Ba0 O7 2.737853 1_456
Ba0 O6 2.737895 1_566
Ba0 O2 2.762063 1_455
Ba0 O0 2.762376 1_565
Ba0 O3 2.905022 1_555
Ba0 Mg0 2.914583 1_555
Ba0 O1 2.967099 1_455
Ba0 O1 2.967114 1_565
Ba0 O8 3.172715 1_556
Ba1 O7 2.737828 1_555
Ba1 O6 2.737890 1_555
Ba1 O4 2.761982 1_545
Ba1 O5 2.762071 1_655
Ba1 O1 2.905213 1_555
Ba1 Mg0 2.914854 1_555
Ba1 O3 2.967028 1_545
Ba1 O3 2.967389 1_655
Ba1 O8 3.173605 1_555
Ba2 O8 2.953308 1_556
Ba2 O8 2.953538 1_666
Ba2 O2 3.048928 1_555
Ba2 O0 3.049069 1_665
Ba2 O4 3.049710 1_556
Ba2 O5 3.049964 1_666
Ba2 O1 3.074082 1_565
Ba2 O3 3.075126 1_656
Ba2 O7 3.094536 1_556
Ba2 O6 3.094721 1_666
Ba2 O6 3.094960 1_566
Ba2 O7 3.095055 1_566
Mg0 O2 1.996081 1_555
Mg0 O0 1.996105 1_555
Mg0 O4 1.996211 1_555
Mg0 O5 1.996281 1_555
Mn0 O4 2.111466 1_455
Mn0 O2 2.111625 1_455
Mn0 O5 2.112063 1_565
Mn0 O0 2.112283 1_565
Mn0 O3 2.629571 1_555
Mn0 O1 2.635903 1_465
Nb0 O3 2.010585 1_555
Nb0 O6 2.072761 1_565
Nb0 O7 2.072824 1_455
Nb0 O4 2.107118 1_555
Nb0 O5 2.107208 1_555
Nb0 O8 2.189544 1_555
Nb1 O1 2.009405 1_555
Nb1 O6 2.072747 1_556
Nb1 O7 2.072773 1_556
Nb1 O2 2.107136 1_555
Nb1 O0 2.107227 1_555
Nb1 O8 2.190066 1_556
