# generated using pymatgen
data_Ce3(GeRh)2
_symmetry_space_group_name_H-M   'P 1'
_cell_length_a   5.60852900
_cell_length_b   8.08132400
_cell_length_c   13.30913100
_cell_angle_alpha   90.00000000
_cell_angle_beta   90.00000000
_cell_angle_gamma   90.00000000
_symmetry_Int_Tables_number   1
_chemical_formula_structural   Ce3(GeRh)2
_chemical_formula_sum   'Ce12 Ge8 Rh8'
_cell_volume   603.22757871
_cell_formula_units_Z   4
loop_
 _symmetry_equiv_pos_site_id
 _symmetry_equiv_pos_as_xyz
  1  'x, y, z'
loop_
 _atom_site_type_symbol
 _atom_site_label
 _atom_site_symmetry_multiplicity
 _atom_site_fract_x
 _atom_site_fract_y
 _atom_site_fract_z
 _atom_site_occupancy
  Ce  Ce0  1  0.36371000  0.74193800  0.75000000  1
  Ce  Ce1  1  0.36371000  0.75806200  0.25000000  1
  Ce  Ce2  1  0.63629000  0.24193800  0.75000000  1
  Ce  Ce3  1  0.63629000  0.25806200  0.25000000  1
  Ce  Ce4  1  0.15592200  0.39672100  0.40229800  1
  Ce  Ce5  1  0.15592200  0.10327900  0.59770200  1
  Ce  Ce6  1  0.84407800  0.89672100  0.09770200  1
  Ce  Ce7  1  0.84407800  0.60327900  0.90229800  1
  Ce  Ce8  1  0.84407800  0.60327900  0.59770200  1
  Ce  Ce9  1  0.84407800  0.89672100  0.40229800  1
  Ce  Ce10  1  0.15592200  0.10327900  0.90229800  1
  Ce  Ce11  1  0.15592200  0.39672100  0.09770200  1
  Ge  Ge0  1  0.67536200  0.25000000  0.50000000  1
  Ge  Ge1  1  0.32463800  0.75000000  0.00000000  1
  Ge  Ge2  1  0.32463800  0.75000000  0.50000000  1
  Ge  Ge3  1  0.67536200  0.25000000  0.00000000  1
  Ge  Ge4  1  0.86919500  0.89238700  0.75000000  1
  Ge  Ge5  1  0.86919500  0.60761300  0.25000000  1
  Ge  Ge6  1  0.13080500  0.39238700  0.75000000  1
  Ge  Ge7  1  0.13080500  0.10761300  0.25000000  1
  Rh  Rh0  1  0.37873800  0.04206200  0.40692300  1
  Rh  Rh1  1  0.37873800  0.45793800  0.59307700  1
  Rh  Rh2  1  0.62126200  0.54206200  0.09307700  1
  Rh  Rh3  1  0.62126200  0.95793800  0.90692300  1
  Rh  Rh4  1  0.37873800  0.04206200  0.09307700  1
  Rh  Rh5  1  0.37873800  0.45793800  0.90692300  1
  Rh  Rh6  1  0.62126200  0.54206200  0.40692300  1
  Rh  Rh7  1  0.62126200  0.95793800  0.59307700  1
loop_
_geom_bond_atom_site_label_1
_geom_bond_atom_site_label_2
_geom_bond_distance
_geom_bond_site_symmetry_2
Ce0 Ge4 3.028291 1_455
Ce0 Rh3 3.081463 1_555
Ce0 Rh7 3.081463 1_555
Ce0 Ge4 3.084739 1_555
Ce0 Rh5 3.104261 1_555
Ce0 Rh1 3.104261 1_555
Ce0 Ge6 3.112233 1_555
Ce0 Ge1 3.335128 1_556
Ce0 Ge2 3.335128 1_555
Ce1 Ge5 3.028291 1_455
Ce1 Rh6 3.081463 1_555
Ce1 Rh2 3.081463 1_555
Ce1 Ge5 3.084739 1_555
Ce1 Rh0 3.104261 1_565
Ce1 Rh4 3.104261 1_565
Ce1 Ge7 3.112233 1_565
Ce1 Ge2 3.335128 1_555
Ce1 Ge1 3.335128 1_555
Ce2 Ge6 3.028291 1_655
Ce2 Rh1 3.081463 1_555
Ce2 Rh5 3.081463 1_555
Ce2 Ge6 3.084739 1_555
Ce2 Rh7 3.104261 1_545
Ce2 Rh3 3.104261 1_545
Ce2 Ge4 3.112233 1_545
Ce2 Ge0 3.335128 1_555
Ce2 Ge3 3.335128 1_556
Ce3 Ge7 3.028291 1_655
Ce3 Rh4 3.081463 1_555
Ce3 Rh0 3.081463 1_555
Ce3 Ge7 3.084739 1_555
Ce3 Rh6 3.104261 1_555
Ce3 Rh2 3.104261 1_555
Ce3 Ge5 3.112233 1_555
Ce3 Ge0 3.335128 1_555
Ce3 Ge3 3.335128 1_555
Ce4 Rh6 2.862654 1_555
Ce4 Rh1 2.872884 1_555
Ce4 Ge7 3.096294 1_555
Ce4 Ge5 3.098253 1_455
Ce4 Rh0 3.127311 1_555
Ce4 Ge0 3.218855 1_455
Ce4 Rh6 3.221070 1_455
Ce4 Ge2 3.276744 1_555
Ce4 Ge0 3.403531 1_555
Ce5 Rh7 2.862654 1_545
Ce5 Rh0 2.872884 1_555
Ce5 Ge6 3.096294 1_555
Ce5 Ge4 3.098253 1_445
Ce5 Rh1 3.127311 1_555
Ce5 Ge0 3.218855 1_455
Ce5 Rh7 3.221070 1_445
Ce5 Ge2 3.276744 1_545
Ce5 Ge0 3.403531 1_555
Ce6 Rh4 2.862654 1_565
Ce6 Rh3 2.872884 1_554
Ce6 Ge5 3.096294 1_555
Ce6 Ge7 3.098253 1_665
Ce6 Rh2 3.127311 1_555
Ce6 Ge1 3.218855 1_655
Ce6 Rh4 3.221070 1_665
Ce6 Ge3 3.276744 1_565
Ce6 Ge1 3.403531 1_555
Ce7 Rh5 2.862654 1_555
Ce7 Rh2 2.872884 1_556
Ce7 Ge4 3.096294 1_555
Ce7 Ge6 3.098253 1_655
Ce7 Rh3 3.127311 1_555
Ce7 Ge1 3.218855 1_656
Ce7 Rh5 3.221070 1_655
Ce7 Ge3 3.276744 1_556
Ce7 Ge1 3.403531 1_556
Ce8 Rh1 2.862654 1_555
Ce8 Rh6 2.872884 1_555
Ce8 Ge4 3.096294 1_555
Ce8 Ge6 3.098253 1_655
Ce8 Rh7 3.127311 1_555
Ce8 Ge2 3.218855 1_655
Ce8 Rh1 3.221070 1_655
Ce8 Ge0 3.276744 1_555
Ce8 Ge2 3.403531 1_555
Ce9 Rh0 2.862654 1_565
Ce9 Rh7 2.872884 1_555
Ce9 Ge5 3.096294 1_555
Ce9 Ge7 3.098253 1_665
Ce9 Rh6 3.127311 1_555
Ce9 Ge2 3.218855 1_655
Ce9 Rh0 3.221070 1_665
Ce9 Ge0 3.276744 1_565
Ce9 Ge2 3.403531 1_555
Ce10 Rh3 2.862654 1_545
Ce10 Rh4 2.872884 1_556
Ce10 Ge6 3.096294 1_555
Ce10 Ge4 3.098253 1_445
Ce10 Rh5 3.127311 1_555
Ce10 Ge3 3.218855 1_456
Ce10 Rh3 3.221070 1_445
Ce10 Ge1 3.276744 1_546
Ce10 Ge3 3.403531 1_556
Ce11 Rh2 2.862654 1_555
Ce11 Rh5 2.872884 1_554
Ce11 Ge7 3.096294 1_555
Ce11 Ge5 3.098253 1_455
Ce11 Rh4 3.127311 1_555
Ce11 Ge3 3.218855 1_455
Ce11 Rh2 3.221070 1_455
Ce11 Ge1 3.276744 1_555
Ce11 Ge3 3.403531 1_555
Ge0 Rh1 2.669457 1_555
Ge0 Rh0 2.669457 1_555
Ge0 Rh7 2.682796 1_545
Ge0 Rh6 2.682796 1_555
Ge1 Rh2 2.669457 1_555
Ge1 Rh3 2.669457 1_554
Ge1 Rh5 2.682796 1_554
Ge1 Rh4 2.682796 1_565
Ge2 Rh7 2.669457 1_555
Ge2 Rh6 2.669457 1_555
Ge2 Rh1 2.682796 1_555
Ge2 Rh0 2.682796 1_565
Ge3 Rh4 2.669457 1_555
Ge3 Rh5 2.669457 1_554
Ge3 Rh3 2.682796 1_544
Ge3 Rh2 2.682796 1_555
Ge4 Rh3 2.564389 1_555
Ge4 Rh7 2.564389 1_555
Ge5 Rh6 2.564389 1_555
Ge5 Rh2 2.564389 1_555
Ge6 Rh5 2.564389 1_555
Ge6 Rh1 2.564389 1_555
Ge7 Rh0 2.564389 1_555
Ge7 Rh4 2.564389 1_555
