# generated using pymatgen
data_Li4Co(PO4)2
_symmetry_space_group_name_H-M   'P 1'
_cell_length_a   10.42492900
_cell_length_b   8.20747400
_cell_length_c   8.24263083
_cell_angle_alpha   75.19368076
_cell_angle_beta   90.00000000
_cell_angle_gamma   90.00000000
_symmetry_Int_Tables_number   1
_chemical_formula_structural   Li4Co(PO4)2
_chemical_formula_sum   'Li16 Co4 P8 O32'
_cell_volume   681.84076142
_cell_formula_units_Z   4
loop_
 _symmetry_equiv_pos_site_id
 _symmetry_equiv_pos_as_xyz
  1  'x, y, z'
loop_
 _atom_site_type_symbol
 _atom_site_label
 _atom_site_symmetry_multiplicity
 _atom_site_fract_x
 _atom_site_fract_y
 _atom_site_fract_z
 _atom_site_occupancy
  Li  Li0  1  0.42743000  0.22769100  0.52213600  1
  Li  Li1  1  0.92743000  0.27230900  0.47786400  1
  Li  Li2  1  0.65158200  0.84975900  0.14882900  1
  Li  Li3  1  0.66263900  0.34250800  0.65463400  1
  Li  Li4  1  0.34841800  0.15024100  0.85117100  1
  Li  Li5  1  0.66422500  0.09950000  0.39792200  1
  Li  Li6  1  0.15158200  0.65024100  0.85117100  1
  Li  Li7  1  0.83577500  0.59950000  0.39792200  1
  Li  Li8  1  0.16263900  0.15749200  0.34536600  1
  Li  Li9  1  0.07257000  0.72769100  0.52213600  1
  Li  Li10  1  0.84841800  0.34975900  0.14882900  1
  Li  Li11  1  0.83736100  0.84250800  0.65463400  1
  Li  Li12  1  0.16422500  0.40050000  0.60207800  1
  Li  Li13  1  0.33736100  0.65749200  0.34536600  1
  Li  Li14  1  0.33577500  0.90050000  0.60207800  1
  Li  Li15  1  0.57257000  0.77230900  0.47786400  1
  Co  Co0  1  0.65617300  0.58939700  0.90614900  1
  Co  Co1  1  0.84382700  0.08939700  0.90614900  1
  Co  Co2  1  0.15617300  0.91060300  0.09385100  1
  Co  Co3  1  0.34382700  0.41060300  0.09385100  1
  P  P0  1  0.59201700  0.47391600  0.28977900  1
  P  P1  1  0.09201700  0.02608400  0.71022100  1
  P  P2  1  0.90798300  0.97391600  0.28977900  1
  P  P3  1  0.90670700  0.46532400  0.76757000  1
  P  P4  1  0.40798300  0.52608400  0.71022100  1
  P  P5  1  0.09329300  0.53467600  0.23243000  1
  P  P6  1  0.59329300  0.96532400  0.76757000  1
  P  P7  1  0.40670700  0.03467600  0.23243000  1
  O  O0  1  0.67015000  0.11544600  0.80396700  1
  O  O1  1  0.60418600  0.81497200  0.92791100  1
  O  O2  1  0.82985000  0.61544600  0.80396700  1
  O  O3  1  0.65021700  0.62883300  0.33856300  1
  O  O4  1  0.89872400  0.81309400  0.43758800  1
  O  O5  1  0.16722600  0.05872100  0.86261100  1
  O  O6  1  0.39581400  0.18502800  0.07208900  1
  O  O7  1  0.04708200  0.52140600  0.72605000  1
  O  O8  1  0.44714000  0.50907500  0.24545300  1
  O  O9  1  0.54708200  0.97859400  0.27395000  1
  O  O10  1  0.95291800  0.47859400  0.27395000  1
  O  O11  1  0.39872400  0.68690600  0.56241200  1
  O  O12  1  0.84529100  0.41184800  0.61674900  1
  O  O13  1  0.34529100  0.08815200  0.38325100  1
  O  O14  1  0.84978300  0.12883300  0.33856300  1
  O  O15  1  0.45291800  0.02140600  0.72605000  1
  O  O16  1  0.15470900  0.58815200  0.38325100  1
  O  O17  1  0.33277400  0.55872100  0.86261100  1
  O  O18  1  0.94714000  0.99092500  0.75454700  1
  O  O19  1  0.10127600  0.18690600  0.56241200  1
  O  O20  1  0.34978300  0.37116700  0.66143700  1
  O  O21  1  0.05286000  0.00907500  0.24545300  1
  O  O22  1  0.15021700  0.87116700  0.66143700  1
  O  O23  1  0.66722600  0.44127900  0.13738900  1
  O  O24  1  0.17015000  0.38455400  0.19603300  1
  O  O25  1  0.60127600  0.31309400  0.43758800  1
  O  O26  1  0.65470900  0.91184800  0.61674900  1
  O  O27  1  0.32985000  0.88455400  0.19603300  1
  O  O28  1  0.89581400  0.31497200  0.92791100  1
  O  O29  1  0.55286000  0.49092500  0.75454700  1
  O  O30  1  0.10418600  0.68502800  0.07208900  1
  O  O31  1  0.83277400  0.94127900  0.13738900  1
loop_
_geom_bond_atom_site_label_1
_geom_bond_atom_site_label_2
_geom_bond_distance
_geom_bond_site_symmetry_2
Li0 O25 2.002965 1_555
Li0 O13 2.006359 1_555
Li0 O20 2.012799 1_555
Li0 O15 2.075503 1_555
Li1 O19 2.002965 1_655
Li1 O12 2.006359 1_555
Li1 O14 2.012799 1_555
Li1 O10 2.075503 1_555
Li2 O1 1.976669 1_554
Li2 O9 1.981396 1_555
Li2 O31 2.026057 1_555
Li2 O3 2.069903 1_555
Li3 O0 1.954952 1_555
Li3 O25 1.972024 1_555
Li3 O12 1.989043 1_555
Li3 O29 1.996131 1_555
Li4 O6 1.976669 1_556
Li4 O15 1.981396 1_555
Li4 O5 2.026057 1_555
Li4 O20 2.069903 1_555
Li5 O25 1.975789 1_555
Li5 O14 1.994783 1_555
Li5 O9 2.009610 1_545
Li5 O26 2.053151 1_545
Li6 O30 1.976669 1_556
Li6 O7 1.981396 1_555
Li6 O17 2.026057 1_555
Li6 O22 2.069903 1_555
Li7 O4 1.975789 1_555
Li7 O3 1.994783 1_555
Li7 O10 2.009610 1_555
Li7 O12 2.053151 1_555
Li8 O24 1.954952 1_555
Li8 O19 1.972024 1_555
Li8 O13 1.989043 1_555
Li8 O21 1.996131 1_555
Li9 O4 2.002965 1_455
Li9 O16 2.006359 1_555
Li9 O22 2.012799 1_555
Li9 O7 2.075503 1_555
Li10 O28 1.976669 1_554
Li10 O10 1.981396 1_555
Li10 O23 2.026057 1_555
Li10 O14 2.069903 1_555
Li11 O2 1.954952 1_555
Li11 O4 1.972024 1_555
Li11 O26 1.989043 1_555
Li11 O18 1.996131 1_555
Li12 O19 1.975789 1_555
Li12 O20 1.994783 1_555
Li12 O7 2.009610 1_555
Li12 O16 2.053151 1_555
Li13 O27 1.954952 1_555
Li13 O11 1.972024 1_555
Li13 O16 1.989043 1_555
Li13 O8 1.996131 1_555
Li14 O11 1.975789 1_555
Li14 O22 1.994783 1_555
Li14 O15 2.009610 1_565
Li14 O13 2.053151 1_565
Li15 O11 2.002965 1_555
Li15 O26 2.006359 1_555
Li15 O3 2.012799 1_555
Li15 O9 2.075503 1_555
Co0 O29 1.972530 1_555
Co0 O1 1.980737 1_555
Co0 O23 1.984891 1_556
Co0 O2 1.985251 1_555
Co1 O18 1.972530 1_545
Co1 O28 1.980737 1_555
Co1 O31 1.984891 1_546
Co1 O0 1.985251 1_555
Co2 O21 1.972530 1_565
Co2 O30 1.980737 1_555
Co2 O5 1.984891 1_564
Co2 O27 1.985251 1_555
Co3 O8 1.972530 1_555
Co3 O6 1.980737 1_555
Co3 O17 1.984891 1_554
Co3 O24 1.985251 1_555
O0 P6 1.561738 1_545
O1 P6 1.564871 1_555
O2 P3 1.561738 1_555
O3 P0 1.551703 1_555
O4 P2 1.553699 1_555
O5 P1 1.560842 1_555
O6 P7 1.564871 1_555
O7 P3 1.545968 1_455
O8 P0 1.563323 1_555
O9 P7 1.545968 1_565
O10 P5 1.545968 1_655
O11 P4 1.553699 1_555
O12 P3 1.557848 1_555
O13 P7 1.557848 1_555
O14 P2 1.551703 1_545
O15 P6 1.545968 1_545
O16 P5 1.557848 1_555
O17 P4 1.560842 1_555
O18 P1 1.563323 1_665
O19 P1 1.553699 1_555
O20 P4 1.551703 1_555
O21 P2 1.563323 1_445
O22 P1 1.551703 1_565
O23 P0 1.560842 1_555
O24 P5 1.561738 1_555
O25 P0 1.553699 1_555
O26 P6 1.557848 1_555
O27 P7 1.561738 1_565
O28 P3 1.564871 1_555
O29 P4 1.563323 1_555
O30 P5 1.564871 1_555
O31 P2 1.560842 1_555
