# generated using pymatgen
data_Na4Hf2Ga2Si3(SO8)3
_symmetry_space_group_name_H-M   'P 1'
_cell_length_a   8.91125700
_cell_length_b   8.90008466
_cell_length_c   22.69302831
_cell_angle_alpha   90.21591975
_cell_angle_beta   88.56477006
_cell_angle_gamma   119.84645707
_symmetry_Int_Tables_number   1
_chemical_formula_structural   Na4Hf2Ga2Si3(SO8)3
_chemical_formula_sum   'Na12 Hf6 Ga6 Si9 S9 O72'
_cell_volume   1560.51497915
_cell_formula_units_Z   3
loop_
 _symmetry_equiv_pos_site_id
 _symmetry_equiv_pos_as_xyz
  1  'x, y, z'
loop_
 _atom_site_type_symbol
 _atom_site_label
 _atom_site_symmetry_multiplicity
 _atom_site_fract_x
 _atom_site_fract_y
 _atom_site_fract_z
 _atom_site_occupancy
  Na  Na0  1  0.00042777  0.64359064  0.25317258  1
  Na  Na1  1  0.99686531  0.35724892  0.73892639  1
  Na  Na2  1  0.66322431  0.97116523  0.58768620  1
  Na  Na3  1  0.66944278  0.69852440  0.08142607  1
  Na  Na4  1  0.33479606  0.30435603  0.90235760  1
  Na  Na5  1  0.32462714  0.02715809  0.42148840  1
  Na  Na6  1  0.01010129  0.00256722  0.50003274  1
  Na  Na7  1  0.98758843  0.98007521  0.99246385  1
  Na  Na8  1  0.65629202  0.32991749  0.82010771  1
  Na  Na9  1  0.66360420  0.34456889  0.33102152  1
  Na  Na10  1  0.33533245  0.67848074  0.16741595  1
  Na  Na11  1  0.33495712  0.66666857  0.65903322  1
  Hf  Hf0  1  0.00906397  0.01074025  0.64564522  1
  Hf  Hf1  1  0.00352284  0.98876474  0.14886151  1
  Hf  Hf2  1  0.67554661  0.34781373  0.97985792  1
  Hf  Hf3  1  0.67473874  0.33859253  0.48307267  1
  Hf  Hf4  1  0.33743616  0.67170846  0.31303816  1
  Hf  Hf5  1  0.34805389  0.66808831  0.80995052  1
  Ga  Ga0  1  0.00350625  0.96800797  0.34676029  1
  Ga  Ga1  1  0.97712987  0.99103829  0.84257875  1
  Ga  Ga2  1  0.64230053  0.29358087  0.68430756  1
  Ga  Ga3  1  0.67602118  0.34588563  0.19031339  1
  Ga  Ga4  1  0.33303900  0.67613200  0.01650129  1
  Ga  Ga5  1  0.28017034  0.66212068  0.52335882  1
  Si  Si0  1  0.30695549  0.01400014  0.25078206  1
  Si  Si1  1  0.70572163  0.70308267  0.24920601  1
  Si  Si2  1  0.29401357  0.27900311  0.75338197  1
  Si  Si3  1  0.71028990  0.00632667  0.74839713  1
  Si  Si4  1  0.95585638  0.33885086  0.58795155  1
  Si  Si5  1  0.37233337  0.03416883  0.57965839  1
  Si  Si6  1  0.96990409  0.62026354  0.08504123  1
  Si  Si7  1  0.63148382  0.68327975  0.91898705  1
  Si  Si8  1  0.03349613  0.66812168  0.41438729  1
  S  S0  1  -0.00093695  0.28459199  0.25193311  1
  S  S1  1  0.99684815  0.70840492  0.75287486  1
  S  S2  1  0.66304108  0.62121981  0.58571946  1
  S  S3  1  0.66549896  0.04464536  0.08436152  1
  S  S4  1  0.37483804  0.33591871  0.08381207  1
  S  S5  1  0.04569700  0.37683209  0.91859461  1
  S  S6  1  0.33052384  0.95679987  0.91939848  1
  S  S7  1  0.63340835  0.95755264  0.41673781  1
  S  S8  1  0.32769486  0.37713647  0.41878771  1
  O  O0  1  0.22259046  0.04416507  0.31134797  1
  O  O1  1  0.83452278  0.79748268  0.30309858  1
  O  O2  1  0.97917602  0.18036303  0.30422312  1
  O  O3  1  0.20412042  0.16620824  0.81526452  1
  O  O4  1  0.97771195  0.79006193  0.80773471  1
  O  O5  1  0.83061479  0.04221130  0.80556422  1
  O  O6  1  0.78981717  0.96547947  0.68941642  1
  O  O7  1  0.16438418  0.19154831  0.69861970  1
  O  O8  1  0.02830176  0.81567251  0.70008279  1
  O  O9  1  0.78726740  0.81795103  0.18756312  1
  O  O10  1  0.02214459  0.20659295  0.19637499  1
  O  O11  1  0.17078050  0.97283663  0.19618590  1
  O  O12  1  0.86671832  0.36606097  0.64743104  1
  O  O13  1  0.49806526  0.12075973  0.63481775  1
  O  O14  1  0.64015945  0.51605262  0.63821953  1
  O  O15  1  0.87523779  0.50397785  0.14398380  1
  O  O16  1  0.64476590  0.12707075  0.13721977  1
  O  O17  1  0.48389150  0.35812940  0.13394668  1
  O  O18  1  0.45106929  0.30605013  0.02801469  1
  O  O19  1  0.83709886  0.52787754  0.02950057  1
  O  O20  1  0.67850293  0.14321620  0.02978731  1
  O  O21  1  0.45329710  0.14801114  0.51847890  1
  O  O22  1  0.68836993  0.54032559  0.53076120  1
  O  O23  1  0.83525435  0.30942530  0.53033349  1
  O  O24  1  0.53798041  0.70093787  0.98090176  1
  O  O25  1  0.15290546  0.46693791  0.97004961  1
  O  O26  1  0.30854655  0.85422256  0.97370927  1
  O  O27  1  0.55691118  0.85740067  0.47104757  1
  O  O28  1  0.31690643  0.46745176  0.47172206  1
  O  O29  1  0.16613597  0.71044454  0.46831738  1
  O  O30  1  0.12368677  0.64373446  0.35394563  1
  O  O31  1  0.51725758  0.86775404  0.36528077  1
  O  O32  1  0.35234979  0.48173105  0.36417667  1
  O  O33  1  0.11609976  0.47969054  0.86399334  1
  O  O34  1  0.35122919  0.87369043  0.86648914  1
  O  O35  1  0.49604286  0.63688439  0.86559043  1
  O  O36  1  0.02493979  0.84971997  0.41175452  1
  O  O37  1  0.80898629  0.98696469  0.40582614  1
  O  O38  1  0.17152655  0.20381763  0.41474693  1
  O  O39  1  0.03482960  0.20617738  0.91566370  1
  O  O40  1  0.18239391  0.98594231  0.91747893  1
  O  O41  1  0.82521890  0.84813475  0.90832670  1
  O  O42  1  0.96620450  0.15822255  0.58907847  1
  O  O43  1  0.17754029  0.00292080  0.58760477  1
  O  O44  1  0.82371212  0.79581595  0.58776859  1
  O  O45  1  0.97889910  0.81209837  0.08741411  1
  O  O46  1  0.82713965  0.02959057  0.08504618  1
  O  O47  1  0.19788809  0.18379503  0.08872109  1
  O  O48  1  0.69835681  0.18237473  0.74529502  1
  O  O49  1  0.48853281  0.31432122  0.74234979  1
  O  O50  1  0.84580934  0.53589173  0.74930589  1
  O  O51  1  0.70352889  0.51883916  0.24424524  1
  O  O52  1  0.84693253  0.30961822  0.24780523  1
  O  O53  1  0.49805505  0.17672037  0.23794632  1
  O  O54  1  0.63749167  0.49769146  0.92542945  1
  O  O55  1  0.86637742  0.34972819  0.92580949  1
  O  O56  1  0.49292848  0.13334838  0.92364813  1
  O  O57  1  0.63683643  0.12978350  0.41853530  1
  O  O58  1  0.48381426  0.35239786  0.41962082  1
  O  O59  1  0.84240152  0.49744453  0.42073038  1
  O  O60  1  0.36483682  0.49676783  0.07798814  1
  O  O61  1  0.16280557  0.64362882  0.07379842  1
  O  O62  1  0.51398350  0.86443259  0.08128753  1
  O  O63  1  0.37180864  0.84867544  0.57451949  1
  O  O64  1  0.51439149  0.64831437  0.57871631  1
  O  O65  1  0.15175290  0.50128713  0.58017621  1
  O  O66  1  0.31036635  0.82976274  0.25522449  1
  O  O67  1  0.51215300  0.67539609  0.25532594  1
  O  O68  1  0.15728332  0.46304075  0.25441423  1
  O  O69  1  0.29615530  0.46744758  0.76041685  1
  O  O70  1  0.15438079  0.68675237  0.75891444  1
  O  O71  1  0.51536770  0.83773032  0.75648173  1
loop_
_geom_bond_atom_site_label_1
_geom_bond_atom_site_label_2
_geom_bond_distance
_geom_bond_site_symmetry_2
Na0 O51 2.318403 1_455
Na0 O66 2.413855 1_555
Na0 O30 2.561355 1_555
Na0 O52 2.584500 1_455
Na0 O68 2.602831 1_555
Na0 O1 2.695407 1_455
Na0 O15 2.768329 1_455
Na0 O11 2.840091 1_555
Na1 O48 2.319662 1_555
Na1 O69 2.402256 1_655
Na1 O12 2.423771 1_555
Na1 O50 2.550867 1_555
Na1 O70 2.588591 1_655
Na1 O7 2.711588 1_655
Na1 O5 2.851031 1_555
Na2 O63 2.289117 1_555
Na2 O42 2.364767 1_565
Na2 O64 2.504549 1_555
Na2 O44 2.588935 1_555
Na2 O6 2.606303 1_555
Na2 O13 2.635061 1_565
Na2 O27 2.842419 1_555
Na2 O23 2.905725 1_565
Na3 O60 2.399286 1_555
Na3 O45 2.426526 1_555
Na3 O62 2.477064 1_555
Na3 O46 2.558522 1_565
Na3 O24 2.595386 1_554
Na3 O9 2.651409 1_555
Na3 O19 2.843264 1_555
Na3 O17 2.876651 1_555
Na4 O3 2.333624 1_555
Na4 O39 2.374178 1_555
Na4 O54 2.440286 1_555
Na4 O40 2.479185 1_545
Na4 O56 2.590365 1_555
Na4 O35 2.691731 1_555
Na5 O36 2.346027 1_545
Na5 O57 2.457847 1_555
Na5 O21 2.489394 1_555
Na5 O58 2.510759 1_555
Na5 O38 2.550343 1_555
Na5 O29 2.656000 1_545
Na5 O0 2.711177 1_555
Na6 O36 2.454891 1_545
Na6 O43 2.513847 1_555
Na6 O38 2.518989 1_555
Na6 O42 2.575694 1_455
Na6 O44 2.632230 1_445
Na6 O37 2.782719 1_445
Na7 O41 2.355489 1_555
Na7 O40 2.382083 1_655
Na7 O39 2.531918 1_665
Na7 O45 2.604710 1_556
Na7 O46 2.668771 1_566
Na7 O47 2.892063 1_666
Na8 O48 2.277805 1_555
Na8 O49 2.300339 1_555
Na8 O50 2.366211 1_555
Na8 O56 2.832916 1_555
Na8 O54 2.858705 1_555
Na9 O51 2.418413 1_555
Na9 O59 2.553044 1_555
Na9 O58 2.561817 1_555
Na9 O52 2.584319 1_555
Na9 O53 2.609201 1_555
Na9 O57 2.684431 1_555
Na10 O66 2.467530 1_555
Na10 O62 2.517854 1_555
Na10 O61 2.580163 1_555
Na10 O67 2.581531 1_555
Na10 O68 2.633464 1_555
Na10 O60 2.678590 1_555
Na11 O65 2.401835 1_555
Na11 O63 2.423315 1_555
Na11 O64 2.452995 1_555
Na11 O71 2.740309 1_555
Na11 O70 2.803462 1_555
Na11 O69 2.817316 1_555
Hf0 O7 1.949938 1_555
Hf0 O43 1.999473 1_555
Hf0 O42 2.013174 1_455
Hf0 O6 2.022014 1_445
Hf0 O8 2.211926 1_545
Hf0 O44 2.248797 1_445
Hf1 O11 1.920050 1_555
Hf1 O9 1.950756 1_455
Hf1 O45 2.029836 1_455
Hf1 O10 2.149794 1_565
Hf1 O47 2.186884 1_565
Hf1 O46 2.320819 1_465
Hf2 O19 1.918628 1_556
Hf2 O54 1.975753 1_555
Hf2 O55 2.064782 1_555
Hf2 O18 2.118347 1_556
Hf2 O20 2.159883 1_556
Hf2 O56 2.216431 1_555
Hf3 O23 1.926706 1_555
Hf3 O21 2.003972 1_555
Hf3 O59 2.009791 1_555
Hf3 O22 2.045574 1_555
Hf3 O57 2.256587 1_555
Hf3 O58 2.305486 1_555
Hf4 O67 1.996923 1_555
Hf4 O30 1.998264 1_555
Hf4 O66 2.031197 1_555
Hf4 O31 2.077093 1_555
Hf4 O32 2.114102 1_555
Hf4 O68 2.217411 1_555
Hf5 O71 1.912427 1_555
Hf5 O69 1.963441 1_555
Hf5 O35 1.964976 1_555
Hf5 O70 2.175891 1_555
Hf5 O34 2.219911 1_555
Hf5 O33 2.242055 1_555
Ga0 O1 1.827923 1_455
Ga0 O0 1.877530 1_565
Ga0 O36 1.883122 1_555
Ga0 O2 2.232247 1_465
Ga0 O37 2.236701 1_455
Ga0 O38 2.447514 1_565
Ga1 O5 1.807585 1_565
Ga1 O3 1.926640 1_665
Ga1 O4 1.955275 1_555
Ga1 O41 1.968674 1_555
Ga1 O39 2.391691 1_665
Ga1 O40 2.544761 1_655
Ga2 O13 1.835935 1_555
Ga2 O48 1.918755 1_555
Ga2 O12 1.937002 1_555
Ga2 O49 1.950925 1_555
Ga2 O14 2.251422 1_555
Ga2 O50 2.516456 1_555
Ga3 O53 1.870846 1_555
Ga3 O51 1.884852 1_555
Ga3 O15 1.915222 1_555
Ga3 O52 2.172098 1_555
Ga3 O16 2.186578 1_555
Ga3 O17 2.208134 1_555
Ga4 O61 1.882238 1_555
Ga4 O24 1.887541 1_554
Ga4 O26 1.967100 1_554
Ga4 O25 2.061447 1_554
Ga4 O62 2.231707 1_555
Ga4 O60 2.249979 1_555
Ga5 O29 1.811190 1_555
Ga5 O65 1.824976 1_555
Ga5 O63 1.858743 1_555
Ga5 O28 2.238772 1_555
Ga5 O27 2.472704 1_555
Ga5 O64 2.517424 1_555
O0 Si0 1.634832 1_555
O1 Si1 1.619166 1_555
O2 S0 1.460866 1_655
O3 Si2 1.665948 1_555
O4 S1 1.487622 1_555
O5 Si3 1.631069 1_555
O6 Si3 1.622070 1_565
O7 Si2 1.629191 1_555
O8 S1 1.466520 1_455
O9 Si1 1.658449 1_555
O10 S0 1.495435 1_555
O11 Si0 1.664682 1_565
O12 Si4 1.626895 1_555
O13 Si5 1.618531 1_555
O14 S2 1.464013 1_555
O15 Si6 1.629969 1_555
O16 S3 1.458870 1_555
O17 S4 1.462987 1_555
O18 S4 1.506502 1_555
O19 Si6 1.662400 1_555
O20 S3 1.488839 1_555
O21 Si5 1.645432 1_555
O22 S2 1.505194 1_555
O23 Si4 1.649513 1_555
O24 Si7 1.662264 1_555
O25 S5 1.485100 1_555
O26 S6 1.486354 1_555
O27 S7 1.462720 1_555
O28 S8 1.470440 1_555
O29 Si8 1.631744 1_555
O30 Si8 1.640283 1_555
O31 S7 1.517814 1_555
O32 S8 1.497387 1_555
O33 S5 1.471354 1_555
O34 S6 1.463162 1_555
O35 Si7 1.633693 1_555
O36 Si8 1.656875 1_555
O37 S7 1.466727 1_555
O38 S8 1.480938 1_555
O39 S5 1.474394 1_555
O40 S6 1.468122 1_555
O41 Si7 1.628581 1_555
O42 Si4 1.655761 1_555
O43 Si5 1.620872 1_555
O44 S2 1.501692 1_555
O45 Si6 1.669629 1_555
O46 S3 1.512035 1_555
O47 S4 1.482996 1_555
O48 Si3 1.624287 1_555
O49 Si2 1.613292 1_555
O50 S1 1.457089 1_555
O51 Si1 1.633637 1_555
O52 S0 1.484356 1_655
O53 Si0 1.614232 1_555
O54 Si7 1.686047 1_555
O55 S5 1.497329 1_655
O56 S6 1.521556 1_545
O57 S7 1.518311 1_545
O58 S8 1.513462 1_555
O59 Si8 1.625629 1_655
O60 S4 1.484525 1_555
O61 Si6 1.638872 1_455
O62 S3 1.499586 1_565
O63 Si5 1.652273 1_565
O64 S2 1.472039 1_555
O65 Si4 1.625753 1_455
O66 Si0 1.658555 1_565
O67 Si1 1.618829 1_555
O68 S0 1.512592 1_555
O69 Si2 1.674822 1_555
O70 S1 1.518461 1_455
O71 Si3 1.641405 1_565
