# generated using pymatgen
data_MgFeAgS2
_symmetry_space_group_name_H-M   'P 1'
_cell_length_a   3.40442716
_cell_length_b   3.40442719
_cell_length_c   8.63817576
_cell_angle_alpha   78.61109094
_cell_angle_beta   78.61109200
_cell_angle_gamma   59.99096765
_symmetry_Int_Tables_number   1
_chemical_formula_structural   MgFeAgS2
_chemical_formula_sum   'Mg1 Fe1 Ag1 S2'
_cell_volume   84.41283475
_cell_formula_units_Z   1
loop_
 _symmetry_equiv_pos_site_id
 _symmetry_equiv_pos_as_xyz
  1  'x, y, z'
loop_
 _atom_site_type_symbol
 _atom_site_label
 _atom_site_symmetry_multiplicity
 _atom_site_fract_x
 _atom_site_fract_y
 _atom_site_fract_z
 _atom_site_occupancy
  Mg  Mg0  1  0.44512700  0.44512700  0.66841300  1
  Fe  Fe0  1  0.98780600  0.98780600  0.03826200  1
  Ag  Ag0  1  0.86151400  0.86151400  0.41974000  1
  S  S0  1  0.71208300  0.71208300  0.86616100  1
  S  S1  1  0.28089900  0.28089900  0.16035000  1
loop_
_geom_bond_atom_site_label_1
_geom_bond_atom_site_label_2
_geom_bond_distance
_geom_bond_site_symmetry_2
Mg0 S0 2.573378 1_555
Mg0 S0 2.575402 1_545
Mg0 S0 2.575402 1_455
Fe0 S1 2.216046 1_655
Fe0 S1 2.216046 1_565
Fe0 S1 2.220490 1_665
Fe0 S0 2.440478 1_554
Fe0 S0 2.441182 1_564
Fe0 S0 2.441182 1_654
Ag0 Mg0 2.870030 1_655
Ag0 Mg0 2.870030 1_565
Ag0 Mg0 2.870199 1_555
Ag0 S1 2.934236 1_665
Ag0 S1 2.937515 1_565
Ag0 S1 2.937515 1_655
