# generated using pymatgen
data_MgCr4(PbO4)4
_symmetry_space_group_name_H-M   'P 1'
_cell_length_a   7.01583840
_cell_length_b   7.46945419
_cell_length_c   8.15383476
_cell_angle_alpha   92.55596750
_cell_angle_beta   90.72679729
_cell_angle_gamma   104.22144296
_symmetry_Int_Tables_number   1
_chemical_formula_structural   MgCr4(PbO4)4
_chemical_formula_sum   'Mg1 Cr4 Pb4 O16'
_cell_volume   413.66692413
_cell_formula_units_Z   1
loop_
 _symmetry_equiv_pos_site_id
 _symmetry_equiv_pos_as_xyz
  1  'x, y, z'
loop_
 _atom_site_type_symbol
 _atom_site_label
 _atom_site_symmetry_multiplicity
 _atom_site_fract_x
 _atom_site_fract_y
 _atom_site_fract_z
 _atom_site_occupancy
  Mg  Mg0  1  0.57424200  0.12931700  0.89677200  1
  Cr  Cr0  1  0.39297100  0.69927900  0.32952700  1
  Cr  Cr1  1  0.88222300  0.21619300  0.17751200  1
  Cr  Cr2  1  0.12325400  0.80323400  0.82844600  1
  Cr  Cr3  1  0.61933400  0.33002500  0.62769400  1
  Pb  Pb0  1  0.90632100  0.68936100  0.36484300  1
  Pb  Pb1  1  0.58583500  0.69509800  0.89761500  1
  Pb  Pb2  1  0.05986600  0.25146900  0.62209400  1
  Pb  Pb3  1  0.32695500  0.20697200  0.21902700  1
  O  O0  1  0.31587300  0.88751800  0.29546200  1
  O  O1  1  0.22350100  0.63002400  0.77829000  1
  O  O2  1  0.69912100  0.13305300  0.67775600  1
  O  O3  1  0.76784600  0.38139900  0.24597500  1
  O  O4  1  0.19490600  0.54433300  0.39219600  1
  O  O5  1  0.30557100  0.97341800  0.91829300  1
  O  O6  1  0.83174800  0.48514800  0.58578800  1
  O  O7  1  0.69867900  0.04083400  0.07908700  1
  O  O8  1  0.06017200  0.27732600  0.03967300  1
  O  O9  1  0.41168100  0.27436900  0.50926300  1
  O  O10  1  0.94170300  0.73463000  0.95947700  1
  O  O11  1  0.57323700  0.73672900  0.46882800  1
  O  O12  1  0.00847900  0.13787100  0.34380800  1
  O  O13  1  0.54867900  0.37874300  0.83171500  1
  O  O14  1  0.03762300  0.88362800  0.66220600  1
  O  O15  1  0.47499400  0.60966000  0.15698600  1
loop_
_geom_bond_atom_site_label_1
_geom_bond_atom_site_label_2
_geom_bond_distance
_geom_bond_site_symmetry_2
Mg0 O7 1.935739 1_556
Mg0 O5 1.971797 1_545
Mg0 O2 1.997414 1_555
Mg0 O13 2.008611 1_555
Cr0 O11 1.652052 1_555
Cr0 O0 1.658732 1_555
Cr0 O4 1.676939 1_555
Cr0 O15 1.698340 1_555
Cr1 O8 1.682742 1_655
Cr1 O3 1.707269 1_555
Cr1 O7 1.751924 1_555
Cr1 O12 1.805651 1_655
Cr2 O1 1.656194 1_555
Cr2 O14 1.669757 1_555
Cr2 O10 1.670068 1_455
Cr2 O5 1.697932 1_555
Cr3 O9 1.690770 1_555
Cr3 O6 1.697056 1_555
Cr3 O2 1.759841 1_555
Cr3 O13 1.789165 1_555
O0 Pb3 2.476062 1_565
O1 Pb1 2.633063 1_555
O2 Pb2 2.521697 1_655
O3 Pb0 2.419481 1_555
O4 Pb0 2.531847 1_455
O6 Pb0 2.392263 1_555
O6 Pb2 2.665009 1_655
O8 Pb3 2.529922 1_555
O9 Pb3 2.432753 1_555
O9 Pb2 2.613860 1_555
O10 Pb1 2.483491 1_555
O11 Pb0 2.595143 1_555
O12 Pb2 2.378230 1_555
O12 Pb3 2.414933 1_555
O13 Pb1 2.349679 1_555
O14 Pb2 2.747953 1_565
O14 Pb0 2.793899 1_455
O15 Pb1 2.324419 1_554
