# generated using pymatgen
data_Sr4MgNi2(ClO3)2
_symmetry_space_group_name_H-M   'P 1'
_cell_length_a   3.87187200
_cell_length_b   3.87787300
_cell_length_c   16.87287500
_cell_angle_alpha   90.00000000
_cell_angle_beta   90.00000000
_cell_angle_gamma   90.00000000
_symmetry_Int_Tables_number   1
_chemical_formula_structural   Sr4MgNi2(ClO3)2
_chemical_formula_sum   'Sr4 Mg1 Ni2 Cl2 O6'
_cell_volume   253.33993953
_cell_formula_units_Z   1
loop_
 _symmetry_equiv_pos_site_id
 _symmetry_equiv_pos_as_xyz
  1  'x, y, z'
loop_
 _atom_site_type_symbol
 _atom_site_label
 _atom_site_symmetry_multiplicity
 _atom_site_fract_x
 _atom_site_fract_y
 _atom_site_fract_z
 _atom_site_occupancy
  Sr  Sr0  1  0.25000000  0.25000000  0.95245500  1
  Sr  Sr1  1  0.75000000  0.75000000  0.13240000  1
  Sr  Sr2  1  0.25000000  0.25000000  0.61061400  1
  Sr  Sr3  1  0.75000000  0.75000000  0.33684600  1
  Mg  Mg0  1  0.25000000  0.25000000  0.77536200  1
  Ni  Ni0  1  0.75000000  0.75000000  0.78368300  1
  Ni  Ni1  1  0.25000000  0.25000000  0.23589500  1
  Cl  Cl0  1  0.75000000  0.75000000  0.55977500  1
  Cl  Cl1  1  0.25000000  0.25000000  0.43054400  1
  O  O0  1  0.25000000  0.75000000  0.74363300  1
  O  O1  1  0.75000000  0.25000000  0.74363500  1
  O  O2  1  0.75000000  0.25000000  0.24312600  1
  O  O3  1  0.25000000  0.75000000  0.24352800  1
  O  O4  1  0.75000000  0.75000000  0.90675100  1
  O  O5  1  0.25000000  0.25000000  0.08300100  1
loop_
_geom_bond_atom_site_label_1
_geom_bond_atom_site_label_2
_geom_bond_distance
_geom_bond_site_symmetry_2
Mg0 O1 2.008587 1_455
Mg0 O1 2.008587 1_555
Mg0 O0 2.011488 1_545
Mg0 O0 2.011488 1_555
Mg0 Sr2 2.779772 1_555
Ni0 O0 2.050487 1_555
Ni0 O0 2.050487 1_655
Ni0 O1 2.053309 1_555
Ni0 O1 2.053309 1_565
Ni0 O4 2.076511 1_555
Ni1 O2 1.939777 1_555
Ni1 O2 1.939777 1_455
Ni1 O3 1.943209 1_555
Ni1 O3 1.943209 1_545
Ni1 O5 2.579761 1_555
Cl0 Sr2 2.871088 1_655
Cl0 Sr2 2.871088 1_555
Cl0 Sr2 2.871088 1_665
Cl0 Sr2 2.871088 1_565
Cl1 Sr2 3.038299 1_555
Cl1 Sr3 3.163343 1_555
Cl1 Sr3 3.163343 1_455
Cl1 Sr3 3.163343 1_545
Cl1 Sr3 3.163343 1_445
O0 Sr2 2.965951 1_555
O0 Sr2 2.965951 1_565
O1 Sr2 2.964016 1_555
O1 Sr2 2.964016 1_655
O2 Sr3 2.502012 1_545
O2 Sr3 2.502012 1_555
O2 Sr1 2.692562 1_555
O2 Sr1 2.692562 1_545
O3 Sr3 2.495403 1_555
O3 Sr3 2.495403 1_455
O3 Sr1 2.695117 1_455
O3 Sr1 2.695117 1_555
O4 Sr0 2.846403 1_555
O4 Sr0 2.846403 1_665
O4 Sr0 2.846403 1_655
O4 Sr0 2.846403 1_565
O5 Sr0 2.202686 1_554
O5 Sr1 2.863922 1_545
O5 Sr1 2.863922 1_555
O5 Sr1 2.863922 1_455
O5 Sr1 2.863922 1_445
