# generated using pymatgen
data_MgCu2(RhS2)4
_symmetry_space_group_name_H-M   'P 1'
_cell_length_a   7.31872991
_cell_length_b   7.31846850
_cell_length_c   7.31846802
_cell_angle_alpha   60.00709331
_cell_angle_beta   59.99881751
_cell_angle_gamma   59.99881256
_symmetry_Int_Tables_number   1
_chemical_formula_structural   MgCu2(RhS2)4
_chemical_formula_sum   'Mg1 Cu2 Rh4 S8'
_cell_volume   277.18939233
_cell_formula_units_Z   1
loop_
 _symmetry_equiv_pos_site_id
 _symmetry_equiv_pos_as_xyz
  1  'x, y, z'
loop_
 _atom_site_type_symbol
 _atom_site_label
 _atom_site_symmetry_multiplicity
 _atom_site_fract_x
 _atom_site_fract_y
 _atom_site_fract_z
 _atom_site_occupancy
  Mg  Mg0  1  0.37416400  0.37583600  0.37583600  1
  Cu  Cu0  1  0.87517300  0.87482700  0.87482700  1
  Cu  Cu1  1  0.12412300  0.12587700  0.12587700  1
  Rh  Rh0  1  0.50890500  0.50919500  0.97299500  1
  Rh  Rh1  1  0.50932200  0.50948700  0.50948700  1
  Rh  Rh2  1  0.97170400  0.50948700  0.50948700  1
  Rh  Rh3  1  0.50890500  0.97299500  0.50919500  1
  S  S0  1  0.73505600  0.73597100  0.73597100  1
  S  S1  1  0.24983900  0.24964500  0.75067600  1
  S  S2  1  0.24983900  0.75067600  0.24964500  1
  S  S3  1  0.74931300  0.25021800  0.25021800  1
  S  S4  1  0.73538700  0.29297000  0.73625700  1
  S  S5  1  0.29300200  0.73597100  0.73597100  1
  S  S6  1  0.25025000  0.25021800  0.25021800  1
  S  S7  1  0.73538700  0.73625700  0.29297000  1
loop_
_geom_bond_atom_site_label_1
_geom_bond_atom_site_label_2
_geom_bond_distance
_geom_bond_site_symmetry_2
Mg0 S1 2.239980 1_555
Mg0 S2 2.239980 1_555
Mg0 S3 2.241715 1_555
Mg0 S6 2.241721 1_555
Mg0 Rh2 2.404910 1_455
Mg0 Rh1 2.404911 1_555
Mg0 Rh0 2.407299 1_554
Mg0 Rh3 2.407299 1_545
Cu0 S5 2.496745 1_655
Cu0 S0 2.496745 1_555
Cu0 S7 2.498739 1_556
Cu0 S4 2.498739 1_565
Cu1 S6 2.239686 1_555
Cu1 S3 2.239692 1_455
Cu1 S1 2.242136 1_554
Cu1 S2 2.242136 1_545
Rh0 S4 2.345090 1_555
Rh0 S5 2.345316 1_555
Rh0 S0 2.345316 1_555
Rh0 S3 2.682292 1_556
Rh0 S6 2.682297 1_556
Rh0 S2 2.684192 1_556
Rh1 S4 2.344678 1_555
Rh1 S7 2.344679 1_555
Rh1 S5 2.345094 1_555
Rh1 S3 2.686917 1_555
Rh1 S2 2.691059 1_555
Rh1 S1 2.691059 1_555
Rh2 S7 2.344673 1_555
Rh2 S4 2.344673 1_555
Rh2 S0 2.345094 1_555
Rh2 S6 2.686917 1_655
Rh2 S1 2.691053 1_655
Rh2 S2 2.691054 1_655
Rh3 S7 2.345090 1_555
Rh3 S0 2.345316 1_555
Rh3 S5 2.345316 1_555
Rh3 S3 2.682292 1_565
Rh3 S6 2.682297 1_565
Rh3 S1 2.684192 1_565
