# generated using pymatgen
data_LiGdO2
_symmetry_space_group_name_H-M   'P 1'
_cell_length_a   3.42622466
_cell_length_b   5.30239054
_cell_length_c   11.35337719
_cell_angle_alpha   90.00000000
_cell_angle_beta   90.00000000
_cell_angle_gamma   90.00000000
_symmetry_Int_Tables_number   1
_chemical_formula_structural   LiGdO2
_chemical_formula_sum   'Li4 Gd4 O8'
_cell_volume   206.25886093
_cell_formula_units_Z   4
loop_
 _symmetry_equiv_pos_site_id
 _symmetry_equiv_pos_as_xyz
  1  'x, y, z'
loop_
 _atom_site_type_symbol
 _atom_site_label
 _atom_site_symmetry_multiplicity
 _atom_site_fract_x
 _atom_site_fract_y
 _atom_site_fract_z
 _atom_site_occupancy
  Li  Li0  1  0.75000000  0.40211893  0.06504277  1
  Li  Li1  1  0.25000000  0.90211893  0.43495723  1
  Li  Li2  1  0.75000000  0.09788107  0.56504277  1
  Li  Li3  1  0.25000000  0.59788107  0.93495723  1
  Gd  Gd0  1  0.25000000  0.54767065  0.64020921  1
  Gd  Gd1  1  0.75000000  0.45232935  0.35979079  1
  Gd  Gd2  1  0.75000000  0.04767065  0.85979079  1
  Gd  Gd3  1  0.25000000  0.95232935  0.14020921  1
  O  O0  1  0.25000000  0.24623309  0.97395869  1
  O  O1  1  0.25000000  0.25376691  0.47395869  1
  O  O2  1  0.75000000  0.75376691  0.02604131  1
  O  O3  1  0.75000000  0.74623309  0.52604131  1
  O  O4  1  0.25000000  0.80227411  0.79775739  1
  O  O5  1  0.75000000  0.19772589  0.20224261  1
  O  O6  1  0.75000000  0.30227411  0.70224261  1
  O  O7  1  0.25000000  0.69772589  0.29775739  1
loop_
_geom_bond_atom_site_label_1
_geom_bond_atom_site_label_2
_geom_bond_distance
_geom_bond_site_symmetry_2
Li0 O5 1.897612 1_555
Li0 O2 1.916432 1_555
Li0 O0 2.165030 1_654
Li0 O0 2.165030 1_554
Li1 O7 1.897612 1_555
Li1 O1 1.916432 1_565
Li1 O3 2.165030 1_555
Li1 O3 2.165030 1_455
Li2 O6 1.897612 1_555
Li2 O3 1.916432 1_545
Li2 O1 2.165030 1_655
Li2 O1 2.165030 1_555
Li3 O4 1.897612 1_555
Li3 O0 1.916432 1_555
Li3 O2 2.165030 1_556
Li3 O2 2.165030 1_456
Gd0 O4 2.240978 1_555
Gd0 O6 2.263596 1_455
Gd0 O6 2.263596 1_555
Gd0 O3 2.392357 1_455
Gd0 O3 2.392357 1_555
Gd0 O1 2.447705 1_555
Gd1 O5 2.240978 1_555
Gd1 O7 2.263596 1_555
Gd1 O7 2.263596 1_655
Gd1 O1 2.392357 1_555
Gd1 O1 2.392357 1_655
Gd1 O3 2.447705 1_555
Gd2 O6 2.240978 1_555
Gd2 O4 2.263596 1_545
Gd2 O4 2.263596 1_645
Gd2 O0 2.392357 1_555
Gd2 O0 2.392357 1_655
Gd2 O2 2.447705 1_546
Gd3 O7 2.240978 1_555
Gd3 O5 2.263596 1_465
Gd3 O5 2.263596 1_565
Gd3 O2 2.392357 1_455
Gd3 O2 2.392357 1_555
Gd3 O0 2.447705 1_564
