# generated using pymatgen
data_MgV3CuO8
_symmetry_space_group_name_H-M   'P 1'
_cell_length_a   6.21870742
_cell_length_b   6.30858025
_cell_length_c   6.72072894
_cell_angle_alpha   75.27717864
_cell_angle_beta   104.45846621
_cell_angle_gamma   143.49806828
_symmetry_Int_Tables_number   1
_chemical_formula_structural   MgV3CuO8
_chemical_formula_sum   'Mg1 V3 Cu1 O8'
_cell_volume   151.21715051
_cell_formula_units_Z   1
loop_
 _symmetry_equiv_pos_site_id
 _symmetry_equiv_pos_as_xyz
  1  'x, y, z'
loop_
 _atom_site_type_symbol
 _atom_site_label
 _atom_site_symmetry_multiplicity
 _atom_site_fract_x
 _atom_site_fract_y
 _atom_site_fract_z
 _atom_site_occupancy
  Mg  Mg0  1  0.92128300  0.10924400  0.98664200  1
  V  V0  1  0.42084400  0.59396600  0.30793600  1
  V  V1  1  0.60411400  0.37692900  0.72750500  1
  V  V2  1  0.30042000  0.71055100  0.66484600  1
  Cu  Cu0  1  0.71408000  0.29426500  0.28448300  1
  O  O0  1  0.13386000  0.84899700  0.69704300  1
  O  O1  1  0.25002900  0.74837600  0.36517500  1
  O  O2  1  0.39660500  0.62943800  0.00073700  1
  O  O3  1  0.44668500  0.56017000  0.63096200  1
  O  O4  1  0.56917600  0.43423400  0.38293400  1
  O  O5  1  0.58374000  0.34407600  0.98036900  1
  O  O6  1  0.78570900  0.22083800  0.71284800  1
  O  O7  1  0.88387100  0.12891900  0.26852100  1
loop_
_geom_bond_atom_site_label_1
_geom_bond_atom_site_label_2
_geom_bond_distance
_geom_bond_site_symmetry_2
Mg0 O2 1.984688 1_656
Mg0 O2 1.986940 1_546
Mg0 O7 2.011080 1_556
Mg0 O6 2.028165 1_555
Cu0 O4 1.975707 1_555
Cu0 O7 2.024489 1_555
Cu0 O1 2.036249 1_655
Cu0 O5 2.046679 1_554
Cu0 O1 2.082458 1_545
O0 V2 1.882784 1_555
O0 V1 2.004458 1_455
O0 V1 2.018805 1_565
O1 V2 1.942203 1_555
O1 V0 2.069613 1_555
O2 V0 1.999842 1_555
O2 V2 2.224024 1_554
O3 V2 1.838404 1_555
O3 V1 1.958763 1_555
O3 V0 2.104756 1_555
O4 V0 1.767594 1_555
O4 V1 2.233871 1_555
O5 V1 1.683255 1_555
O6 V2 1.999449 1_545
O6 V2 2.001281 1_655
O6 V1 2.036485 1_555
O7 V0 2.007838 1_655
O7 V0 2.013572 1_545
