# generated using pymatgen
data_Na5ZrIn3(PO4)6
_symmetry_space_group_name_H-M   'P 1'
_cell_length_a   9.04738338
_cell_length_b   9.03711091
_cell_length_c   22.98910442
_cell_angle_alpha   89.91118899
_cell_angle_beta   89.97024550
_cell_angle_gamma   120.00091630
_symmetry_Int_Tables_number   1
_chemical_formula_structural   Na5ZrIn3(PO4)6
_chemical_formula_sum   'Na15 Zr3 In9 P18 O72'
_cell_volume   1627.79711145
_cell_formula_units_Z   3
loop_
 _symmetry_equiv_pos_site_id
 _symmetry_equiv_pos_as_xyz
  1  'x, y, z'
loop_
 _atom_site_type_symbol
 _atom_site_label
 _atom_site_symmetry_multiplicity
 _atom_site_fract_x
 _atom_site_fract_y
 _atom_site_fract_z
 _atom_site_occupancy
  Na  Na0  1  0.63482394  0.99946784  0.25294111  1
  Na  Na1  1  0.36434814  0.36506118  0.25366637  1
  Na  Na2  1  0.00079762  0.63614427  0.25304475  1
  Na  Na3  1  0.64083717  0.63464407  0.74846725  1
  Na  Na4  1  0.99670075  0.35985858  0.74866022  1
  Na  Na5  1  0.03285860  0.70030967  0.58134077  1
  Na  Na6  1  0.66466372  0.96640461  0.58111029  1
  Na  Na7  1  0.66486537  0.69933996  0.08146305  1
  Na  Na8  1  0.03331962  0.33270975  0.08159361  1
  Na  Na9  1  0.00952816  0.01014300  0.49533547  1
  Na  Na10  1  0.00916883  0.99919458  0.99456865  1
  Na  Na11  1  0.65672197  0.32309610  0.83274209  1
  Na  Na12  1  0.66635777  0.33327603  0.33804064  1
  Na  Na13  1  0.33266791  0.67596642  0.16538373  1
  Na  Na14  1  0.33324889  0.66544931  0.66263660  1
  Zr  Zr0  1  0.66503357  0.33231310  0.97793716  1
  Zr  Zr1  1  0.66398075  0.33299554  0.47928380  1
  Zr  Zr2  1  0.33375588  0.67348752  0.81787835  1
  In  In0  1  0.99951351  0.99923186  0.35358570  1
  In  In1  1  0.00154105  0.00018880  0.85187574  1
  In  In2  1  0.00945502  0.00744368  0.64988723  1
  In  In3  1  0.00635073  0.99937290  0.14955986  1
  In  In4  1  0.65766764  0.32673298  0.68164598  1
  In  In5  1  0.66418776  0.33065216  0.18047024  1
  In  In6  1  0.33317815  0.67261760  0.01400747  1
  In  In7  1  0.33279662  0.65960616  0.51367801  1
  In  In8  1  0.33322676  0.66643104  0.32323063  1
  P  P0  1  0.29519440  0.99911572  0.25052600  1
  P  P1  1  0.70440354  0.70490149  0.24902292  1
  P  P2  1  0.00036181  0.29575036  0.24903820  1
  P  P3  1  0.29622369  0.29566848  0.75146054  1
  P  P4  1  0.99902288  0.70408770  0.74908138  1
  P  P5  1  0.70727930  0.00126479  0.74940438  1
  P  P6  1  0.96082470  0.33440695  0.58431392  1
  P  P7  1  0.37107265  0.03635311  0.58247198  1
  P  P8  1  0.66551968  0.62887843  0.58466859  1
  P  P9  1  0.96164058  0.62713718  0.08348292  1
  P  P10  1  0.66528666  0.03646139  0.08400392  1
  P  P11  1  0.37100286  0.33393354  0.08308075  1
  P  P12  1  0.63081859  0.67000213  0.91760147  1
  P  P13  1  0.03890634  0.36923424  0.91800464  1
  P  P14  1  0.32990213  0.96229041  0.91781162  1
  P  P15  1  0.63254468  0.96426884  0.41709915  1
  P  P16  1  0.33153551  0.36712487  0.41562947  1
  P  P17  1  0.03584725  0.66800963  0.41732307  1
  O  O0  1  0.21515247  0.03587115  0.30282228  1
  O  O1  1  0.82278015  0.78835849  0.30069738  1
  O  O2  1  0.96552951  0.17695824  0.30073388  1
  O  O3  1  0.21552535  0.18648751  0.80496571  1
  O  O4  1  0.96414014  0.78611434  0.80130566  1
  O  O5  1  0.82275486  0.03404279  0.80200627  1
  O  O6  1  0.77610941  0.96135087  0.69316333  1
  O  O7  1  0.18334031  0.22644256  0.69681788  1
  O  O8  1  0.03145299  0.80620054  0.69215417  1
  O  O9  1  0.77632331  0.81111351  0.19220633  1
  O  O10  1  0.03446666  0.22419791  0.19223273  1
  O  O11  1  0.18451322  0.96101134  0.19543732  1
  O  O12  1  0.88850272  0.36656459  0.64128631  1
  O  O13  1  0.48064690  0.10917423  0.63742168  1
  O  O14  1  0.63975543  0.52997739  0.64205772  1
  O  O15  1  0.88991062  0.52300509  0.14067735  1
  O  O16  1  0.63885906  0.10842512  0.14148205  1
  O  O17  1  0.47498413  0.36733050  0.13998828  1
  O  O18  1  0.46822522  0.31388008  0.03156435  1
  O  O19  1  0.84078032  0.53141550  0.03203299  1
  O  O20  1  0.69061262  0.15743105  0.03266565  1
  O  O21  1  0.46417221  0.15148352  0.53008564  1
  O  O22  1  0.69058467  0.53395677  0.53331907  1
  O  O23  1  0.84087176  0.30911289  0.53267463  1
  O  O24  1  0.55232925  0.69254484  0.97379027  1
  O  O25  1  0.14103948  0.44777931  0.97395975  1
  O  O26  1  0.30312432  0.85705622  0.97247773  1
  O  O27  1  0.55027882  0.85864928  0.47238017  1
  O  O28  1  0.30523712  0.45162892  0.46878552  1
  O  O29  1  0.14199083  0.69195025  0.47238228  1
  O  O30  1  0.10661344  0.63459724  0.36019410  1
  O  O31  1  0.52830747  0.89292152  0.36013972  1
  O  O32  1  0.36607992  0.46948367  0.35785563  1
  O  O33  1  0.12723808  0.48390716  0.86350512  1
  O  O34  1  0.35748114  0.87366989  0.86406250  1
  O  O35  1  0.51695674  0.64485513  0.86323206  1
  O  O36  1  0.01648379  0.82660765  0.41288924  1
  O  O37  1  0.81019684  0.98310743  0.41264498  1
  O  O38  1  0.17338715  0.18895433  0.41196308  1
  O  O39  1  0.01734920  0.19171909  0.91148462  1
  O  O40  1  0.17405475  0.98321904  0.91096282  1
  O  O41  1  0.80825613  0.82632693  0.91105366  1
  O  O42  1  0.96634009  0.16587461  0.58729534  1
  O  O43  1  0.19001375  0.01358342  0.58595140  1
  O  O44  1  0.83304415  0.80731725  0.58681894  1
  O  O45  1  0.96639455  0.80060317  0.08639912  1
  O  O46  1  0.83299616  0.02624258  0.08629658  1
  O  O47  1  0.18974273  0.17610351  0.08589850  1
  O  O48  1  0.69255718  0.16402152  0.74430263  1
  O  O49  1  0.48068513  0.32846548  0.74567162  1
  O  O50  1  0.83856449  0.52118737  0.74491692  1
  O  O51  1  0.68467915  0.52329105  0.24420590  1
  O  O52  1  0.83869638  0.31567468  0.24438818  1
  O  O53  1  0.47632701  0.16123656  0.24466998  1
  O  O54  1  0.64185667  0.50350195  0.92227285  1
  O  O55  1  0.86148818  0.35824982  0.92283674  1
  O  O56  1  0.49663470  0.13906759  0.92228079  1
  O  O57  1  0.64773947  0.14328373  0.42379717  1
  O  O58  1  0.49576737  0.35353776  0.42336114  1
  O  O59  1  0.85712628  0.50415817  0.42431975  1
  O  O60  1  0.35485851  0.49730650  0.07717103  1
  O  O61  1  0.13649037  0.63767801  0.07722093  1
  O  O62  1  0.51213768  0.85367532  0.07798866  1
  O  O63  1  0.35329867  0.85590634  0.57669688  1
  O  O64  1  0.51188608  0.65802039  0.57830537  1
  O  O65  1  0.13623998  0.49865152  0.57767151  1
  O  O66  1  0.31598382  0.83829665  0.25633604  1
  O  O67  1  0.52400144  0.68598783  0.25526728  1
  O  O68  1  0.16168296  0.47654366  0.25524443  1
  O  O69  1  0.31411520  0.47833659  0.75855758  1
  O  O70  1  0.15577044  0.67704216  0.75756531  1
  O  O71  1  0.52946775  0.83587494  0.75800184  1
loop_
_geom_bond_atom_site_label_1
_geom_bond_atom_site_label_2
_geom_bond_distance
_geom_bond_site_symmetry_2
Na0 O67 2.488519 1_555
Na0 O66 2.499315 1_555
Na0 O53 2.515060 1_565
Na0 O52 2.516666 1_565
Na0 O31 2.644113 1_555
Na0 O16 2.737266 1_565
Na0 O2 2.818105 1_565
Na0 O9 2.944572 1_555
Na1 O68 2.495152 1_555
Na1 O67 2.512020 1_555
Na1 O53 2.515800 1_555
Na1 O51 2.519012 1_555
Na1 O32 2.572956 1_555
Na1 O17 2.794384 1_555
Na1 O0 2.814513 1_555
Na1 O10 2.955208 1_555
Na2 O66 2.503168 1_555
Na2 O68 2.510172 1_555
Na2 O52 2.516456 1_455
Na2 O51 2.519042 1_455
Na2 O30 2.645778 1_555
Na2 O15 2.776695 1_455
Na2 O1 2.811532 1_455
Na2 O11 2.870816 1_555
Na3 O49 2.398134 1_555
Na3 O50 2.468305 1_555
Na3 O71 2.490751 1_555
Na3 O69 2.570915 1_555
Na3 O14 2.622388 1_555
Na3 O4 2.812462 1_555
Na3 O6 2.864376 1_555
Na3 O35 2.885593 1_555
Na4 O48 2.417610 1_555
Na4 O70 2.491233 1_655
Na4 O50 2.503134 1_555
Na4 O69 2.524238 1_655
Na4 O12 2.667668 1_555
Na4 O7 2.786366 1_655
Na4 O5 2.829002 1_555
Na4 O33 2.882795 1_655
Na5 O65 2.430663 1_555
Na5 O44 2.442859 1_455
Na5 O43 2.454292 1_565
Na5 O63 2.513197 1_555
Na5 O29 2.706938 1_555
Na5 O8 2.724952 1_555
Na5 O22 2.901972 1_455
Na5 O12 2.957649 1_455
Na6 O42 2.408364 1_565
Na6 O64 2.414528 1_555
Na6 O63 2.476016 1_555
Na6 O44 2.568033 1_555
Na6 O27 2.696246 1_555
Na6 O6 2.775409 1_555
Na6 O13 2.874611 1_565
Na6 O23 2.902287 1_565
Na7 O62 2.405845 1_555
Na7 O45 2.407624 1_555
Na7 O60 2.467731 1_555
Na7 O46 2.561459 1_565
Na7 O24 2.666101 1_554
Na7 O9 2.740577 1_555
Na7 O19 2.923385 1_555
Na7 O17 2.931619 1_555
Na8 O61 2.429717 1_555
Na8 O46 2.438482 1_455
Na8 O47 2.453224 1_555
Na8 O60 2.521430 1_555
Na8 O25 2.670189 1_554
Na8 O10 2.726460 1_555
Na8 O20 2.913012 1_455
Na8 O15 2.953402 1_455
Na9 O38 2.464626 1_555
Na9 O36 2.541933 1_545
Na9 O37 2.547575 1_445
Na9 O43 2.638181 1_555
Na9 O42 2.675996 1_455
Na9 O44 2.718480 1_445
Na10 O40 2.480666 1_555
Na10 O39 2.557654 1_565
Na10 O41 2.569823 1_455
Na10 O47 2.652416 1_566
Na10 O45 2.668385 1_456
Na10 O46 2.726682 1_466
Na11 O49 2.574091 1_555
Na11 O56 2.584214 1_555
Na11 O48 2.603821 1_555
Na11 O50 2.651023 1_555
Na11 O54 2.672420 1_555
Na11 O55 2.690791 1_555
Na12 O58 2.558015 1_555
Na12 O57 2.561837 1_555
Na12 O59 2.577893 1_555
Na12 O53 2.705866 1_555
Na12 O51 2.707972 1_555
Na12 O52 2.708763 1_555
Na13 O62 2.575101 1_555
Na13 O61 2.601841 1_555
Na13 O66 2.603345 1_555
Na13 O60 2.663369 1_555
Na13 O68 2.665663 1_555
Na13 O67 2.668724 1_555
Na14 O64 2.545745 1_555
Na14 O63 2.564279 1_555
Na14 O65 2.567167 1_555
Na14 O69 2.728965 1_555
Na14 O70 2.741741 1_555
Na14 O71 2.758686 1_555
In0 O38 2.127790 1_665
In0 O37 2.132080 1_555
In0 O36 2.132858 1_655
In0 O0 2.151335 1_665
In0 O1 2.151427 1_555
In0 O2 2.153752 1_565
In1 O3 2.116189 1_555
In1 O5 2.126063 1_455
In1 O40 2.132058 1_545
In1 O4 2.135769 1_445
In1 O41 2.149596 1_445
In1 O39 2.157376 1_555
In2 O7 2.109652 1_555
In2 O8 2.155915 1_545
In2 O6 2.176564 1_445
In2 O43 2.176851 1_555
In2 O42 2.196662 1_455
In2 O44 2.245962 1_445
In3 O11 2.095288 1_555
In3 O9 2.153780 1_455
In3 O10 2.155172 1_565
In3 O47 2.187668 1_565
In3 O45 2.196582 1_455
In3 O46 2.239681 1_465
In4 O13 2.079224 1_555
In4 O14 2.126218 1_555
In4 O12 2.144120 1_555
In4 O49 2.180215 1_555
In4 O48 2.189686 1_555
In4 O50 2.239788 1_555
In5 O16 2.105865 1_555
In5 O15 2.114765 1_555
In5 O17 2.115263 1_555
In5 O53 2.190713 1_555
In5 O52 2.210376 1_555
In5 O51 2.213011 1_555
In6 O26 2.052366 1_554
In6 O24 2.111639 1_554
In6 O25 2.115014 1_554
In6 O61 2.193672 1_555
In6 O62 2.196104 1_555
In6 O60 2.227320 1_555
In7 O28 2.048773 1_555
In7 O27 2.112320 1_555
In7 O29 2.114767 1_555
In7 O65 2.201448 1_555
In7 O64 2.204219 1_555
In7 O63 2.226990 1_555
In8 O32 2.101112 1_555
In8 O30 2.101426 1_555
In8 O31 2.102098 1_555
In8 O66 2.244280 1_555
In8 O67 2.267770 1_555
In8 O68 2.267988 1_555
O0 P0 1.523493 1_545
O1 P1 1.524275 1_555
O2 P2 1.523650 1_655
O3 P3 1.514756 1_555
O4 P4 1.525398 1_555
O5 P5 1.527915 1_555
O6 P5 1.553968 1_565
O7 P3 1.541836 1_555
O8 P4 1.541252 1_455
O9 P1 1.556090 1_555
O10 P2 1.555782 1_555
O11 P0 1.543707 1_555
O12 P6 1.555145 1_555
O13 P7 1.537244 1_555
O14 P8 1.543203 1_555
O15 P9 1.555672 1_555
O16 P10 1.544013 1_555
O17 P11 1.551195 1_555
O18 P11 1.538880 1_555
O18 Zr0 2.102057 1_554
O19 P9 1.549695 1_555
O19 Zr0 2.111935 1_554
O20 P10 1.544592 1_555
O20 Zr0 2.119946 1_554
O21 P7 1.536570 1_555
O21 Zr1 2.085449 1_555
O22 P8 1.542143 1_555
O22 Zr1 2.114111 1_555
O23 P6 1.547076 1_555
O23 Zr1 2.112117 1_555
O24 P12 1.535864 1_555
O25 P13 1.536409 1_555
O26 P14 1.519226 1_555
O27 P15 1.537834 1_555
O28 P16 1.522305 1_555
O29 P17 1.538023 1_555
O30 P17 1.555523 1_555
O31 P15 1.554215 1_555
O32 P16 1.556931 1_555
O33 P13 1.564955 1_555
O33 Zr2 2.077919 1_555
O34 P14 1.559827 1_555
O34 Zr2 2.015923 1_555
O35 P12 1.563081 1_555
O35 Zr2 2.081147 1_555
O36 P17 1.531667 1_555
O37 P15 1.532636 1_555
O38 P16 1.530878 1_555
O39 P13 1.523787 1_555
O40 P14 1.521683 1_555
O41 P12 1.525352 1_555
O42 P6 1.550012 1_555
O43 P7 1.547536 1_555
O44 P8 1.567227 1_555
O45 P9 1.548132 1_555
O46 P10 1.566460 1_555
O47 P11 1.545457 1_555
O48 P5 1.546059 1_555
O49 P3 1.547822 1_555
O50 P4 1.565167 1_555
O51 P1 1.563793 1_555
O52 P2 1.564181 1_655
O53 P0 1.564722 1_545
O54 P12 1.560561 1_555
O54 Zr0 2.096057 1_555
O55 P13 1.561794 1_655
O55 Zr0 2.097323 1_555
O56 P14 1.558522 1_545
O56 Zr0 2.087187 1_555
O57 P15 1.561474 1_545
O57 Zr1 2.084008 1_555
O58 P16 1.561132 1_555
O58 Zr1 2.070565 1_555
O59 P17 1.561298 1_655
O59 Zr1 2.081214 1_555
O60 P11 1.560341 1_555
O61 P9 1.543157 1_455
O62 P10 1.542618 1_565
O63 P7 1.562427 1_565
O64 P8 1.545631 1_555
O65 P6 1.545480 1_455
O66 P0 1.561475 1_555
O67 P1 1.560284 1_555
O68 P2 1.560857 1_555
O69 P3 1.584795 1_555
O69 Zr2 2.167012 1_555
O70 P4 1.567070 1_455
O70 Zr2 2.137877 1_555
O71 P5 1.566923 1_565
O71 Zr2 2.139232 1_555
