# generated using pymatgen
data_LaNi5H7
_symmetry_space_group_name_H-M   'P 1'
_cell_length_a   5.32021479
_cell_length_b   5.32021631
_cell_length_c   8.64433170
_cell_angle_alpha   90.00000248
_cell_angle_beta   90.00002083
_cell_angle_gamma   119.99574891
_symmetry_Int_Tables_number   1
_chemical_formula_structural   LaNi5H7
_chemical_formula_sum   'La2 Ni10 H14'
_cell_volume   211.90398011
_cell_formula_units_Z   2
loop_
 _symmetry_equiv_pos_site_id
 _symmetry_equiv_pos_as_xyz
  1  'x, y, z'
loop_
 _atom_site_type_symbol
 _atom_site_label
 _atom_site_symmetry_multiplicity
 _atom_site_fract_x
 _atom_site_fract_y
 _atom_site_fract_z
 _atom_site_occupancy
  La  La0  1  -0.00000066  0.00000080  0.48001700  1
  La  La1  1  -0.00000004  0.00000028  0.97965575  1
  Ni  Ni0  1  0.50086373  0.49913563  0.24930779  1
  Ni  Ni1  1  -0.00169299  0.49916689  0.24930822  1
  Ni  Ni2  1  0.50083362  0.00169320  0.24930854  1
  Ni  Ni3  1  0.49917408  0.50082599  0.74914918  1
  Ni  Ni4  1  0.00161836  0.50079471  0.74914975  1
  Ni  Ni5  1  0.49920504  -0.00161833  0.74914934  1
  Ni  Ni6  1  0.33333184  0.66666791  0.49370681  1
  Ni  Ni7  1  0.66666721  0.33333234  0.99349512  1
  Ni  Ni8  1  0.33333242  0.66666777  0.01866221  1
  Ni  Ni9  1  0.66666732  0.33333324  0.51873110  1
  H  H0  1  0.50655243  0.49344754  0.44071201  1
  H  H1  1  0.98689308  0.49344971  0.44071493  1
  H  H2  1  0.50655015  0.01310694  0.44071545  1
  H  H3  1  0.49345045  0.50654981  0.94054099  1
  H  H4  1  0.01309988  0.50654789  0.94054434  1
  H  H5  1  0.49345200  0.98690011  0.94054388  1
  H  H6  1  0.33331322  0.66668666  0.67765168  1
  H  H7  1  0.66668663  0.33331335  0.17743173  1
  H  H8  1  0.15350894  0.84649133  0.22522427  1
  H  H9  1  0.69293870  0.84646292  0.22522228  1
  H  H10  1  0.15353650  0.30706079  0.22522234  1
  H  H11  1  0.84656440  0.15343533  0.72521163  1
  H  H12  1  0.30691625  0.15346371  0.72520946  1
  H  H13  1  0.84653644  0.69308346  0.72520921  1
loop_
_geom_bond_atom_site_label_1
_geom_bond_atom_site_label_2
_geom_bond_distance
_geom_bond_site_symmetry_2
H0 Ni9 1.622242 1_555
H0 Ni0 1.655392 1_555
H0 Ni6 1.660610 1_555
H0 La0 2.682567 1_555
H0 La0 2.682568 1_665
H1 Ni9 1.622303 1_555
H1 Ni1 1.655419 1_655
H1 Ni6 1.660692 1_655
H1 La0 2.682389 1_665
H1 La0 2.682402 1_655
H2 Ni9 1.622304 1_555
H2 Ni2 1.655420 1_555
H2 Ni6 1.660692 1_545
H2 La0 2.682387 1_555
H2 La0 2.682402 1_655
H3 Ni8 1.622638 1_556
H3 Ni3 1.655295 1_555
H3 Ni7 1.660483 1_555
H3 La1 2.682359 1_665
H3 La1 2.682359 1_555
H4 Ni8 1.622697 1_556
H4 Ni4 1.655324 1_555
H4 Ni7 1.660567 1_455
H4 La1 2.682179 1_555
H4 La1 2.682195 1_565
H5 Ni8 1.622698 1_556
H5 Ni5 1.655323 1_565
H5 Ni7 1.660566 1_565
H5 La1 2.682179 1_665
H5 La1 2.682193 1_565
H6 Ni6 1.590080 1_555
H6 Ni5 1.648569 1_565
H6 Ni4 1.648570 1_555
H6 Ni3 1.648591 1_555
H7 Ni7 1.590009 1_554
H7 Ni1 1.649481 1_655
H7 Ni2 1.649482 1_555
H7 Ni0 1.649495 1_555
H8 Ni1 1.616809 1_555
H8 Ni2 1.616810 1_565
H8 La1 2.550900 1_564
H8 La0 2.617631 1_565
H9 Ni2 1.616760 1_565
H9 Ni0 1.616823 1_555
H9 La1 2.551047 1_664
H9 La0 2.617798 1_665
H10 Ni1 1.616761 1_555
H10 Ni0 1.616822 1_555
H10 La1 2.551045 1_554
H10 La0 2.617797 1_555
H11 Ni5 1.616860 1_555
H11 Ni4 1.616860 1_655
H11 La0 2.547832 1_655
H11 La1 2.614726 1_655
H12 Ni5 1.616813 1_555
H12 Ni3 1.616874 1_555
H12 La0 2.547987 1_555
H12 La1 2.614905 1_555
H13 Ni4 1.616813 1_655
H13 Ni3 1.616874 1_555
H13 La0 2.547987 1_665
H13 La1 2.614908 1_665
