# generated using pymatgen
data_Fe11MoC4
_symmetry_space_group_name_H-M   'P 1'
_cell_length_a   2.94497809
_cell_length_b   5.64610571
_cell_length_c   9.99932278
_cell_angle_alpha   90.00000000
_cell_angle_beta   90.00000000
_cell_angle_gamma   90.00000000
_symmetry_Int_Tables_number   1
_chemical_formula_structural   Fe11MoC4
_chemical_formula_sum   'Fe11 Mo1 C4'
_cell_volume   166.26531552
_cell_formula_units_Z   1
loop_
 _symmetry_equiv_pos_site_id
 _symmetry_equiv_pos_as_xyz
  1  'x, y, z'
loop_
 _atom_site_type_symbol
 _atom_site_label
 _atom_site_symmetry_multiplicity
 _atom_site_fract_x
 _atom_site_fract_y
 _atom_site_fract_z
 _atom_site_occupancy
  Fe  Fe0  1  0.25017514  0.00000000  0.82036822  1
  Fe  Fe1  1  0.75013691  0.24367293  0.31070927  1
  Fe  Fe2  1  0.75013691  0.24367293  0.68929073  1
  Fe  Fe3  1  0.75013691  0.75632707  0.31070927  1
  Fe  Fe4  1  0.75013691  0.75632707  0.68929073  1
  Fe  Fe5  1  0.25017484  0.50000000  0.18495391  1
  Fe  Fe6  1  0.25017484  0.50000000  0.81504609  1
  Fe  Fe7  1  0.25017514  0.00000000  0.17963178  1
  Fe  Fe8  1  0.75020322  0.73991309  -0.00000000  1
  Fe  Fe9  1  0.24989985  0.00000000  0.50000000  1
  Fe  Fe10  1  0.75020322  0.26008691  -0.00000000  1
  Mo  Mo0  1  0.24998501  0.50000000  0.50000000  1
  C  C0  1  0.25025398  0.50000000  -0.00000000  1
  C  C1  1  0.75004195  0.77287436  0.50000000  1
  C  C2  1  0.75004195  0.22712564  0.50000000  1
  C  C3  1  0.25026725  0.00000000  -0.00000000  1
loop_
_geom_bond_atom_site_label_1
_geom_bond_atom_site_label_2
_geom_bond_distance
_geom_bond_site_symmetry_2
C0 Fe6 1.849414 1_554
C0 Fe5 1.849414 1_555
C0 Fe10 2.000664 1_555
C0 Fe8 2.000664 1_555
C0 Fe10 2.000884 1_455
C0 Fe8 2.000884 1_455
C1 Fe4 1.895084 1_555
C1 Fe3 1.895084 1_555
C1 Fe9 1.952301 1_665
C1 Fe9 1.952932 1_565
C1 Mo0 2.131060 1_655
C1 Mo0 2.131292 1_555
C2 Fe2 1.895084 1_555
C2 Fe1 1.895084 1_555
C2 Fe9 1.952301 1_655
C2 Fe9 1.952932 1_555
C2 Mo0 2.131060 1_655
C2 Mo0 2.131292 1_555
C3 Fe7 1.796196 1_555
C3 Fe0 1.796196 1_554
C3 Fe8 2.079446 1_545
C3 Fe10 2.079446 1_555
C3 Fe8 2.079713 1_445
C3 Fe10 2.079713 1_455
