# generated using pymatgen
data_MgMn6(OF)6
_symmetry_space_group_name_H-M   'P 1'
_cell_length_a   5.01566737
_cell_length_b   5.24034983
_cell_length_c   9.14743509
_cell_angle_alpha   89.99692498
_cell_angle_beta   89.98940778
_cell_angle_gamma   98.91923951
_symmetry_Int_Tables_number   1
_chemical_formula_structural   MgMn6(OF)6
_chemical_formula_sum   'Mg1 Mn6 O6 F6'
_cell_volume   237.52251075
_cell_formula_units_Z   1
loop_
 _symmetry_equiv_pos_site_id
 _symmetry_equiv_pos_as_xyz
  1  'x, y, z'
loop_
 _atom_site_type_symbol
 _atom_site_label
 _atom_site_symmetry_multiplicity
 _atom_site_fract_x
 _atom_site_fract_y
 _atom_site_fract_z
 _atom_site_occupancy
  Mg  Mg0  1  0.95008975  0.55389702  0.67057281  1
  Mn  Mn0  1  0.99144513  0.93404662  0.00794610  1
  Mn  Mn1  1  0.99177513  0.93400759  0.33339983  1
  Mn  Mn2  1  0.38504489  0.03463744  0.67074244  1
  Mn  Mn3  1  0.43637538  0.54640001  0.85451558  1
  Mn  Mn4  1  0.62181554  0.40576585  0.17076911  1
  Mn  Mn5  1  0.43652469  0.54649404  0.48688251  1
  O  O0  1  0.17454791  0.78852994  0.50577868  1
  O  O1  1  0.17441441  0.78851747  0.83562725  1
  O  O2  1  0.26917006  0.38360398  0.67062615  1
  O  O3  1  0.66563731  0.68385880  0.00595327  1
  O  O4  1  0.66592728  0.68395933  0.33548595  1
  O  O5  1  0.84950480  0.11327921  0.17072390  1
  F  F0  1  0.15290056  0.72824897  0.17064599  1
  F  F1  1  0.29424462  0.23720031  0.00178037  1
  F  F2  1  0.29434304  0.23708044  0.33960383  1
  F  F3  1  0.68078794  0.78873420  0.67067944  1
  F  F4  1  0.71879590  0.31280609  0.52937373  1
  F  F5  1  0.71887967  0.31282068  0.81195405  1
loop_
_geom_bond_atom_site_label_1
_geom_bond_atom_site_label_2
_geom_bond_distance
_geom_bond_site_symmetry_2
Mg0 O2 1.949490 1_655
Mg0 O0 2.149787 1_655
Mg0 O1 2.151519 1_655
Mn0 O3 1.930112 1_555
Mn0 O5 1.952750 1_565
Mn0 O1 2.031022 1_654
Mn1 O4 1.929861 1_555
Mn1 O5 1.953002 1_565
Mn1 O0 2.031025 1_655
Mn2 O2 2.002877 1_555
Mn2 O1 2.152008 1_545
Mn2 O0 2.152585 1_545
Mn3 O3 1.871888 1_556
Mn3 O1 1.970534 1_555
Mn3 O2 2.009841 1_555
Mn4 O5 2.048471 1_555
Mn4 O4 2.084423 1_555
Mn4 O3 2.084550 1_555
Mn5 O4 1.871639 1_555
Mn5 O0 1.970251 1_555
Mn5 O2 2.008830 1_555
F0 Mn1 2.074156 1_455
F0 Mn0 2.074831 1_455
F1 Mn0 2.021217 1_445
F1 Mn3 2.142316 1_554
F1 Mn4 2.328152 1_555
F2 Mn1 2.020233 1_445
F2 Mn5 2.143516 1_555
F2 Mn4 2.326601 1_555
F3 Mg0 1.963250 1_555
F3 Mn2 2.110351 1_565
F3 Mn5 2.336198 1_555
F3 Mn3 2.336589 1_555
F4 Mg0 2.038750 1_555
F4 Mn5 2.047666 1_555
F4 Mn2 2.416965 1_555
F5 Mg0 2.039209 1_555
F5 Mn3 2.048229 1_555
F5 Mn2 2.416901 1_555
