# generated using pymatgen
data_LaNiO3
_symmetry_space_group_name_H-M   'P 1'
_cell_length_a   5.38158076
_cell_length_b   7.64870062
_cell_length_c   5.47279044
_cell_angle_alpha   90.00197525
_cell_angle_beta   89.97864889
_cell_angle_gamma   91.06179479
_symmetry_Int_Tables_number   1
_chemical_formula_structural   LaNiO3
_chemical_formula_sum   'La4 Ni4 O12'
_cell_volume   225.23285094
_cell_formula_units_Z   4
loop_
 _symmetry_equiv_pos_site_id
 _symmetry_equiv_pos_as_xyz
  1  'x, y, z'
loop_
 _atom_site_type_symbol
 _atom_site_label
 _atom_site_symmetry_multiplicity
 _atom_site_fract_x
 _atom_site_fract_y
 _atom_site_fract_z
 _atom_site_occupancy
  La  La0  1  0.49987691  0.75009518  0.00166648  1
  La  La1  1  -0.00019781  0.24996570  0.50162049  1
  La  La2  1  0.50019923  0.24997233  0.99833555  1
  La  La3  1  0.00013941  0.74995435  0.49830161  1
  Ni  Ni0  1  0.50000433  -0.00000992  0.50003421  1
  Ni  Ni1  1  -0.00000297  -0.00000607  -0.00000518  1
  Ni  Ni2  1  0.00000298  0.50000313  0.99996974  1
  Ni  Ni3  1  0.49999130  0.50001318  0.50000932  1
  O  O0  1  0.76914497  0.46940422  0.73070618  1
  O  O1  1  0.26910338  0.96942483  0.23076693  1
  O  O2  1  0.99905632  0.24994685  0.05898790  1
  O  O3  1  0.49905362  0.74994318  0.55899132  1
  O  O4  1  0.73075543  0.53131285  0.23090057  1
  O  O5  1  0.23077274  0.03129186  0.73095564  1
  O  O6  1  0.23086518  0.53059545  0.26926050  1
  O  O7  1  0.73088230  0.03058186  0.76928673  1
  O  O8  1  0.26923909  0.46869312  0.76908303  1
  O  O9  1  0.76923285  0.96870428  0.26908460  1
  O  O10  1  0.00094370  0.75005170  0.94102255  1
  O  O11  1  0.50093503  0.25005992  0.44102082  1
loop_
_geom_bond_atom_site_label_1
_geom_bond_atom_site_label_2
_geom_bond_distance
_geom_bond_site_symmetry_2
La0 O3 2.422674 1_554
La0 O4 2.448737 1_555
La0 O1 2.450439 1_555
La0 O9 2.636389 1_555
La0 O6 2.639650 1_555
La0 O10 2.705600 1_554
La0 O10 2.716763 1_654
La0 O7 2.768682 1_564
La0 O8 2.774063 1_554
La0 O0 3.003602 1_554
La0 O5 3.005898 1_564
La0 O3 3.050124 1_555
La1 O2 2.422440 1_455
La1 O5 2.448704 1_555
La1 O0 2.450650 1_455
La1 O8 2.637323 1_555
La1 O7 2.639050 1_455
La1 O11 2.705237 1_455
La1 O11 2.717067 1_555
La1 O6 2.769606 1_555
La1 O9 2.772958 1_445
La1 O1 3.002571 1_545
La1 O4 3.006604 1_455
La1 O2 3.050356 1_456
La2 O11 2.422728 1_556
La2 O8 2.448692 1_555
La2 O7 2.450364 1_555
La2 O5 2.636818 1_555
La2 O0 2.639242 1_555
La2 O2 2.705209 1_556
La2 O2 2.717165 1_456
La2 O1 2.769380 1_546
La2 O4 2.773465 1_556
La2 O6 3.003307 1_556
La2 O9 3.006209 1_546
La2 O11 3.050068 1_555
La3 O10 2.422924 1_555
La3 O9 2.448596 1_455
La3 O6 2.450294 1_555
La3 O4 2.636573 1_455
La3 O1 2.639192 1_555
La3 O3 2.705537 1_555
La3 O3 2.716887 1_455
La3 O0 2.769091 1_455
La3 O5 2.773851 1_565
La3 O7 3.003289 1_465
La3 O8 3.006434 1_555
La3 O10 3.049873 1_554
Ni0 O7 1.939196 1_555
Ni0 O1 1.939314 1_545
Ni0 O3 1.939484 1_545
Ni0 O11 1.939710 1_555
Ni0 O5 1.940420 1_555
Ni0 O9 1.940491 1_545
Ni1 O5 1.937861 1_554
Ni1 O9 1.938025 1_445
Ni1 O10 1.938873 1_544
Ni1 O2 1.938972 1_455
Ni1 O7 1.939161 1_454
Ni1 O1 1.939336 1_545
Ni2 O0 1.939179 1_455
Ni2 O6 1.939301 1_556
Ni2 O10 1.939489 1_555
Ni2 O2 1.939611 1_456
Ni2 O8 1.940323 1_555
Ni2 O4 1.940526 1_456
Ni3 O8 1.937943 1_555
Ni3 O4 1.938112 1_555
Ni3 O3 1.938789 1_555
Ni3 O11 1.938971 1_555
Ni3 O0 1.939299 1_555
Ni3 O6 1.939346 1_555
