# generated using pymatgen
data_MgNb4(NO)4
_symmetry_space_group_name_H-M   'P 1'
_cell_length_a   4.20005524
_cell_length_b   6.67388834
_cell_length_c   6.85600836
_cell_angle_alpha   72.92084208
_cell_angle_beta   89.98644606
_cell_angle_gamma   71.62150856
_symmetry_Int_Tables_number   1
_chemical_formula_structural   MgNb4(NO)4
_chemical_formula_sum   'Mg1 Nb4 N4 O4'
_cell_volume   173.42772122
_cell_formula_units_Z   1
loop_
 _symmetry_equiv_pos_site_id
 _symmetry_equiv_pos_as_xyz
  1  'x, y, z'
loop_
 _atom_site_type_symbol
 _atom_site_label
 _atom_site_symmetry_multiplicity
 _atom_site_fract_x
 _atom_site_fract_y
 _atom_site_fract_z
 _atom_site_occupancy
  Mg  Mg0  1  0.44889500  0.10440700  0.63464700  1
  Nb  Nb0  1  0.12207400  0.75897900  0.72303200  1
  Nb  Nb1  1  0.19710100  0.60842800  0.31937700  1
  Nb  Nb2  1  0.78646600  0.42876800  0.65625600  1
  Nb  Nb3  1  0.88887900  0.22386900  0.26630900  1
  N  N0  1  0.05722900  0.88832300  0.35806700  1
  N  N1  1  0.28217900  0.43717000  0.65533200  1
  N  N2  1  0.73561800  0.53145100  0.33469900  1
  N  N3  1  0.94877300  0.10460400  0.65227400  1
  O  O0  1  0.61873200  0.76538500  0.70094200  1
  O  O1  1  0.16105500  0.68044000  0.00706000  1
  O  O2  1  0.84798200  0.30610600  0.98643500  1
  O  O3  1  0.38404700  0.23443800  0.31779300  1
loop_
_geom_bond_atom_site_label_1
_geom_bond_atom_site_label_2
_geom_bond_distance
_geom_bond_site_symmetry_2
Mg0 O0 2.052585 1_545
Mg0 O3 2.071304 1_555
Mg0 N3 2.103455 1_555
Mg0 N3 2.103594 1_455
Mg0 N1 2.155649 1_555
Nb0 O1 1.854727 1_556
Nb0 O0 2.104378 1_555
Nb0 O0 2.105561 1_455
Nb1 O1 2.046617 1_555
Nb1 O3 2.372042 1_555
Nb2 O2 2.153993 1_555
Nb2 O0 2.245729 1_555
Nb3 O2 1.826120 1_554
Nb3 O3 2.131969 1_555
Nb3 O3 2.135962 1_655
N0 Nb1 1.871855 1_555
N0 Nb3 2.021098 1_465
N0 Nb0 2.379852 1_555
N1 Nb2 2.100334 1_455
N1 Nb2 2.100989 1_555
N1 Nb1 2.221662 1_555
N1 Nb0 2.225983 1_555
N2 Nb2 2.096664 1_555
N2 Nb3 2.140103 1_555
N2 Nb1 2.150906 1_555
N2 Nb1 2.151255 1_655
N3 Nb2 2.061697 1_555
N3 Nb0 2.090451 1_645
N3 Nb3 2.517135 1_555
