# generated using pymatgen
data_Na14Mg5Ge3(PO4)12
_symmetry_space_group_name_H-M   'P 1'
_cell_length_a   17.68046744
_cell_length_b   8.84371456
_cell_length_c   21.68453638
_cell_angle_alpha   90.06066930
_cell_angle_beta   89.89322329
_cell_angle_gamma   119.92421392
_symmetry_Int_Tables_number   1
_chemical_formula_structural   Na14Mg5Ge3(PO4)12
_chemical_formula_sum   'Na42 Mg15 Ge9 P36 O144'
_cell_volume   2938.59425554
_cell_formula_units_Z   3
loop_
 _symmetry_equiv_pos_site_id
 _symmetry_equiv_pos_as_xyz
  1  'x, y, z'
loop_
 _atom_site_type_symbol
 _atom_site_label
 _atom_site_symmetry_multiplicity
 _atom_site_fract_x
 _atom_site_fract_y
 _atom_site_fract_z
 _atom_site_occupancy
  Na  Na0  1  0.18404382  0.36083584  0.24816358  1
  Na  Na1  1  0.68509986  0.36282404  0.24805193  1
  Na  Na2  1  0.99483507  0.63091580  0.24836978  1
  Na  Na3  1  0.49517670  0.63003944  0.24775762  1
  Na  Na4  1  0.31894285  0.63124035  0.74797489  1
  Na  Na5  1  0.81959451  0.63114601  0.74829227  1
  Na  Na6  1  0.18454218  0.01017606  0.74796050  1
  Na  Na7  1  0.68446133  0.01011474  0.74781015  1
  Na  Na8  1  0.15640476  0.34144884  0.58014524  1
  Na  Na9  1  0.65650303  0.34167169  0.58015536  1
  Na  Na10  1  0.01389179  0.68576742  0.58061544  1
  Na  Na11  1  0.51387558  0.68561771  0.58062450  1
  Na  Na12  1  0.32914888  0.97152451  0.57987869  1
  Na  Na13  1  0.82915769  0.97137846  0.58008326  1
  Na  Na14  1  0.15500182  0.96966685  0.08032411  1
  Na  Na15  1  0.65482782  0.96794816  0.08238508  1
  Na  Na16  1  0.32899056  0.68585040  0.08026936  1
  Na  Na17  1  0.01606856  0.34364472  0.08186941  1
  Na  Na18  1  0.51581267  0.34230391  0.07953862  1
  Na  Na19  1  0.48324399  0.66988768  0.91749959  1
  Na  Na20  1  0.98545173  0.67392408  0.91516406  1
  Na  Na21  1  0.35290385  0.03795026  0.91738078  1
  Na  Na22  1  0.16550923  0.29307869  0.91779340  1
  Na  Na23  1  0.66461445  0.29967181  0.91536857  1
  Na  Na24  1  0.48124693  0.29453623  0.41781775  1
  Na  Na25  1  0.98125403  0.29444397  0.41762547  1
  Na  Na26  1  0.16627717  0.03713735  0.41774372  1
  Na  Na27  1  0.66638485  0.03711093  0.41790974  1
  Na  Na28  1  0.35244016  0.66699126  0.41807511  1
  Na  Na29  1  0.85253905  0.66717109  0.41780721  1
  Na  Na30  1  0.99968969  0.00031256  0.49714448  1
  Na  Na31  1  0.49969296  0.00035109  0.49719504  1
  Na  Na32  1  0.98723239  0.99036871  0.99651666  1
  Na  Na33  1  0.49967389  0.00072807  0.99726931  1
  Na  Na34  1  0.34006284  0.33444521  0.83098524  1
  Na  Na35  1  0.84115173  0.32445588  0.82993460  1
  Na  Na36  1  0.33255339  0.31955428  0.33116027  1
  Na  Na37  1  0.83303618  0.32039593  0.33138477  1
  Na  Na38  1  0.17169114  0.67810603  0.16535390  1
  Na  Na39  1  0.67895250  0.68010562  0.16273653  1
  Na  Na40  1  0.16100146  0.65670188  0.66504517  1
  Na  Na41  1  0.66082662  0.65632541  0.66524588  1
  Mg  Mg0  1  0.99939652  0.00046935  0.35081247  1
  Mg  Mg1  1  0.49945019  0.00048143  0.35107406  1
  Mg  Mg2  1  0.99676153  0.00059255  0.85301905  1
  Mg  Mg3  1  0.50033384  0.00165408  0.85121310  1
  Mg  Mg4  1  0.33625165  0.33412392  0.68515013  1
  Mg  Mg5  1  0.83607407  0.33404152  0.68490240  1
  Mg  Mg6  1  0.33266721  0.32732668  0.18503930  1
  Mg  Mg7  1  0.83306028  0.32886585  0.18616132  1
  Mg  Mg8  1  0.33353533  0.33270730  0.98322191  1
  Mg  Mg9  1  0.33375349  0.33293574  0.48320725  1
  Mg  Mg10  1  0.83378796  0.33298965  0.48318923  1
  Mg  Mg11  1  0.16587025  0.66603423  0.01853851  1
  Mg  Mg12  1  0.67038199  0.66793751  0.01940634  1
  Mg  Mg13  1  0.16690445  0.66705052  0.51838953  1
  Mg  Mg14  1  0.66693051  0.66708103  0.51842158  1
  Ge  Ge0  1  0.99964396  0.00201595  0.65178430  1
  Ge  Ge1  1  0.50025029  0.00253505  0.65195945  1
  Ge  Ge2  1  0.99525275  0.99506269  0.14948385  1
  Ge  Ge3  1  0.49923633  0.99894794  0.15137177  1
  Ge  Ge4  1  0.83426962  0.32930738  0.98257396  1
  Ge  Ge5  1  0.16883278  0.67177727  0.31435955  1
  Ge  Ge6  1  0.66931697  0.67226908  0.31426553  1
  Ge  Ge7  1  0.16137252  0.65923477  0.81533092  1
  Ge  Ge8  1  0.66800371  0.66651581  0.81573980  1
  P  P0  1  0.14576502  0.99456191  0.25122728  1
  P  P1  1  0.64667001  0.99540787  0.25219076  1
  P  P2  1  0.35123109  0.71062845  0.25188472  1
  P  P3  1  0.85193770  0.71280831  0.25169207  1
  P  P4  1  0.00116923  0.29506492  0.25197541  1
  P  P5  1  0.50172347  0.29580175  0.25182754  1
  P  P6  1  0.14365273  0.29606321  0.75283241  1
  P  P7  1  0.64512505  0.29847137  0.75194501  1
  P  P8  1  0.00206967  0.70700942  0.75247270  1
  P  P9  1  0.50292257  0.70726315  0.75269582  1
  P  P10  1  0.35160052  0.99658265  0.75266661  1
  P  P11  1  0.85256832  0.99744898  0.75210037  1
  P  P12  1  0.48099069  0.32662333  0.58496110  1
  P  P13  1  0.98098810  0.32676034  0.58497039  1
  P  P14  1  0.18170331  0.03778346  0.58644671  1
  P  P15  1  0.68171321  0.03771966  0.58634344  1
  P  P16  1  0.33673198  0.63598159  0.58643206  1
  P  P17  1  0.83669257  0.63584466  0.58638509  1
  P  P18  1  0.48129461  0.63587985  0.08635752  1
  P  P19  1  0.97617254  0.63023750  0.08493692  1
  P  P20  1  0.33685716  0.03820737  0.08498191  1
  P  P21  1  0.83568344  0.04392885  0.08481821  1
  P  P22  1  0.18108378  0.32460561  0.08646583  1
  P  P23  1  0.68691066  0.33103714  0.08587304  1
  P  P24  1  0.31089240  0.66507104  0.91574578  1
  P  P25  1  0.81244611  0.66240627  0.91775179  1
  P  P26  1  0.01806400  0.37442338  0.91920590  1
  P  P27  1  0.52233517  0.37976281  0.91666361  1
  P  P28  1  0.16691148  0.95716877  0.91562787  1
  P  P29  1  0.67146874  0.96175542  0.91827272  1
  P  P30  1  0.31131029  0.95655811  0.41650474  1
  P  P31  1  0.81141104  0.95671081  0.41657119  1
  P  P32  1  0.16722957  0.37755428  0.41556505  1
  P  P33  1  0.66722017  0.37760203  0.41558569  1
  P  P34  1  0.02184498  0.66614623  0.41559506  1
  P  P35  1  0.52193570  0.66601994  0.41545114  1
  O  O0  1  0.10399863  0.02096664  0.30820905  1
  O  O1  1  0.60418082  0.02131866  0.30866050  1
  O  O2  1  0.40720515  0.79162070  0.30810857  1
  O  O3  1  0.90658486  0.78996491  0.30879838  1
  O  O4  1  0.49166208  0.19117828  0.30904989  1
  O  O5  1  0.99142106  0.19202405  0.30948540  1
  O  O6  1  0.10344757  0.18397182  0.80899517  1
  O  O7  1  0.60436890  0.18593575  0.80823660  1
  O  O8  1  0.48951013  0.79134253  0.80952280  1
  O  O9  1  0.99023250  0.79263650  0.80908179  1
  O  O10  1  0.40389756  0.01655495  0.80997604  1
  O  O11  1  0.90762510  0.01822036  0.80712091  1
  O  O12  1  0.39515933  0.95966275  0.69376579  1
  O  O13  1  0.89231205  0.95718734  0.69166154  1
  O  O14  1  0.08675579  0.21120499  0.69255473  1
  O  O15  1  0.58752182  0.21210274  0.69213974  1
  O  O16  1  0.02139805  0.83082517  0.69336690  1
  O  O17  1  0.52170626  0.83140055  0.69364405  1
  O  O18  1  0.39434248  0.82569232  0.19190385  1
  O  O19  1  0.89551476  0.83239654  0.19302434  1
  O  O20  1  0.01904733  0.20862147  0.19288341  1
  O  O21  1  0.52091962  0.20991948  0.19244856  1
  O  O22  1  0.08316028  0.95388807  0.19229109  1
  O  O23  1  0.58440403  0.95692724  0.19300408  1
  O  O24  1  0.43729230  0.35910834  0.63890290  1
  O  O25  1  0.93740206  0.35926361  0.63891071  1
  O  O26  1  0.23767784  0.12146509  0.64314073  1
  O  O27  1  0.73760054  0.12147605  0.64294357  1
  O  O28  1  0.32175060  0.52311860  0.64302831  1
  O  O29  1  0.82181927  0.52328434  0.64298177  1
  O  O30  1  0.43876820  0.52468875  0.14298685  1
  O  O31  1  0.93632540  0.51829770  0.14133097  1
  O  O32  1  0.32088134  0.12537263  0.13894490  1
  O  O33  1  0.82040324  0.12864376  0.13960695  1
  O  O34  1  0.23755214  0.35543564  0.14302767  1
  O  O35  1  0.73878430  0.35110360  0.14309060  1
  O  O36  1  0.21863623  0.28728162  0.02781358  1
  O  O37  1  0.72843035  0.29056104  0.02613501  1
  O  O38  1  0.42512645  0.56300475  0.02764758  1
  O  O39  1  0.91966668  0.54415089  0.02437679  1
  O  O40  1  0.35689781  0.14560383  0.02482235  1
  O  O41  1  0.85830986  0.16990164  0.02555740  1
  O  O42  1  0.21886410  0.15022040  0.52779891  1
  O  O43  1  0.71884145  0.15015163  0.52765044  1
  O  O44  1  0.35590640  0.56192327  0.52762901  1
  O  O45  1  0.85576005  0.56157319  0.52756908  1
  O  O46  1  0.42681532  0.28563293  0.52500313  1
  O  O47  1  0.92682113  0.28569875  0.52500270  1
  O  O48  1  0.26929434  0.69238918  0.97300051  1
  O  O49  1  0.76731927  0.68370023  0.97285372  1
  O  O50  1  0.07185428  0.45567881  0.97682786  1
  O  O51  1  0.57586620  0.45902084  0.97483048  1
  O  O52  1  0.15289086  0.84601150  0.97269887  1
  O  O53  1  0.65513948  0.84997805  0.97486414  1
  O  O54  1  0.27161181  0.84838280  0.47452088  1
  O  O55  1  0.77155709  0.84839844  0.47449837  1
  O  O56  1  0.15366483  0.46059022  0.47280378  1
  O  O57  1  0.65363445  0.46057918  0.47277479  1
  O  O58  1  0.07691036  0.69392750  0.47279838  1
  O  O59  1  0.57695572  0.69397973  0.47271899  1
  O  O60  1  0.06590299  0.63405770  0.35579657  1
  O  O61  1  0.56614937  0.63413705  0.35567365  1
  O  O62  1  0.24873457  0.86653601  0.35881841  1
  O  O63  1  0.74879953  0.86692125  0.35882013  1
  O  O64  1  0.18284050  0.49723747  0.35586038  1
  O  O65  1  0.68284779  0.49710098  0.35578538  1
  O  O66  1  0.05994365  0.50218027  0.86138337  1
  O  O67  1  0.56908277  0.50723028  0.85929292  1
  O  O68  1  0.18215057  0.86665823  0.85601478  1
  O  O69  1  0.68652962  0.87879708  0.85751172  1
  O  O70  1  0.24958699  0.63247503  0.85656857  1
  O  O71  1  0.75383819  0.62315165  0.85658018  1
  O  O72  1  0.01199026  0.82910492  0.41000184  1
  O  O73  1  0.51195421  0.82889496  0.40987924  1
  O  O74  1  0.40236826  0.97533006  0.40990642  1
  O  O75  1  0.90242244  0.97549842  0.40999950  1
  O  O76  1  0.08588512  0.19489778  0.41018335  1
  O  O77  1  0.58581701  0.19495186  0.41023031  1
  O  O78  1  0.00972929  0.19666162  0.91069845  1
  O  O79  1  0.51262183  0.19729470  0.90978418  1
  O  O80  1  0.08617362  0.97866032  0.90999481  1
  O  O81  1  0.59159219  0.98716997  0.91113233  1
  O  O82  1  0.40255711  0.82782009  0.91032583  1
  O  O83  1  0.90465446  0.81357384  0.91108033  1
  O  O84  1  0.48879012  0.15424792  0.59297016  1
  O  O85  1  0.98896328  0.15452167  0.59289160  1
  O  O86  1  0.08757927  0.02155868  0.59268207  1
  O  O87  1  0.58750960  0.02132504  0.59250936  1
  O  O88  1  0.42284225  0.82358911  0.59305648  1
  O  O89  1  0.92305578  0.82325653  0.59276126  1
  O  O90  1  0.48954915  0.82500055  0.09232755  1
  O  O91  1  0.98594682  0.81819209  0.08882930  1
  O  O92  1  0.42401591  0.02393775  0.09249740  1
  O  O93  1  0.92311524  0.03534877  0.08962895  1
  O  O94  1  0.08696119  0.15126842  0.09265637  1
  O  O95  1  0.59342228  0.15524229  0.08856534  1
  O  O96  1  0.33607520  0.14969894  0.74512542  1
  O  O97  1  0.83530880  0.14785665  0.74456558  1
  O  O98  1  0.23606846  0.32327072  0.74480135  1
  O  O99  1  0.73686894  0.32224412  0.74459817  1
  O  O100  1  0.42259476  0.52926693  0.74424669  1
  O  O101  1  0.92203764  0.52858849  0.74443743  1
  O  O102  1  0.33861908  0.52657181  0.24452601  1
  O  O103  1  0.83946988  0.52894822  0.24367672  1
  O  O104  1  0.42533669  0.32697783  0.24439559  1
  O  O105  1  0.92520046  0.32864171  0.24506170  1
  O  O106  1  0.23497583  0.15497824  0.24334905  1
  O  O107  1  0.73573530  0.15607213  0.24431404  1
  O  O108  1  0.31860099  0.49894234  0.91698341  1
  O  O109  1  0.81795861  0.48554809  0.92167274  1
  O  O110  1  0.43163124  0.36462037  0.91728135  1
  O  O111  1  0.92631231  0.36720484  0.92266483  1
  O  O112  1  0.25080822  0.13731345  0.91667972  1
  O  O113  1  0.75551819  0.15038786  0.92253872  1
  O  O114  1  0.31883882  0.13804903  0.41803649  1
  O  O115  1  0.81885395  0.13819531  0.41807750  1
  O  O116  1  0.25061119  0.36271672  0.41696185  1
  O  O117  1  0.75056783  0.36260909  0.41696590  1
  O  O118  1  0.43135550  0.49947082  0.41679498  1
  O  O119  1  0.93123938  0.49953616  0.41694173  1
  O  O120  1  0.16785004  0.48410356  0.08081041  1
  O  O121  1  0.66982343  0.48255471  0.07844690  1
  O  O122  1  0.06907824  0.65743240  0.07769075  1
  O  O123  1  0.57404362  0.66181179  0.08091447  1
  O  O124  1  0.25787939  0.85104074  0.08005617  1
  O  O125  1  0.75638950  0.86434944  0.07590012  1
  O  O126  1  0.16823589  0.85196506  0.58079140  1
  O  O127  1  0.66823516  0.85188701  0.58075133  1
  O  O128  1  0.25729718  0.66301386  0.58085453  1
  O  O129  1  0.75730993  0.66299092  0.58083660  1
  O  O130  1  0.07440171  0.48436061  0.57971510  1
  O  O131  1  0.57434992  0.48425164  0.57972614  1
  O  O132  1  0.15011066  0.81934135  0.25445661  1
  O  O133  1  0.65034955  0.81989999  0.25442453  1
  O  O134  1  0.25743140  0.69227993  0.25463498  1
  O  O135  1  0.75774211  0.69305447  0.25453218  1
  O  O136  1  0.08944649  0.48183487  0.25305030  1
  O  O137  1  0.58973265  0.48198396  0.25299053  1
  O  O138  1  0.15229936  0.48375571  0.75630939  1
  O  O139  1  0.65468040  0.48603805  0.75515261  1
  O  O140  1  0.08992104  0.69861163  0.75489701  1
  O  O141  1  0.59126816  0.70202951  0.75579293  1
  O  O142  1  0.25859297  0.82076850  0.75360100  1
  O  O143  1  0.75878772  0.82001099  0.75517691  1
loop_
_geom_bond_atom_site_label_1
_geom_bond_atom_site_label_2
_geom_bond_distance
_geom_bond_site_symmetry_2
Na0 O102 2.372026 1_555
Na0 O136 2.395491 1_555
Na0 O106 2.402308 1_555
Na0 O34 2.476227 1_555
Na0 O134 2.549588 1_555
Na0 O64 2.632289 1_555
Na0 O20 2.801931 1_555
Na0 O0 2.913744 1_555
Na1 O103 2.369681 1_555
Na1 O137 2.395193 1_555
Na1 O107 2.404976 1_555
Na1 O35 2.486285 1_555
Na1 O135 2.540849 1_555
Na1 O65 2.628747 1_555
Na1 O21 2.793175 1_555
Na1 O1 2.930189 1_555
Na2 O105 2.320201 1_555
Na2 O132 2.401613 1_655
Na2 O103 2.428701 1_555
Na2 O31 2.534886 1_555
Na2 O136 2.597696 1_655
Na2 O60 2.642368 1_655
Na2 O22 2.761486 1_655
Na2 O3 2.882402 1_555
Na3 O104 2.326257 1_555
Na3 O133 2.402514 1_555
Na3 O102 2.444924 1_555
Na3 O30 2.470052 1_555
Na3 O137 2.589822 1_555
Na3 O61 2.649041 1_555
Na3 O23 2.775947 1_555
Na3 O2 2.894787 1_555
Na4 O98 2.363904 1_555
Na4 O142 2.397137 1_555
Na4 O100 2.413814 1_555
Na4 O28 2.477499 1_555
Na4 O138 2.564988 1_555
Na4 O70 2.655454 1_555
Na4 O12 2.780294 1_555
Na4 O8 2.937920 1_555
Na5 O99 2.371099 1_555
Na5 O101 2.397604 1_555
Na5 O143 2.399658 1_555
Na5 O29 2.481698 1_555
Na5 O139 2.536969 1_555
Na5 O71 2.603599 1_555
Na5 O13 2.788913 1_555
Na5 O9 2.931096 1_555
Na6 O96 2.324985 1_555
Na6 O140 2.411311 1_545
Na6 O98 2.446423 1_555
Na6 O26 2.468180 1_555
Na6 O142 2.593075 1_545
Na6 O68 2.656175 1_545
Na6 O16 2.771554 1_545
Na6 O6 2.890866 1_555
Na7 O97 2.315183 1_555
Na7 O141 2.385224 1_545
Na7 O99 2.435451 1_555
Na7 O27 2.469260 1_555
Na7 O143 2.604723 1_545
Na7 O69 2.656578 1_545
Na7 O17 2.762092 1_545
Na7 O7 2.885400 1_555
Na8 O130 2.351134 1_555
Na8 O86 2.474623 1_555
Na8 O128 2.491661 1_555
Na8 O56 2.566520 1_555
Na8 O85 2.586232 1_455
Na8 O42 2.687486 1_555
Na8 O14 2.713740 1_555
Na8 O28 2.882886 1_555
Na9 O131 2.351003 1_555
Na9 O87 2.477582 1_555
Na9 O129 2.489731 1_555
Na9 O57 2.566932 1_555
Na9 O84 2.590652 1_555
Na9 O43 2.689538 1_555
Na9 O15 2.701445 1_555
Na9 O29 2.881892 1_555
Na10 O126 2.367574 1_555
Na10 O89 2.464383 1_455
Na10 O130 2.493719 1_555
Na10 O58 2.573546 1_555
Na10 O86 2.593098 1_565
Na10 O45 2.700335 1_455
Na10 O16 2.732374 1_555
Na10 O25 2.805333 1_455
Na11 O127 2.367831 1_555
Na11 O88 2.471663 1_555
Na11 O131 2.492890 1_555
Na11 O59 2.575408 1_555
Na11 O87 2.592106 1_565
Na11 O44 2.697958 1_555
Na11 O17 2.739371 1_555
Na11 O24 2.805154 1_555
Na12 O128 2.366487 1_555
Na12 O84 2.471835 1_565
Na12 O126 2.492198 1_555
Na12 O54 2.517636 1_555
Na12 O88 2.588875 1_555
Na12 O46 2.707017 1_565
Na12 O12 2.757794 1_555
Na12 O26 2.895377 1_565
Na13 O129 2.365486 1_555
Na13 O85 2.473813 1_565
Na13 O127 2.492415 1_555
Na13 O55 2.521992 1_555
Na13 O89 2.592274 1_555
Na13 O13 2.695768 1_555
Na13 O47 2.710294 1_565
Na13 O27 2.893495 1_565
Na14 O122 2.398059 1_555
Na14 O94 2.454291 1_565
Na14 O124 2.512552 1_555
Na14 O52 2.568683 1_554
Na14 O91 2.601175 1_455
Na14 O36 2.702085 1_565
Na14 O22 2.709279 1_555
Na14 O32 2.845066 1_565
Na15 O123 2.347951 1_555
Na15 O125 2.392441 1_555
Na15 O95 2.394451 1_565
Na15 O90 2.548806 1_555
Na15 O53 2.554431 1_554
Na15 O23 2.679923 1_555
Na15 O37 2.760175 1_565
Na15 O33 2.826356 1_565
Na16 O124 2.355328 1_555
Na16 O90 2.481527 1_555
Na16 O120 2.495765 1_555
Na16 O48 2.568714 1_554
Na16 O92 2.611688 1_565
Na16 O38 2.684016 1_555
Na16 O18 2.702394 1_555
Na16 O34 2.879453 1_555
Na17 O120 2.327890 1_555
Na17 O93 2.385858 1_455
Na17 O122 2.448023 1_555
Na17 O50 2.482776 1_554
Na17 O94 2.578714 1_555
Na17 O20 2.700556 1_555
Na17 O41 2.713797 1_455
Na17 O31 2.863179 1_455
Na18 O121 2.363001 1_555
Na18 O92 2.466006 1_555
Na18 O123 2.478418 1_555
Na18 O51 2.500145 1_554
Na18 O95 2.631435 1_555
Na18 O40 2.731269 1_555
Na18 O21 2.736034 1_555
Na18 O30 2.920711 1_555
Na19 O110 2.379742 1_555
Na19 O82 2.449361 1_555
Na19 O81 2.489795 1_555
Na19 O108 2.523640 1_555
Na19 O8 2.556150 1_555
Na19 O38 2.584741 1_556
Na19 O67 2.851819 1_555
Na19 O53 2.915681 1_555
Na20 O83 2.309710 1_555
Na20 O111 2.376585 1_555
Na20 O80 2.378758 1_655
Na20 O9 2.513322 1_555
Na20 O109 2.577152 1_555
Na20 O39 2.634799 1_556
Na20 O66 2.718075 1_655
Na20 O52 2.855055 1_655
Na21 O112 2.369283 1_555
Na21 O82 2.423648 1_545
Na21 O79 2.452709 1_555
Na21 O40 2.503658 1_556
Na21 O110 2.504322 1_555
Na21 O10 2.536623 1_555
Na21 O48 2.910875 1_545
Na21 O68 2.937298 1_545
Na22 O108 2.392615 1_555
Na22 O80 2.415883 1_545
Na22 O78 2.448442 1_555
Na22 O112 2.499039 1_555
Na22 O36 2.575525 1_556
Na22 O6 2.578674 1_555
Na23 O109 2.371883 1_555
Na23 O79 2.372652 1_555
Na23 O81 2.398581 1_545
Na23 O113 2.543368 1_555
Na23 O7 2.545285 1_555
Na23 O37 2.673943 1_556
Na23 O71 2.792008 1_555
Na23 O51 2.881911 1_555
Na24 O118 2.378768 1_555
Na24 O77 2.417444 1_555
Na24 O74 2.452645 1_545
Na24 O114 2.489116 1_555
Na24 O46 2.500205 1_555
Na24 O4 2.567895 1_555
Na24 O57 2.900103 1_555
Na24 O61 2.931263 1_555
Na25 O119 2.381655 1_555
Na25 O76 2.418006 1_655
Na25 O75 2.450226 1_545
Na25 O115 2.489041 1_555
Na25 O47 2.504302 1_555
Na25 O5 2.551075 1_555
Na25 O56 2.902397 1_655
Na25 O60 2.928217 1_655
Na26 O114 2.381300 1_555
Na26 O72 2.418285 1_545
Na26 O76 2.444095 1_555
Na26 O116 2.496135 1_555
Na26 O42 2.575943 1_555
Na26 O0 2.593538 1_555
Na26 O62 2.866699 1_545
Na26 O58 2.889694 1_545
Na27 O115 2.379452 1_555
Na27 O73 2.420959 1_545
Na27 O77 2.447580 1_555
Na27 O117 2.495490 1_555
Na27 O43 2.569157 1_555
Na27 O1 2.587870 1_555
Na27 O63 2.864866 1_545
Na27 O59 2.886982 1_545
Na28 O116 2.376856 1_555
Na28 O74 2.417687 1_555
Na28 O73 2.450608 1_555
Na28 O118 2.490880 1_555
Na28 O44 2.563744 1_555
Na28 O2 2.602066 1_555
Na28 O54 2.896619 1_555
Na28 O64 2.929997 1_555
Na29 O117 2.379204 1_555
Na29 O75 2.417183 1_555
Na29 O72 2.449069 1_655
Na29 O119 2.488441 1_555
Na29 O45 2.568791 1_555
Na29 O3 2.577143 1_555
Na29 O55 2.899791 1_555
Na29 O65 2.929318 1_555
Na30 O75 2.492247 1_545
Na30 O76 2.493870 1_655
Na30 O72 2.496306 1_645
Na30 O85 2.541099 1_555
Na30 O86 2.541999 1_655
Na30 O89 2.542901 1_545
Na31 O77 2.493647 1_555
Na31 O74 2.494801 1_545
Na31 O73 2.500302 1_545
Na31 O87 2.537866 1_555
Na31 O84 2.541077 1_555
Na31 O88 2.547180 1_545
Na32 O83 2.394779 1_555
Na32 O93 2.441263 1_566
Na32 O78 2.496019 1_665
Na32 O91 2.509554 1_556
Na32 O80 2.599811 1_655
Na32 O94 2.642755 1_666
Na33 O82 2.495479 1_545
Na33 O95 2.506116 1_556
Na33 O79 2.506308 1_555
Na33 O81 2.515348 1_545
Na33 O92 2.521580 1_556
Na33 O90 2.534562 1_546
Na34 O110 2.402749 1_555
Na34 O96 2.453558 1_555
Na34 O100 2.474635 1_555
Na34 O112 2.496758 1_555
Na34 O108 2.506051 1_555
Na34 O98 2.591183 1_555
Na35 O97 2.389641 1_555
Na35 O111 2.427984 1_555
Na35 O101 2.482505 1_555
Na35 O113 2.522757 1_555
Na35 O109 2.594016 1_555
Na35 O99 2.607835 1_555
Na36 O114 2.408472 1_555
Na36 O104 2.473168 1_555
Na36 O106 2.494325 1_555
Na36 O116 2.499315 1_555
Na36 O118 2.502841 1_555
Na36 O102 2.589056 1_555
Na37 O115 2.407239 1_555
Na37 O105 2.456602 1_555
Na37 O107 2.479571 1_555
Na37 O119 2.495580 1_555
Na37 O117 2.498167 1_555
Na37 O103 2.613279 1_555
Na38 O124 2.398454 1_555
Na38 O134 2.425440 1_555
Na38 O132 2.430335 1_555
Na38 O120 2.487316 1_555
Na38 O136 2.494415 1_555
Na38 O122 2.572866 1_555
Na39 O135 2.401382 1_555
Na39 O125 2.417914 1_555
Na39 O121 2.476314 1_555
Na39 O123 2.515334 1_555
Na39 O133 2.520318 1_555
Na39 O137 2.574258 1_555
Na40 O130 2.401540 1_555
Na40 O140 2.442759 1_555
Na40 O138 2.459679 1_555
Na40 O126 2.474219 1_555
Na40 O128 2.475592 1_555
Na40 O142 2.505721 1_555
Na41 O131 2.403267 1_555
Na41 O139 2.433680 1_555
Na41 O141 2.452821 1_555
Na41 O127 2.478939 1_555
Na41 O129 2.480324 1_555
Na41 O143 2.530495 1_555
Mg0 O5 1.983639 1_555
Mg0 O3 1.985592 1_545
Mg0 O0 1.991525 1_655
Mg0 O75 2.061625 1_545
Mg0 O76 2.081277 1_655
Mg0 O72 2.082193 1_645
Mg1 O4 1.982163 1_555
Mg1 O2 1.983986 1_545
Mg1 O1 1.990515 1_555
Mg1 O74 2.057852 1_545
Mg1 O73 2.077850 1_545
Mg1 O77 2.077872 1_555
Mg2 O11 1.936460 1_555
Mg2 O6 2.010950 1_655
Mg2 O9 2.021946 1_545
Mg2 O78 2.055105 1_655
Mg2 O83 2.069344 1_545
Mg2 O80 2.092093 1_645
Mg3 O7 1.978346 1_555
Mg3 O10 1.988525 1_555
Mg3 O8 1.988775 1_545
Mg3 O79 2.067660 1_555
Mg3 O82 2.083120 1_545
Mg3 O81 2.126585 1_545
Mg4 O24 1.961094 1_555
Mg4 O28 2.031083 1_555
Mg4 O26 2.033809 1_555
Mg4 O100 2.079685 1_555
Mg4 O96 2.085898 1_555
Mg4 O98 2.154514 1_555
Mg5 O25 1.961902 1_555
Mg5 O29 2.028727 1_555
Mg5 O27 2.032204 1_555
Mg5 O101 2.080982 1_555
Mg5 O97 2.089837 1_555
Mg5 O99 2.138291 1_555
Mg6 O32 1.964193 1_555
Mg6 O30 2.031580 1_555
Mg6 O34 2.035446 1_555
Mg6 O106 2.067510 1_555
Mg6 O104 2.086640 1_555
Mg6 O102 2.142567 1_555
Mg7 O33 1.950975 1_555
Mg7 O35 2.005640 1_555
Mg7 O31 2.007538 1_555
Mg7 O107 2.063692 1_555
Mg7 O105 2.072728 1_555
Mg7 O103 2.120178 1_555
Mg8 O36 2.098217 1_556
Mg8 O40 2.099725 1_556
Mg8 O38 2.099896 1_556
Mg8 O110 2.153035 1_555
Mg8 O108 2.165018 1_555
Mg8 O112 2.165256 1_555
Mg9 O44 2.094811 1_555
Mg9 O42 2.096047 1_555
Mg9 O46 2.096852 1_555
Mg9 O114 2.140088 1_555
Mg9 O118 2.163435 1_555
Mg9 O116 2.165347 1_555
Mg10 O45 2.092218 1_555
Mg10 O43 2.095648 1_555
Mg10 O47 2.096507 1_555
Mg10 O115 2.138542 1_555
Mg10 O119 2.159874 1_555
Mg10 O117 2.165390 1_555
Mg11 O48 1.985368 1_554
Mg11 O52 1.985636 1_554
Mg11 O50 1.989662 1_554
Mg11 O122 2.107572 1_555
Mg11 O124 2.109688 1_555
Mg11 O120 2.115254 1_555
Mg12 O49 1.931679 1_554
Mg12 O53 2.008607 1_554
Mg12 O51 2.015513 1_554
Mg12 O125 2.048760 1_555
Mg12 O121 2.077329 1_555
Mg12 O123 2.140740 1_555
Mg13 O56 1.984030 1_555
Mg13 O54 1.984567 1_555
Mg13 O58 1.987281 1_555
Mg13 O130 2.100881 1_555
Mg13 O128 2.110759 1_555
Mg13 O126 2.112562 1_555
Mg14 O55 1.984333 1_555
Mg14 O57 1.984666 1_555
Mg14 O59 1.988294 1_555
Mg14 O131 2.101605 1_555
Mg14 O129 2.110068 1_555
Mg14 O127 2.111001 1_555
Ge0 O14 1.932638 1_655
Ge0 O85 1.935003 1_555
Ge0 O13 1.936516 1_545
Ge0 O86 1.953085 1_655
Ge0 O89 1.958913 1_545
Ge0 O16 1.959140 1_645
Ge1 O12 1.926019 1_545
Ge1 O15 1.929597 1_555
Ge1 O84 1.937344 1_555
Ge1 O87 1.951143 1_555
Ge1 O17 1.956664 1_545
Ge1 O88 1.962221 1_545
Ge2 O19 1.880488 1_555
Ge2 O94 1.953800 1_665
Ge2 O20 1.958225 1_665
Ge2 O93 1.974530 1_565
Ge2 O91 1.985793 1_555
Ge2 O22 1.995166 1_655
Ge3 O21 1.924991 1_565
Ge3 O18 1.929071 1_555
Ge3 O92 1.935872 1_565
Ge3 O90 1.941362 1_555
Ge3 O23 1.945414 1_555
Ge3 O95 2.058522 1_565
Ge4 O41 1.907584 1_556
Ge4 O39 1.962321 1_556
Ge4 O37 1.966152 1_556
Ge4 O111 1.974123 1_555
Ge4 O113 1.985310 1_555
Ge4 O109 2.034519 1_555
Ge5 O62 1.861638 1_555
Ge5 O60 1.902462 1_555
Ge5 O64 1.907624 1_555
Ge5 O134 1.968128 1_555
Ge5 O132 1.983969 1_555
Ge5 O136 2.051617 1_555
Ge6 O63 1.860002 1_555
Ge6 O61 1.904721 1_555
Ge6 O65 1.908186 1_555
Ge6 O135 1.965200 1_555
Ge6 O133 1.985684 1_555
Ge6 O137 2.053552 1_555
Ge7 O68 1.898338 1_555
Ge7 O66 1.911425 1_555
Ge7 O70 1.913667 1_555
Ge7 O138 1.954557 1_555
Ge7 O140 1.969924 1_555
Ge7 O142 2.081529 1_555
Ge8 O67 1.863809 1_555
Ge8 O71 1.954700 1_555
Ge8 O69 1.958628 1_555
Ge8 O139 1.987633 1_555
Ge8 O143 1.991435 1_555
Ge8 O141 2.015365 1_555
O0 P0 1.514805 1_545
O1 P1 1.511300 1_545
O2 P2 1.508073 1_555
O3 P3 1.509129 1_555
O4 P5 1.504934 1_555
O5 P4 1.503402 1_655
O6 P6 1.505808 1_555
O7 P7 1.511133 1_555
O8 P9 1.516745 1_555
O9 P8 1.509735 1_655
O10 P10 1.507116 1_545
O11 P11 1.493400 1_545
O12 P10 1.605425 1_555
O13 P11 1.607295 1_555
O14 P6 1.591624 1_555
O15 P7 1.590339 1_555
O16 P8 1.608259 1_555
O17 P9 1.610241 1_555
O18 P2 1.591680 1_555
O19 P3 1.586445 1_555
O20 P4 1.601186 1_555
O21 P5 1.613528 1_555
O22 P0 1.610878 1_555
O23 P1 1.614167 1_555
O24 P12 1.505003 1_555
O25 P13 1.503845 1_555
O26 P14 1.519991 1_555
O27 P15 1.517819 1_555
O28 P16 1.519935 1_555
O29 P17 1.518712 1_555
O30 P18 1.517129 1_555
O31 P19 1.508413 1_555
O32 P20 1.502462 1_555
O33 P21 1.498214 1_555
O34 P22 1.519121 1_555
O35 P23 1.501157 1_555
O36 P22 1.543370 1_555
O37 P23 1.613290 1_555
O38 P18 1.544915 1_555
O39 P19 1.595673 1_555
O40 P20 1.547443 1_555
O41 P21 1.615233 1_555
O42 P14 1.544514 1_555
O43 P15 1.545243 1_555
O44 P16 1.545303 1_555
O45 P17 1.545728 1_555
O46 P12 1.548067 1_555
O47 P13 1.548122 1_555
O48 P24 1.521169 1_555
O49 P25 1.498538 1_555
O50 P26 1.517498 1_555
O51 P27 1.522732 1_555
O52 P28 1.522392 1_555
O53 P29 1.510948 1_555
O54 P30 1.523117 1_555
O55 P31 1.522412 1_555
O56 P32 1.519876 1_555
O57 P33 1.518854 1_555
O58 P34 1.520556 1_555
O59 P35 1.521000 1_555
O60 P34 1.607720 1_555
O61 P35 1.608168 1_555
O62 P30 1.595895 1_555
O63 P31 1.596968 1_555
O64 P32 1.607094 1_555
O65 P33 1.607786 1_555
O66 P26 1.600573 1_555
O67 P27 1.603476 1_555
O68 P28 1.611219 1_555
O69 P29 1.592710 1_555
O70 P24 1.611613 1_555
O71 P25 1.612156 1_555
O72 P34 1.540450 1_555
O73 P35 1.540980 1_555
O74 P30 1.540290 1_555
O75 P31 1.539364 1_555
O76 P32 1.540708 1_555
O77 P33 1.541058 1_555
O78 P26 1.515098 1_555
O79 P27 1.542353 1_555
O80 P28 1.536276 1_555
O81 P29 1.544841 1_555
O82 P24 1.544134 1_555
O83 P25 1.513619 1_555
O84 P12 1.607320 1_555
O85 P13 1.607654 1_555
O86 P14 1.602889 1_555
O87 P15 1.603520 1_555
O88 P16 1.603564 1_555
O89 P17 1.604064 1_555
O90 P18 1.609810 1_555
O91 P19 1.585281 1_555
O92 P20 1.616228 1_555
O93 P21 1.588676 1_555
O94 P22 1.609876 1_555
O95 P23 1.608894 1_555
O96 P10 1.518948 1_545
O97 P11 1.514850 1_545
O98 P6 1.537791 1_555
O99 P7 1.536090 1_555
O100 P9 1.516047 1_555
O101 P8 1.514955 1_655
O102 P2 1.536941 1_555
O103 P3 1.537736 1_555
O104 P5 1.516048 1_555
O105 P4 1.521024 1_655
O106 P0 1.515468 1_545
O107 P1 1.514908 1_545
O108 P24 1.541981 1_555
O109 P25 1.617247 1_555
O110 P27 1.541293 1_555
O111 P26 1.592956 1_655
O112 P28 1.543119 1_545
O113 P29 1.589538 1_545
O114 P30 1.543297 1_545
O115 P31 1.543885 1_545
O116 P32 1.544233 1_555
O117 P33 1.544399 1_555
O118 P35 1.543236 1_555
O119 P34 1.543725 1_655
O120 P22 1.545706 1_555
O121 P23 1.522260 1_555
O122 P19 1.544567 1_455
O123 P18 1.542642 1_555
O124 P20 1.547656 1_565
O125 P21 1.517907 1_565
O126 P14 1.543223 1_565
O127 P15 1.543170 1_565
O128 P16 1.542700 1_555
O129 P17 1.542353 1_555
O130 P13 1.544772 1_455
O131 P12 1.544236 1_555
O132 P0 1.590945 1_555
O133 P1 1.586391 1_555
O134 P2 1.584743 1_555
O135 P3 1.586602 1_555
O136 P4 1.610213 1_555
O137 P5 1.605256 1_555
O138 P6 1.590887 1_555
O139 P7 1.582767 1_555
O140 P8 1.592570 1_555
O141 P9 1.587135 1_555
O142 P10 1.603452 1_555
O143 P11 1.618643 1_555
