# generated using pymatgen
data_BaMgNiO3
_symmetry_space_group_name_H-M   'P 1'
_cell_length_a   3.88496495
_cell_length_b   3.88495677
_cell_length_c   6.80347268
_cell_angle_alpha   90.00000000
_cell_angle_beta   90.00000000
_cell_angle_gamma   90.00000000
_symmetry_Int_Tables_number   1
_chemical_formula_structural   BaMgNiO3
_chemical_formula_sum   'Ba1 Mg1 Ni1 O3'
_cell_volume   102.68427489
_cell_formula_units_Z   1
loop_
 _symmetry_equiv_pos_site_id
 _symmetry_equiv_pos_as_xyz
  1  'x, y, z'
loop_
 _atom_site_type_symbol
 _atom_site_label
 _atom_site_symmetry_multiplicity
 _atom_site_fract_x
 _atom_site_fract_y
 _atom_site_fract_z
 _atom_site_occupancy
  Ba  Ba0  1  0.00000000  0.00000000  0.00040549  1
  Mg  Mg0  1  0.00000000  0.00000000  0.50202230  1
  Ni  Ni0  1  0.50000000  0.50000000  0.49880987  1
  O  O0  1  0.00000000  0.50000000  0.50354137  1
  O  O1  1  0.50000000  0.00000000  0.50354338  1
  O  O2  1  0.50000000  0.50000000  0.00567659  1
loop_
_geom_bond_atom_site_label_1
_geom_bond_atom_site_label_2
_geom_bond_distance
_geom_bond_site_symmetry_2
Ba0 O2 2.747316 1_455
Ba0 O2 2.747316 1_555
Ba0 O2 2.747316 1_545
Ba0 O2 2.747316 1_445
Mg0 O0 1.942506 1_555
Mg0 O0 1.942506 1_545
Mg0 O1 1.942510 1_555
Mg0 O1 1.942510 1_455
Ni0 O1 1.942745 1_565
Ni0 O1 1.942745 1_555
Ni0 O0 1.942749 1_555
Ni0 O0 1.942749 1_655
