# generated using pymatgen
data_MgFe4As2O11
_symmetry_space_group_name_H-M   'P 1'
_cell_length_a   5.34330604
_cell_length_b   6.53094262
_cell_length_c   6.93416874
_cell_angle_alpha   109.24843313
_cell_angle_beta   103.42083966
_cell_angle_gamma   98.62879229
_symmetry_Int_Tables_number   1
_chemical_formula_structural   MgFe4As2O11
_chemical_formula_sum   'Mg1 Fe4 As2 O11'
_cell_volume   215.34638751
_cell_formula_units_Z   1
loop_
 _symmetry_equiv_pos_site_id
 _symmetry_equiv_pos_as_xyz
  1  'x, y, z'
loop_
 _atom_site_type_symbol
 _atom_site_label
 _atom_site_symmetry_multiplicity
 _atom_site_fract_x
 _atom_site_fract_y
 _atom_site_fract_z
 _atom_site_occupancy
  Mg  Mg0  1  0.81408200  0.65776800  0.74195800  1
  Fe  Fe0  1  0.15612900  0.79249500  0.11119900  1
  Fe  Fe1  1  0.89824300  0.23833700  0.95707300  1
  Fe  Fe2  1  0.63563900  0.59942300  0.21768400  1
  Fe  Fe3  1  0.32873700  0.35378600  0.74731700  1
  As  As0  1  0.31512600  0.81318200  0.59963000  1
  As  As1  1  0.68288400  0.17531900  0.39096500  1
  O  O0  1  0.74653800  0.52172100  0.95407400  1
  O  O1  1  0.25694200  0.47006900  0.05186600  1
  O  O2  1  0.97226900  0.97030900  0.95973900  1
  O  O3  1  0.91864500  0.21232000  0.62515100  1
  O  O4  1  0.06118300  0.79847200  0.38760900  1
  O  O5  1  0.42464500  0.26915600  0.46015900  1
  O  O6  1  0.18719700  0.64428700  0.71723200  1
  O  O7  1  0.79051400  0.33565500  0.25221700  1
  O  O8  1  0.46992900  0.07875100  0.78379500  1
  O  O9  1  0.57264800  0.90125200  0.20910600  1
  O  O10  1  0.56864800  0.70936400  0.51322800  1
loop_
_geom_bond_atom_site_label_1
_geom_bond_atom_site_label_2
_geom_bond_distance
_geom_bond_site_symmetry_2
Mg0 O10 1.966825 1_555
Mg0 O2 2.004693 1_555
Mg0 O0 2.023601 1_555
Mg0 O6 2.052621 1_655
Fe0 O2 2.020966 1_454
Fe0 O4 2.083395 1_555
Fe0 O9 2.103565 1_555
Fe0 O1 2.183034 1_555
Fe0 O0 2.359152 1_454
Fe1 O2 1.856519 1_545
Fe1 O1 2.070004 1_656
Fe1 O0 2.133205 1_555
Fe1 O7 2.173202 1_556
Fe1 O8 2.224816 1_555
Fe1 O3 2.280858 1_555
Fe2 O1 1.974046 1_555
Fe2 O0 1.982770 1_554
Fe2 O9 2.066316 1_555
Fe2 O10 2.071470 1_555
Fe2 O7 2.077849 1_555
Fe2 O4 2.260075 1_655
Fe3 O5 2.089507 1_555
Fe3 O3 2.094657 1_455
Fe3 O8 2.115947 1_555
Fe3 O1 2.142348 1_556
Fe3 O6 2.198479 1_555
Fe3 O0 2.232703 1_555
As0 O8 1.715233 1_565
As0 O4 1.718597 1_555
As0 O6 1.724685 1_555
As0 O10 1.743060 1_555
As1 O5 1.696165 1_555
As1 O3 1.727039 1_555
As1 O9 1.729624 1_545
As1 O7 1.758774 1_555
