# generated using pymatgen
data_Nd2Ge2Ir
_symmetry_space_group_name_H-M   'P 1'
_cell_length_a   5.96707294
_cell_length_b   5.96707294
_cell_length_c   10.15422385
_cell_angle_alpha   89.12676250
_cell_angle_beta   89.12676250
_cell_angle_gamma   41.86262861
_symmetry_Int_Tables_number   1
_chemical_formula_structural   Nd2Ge2Ir
_chemical_formula_sum   'Nd4 Ge4 Ir2'
_cell_volume   241.24775080
_cell_formula_units_Z   2
loop_
 _symmetry_equiv_pos_site_id
 _symmetry_equiv_pos_as_xyz
  1  'x, y, z'
loop_
 _atom_site_type_symbol
 _atom_site_label
 _atom_site_symmetry_multiplicity
 _atom_site_fract_x
 _atom_site_fract_y
 _atom_site_fract_z
 _atom_site_occupancy
  Nd  Nd0  1  0.70385000  0.70385000  0.30247000  1
  Nd  Nd1  1  0.29615000  0.29615000  0.69753000  1
  Nd  Nd2  1  0.13613900  0.13613900  0.03453800  1
  Nd  Nd3  1  0.86386100  0.86386100  0.96546200  1
  Ge  Ge0  1  0.57499200  0.57499200  0.82260600  1
  Ge  Ge1  1  0.42500800  0.42500800  0.17739400  1
  Ge  Ge2  1  0.88450500  0.88450500  0.50643200  1
  Ge  Ge3  1  0.11549500  0.11549500  0.49356800  1
  Ir  Ir0  1  0.00318900  0.00318900  0.71455000  1
  Ir  Ir1  1  0.99681100  0.99681100  0.28545000  1
loop_
_geom_bond_atom_site_label_1
_geom_bond_atom_site_label_2
_geom_bond_distance
_geom_bond_site_symmetry_2
Ge0 Ir0 2.533259 1_565
Ge0 Ir0 2.533259 1_655
Ge0 Nd2 3.112525 1_566
Ge0 Nd2 3.112525 1_656
Ge0 Nd1 3.376743 1_555
Ge0 Nd3 3.474987 1_545
Ge0 Nd3 3.474987 1_455
Ge0 Nd1 3.483121 1_565
Ge0 Nd1 3.483121 1_655
Ge0 Nd3 3.553091 1_555
Ge1 Ir1 2.533259 1_545
Ge1 Ir1 2.533259 1_455
Ge1 Nd3 3.112525 1_454
Ge1 Nd3 3.112525 1_544
Ge1 Nd0 3.376743 1_555
Ge1 Nd2 3.474987 1_655
Ge1 Nd2 3.474987 1_565
Ge1 Nd0 3.483121 1_455
Ge1 Nd0 3.483121 1_545
Ge1 Nd2 3.553091 1_555
Ge2 Ir0 2.511434 1_665
Ge2 Ir1 2.551568 1_555
Ge2 Ge3 2.575936 1_665
Ge2 Nd0 2.912113 1_555
Ge2 Nd1 3.035984 1_655
Ge2 Nd1 3.035984 1_565
Ge3 Ir1 2.511434 1_445
Ge3 Ir0 2.551568 1_555
Ge3 Nd1 2.912113 1_555
Ge3 Nd0 3.035984 1_545
Ge3 Nd0 3.035984 1_455
Ir0 Nd3 2.962120 1_445
Ir0 Nd1 3.148493 1_455
Ir0 Nd1 3.148493 1_545
Ir0 Nd1 3.267273 1_555
Ir1 Nd2 2.962120 1_665
Ir1 Nd0 3.148493 1_565
Ir1 Nd0 3.148493 1_655
Ir1 Nd0 3.267273 1_555
