# generated using pymatgen
data_Na4TaIn(SiO4)3
_symmetry_space_group_name_H-M   'P 1'
_cell_length_a   9.21437247
_cell_length_b   9.21437214
_cell_length_c   22.44779953
_cell_angle_alpha   90.00000000
_cell_angle_beta   90.00000000
_cell_angle_gamma   120.00000121
_symmetry_Int_Tables_number   1
_chemical_formula_structural   Na4TaIn(SiO4)3
_chemical_formula_sum   'Na24 Ta6 In6 Si18 O72'
_cell_volume   1650.57747298
_cell_formula_units_Z   6
loop_
 _symmetry_equiv_pos_site_id
 _symmetry_equiv_pos_as_xyz
  1  'x, y, z'
loop_
 _atom_site_type_symbol
 _atom_site_label
 _atom_site_symmetry_multiplicity
 _atom_site_fract_x
 _atom_site_fract_y
 _atom_site_fract_z
 _atom_site_occupancy
  Na  Na0  1  0.63956412  0.01370011  0.24697844  1
  Na  Na1  1  0.37413599  0.36043588  0.24697844  1
  Na  Na2  1  0.98629989  0.62586401  0.24697844  1
  Na  Na3  1  0.63956412  0.62586401  0.74697844  1
  Na  Na4  1  0.98629989  0.36043588  0.74697844  1
  Na  Na5  1  0.37413599  0.01370011  0.74697844  1
  Na  Na6  1  0.30623112  0.34703311  0.58031144  1
  Na  Na7  1  0.04080299  0.69376888  0.58031144  1
  Na  Na8  1  0.65296689  0.95919701  0.58031144  1
  Na  Na9  1  0.30623112  0.95919701  0.08031144  1
  Na  Na10  1  0.65296689  0.69376888  0.08031144  1
  Na  Na11  1  0.04080299  0.34703311  0.08031144  1
  Na  Na12  1  0.97289712  0.68036711  0.91364544  1
  Na  Na13  1  0.70746899  0.02710288  0.91364544  1
  Na  Na14  1  0.31963289  0.29253101  0.91364544  1
  Na  Na15  1  0.97289712  0.29253101  0.41364544  1
  Na  Na16  1  0.31963289  0.02710288  0.41364544  1
  Na  Na17  1  0.70746899  0.68036711  0.41364544  1
  Na  Na18  1  -0.00000000  -0.00000000  0.49467479  1
  Na  Na19  1  -0.00000000  -0.00000000  0.99467479  1
  Na  Na20  1  0.66666700  0.33333300  0.82800779  1
  Na  Na21  1  0.66666700  0.33333300  0.32800779  1
  Na  Na22  1  0.33333300  0.66666700  0.16134179  1
  Na  Na23  1  0.33333300  0.66666700  0.66134179  1
  Ta  Ta0  1  0.00000000  -0.00000000  0.64655929  1
  Ta  Ta1  1  -0.00000000  -0.00000000  0.14655929  1
  Ta  Ta2  1  0.66666700  0.33333300  0.97989229  1
  Ta  Ta3  1  0.66666700  0.33333300  0.47989229  1
  Ta  Ta4  1  0.33333300  0.66666700  0.31322629  1
  Ta  Ta5  1  0.33333300  0.66666700  0.81322629  1
  In  In0  1  -0.00000000  -0.00000000  0.34964784  1
  In  In1  1  -0.00000000  -0.00000000  0.84964784  1
  In  In2  1  0.66666700  0.33333300  0.68298084  1
  In  In3  1  0.66666700  0.33333300  0.18298084  1
  In  In4  1  0.33333300  0.66666700  0.01631484  1
  In  In5  1  0.33333300  0.66666700  0.51631484  1
  Si  Si0  1  0.29285690  0.99676166  0.25089317  1
  Si  Si1  1  0.70390476  0.70714310  0.25089317  1
  Si  Si2  1  0.00323834  0.29609524  0.25089317  1
  Si  Si3  1  0.29285690  0.29609524  0.75089317  1
  Si  Si4  1  0.00323834  0.70714310  0.75089317  1
  Si  Si5  1  0.70390476  0.99676166  0.75089317  1
  Si  Si6  1  0.95952390  0.33009466  0.58422617  1
  Si  Si7  1  0.37057176  0.04047610  0.58422617  1
  Si  Si8  1  0.66990534  0.62942824  0.58422617  1
  Si  Si9  1  0.95952390  0.62942824  0.08422617  1
  Si  Si10  1  0.66990534  0.04047610  0.08422617  1
  Si  Si11  1  0.37057176  0.33009466  0.08422617  1
  Si  Si12  1  0.62618990  0.66342866  0.91756017  1
  Si  Si13  1  0.03723776  0.37381010  0.91756017  1
  Si  Si14  1  0.33657134  0.96276224  0.91756017  1
  Si  Si15  1  0.62618990  0.96276224  0.41756017  1
  Si  Si16  1  0.33657134  0.37381010  0.41756017  1
  Si  Si17  1  0.03723776  0.66342866  0.41756017  1
  O  O0  1  0.21914832  0.03264762  0.31053294  1
  O  O1  1  0.81349930  0.78085168  0.31053294  1
  O  O2  1  0.96735238  0.18650070  0.31053294  1
  O  O3  1  0.21914832  0.18650070  0.81053294  1
  O  O4  1  0.96735238  0.78085168  0.81053294  1
  O  O5  1  0.81349930  0.03264762  0.81053294  1
  O  O6  1  0.80366044  0.96892812  0.69324818  1
  O  O7  1  0.16526767  0.19633956  0.69324818  1
  O  O8  1  0.03107188  0.83473233  0.69324818  1
  O  O9  1  0.80366044  0.83473233  0.19324818  1
  O  O10  1  0.03107188  0.19633956  0.19324818  1
  O  O11  1  0.16526767  0.96892812  0.19324818  1
  O  O12  1  0.88581532  0.36598062  0.64386594  1
  O  O13  1  0.48016630  0.11418468  0.64386594  1
  O  O14  1  0.63401938  0.51983370  0.64386594  1
  O  O15  1  0.88581532  0.51983370  0.14386594  1
  O  O16  1  0.63401938  0.11418468  0.14386594  1
  O  O17  1  0.48016630  0.36598062  0.14386594  1
  O  O18  1  0.47032744  0.30226112  0.02658118  1
  O  O19  1  0.83193467  0.52967256  0.02658118  1
  O  O20  1  0.69773888  0.16806533  0.02658118  1
  O  O21  1  0.47032744  0.16806533  0.52658118  1
  O  O22  1  0.69773888  0.52967256  0.52658118  1
  O  O23  1  0.83193467  0.30226112  0.52658118  1
  O  O24  1  0.55248132  0.69931462  0.97719994  1
  O  O25  1  0.14683230  0.44751868  0.97719994  1
  O  O26  1  0.30068538  0.85316770  0.97719994  1
  O  O27  1  0.55248132  0.85316770  0.47719994  1
  O  O28  1  0.30068538  0.44751868  0.47719994  1
  O  O29  1  0.14683230  0.69931462  0.47719994  1
  O  O30  1  0.13699344  0.63559512  0.35991518  1
  O  O31  1  0.49860067  0.86300656  0.35991518  1
  O  O32  1  0.36440488  0.50139933  0.35991518  1
  O  O33  1  0.13699344  0.50139933  0.85991518  1
  O  O34  1  0.36440488  0.86300656  0.85991518  1
  O  O35  1  0.49860067  0.63559512  0.85991518  1
  O  O36  1  0.00860570  0.82251804  0.41257681  1
  O  O37  1  0.81391234  0.99139430  0.41257681  1
  O  O38  1  0.17748196  0.18608766  0.41257681  1
  O  O39  1  0.00860570  0.18608766  0.91257681  1
  O  O40  1  0.17748196  0.99139430  0.91257681  1
  O  O41  1  0.81391234  0.82251804  0.91257681  1
  O  O42  1  0.96589518  0.15307940  0.58880983  1
  O  O43  1  0.18718422  0.03410482  0.58880983  1
  O  O44  1  0.84692060  0.81281578  0.58880983  1
  O  O45  1  0.96589518  0.81281578  0.08880983  1
  O  O46  1  0.84692060  0.03410482  0.08880983  1
  O  O47  1  0.18718422  0.15307940  0.08880983  1
  O  O48  1  0.67527270  0.15585104  0.74590981  1
  O  O49  1  0.48057934  0.32472730  0.74590981  1
  O  O50  1  0.84414896  0.51942066  0.74590981  1
  O  O51  1  0.67527270  0.51942066  0.24590981  1
  O  O52  1  0.84414896  0.32472730  0.24590981  1
  O  O53  1  0.48057934  0.15585104  0.24590981  1
  O  O54  1  0.63256218  0.48641240  0.92214283  1
  O  O55  1  0.85385122  0.36743782  0.92214283  1
  O  O56  1  0.51358760  0.14614878  0.92214283  1
  O  O57  1  0.63256218  0.14614878  0.42214283  1
  O  O58  1  0.51358760  0.36743782  0.42214283  1
  O  O59  1  0.85385122  0.48641240  0.42214283  1
  O  O60  1  0.34193870  0.48918504  0.07924381  1
  O  O61  1  0.14724534  0.65806130  0.07924381  1
  O  O62  1  0.51081496  0.85275466  0.07924381  1
  O  O63  1  0.34193870  0.85275466  0.57924381  1
  O  O64  1  0.51081496  0.65806130  0.57924381  1
  O  O65  1  0.14724534  0.48918504  0.57924381  1
  O  O66  1  0.29922818  0.81974640  0.25547683  1
  O  O67  1  0.52051722  0.70077182  0.25547683  1
  O  O68  1  0.18025360  0.47948278  0.25547683  1
  O  O69  1  0.29922818  0.47948278  0.75547683  1
  O  O70  1  0.18025360  0.70077182  0.75547683  1
  O  O71  1  0.52051722  0.81974640  0.75547683  1
loop_
_geom_bond_atom_site_label_1
_geom_bond_atom_site_label_2
_geom_bond_distance
_geom_bond_site_symmetry_2
Na0 O53 2.404398 1_555
Na0 O16 2.502960 1_555
Na0 O52 2.522925 1_555
Na0 O67 2.528028 1_545
Na0 O66 2.731340 1_545
Na0 O31 2.870322 1_545
Na0 O2 2.980610 1_555
Na0 O9 2.992314 1_545
Na1 O51 2.404406 1_555
Na1 O17 2.502964 1_555
Na1 O53 2.522932 1_555
Na1 O68 2.528036 1_555
Na1 O67 2.731340 1_555
Na1 O32 2.870325 1_555
Na1 O0 2.980610 1_555
Na1 O10 2.992315 1_555
Na2 O52 2.404406 1_555
Na2 O15 2.502962 1_555
Na2 O51 2.522923 1_555
Na2 O66 2.528029 1_655
Na2 O68 2.731332 1_655
Na2 O30 2.870321 1_655
Na2 O1 2.980610 1_555
Na2 O11 2.992314 1_655
Na3 O49 2.404406 1_555
Na3 O14 2.502964 1_555
Na3 O50 2.522932 1_555
Na3 O71 2.528036 1_555
Na3 O69 2.731340 1_555
Na3 O35 2.870325 1_555
Na3 O4 2.980610 1_555
Na3 O6 2.992314 1_555
Na4 O50 2.404398 1_555
Na4 O12 2.502960 1_555
Na4 O48 2.522925 1_555
Na4 O69 2.528028 1_655
Na4 O70 2.731340 1_655
Na4 O33 2.870322 1_655
Na4 O5 2.980610 1_555
Na4 O7 2.992314 1_655
Na5 O48 2.404406 1_555
Na5 O13 2.502962 1_555
Na5 O49 2.522923 1_555
Na5 O70 2.528029 1_545
Na5 O71 2.731332 1_545
Na5 O34 2.870321 1_545
Na5 O3 2.980610 1_555
Na5 O8 2.992315 1_545
Na6 O65 2.404414 1_555
Na6 O28 2.502945 1_555
Na6 O64 2.522930 1_555
Na6 O43 2.528028 1_555
Na6 O42 2.731340 1_455
Na6 O7 2.870322 1_555
Na6 O14 2.980610 1_555
Na6 O21 2.992314 1_555
Na7 O63 2.404398 1_555
Na7 O29 2.502938 1_555
Na7 O65 2.522916 1_555
Na7 O44 2.528036 1_455
Na7 O43 2.731340 1_565
Na7 O8 2.870325 1_555
Na7 O12 2.980610 1_455
Na7 O22 2.992315 1_455
Na8 O64 2.404397 1_555
Na8 O27 2.502941 1_555
Na8 O63 2.522933 1_555
Na8 O42 2.528029 1_565
Na8 O44 2.731332 1_555
Na8 O6 2.870321 1_555
Na8 O13 2.980610 1_565
Na8 O23 2.992314 1_565
Na9 O61 2.404398 1_555
Na9 O26 2.502938 1_554
Na9 O62 2.522916 1_555
Na9 O47 2.528036 1_565
Na9 O45 2.731340 1_455
Na9 O11 2.870325 1_555
Na9 O16 2.980610 1_565
Na9 O18 2.992314 1_565
Na10 O62 2.404414 1_555
Na10 O24 2.502945 1_554
Na10 O60 2.522930 1_555
Na10 O45 2.528028 1_555
Na10 O46 2.731340 1_565
Na10 O9 2.870322 1_555
Na10 O17 2.980610 1_555
Na10 O19 2.992314 1_555
Na11 O60 2.404397 1_555
Na11 O25 2.502941 1_554
Na11 O61 2.522933 1_555
Na11 O46 2.528029 1_455
Na11 O47 2.731332 1_555
Na11 O10 2.870321 1_555
Na11 O15 2.980610 1_455
Na11 O20 2.992315 1_455
Na12 O41 2.404398 1_555
Na12 O4 2.502960 1_555
Na12 O40 2.522925 1_655
Na12 O55 2.528036 1_555
Na12 O54 2.731331 1_555
Na12 O19 2.870303 1_556
Na12 O26 2.980610 1_655
Na12 O33 2.992314 1_655
Na13 O39 2.404406 1_655
Na13 O5 2.502964 1_555
Na13 O41 2.522932 1_545
Na13 O56 2.528019 1_555
Na13 O55 2.731330 1_555
Na13 O20 2.870298 1_556
Na13 O24 2.980610 1_545
Na13 O34 2.992315 1_545
Na14 O40 2.404406 1_545
Na14 O3 2.502962 1_555
Na14 O39 2.522923 1_555
Na14 O54 2.528033 1_555
Na14 O56 2.731346 1_555
Na14 O18 2.870307 1_556
Na14 O25 2.980610 1_555
Na14 O35 2.992314 1_555
Na15 O37 2.404406 1_545
Na15 O2 2.502964 1_555
Na15 O38 2.522932 1_655
Na15 O59 2.528019 1_555
Na15 O57 2.731330 1_555
Na15 O23 2.870298 1_555
Na15 O28 2.980610 1_655
Na15 O30 2.992314 1_655
Na16 O38 2.404398 1_555
Na16 O0 2.502960 1_555
Na16 O36 2.522925 1_545
Na16 O57 2.528036 1_555
Na16 O58 2.731331 1_555
Na16 O21 2.870303 1_555
Na16 O29 2.980610 1_545
Na16 O31 2.992314 1_545
Na17 O36 2.404406 1_655
Na17 O1 2.502962 1_555
Na17 O37 2.522923 1_555
Na17 O58 2.528033 1_555
Na17 O59 2.731346 1_555
Na17 O22 2.870307 1_555
Na17 O27 2.980610 1_555
Na17 O32 2.992315 1_555
Na18 O38 2.491345 1_555
Na18 O36 2.491345 1_545
Na18 O37 2.491345 1_445
Na18 O44 2.645168 1_445
Na18 O42 2.645168 1_455
Na18 O43 2.645168 1_555
Na19 O39 2.491345 1_555
Na19 O41 2.491345 1_445
Na19 O40 2.491345 1_545
Na19 O45 2.645168 1_446
Na19 O47 2.645168 1_556
Na19 O46 2.645168 1_456
Na20 O50 2.491345 1_555
Na20 O48 2.491345 1_555
Na20 O49 2.491345 1_555
Na20 O56 2.645168 1_555
Na20 O54 2.645168 1_555
Na20 O55 2.645168 1_555
Na21 O51 2.491345 1_555
Na21 O53 2.491345 1_555
Na21 O52 2.491345 1_555
Na21 O57 2.645168 1_555
Na21 O59 2.645168 1_555
Na21 O58 2.645168 1_555
Na22 O62 2.491345 1_555
Na22 O60 2.491345 1_555
Na22 O61 2.491345 1_555
Na22 O68 2.645168 1_555
Na22 O66 2.645168 1_555
Na22 O67 2.645168 1_555
Na23 O63 2.491345 1_555
Na23 O65 2.491345 1_555
Na23 O64 2.491345 1_555
Na23 O69 2.645168 1_555
Na23 O71 2.645168 1_555
Na23 O70 2.645168 1_555
In0 O1 2.081255 1_445
In0 O2 2.081255 1_455
In0 O0 2.081255 1_555
In0 O38 2.192245 1_555
In0 O36 2.192245 1_545
In0 O37 2.192245 1_445
In1 O4 2.081255 1_445
In1 O3 2.081255 1_555
In1 O5 2.081255 1_455
In1 O39 2.192245 1_555
In1 O41 2.192245 1_445
In1 O40 2.192245 1_545
In2 O13 2.081255 1_555
In2 O14 2.081255 1_555
In2 O12 2.081255 1_555
In2 O50 2.192245 1_555
In2 O48 2.192245 1_555
In2 O49 2.192245 1_555
In3 O16 2.081255 1_555
In3 O15 2.081255 1_555
In3 O17 2.081255 1_555
In3 O51 2.192245 1_555
In3 O53 2.192245 1_555
In3 O52 2.192245 1_555
In4 O25 2.081255 1_554
In4 O26 2.081255 1_554
In4 O24 2.081255 1_554
In4 O62 2.192245 1_555
In4 O60 2.192245 1_555
In4 O61 2.192245 1_555
In5 O28 2.081255 1_555
In5 O27 2.081255 1_555
In5 O29 2.081255 1_555
In5 O63 2.192245 1_555
In5 O65 2.192245 1_555
In5 O64 2.192245 1_555
O0 Si0 1.608584 1_545
O1 Si1 1.608584 1_555
O2 Si2 1.608584 1_655
O3 Si3 1.608584 1_555
O4 Si4 1.608584 1_655
O5 Si5 1.608584 1_545
O6 Si5 1.679543 1_555
O6 Ta0 1.983795 1_665
O7 Si3 1.679543 1_555
O7 Ta0 1.983795 1_555
O8 Si4 1.679543 1_555
O8 Ta0 1.983795 1_565
O9 Si1 1.679543 1_555
O9 Ta1 1.983795 1_665
O10 Si2 1.679543 1_555
O10 Ta1 1.983795 1_555
O11 Si0 1.679543 1_555
O11 Ta1 1.983795 1_565
O12 Si6 1.608584 1_555
O13 Si7 1.608584 1_555
O14 Si8 1.608584 1_555
O15 Si9 1.608584 1_555
O16 Si10 1.608584 1_555
O17 Si11 1.608584 1_555
O18 Si11 1.679543 1_555
O18 Ta2 1.983795 1_554
O19 Si9 1.679543 1_555
O19 Ta2 1.983795 1_554
O20 Si10 1.679543 1_555
O20 Ta2 1.983795 1_554
O21 Si7 1.679543 1_555
O21 Ta3 1.983795 1_555
O22 Si8 1.679543 1_555
O22 Ta3 1.983795 1_555
O23 Si6 1.679543 1_555
O23 Ta3 1.983795 1_555
O24 Si12 1.608584 1_555
O25 Si13 1.608584 1_555
O26 Si14 1.608584 1_555
O27 Si15 1.608584 1_555
O28 Si16 1.608584 1_555
O29 Si17 1.608584 1_555
O30 Si17 1.679543 1_555
O30 Ta4 1.983795 1_555
O31 Si15 1.679543 1_555
O31 Ta4 1.983795 1_555
O32 Si16 1.679543 1_555
O32 Ta4 1.983795 1_555
O33 Si13 1.679543 1_555
O33 Ta5 1.983795 1_555
O34 Si14 1.679543 1_555
O34 Ta5 1.983795 1_555
O35 Si12 1.679543 1_555
O35 Ta5 1.983795 1_555
O36 Si17 1.617947 1_555
O37 Si15 1.617956 1_555
O38 Si16 1.617953 1_555
O39 Si13 1.617956 1_555
O40 Si14 1.617947 1_555
O41 Si12 1.617953 1_555
O42 Si6 1.664400 1_555
O42 Ta0 2.052349 1_655
O43 Si7 1.664409 1_555
O43 Ta0 2.052349 1_555
O44 Si8 1.664405 1_555
O44 Ta0 2.052349 1_665
O45 Si9 1.664409 1_555
O45 Ta1 2.052349 1_665
O46 Si10 1.664400 1_555
O46 Ta1 2.052349 1_655
O47 Si11 1.664405 1_555
O47 Ta1 2.052349 1_555
O48 Si5 1.617947 1_545
O49 Si3 1.617956 1_555
O50 Si4 1.617953 1_655
O51 Si1 1.617956 1_555
O52 Si2 1.617947 1_655
O53 Si0 1.617953 1_545
O54 Si12 1.664412 1_555
O54 Ta2 2.052349 1_555
O55 Si13 1.664394 1_655
O55 Ta2 2.052349 1_555
O56 Si14 1.664403 1_545
O56 Ta2 2.052349 1_555
O57 Si15 1.664394 1_545
O57 Ta3 2.052349 1_555
O58 Si16 1.664413 1_555
O58 Ta3 2.052349 1_555
O59 Si17 1.664403 1_655
O59 Ta3 2.052349 1_555
O60 Si11 1.617960 1_555
O61 Si9 1.617942 1_455
O62 Si10 1.617949 1_565
O63 Si7 1.617942 1_565
O64 Si8 1.617960 1_555
O65 Si6 1.617949 1_455
O66 Si0 1.664400 1_555
O66 Ta4 2.052349 1_555
O67 Si1 1.664409 1_555
O67 Ta4 2.052349 1_555
O68 Si2 1.664405 1_555
O68 Ta4 2.052349 1_555
O69 Si3 1.664409 1_555
O69 Ta5 2.052349 1_555
O70 Si4 1.664400 1_555
O70 Ta5 2.052349 1_555
O71 Si5 1.664405 1_555
O71 Ta5 2.052349 1_555
