# generated using pymatgen
data_Na4HfInSi2PO12
_symmetry_space_group_name_H-M   'P 1'
_cell_length_a   9.21895415
_cell_length_b   9.21895381
_cell_length_c   22.58485468
_cell_angle_alpha   89.74703898
_cell_angle_beta   90.25296102
_cell_angle_gamma   119.76441955
_symmetry_Int_Tables_number   1
_chemical_formula_structural   Na4HfInSi2PO12
_chemical_formula_sum   'Na24 Hf6 In6 Si12 P6 O72'
_cell_volume   1666.21729726
_cell_formula_units_Z   6
loop_
 _symmetry_equiv_pos_site_id
 _symmetry_equiv_pos_as_xyz
  1  'x, y, z'
loop_
 _atom_site_type_symbol
 _atom_site_label
 _atom_site_symmetry_multiplicity
 _atom_site_fract_x
 _atom_site_fract_y
 _atom_site_fract_z
 _atom_site_occupancy
  Na  Na0  1  0.64329771  0.00698694  0.25077146  1
  Na  Na1  1  0.37131806  0.36772076  0.24428522  1
  Na  Na2  1  0.98642917  0.62374098  0.24892212  1
  Na  Na3  1  0.63227924  0.62868194  0.74428522  1
  Na  Na4  1  0.99301306  0.35670229  0.75077146  1
  Na  Na5  1  0.37625902  0.01357083  0.74892212  1
  Na  Na6  1  0.30996471  0.34031994  0.58410446  1
  Na  Na7  1  0.03798506  0.70105376  0.57761822  1
  Na  Na8  1  0.65309617  0.95707398  0.58225512  1
  Na  Na9  1  0.29894624  0.96201494  0.07761822  1
  Na  Na10  1  0.65968006  0.69003529  0.08410446  1
  Na  Na11  1  0.04292602  0.34690383  0.08225512  1
  Na  Na12  1  0.97663071  0.67365394  0.91743846  1
  Na  Na13  1  0.70465106  0.03438776  0.91095222  1
  Na  Na14  1  0.31976217  0.29040798  0.91558912  1
  Na  Na15  1  0.96561224  0.29534894  0.41095222  1
  Na  Na16  1  0.32634606  0.02336929  0.41743846  1
  Na  Na17  1  0.70959202  0.68023783  0.41558912  1
  Na  Na18  1  0.99463245  0.99053612  0.49680112  1
  Na  Na19  1  0.00946388  0.00536755  0.99680112  1
  Na  Na20  1  0.66129945  0.32386912  0.83013412  1
  Na  Na21  1  0.67613088  0.33870055  0.33013412  1
  Na  Na22  1  0.32796545  0.65720312  0.16346812  1
  Na  Na23  1  0.34279688  0.67203455  0.66346812  1
  Hf  Hf0  1  0.99885763  0.00069699  0.64810168  1
  Hf  Hf1  1  0.99930301  0.00114237  0.14810168  1
  Hf  Hf2  1  0.66552463  0.33402999  0.98143468  1
  Hf  Hf3  1  0.66597001  0.33447537  0.48143468  1
  Hf  Hf4  1  0.33219063  0.66736399  0.31476868  1
  Hf  Hf5  1  0.33263601  0.66780937  0.81476868  1
  In  In0  1  0.99362870  0.99534033  0.34894137  1
  In  In1  1  0.00465967  0.00637130  0.84894137  1
  In  In2  1  0.66029570  0.32867333  0.68227437  1
  In  In3  1  0.67132667  0.33970430  0.18227437  1
  In  In4  1  0.32696170  0.66200733  0.01560837  1
  In  In5  1  0.33799267  0.67303830  0.51560837  1
  Si  Si0  1  0.70109259  0.70190795  0.25039208  1
  Si  Si1  1  0.00062354  0.29700462  0.25044572  1
  Si  Si2  1  0.29809205  0.29890741  0.75039208  1
  Si  Si3  1  0.70299538  0.99937646  0.75044572  1
  Si  Si4  1  0.36775959  0.03524095  0.58372508  1
  Si  Si5  1  0.66729054  0.63033762  0.58377872  1
  Si  Si6  1  0.96475905  0.63224041  0.08372508  1
  Si  Si7  1  0.36966238  0.33270946  0.08377872  1
  Si  Si8  1  0.03442559  0.36857495  0.91705908  1
  Si  Si9  1  0.33395654  0.96367162  0.91711272  1
  Si  Si10  1  0.63142505  0.96557441  0.41705908  1
  Si  Si11  1  0.03632838  0.66604346  0.41711272  1
  P  P0  1  0.29363576  0.99886387  0.25078714  1
  P  P1  1  0.00113613  0.70636424  0.75078714  1
  P  P2  1  0.96030276  0.33219687  0.58412014  1
  P  P3  1  0.66780313  0.03969724  0.08412014  1
  P  P4  1  0.62696876  0.66553087  0.91745414  1
  P  P5  1  0.33446913  0.37303124  0.41745414  1
  O  O0  1  0.22102253  0.03164848  0.30672360  1
  O  O1  1  0.81531972  0.77615793  0.30948670  1
  O  O2  1  0.97257815  0.18863545  0.31046189  1
  O  O3  1  0.22384207  0.18468028  0.80948670  1
  O  O4  1  0.96835152  0.77897747  0.80672360  1
  O  O5  1  0.81136455  0.02742185  0.81046189  1
  O  O6  1  0.79595857  0.96928450  0.69318533  1
  O  O7  1  0.17453890  0.20384599  0.69299884  1
  O  O8  1  0.02743684  0.82166224  0.69605758  1
  O  O9  1  0.79615401  0.82546110  0.19299884  1
  O  O10  1  0.03071550  0.20404143  0.19318533  1
  O  O11  1  0.17833776  0.97256316  0.19605758  1
  O  O12  1  0.88768953  0.36498148  0.64005660  1
  O  O13  1  0.48198672  0.10949093  0.64281970  1
  O  O14  1  0.63924515  0.52196845  0.64379489  1
  O  O15  1  0.89050907  0.51801328  0.14281970  1
  O  O16  1  0.63501852  0.11231047  0.14005660  1
  O  O17  1  0.47803155  0.36075485  0.14379489  1
  O  O18  1  0.46262557  0.30261750  0.02651833  1
  O  O19  1  0.84120590  0.53717899  0.02633184  1
  O  O20  1  0.69410384  0.15499524  0.02939058  1
  O  O21  1  0.46282101  0.15879410  0.52633184  1
  O  O22  1  0.69738250  0.53737443  0.52651833  1
  O  O23  1  0.84500476  0.30589616  0.52939058  1
  O  O24  1  0.55435553  0.69831548  0.97339060  1
  O  O25  1  0.14865272  0.44282493  0.97615370  1
  O  O26  1  0.30591115  0.85530245  0.97712889  1
  O  O27  1  0.55717507  0.85134728  0.47615370  1
  O  O28  1  0.30168452  0.44564447  0.47339060  1
  O  O29  1  0.14469755  0.69408885  0.47712889  1
  O  O30  1  0.12929157  0.63595150  0.35985233  1
  O  O31  1  0.50787190  0.87051299  0.35966584  1
  O  O32  1  0.36076984  0.48832924  0.36272458  1
  O  O33  1  0.12948701  0.49212810  0.85966584  1
  O  O34  1  0.36404850  0.87070843  0.85985233  1
  O  O35  1  0.51167076  0.63923016  0.86272458  1
  O  O36  1  0.02193042  0.83557491  0.41291166  1
  O  O37  1  0.82034262  0.99317161  0.41368776  1
  O  O38  1  0.18533032  0.19595223  0.41067342  1
  O  O39  1  0.00682839  0.17965738  0.91368776  1
  O  O40  1  0.16442509  0.97806958  0.91291166  1
  O  O41  1  0.80404777  0.81466968  0.91067342  1
  O  O42  1  0.96900757  0.16736892  0.58837752  1
  O  O43  1  0.18432805  0.02654131  0.58822900  1
  O  O44  1  0.83781203  0.81647918  0.58775878  1
  O  O45  1  0.97345869  0.81567195  0.08822900  1
  O  O46  1  0.83263108  0.03099243  0.08837752  1
  O  O47  1  0.18352082  0.16218797  0.08775878  1
  O  O48  1  0.68859742  0.16890791  0.74624466  1
  O  O49  1  0.48700962  0.32650461  0.74702076  1
  O  O50  1  0.85199732  0.52928523  0.74400642  1
  O  O51  1  0.67349539  0.51299038  0.24702076  1
  O  O52  1  0.83109209  0.31140258  0.24624466  1
  O  O53  1  0.47071477  0.14800268  0.24400642  1
  O  O54  1  0.63567457  0.50070192  0.92171052  1
  O  O55  1  0.85099505  0.35987431  0.92156200  1
  O  O56  1  0.50447903  0.14981218  0.92109178  1
  O  O57  1  0.64012569  0.14900495  0.42156200  1
  O  O58  1  0.49929808  0.36432543  0.42171052  1
  O  O59  1  0.85018782  0.49552097  0.42109178  1
  O  O60  1  0.35526342  0.50224191  0.07957866  1
  O  O61  1  0.15367562  0.65983861  0.08035476  1
  O  O62  1  0.51866332  0.86261923  0.07734042  1
  O  O63  1  0.34016139  0.84632438  0.58035476  1
  O  O64  1  0.49775809  0.64473658  0.57957866  1
  O  O65  1  0.13738077  0.48133668  0.57734042  1
  O  O66  1  0.30234057  0.83403592  0.25504452  1
  O  O67  1  0.51766105  0.69320831  0.25489600  1
  O  O68  1  0.17114503  0.48314618  0.25442578  1
  O  O69  1  0.30679169  0.48233895  0.75489600  1
  O  O70  1  0.16596408  0.69765943  0.75504452  1
  O  O71  1  0.51685382  0.82885497  0.75442578  1
loop_
_geom_bond_atom_site_label_1
_geom_bond_atom_site_label_2
_geom_bond_distance
_geom_bond_site_symmetry_2
Na0 O52 2.461430 1_555
Na0 O53 2.508885 1_555
Na0 O67 2.527841 1_545
Na0 O16 2.692855 1_555
Na0 O66 2.730749 1_545
Na0 O31 2.762305 1_545
Na0 O2 2.961967 1_555
Na0 O9 2.977532 1_545
Na1 O51 2.419266 1_555
Na1 O17 2.491303 1_555
Na1 O68 2.558471 1_555
Na1 O53 2.604932 1_555
Na1 O67 2.620228 1_555
Na1 O32 2.921803 1_555
Na1 O10 2.957616 1_555
Na1 O0 3.037084 1_555
Na2 O52 2.500448 1_555
Na2 O51 2.538079 1_555
Na2 O15 2.573020 1_555
Na2 O66 2.579233 1_655
Na2 O68 2.604495 1_655
Na2 O30 2.801815 1_655
Na2 O1 2.927533 1_555
Na2 O11 3.038541 1_655
Na3 O49 2.419265 1_555
Na3 O14 2.491303 1_555
Na3 O71 2.558471 1_555
Na3 O50 2.604932 1_555
Na3 O69 2.620228 1_555
Na3 O35 2.921803 1_555
Na3 O6 2.957616 1_555
Na3 O4 3.037084 1_555
Na4 O48 2.461430 1_555
Na4 O50 2.508885 1_555
Na4 O69 2.527841 1_655
Na4 O12 2.692855 1_555
Na4 O70 2.730749 1_655
Na4 O33 2.762305 1_655
Na4 O5 2.961967 1_555
Na4 O7 2.977532 1_655
Na5 O48 2.500448 1_555
Na5 O49 2.538079 1_555
Na5 O13 2.573020 1_555
Na5 O70 2.579233 1_545
Na5 O71 2.604494 1_545
Na5 O34 2.801815 1_545
Na5 O3 2.927533 1_555
Na5 O8 3.038541 1_545
Na6 O64 2.461435 1_555
Na6 O65 2.508900 1_555
Na6 O43 2.527841 1_555
Na6 O28 2.692839 1_555
Na6 O42 2.730749 1_455
Na6 O7 2.762305 1_555
Na6 O14 2.961967 1_555
Na6 O21 2.977532 1_555
Na7 O63 2.419258 1_555
Na7 O29 2.491276 1_555
Na7 O44 2.558471 1_455
Na7 O65 2.604917 1_555
Na7 O43 2.620228 1_565
Na7 O8 2.921803 1_555
Na7 O22 2.957616 1_455
Na7 O12 3.037084 1_455
Na8 O64 2.500440 1_555
Na8 O63 2.538089 1_555
Na8 O27 2.572999 1_555
Na8 O42 2.579233 1_565
Na8 O44 2.604495 1_555
Na8 O6 2.801815 1_555
Na8 O13 2.927533 1_565
Na8 O23 3.038541 1_565
Na9 O61 2.419258 1_555
Na9 O26 2.491276 1_554
Na9 O47 2.558471 1_565
Na9 O62 2.604917 1_555
Na9 O45 2.620228 1_455
Na9 O11 2.921803 1_555
Na9 O18 2.957616 1_565
Na9 O16 3.037084 1_565
Na10 O60 2.461435 1_555
Na10 O62 2.508900 1_555
Na10 O45 2.527841 1_555
Na10 O24 2.692839 1_554
Na10 O46 2.730749 1_565
Na10 O9 2.762305 1_555
Na10 O17 2.961967 1_555
Na10 O19 2.977532 1_555
Na11 O60 2.500440 1_555
Na11 O61 2.538089 1_555
Na11 O25 2.572999 1_554
Na11 O46 2.579233 1_455
Na11 O47 2.604494 1_555
Na11 O10 2.801815 1_555
Na11 O15 2.927533 1_455
Na11 O20 3.038541 1_455
Na12 O40 2.461430 1_655
Na12 O41 2.508885 1_555
Na12 O55 2.527850 1_555
Na12 O4 2.692855 1_555
Na12 O54 2.730740 1_555
Na12 O19 2.762285 1_556
Na12 O26 2.961967 1_655
Na12 O33 2.977532 1_655
Na13 O39 2.419266 1_655
Na13 O5 2.491303 1_555
Na13 O56 2.558453 1_555
Na13 O41 2.604932 1_545
Na13 O55 2.620217 1_555
Na13 O20 2.921777 1_556
Na13 O34 2.957616 1_545
Na13 O24 3.037084 1_545
Na14 O40 2.500448 1_545
Na14 O39 2.538079 1_555
Na14 O3 2.573020 1_555
Na14 O54 2.579237 1_555
Na14 O56 2.604509 1_555
Na14 O18 2.801801 1_556
Na14 O25 2.927533 1_555
Na14 O35 3.038541 1_555
Na15 O37 2.419265 1_545
Na15 O2 2.491303 1_555
Na15 O59 2.558453 1_555
Na15 O38 2.604932 1_655
Na15 O57 2.620217 1_555
Na15 O23 2.921777 1_555
Na15 O30 2.957616 1_655
Na15 O28 3.037084 1_655
Na16 O36 2.461430 1_545
Na16 O38 2.508885 1_555
Na16 O57 2.527850 1_555
Na16 O0 2.692855 1_555
Na16 O58 2.730740 1_555
Na16 O21 2.762285 1_555
Na16 O29 2.961967 1_545
Na16 O31 2.977532 1_545
Na17 O36 2.500448 1_655
Na17 O37 2.538079 1_555
Na17 O1 2.573020 1_555
Na17 O58 2.579237 1_555
Na17 O59 2.604509 1_555
Na17 O22 2.801801 1_555
Na17 O27 2.927533 1_555
Na17 O32 3.038541 1_555
Na18 O36 2.465535 1_655
Na18 O37 2.473367 1_555
Na18 O44 2.564908 1_555
Na18 O43 2.613435 1_665
Na18 O38 2.674468 1_665
Na18 O42 2.721667 1_565
Na19 O40 2.465535 1_545
Na19 O39 2.473367 1_555
Na19 O47 2.564908 1_556
Na19 O45 2.613435 1_446
Na19 O41 2.674468 1_445
Na19 O46 2.721667 1_456
Na20 O48 2.465535 1_555
Na20 O49 2.473367 1_555
Na20 O56 2.564908 1_555
Na20 O55 2.613435 1_555
Na20 O50 2.674468 1_555
Na20 O54 2.721667 1_555
Na21 O52 2.465535 1_555
Na21 O51 2.473367 1_555
Na21 O59 2.564908 1_555
Na21 O57 2.613435 1_555
Na21 O53 2.674468 1_555
Na21 O58 2.721667 1_555
Na22 O60 2.465535 1_555
Na22 O61 2.473367 1_555
Na22 O68 2.564908 1_555
Na22 O67 2.613435 1_555
Na22 O62 2.674468 1_555
Na22 O66 2.721667 1_555
Na23 O64 2.465535 1_555
Na23 O63 2.473367 1_555
Na23 O71 2.564908 1_555
Na23 O69 2.613435 1_555
Na23 O65 2.674468 1_555
Na23 O70 2.721667 1_555
Hf0 O6 2.023817 1_545
Hf0 O7 2.037013 1_655
Hf0 O8 2.092874 1_645
Hf0 O43 2.102834 1_655
Hf0 O44 2.108297 1_545
Hf0 O42 2.157395 1_555
Hf1 O10 2.023817 1_655
Hf1 O9 2.037013 1_545
Hf1 O11 2.092874 1_645
Hf1 O45 2.102834 1_545
Hf1 O47 2.108297 1_655
Hf1 O46 2.157395 1_555
Hf2 O18 2.023817 1_556
Hf2 O19 2.037013 1_556
Hf2 O20 2.092874 1_556
Hf2 O55 2.102834 1_555
Hf2 O56 2.108297 1_555
Hf2 O54 2.157395 1_555
Hf3 O22 2.023817 1_555
Hf3 O21 2.037013 1_555
Hf3 O23 2.092874 1_555
Hf3 O57 2.102834 1_555
Hf3 O59 2.108297 1_555
Hf3 O58 2.157395 1_555
Hf4 O30 2.023817 1_555
Hf4 O31 2.037013 1_555
Hf4 O32 2.092874 1_555
Hf4 O67 2.102834 1_555
Hf4 O68 2.108297 1_555
Hf4 O66 2.157395 1_555
Hf5 O34 2.023817 1_555
Hf5 O33 2.037013 1_555
Hf5 O35 2.092874 1_555
Hf5 O69 2.102834 1_555
Hf5 O71 2.108297 1_555
Hf5 O70 2.157395 1_555
In0 O1 2.069834 1_555
In0 O2 2.072813 1_565
In0 O37 2.163192 1_555
In0 O36 2.164297 1_655
In0 O0 2.175758 1_665
In0 O38 2.289839 1_665
In1 O3 2.069834 1_555
In1 O5 2.072813 1_455
In1 O39 2.163192 1_555
In1 O40 2.164298 1_545
In1 O4 2.175758 1_445
In1 O41 2.289839 1_445
In2 O13 2.069834 1_555
In2 O14 2.072813 1_555
In2 O49 2.163192 1_555
In2 O48 2.164297 1_555
In2 O12 2.175758 1_555
In2 O50 2.289839 1_555
In3 O15 2.069834 1_555
In3 O17 2.072813 1_555
In3 O51 2.163192 1_555
In3 O52 2.164298 1_555
In3 O16 2.175758 1_555
In3 O53 2.289839 1_555
In4 O25 2.069834 1_554
In4 O26 2.072813 1_554
In4 O61 2.163192 1_555
In4 O60 2.164297 1_555
In4 O24 2.175758 1_554
In4 O62 2.289839 1_555
In5 O27 2.069834 1_555
In5 O29 2.072813 1_555
In5 O63 2.163192 1_555
In5 O64 2.164298 1_555
In5 O28 2.175758 1_555
In5 O65 2.289839 1_555
O0 P0 1.532044 1_545
O1 Si0 1.624414 1_555
O2 Si1 1.623849 1_655
O3 Si2 1.624414 1_555
O4 P1 1.532044 1_655
O5 Si3 1.623849 1_545
O6 Si3 1.653140 1_555
O7 Si2 1.658763 1_555
O8 P1 1.565760 1_555
O9 Si0 1.658763 1_555
O10 Si1 1.653140 1_555
O11 P0 1.565760 1_555
O12 P2 1.532044 1_555
O13 Si4 1.624414 1_555
O14 Si5 1.623849 1_555
O15 Si6 1.624414 1_555
O16 P3 1.532044 1_555
O17 Si7 1.623849 1_555
O18 Si7 1.653140 1_555
O19 Si6 1.658763 1_555
O20 P3 1.565760 1_555
O21 Si4 1.658763 1_555
O22 Si5 1.653140 1_555
O23 P2 1.565760 1_555
O24 P4 1.532044 1_555
O25 Si8 1.624414 1_555
O26 Si9 1.623849 1_555
O27 Si10 1.624414 1_555
O28 P5 1.532044 1_555
O29 Si11 1.623849 1_555
O30 Si11 1.653140 1_555
O31 Si10 1.658763 1_555
O32 P5 1.565760 1_555
O33 Si8 1.658763 1_555
O34 Si9 1.653140 1_555
O35 P4 1.565760 1_555
O36 Si11 1.635187 1_555
O37 Si10 1.632432 1_555
O38 P5 1.533186 1_555
O39 Si8 1.632432 1_555
O40 Si9 1.635187 1_555
O41 P4 1.533186 1_555
O42 P2 1.563459 1_555
O43 Si4 1.656263 1_555
O44 Si5 1.657050 1_555
O45 Si6 1.656263 1_555
O46 P3 1.563459 1_555
O47 Si7 1.657050 1_555
O48 Si3 1.635187 1_545
O49 Si2 1.632432 1_555
O50 P1 1.533186 1_655
O51 Si0 1.632432 1_555
O52 Si1 1.635187 1_655
O53 P0 1.533186 1_545
O54 P4 1.563472 1_555
O55 Si8 1.656248 1_655
O56 Si9 1.657048 1_545
O57 Si10 1.656248 1_545
O58 P5 1.563472 1_555
O59 Si11 1.657048 1_655
O60 Si7 1.635200 1_555
O61 Si6 1.632418 1_455
O62 P3 1.533181 1_565
O63 Si4 1.632418 1_565
O64 Si5 1.635200 1_555
O65 P2 1.533181 1_455
O66 P0 1.563459 1_555
O67 Si0 1.656263 1_555
O68 Si1 1.657050 1_555
O69 Si2 1.656263 1_555
O70 P1 1.563459 1_555
O71 Si3 1.657050 1_555
