# generated using pymatgen
data_MgMn(CoO2)4
_symmetry_space_group_name_H-M   'P 1'
_cell_length_a   5.94812344
_cell_length_b   5.88215239
_cell_length_c   6.09554367
_cell_angle_alpha   90.14280886
_cell_angle_beta   59.43129798
_cell_angle_gamma   60.70619128
_symmetry_Int_Tables_number   1
_chemical_formula_structural   MgMn(CoO2)4
_chemical_formula_sum   'Mg1 Mn1 Co4 O8'
_cell_volume   150.91068336
_cell_formula_units_Z   1
loop_
 _symmetry_equiv_pos_site_id
 _symmetry_equiv_pos_as_xyz
  1  'x, y, z'
loop_
 _atom_site_type_symbol
 _atom_site_label
 _atom_site_symmetry_multiplicity
 _atom_site_fract_x
 _atom_site_fract_y
 _atom_site_fract_z
 _atom_site_occupancy
  Mg  Mg0  1  0.00001200  0.00000200  0.50000000  1
  Mn  Mn0  1  0.49991400  0.50001400  0.00003900  1
  Co  Co0  1  0.00001100  0.49998300  0.50001500  1
  Co  Co1  1  0.00002400  0.00000400  0.99997500  1
  Co  Co2  1  0.50002000  0.99998200  0.99998900  1
  Co  Co3  1  0.00000900  0.49998300  0.99998100  1
  O  O0  1  0.49795000  0.24739100  0.79492000  1
  O  O1  1  0.95770300  0.27051700  0.76729100  1
  O  O2  1  0.49792000  0.75239900  0.79448500  1
  O  O3  1  0.95036100  0.77733600  0.77300800  1
  O  O4  1  0.04968300  0.22265500  0.22697300  1
  O  O5  1  0.50209900  0.24760100  0.20552600  1
  O  O6  1  0.04221900  0.72953200  0.23275500  1
  O  O7  1  0.50207400  0.75260000  0.20504100  1
loop_
_geom_bond_atom_site_label_1
_geom_bond_atom_site_label_2
_geom_bond_distance
_geom_bond_site_symmetry_2
Mg0 O1 2.104283 1_455
Mg0 O6 2.104291 1_545
Mg0 O3 2.112229 1_445
Mg0 O4 2.112264 1_555
Mg0 O0 2.131030 1_455
Mg0 O7 2.131060 1_545
Mn0 O6 1.926709 1_555
Mn0 O1 1.927100 1_554
Mn0 O5 1.944335 1_555
Mn0 O2 1.944519 1_554
Mn0 O0 1.947844 1_554
Mn0 O7 1.948042 1_555
Co0 O1 2.113237 1_455
Co0 O6 2.113485 1_555
Co0 O3 2.129073 1_455
Co0 O4 2.129099 1_555
Co0 O2 2.130846 1_455
Co0 O5 2.130848 1_555
Co1 O2 2.111343 1_545
Co1 O5 2.111429 1_456
Co1 O3 2.121807 1_445
Co1 O4 2.121856 1_556
Co1 O1 2.142287 1_455
Co1 O6 2.142477 1_546
Co2 O4 1.895531 1_566
Co2 O3 1.895548 1_555
Co2 O7 1.920166 1_556
Co2 O0 1.920351 1_565
Co2 O2 1.927382 1_555
Co2 O5 1.927585 1_566
Co3 O7 2.112105 1_456
Co3 O0 2.112129 1_555
Co3 O1 2.140750 1_455
Co3 O6 2.141019 1_556
Co3 O4 2.149015 1_556
Co3 O3 2.149020 1_455
