# generated using pymatgen
data_Ni5(PO4)4
_symmetry_space_group_name_H-M   'P 1'
_cell_length_a   7.93195203
_cell_length_b   9.65367982
_cell_length_c   9.70023928
_cell_angle_alpha   116.90470603
_cell_angle_beta   77.16167472
_cell_angle_gamma   114.75757941
_symmetry_Int_Tables_number   1
_chemical_formula_structural   Ni5(PO4)4
_chemical_formula_sum   'Ni10 P8 O32'
_cell_volume   601.00358232
_cell_formula_units_Z   2
loop_
 _symmetry_equiv_pos_site_id
 _symmetry_equiv_pos_as_xyz
  1  'x, y, z'
loop_
 _atom_site_type_symbol
 _atom_site_label
 _atom_site_symmetry_multiplicity
 _atom_site_fract_x
 _atom_site_fract_y
 _atom_site_fract_z
 _atom_site_occupancy
  Ni  Ni0  1  0.40631300  0.66431200  0.98585600  1
  Ni  Ni1  1  0.40661100  0.16421300  0.48574700  1
  Ni  Ni2  1  0.59377700  0.33568300  0.01415900  1
  Ni  Ni3  1  0.59346500  0.83572200  0.51417900  1
  Ni  Ni4  1  0.23675800  0.43357400  0.66818300  1
  Ni  Ni5  1  0.23698500  0.93358600  0.16851300  1
  Ni  Ni6  1  0.76308600  0.56643700  0.33188000  1
  Ni  Ni7  1  0.76294400  0.06629200  0.83152700  1
  Ni  Ni8  1  0.99996600  0.50001800  0.49979700  1
  Ni  Ni9  1  0.99979100  0.99999800  0.00005400  1
  P  P0  1  0.70078600  0.67820000  0.70385200  1
  P  P1  1  0.70124400  0.17863900  0.20348400  1
  P  P2  1  0.29920700  0.32178900  0.29615500  1
  P  P3  1  0.29868500  0.82137200  0.79656000  1
  P  P4  1  0.21172900  0.28674200  0.86126200  1
  P  P5  1  0.21154700  0.78700100  0.36111200  1
  P  P6  1  0.78835700  0.71318600  0.13873100  1
  P  P7  1  0.78845400  0.21300500  0.63883500  1
  O  O0  1  0.97015600  0.83293500  0.09493100  1
  O  O1  1  0.97012900  0.33262000  0.59512100  1
  O  O2  1  0.02985900  0.16703700  0.90506900  1
  O  O3  1  0.02987100  0.66742000  0.40487800  1
  O  O4  1  0.67304600  0.17959100  0.04924200  1
  O  O5  1  0.67229600  0.67957000  0.54963200  1
  O  O6  1  0.32692800  0.82037300  0.95077300  1
  O  O7  1  0.32770700  0.32042300  0.45038300  1
  O  O8  1  0.75333200  0.26779400  0.81871300  1
  O  O9  1  0.75311100  0.76747400  0.31861400  1
  O  O10  1  0.24665800  0.73217400  0.18122900  1
  O  O11  1  0.24692500  0.23252900  0.68140600  1
  O  O12  1  0.81566100  0.54609900  0.10258200  1
  O  O13  1  0.81502800  0.04550100  0.60296400  1
  O  O14  1  0.18454500  0.45384400  0.89744700  1
  O  O15  1  0.18482900  0.95443100  0.39693700  1
  O  O16  1  0.37429400  0.31662100  0.94019500  1
  O  O17  1  0.37482400  0.81791100  0.44005400  1
  O  O18  1  0.62578400  0.68335400  0.05983100  1
  O  O19  1  0.62542400  0.18236800  0.55980300  1
  O  O20  1  0.21955400  0.63941700  0.67223100  1
  O  O21  1  0.21935500  0.13921400  0.17212400  1
  O  O22  1  0.78035400  0.36064200  0.32782200  1
  O  O23  1  0.78062900  0.86075900  0.82788800  1
  O  O24  1  0.50424800  0.58778100  0.76303100  1
  O  O25  1  0.50469200  0.08782900  0.26307300  1
  O  O26  1  0.49575300  0.41220500  0.23695200  1
  O  O27  1  0.49523500  0.91213000  0.73695600  1
  O  O28  1  0.82716600  0.58365400  0.67141100  1
  O  O29  1  0.82604300  0.08221900  0.17068900  1
  O  O30  1  0.17284600  0.41636200  0.32857400  1
  O  O31  1  0.17401300  0.91795000  0.82955800  1
loop_
_geom_bond_atom_site_label_1
_geom_bond_atom_site_label_2
_geom_bond_distance
_geom_bond_site_symmetry_2
Ni0 O18 1.935701 1_556
Ni0 O14 2.014423 1_555
Ni0 O24 2.027429 1_555
Ni0 O10 2.032046 1_556
Ni0 O6 2.033673 1_555
Ni1 O19 1.935065 1_555
Ni1 O15 2.012156 1_545
Ni1 O25 2.026520 1_555
Ni1 O7 2.034089 1_555
Ni1 O11 2.034689 1_555
Ni2 O16 1.935647 1_554
Ni2 O12 2.014721 1_555
Ni2 O26 2.027383 1_555
Ni2 O8 2.032110 1_554
Ni2 O4 2.033352 1_555
Ni3 O17 1.935642 1_555
Ni3 O13 2.011152 1_565
Ni3 O27 2.027699 1_555
Ni3 O5 2.033674 1_555
Ni3 O9 2.033817 1_555
Ni4 O7 2.017737 1_555
Ni4 O20 2.030522 1_555
Ni4 O11 2.037336 1_555
Ni4 O1 2.059010 1_455
Ni4 O14 2.102460 1_555
Ni4 O24 2.132323 1_555
Ni5 O6 2.014653 1_554
Ni5 O21 2.031913 1_565
Ni5 O10 2.036633 1_555
Ni5 O0 2.062594 1_455
Ni5 O15 2.092868 1_555
Ni5 O25 2.132789 1_565
Ni6 O5 2.016920 1_555
Ni6 O22 2.030257 1_555
Ni6 O9 2.036780 1_555
Ni6 O3 2.059877 1_655
Ni6 O12 2.102587 1_555
Ni6 O26 2.131611 1_555
Ni7 O4 2.014533 1_556
Ni7 O23 2.031085 1_545
Ni7 O8 2.037758 1_555
Ni7 O2 2.062967 1_655
Ni7 O13 2.094333 1_555
Ni7 O27 2.132770 1_545
Ni8 O30 1.998165 1_655
Ni8 O28 1.999562 1_555
Ni8 O3 2.108109 1_655
Ni8 O1 2.111220 1_555
Ni8 O22 2.219148 1_555
Ni8 O20 2.221906 1_655
Ni9 O29 1.995618 1_565
Ni9 O31 1.996962 1_654
Ni9 O2 2.104987 1_664
Ni9 O0 2.105453 1_555
Ni9 O23 2.217949 1_554
Ni9 O21 2.219581 1_665
O0 P6 1.540239 1_555
O1 P7 1.538723 1_555
O2 P4 1.540378 1_555
O3 P5 1.538774 1_555
O4 P1 1.565746 1_555
O5 P0 1.568380 1_555
O6 P3 1.565821 1_555
O7 P2 1.568466 1_555
O8 P7 1.572916 1_555
O9 P6 1.573480 1_555
O10 P5 1.572921 1_555
O11 P4 1.573280 1_555
O12 P6 1.587011 1_555
O13 P7 1.588697 1_555
O14 P4 1.586570 1_555
O15 P5 1.588705 1_555
O16 P4 1.503168 1_555
O17 P5 1.504319 1_555
O18 P6 1.503209 1_555
O19 P7 1.504144 1_555
O20 P3 1.558731 1_555
O21 P2 1.561952 1_555
O22 P1 1.559027 1_555
O23 P0 1.561867 1_555
O24 P0 1.561340 1_555
O25 P1 1.564173 1_555
O26 P2 1.561467 1_555
O27 P3 1.564065 1_555
O28 P0 1.517617 1_555
O29 P1 1.520299 1_555
O30 P2 1.517736 1_555
O31 P3 1.520220 1_555
