# generated using pymatgen
data_La4Bi3
_symmetry_space_group_name_H-M   'P 1'
_cell_length_a   8.59285020
_cell_length_b   8.59284959
_cell_length_c   8.59285020
_cell_angle_alpha   109.47120332
_cell_angle_beta   109.47123218
_cell_angle_gamma   109.47122063
_symmetry_Int_Tables_number   1
_chemical_formula_structural   La4Bi3
_chemical_formula_sum   'La8 Bi6'
_cell_volume   488.41594281
_cell_formula_units_Z   2
loop_
 _symmetry_equiv_pos_site_id
 _symmetry_equiv_pos_as_xyz
  1  'x, y, z'
loop_
 _atom_site_type_symbol
 _atom_site_label
 _atom_site_symmetry_multiplicity
 _atom_site_fract_x
 _atom_site_fract_y
 _atom_site_fract_z
 _atom_site_occupancy
  La  La0  1  0.14074190  0.50000000  0.00000000  1
  La  La1  1  0.35925810  0.35925810  0.35925810  1
  La  La2  1  0.64083744  0.50000000  0.00000000  1
  La  La3  1  0.50000000  -0.00000000  0.64083744  1
  La  La4  1  0.50000000  -0.00000000  0.14074190  1
  La  La5  1  -0.00000000  0.64083744  0.50000000  1
  La  La6  1  0.85916256  0.85916256  0.85916256  1
  La  La7  1  -0.00000000  0.14074190  0.50000000  1
  Bi  Bi0  1  0.25000000  0.12498708  0.87498708  1
  Bi  Bi1  1  0.12498708  0.87498708  0.25000000  1
  Bi  Bi2  1  0.75000000  0.37501292  0.62501292  1
  Bi  Bi3  1  0.87498708  0.25000000  0.12498708  1
  Bi  Bi4  1  0.62501292  0.75000000  0.37501292  1
  Bi  Bi5  1  0.37501292  0.62501292  0.75000000  1
loop_
_geom_bond_atom_site_label_1
_geom_bond_atom_site_label_2
_geom_bond_distance
_geom_bond_site_symmetry_2
Bi0 La4 3.299364 1_556
Bi0 La7 3.299364 1_555
Bi0 La6 3.299885 1_445
Bi0 La2 3.299885 1_556
Bi0 La3 3.577078 1_555
Bi0 La5 3.577078 1_545
Bi0 La0 3.577838 1_556
Bi0 La1 3.577839 1_556
Bi1 La0 3.299365 1_555
Bi1 La7 3.299365 1_565
Bi1 La6 3.299885 1_454
Bi1 La3 3.299885 1_565
Bi1 La5 3.577077 1_555
Bi1 La2 3.577078 1_455
Bi1 La1 3.577838 1_565
Bi1 La4 3.577838 1_565
Bi2 La1 3.299364 1_555
Bi2 La0 3.299364 1_656
Bi2 La3 3.299885 1_555
Bi2 La5 3.299885 1_655
Bi2 La6 3.577078 1_555
Bi2 La2 3.577078 1_556
Bi2 La7 3.577838 1_655
Bi2 La4 3.577839 1_555
Bi3 La0 3.299364 1_655
Bi3 La4 3.299364 1_555
Bi3 La6 3.299886 1_544
Bi3 La5 3.299886 1_655
Bi3 La2 3.577077 1_555
Bi3 La3 3.577078 1_554
Bi3 La7 3.577838 1_655
Bi3 La1 3.577838 1_655
Bi4 La1 3.299364 1_555
Bi4 La7 3.299364 1_665
Bi4 La3 3.299886 1_565
Bi4 La2 3.299886 1_555
Bi4 La5 3.577077 1_655
Bi4 La6 3.577078 1_555
Bi4 La4 3.577838 1_565
Bi4 La0 3.577838 1_555
Bi5 La1 3.299365 1_555
Bi5 La4 3.299365 1_566
Bi5 La2 3.299885 1_556
Bi5 La5 3.299885 1_555
Bi5 La3 3.577077 1_565
Bi5 La6 3.577078 1_555
Bi5 La0 3.577838 1_556
Bi5 La7 3.577838 1_555
