# generated using pymatgen
data_Na4YTiSi2PO12
_symmetry_space_group_name_H-M   'P 1'
_cell_length_a   9.28483650
_cell_length_b   9.28483616
_cell_length_c   22.49333425
_cell_angle_alpha   90.66895265
_cell_angle_beta   89.33104735
_cell_angle_gamma   120.03264776
_symmetry_Int_Tables_number   1
_chemical_formula_structural   Na4YTiSi2PO12
_chemical_formula_sum   'Na24 Y6 Ti6 Si12 P6 O72'
_cell_volume   1678.61287329
_cell_formula_units_Z   6
loop_
 _symmetry_equiv_pos_site_id
 _symmetry_equiv_pos_as_xyz
  1  'x, y, z'
loop_
 _atom_site_type_symbol
 _atom_site_label
 _atom_site_symmetry_multiplicity
 _atom_site_fract_x
 _atom_site_fract_y
 _atom_site_fract_z
 _atom_site_occupancy
  Na  Na0  1  0.64004504  0.00491259  0.25120979  1
  Na  Na1  1  0.36992248  0.37217049  0.24667816  1
  Na  Na2  1  0.99200413  0.62726549  0.24887070  1
  Na  Na3  1  0.62782951  0.63007752  0.74667816  1
  Na  Na4  1  0.99508741  0.35995496  0.75120979  1
  Na  Na5  1  0.37273451  0.00799587  0.74887070  1
  Na  Na6  1  0.30671204  0.33824559  0.58454279  1
  Na  Na7  1  0.03658948  0.70550349  0.58001116  1
  Na  Na8  1  0.65867113  0.96059849  0.58220370  1
  Na  Na9  1  0.29449651  0.96341052  0.08001116  1
  Na  Na10  1  0.66175441  0.69328796  0.08454279  1
  Na  Na11  1  0.03940151  0.34132887  0.08220370  1
  Na  Na12  1  0.97337804  0.67157959  0.91787679  1
  Na  Na13  1  0.70325548  0.03883749  0.91334516  1
  Na  Na14  1  0.32533713  0.29393249  0.91553770  1
  Na  Na15  1  0.96116251  0.29674452  0.41334516  1
  Na  Na16  1  0.32842041  0.02662196  0.41787679  1
  Na  Na17  1  0.70606751  0.67466287  0.41553770  1
  Na  Na18  1  0.99386066  0.99150276  0.50144497  1
  Na  Na19  1  0.00849724  0.00613934  0.00144497  1
  Na  Na20  1  0.66052766  0.32483576  0.83477797  1
  Na  Na21  1  0.67516424  0.33947234  0.33477797  1
  Na  Na22  1  0.32719366  0.65816976  0.16811197  1
  Na  Na23  1  0.34183024  0.67280634  0.66811197  1
  Y  Y0  1  0.99681612  0.99801178  0.34922286  1
  Y  Y1  1  0.00198822  0.00318388  0.84922286  1
  Y  Y2  1  0.66348312  0.33134478  0.68255586  1
  Y  Y3  1  0.66865522  0.33651688  0.18255586  1
  Y  Y4  1  0.33014912  0.66467878  0.01588986  1
  Y  Y5  1  0.33532122  0.66985088  0.51588986  1
  Ti  Ti0  1  0.99895984  0.00032965  0.64995844  1
  Ti  Ti1  1  0.99967035  0.00104016  0.14995844  1
  Ti  Ti2  1  0.66562684  0.33366265  0.98329144  1
  Ti  Ti3  1  0.66633735  0.33437316  0.48329144  1
  Ti  Ti4  1  0.33229284  0.66699665  0.31662544  1
  Ti  Ti5  1  0.33300335  0.66770716  0.81662544  1
  Si  Si0  1  0.69650232  0.70682957  0.25031548  1
  Si  Si1  1  0.00918682  0.30275308  0.25090675  1
  Si  Si2  1  0.29317043  0.30349768  0.75031548  1
  Si  Si3  1  0.69724692  0.99081318  0.75090675  1
  Si  Si4  1  0.36316932  0.04016257  0.58364848  1
  Si  Si5  1  0.67585382  0.63608608  0.58423975  1
  Si  Si6  1  0.95983743  0.63683068  0.08364848  1
  Si  Si7  1  0.36391392  0.32414618  0.08423975  1
  Si  Si8  1  0.02983532  0.37349657  0.91698248  1
  Si  Si9  1  0.34251982  0.96942008  0.91757375  1
  Si  Si10  1  0.62650343  0.97016468  0.41698248  1
  Si  Si11  1  0.03057992  0.65748018  0.41757375  1
  P  P0  1  0.29008367  0.98852672  0.24875550  1
  P  P1  1  0.01147328  0.70991633  0.74875550  1
  P  P2  1  0.95675067  0.32185972  0.58208850  1
  P  P3  1  0.67814028  0.04324933  0.08208850  1
  P  P4  1  0.62341667  0.65519372  0.91542250  1
  P  P5  1  0.34480628  0.37658333  0.41542250  1
  O  O0  1  0.22302156  0.02250545  0.30623222  1
  O  O1  1  0.80620624  0.77712889  0.30944539  1
  O  O2  1  0.97991030  0.19829670  0.31041376  1
  O  O3  1  0.22287111  0.19379376  0.80944539  1
  O  O4  1  0.97749455  0.77697844  0.80623222  1
  O  O5  1  0.80170330  0.02008970  0.81041376  1
  O  O6  1  0.80741562  0.97052682  0.69304048  1
  O  O7  1  0.16307579  0.19211184  0.69338421  1
  O  O8  1  0.02910957  0.82650636  0.69479805  1
  O  O9  1  0.80788816  0.83692421  0.19338421  1
  O  O10  1  0.02947318  0.19258438  0.19304048  1
  O  O11  1  0.17349364  0.97089043  0.19479805  1
  O  O12  1  0.88968856  0.35583845  0.63956522  1
  O  O13  1  0.47287324  0.11046189  0.64277839  1
  O  O14  1  0.64657730  0.53162970  0.64374676  1
  O  O15  1  0.88953811  0.52712676  0.14277839  1
  O  O16  1  0.64416155  0.11031144  0.13956522  1
  O  O17  1  0.46837030  0.35342270  0.14374676  1
  O  O18  1  0.47408262  0.30385982  0.02637348  1
  O  O19  1  0.82974279  0.52544484  0.02671721  1
  O  O20  1  0.69577657  0.15983936  0.02813105  1
  O  O21  1  0.47455516  0.17025721  0.52671721  1
  O  O22  1  0.69614018  0.52591738  0.52637348  1
  O  O23  1  0.84016064  0.30422343  0.52813105  1
  O  O24  1  0.55635456  0.68917245  0.97289922  1
  O  O25  1  0.13953924  0.44379589  0.97611239  1
  O  O26  1  0.31324330  0.86496370  0.97708076  1
  O  O27  1  0.55620411  0.86046076  0.47611239  1
  O  O28  1  0.31082755  0.44364544  0.47289922  1
  O  O29  1  0.13503630  0.68675670  0.47708076  1
  O  O30  1  0.14074862  0.63719382  0.35970748  1
  O  O31  1  0.49640879  0.85877884  0.36005121  1
  O  O32  1  0.36244257  0.49317336  0.36146505  1
  O  O33  1  0.14122116  0.50359121  0.86005121  1
  O  O34  1  0.36280618  0.85925138  0.85970748  1
  O  O35  1  0.50682664  0.63755743  0.86146505  1
  O  O36  1  0.00931504  0.82063619  0.41299426  1
  O  O37  1  0.81552823  0.00317030  0.41231707  1
  O  O38  1  0.19792039  0.19807186  0.40892748  1
  O  O39  1  0.99682970  0.18447177  0.91231707  1
  O  O40  1  0.17936381  0.99068496  0.91299426  1
  O  O41  1  0.80192814  0.80207961  0.90892748  1
  O  O42  1  0.95974393  0.15499926  0.58518017  1
  O  O43  1  0.18274130  0.03768593  0.58815876  1
  O  O44  1  0.85136933  0.81879661  0.58774549  1
  O  O45  1  0.96231407  0.81725870  0.08815876  1
  O  O46  1  0.84500074  0.04025607  0.08518017  1
  O  O47  1  0.18120339  0.14863067  0.08774549  1
  O  O48  1  0.67598204  0.15396919  0.74632726  1
  O  O49  1  0.48219523  0.33650330  0.74565007  1
  O  O50  1  0.86458739  0.53140486  0.74226048  1
  O  O51  1  0.66349670  0.51780477  0.24565007  1
  O  O52  1  0.84603081  0.32401796  0.24632726  1
  O  O53  1  0.46859514  0.13541261  0.24226048  1
  O  O54  1  0.62641093  0.48833226  0.91851317  1
  O  O55  1  0.84940830  0.37101893  0.92149176  1
  O  O56  1  0.51803633  0.15212961  0.92107849  1
  O  O57  1  0.62898107  0.15059170  0.42149176  1
  O  O58  1  0.51166774  0.37358907  0.41851317  1
  O  O59  1  0.84787039  0.48196367  0.42107849  1
  O  O60  1  0.34264804  0.48730319  0.07966126  1
  O  O61  1  0.14886123  0.66983730  0.07898407  1
  O  O62  1  0.53125339  0.86473886  0.07559448  1
  O  O63  1  0.33016270  0.85113877  0.57898407  1
  O  O64  1  0.51269681  0.65735196  0.57966126  1
  O  O65  1  0.13526114  0.46874661  0.57559448  1
  O  O66  1  0.29307693  0.82166626  0.25184717  1
  O  O67  1  0.51607430  0.70435293  0.25482576  1
  O  O68  1  0.18470233  0.48546361  0.25441249  1
  O  O69  1  0.29564707  0.48392570  0.75482576  1
  O  O70  1  0.17833374  0.70692307  0.75184717  1
  O  O71  1  0.51453639  0.81529767  0.75441249  1
loop_
_geom_bond_atom_site_label_1
_geom_bond_atom_site_label_2
_geom_bond_distance
_geom_bond_site_symmetry_2
Na0 O67 2.430435 1_545
Na0 O53 2.446771 1_555
Na0 O52 2.603623 1_555
Na0 O16 2.698752 1_555
Na0 O66 2.790386 1_545
Na0 O31 2.793441 1_545
Na0 O9 2.981877 1_545
Na0 O2 3.053826 1_555
Na1 O51 2.359812 1_555
Na1 O68 2.427717 1_555
Na1 O17 2.515303 1_555
Na1 O67 2.681573 1_555
Na1 O53 2.773135 1_555
Na1 O32 2.817739 1_555
Na2 O52 2.438448 1_555
Na2 O66 2.455131 1_655
Na2 O15 2.565175 1_555
Na2 O51 2.691088 1_555
Na2 O68 2.705019 1_655
Na2 O30 2.842347 1_655
Na3 O49 2.359812 1_555
Na3 O71 2.427717 1_555
Na3 O14 2.515303 1_555
Na3 O69 2.681573 1_555
Na3 O50 2.773135 1_555
Na3 O35 2.817739 1_555
Na4 O69 2.430435 1_655
Na4 O50 2.446771 1_555
Na4 O48 2.603623 1_555
Na4 O12 2.698752 1_555
Na4 O70 2.790386 1_655
Na4 O33 2.793441 1_655
Na4 O7 2.981877 1_655
Na4 O5 3.053825 1_555
Na5 O48 2.438448 1_555
Na5 O70 2.455131 1_545
Na5 O13 2.565175 1_555
Na5 O49 2.691088 1_555
Na5 O71 2.705019 1_545
Na5 O34 2.842347 1_545
Na6 O43 2.430435 1_555
Na6 O65 2.446784 1_555
Na6 O64 2.603627 1_555
Na6 O28 2.698736 1_555
Na6 O42 2.790386 1_455
Na6 O7 2.793441 1_555
Na6 O21 2.981877 1_555
Na6 O14 3.053826 1_555
Na7 O63 2.359804 1_555
Na7 O44 2.427717 1_455
Na7 O29 2.515276 1_555
Na7 O43 2.681573 1_565
Na7 O65 2.773119 1_555
Na7 O8 2.817739 1_555
Na8 O64 2.438439 1_555
Na8 O42 2.455131 1_565
Na8 O27 2.565155 1_555
Na8 O63 2.691098 1_555
Na8 O44 2.705019 1_555
Na8 O6 2.842347 1_555
Na9 O61 2.359804 1_555
Na9 O47 2.427717 1_565
Na9 O26 2.515276 1_554
Na9 O45 2.681573 1_455
Na9 O62 2.773119 1_555
Na9 O11 2.817739 1_555
Na10 O45 2.430435 1_555
Na10 O62 2.446784 1_555
Na10 O60 2.603627 1_555
Na10 O24 2.698736 1_554
Na10 O46 2.790386 1_565
Na10 O9 2.793441 1_555
Na10 O19 2.981877 1_555
Na10 O17 3.053825 1_555
Na11 O60 2.438439 1_555
Na11 O46 2.455131 1_455
Na11 O25 2.565155 1_554
Na11 O61 2.691098 1_555
Na11 O47 2.705019 1_555
Na11 O10 2.842347 1_555
Na12 O55 2.430443 1_555
Na12 O41 2.446771 1_555
Na12 O40 2.603623 1_655
Na12 O4 2.698752 1_555
Na12 O54 2.790378 1_555
Na12 O19 2.793421 1_556
Na12 O33 2.981877 1_655
Na12 O26 3.053826 1_655
Na13 O39 2.359812 1_555
Na13 O56 2.427700 1_555
Na13 O5 2.515303 1_555
Na13 O55 2.681562 1_555
Na13 O41 2.773135 1_545
Na13 O20 2.817713 1_556
Na14 O40 2.438448 1_545
Na14 O54 2.455136 1_555
Na14 O3 2.565175 1_555
Na14 O39 2.691088 1_455
Na14 O56 2.705034 1_555
Na14 O18 2.842333 1_556
Na15 O37 2.359812 1_555
Na15 O59 2.427700 1_555
Na15 O2 2.515303 1_555
Na15 O57 2.681563 1_555
Na15 O38 2.773135 1_655
Na15 O23 2.817713 1_555
Na16 O57 2.430444 1_555
Na16 O38 2.446771 1_555
Na16 O36 2.603623 1_545
Na16 O0 2.698752 1_555
Na16 O58 2.790378 1_555
Na16 O21 2.793421 1_555
Na16 O31 2.981877 1_545
Na16 O29 3.053825 1_545
Na17 O36 2.438448 1_655
Na17 O58 2.455136 1_555
Na17 O1 2.565175 1_555
Na17 O37 2.691088 1_565
Na17 O59 2.705034 1_555
Na17 O22 2.842333 1_555
Na18 O44 2.445207 1_555
Na18 O42 2.520504 1_565
Na18 O43 2.524164 1_665
Na18 O36 2.577457 1_655
Na18 O37 2.652293 1_565
Na18 O38 2.821816 1_665
Na19 O47 2.445207 1_555
Na19 O46 2.520504 1_455
Na19 O45 2.524164 1_445
Na19 O40 2.577457 1_544
Na19 O39 2.652293 1_454
Na19 O41 2.821816 1_444
Na20 O56 2.445207 1_555
Na20 O54 2.520504 1_555
Na20 O55 2.524164 1_555
Na20 O48 2.577457 1_555
Na20 O49 2.652293 1_555
Na20 O50 2.821816 1_555
Na21 O59 2.445207 1_555
Na21 O58 2.520504 1_555
Na21 O57 2.524164 1_555
Na21 O52 2.577457 1_555
Na21 O51 2.652293 1_555
Na21 O53 2.821816 1_555
Na22 O68 2.445207 1_555
Na22 O66 2.520504 1_555
Na22 O67 2.524164 1_555
Na22 O60 2.577457 1_555
Na22 O61 2.652293 1_555
Na22 O62 2.821816 1_555
Na23 O71 2.445207 1_555
Na23 O70 2.520504 1_555
Na23 O69 2.524164 1_555
Na23 O64 2.577457 1_555
Na23 O63 2.652293 1_555
Na23 O65 2.821816 1_555
O0 P0 1.525449 1_545
O0 Y0 2.208526 1_445
O1 Si0 1.605736 1_555
O1 Y0 2.121242 1_555
O2 Si1 1.601266 1_655
O2 Y0 2.139655 1_545
O3 Si2 1.605736 1_555
O3 Y1 2.121242 1_555
O4 P1 1.525449 1_655
O4 Y1 2.208526 1_665
O5 Si3 1.601266 1_545
O5 Y1 2.139655 1_655
O6 Si3 1.712314 1_555
O6 Ti0 1.911011 1_565
O7 Si2 1.709744 1_555
O7 Ti0 1.930008 1_455
O8 P1 1.587542 1_555
O8 Ti0 2.048708 1_465
O9 Si0 1.709744 1_555
O9 Ti1 1.930008 1_565
O10 Si1 1.712314 1_555
O10 Ti1 1.911011 1_455
O11 P0 1.587542 1_555
O11 Ti1 2.048708 1_465
O12 P2 1.525449 1_555
O12 Y2 2.208526 1_555
O13 Si4 1.605736 1_555
O13 Y2 2.121242 1_555
O14 Si5 1.601266 1_555
O14 Y2 2.139655 1_555
O15 Si6 1.605736 1_555
O15 Y3 2.121242 1_555
O16 P3 1.525449 1_555
O16 Y3 2.208526 1_555
O17 Si7 1.601266 1_555
O17 Y3 2.139655 1_555
O18 Si7 1.712314 1_555
O18 Ti2 1.911011 1_554
O19 Si6 1.709744 1_555
O19 Ti2 1.930008 1_554
O20 P3 1.587542 1_555
O20 Ti2 2.048708 1_554
O21 Si4 1.709744 1_555
O21 Ti3 1.930008 1_555
O22 Si5 1.712314 1_555
O22 Ti3 1.911011 1_555
O23 P2 1.587542 1_555
O23 Ti3 2.048708 1_555
O24 P4 1.525449 1_555
O24 Y4 2.208526 1_556
O25 Si8 1.605736 1_555
O25 Y4 2.121242 1_556
O26 Si9 1.601266 1_555
O26 Y4 2.139655 1_556
O27 Si10 1.605736 1_555
O27 Y5 2.121242 1_555
O28 P5 1.525449 1_555
O28 Y5 2.208526 1_555
O29 Si11 1.601266 1_555
O29 Y5 2.139655 1_555
O30 Si11 1.712314 1_555
O30 Ti4 1.911011 1_555
O31 Si10 1.709744 1_555
O31 Ti4 1.930008 1_555
O32 P5 1.587542 1_555
O32 Ti4 2.048708 1_555
O33 Si8 1.709744 1_555
O33 Ti5 1.930008 1_555
O34 Si9 1.712314 1_555
O34 Ti5 1.911011 1_555
O35 P4 1.587542 1_555
O35 Ti5 2.048708 1_555
O36 Si11 1.627255 1_555
O36 Y0 2.243594 1_455
O37 Si10 1.625808 1_545
O37 Y0 2.207490 1_545
O38 P5 1.537785 1_555
O38 Y0 2.295412 1_445
O39 Si8 1.625808 1_655
O39 Y1 2.207490 1_655
O40 Si9 1.627255 1_555
O40 Y1 2.243594 1_565
O41 P4 1.537785 1_555
O41 Y1 2.295412 1_665
O42 P2 1.565731 1_555
O42 Ti0 2.214193 1_555
O43 Si4 1.665770 1_555
O43 Ti0 2.080336 1_455
O44 Si5 1.665053 1_555
O44 Ti0 2.086800 1_565
O45 Si6 1.665770 1_555
O45 Ti1 2.080336 1_565
O46 P3 1.565731 1_555
O46 Ti1 2.214193 1_555
O47 Si7 1.665053 1_555
O47 Ti1 2.086800 1_455
O48 Si3 1.627255 1_545
O48 Y2 2.243594 1_555
O49 Si2 1.625808 1_555
O49 Y2 2.207490 1_555
O50 P1 1.537785 1_655
O50 Y2 2.295412 1_555
O51 Si0 1.625808 1_555
O51 Y3 2.207490 1_555
O52 Si1 1.627255 1_655
O52 Y3 2.243594 1_555
O53 P0 1.537785 1_545
O53 Y3 2.295412 1_555
O54 P4 1.565744 1_555
O54 Ti2 2.214193 1_555
O55 Si8 1.665756 1_655
O55 Ti2 2.080336 1_555
O56 Si9 1.665051 1_545
O56 Ti2 2.086800 1_555
O57 Si10 1.665755 1_545
O57 Ti3 2.080336 1_555
O58 P5 1.565744 1_555
O58 Ti3 2.214193 1_555
O59 Si11 1.665051 1_655
O59 Ti3 2.086800 1_555
O60 Si7 1.627268 1_555
O60 Y4 2.243594 1_555
O61 Si6 1.625795 1_455
O61 Y4 2.207490 1_555
O62 P3 1.537781 1_565
O62 Y4 2.295412 1_555
O63 Si4 1.625795 1_565
O63 Y5 2.207490 1_555
O64 Si5 1.627268 1_555
O64 Y5 2.243594 1_555
O65 P2 1.537781 1_455
O65 Y5 2.295412 1_555
O66 P0 1.565731 1_555
O66 Ti4 2.214193 1_555
O67 Si0 1.665770 1_555
O67 Ti4 2.080336 1_555
O68 Si1 1.665053 1_555
O68 Ti4 2.086800 1_555
O69 Si2 1.665770 1_555
O69 Ti5 2.080336 1_555
O70 P1 1.565731 1_555
O70 Ti5 2.214193 1_555
O71 Si3 1.665053 1_555
O71 Ti5 2.086800 1_555
