# generated using pymatgen
data_Ni3(PO4)4
_symmetry_space_group_name_H-M   'P 1'
_cell_length_a   7.67852406
_cell_length_b   7.80988200
_cell_length_c   10.35427944
_cell_angle_alpha   90.00000000
_cell_angle_beta   92.24053984
_cell_angle_gamma   90.00000000
_symmetry_Int_Tables_number   1
_chemical_formula_structural   Ni3(PO4)4
_chemical_formula_sum   'Ni6 P8 O32'
_cell_volume   620.45453018
_cell_formula_units_Z   2
loop_
 _symmetry_equiv_pos_site_id
 _symmetry_equiv_pos_as_xyz
  1  'x, y, z'
loop_
 _atom_site_type_symbol
 _atom_site_label
 _atom_site_symmetry_multiplicity
 _atom_site_fract_x
 _atom_site_fract_y
 _atom_site_fract_z
 _atom_site_occupancy
  Ni  Ni0  1  0.00109300  0.00220600  0.25473400  1
  Ni  Ni1  1  0.99775800  0.98658500  0.74593600  1
  Ni  Ni2  1  0.50224300  0.48658600  0.50406400  1
  Ni  Ni3  1  0.49890700  0.50220700  0.99526600  1
  Ni  Ni4  1  0.40076100  0.86516200  0.45045300  1
  Ni  Ni5  1  0.09923800  0.36516200  0.79954700  1
  P  P0  1  0.19843100  0.18624200  0.00956200  1
  P  P1  1  0.31350600  0.70588100  0.73558900  1
  P  P2  1  0.30156900  0.68624300  0.24043800  1
  P  P3  1  0.69814800  0.29263100  0.76117200  1
  P  P4  1  0.68198300  0.30622400  0.25683200  1
  P  P5  1  0.81801800  0.80622300  0.99316800  1
  P  P6  1  0.18649300  0.20588100  0.51441100  1
  P  P7  1  0.80185300  0.79263100  0.48882800  1
  O  O0  1  0.54327000  0.36789800  0.15874000  1
  O  O1  1  0.95673100  0.86789900  0.09125900  1
  O  O2  1  0.94483200  0.84459200  0.58842600  1
  O  O3  1  0.86995600  0.81838200  0.35188800  1
  O  O4  1  0.82999700  0.44392000  0.26726800  1
  O  O5  1  0.88679600  0.80172700  0.85535600  1
  O  O6  1  0.05335500  0.15309700  0.90186100  1
  O  O7  1  0.04652600  0.14718000  0.41490800  1
  O  O8  1  0.10342000  0.20089400  0.65060900  1
  O  O9  1  0.15443800  0.58349700  0.73335400  1
  O  O10  1  0.13175200  0.18630500  0.14752900  1
  O  O11  1  0.15932700  0.54958400  0.22436800  1
  O  O12  1  0.24141400  0.88443200  0.76206100  1
  O  O13  1  0.26456900  0.36427200  0.95823600  1
  O  O14  1  0.23543000  0.86427100  0.29176400  1
  O  O15  1  0.25858700  0.38443200  0.48793900  1
  O  O16  1  0.34556200  0.08349700  0.51664500  1
  O  O17  1  0.39657900  0.70089400  0.59939200  1
  O  O18  1  0.34067400  0.04958400  0.02563200  1
  O  O19  1  0.77401200  0.14167300  0.21728800  1
  O  O20  1  0.45347400  0.64718000  0.83509200  1
  O  O21  1  0.44664500  0.65309600  0.34813900  1
  O  O22  1  0.55516900  0.34459300  0.66157400  1
  O  O23  1  0.85352400  0.42117700  0.76184500  1
  O  O24  1  0.63004500  0.31838200  0.89811200  1
  O  O25  1  0.67000200  0.94392100  0.98273200  1
  O  O26  1  0.61320300  0.30172700  0.39464400  1
  O  O27  1  0.64647600  0.92117700  0.48815500  1
  O  O28  1  0.74453700  0.60788400  0.51283800  1
  O  O29  1  0.75546200  0.10788400  0.73716200  1
  O  O30  1  0.72598900  0.64167300  0.03271300  1
  O  O31  1  0.36824700  0.68630400  0.10247100  1
loop_
_geom_bond_atom_site_label_1
_geom_bond_atom_site_label_2
_geom_bond_distance
_geom_bond_site_symmetry_2
Ni0 O1 2.009055 1_445
Ni0 O7 2.027063 1_555
Ni0 O3 2.041116 1_445
Ni0 O19 2.079466 1_455
Ni0 O10 2.095957 1_555
Ni0 O14 2.119257 1_545
Ni1 O2 2.000736 1_555
Ni1 O12 2.034767 1_655
Ni1 O5 2.041901 1_555
Ni1 O29 2.086586 1_565
Ni1 O6 2.103825 1_665
Ni1 O8 2.120492 1_665
Ni2 O22 2.000736 1_555
Ni2 O15 2.034770 1_555
Ni2 O26 2.041899 1_555
Ni2 O28 2.086569 1_555
Ni2 O21 2.103816 1_555
Ni2 O17 2.120497 1_555
Ni3 O0 2.009056 1_556
Ni3 O20 2.027059 1_555
Ni3 O24 2.041125 1_555
Ni3 O30 2.079470 1_556
Ni3 O31 2.095950 1_556
Ni3 O13 2.119264 1_555
Ni4 O16 1.892009 1_565
Ni4 O27 1.961104 1_555
Ni4 O21 2.004657 1_555
Ni4 O17 2.007241 1_555
Ni4 O14 2.036759 1_555
Ni5 O9 1.892015 1_555
Ni5 O23 1.961097 1_455
Ni5 O6 2.004649 1_555
Ni5 O8 2.007233 1_555
Ni5 O13 2.036759 1_555
O0 P4 1.521009 1_555
O1 P5 1.521007 1_554
O2 P7 1.531332 1_555
O3 P7 1.543490 1_555
O4 P4 1.565323 1_555
O5 P5 1.541178 1_555
O6 P0 1.566652 1_556
O7 P6 1.529753 1_555
O8 P6 1.570827 1_555
O9 P1 1.550395 1_555
O10 P0 1.536256 1_555
O11 P2 1.531504 1_555
O12 P1 1.529035 1_555
O13 P0 1.579440 1_556
O14 P2 1.579429 1_555
O15 P6 1.529040 1_555
O16 P6 1.550401 1_555
O17 P1 1.570817 1_555
O18 P0 1.531504 1_555
O19 P4 1.530087 1_555
O20 P1 1.529758 1_555
O21 P2 1.566655 1_555
O22 P3 1.531334 1_555
O23 P3 1.559058 1_555
O24 P3 1.543490 1_555
O25 P5 1.565344 1_555
O26 P4 1.541184 1_555
O27 P7 1.559063 1_555
O28 P7 1.531624 1_555
O29 P3 1.531620 1_555
O30 P5 1.530083 1_554
O31 P2 1.536253 1_555
