# generated using pymatgen
data_NaGaSiSn(SO6)2
_symmetry_space_group_name_H-M   'P 1'
_cell_length_a   8.69027551
_cell_length_b   8.69441461
_cell_length_c   22.67974624
_cell_angle_alpha   89.43531232
_cell_angle_beta   90.00000000
_cell_angle_gamma   119.98425315
_symmetry_Int_Tables_number   1
_chemical_formula_structural   NaGaSiSn(SO6)2
_chemical_formula_sum   'Na6 Ga6 Si6 Sn6 S12 O72'
_cell_volume   1484.16945472
_cell_formula_units_Z   6
loop_
 _symmetry_equiv_pos_site_id
 _symmetry_equiv_pos_as_xyz
  1  'x, y, z'
loop_
 _atom_site_type_symbol
 _atom_site_label
 _atom_site_symmetry_multiplicity
 _atom_site_fract_x
 _atom_site_fract_y
 _atom_site_fract_z
 _atom_site_occupancy
  Na  Na0  1  0.02498589  0.01781449  0.50377884  1
  Na  Na1  1  0.99282860  0.01781449  0.00377884  1
  Na  Na2  1  0.68302744  0.32497807  0.83551558  1
  Na  Na3  1  0.64195163  0.32497807  0.33551558  1
  Na  Na4  1  0.34295660  0.68998639  0.16979337  1
  Na  Na5  1  0.34702879  0.68998639  0.66979337  1
  Ga  Ga0  1  0.99388847  0.99592096  0.64817481  1
  Ga  Ga1  1  0.00203249  0.99592096  0.14817481  1
  Ga  Ga2  1  0.69935256  0.32343253  0.97973676  1
  Ga  Ga3  1  0.62408098  0.32343253  0.47973676  1
  Ga  Ga4  1  0.33432752  0.67141662  0.31338906  1
  Ga  Ga5  1  0.33708810  0.67141662  0.81338906  1
  Si  Si0  1  0.28570166  0.98863923  0.24835130  1
  Si  Si1  1  0.70293757  0.98863923  0.74835130  1
  Si  Si2  1  0.35857506  0.03478887  0.58319737  1
  Si  Si3  1  0.67621481  0.03478887  0.08319737  1
  Si  Si4  1  0.05152025  0.38813059  0.91437189  1
  Si  Si5  1  0.33660934  0.38813059  0.41437189  1
  Sn  Sn0  1  0.01580476  0.01306574  0.35292082  1
  Sn  Sn1  1  0.99726097  0.01306574  0.85292082  1
  Sn  Sn2  1  0.65904795  0.31194229  0.68478551  1
  Sn  Sn3  1  0.65289534  0.31194229  0.18478551  1
  Sn  Sn4  1  0.33633798  0.66869825  0.01832042  1
  Sn  Sn5  1  0.33235927  0.66869825  0.51832042  1
  S  S0  1  0.70960247  0.70905512  0.24925995  1
  S  S1  1  0.00253521  0.29570437  0.24854062  1
  S  S2  1  0.29316916  0.29570437  0.74854062  1
  S  S3  1  0.99945265  0.70905512  0.74925995  1
  S  S4  1  0.95234742  0.33151639  0.58065235  1
  S  S5  1  0.67063617  0.62201220  0.58302746  1
  S  S6  1  0.95137703  0.62201220  0.08302746  1
  S  S7  1  0.37916998  0.33151639  0.08065235  1
  S  S8  1  0.62831049  0.65804067  0.91681028  1
  S  S9  1  0.33581561  0.96549509  0.91457911  1
  S  S10  1  0.62967848  0.96549509  0.41457911  1
  S  S11  1  0.02972918  0.65804067  0.41681028  1
  O  O0  1  0.21234101  0.02936440  0.30901956  1
  O  O1  1  0.81342897  0.78799336  0.30425758  1
  O  O2  1  0.95721104  0.18256649  0.30331835  1
  O  O3  1  0.22535545  0.18256649  0.80331835  1
  O  O4  1  0.97456438  0.78799336  0.80425758  1
  O  O5  1  0.81702339  0.02936440  0.80901956  1
  O  O6  1  0.79751238  0.96418572  0.69008604  1
  O  O7  1  0.18714244  0.20789186  0.69615748  1
  O  O8  1  0.02856502  0.82005579  0.69619989  1
  O  O9  1  0.79149077  0.82005579  0.19619989  1
  O  O10  1  0.02074942  0.20789186  0.19615748  1
  O  O11  1  0.16667334  0.96418572  0.19008604  1
  O  O12  1  0.88415145  0.37018385  0.63654262  1
  O  O13  1  0.47969673  0.10682973  0.64252905  1
  O  O14  1  0.64603843  0.51711319  0.63853745  1
  O  O15  1  0.87107576  0.51711319  0.13853745  1
  O  O16  1  0.62713400  0.10682973  0.14252905  1
  O  O17  1  0.48603340  0.37018385  0.13654262  1
  O  O18  1  0.47120710  0.31796557  0.02884787  1
  O  O19  1  0.84311627  0.53951114  0.03040743  1
  O  O20  1  0.70569427  0.15276886  0.02408214  1
  O  O21  1  0.44707558  0.15276886  0.52408214  1
  O  O22  1  0.69639587  0.53951114  0.53040743  1
  O  O23  1  0.84675947  0.31796557  0.52884787  1
  O  O24  1  0.55872613  0.70477969  0.97011813  1
  O  O25  1  0.16077662  0.46391277  0.97615466  1
  O  O26  1  0.30249034  0.85904748  0.97022092  1
  O  O27  1  0.55655614  0.85904748  0.47022092  1
  O  O28  1  0.30313514  0.46391277  0.47615466  1
  O  O29  1  0.14605257  0.70477969  0.47011813  1
  O  O30  1  0.11605682  0.64131536  0.36326369  1
  O  O31  1  0.51646049  0.88640599  0.36268614  1
  O  O32  1  0.35843622  0.50829701  0.35674072  1
  O  O33  1  0.14985979  0.50829701  0.85674072  1
  O  O34  1  0.36994450  0.88640599  0.86268614  1
  O  O35  1  0.52525754  0.64131536  0.86326369  1
  O  O36  1  0.99659291  0.81191669  0.41215561  1
  O  O37  1  0.80330431  0.96963109  0.40807357  1
  O  O38  1  0.15714576  0.18804012  0.41424416  1
  O  O39  1  0.03089436  0.18804012  0.91424416  1
  O  O40  1  0.16632678  0.96963109  0.90807357  1
  O  O41  1  0.81532378  0.81191669  0.91215561  1
  O  O42  1  0.96353061  0.16822408  0.58717213  1
  O  O43  1  0.16500815  0.01858864  0.59320387  1
  O  O44  1  0.82738732  0.80075342  0.58730892  1
  O  O45  1  0.97336611  0.80075342  0.08730892  1
  O  O46  1  0.85358049  0.01858864  0.09320387  1
  O  O47  1  0.20469347  0.16822408  0.08717213  1
  O  O48  1  0.68927238  0.17214265  0.74734334  1
  O  O49  1  0.47920737  0.32856829  0.74420267  1
  O  O50  1  0.83300891  0.53257712  0.74386216  1
  O  O51  1  0.69956921  0.53257712  0.24386216  1
  O  O52  1  0.84936192  0.32856829  0.24420267  1
  O  O53  1  0.48287127  0.17214265  0.24734334  1
  O  O54  1  0.63212351  0.49300526  0.92609208  1
  O  O55  1  0.85576360  0.37239027  0.91810942  1
  O  O56  1  0.48591078  0.14659715  0.92192309  1
  O  O57  1  0.66068736  0.14659715  0.42192309  1
  O  O58  1  0.51662766  0.37239027  0.41810942  1
  O  O59  1  0.86088275  0.49300526  0.42609208  1
  O  O60  1  0.35211843  0.48854169  0.07838870  1
  O  O61  1  0.12980872  0.63582188  0.07988673  1
  O  O62  1  0.49417570  0.83721739  0.07713688  1
  O  O63  1  0.34304069  0.83721739  0.57713688  1
  O  O64  1  0.50601216  0.63582188  0.57988673  1
  O  O65  1  0.13642226  0.48854169  0.57838870  1
  O  O66  1  0.30773816  0.81307193  0.25731249  1
  O  O67  1  0.52989030  0.68525047  0.25422355  1
  O  O68  1  0.16673760  0.46683572  0.25498542  1
  O  O69  1  0.30009712  0.46683572  0.75498542  1
  O  O70  1  0.15535918  0.68525047  0.75422355  1
  O  O71  1  0.50533277  0.81307193  0.75731249  1
loop_
_geom_bond_atom_site_label_1
_geom_bond_atom_site_label_2
_geom_bond_distance
_geom_bond_site_symmetry_2
Na0 O43 2.363503 1_555
Na0 O38 2.423779 1_555
Na0 O42 2.513832 1_455
Na0 O44 2.605685 1_445
Na0 O36 2.686156 1_445
Na0 O37 2.794537 1_445
Na1 O46 2.363503 1_555
Na1 O39 2.423779 1_654
Na1 O47 2.513832 1_655
Na1 O45 2.605685 1_545
Na1 O41 2.686156 1_544
Na1 O40 2.794537 1_644
Na2 O55 2.308447 1_555
Na2 O48 2.427354 1_555
Na2 O56 2.542591 1_555
Na2 O50 2.617666 1_555
Na2 O54 2.693505 1_555
Na2 O49 2.735169 1_555
Na3 O58 2.308447 1_555
Na3 O53 2.427354 1_555
Na3 O57 2.542591 1_555
Na3 O51 2.617666 1_555
Na3 O59 2.693505 1_555
Na3 O52 2.735169 1_555
Na4 O66 2.355424 1_555
Na4 O62 2.459092 1_555
Na4 O67 2.524418 1_555
Na4 O68 2.607473 1_555
Na4 O61 2.637734 1_555
Na4 O60 2.753600 1_555
Na5 O71 2.355424 1_555
Na5 O63 2.459092 1_555
Na5 O70 2.524418 1_555
Na5 O69 2.607473 1_555
Na5 O64 2.637734 1_555
Na5 O65 2.753600 1_555
Ga0 O6 1.848293 1_555
Ga0 O43 1.872642 1_665
Ga0 O8 2.010688 1_655
Ga0 O7 2.084977 1_665
Ga0 O44 2.114388 1_555
Ga0 O42 2.140595 1_565
Ga1 O11 1.848293 1_555
Ga1 O46 1.872642 1_465
Ga1 O9 2.010688 1_455
Ga1 O10 2.084977 1_565
Ga1 O45 2.114388 1_455
Ga1 O47 2.140595 1_565
Ga2 O20 1.807927 1_556
Ga2 O55 1.841813 1_555
Ga2 O19 2.026698 1_556
Ga2 O56 2.170920 1_555
Ga2 O54 2.195639 1_555
Ga2 O18 2.253558 1_556
Ga3 O21 1.807927 1_555
Ga3 O58 1.841813 1_555
Ga3 O22 2.026698 1_555
Ga3 O57 2.170920 1_555
Ga3 O59 2.195639 1_555
Ga3 O23 2.253558 1_555
Ga4 O32 1.814241 1_555
Ga4 O66 1.855078 1_555
Ga4 O31 2.081638 1_555
Ga4 O30 2.108063 1_555
Ga4 O67 2.120339 1_555
Ga4 O68 2.120516 1_555
Ga5 O33 1.814241 1_555
Ga5 O71 1.855078 1_555
Ga5 O34 2.081638 1_555
Ga5 O35 2.108063 1_555
Ga5 O70 2.120339 1_555
Ga5 O69 2.120516 1_555
O0 Si0 1.631029 1_545
O0 Sn0 1.919336 1_555
O1 S0 1.496295 1_555
O1 Sn0 2.177871 1_665
O2 S1 1.501604 1_655
O2 Sn0 2.100960 1_655
O3 S2 1.501604 1_555
O3 Sn1 2.100960 1_455
O4 S3 1.496295 1_555
O4 Sn1 2.177871 1_565
O5 Si1 1.631029 1_545
O5 Sn1 1.919336 1_555
O6 Si1 1.626989 1_555
O7 S2 1.469032 1_555
O8 S3 1.475332 1_455
O9 S0 1.475332 1_555
O10 S1 1.469032 1_555
O11 Si0 1.626989 1_555
O12 S4 1.509485 1_555
O12 Sn2 2.068644 1_555
O13 Si2 1.633584 1_555
O13 Sn2 1.945122 1_555
O14 S5 1.498321 1_555
O14 Sn2 2.111811 1_555
O15 S6 1.498321 1_555
O15 Sn3 2.111811 1_555
O16 Si3 1.633584 1_555
O16 Sn3 1.945122 1_555
O17 S7 1.509485 1_555
O17 Sn3 2.068644 1_555
O18 S7 1.459774 1_555
O19 S6 1.471810 1_555
O20 Si3 1.620366 1_555
O21 Si2 1.620366 1_555
O22 S5 1.471810 1_555
O23 S4 1.459774 1_555
O24 S8 1.499269 1_555
O24 Sn4 2.101377 1_556
O25 Si4 1.640711 1_555
O25 Sn4 1.931518 1_556
O26 S9 1.497329 1_555
O26 Sn4 2.113404 1_556
O27 S10 1.497329 1_555
O27 Sn5 2.113404 1_555
O28 Si5 1.640711 1_555
O28 Sn5 1.931518 1_555
O29 S11 1.499269 1_555
O29 Sn5 2.101377 1_555
O30 S11 1.473536 1_555
O31 S10 1.471647 1_555
O32 Si5 1.615842 1_555
O33 Si4 1.615842 1_555
O34 S9 1.471647 1_555
O35 S8 1.473536 1_555
O36 S11 1.505400 1_655
O36 Sn0 2.133795 1_665
O37 S10 1.498457 1_555
O37 Sn0 2.100270 1_665
O38 Si5 1.657407 1_555
O38 Sn0 1.982768 1_555
O39 Si4 1.657410 1_555
O39 Sn1 1.982768 1_455
O40 S9 1.498448 1_555
O40 Sn1 2.100270 1_465
O41 S8 1.505406 1_555
O41 Sn1 2.133794 1_565
O42 S4 1.476726 1_555
O43 Si2 1.632030 1_555
O44 S5 1.472127 1_555
O45 S6 1.472130 1_555
O46 Si3 1.632021 1_555
O47 S7 1.476730 1_555
O48 Si1 1.657938 1_545
O48 Sn2 1.960731 1_555
O49 S2 1.497609 1_555
O49 Sn2 2.123446 1_555
O50 S3 1.498953 1_555
O50 Sn2 2.216415 1_555
O51 S0 1.498957 1_555
O51 Sn3 2.216415 1_555
O52 S1 1.497600 1_655
O52 Sn3 2.123446 1_555
O53 Si0 1.657943 1_545
O53 Sn3 1.960731 1_555
O54 S8 1.464883 1_555
O55 Si4 1.639206 1_655
O56 S9 1.469942 1_545
O57 S10 1.469936 1_545
O58 Si5 1.639223 1_555
O59 S11 1.464874 1_655
O60 S7 1.497065 1_555
O60 Sn4 2.121525 1_555
O61 S6 1.495880 1_455
O61 Sn4 2.175322 1_555
O62 Si3 1.661547 1_565
O62 Sn4 1.958914 1_555
O63 Si2 1.661540 1_565
O63 Sn5 1.958914 1_555
O64 S5 1.495897 1_555
O64 Sn5 2.175322 1_555
O65 S4 1.497054 1_455
O65 Sn5 2.121525 1_555
O66 Si0 1.641375 1_555
O67 S0 1.473441 1_555
O68 S1 1.467493 1_555
O69 S2 1.467497 1_555
O70 S3 1.473433 1_455
O71 Si1 1.641380 1_555
