# generated using pymatgen
data_NpSi
_symmetry_space_group_name_H-M   'P 1'
_cell_length_a   5.14545600
_cell_length_b   10.94012000
_cell_length_c   19.07814000
_cell_angle_alpha   90.00000000
_cell_angle_beta   90.00000000
_cell_angle_gamma   90.00000000
_symmetry_Int_Tables_number   1
_chemical_formula_structural   NpSi
_chemical_formula_sum   'Np32 Si32'
_cell_volume   1073.94486534
_cell_formula_units_Z   32
loop_
 _symmetry_equiv_pos_site_id
 _symmetry_equiv_pos_as_xyz
  1  'x, y, z'
loop_
 _atom_site_type_symbol
 _atom_site_label
 _atom_site_symmetry_multiplicity
 _atom_site_fract_x
 _atom_site_fract_y
 _atom_site_fract_z
 _atom_site_occupancy
  Np  Np0_0  1  0.12500000  0.21649850  0.36467100  1
  Np  Np0_1  1  0.12500000  0.21649850  0.86467100  1
  Np  Np0_2  1  0.12500000  0.71649850  0.36467100  1
  Np  Np0_3  1  0.12500000  0.71649850  0.86467100  1
  Np  Np0_4  1  0.62500000  0.21649850  0.36467100  1
  Np  Np0_5  1  0.62500000  0.21649850  0.86467100  1
  Np  Np0_6  1  0.62500000  0.71649850  0.36467100  1
  Np  Np0_7  1  0.62500000  0.71649850  0.86467100  1
  Np  Np1_0  1  0.37500000  0.28350150  0.13532900  1
  Np  Np1_1  1  0.37500000  0.28350150  0.63532900  1
  Np  Np1_2  1  0.37500000  0.78350150  0.13532900  1
  Np  Np1_3  1  0.37500000  0.78350150  0.63532900  1
  Np  Np1_4  1  0.87500000  0.28350150  0.13532900  1
  Np  Np1_5  1  0.87500000  0.28350150  0.63532900  1
  Np  Np1_6  1  0.87500000  0.78350150  0.13532900  1
  Np  Np1_7  1  0.87500000  0.78350150  0.63532900  1
  Np  Np2_0  1  0.37500000  0.46649850  0.38532900  1
  Np  Np2_1  1  0.37500000  0.46649850  0.88532900  1
  Np  Np2_2  1  0.37500000  0.96649850  0.38532900  1
  Np  Np2_3  1  0.37500000  0.96649850  0.88532900  1
  Np  Np2_4  1  0.87500000  0.46649850  0.38532900  1
  Np  Np2_5  1  0.87500000  0.46649850  0.88532900  1
  Np  Np2_6  1  0.87500000  0.96649850  0.38532900  1
  Np  Np2_7  1  0.87500000  0.96649850  0.88532900  1
  Np  Np3_0  1  0.12500000  0.03350150  0.11467100  1
  Np  Np3_1  1  0.12500000  0.03350150  0.61467100  1
  Np  Np3_2  1  0.12500000  0.53350150  0.11467100  1
  Np  Np3_3  1  0.12500000  0.53350150  0.61467100  1
  Np  Np3_4  1  0.62500000  0.03350150  0.11467100  1
  Np  Np3_5  1  0.62500000  0.03350150  0.61467100  1
  Np  Np3_6  1  0.62500000  0.53350150  0.11467100  1
  Np  Np3_7  1  0.62500000  0.53350150  0.61467100  1
  Si  Si0_0  1  0.12500000  0.40211300  0.25468250  1
  Si  Si0_1  1  0.12500000  0.40211300  0.75468250  1
  Si  Si0_2  1  0.12500000  0.90211300  0.25468250  1
  Si  Si0_3  1  0.12500000  0.90211300  0.75468250  1
  Si  Si0_4  1  0.62500000  0.40211300  0.25468250  1
  Si  Si0_5  1  0.62500000  0.40211300  0.75468250  1
  Si  Si0_6  1  0.62500000  0.90211300  0.25468250  1
  Si  Si0_7  1  0.62500000  0.90211300  0.75468250  1
  Si  Si1_0  1  0.37500000  0.09788700  0.24531750  1
  Si  Si1_1  1  0.37500000  0.09788700  0.74531750  1
  Si  Si1_2  1  0.37500000  0.59788700  0.24531750  1
  Si  Si1_3  1  0.37500000  0.59788700  0.74531750  1
  Si  Si1_4  1  0.87500000  0.09788700  0.24531750  1
  Si  Si1_5  1  0.87500000  0.09788700  0.74531750  1
  Si  Si1_6  1  0.87500000  0.59788700  0.24531750  1
  Si  Si1_7  1  0.87500000  0.59788700  0.74531750  1
  Si  Si2_0  1  0.37500000  0.15211300  0.49531750  1
  Si  Si2_1  1  0.37500000  0.15211300  0.99531750  1
  Si  Si2_2  1  0.37500000  0.65211300  0.49531750  1
  Si  Si2_3  1  0.37500000  0.65211300  0.99531750  1
  Si  Si2_4  1  0.87500000  0.15211300  0.49531750  1
  Si  Si2_5  1  0.87500000  0.15211300  0.99531750  1
  Si  Si2_6  1  0.87500000  0.65211300  0.49531750  1
  Si  Si2_7  1  0.87500000  0.65211300  0.99531750  1
  Si  Si3_0  1  0.12500000  0.34788700  0.00468250  1
  Si  Si3_1  1  0.12500000  0.34788700  0.50468250  1
  Si  Si3_2  1  0.12500000  0.84788700  0.00468250  1
  Si  Si3_3  1  0.12500000  0.84788700  0.50468250  1
  Si  Si3_4  1  0.62500000  0.34788700  0.00468250  1
  Si  Si3_5  1  0.62500000  0.34788700  0.50468250  1
  Si  Si3_6  1  0.62500000  0.84788700  0.00468250  1
  Si  Si3_7  1  0.62500000  0.84788700  0.50468250  1
loop_
_geom_bond_atom_site_label_1
_geom_bond_atom_site_label_2
_geom_bond_distance
_geom_bond_site_symmetry_2
Np0_0 Np0_4 2.572728 1_555
Np0_0 Np0_4 2.572728 1_455
Np0_0 Si2_0 2.891956 1_555
Np0_0 Si2_4 2.891956 1_455
Np0_0 Si1_4 2.919501 1_455
Np0_0 Si1_0 2.919501 1_555
Np0_0 Si0_0 2.920051 1_555
Np0_0 Si3_1 3.033352 1_555
Np0_1 Np0_5 2.572728 1_555
Np0_1 Np0_5 2.572728 1_455
Np0_1 Si2_5 2.891956 1_455
Np0_1 Si2_1 2.891956 1_555
Np0_1 Si1_1 2.919501 1_555
Np0_1 Si1_5 2.919501 1_455
Np0_1 Si0_1 2.920051 1_555
Np0_1 Si3_0 3.033352 1_556
Np0_2 Np0_6 2.572728 1_455
Np0_2 Np0_6 2.572728 1_555
Np0_2 Si2_6 2.891956 1_455
Np0_2 Si2_2 2.891956 1_555
Np0_2 Si1_2 2.919501 1_555
Np0_2 Si1_6 2.919501 1_455
Np0_2 Si0_2 2.920051 1_555
Np0_2 Si3_3 3.033352 1_555
Np0_3 Np0_7 2.572728 1_555
Np0_3 Np0_7 2.572728 1_455
Np0_3 Si2_7 2.891956 1_455
Np0_3 Si2_3 2.891956 1_555
Np0_3 Si1_3 2.919501 1_555
Np0_3 Si1_7 2.919501 1_455
Np0_3 Si0_3 2.920051 1_555
Np0_3 Si3_2 3.033352 1_556
Np0_4 Si2_0 2.891956 1_555
Np0_4 Si2_4 2.891956 1_555
Np0_4 Si1_0 2.919501 1_555
Np0_4 Si1_4 2.919501 1_555
Np0_4 Si0_4 2.920051 1_555
Np0_4 Si3_5 3.033352 1_555
Np0_5 Si2_5 2.891956 1_555
Np0_5 Si2_1 2.891956 1_555
Np0_5 Si1_1 2.919501 1_555
Np0_5 Si1_5 2.919501 1_555
Np0_5 Si0_5 2.920051 1_555
Np0_5 Si3_4 3.033352 1_556
Np0_6 Si2_6 2.891956 1_555
Np0_6 Si2_2 2.891956 1_555
Np0_6 Si1_6 2.919501 1_555
Np0_6 Si1_2 2.919501 1_555
Np0_6 Si0_6 2.920051 1_555
Np0_6 Si3_7 3.033352 1_555
Np0_7 Si2_3 2.891956 1_555
Np0_7 Si2_7 2.891956 1_555
Np0_7 Si1_7 2.919501 1_555
Np0_7 Si1_3 2.919501 1_555
Np0_7 Si0_7 2.920051 1_555
Np0_7 Si3_6 3.033352 1_556
Np1_0 Np1_4 2.572728 1_555
Np1_0 Np1_4 2.572728 1_455
Np1_0 Si3_0 2.891956 1_555
Np1_0 Si3_4 2.891956 1_555
Np1_0 Si0_4 2.919501 1_555
Np1_0 Si0_0 2.919501 1_555
Np1_0 Si1_0 2.920051 1_555
Np1_0 Si2_1 3.033352 1_554
Np1_1 Np1_5 2.572728 1_555
Np1_1 Np1_5 2.572728 1_455
Np1_1 Si3_5 2.891956 1_555
Np1_1 Si3_1 2.891956 1_555
Np1_1 Si0_5 2.919501 1_555
Np1_1 Si0_1 2.919501 1_555
Np1_1 Si1_1 2.920051 1_555
Np1_1 Si2_0 3.033352 1_555
Np1_2 Np1_6 2.572728 1_555
Np1_2 Np1_6 2.572728 1_455
Np1_2 Si3_6 2.891956 1_555
Np1_2 Si3_2 2.891956 1_555
Np1_2 Si0_6 2.919501 1_555
Np1_2 Si0_2 2.919501 1_555
Np1_2 Si1_2 2.920051 1_555
Np1_2 Si2_3 3.033352 1_554
Np1_3 Np1_7 2.572728 1_555
Np1_3 Np1_7 2.572728 1_455
Np1_3 Si3_7 2.891956 1_555
Np1_3 Si3_3 2.891956 1_555
Np1_3 Si0_7 2.919501 1_555
Np1_3 Si0_3 2.919501 1_555
Np1_3 Si1_3 2.920051 1_555
Np1_3 Si2_2 3.033352 1_555
Np1_4 Si3_0 2.891956 1_655
Np1_4 Si3_4 2.891956 1_555
Np1_4 Si0_0 2.919501 1_655
Np1_4 Si0_4 2.919501 1_555
Np1_4 Si1_4 2.920051 1_555
Np1_4 Si2_5 3.033352 1_554
Np1_5 Si3_1 2.891956 1_655
Np1_5 Si3_5 2.891956 1_555
Np1_5 Si0_1 2.919501 1_655
Np1_5 Si0_5 2.919501 1_555
Np1_5 Si1_5 2.920051 1_555
Np1_5 Si2_4 3.033352 1_555
Np1_6 Si3_2 2.891956 1_655
Np1_6 Si3_6 2.891956 1_555
Np1_6 Si0_6 2.919501 1_555
Np1_6 Si0_2 2.919501 1_655
Np1_6 Si1_6 2.920051 1_555
Np1_6 Si2_7 3.033352 1_554
Np1_7 Si3_7 2.891956 1_555
Np1_7 Si3_3 2.891956 1_655
Np1_7 Si0_3 2.919501 1_655
Np1_7 Si0_7 2.919501 1_555
Np1_7 Si1_7 2.920051 1_555
Np1_7 Si2_6 3.033352 1_555
Np2_0 Np2_4 2.572728 1_555
Np2_0 Np2_4 2.572728 1_455
Np2_0 Si0_0 2.891956 1_555
Np2_0 Si0_4 2.891956 1_555
Np2_0 Si3_5 2.919501 1_555
Np2_0 Si3_1 2.919501 1_555
Np2_0 Si2_2 2.920051 1_555
Np2_0 Si1_2 3.033352 1_555
Np2_1 Np2_5 2.572728 1_555
Np2_1 Np2_5 2.572728 1_455
Np2_1 Si0_1 2.891956 1_555
Np2_1 Si0_5 2.891956 1_555
Np2_1 Si3_4 2.919501 1_556
Np2_1 Si3_0 2.919501 1_556
Np2_1 Si2_3 2.920051 1_555
Np2_1 Si1_3 3.033352 1_555
Np2_2 Np2_6 2.572728 1_555
Np2_2 Np2_6 2.572728 1_455
Np2_2 Si0_2 2.891956 1_555
Np2_2 Si0_6 2.891956 1_555
Np2_2 Si3_7 2.919501 1_555
Np2_2 Si3_3 2.919501 1_555
Np2_2 Si2_0 2.920051 1_565
Np2_2 Si1_0 3.033352 1_565
Np2_3 Np2_7 2.572728 1_555
Np2_3 Np2_7 2.572728 1_455
Np2_3 Si0_7 2.891956 1_555
Np2_3 Si0_3 2.891956 1_555
Np2_3 Si3_2 2.919501 1_556
Np2_3 Si3_6 2.919501 1_556
Np2_3 Si2_1 2.920051 1_565
Np2_3 Si1_1 3.033352 1_565
Np2_4 Si0_0 2.891956 1_655
Np2_4 Si0_4 2.891956 1_555
Np2_4 Si3_5 2.919501 1_555
Np2_4 Si3_1 2.919501 1_655
Np2_4 Si2_6 2.920051 1_555
Np2_4 Si1_6 3.033352 1_555
Np2_5 Si0_1 2.891956 1_655
Np2_5 Si0_5 2.891956 1_555
Np2_5 Si3_0 2.919501 1_656
Np2_5 Si3_4 2.919501 1_556
Np2_5 Si2_7 2.920051 1_555
Np2_5 Si1_7 3.033352 1_555
Np2_6 Si0_2 2.891956 1_655
Np2_6 Si0_6 2.891956 1_555
Np2_6 Si3_3 2.919501 1_655
Np2_6 Si3_7 2.919501 1_555
Np2_6 Si2_4 2.920051 1_565
Np2_6 Si1_4 3.033352 1_565
Np2_7 Si0_3 2.891956 1_655
Np2_7 Si0_7 2.891956 1_555
Np2_7 Si3_2 2.919501 1_656
Np2_7 Si3_6 2.919501 1_556
Np2_7 Si2_5 2.920051 1_565
Np2_7 Si1_5 3.033352 1_565
Np3_0 Np3_4 2.572728 1_455
Np3_0 Np3_4 2.572728 1_555
Np3_0 Si1_0 2.891956 1_555
Np3_0 Si1_4 2.891956 1_455
Np3_0 Si2_5 2.919501 1_454
Np3_0 Si2_1 2.919501 1_554
Np3_0 Si3_2 2.920051 1_545
Np3_0 Si0_2 3.033352 1_545
Np3_1 Np3_5 2.572728 1_555
Np3_1 Np3_5 2.572728 1_455
Np3_1 Si1_5 2.891956 1_455
Np3_1 Si1_1 2.891956 1_555
Np3_1 Si2_0 2.919501 1_555
Np3_1 Si2_4 2.919501 1_455
Np3_1 Si3_3 2.920051 1_545
Np3_1 Si0_3 3.033352 1_545
Np3_2 Np3_6 2.572728 1_455
Np3_2 Np3_6 2.572728 1_555
Np3_2 Si1_6 2.891956 1_455
Np3_2 Si1_2 2.891956 1_555
Np3_2 Si2_7 2.919501 1_454
Np3_2 Si2_3 2.919501 1_554
Np3_2 Si3_0 2.920051 1_555
Np3_2 Si0_0 3.033352 1_555
Np3_3 Np3_7 2.572728 1_455
Np3_3 Np3_7 2.572728 1_555
Np3_3 Si1_7 2.891956 1_455
Np3_3 Si1_3 2.891956 1_555
Np3_3 Si2_6 2.919501 1_455
Np3_3 Si2_2 2.919501 1_555
Np3_3 Si3_1 2.920051 1_555
Np3_3 Si0_1 3.033352 1_555
Np3_4 Si1_0 2.891956 1_555
Np3_4 Si1_4 2.891956 1_555
Np3_4 Si2_5 2.919501 1_554
Np3_4 Si2_1 2.919501 1_554
Np3_4 Si3_6 2.920051 1_545
Np3_4 Si0_6 3.033352 1_545
Np3_5 Si1_1 2.891956 1_555
Np3_5 Si1_5 2.891956 1_555
Np3_5 Si2_0 2.919501 1_555
Np3_5 Si2_4 2.919501 1_555
Np3_5 Si3_7 2.920051 1_545
Np3_5 Si0_7 3.033352 1_545
Np3_6 Si1_2 2.891956 1_555
Np3_6 Si1_6 2.891956 1_555
Np3_6 Si2_3 2.919501 1_554
Np3_6 Si2_7 2.919501 1_554
Np3_6 Si3_4 2.920051 1_555
Np3_6 Si0_4 3.033352 1_555
Np3_7 Si1_7 2.891956 1_555
Np3_7 Si1_3 2.891956 1_555
Np3_7 Si2_2 2.919501 1_555
Np3_7 Si2_6 2.919501 1_555
Np3_7 Si3_5 2.920051 1_555
Np3_7 Si0_5 3.033352 1_555
Si0_0 Si1_2 2.504780 1_555
Si0_0 Si1_6 2.504780 1_455
Si0_0 Si0_4 2.572728 1_455
Si0_0 Si0_4 2.572728 1_555
Si0_1 Si1_7 2.504780 1_455
Si0_1 Si1_3 2.504780 1_555
Si0_1 Si0_5 2.572728 1_555
Si0_1 Si0_5 2.572728 1_455
Si0_2 Si1_0 2.504780 1_565
Si0_2 Si1_4 2.504780 1_465
Si0_2 Si0_6 2.572728 1_455
Si0_2 Si0_6 2.572728 1_555
Si0_3 Si1_5 2.504780 1_465
Si0_3 Si1_1 2.504780 1_565
Si0_3 Si0_7 2.572728 1_555
Si0_3 Si0_7 2.572728 1_455
Si0_4 Si1_2 2.504780 1_555
Si0_4 Si1_6 2.504780 1_555
Si0_5 Si1_7 2.504780 1_555
Si0_5 Si1_3 2.504780 1_555
Si0_6 Si1_0 2.504780 1_565
Si0_6 Si1_4 2.504780 1_565
Si0_7 Si1_1 2.504780 1_565
Si0_7 Si1_5 2.504780 1_565
Si1_0 Si1_4 2.572728 1_555
Si1_0 Si1_4 2.572728 1_455
Si1_1 Si1_5 2.572728 1_555
Si1_1 Si1_5 2.572728 1_455
Si1_2 Si1_6 2.572728 1_555
Si1_2 Si1_6 2.572728 1_455
Si1_3 Si1_7 2.572728 1_555
Si1_3 Si1_7 2.572728 1_455
Si2_0 Si3_5 2.504780 1_555
Si2_0 Si3_1 2.504780 1_555
Si2_0 Si2_4 2.572728 1_555
Si2_0 Si2_4 2.572728 1_455
Si2_1 Si3_4 2.504780 1_556
Si2_1 Si3_0 2.504780 1_556
Si2_1 Si2_5 2.572728 1_555
Si2_1 Si2_5 2.572728 1_455
Si2_2 Si3_7 2.504780 1_555
Si2_2 Si3_3 2.504780 1_555
Si2_2 Si2_6 2.572728 1_555
Si2_2 Si2_6 2.572728 1_455
Si2_3 Si3_6 2.504780 1_556
Si2_3 Si3_2 2.504780 1_556
Si2_3 Si2_7 2.572728 1_555
Si2_3 Si2_7 2.572728 1_455
Si2_4 Si3_5 2.504780 1_555
Si2_4 Si3_1 2.504780 1_655
Si2_5 Si3_0 2.504780 1_656
Si2_5 Si3_4 2.504780 1_556
Si2_6 Si3_7 2.504780 1_555
Si2_6 Si3_3 2.504780 1_655
Si2_7 Si3_2 2.504780 1_656
Si2_7 Si3_6 2.504780 1_556
Si3_0 Si3_4 2.572728 1_555
Si3_0 Si3_4 2.572728 1_455
Si3_1 Si3_5 2.572728 1_555
Si3_1 Si3_5 2.572728 1_455
Si3_2 Si3_6 2.572728 1_555
Si3_2 Si3_6 2.572728 1_455
Si3_3 Si3_7 2.572728 1_455
Si3_3 Si3_7 2.572728 1_555
