# generated using pymatgen
data_Mg3Cu
_symmetry_space_group_name_H-M   'P 1'
_cell_length_a   11.29422823
_cell_length_b   11.29422823
_cell_length_c   11.29422823
_cell_angle_alpha   146.29609246
_cell_angle_beta   129.61011763
_cell_angle_gamma   61.99969118
_symmetry_Int_Tables_number   1
_chemical_formula_structural   Mg3Cu
_chemical_formula_sum   'Mg24 Cu8'
_cell_volume   609.60263263
_cell_formula_units_Z   8
loop_
 _symmetry_equiv_pos_site_id
 _symmetry_equiv_pos_as_xyz
  1  'x, y, z'
loop_
 _atom_site_type_symbol
 _atom_site_label
 _atom_site_symmetry_multiplicity
 _atom_site_fract_x
 _atom_site_fract_y
 _atom_site_fract_z
 _atom_site_occupancy
  Mg  Mg0_0  1  0.39973499  0.35885513  0.04087936  1
  Mg  Mg0_1  1  0.39973499  0.35885513  0.54087935  1
  Mg  Mg0_2  1  0.39973499  0.85885513  0.04087936  1
  Mg  Mg0_3  1  0.39973499  0.85885513  0.54087935  1
  Mg  Mg0_4  1  0.89973499  0.35885513  0.04087936  1
  Mg  Mg0_5  1  0.89973499  0.35885513  0.54087936  1
  Mg  Mg0_6  1  0.89973499  0.85885513  0.04087936  1
  Mg  Mg0_7  1  0.89973499  0.85885513  0.54087935  1
  Mg  Mg1_0  1  0.04204317  0.25000000  0.29204316  1
  Mg  Mg1_1  1  0.04204317  0.25000000  0.79204316  1
  Mg  Mg1_2  1  0.04204316  0.75000000  0.29204316  1
  Mg  Mg1_3  1  0.04204317  0.75000000  0.79204316  1
  Mg  Mg1_4  1  0.54204316  0.25000000  0.29204316  1
  Mg  Mg1_5  1  0.54204316  0.25000000  0.79204316  1
  Mg  Mg1_6  1  0.54204316  0.75000000  0.29204316  1
  Mg  Mg1_7  1  0.54204316  0.75000000  0.79204316  1
  Mg  Mg2_0  1  0.18202422  0.14114487  0.04087935  1
  Mg  Mg2_1  1  0.18202422  0.14114487  0.54087936  1
  Mg  Mg2_2  1  0.18202422  0.64114487  0.04087936  1
  Mg  Mg2_3  1  0.18202422  0.64114487  0.54087935  1
  Mg  Mg2_4  1  0.68202422  0.14114486  0.04087936  1
  Mg  Mg2_5  1  0.68202422  0.14114487  0.54087935  1
  Mg  Mg2_6  1  0.68202422  0.64114487  0.04087935  1
  Mg  Mg2_7  1  0.68202422  0.64114487  0.54087936  1
  Cu  Cu0_0  1  0.29286112  0.00000000  0.29286112  1
  Cu  Cu0_1  1  0.29286112  0.00000000  0.79286113  1
  Cu  Cu0_2  1  0.29286112  0.50000000  0.29286112  1
  Cu  Cu0_3  1  0.29286112  0.50000000  0.79286113  1
  Cu  Cu0_4  1  0.79286113  0.00000000  0.29286112  1
  Cu  Cu0_5  1  0.79286112  0.00000000  0.79286112  1
  Cu  Cu0_6  1  0.79286112  0.50000000  0.29286112  1
  Cu  Cu0_7  1  0.79286112  0.50000000  0.79286113  1
loop_
_geom_bond_atom_site_label_1
_geom_bond_atom_site_label_2
_geom_bond_distance
_geom_bond_site_symmetry_2
Mg0_0 Mg2_4 2.974899 1_555
Mg0_0 Mg2_7 2.974900 1_555
Mg0_0 Mg2_1 2.974903 1_554
Mg0_0 Mg2_2 2.974904 1_555
Mg0_0 Mg1_5 3.185706 1_554
Mg0_0 Mg1_6 3.185708 1_555
Mg0_0 Mg1_1 3.188682 1_554
Mg0_0 Mg1_4 3.205508 1_555
Mg0_0 Mg0_3 3.274194 1_555
Mg0_0 Mg0_3 3.274194 1_544
Mg0_1 Mg2_5 2.974899 1_555
Mg0_1 Mg2_6 2.974900 1_556
Mg0_1 Mg2_0 2.974903 1_555
Mg0_1 Mg2_3 2.974904 1_555
Mg0_1 Mg1_4 3.185706 1_555
Mg0_1 Mg1_7 3.185708 1_555
Mg0_1 Mg1_0 3.188682 1_555
Mg0_1 Mg1_5 3.205508 1_555
Mg0_1 Mg0_2 3.274194 1_545
Mg0_1 Mg0_2 3.274194 1_556
Mg0_2 Mg2_6 2.974899 1_555
Mg0_2 Mg2_5 2.974900 1_565
Mg0_2 Mg2_3 2.974903 1_554
Mg0_2 Mg2_0 2.974904 1_565
Mg0_2 Mg1_7 3.185706 1_554
Mg0_2 Mg1_4 3.185708 1_565
Mg0_2 Mg1_3 3.188682 1_554
Mg0_2 Mg1_6 3.205508 1_555
Mg0_3 Mg2_7 2.974899 1_555
Mg0_3 Mg2_4 2.974900 1_566
Mg0_3 Mg2_2 2.974903 1_555
Mg0_3 Mg2_1 2.974904 1_565
Mg0_3 Mg1_6 3.185706 1_555
Mg0_3 Mg1_5 3.185708 1_565
Mg0_3 Mg1_2 3.188682 1_555
Mg0_3 Mg1_7 3.205508 1_555
Mg0_4 Mg2_0 2.974899 1_655
Mg0_4 Mg2_3 2.974900 1_655
Mg0_4 Mg2_5 2.974903 1_554
Mg0_4 Mg2_6 2.974904 1_555
Mg0_4 Mg1_1 3.185706 1_654
Mg0_4 Mg1_2 3.185708 1_655
Mg0_4 Mg1_5 3.188682 1_554
Mg0_4 Mg1_0 3.205508 1_655
Mg0_4 Mg0_7 3.274194 1_555
Mg0_4 Mg0_7 3.274194 1_544
Mg0_5 Mg2_1 2.974899 1_655
Mg0_5 Mg2_2 2.974900 1_656
Mg0_5 Mg2_4 2.974903 1_555
Mg0_5 Mg2_7 2.974904 1_555
Mg0_5 Mg1_0 3.185706 1_655
Mg0_5 Mg1_3 3.185708 1_655
Mg0_5 Mg1_4 3.188682 1_555
Mg0_5 Mg1_1 3.205508 1_655
Mg0_5 Mg0_6 3.274194 1_556
Mg0_5 Mg0_6 3.274194 1_545
Mg0_6 Mg2_2 2.974899 1_655
Mg0_6 Mg2_1 2.974900 1_665
Mg0_6 Mg2_7 2.974903 1_554
Mg0_6 Mg2_4 2.974904 1_565
Mg0_6 Mg1_3 3.185706 1_654
Mg0_6 Mg1_0 3.185708 1_665
Mg0_6 Mg1_7 3.188682 1_554
Mg0_6 Mg1_2 3.205508 1_655
Mg0_7 Mg2_3 2.974899 1_655
Mg0_7 Mg2_0 2.974900 1_666
Mg0_7 Mg2_6 2.974903 1_555
Mg0_7 Mg2_5 2.974904 1_565
Mg0_7 Mg1_2 3.185706 1_655
Mg0_7 Mg1_1 3.185708 1_665
Mg0_7 Mg1_6 3.188682 1_555
Mg0_7 Mg1_3 3.205508 1_655
Mg1_0 Mg2_0 3.185711 1_555
Mg1_0 Mg2_3 3.185711 1_555
Mg1_0 Mg2_1 3.188677 1_555
Mg1_0 Mg2_4 3.205507 1_455
Mg1_0 Mg1_3 3.274194 1_555
Mg1_0 Mg1_3 3.274194 1_544
Mg1_1 Mg2_1 3.185711 1_555
Mg1_1 Mg2_2 3.185711 1_556
Mg1_1 Mg2_0 3.188677 1_556
Mg1_1 Mg2_5 3.205507 1_455
Mg1_1 Mg1_2 3.274194 1_545
Mg1_1 Mg1_2 3.274194 1_556
Mg1_2 Mg2_2 3.185711 1_555
Mg1_2 Mg2_1 3.185711 1_565
Mg1_2 Mg2_3 3.188677 1_555
Mg1_2 Mg2_6 3.205507 1_455
Mg1_3 Mg2_0 3.185711 1_566
Mg1_3 Mg2_3 3.185711 1_555
Mg1_3 Mg2_2 3.188677 1_556
Mg1_3 Mg2_7 3.205507 1_455
Mg1_4 Mg2_7 3.185711 1_555
Mg1_4 Mg2_4 3.185711 1_555
Mg1_4 Mg2_5 3.188677 1_555
Mg1_4 Mg2_0 3.205507 1_555
Mg1_4 Mg1_7 3.274194 1_555
Mg1_4 Mg1_7 3.274194 1_544
Mg1_5 Mg2_5 3.185711 1_555
Mg1_5 Mg2_6 3.185711 1_556
Mg1_5 Mg2_4 3.188677 1_556
Mg1_5 Mg2_1 3.205507 1_555
Mg1_5 Mg1_6 3.274194 1_545
Mg1_5 Mg1_6 3.274194 1_556
Mg1_6 Mg2_5 3.185711 1_565
Mg1_6 Mg2_6 3.185711 1_555
Mg1_6 Mg2_7 3.188677 1_555
Mg1_6 Mg2_2 3.205507 1_555
Mg1_7 Mg2_7 3.185711 1_555
Mg1_7 Mg2_4 3.185711 1_566
Mg1_7 Mg2_6 3.188677 1_556
Mg1_7 Mg2_3 3.205507 1_555
Mg2_0 Mg2_3 3.274194 1_555
Mg2_0 Mg2_3 3.274194 1_544
Mg2_1 Mg2_2 3.274194 1_556
Mg2_1 Mg2_2 3.274194 1_545
Mg2_4 Mg2_7 3.274194 1_544
Mg2_4 Mg2_7 3.274194 1_555
Mg2_5 Mg2_6 3.274194 1_556
Mg2_5 Mg2_6 3.274194 1_545
Cu0_0 Mg2_2 2.668840 1_545
Cu0_0 Mg2_1 2.668840 1_555
Cu0_0 Mg0_1 2.668842 1_555
Cu0_0 Mg0_2 2.668844 1_545
Cu0_0 Mg1_5 2.901968 1_555
Cu0_0 Mg1_6 2.901968 1_545
Cu0_0 Mg1_3 2.914970 1_544
Cu0_0 Mg1_0 2.914970 1_555
Cu0_1 Mg2_0 2.668840 1_556
Cu0_1 Mg2_3 2.668840 1_545
Cu0_1 Mg0_0 2.668842 1_556
Cu0_1 Mg0_3 2.668844 1_545
Cu0_1 Mg1_4 2.901968 1_556
Cu0_1 Mg1_7 2.901968 1_545
Cu0_1 Mg1_1 2.914970 1_555
Cu0_1 Mg1_2 2.914970 1_545
Cu0_2 Mg2_3 2.668840 1_555
Cu0_2 Mg2_0 2.668840 1_555
Cu0_2 Mg0_3 2.668842 1_555
Cu0_2 Mg0_0 2.668844 1_555
Cu0_2 Mg1_4 2.901968 1_555
Cu0_2 Mg1_7 2.901968 1_555
Cu0_2 Mg1_1 2.914970 1_554
Cu0_2 Mg1_2 2.914970 1_555
Cu0_3 Mg2_2 2.668840 1_556
Cu0_3 Mg2_1 2.668840 1_555
Cu0_3 Mg0_2 2.668842 1_556
Cu0_3 Mg0_1 2.668844 1_555
Cu0_3 Mg1_5 2.901968 1_555
Cu0_3 Mg1_6 2.901968 1_556
Cu0_3 Mg1_3 2.914970 1_555
Cu0_3 Mg1_0 2.914970 1_555
Cu0_4 Mg2_6 2.668840 1_545
Cu0_4 Mg2_5 2.668840 1_555
Cu0_4 Mg0_5 2.668842 1_555
Cu0_4 Mg0_6 2.668844 1_545
Cu0_4 Mg1_2 2.901968 1_645
Cu0_4 Mg1_1 2.901968 1_655
Cu0_4 Mg1_7 2.914970 1_544
Cu0_4 Mg1_4 2.914970 1_555
Cu0_5 Mg2_4 2.668840 1_556
Cu0_5 Mg2_7 2.668840 1_545
Cu0_5 Mg0_4 2.668842 1_556
Cu0_5 Mg0_7 2.668844 1_545
Cu0_5 Mg1_0 2.901968 1_656
Cu0_5 Mg1_3 2.901968 1_645
Cu0_5 Mg1_6 2.914970 1_545
Cu0_5 Mg1_5 2.914970 1_555
Cu0_6 Mg2_4 2.668840 1_555
Cu0_6 Mg2_7 2.668840 1_555
Cu0_6 Mg0_7 2.668842 1_555
Cu0_6 Mg0_4 2.668844 1_555
Cu0_6 Mg1_3 2.901968 1_655
Cu0_6 Mg1_0 2.901968 1_655
Cu0_6 Mg1_5 2.914970 1_554
Cu0_6 Mg1_6 2.914970 1_555
Cu0_7 Mg2_6 2.668840 1_556
Cu0_7 Mg2_5 2.668840 1_555
Cu0_7 Mg0_6 2.668842 1_556
Cu0_7 Mg0_5 2.668844 1_555
Cu0_7 Mg1_2 2.901968 1_656
Cu0_7 Mg1_1 2.901968 1_655
Cu0_7 Mg1_4 2.914970 1_555
Cu0_7 Mg1_7 2.914970 1_555
