# generated using pymatgen
data_Na4Mg(MoO4)2
_symmetry_space_group_name_H-M   'P 1'
_cell_length_a   6.79101450
_cell_length_b   6.56497553
_cell_length_c   6.56497500
_cell_angle_alpha   59.99999764
_cell_angle_beta   61.09508177
_cell_angle_gamma   61.09507942
_symmetry_Int_Tables_number   1
_chemical_formula_structural   Na4Mg(MoO4)2
_chemical_formula_sum   'Na4 Mg1 Mo2 O8'
_cell_volume   210.31945062
_cell_formula_units_Z   1
loop_
 _symmetry_equiv_pos_site_id
 _symmetry_equiv_pos_as_xyz
  1  'x, y, z'
loop_
 _atom_site_type_symbol
 _atom_site_label
 _atom_site_symmetry_multiplicity
 _atom_site_fract_x
 _atom_site_fract_y
 _atom_site_fract_z
 _atom_site_occupancy
  Na  Na0  1  0.00000000  0.00000000  0.00000000  1
  Na  Na1  1  0.00000000  0.00000000  0.50000000  1
  Na  Na2  1  0.00000000  0.50000000  0.00000000  1
  Na  Na3  1  0.50000000  0.00000000  0.00000000  1
  Mg  Mg0  1  0.00000000  0.50000000  0.50000000  1
  Mo  Mo0  1  0.45341500  0.34886200  0.34886200  1
  Mo  Mo1  1  0.54658500  0.65113800  0.65113800  1
  O  O0  1  0.73451300  0.72844700  0.72844700  1
  O  O1  1  0.26548700  0.27155300  0.69140800  1
  O  O2  1  0.26548700  0.69140800  0.27155300  1
  O  O3  1  0.77627000  0.24124400  0.24124400  1
  O  O4  1  0.73451300  0.30859200  0.72844700  1
  O  O5  1  0.22373000  0.75875600  0.75875600  1
  O  O6  1  0.26548700  0.27155300  0.27155300  1
  O  O7  1  0.73451300  0.72844700  0.30859200  1
loop_
_geom_bond_atom_site_label_1
_geom_bond_atom_site_label_2
_geom_bond_distance
_geom_bond_site_symmetry_2
Na0 O3 2.276166 1_455
Na0 O5 2.276166 1_544
Na0 O2 2.549021 1_545
Na0 O4 2.549021 1_454
Na0 O1 2.549021 1_554
Na0 O7 2.549021 1_445
Na1 O3 2.276157 1_455
Na1 O5 2.276157 1_545
Na1 O4 2.549017 1_455
Na1 O2 2.549017 1_545
Na1 O0 2.549022 1_445
Na1 O6 2.549022 1_555
Na2 O5 2.276157 1_554
Na2 O3 2.276157 1_455
Na2 O7 2.549017 1_455
Na2 O1 2.549017 1_554
Na2 O6 2.549022 1_555
Na2 O0 2.549022 1_454
Na3 O7 2.565434 1_545
Na3 O1 2.565434 1_554
Na3 O2 2.565434 1_545
Na3 O4 2.565434 1_554
Na3 O6 2.565439 1_555
Na3 O0 2.565439 1_544
Mg0 O0 2.184127 1_455
Mg0 O6 2.184127 1_555
Mg0 O1 2.184131 1_555
Mg0 O7 2.184131 1_455
Mg0 O2 2.184131 1_555
Mg0 O4 2.184131 1_455
Mo0 O3 1.819241 1_555
Mo0 O1 1.911500 1_555
Mo0 O2 1.911500 1_555
Mo0 O6 1.911501 1_555
Mo1 O5 1.819241 1_555
Mo1 O7 1.911500 1_555
Mo1 O4 1.911500 1_555
Mo1 O0 1.911501 1_555
