# generated using pymatgen
data_Na3ScZnSi(SO6)2
_symmetry_space_group_name_H-M   'P 1'
_cell_length_a   9.04712145
_cell_length_b   9.13258009
_cell_length_c   22.40125815
_cell_angle_alpha   89.13978429
_cell_angle_beta   90.00000000
_cell_angle_gamma   119.69093422
_symmetry_Int_Tables_number   1
_chemical_formula_structural   Na3ScZnSi(SO6)2
_chemical_formula_sum   'Na18 Sc6 Zn6 Si6 S12 O72'
_cell_volume   1607.63046229
_cell_formula_units_Z   6
loop_
 _symmetry_equiv_pos_site_id
 _symmetry_equiv_pos_as_xyz
  1  'x, y, z'
loop_
 _atom_site_type_symbol
 _atom_site_label
 _atom_site_symmetry_multiplicity
 _atom_site_fract_x
 _atom_site_fract_y
 _atom_site_fract_z
 _atom_site_occupancy
  Na  Na0  1  0.63377377  0.01109870  0.25158935  1
  Na  Na1  1  0.00327589  0.63864162  0.23736977  1
  Na  Na2  1  0.63536572  0.63864162  0.73736977  1
  Na  Na3  1  0.37732493  0.01109870  0.75158935  1
  Na  Na4  1  0.31835141  0.34857079  0.58592760  1
  Na  Na5  1  0.65190046  0.94386801  0.57797423  1
  Na  Na6  1  0.29196855  0.94386801  0.07797423  1
  Na  Na7  1  0.03022038  0.34857079  0.08592760  1
  Na  Na8  1  0.98420824  0.68430396  0.92414275  1
  Na  Na9  1  0.69178678  0.02687131  0.90458738  1
  Na  Na10  1  0.33508353  0.02687131  0.40458738  1
  Na  Na11  1  0.70009473  0.68430396  0.42414275  1
  Na  Na12  1  0.97529001  0.98725615  0.49418941  1
  Na  Na13  1  0.01196614  0.98725615  0.99418941  1
  Na  Na14  1  0.65959123  0.30934152  0.82827961  1
  Na  Na15  1  0.64975129  0.30934152  0.32827961  1
  Na  Na16  1  0.33237880  0.66116647  0.16235587  1
  Na  Na17  1  0.32878667  0.66116647  0.66235587  1
  Sc  Sc0  1  0.97963897  0.98273985  0.64766101  1
  Sc  Sc1  1  0.00310088  0.98273985  0.14766101  1
  Sc  Sc2  1  0.66040943  0.33575496  0.98241759  1
  Sc  Sc3  1  0.67534654  0.33575496  0.48241759  1
  Sc  Sc4  1  0.34101562  0.68403548  0.31694889  1
  Sc  Sc5  1  0.34301885  0.68403548  0.81694889  1
  Zn  Zn0  1  0.01026132  0.01540866  0.34734055  1
  Zn  Zn1  1  0.00514735  0.01540866  0.84734055  1
  Zn  Zn2  1  0.67833800  0.33219884  0.68128880  1
  Zn  Zn3  1  0.65386184  0.33219884  0.18128880  1
  Zn  Zn4  1  0.30452099  0.67304429  0.01247246  1
  Zn  Zn5  1  0.36852229  0.67304429  0.51247246  1
  Si  Si0  1  0.30189843  0.00736323  0.25258798  1
  Si  Si1  1  0.70546481  0.00736323  0.75258798  1
  Si  Si2  1  0.66489045  0.62299444  0.58505895  1
  Si  Si3  1  0.95810499  0.62299444  0.08505895  1
  Si  Si4  1  0.32859122  0.97622886  0.91588969  1
  Si  Si5  1  0.64763664  0.97622886  0.41588969  1
  S  S0  1  0.70205613  0.70248652  0.25308324  1
  S  S1  1  0.00325967  0.29859817  0.24852484  1
  S  S2  1  0.29533849  0.29859817  0.74852484  1
  S  S3  1  0.00043040  0.70248652  0.75308324  1
  S  S4  1  0.96905305  0.33557354  0.58421406  1
  S  S5  1  0.36670783  0.03608570  0.58413968  1
  S  S6  1  0.66937886  0.03608570  0.08413968  1
  S  S7  1  0.36652150  0.33557354  0.08421406  1
  S  S8  1  0.62015556  0.66128318  0.91873632  1
  S  S9  1  0.03797727  0.37074709  0.91986314  1
  S  S10  1  0.33276882  0.37074709  0.41986314  1
  S  S11  1  0.04112662  0.66128318  0.41873632  1
  O  O0  1  0.21353179  0.02146896  0.31399158  1
  O  O1  1  0.79819625  0.77870426  0.30803692  1
  O  O2  1  0.97856659  0.18937095  0.30093803  1
  O  O3  1  0.21080437  0.18937095  0.80093803  1
  O  O4  1  0.98050800  0.77870426  0.80803692  1
  O  O5  1  0.80793718  0.02146896  0.81399158  1
  O  O6  1  0.79760729  0.97601300  0.69423265  1
  O  O7  1  0.20264610  0.21885616  0.69255934  1
  O  O8  1  0.02973520  0.81743433  0.70039754  1
  O  O9  1  0.78769913  0.81743433  0.20039754  1
  O  O10  1  0.01621007  0.21885616  0.19255934  1
  O  O11  1  0.17840571  0.97601300  0.19423265  1
  O  O12  1  0.89099608  0.35147352  0.63923476  1
  O  O13  1  0.47040508  0.10955602  0.63831872  1
  O  O14  1  0.64190322  0.50926752  0.64487781  1
  O  O15  1  0.86736530  0.50926752  0.14487781  1
  O  O16  1  0.63915194  0.10955602  0.13831872  1
  O  O17  1  0.46047844  0.35147352  0.13923476  1
  O  O18  1  0.44902776  0.30405036  0.03180149  1
  O  O19  1  0.85095628  0.52818271  0.02471715  1
  O  O20  1  0.68700632  0.14341725  0.03024732  1
  O  O21  1  0.45641193  0.14341725  0.53024732  1
  O  O22  1  0.67722742  0.52818271  0.52471715  1
  O  O23  1  0.85502360  0.30405036  0.53180149  1
  O  O24  1  0.52244602  0.66848390  0.96971083  1
  O  O25  1  0.12941363  0.44268095  0.97624241  1
  O  O26  1  0.29230800  0.86238347  0.97745232  1
  O  O27  1  0.57007447  0.86238347  0.47745232  1
  O  O28  1  0.31326632  0.44268095  0.47624241  1
  O  O29  1  0.14603689  0.66848390  0.46971083  1
  O  O30  1  0.11720034  0.64638201  0.36135676  1
  O  O31  1  0.51783719  0.87888420  0.35880111  1
  O  O32  1  0.34557652  0.47920488  0.36798978  1
  O  O33  1  0.13362735  0.47920488  0.86798978  1
  O  O34  1  0.36104601  0.87888420  0.85880111  1
  O  O35  1  0.52918066  0.64638201  0.86135676  1
  O  O36  1  0.02437453  0.81570921  0.41728365  1
  O  O37  1  0.83115977  0.98400014  0.40683560  1
  O  O38  1  0.19116273  0.19609745  0.41624762  1
  O  O39  1  0.00493472  0.19609745  0.91624762  1
  O  O40  1  0.15284037  0.98400014  0.90683560  1
  O  O41  1  0.79133468  0.81570921  0.91728365  1
  O  O42  1  0.99066206  0.18096934  0.58757780  1
  O  O43  1  0.20235956  0.03740942  0.58814500  1
  O  O44  1  0.82978116  0.81877126  0.58647802  1
  O  O45  1  0.98899009  0.81877126  0.08647802  1
  O  O46  1  0.83504986  0.03740942  0.08814500  1
  O  O47  1  0.19030728  0.18096934  0.08757780  1
  O  O48  1  0.66836876  0.16514091  0.74452949  1
  O  O49  1  0.47074870  0.32132782  0.74747853  1
  O  O50  1  0.84686823  0.53678133  0.74601731  1
  O  O51  1  0.68991410  0.53678133  0.24601731  1
  O  O52  1  0.85058011  0.32132782  0.24747853  1
  O  O53  1  0.49677315  0.16514091  0.24452949  1
  O  O54  1  0.64820810  0.51260802  0.92119118  1
  O  O55  1  0.86774246  0.36536874  0.91982079  1
  O  O56  1  0.51053114  0.15586845  0.92072168  1
  O  O57  1  0.64533831  0.15586845  0.42072168  1
  O  O58  1  0.49762728  0.36536874  0.41982079  1
  O  O59  1  0.86440092  0.51260802  0.42119118  1
  O  O60  1  0.34545637  0.48418022  0.07573930  1
  O  O61  1  0.15216335  0.64354305  0.08359492  1
  O  O62  1  0.52543685  0.86345808  0.07787312  1
  O  O63  1  0.33802024  0.86345808  0.57787312  1
  O  O64  1  0.49137870  0.64354305  0.58359492  1
  O  O65  1  0.13872285  0.48418022  0.57573930  1
  O  O66  1  0.31386503  0.82810166  0.25447752  1
  O  O67  1  0.52827701  0.68490247  0.25543794  1
  O  O68  1  0.15828205  0.46898664  0.25300084  1
  O  O69  1  0.31070359  0.46898664  0.75300084  1
  O  O70  1  0.15662447  0.68490247  0.75543794  1
  O  O71  1  0.51423563  0.82810166  0.75447752  1
loop_
_geom_bond_atom_site_label_1
_geom_bond_atom_site_label_2
_geom_bond_distance
_geom_bond_site_symmetry_2
Na0 O53 2.293698 1_555
Na0 O52 2.523841 1_555
Na0 O66 2.525659 1_545
Na0 O67 2.639794 1_545
Na0 O31 2.642816 1_545
Na0 O16 2.671600 1_555
Na0 O2 2.937043 1_555
Na0 O9 2.980492 1_545
Na1 O15 2.415601 1_455
Na1 O66 2.497979 1_555
Na1 O51 2.514405 1_455
Na1 O52 2.524269 1_455
Na1 O68 2.574102 1_555
Na1 O11 2.830503 1_555
Na1 O30 2.952176 1_555
Na2 O14 2.415603 1_555
Na2 O71 2.497986 1_555
Na2 O50 2.514414 1_555
Na2 O49 2.524268 1_555
Na2 O69 2.574109 1_555
Na2 O6 2.830503 1_555
Na2 O35 2.952179 1_555
Na3 O48 2.293706 1_555
Na3 O49 2.523839 1_555
Na3 O71 2.525651 1_545
Na3 O70 2.639796 1_545
Na3 O34 2.642814 1_545
Na3 O13 2.671602 1_555
Na3 O3 2.937043 1_555
Na3 O8 2.980492 1_545
Na4 O64 2.351243 1_555
Na4 O65 2.492436 1_555
Na4 O43 2.494111 1_555
Na4 O42 2.576103 1_455
Na4 O28 2.598815 1_555
Na4 O7 2.625171 1_555
Na5 O27 2.382659 1_555
Na5 O64 2.385639 1_555
Na5 O44 2.397122 1_555
Na5 O63 2.556846 1_555
Na5 O42 2.750965 1_565
Na5 O6 2.871594 1_555
Na6 O26 2.382656 1_554
Na6 O61 2.385638 1_555
Na6 O45 2.397130 1_455
Na6 O62 2.556829 1_555
Na6 O47 2.750972 1_565
Na6 O11 2.871598 1_555
Na7 O61 2.351245 1_555
Na7 O60 2.492419 1_555
Na7 O46 2.494112 1_455
Na7 O47 2.576095 1_555
Na7 O25 2.598811 1_554
Na7 O10 2.625169 1_555
Na8 O40 2.408442 1_655
Na8 O55 2.563508 1_555
Na8 O41 2.564675 1_555
Na8 O19 2.600572 1_556
Na8 O54 2.642886 1_555
Na8 O26 2.721806 1_655
Na8 O4 2.733203 1_555
Na9 O5 2.297770 1_555
Na9 O56 2.476720 1_555
Na9 O39 2.481478 1_655
Na9 O41 2.512974 1_545
Na9 O55 2.713608 1_555
Na9 O34 2.804917 1_545
Na10 O0 2.297765 1_555
Na10 O57 2.476737 1_555
Na10 O38 2.481470 1_555
Na10 O36 2.512967 1_545
Na10 O58 2.713607 1_555
Na10 O31 2.804917 1_545
Na11 O37 2.408441 1_555
Na11 O58 2.563506 1_555
Na11 O36 2.564683 1_655
Na11 O22 2.600575 1_555
Na11 O59 2.642901 1_555
Na11 O27 2.721806 1_555
Na11 O1 2.733205 1_555
Na12 O37 2.343874 1_555
Na12 O44 2.504498 1_555
Na12 O36 2.527821 1_655
Na12 O38 2.590442 1_665
Na12 O42 2.719006 1_565
Na12 O43 2.820765 1_665
Na13 O40 2.343874 1_555
Na13 O45 2.504498 1_456
Na13 O41 2.527821 1_455
Na13 O39 2.590442 1_565
Na13 O47 2.719006 1_566
Na13 O46 2.820765 1_466
Na14 O48 2.331986 1_555
Na14 O56 2.472205 1_555
Na14 O49 2.527148 1_555
Na14 O50 2.641904 1_555
Na14 O55 2.662744 1_555
Na14 O54 2.844994 1_555
Na15 O53 2.331986 1_555
Na15 O57 2.472205 1_555
Na15 O52 2.527148 1_555
Na15 O51 2.641904 1_555
Na15 O58 2.662744 1_555
Na15 O59 2.844994 1_555
Na16 O61 2.354929 1_555
Na16 O60 2.583605 1_555
Na16 O62 2.596882 1_555
Na16 O68 2.615121 1_555
Na16 O66 2.637869 1_555
Na16 O67 2.677488 1_555
Na17 O64 2.354929 1_555
Na17 O65 2.583605 1_555
Na17 O63 2.596881 1_555
Na17 O69 2.615121 1_555
Na17 O71 2.637869 1_555
Na17 O70 2.677488 1_555
O0 Si0 1.629458 1_555
O0 Zn0 1.959861 1_555
O1 S0 1.477310 1_555
O1 Zn0 2.253376 1_665
O2 S1 1.472276 1_655
O2 Zn0 2.022001 1_655
O3 S2 1.472276 1_555
O3 Zn1 2.022001 1_555
O4 S3 1.477310 1_655
O4 Zn1 2.253376 1_665
O5 Si1 1.629458 1_555
O5 Zn1 1.959861 1_655
O6 Si1 1.653311 1_565
O6 Sc0 1.924105 1_555
O7 S2 1.492573 1_555
O7 Sc0 2.342494 1_445
O8 S3 1.500775 1_555
O8 Sc0 2.122356 1_455
O9 S0 1.500775 1_555
O9 Sc1 2.122356 1_655
O10 S1 1.492573 1_555
O10 Sc1 2.342494 1_545
O11 Si0 1.653311 1_565
O11 Sc1 1.924105 1_555
O12 S4 1.464885 1_555
O12 Zn2 2.068707 1_555
O13 S5 1.484665 1_555
O13 Zn2 2.206650 1_555
O14 Si2 1.631521 1_555
O14 Zn2 1.969108 1_555
O15 Si3 1.631521 1_555
O15 Zn3 1.969108 1_555
O16 S6 1.484665 1_555
O16 Zn3 2.206650 1_555
O17 S7 1.464885 1_555
O17 Zn3 2.068707 1_555
O18 S7 1.497203 1_555
O18 Sc2 2.099225 1_554
O19 Si3 1.649322 1_555
O19 Sc2 2.001715 1_554
O20 S6 1.501110 1_555
O20 Sc2 2.157204 1_554
O21 S5 1.501110 1_555
O21 Sc3 2.157204 1_555
O22 Si2 1.649322 1_555
O22 Sc3 2.001715 1_555
O23 S4 1.497203 1_555
O23 Sc3 2.099225 1_555
O24 S8 1.466126 1_555
O24 Zn4 2.211122 1_556
O25 S9 1.482406 1_555
O25 Zn4 2.084232 1_556
O26 Si4 1.646040 1_555
O26 Zn4 1.940659 1_556
O27 Si5 1.646040 1_555
O27 Zn5 1.940659 1_555
O28 S10 1.482406 1_555
O28 Zn5 2.084232 1_555
O29 S11 1.466126 1_555
O29 Zn5 2.211122 1_555
O30 S11 1.497474 1_555
O30 Sc4 2.123195 1_555
O31 Si5 1.674738 1_555
O31 Sc4 1.958237 1_555
O32 S10 1.482082 1_555
O32 Sc4 2.195570 1_555
O33 S9 1.482082 1_555
O33 Sc5 2.195570 1_555
O34 Si4 1.674738 1_555
O34 Sc5 1.958237 1_555
O35 S8 1.497474 1_555
O35 Sc5 2.123195 1_555
O36 S11 1.491095 1_555
O36 Zn0 2.437670 1_565
O37 Si5 1.638837 1_555
O37 Zn0 2.003040 1_665
O38 S10 1.473593 1_555
O38 Zn0 2.277138 1_555
O39 S9 1.473596 1_555
O39 Zn1 2.277138 1_555
O40 Si4 1.638829 1_555
O40 Zn1 2.003040 1_565
O41 S8 1.491100 1_555
O41 Zn1 2.437670 1_665
O42 S4 1.519116 1_555
O42 Sc0 2.201554 1_545
O43 S5 1.495608 1_555
O43 Sc0 2.251740 1_445
O44 Si2 1.668120 1_555
O44 Sc0 2.002348 1_555
O45 Si3 1.668123 1_555
O45 Sc1 2.002348 1_655
O46 S6 1.495599 1_555
O46 Sc1 2.251740 1_645
O47 S7 1.519122 1_555
O47 Sc1 2.201554 1_545
O48 Si1 1.640951 1_555
O48 Zn2 2.035079 1_555
O49 S2 1.495188 1_555
O49 Zn2 2.355085 1_555
O50 S3 1.473005 1_655
O50 Zn2 2.275373 1_555
O51 S0 1.473009 1_555
O51 Zn3 2.275373 1_555
O52 S1 1.495179 1_655
O52 Zn3 2.355085 1_555
O53 Si0 1.640957 1_555
O53 Zn3 2.035079 1_555
O54 S8 1.500052 1_555
O54 Sc2 2.147572 1_555
O55 S9 1.516407 1_655
O55 Sc2 2.245885 1_555
O56 Si4 1.656135 1_545
O56 Sc2 2.075822 1_555
O57 Si5 1.656126 1_545
O57 Sc3 2.075822 1_555
O58 S10 1.516425 1_555
O58 Sc3 2.245885 1_555
O59 S11 1.500041 1_655
O59 Sc3 2.147572 1_555
O60 S7 1.470626 1_555
O60 Zn4 2.383311 1_555
O61 Si3 1.670956 1_455
O61 Zn4 2.032283 1_555
O62 S6 1.474398 1_565
O62 Zn4 2.407996 1_555
O63 S5 1.474392 1_565
O63 Zn5 2.407996 1_555
O64 Si2 1.670974 1_555
O64 Zn5 2.032283 1_555
O65 S4 1.470615 1_455
O65 Zn5 2.383311 1_555
O66 Si0 1.693274 1_565
O66 Sc4 2.003669 1_555
O67 S0 1.500006 1_555
O67 Sc4 2.180677 1_555
O68 S1 1.497053 1_555
O68 Sc4 2.347413 1_555
O69 S2 1.497057 1_555
O69 Sc5 2.347413 1_555
O70 S3 1.499997 1_555
O70 Sc5 2.180677 1_555
O71 Si1 1.693279 1_565
O71 Sc5 2.003669 1_555
