# generated using pymatgen
data_Sr2MgCo2O5
_symmetry_space_group_name_H-M   'P 1'
_cell_length_a   7.85069871
_cell_length_b   5.90370066
_cell_length_c   5.46481313
_cell_angle_alpha   69.23106345
_cell_angle_beta   45.46249419
_cell_angle_gamma   53.82443990
_symmetry_Int_Tables_number   1
_chemical_formula_structural   Sr2MgCo2O5
_chemical_formula_sum   'Sr2 Mg1 Co2 O5'
_cell_volume   144.95452641
_cell_formula_units_Z   1
loop_
 _symmetry_equiv_pos_site_id
 _symmetry_equiv_pos_as_xyz
  1  'x, y, z'
loop_
 _atom_site_type_symbol
 _atom_site_label
 _atom_site_symmetry_multiplicity
 _atom_site_fract_x
 _atom_site_fract_y
 _atom_site_fract_z
 _atom_site_occupancy
  Sr  Sr0  1  0.14456756  0.54641662  0.52253381  1
  Sr  Sr1  1  0.55492879  0.77607299  0.43331567  1
  Mg  Mg0  1  0.74250933  0.19043392  0.66602058  1
  Co  Co0  1  0.94959948  0.99566931  0.03677821  1
  Co  Co1  1  0.27720032  0.17320683  0.05708896  1
  O  O0  1  0.60249197  0.16916476  0.14097948  1
  O  O1  1  0.26551893  0.55820484  0.93139186  1
  O  O2  1  0.67541768  0.90524970  0.67515238  1
  O  O3  1  0.13354322  0.00684113  0.50554515  1
  O  O4  1  0.93589671  0.29486890  0.14888691  1
loop_
_geom_bond_atom_site_label_1
_geom_bond_atom_site_label_2
_geom_bond_distance
_geom_bond_site_symmetry_2
Mg0 O0 1.972459 1_556
Mg0 O2 2.016185 1_545
Mg0 O3 2.082706 1_655
Mg0 O4 2.126589 1_555
Mg0 O1 2.420138 1_555
Co0 O0 1.934195 1_565
Co0 O4 1.989407 1_565
Co0 O3 2.147914 1_664
Co0 O1 2.154651 1_654
Co0 O2 2.567237 1_555
Co1 O3 1.991518 1_555
Co1 O2 1.995660 1_544
Co1 O4 2.011253 1_455
Co1 O1 2.093184 1_554
O0 Sr0 2.357640 1_555
O0 Sr1 2.373634 1_545
O1 Sr1 2.552914 1_555
O1 Sr0 2.637822 1_556
O1 Sr0 3.010503 1_555
O2 Sr0 2.545962 1_655
O2 Sr1 2.557922 1_555
O3 Sr1 2.486953 1_545
O3 Sr0 2.638056 1_545
O4 Sr1 2.451898 1_555
O4 Sr0 2.829589 1_654
