# generated using pymatgen
data_Na3Ti3Al(PO4)6
_symmetry_space_group_name_H-M   'P 1'
_cell_length_a   8.60183327
_cell_length_b   8.59937402
_cell_length_c   22.07749070
_cell_angle_alpha   90.06600606
_cell_angle_beta   89.92973991
_cell_angle_gamma   120.24066443
_symmetry_Int_Tables_number   1
_chemical_formula_structural   Na3Ti3Al(PO4)6
_chemical_formula_sum   'Na9 Ti9 Al3 P18 O72'
_cell_volume   1410.84554120
_cell_formula_units_Z   3
loop_
 _symmetry_equiv_pos_site_id
 _symmetry_equiv_pos_as_xyz
  1  'x, y, z'
loop_
 _atom_site_type_symbol
 _atom_site_label
 _atom_site_symmetry_multiplicity
 _atom_site_fract_x
 _atom_site_fract_y
 _atom_site_fract_z
 _atom_site_occupancy
  Na  Na0  1  0.36392051  0.36373422  0.24803007  1
  Na  Na1  1  0.63617886  0.63579033  0.74902755  1
  Na  Na2  1  0.96982525  0.30234489  0.41529788  1
  Na  Na3  1  0.00089703  0.99065944  0.49956141  1
  Na  Na4  1  0.99976504  0.99972678  0.00101637  1
  Na  Na5  1  0.66736903  0.32400041  0.83402665  1
  Na  Na6  1  0.66748625  0.33377361  0.33069311  1
  Na  Na7  1  0.33211349  0.67588598  0.16495232  1
  Na  Na8  1  0.32386418  0.66715338  0.66544646  1
  Ti  Ti0  1  -0.00005251  0.00179503  0.85407105  1
  Ti  Ti1  1  0.00182544  0.00230087  0.64452073  1
  Ti  Ti2  1  0.99781520  0.99704799  0.14538983  1
  Ti  Ti3  1  0.66685952  0.33398258  0.98107482  1
  Ti  Ti4  1  0.66040513  0.33389344  0.48112527  1
  Ti  Ti5  1  0.33423913  0.66693437  0.02323575  1
  Ti  Ti6  1  0.33297565  0.66813414  0.52145804  1
  Ti  Ti7  1  0.33456085  0.67339856  0.31112994  1
  Ti  Ti8  1  0.32753754  0.66790830  0.81387759  1
  Al  Al0  1  0.99971718  0.99520433  0.35159894  1
  Al  Al1  1  0.66801760  0.32916917  0.68640352  1
  Al  Al2  1  0.67180478  0.33243413  0.18683001  1
  P  P0  1  0.28808647  0.00289958  0.25027446  1
  P  P1  1  0.71818835  0.71130150  0.25094003  1
  P  P2  1  0.99000992  0.28267225  0.25150087  1
  P  P3  1  0.29210489  0.28671246  0.74904740  1
  P  P4  1  0.99857647  0.70834468  0.74842521  1
  P  P5  1  0.71312259  0.00868282  0.74906808  1
  P  P6  1  0.95059052  0.33395360  0.58445219  1
  P  P7  1  0.38249783  0.04794441  0.58573858  1
  P  P8  1  0.66485443  0.61772398  0.58611094  1
  P  P9  1  0.95088154  0.61688376  0.08539270  1
  P  P10  1  0.66700954  0.05060394  0.08542111  1
  P  P11  1  0.38273913  0.33357169  0.08605364  1
  P  P12  1  0.62069135  0.66583659  0.91633489  1
  P  P13  1  0.04480999  0.37848140  0.91761413  1
  P  P14  1  0.33271517  0.95469393  0.91749591  1
  P  P15  1  0.62564646  0.95331174  0.41624048  1
  P  P16  1  0.33204482  0.37435973  0.41488104  1
  P  P17  1  0.04649375  0.67584687  0.41607871  1
  O  O0  1  0.20325501  0.03917520  0.30591598  1
  O  O1  1  0.83207835  0.79909894  0.30707444  1
  O  O2  1  0.96683251  0.17400738  0.30975503  1
  O  O3  1  0.20267101  0.17020948  0.80581131  1
  O  O4  1  0.96279445  0.79418096  0.80491390  1
  O  O5  1  0.82923040  0.03372330  0.80602916  1
  O  O6  1  0.79808852  0.96699631  0.69390459  1
  O  O7  1  0.17158806  0.19967391  0.69314302  1
  O  O8  1  0.03013005  0.82860780  0.69266493  1
  O  O9  1  0.80039726  0.82880963  0.19385028  1
  O  O10  1  0.03282034  0.19905354  0.19619889  1
  O  O11  1  0.17023688  0.96903637  0.19342014  1
  O  O12  1  0.86320486  0.36392144  0.63972012  1
  O  O13  1  0.49836652  0.13513806  0.64125845  1
  O  O14  1  0.63677450  0.50604298  0.64328626  1
  O  O15  1  0.86458713  0.50114833  0.14117219  1
  O  O16  1  0.63546510  0.13517984  0.14116782  1
  O  O17  1  0.49428344  0.36272220  0.14339878  1
  O  O18  1  0.46989520  0.30523280  0.02862568  1
  O  O19  1  0.83738499  0.53249952  0.02709769  1
  O  O20  1  0.69613998  0.16391065  0.02721901  1
  O  O21  1  0.46811013  0.16289779  0.52751306  1
  O  O22  1  0.69431951  0.52943726  0.52888067  1
  O  O23  1  0.84119089  0.30401785  0.52499751  1
  O  O24  1  0.53148754  0.69545335  0.97221945  1
  O  O25  1  0.16218611  0.46596787  0.97368190  1
  O  O26  1  0.30315382  0.83707045  0.97347034  1
  O  O27  1  0.53590208  0.83699539  0.47293963  1
  O  O28  1  0.29730549  0.46307191  0.47077816  1
  O  O29  1  0.16257360  0.70065019  0.47304813  1
  O  O30  1  0.13237417  0.63422354  0.36086424  1
  O  O31  1  0.50440327  0.86528222  0.36019200  1
  O  O32  1  0.36358578  0.48964469  0.35750362  1
  O  O33  1  0.13454069  0.49569112  0.86022686  1
  O  O34  1  0.36142997  0.86574952  0.86012995  1
  O  O35  1  0.50915117  0.63834444  0.85770069  1
  O  O36  1  0.02845754  0.84147562  0.40803869  1
  O  O37  1  0.81405536  0.97725998  0.40896242  1
  O  O38  1  0.16113667  0.18864167  0.40852558  1
  O  O39  1  0.02762857  0.19174504  0.90998391  1
  O  O40  1  0.16365661  0.97162217  0.90943636  1
  O  O41  1  0.80869792  0.83591062  0.90980064  1
  O  O42  1  0.97133642  0.16521280  0.59030144  1
  O  O43  1  0.19333987  0.02803972  0.58969178  1
  O  O44  1  0.83481483  0.80693576  0.58990218  1
  O  O45  1  0.97186078  0.80664986  0.08990831  1
  O  O46  1  0.83521706  0.02923589  0.09053540  1
  O  O47  1  0.19253278  0.16516070  0.09025213  1
  O  O48  1  0.69472460  0.17448851  0.74189341  1
  O  O49  1  0.48103017  0.31118608  0.74231628  1
  O  O50  1  0.82821309  0.52280675  0.74162620  1
  O  O51  1  0.68857561  0.51991802  0.24313465  1
  O  O52  1  0.82627443  0.30480452  0.24292776  1
  O  O53  1  0.47566330  0.17157432  0.24248667  1
  O  O54  1  0.63921878  0.49774607  0.92243842  1
  O  O55  1  0.85819145  0.36007319  0.92224990  1
  O  O56  1  0.50195114  0.14183995  0.92240913  1
  O  O57  1  0.64757112  0.14363239  0.42243590  1
  O  O58  1  0.50117628  0.35750357  0.42276551  1
  O  O59  1  0.86013594  0.50091420  0.42297980  1
  O  O60  1  0.36290650  0.50231820  0.07779996  1
  O  O61  1  0.14032462  0.63832684  0.07743393  1
  O  O62  1  0.49845546  0.86020101  0.07733180  1
  O  O63  1  0.36164141  0.85928229  0.57739775  1
  O  O64  1  0.49682048  0.63690098  0.57722511  1
  O  O65  1  0.14098850  0.50212001  0.57697939  1
  O  O66  1  0.30660397  0.83305533  0.25707954  1
  O  O67  1  0.52434745  0.68783106  0.25661883  1
  O  O68  1  0.16594806  0.47283681  0.25716097  1
  O  O69  1  0.31421829  0.47720673  0.75550543  1
  O  O70  1  0.16766190  0.69101096  0.75553780  1
  O  O71  1  0.52652888  0.83393632  0.75598246  1
loop_
_geom_bond_atom_site_label_1
_geom_bond_atom_site_label_2
_geom_bond_distance
_geom_bond_site_symmetry_2
Na0 O53 2.295341 1_555
Na0 O68 2.329996 1_555
Na0 O67 2.415216 1_555
Na0 O51 2.415768 1_555
Na0 O17 2.568470 1_555
Na0 O32 2.647804 1_555
Na0 O10 2.714417 1_555
Na0 O0 2.729751 1_555
Na1 O50 2.305391 1_555
Na1 O71 2.331184 1_555
Na1 O69 2.396941 1_555
Na1 O49 2.417036 1_555
Na1 O14 2.587382 1_555
Na1 O35 2.639761 1_555
Na1 O4 2.724137 1_555
Na1 O6 2.746097 1_555
Na2 O38 2.303542 1_655
Na2 O59 2.335937 1_555
Na2 O57 2.400022 1_555
Na2 O37 2.420016 1_545
Na2 O2 2.571714 1_555
Na2 O23 2.664484 1_555
Na2 O28 2.725542 1_655
Na2 O30 2.743830 1_655
Na3 O36 2.466575 1_555
Na3 O44 2.498371 1_455
Na3 O43 2.504733 1_565
Na3 O37 2.533361 1_455
Na3 O38 2.544655 1_565
Na3 O42 2.589854 1_465
Na4 O45 2.504141 1_555
Na4 O47 2.506018 1_665
Na4 O46 2.515461 1_565
Na4 O41 2.531918 1_554
Na4 O39 2.535946 1_664
Na4 O40 2.543391 1_654
Na5 O56 2.457844 1_555
Na5 O55 2.465318 1_555
Na5 O48 2.478588 1_555
Na5 O54 2.541155 1_555
Na5 O49 2.551544 1_555
Na5 O50 2.572363 1_555
Na6 O52 2.453005 1_555
Na6 O51 2.458815 1_555
Na6 O53 2.478667 1_555
Na6 O58 2.550709 1_555
Na6 O57 2.555382 1_555
Na6 O59 2.562344 1_555
Na7 O62 2.453060 1_555
Na7 O61 2.455394 1_555
Na7 O66 2.510589 1_555
Na7 O60 2.527938 1_555
Na7 O67 2.584008 1_555
Na7 O68 2.592918 1_555
Na8 O65 2.460853 1_555
Na8 O70 2.464482 1_555
Na8 O63 2.465586 1_555
Na8 O64 2.540903 1_555
Na8 O69 2.549266 1_555
Na8 O71 2.564137 1_555
Al0 O1 1.854655 1_555
Al0 O0 1.885523 1_665
Al0 O36 1.922265 1_655
Al0 O2 1.933816 1_565
Al0 O37 1.981277 1_555
Al0 O38 1.986832 1_665
Al1 O13 1.858531 1_555
Al1 O12 1.860525 1_555
Al1 O48 1.906607 1_555
Al1 O14 1.925495 1_555
Al1 O50 1.961171 1_555
Al1 O49 1.969716 1_555
Al2 O15 1.856556 1_555
Al2 O16 1.858507 1_555
Al2 O52 1.917952 1_555
Al2 O17 1.929708 1_555
Al2 O53 1.979376 1_555
Al2 O51 1.981641 1_555
O0 P0 1.537860 1_555
O1 P1 1.523630 1_555
O2 P2 1.543211 1_555
O3 P3 1.546044 1_555
O3 Ti0 1.930970 1_555
O4 P4 1.555858 1_555
O4 Ti0 1.972077 1_665
O5 P5 1.552783 1_555
O5 Ti0 1.940978 1_655
O6 P5 1.551319 1_565
O6 Ti1 1.952514 1_665
O7 P3 1.541968 1_555
O7 Ti1 1.915364 1_555
O8 P4 1.542098 1_455
O8 Ti1 1.946955 1_565
O9 P1 1.546205 1_555
O9 Ti2 1.909429 1_555
O10 P2 1.551428 1_455
O10 Ti2 1.958577 1_445
O11 P0 1.546899 1_565
O11 Ti2 1.935579 1_455
O12 P6 1.520660 1_555
O13 P7 1.518603 1_555
O14 P8 1.530504 1_555
O15 P9 1.521345 1_555
O16 P10 1.520930 1_555
O17 P11 1.531757 1_555
O18 P11 1.552388 1_555
O18 Ti3 1.899481 1_554
O19 P9 1.556734 1_555
O19 Ti3 1.890941 1_554
O20 P10 1.555461 1_555
O20 Ti3 1.901400 1_554
O21 P7 1.561822 1_555
O21 Ti4 1.869883 1_555
O22 P8 1.558172 1_555
O22 Ti4 1.877996 1_555
O23 P6 1.559810 1_555
O23 Ti4 1.956824 1_555
O24 P12 1.539376 1_555
O24 Ti5 1.945334 1_556
O25 P13 1.534093 1_555
O25 Ti5 1.948640 1_556
O26 P14 1.535560 1_555
O26 Ti5 1.953884 1_556
O27 P15 1.544705 1_555
O27 Ti6 1.936176 1_555
O28 P16 1.555871 1_555
O28 Ti6 1.976601 1_555
O29 P17 1.553175 1_555
O29 Ti6 1.945842 1_555
O30 P17 1.556572 1_555
O30 Ti7 1.936456 1_555
O31 P15 1.548446 1_555
O31 Ti7 1.897883 1_555
O32 P16 1.546680 1_555
O32 Ti7 2.002299 1_555
O33 P13 1.560064 1_555
O33 Ti8 1.875962 1_555
O34 P14 1.561198 1_555
O34 Ti8 1.875979 1_555
O35 P12 1.557569 1_555
O35 Ti8 1.961000 1_555
O36 P17 1.519028 1_555
O37 P15 1.535587 1_555
O38 P16 1.538377 1_555
O39 P13 1.545720 1_555
O39 Ti0 1.962894 1_555
O40 P14 1.543216 1_555
O40 Ti0 1.979247 1_565
O41 P12 1.546825 1_555
O41 Ti0 1.972398 1_665
O42 P6 1.554165 1_555
O42 Ti1 1.959337 1_655
O43 P7 1.550336 1_555
O43 Ti1 1.963813 1_555
O44 P8 1.547822 1_555
O44 Ti1 1.977083 1_665
O45 P9 1.551949 1_555
O45 Ti2 1.964390 1_555
O46 P10 1.551858 1_555
O46 Ti2 1.973406 1_545
O47 P11 1.547933 1_555
O47 Ti2 1.984245 1_445
O48 P5 1.520191 1_555
O49 P3 1.536983 1_555
O50 P4 1.536414 1_555
O51 P1 1.542840 1_555
O52 P2 1.525271 1_555
O53 P0 1.542532 1_555
O54 P12 1.538015 1_555
O54 Ti3 2.014398 1_555
O55 P13 1.534951 1_655
O55 Ti3 2.017211 1_555
O56 P14 1.536587 1_545
O56 Ti3 2.014583 1_555
O57 P15 1.556120 1_545
O57 Ti4 2.044872 1_555
O58 P16 1.543038 1_555
O58 Ti4 1.965273 1_555
O59 P17 1.557820 1_655
O59 Ti4 2.043477 1_555
O60 P11 1.555018 1_555
O60 Ti5 1.967777 1_555
O61 P9 1.554683 1_455
O61 Ti5 1.963931 1_555
O62 P10 1.556823 1_565
O62 Ti5 1.954153 1_555
O63 P7 1.550618 1_565
O63 Ti6 1.968702 1_555
O64 P8 1.547813 1_555
O64 Ti6 1.990126 1_555
O65 P6 1.554042 1_455
O65 Ti6 1.972860 1_555
O66 P0 1.554368 1_565
O66 Ti7 1.924531 1_555
O67 P1 1.580254 1_555
O67 Ti7 1.979969 1_555
O68 P2 1.577126 1_455
O68 Ti7 1.994425 1_555
O69 P3 1.557450 1_555
O69 Ti8 2.041926 1_555
O70 P4 1.543138 1_455
O70 Ti8 1.967175 1_555
O71 P5 1.558236 1_565
O71 Ti8 2.034526 1_555
