# generated using pymatgen
data_MgAg3(AsO4)2
_symmetry_space_group_name_H-M   'P 1'
_cell_length_a   6.19905636
_cell_length_b   6.23463262
_cell_length_c   6.24541243
_cell_angle_alpha   87.18182780
_cell_angle_beta   86.99269787
_cell_angle_gamma   86.71637259
_symmetry_Int_Tables_number   1
_chemical_formula_structural   MgAg3(AsO4)2
_chemical_formula_sum   'Mg1 Ag3 As2 O8'
_cell_volume   240.39169389
_cell_formula_units_Z   1
loop_
 _symmetry_equiv_pos_site_id
 _symmetry_equiv_pos_as_xyz
  1  'x, y, z'
loop_
 _atom_site_type_symbol
 _atom_site_label
 _atom_site_symmetry_multiplicity
 _atom_site_fract_x
 _atom_site_fract_y
 _atom_site_fract_z
 _atom_site_occupancy
  Mg  Mg0  1  0.84192700  0.84260300  0.83903400  1
  Ag  Ag0  1  0.32487100  0.54559600  0.02713700  1
  Ag  Ag1  1  0.54157400  0.02223400  0.33123800  1
  Ag  Ag2  1  0.02629600  0.32144000  0.54284000  1
  As  As0  1  0.05638300  0.05876100  0.05477900  1
  As  As1  1  0.52648000  0.52536700  0.52834200  1
  O  O0  1  0.18597500  0.87347700  0.88176700  1
  O  O1  1  0.20691800  0.21025400  0.20711000  1
  O  O2  1  0.32132500  0.42064700  0.69416700  1
  O  O3  1  0.41772100  0.69077700  0.32533300  1
  O  O4  1  0.69030000  0.31898500  0.41993500  1
  O  O5  1  0.68086000  0.67568900  0.67523800  1
  O  O6  1  0.88171000  0.18315900  0.86832400  1
  O  O7  1  0.87057700  0.88392900  0.17767700  1
loop_
_geom_bond_atom_site_label_1
_geom_bond_atom_site_label_2
_geom_bond_distance
_geom_bond_site_symmetry_2
Mg0 O5 1.859364 1_555
Mg0 O7 2.160844 1_556
Mg0 O6 2.169182 1_565
Mg0 O0 2.183760 1_655
Ag0 O3 2.226406 1_555
Ag0 O2 2.257845 1_554
Ag0 O0 2.332885 1_554
Ag0 O1 2.454998 1_555
Ag1 O4 2.220279 1_555
Ag1 O3 2.248006 1_545
Ag1 O7 2.344679 1_545
Ag1 O1 2.465701 1_555
Ag2 O2 2.233628 1_555
Ag2 O4 2.258383 1_455
Ag2 O6 2.324615 1_455
Ag2 O1 2.436874 1_555
As0 O1 1.717699 1_555
As0 O0 1.752912 1_544
As0 O7 1.752926 1_445
As0 O6 1.754227 1_454
As1 O5 1.707427 1_555
As1 O2 1.733970 1_555
As1 O3 1.734083 1_555
As1 O4 1.734693 1_555
