# generated using pymatgen
data_LiMn4(PO4)3
_symmetry_space_group_name_H-M   'P 1'
_cell_length_a   6.44910600
_cell_length_b   9.94313000
_cell_length_c   16.95837600
_cell_angle_alpha   90.00000000
_cell_angle_beta   90.00000000
_cell_angle_gamma   90.00000000
_symmetry_Int_Tables_number   1
_chemical_formula_structural   LiMn4(PO4)3
_chemical_formula_sum   'Li4 Mn16 P12 O48'
_cell_volume   1087.44397897
_cell_formula_units_Z   4
loop_
 _symmetry_equiv_pos_site_id
 _symmetry_equiv_pos_as_xyz
  1  'x, y, z'
loop_
 _atom_site_type_symbol
 _atom_site_label
 _atom_site_symmetry_multiplicity
 _atom_site_fract_x
 _atom_site_fract_y
 _atom_site_fract_z
 _atom_site_occupancy
  Li  Li0  1  0.00000000  0.77931200  0.40236300  1
  Li  Li1  1  0.00000000  0.22068800  0.59763700  1
  Li  Li2  1  0.50000000  0.27931200  0.09763700  1
  Li  Li3  1  0.50000000  0.72068800  0.90236300  1
  Mn  Mn0  1  0.00000000  0.48184200  0.13407000  1
  Mn  Mn1  1  0.00000000  0.51815800  0.86593000  1
  Mn  Mn2  1  0.00000000  0.94445700  0.90551700  1
  Mn  Mn3  1  0.00000000  0.05554300  0.09448300  1
  Mn  Mn4  1  0.75225200  0.25306900  0.30447700  1
  Mn  Mn5  1  0.75225200  0.74693100  0.69552300  1
  Mn  Mn6  1  0.74774800  0.75306900  0.19552300  1
  Mn  Mn7  1  0.74774800  0.24693100  0.80447700  1
  Mn  Mn8  1  0.50000000  0.98184200  0.36593000  1
  Mn  Mn9  1  0.50000000  0.55554300  0.40551700  1
  Mn  Mn10  1  0.50000000  0.44445700  0.59448300  1
  Mn  Mn11  1  0.50000000  0.01815800  0.63407000  1
  Mn  Mn12  1  0.25225200  0.75306900  0.19552300  1
  Mn  Mn13  1  0.25225200  0.24693100  0.80447700  1
  Mn  Mn14  1  0.24774800  0.25306900  0.30447700  1
  Mn  Mn15  1  0.24774800  0.74693100  0.69552300  1
  P  P0  1  0.50000000  0.94771400  0.82942100  1
  P  P1  1  0.50000000  0.53897800  0.78476200  1
  P  P2  1  0.50000000  0.78146400  0.53471600  1
  P  P3  1  0.50000000  0.21853600  0.46528400  1
  P  P4  1  0.50000000  0.46102200  0.21523800  1
  P  P5  1  0.50000000  0.05228600  0.17057900  1
  P  P6  1  0.00000000  0.28146400  0.96528400  1
  P  P7  1  0.00000000  0.03897800  0.71523800  1
  P  P8  1  0.00000000  0.44771400  0.67057900  1
  P  P9  1  0.00000000  0.55228600  0.32942100  1
  P  P10  1  0.00000000  0.96102200  0.28476200  1
  P  P11  1  0.00000000  0.71853600  0.03471600  1
  O  O0  1  0.00000000  0.39602900  0.32038200  1
  O  O1  1  0.19189200  0.60591000  0.37316100  1
  O  O2  1  0.19116100  0.33204700  0.91654200  1
  O  O3  1  0.19116100  0.66795300  0.08345800  1
  O  O4  1  0.19430800  0.09650800  0.67406200  1
  O  O5  1  0.19430800  0.90349200  0.32593800  1
  O  O6  1  0.30569200  0.59650800  0.82593800  1
  O  O7  1  0.50000000  0.16337200  0.54936800  1
  O  O8  1  0.30883900  0.83204700  0.58345800  1
  O  O9  1  0.30883900  0.16795300  0.41654200  1
  O  O10  1  0.30810800  0.89409000  0.87316100  1
  O  O11  1  0.30810800  0.10591000  0.12683900  1
  O  O12  1  0.50000000  0.10397100  0.82038200  1
  O  O13  1  0.50000000  0.38297800  0.77874400  1
  O  O14  1  0.50000000  0.88510400  0.74251400  1
  O  O15  1  0.50000000  0.59642800  0.69732300  1
  O  O16  1  0.00000000  0.87434400  0.02702600  1
  O  O17  1  0.00000000  0.33662800  0.04936800  1
  O  O18  1  0.00000000  0.90357200  0.19732300  1
  O  O19  1  0.00000000  0.61489600  0.24251400  1
  O  O20  1  0.00000000  0.11702200  0.27874400  1
  O  O21  1  0.19189200  0.39409000  0.62683900  1
  O  O22  1  0.00000000  0.60397100  0.67961800  1
  O  O23  1  0.00000000  0.88297800  0.72125600  1
  O  O24  1  0.00000000  0.38510400  0.75748600  1
  O  O25  1  0.00000000  0.09642800  0.80267700  1
  O  O26  1  0.00000000  0.66337200  0.95063200  1
  O  O27  1  0.00000000  0.12565600  0.97297400  1
  O  O28  1  0.80810800  0.60591000  0.37316100  1
  O  O29  1  0.80810800  0.39409000  0.62683900  1
  O  O30  1  0.80883900  0.66795300  0.08345800  1
  O  O31  1  0.80883900  0.33204700  0.91654200  1
  O  O32  1  0.80569200  0.90349200  0.32593800  1
  O  O33  1  0.80569200  0.09650800  0.67406200  1
  O  O34  1  0.69430800  0.40349200  0.17406200  1
  O  O35  1  0.69430800  0.59650800  0.82593800  1
  O  O36  1  0.69116100  0.16795300  0.41654200  1
  O  O37  1  0.69116100  0.83204700  0.58345800  1
  O  O38  1  0.69189200  0.10591000  0.12683900  1
  O  O39  1  0.69189200  0.89409000  0.87316100  1
  O  O40  1  0.50000000  0.89602900  0.17961800  1
  O  O41  1  0.50000000  0.61702200  0.22125600  1
  O  O42  1  0.50000000  0.11489600  0.25748600  1
  O  O43  1  0.50000000  0.40357200  0.30267700  1
  O  O44  1  0.50000000  0.83662800  0.45063200  1
  O  O45  1  0.50000000  0.37434400  0.47297400  1
  O  O46  1  0.50000000  0.62565600  0.52702600  1
  O  O47  1  0.30569200  0.40349200  0.17406200  1
loop_
_geom_bond_atom_site_label_1
_geom_bond_atom_site_label_2
_geom_bond_distance
_geom_bond_site_symmetry_2
Li0 O1 2.179323 1_555
Li0 O28 2.179323 1_455
Li0 O5 2.185086 1_555
Li0 O32 2.185086 1_455
Li1 O29 2.179323 1_455
Li1 O21 2.179323 1_555
Li1 O4 2.185086 1_555
Li1 O33 2.185086 1_455
Li2 O11 2.179323 1_555
Li2 O38 2.179323 1_555
Li2 O34 2.185086 1_555
Li2 O47 2.185086 1_555
Li3 O39 2.179323 1_555
Li3 O10 2.179323 1_555
Li3 O6 2.185086 1_555
Li3 O35 2.185086 1_555
Mn0 O17 2.036679 1_555
Mn0 O34 2.225633 1_455
Mn0 O47 2.225633 1_555
Mn0 O19 2.265459 1_555
Mn0 O3 2.383476 1_555
Mn0 O30 2.383476 1_455
Mn1 O26 2.036679 1_555
Mn1 O35 2.225633 1_455
Mn1 O6 2.225633 1_555
Mn1 O24 2.265459 1_555
Mn1 O2 2.383476 1_555
Mn1 O31 2.383476 1_455
Mn2 O39 2.121353 1_455
Mn2 O10 2.121353 1_555
Mn2 O27 2.134178 1_565
Mn2 O16 2.175330 1_556
Mn2 O25 2.307566 1_565
Mn3 O11 2.121353 1_555
Mn3 O38 2.121353 1_455
Mn3 O16 2.134178 1_545
Mn3 O27 2.175330 1_554
Mn3 O18 2.307566 1_545
Mn4 O36 2.117346 1_555
Mn4 O20 2.138490 1_655
Mn4 O0 2.155491 1_655
Mn4 O43 2.210619 1_555
Mn4 O42 2.273552 1_555
Mn4 O34 2.695919 1_555
Mn5 O37 2.117346 1_555
Mn5 O23 2.138490 1_655
Mn5 O22 2.155491 1_655
Mn5 O15 2.210619 1_555
Mn5 O14 2.273552 1_555
Mn5 O35 2.695919 1_555
Mn6 O30 2.117346 1_555
Mn6 O41 2.138490 1_555
Mn6 O40 2.155491 1_555
Mn6 O18 2.210619 1_655
Mn6 O19 2.273552 1_655
Mn6 O32 2.695919 1_555
Mn7 O31 2.117346 1_555
Mn7 O13 2.138490 1_555
Mn7 O12 2.155491 1_555
Mn7 O25 2.210619 1_655
Mn7 O24 2.273552 1_655
Mn7 O33 2.695919 1_555
Mn8 O44 2.036679 1_555
Mn8 O5 2.225633 1_555
Mn8 O32 2.225633 1_555
Mn8 O42 2.265459 1_565
Mn8 O9 2.383476 1_565
Mn8 O36 2.383476 1_565
Mn9 O1 2.121353 1_555
Mn9 O28 2.121353 1_555
Mn9 O45 2.134178 1_555
Mn9 O46 2.175330 1_555
Mn9 O43 2.307566 1_555
Mn10 O21 2.121353 1_555
Mn10 O29 2.121353 1_555
Mn10 O46 2.134178 1_555
Mn10 O45 2.175330 1_555
Mn10 O15 2.307566 1_555
Mn11 O7 2.036679 1_555
Mn11 O4 2.225633 1_555
Mn11 O33 2.225633 1_555
Mn11 O14 2.265459 1_545
Mn11 O8 2.383476 1_545
Mn11 O37 2.383476 1_545
Mn12 O3 2.117346 1_555
Mn12 O41 2.138490 1_555
Mn12 O40 2.155491 1_555
Mn12 O18 2.210619 1_555
Mn12 O19 2.273552 1_555
Mn12 O5 2.695919 1_555
Mn13 O2 2.117346 1_555
Mn13 O13 2.138490 1_555
Mn13 O12 2.155491 1_555
Mn13 O25 2.210619 1_555
Mn13 O24 2.273552 1_555
Mn13 O4 2.695919 1_555
Mn14 O9 2.117346 1_555
Mn14 O20 2.138490 1_555
Mn14 O0 2.155491 1_555
Mn14 O43 2.210619 1_555
Mn14 O42 2.273552 1_555
Mn14 O47 2.695919 1_555
Mn15 O8 2.117346 1_555
Mn15 O23 2.138490 1_555
Mn15 O22 2.155491 1_555
Mn15 O15 2.210619 1_555
Mn15 O14 2.273552 1_555
Mn15 O6 2.695919 1_555
O0 P9 1.561227 1_555
O1 P9 1.538176 1_555
O2 P6 1.567177 1_555
O3 P11 1.567177 1_555
O4 P7 1.544377 1_555
O5 P10 1.544377 1_555
O6 P1 1.544377 1_555
O7 P3 1.527785 1_555
O8 P2 1.567177 1_555
O9 P3 1.567177 1_555
O10 P0 1.538176 1_555
O11 P5 1.538176 1_555
O12 P0 1.561227 1_545
O13 P1 1.554482 1_555
O14 P0 1.599889 1_555
O15 P1 1.589048 1_555
O16 P11 1.554698 1_555
O17 P6 1.527785 1_554
O18 P10 1.589048 1_555
O19 P9 1.599889 1_555
O20 P10 1.554482 1_545
O21 P8 1.538176 1_555
O22 P8 1.561227 1_555
O23 P7 1.554482 1_565
O24 P8 1.599889 1_555
O25 P7 1.589048 1_555
O26 P11 1.527785 1_556
O27 P6 1.554698 1_555
O28 P9 1.538176 1_655
O29 P8 1.538176 1_655
O30 P11 1.567177 1_655
O31 P6 1.567177 1_655
O32 P10 1.544377 1_655
O33 P7 1.544377 1_655
O34 P4 1.544377 1_555
O35 P1 1.544377 1_555
O36 P3 1.567177 1_555
O37 P2 1.567177 1_555
O38 P5 1.538176 1_555
O39 P0 1.538176 1_555
O40 P5 1.561227 1_565
O41 P4 1.554482 1_555
O42 P5 1.599889 1_555
O43 P4 1.589048 1_555
O44 P2 1.527785 1_555
O45 P3 1.554698 1_555
O46 P2 1.554698 1_555
O47 P4 1.544377 1_555
