# generated using pymatgen
data_Hf3Si2
_symmetry_space_group_name_H-M   'P 1'
_cell_length_a   3.66328402
_cell_length_b   6.98985191
_cell_length_c   6.98985191
_cell_angle_alpha   90.00000000
_cell_angle_beta   90.00000000
_cell_angle_gamma   90.00000000
_symmetry_Int_Tables_number   1
_chemical_formula_structural   Hf3Si2
_chemical_formula_sum   'Hf6 Si4'
_cell_volume   178.98083954
_cell_formula_units_Z   2
loop_
 _symmetry_equiv_pos_site_id
 _symmetry_equiv_pos_as_xyz
  1  'x, y, z'
loop_
 _atom_site_type_symbol
 _atom_site_label
 _atom_site_symmetry_multiplicity
 _atom_site_fract_x
 _atom_site_fract_y
 _atom_site_fract_z
 _atom_site_occupancy
  Hf  Hf0  1  0.50000000  0.67322933  0.82677067  1
  Hf  Hf1  1  0.50000000  0.82677067  0.32677067  1
  Hf  Hf2  1  0.50000000  0.32677067  0.17322933  1
  Hf  Hf3  1  0.50000000  0.17322933  0.67322933  1
  Hf  Hf4  1  -0.00000000  0.50000000  0.50000000  1
  Hf  Hf5  1  -0.00000000  -0.00000000  0.00000000  1
  Si  Si0  1  -0.00000000  0.62360275  0.12360275  1
  Si  Si1  1  0.00000000  0.87639725  0.62360275  1
  Si  Si2  1  -0.00000000  0.12360275  0.37639725  1
  Si  Si3  1  0.00000000  0.37639725  0.87639725  1
loop_
_geom_bond_atom_site_label_1
_geom_bond_atom_site_label_2
_geom_bond_distance
_geom_bond_site_symmetry_2
Hf0 Si1 2.718153 1_655
Hf0 Si1 2.718153 1_555
Hf0 Si3 2.789281 1_555
Hf0 Si3 2.789281 1_655
Hf0 Si0 2.789281 1_656
Hf0 Si0 2.789281 1_556
Hf1 Si0 2.718153 1_555
Hf1 Si0 2.718153 1_655
Hf1 Si1 2.789281 1_555
Hf1 Si1 2.789281 1_655
Hf1 Si2 2.789281 1_565
Hf1 Si2 2.789281 1_665
Hf2 Si2 2.718153 1_655
Hf2 Si2 2.718153 1_555
Hf2 Si3 2.789281 1_654
Hf2 Si3 2.789281 1_554
Hf2 Si0 2.789281 1_555
Hf2 Si0 2.789281 1_655
Hf3 Si3 2.718153 1_555
Hf3 Si3 2.718153 1_655
Hf3 Si2 2.789281 1_555
Hf3 Si2 2.789281 1_655
Hf3 Si1 2.789281 1_645
Hf3 Si1 2.789281 1_545
Hf4 Si1 2.769186 1_555
Hf4 Si3 2.769186 1_555
Hf4 Si0 2.769186 1_555
Hf4 Si2 2.769186 1_555
Hf5 Si3 2.769186 1_554
Hf5 Si0 2.769186 1_545
Hf5 Si1 2.769186 1_544
Hf5 Si2 2.769186 1_555
Si0 Si3 2.443662 1_554
Si1 Si2 2.443662 1_565
