# generated using pymatgen
data_MgV5O12
_symmetry_space_group_name_H-M   'P 1'
_cell_length_a   5.41108596
_cell_length_b   10.77346599
_cell_length_c   9.60175433
_cell_angle_alpha   28.12559064
_cell_angle_beta   50.85127782
_cell_angle_gamma   56.73556919
_symmetry_Int_Tables_number   1
_chemical_formula_structural   MgV5O12
_chemical_formula_sum   'Mg1 V5 O12'
_cell_volume   204.57910041
_cell_formula_units_Z   1
loop_
 _symmetry_equiv_pos_site_id
 _symmetry_equiv_pos_as_xyz
  1  'x, y, z'
loop_
 _atom_site_type_symbol
 _atom_site_label
 _atom_site_symmetry_multiplicity
 _atom_site_fract_x
 _atom_site_fract_y
 _atom_site_fract_z
 _atom_site_occupancy
  Mg  Mg0  1  0.27725100  0.49765900  0.28862000  1
  V  V0  1  0.99529800  0.00647800  0.99299400  1
  V  V1  1  0.99067100  0.48219600  0.01767500  1
  V  V2  1  0.48018000  0.96624600  0.54176300  1
  V  V3  1  0.48717600  0.53985700  0.45282300  1
  V  V4  1  0.30885300  0.01488100  0.27020000  1
  O  O0  1  0.34887000  0.28622500  0.13005800  1
  O  O1  1  0.25998700  0.12167800  0.59729800  1
  O  O2  1  0.13804900  0.30263300  0.71849500  1
  O  O3  1  0.90982800  0.15870300  0.24463400  1
  O  O4  1  0.32625000  0.78224300  0.14554100  1
  O  O5  1  0.72640200  0.41000800  0.31767400  1
  O  O6  1  0.22865200  0.67475000  0.57008400  1
  O  O7  1  0.56009600  0.17021900  0.90264500  1
  O  O8  1  0.15080100  0.81762900  0.70666700  1
  O  O9  1  0.85186700  0.67656700  0.24888700  1
  O  O10  1  0.69548800  0.90728500  0.33524500  1
  O  O11  1  0.59858200  0.68474400  0.86271700  1
loop_
_geom_bond_atom_site_label_1
_geom_bond_atom_site_label_2
_geom_bond_distance
_geom_bond_site_symmetry_2
Mg0 O1 2.022519 1_555
Mg0 O9 2.025756 1_455
Mg0 O11 2.033980 1_554
Mg0 O4 2.088118 1_555
Mg0 O2 2.128964 1_555
Mg0 O5 2.179480 1_555
O0 V1 1.874040 1_455
O0 V4 1.947188 1_555
O0 V2 2.199684 1_545
O1 V2 1.758426 1_545
O1 V0 2.188312 1_455
O2 V0 1.738856 1_455
O2 V3 2.078516 1_555
O3 V4 1.857778 1_655
O3 V1 2.039425 1_555
O3 V2 2.079127 1_545
O4 V3 1.855369 1_555
O4 V0 1.874389 1_464
O5 V1 1.736272 1_555
O5 V3 2.100232 1_555
O6 V4 1.860937 1_565
O6 V3 2.000926 1_555
O6 V1 2.156135 1_456
O7 V4 1.767537 1_556
O7 V0 2.175585 1_555
O7 V3 2.181573 1_555
O8 V2 1.828340 1_555
O8 V1 1.964961 1_456
O8 V4 2.137809 1_565
O9 V3 1.766382 1_555
O9 V0 2.118275 1_564
O10 V0 1.883899 1_564
O10 V4 1.955299 1_565
O10 V2 2.045894 1_555
O11 V2 1.726737 1_555
O11 V1 2.158045 1_556
