# generated using pymatgen
data_Na2YHf(PO4)3
_symmetry_space_group_name_H-M   'P 1'
_cell_length_a   9.12399365
_cell_length_b   9.12399334
_cell_length_c   23.45793197
_cell_angle_alpha   89.91899598
_cell_angle_beta   90.08100401
_cell_angle_gamma   120.50084993
_symmetry_Int_Tables_number   1
_chemical_formula_structural   Na2YHf(PO4)3
_chemical_formula_sum   'Na12 Y6 Hf6 P18 O72'
_cell_volume   1682.57981291
_cell_formula_units_Z   6
loop_
 _symmetry_equiv_pos_site_id
 _symmetry_equiv_pos_as_xyz
  1  'x, y, z'
loop_
 _atom_site_type_symbol
 _atom_site_label
 _atom_site_symmetry_multiplicity
 _atom_site_fract_x
 _atom_site_fract_y
 _atom_site_fract_z
 _atom_site_occupancy
  Na  Na0  1  0.36438775  0.35948045  0.24945534  1
  Na  Na1  1  0.64051955  0.63561225  0.74945534  1
  Na  Na2  1  0.03105475  0.69281345  0.58278834  1
  Na  Na3  1  0.30718655  0.96894525  0.08278834  1
  Na  Na4  1  0.69772075  0.02614745  0.91612234  1
  Na  Na5  1  0.97385255  0.30227925  0.41612234  1
  Na  Na6  1  0.99969708  0.99898742  0.49893498  1
  Na  Na7  1  0.00101258  0.00030292  0.99893498  1
  Na  Na8  1  0.66636408  0.33232042  0.83226798  1
  Na  Na9  1  0.66767958  0.33363592  0.33226798  1
  Na  Na10  1  0.33303008  0.66565442  0.16560198  1
  Na  Na11  1  0.33434558  0.66696992  0.66560198  1
  Y  Y0  1  0.99774262  0.98905096  0.35182600  1
  Y  Y1  1  0.01094904  0.00225738  0.85182600  1
  Y  Y2  1  0.66440962  0.32238396  0.68515900  1
  Y  Y3  1  0.67761604  0.33559038  0.18515900  1
  Y  Y4  1  0.33107562  0.65571796  0.01849300  1
  Y  Y5  1  0.34428204  0.66892438  0.51849300  1
  Hf  Hf0  1  0.00225869  0.00863254  0.64865086  1
  Hf  Hf1  1  0.99136746  0.99774131  0.14865086  1
  Hf  Hf2  1  0.66892569  0.34196554  0.98198386  1
  Hf  Hf3  1  0.65803446  0.33107431  0.48198386  1
  Hf  Hf4  1  0.33559169  0.67529954  0.31531786  1
  Hf  Hf5  1  0.32470046  0.66440831  0.81531786  1
  P  P0  1  0.28910840  0.99411233  0.24848900  1
  P  P1  1  0.69910277  0.70672434  0.24977488  1
  P  P2  1  0.00638365  0.29539368  0.25215562  1
  P  P3  1  0.29327566  0.30089723  0.74977488  1
  P  P4  1  0.00588767  0.71089160  0.74848900  1
  P  P5  1  0.70460632  0.99361635  0.75215562  1
  P  P6  1  0.95577540  0.32744533  0.58182200  1
  P  P7  1  0.36576977  0.04005734  0.58310788  1
  P  P8  1  0.67305065  0.62872668  0.58548862  1
  P  P9  1  0.95994266  0.63423023  0.08310788  1
  P  P10  1  0.67255467  0.04422460  0.08182200  1
  P  P11  1  0.37127332  0.32694935  0.08548862  1
  P  P12  1  0.62244140  0.66077933  0.91515600  1
  P  P13  1  0.03243577  0.37339134  0.91644188  1
  P  P14  1  0.33971665  0.96206068  0.91882262  1
  P  P15  1  0.62660866  0.96756423  0.41644188  1
  P  P16  1  0.33922067  0.37755860  0.41515600  1
  P  P17  1  0.03793932  0.66028335  0.41882262  1
  O  O0  1  0.20945650  0.02567805  0.30046463  1
  O  O1  1  0.80484649  0.78440787  0.30268823  1
  O  O2  1  0.98443861  0.19588328  0.30648155  1
  O  O3  1  0.21559213  0.19515351  0.80268823  1
  O  O4  1  0.97432195  0.79054350  0.80046463  1
  O  O5  1  0.80411672  0.01556139  0.80648155  1
  O  O6  1  0.79825806  0.96851519  0.69949143  1
  O  O7  1  0.17914374  0.20733158  0.69661024  1
  O  O8  1  0.02946864  0.82200710  0.69400092  1
  O  O9  1  0.79266842  0.82085626  0.19661024  1
  O  O10  1  0.03148481  0.20174194  0.19949143  1
  O  O11  1  0.17799290  0.97053136  0.19400092  1
  O  O12  1  0.87612350  0.35901105  0.63379763  1
  O  O13  1  0.47151349  0.11774087  0.63602123  1
  O  O14  1  0.65110561  0.52921628  0.63981455  1
  O  O15  1  0.88225913  0.52848651  0.13602123  1
  O  O16  1  0.64098895  0.12387650  0.13379763  1
  O  O17  1  0.47078372  0.34889439  0.13981455  1
  O  O18  1  0.46492506  0.30184819  0.03282443  1
  O  O19  1  0.84581074  0.54066458  0.02994324  1
  O  O20  1  0.69613564  0.15534010  0.02733392  1
  O  O21  1  0.45933542  0.15418926  0.52994324  1
  O  O22  1  0.69815181  0.53507494  0.53282443  1
  O  O23  1  0.84465990  0.30386436  0.52733392  1
  O  O24  1  0.54278950  0.69234505  0.96713163  1
  O  O25  1  0.13817949  0.45107487  0.96935523  1
  O  O26  1  0.31777161  0.86255028  0.97314855  1
  O  O27  1  0.54892513  0.86182051  0.46935523  1
  O  O28  1  0.30765495  0.45721050  0.46713163  1
  O  O29  1  0.13744972  0.68222839  0.47314855  1
  O  O30  1  0.13159106  0.63518219  0.36615843  1
  O  O31  1  0.51247674  0.87399858  0.36327724  1
  O  O32  1  0.36280164  0.48867410  0.36066792  1
  O  O33  1  0.12600142  0.48752326  0.86327724  1
  O  O34  1  0.36481781  0.86840894  0.86615843  1
  O  O35  1  0.51132590  0.63719836  0.86066792  1
  O  O36  1  0.01243073  0.81133862  0.41195424  1
  O  O37  1  0.80860300  0.00108714  0.41027672  1
  O  O38  1  0.17876811  0.20110382  0.40953579  1
  O  O39  1  0.99891286  0.19139700  0.91027672  1
  O  O40  1  0.18866138  0.98756927  0.91195424  1
  O  O41  1  0.79889618  0.82123189  0.90953579  1
  O  O42  1  0.97109055  0.16575661  0.59010408  1
  O  O43  1  0.18630245  0.02389515  0.58927264  1
  O  O44  1  0.84388180  0.80598352  0.58983286  1
  O  O45  1  0.97610485  0.81369755  0.08927264  1
  O  O46  1  0.83424339  0.02890945  0.09010408  1
  O  O47  1  0.19401648  0.15611820  0.08983286  1
  O  O48  1  0.67909773  0.14467162  0.74528724  1
  O  O49  1  0.47527000  0.33442014  0.74360972  1
  O  O50  1  0.84543511  0.53443682  0.74286879  1
  O  O51  1  0.66557986  0.52473000  0.24360972  1
  O  O52  1  0.85532838  0.32090227  0.24528724  1
  O  O53  1  0.46556318  0.15456489  0.24286879  1
  O  O54  1  0.63775755  0.49908961  0.92343708  1
  O  O55  1  0.85296945  0.35722815  0.92260564  1
  O  O56  1  0.51054880  0.13931652  0.92316586  1
  O  O57  1  0.64277185  0.14703055  0.42260564  1
  O  O58  1  0.50091039  0.36224245  0.42343708  1
  O  O59  1  0.86068348  0.48945120  0.42316586  1
  O  O60  1  0.34576373  0.47800562  0.07862124  1
  O  O61  1  0.14193600  0.66775414  0.07694372  1
  O  O62  1  0.51210111  0.86777082  0.07620279  1
  O  O63  1  0.33224586  0.85806400  0.57694372  1
  O  O64  1  0.52199438  0.65423627  0.57862124  1
  O  O65  1  0.13222918  0.48789889  0.57620279  1
  O  O66  1  0.30442355  0.83242361  0.25677108  1
  O  O67  1  0.51963545  0.69056215  0.25593964  1
  O  O68  1  0.17721480  0.47265052  0.25649986  1
  O  O69  1  0.30943785  0.48036455  0.75593964  1
  O  O70  1  0.16757639  0.69557645  0.75677108  1
  O  O71  1  0.52734948  0.82278520  0.75649986  1
loop_
_geom_bond_atom_site_label_1
_geom_bond_atom_site_label_2
_geom_bond_distance
_geom_bond_site_symmetry_2
Na0 O51 2.374557 1_555
Na0 O68 2.408576 1_555
Na0 O53 2.474837 1_555
Na0 O67 2.609960 1_555
Na0 O17 2.769394 1_555
Na0 O32 2.867357 1_555
Na0 O10 2.868462 1_555
Na0 O0 2.886171 1_555
Na1 O49 2.374557 1_555
Na1 O71 2.408576 1_555
Na1 O50 2.474837 1_555
Na1 O69 2.609960 1_555
Na1 O14 2.769394 1_555
Na1 O35 2.867357 1_555
Na1 O6 2.868462 1_555
Na1 O4 2.886171 1_555
Na2 O63 2.374549 1_555
Na2 O44 2.408576 1_455
Na2 O65 2.474820 1_555
Na2 O43 2.609960 1_565
Na2 O29 2.769367 1_555
Na2 O8 2.867357 1_555
Na2 O22 2.868462 1_455
Na2 O12 2.886171 1_455
Na3 O61 2.374549 1_555
Na3 O47 2.408576 1_565
Na3 O62 2.474820 1_555
Na3 O45 2.609960 1_455
Na3 O26 2.769367 1_554
Na3 O11 2.867357 1_555
Na3 O18 2.868462 1_565
Na3 O16 2.886171 1_565
Na4 O39 2.374557 1_555
Na4 O56 2.408559 1_555
Na4 O41 2.474837 1_545
Na4 O55 2.609950 1_555
Na4 O5 2.769394 1_555
Na4 O20 2.867330 1_556
Na4 O34 2.868462 1_545
Na4 O24 2.886171 1_545
Na5 O37 2.374557 1_555
Na5 O59 2.408559 1_555
Na5 O38 2.474837 1_655
Na5 O57 2.609951 1_555
Na5 O2 2.769394 1_555
Na5 O23 2.867330 1_555
Na5 O30 2.868462 1_655
Na5 O28 2.886171 1_655
Na6 O43 2.653218 1_665
Na6 O44 2.669339 1_555
Na6 O36 2.705635 1_655
Na6 O42 2.714976 1_565
Na6 O37 2.718301 1_565
Na6 O38 2.721830 1_665
Na7 O45 2.653218 1_446
Na7 O47 2.669339 1_556
Na7 O40 2.705635 1_545
Na7 O46 2.714976 1_456
Na7 O39 2.718301 1_455
Na7 O41 2.721830 1_445
Na8 O55 2.653218 1_555
Na8 O56 2.669339 1_555
Na8 O48 2.705635 1_555
Na8 O54 2.714976 1_555
Na8 O49 2.718301 1_555
Na8 O50 2.721830 1_555
Na9 O57 2.653218 1_555
Na9 O59 2.669339 1_555
Na9 O52 2.705635 1_555
Na9 O58 2.714976 1_555
Na9 O51 2.718301 1_555
Na9 O53 2.721830 1_555
Na10 O67 2.653218 1_555
Na10 O68 2.669339 1_555
Na10 O60 2.705635 1_555
Na10 O66 2.714976 1_555
Na10 O61 2.718301 1_555
Na10 O62 2.721830 1_555
Na11 O69 2.653218 1_555
Na11 O71 2.669339 1_555
Na11 O64 2.705635 1_555
Na11 O70 2.714976 1_555
Na11 O63 2.718301 1_555
Na11 O65 2.721830 1_555
Hf0 O7 2.046370 1_555
Hf0 O6 2.081876 1_445
Hf0 O42 2.104623 1_455
Hf0 O8 2.125093 1_545
Hf0 O43 2.132601 1_555
Hf0 O44 2.167928 1_445
Hf1 O9 2.046370 1_555
Hf1 O10 2.081876 1_665
Hf1 O46 2.104623 1_565
Hf1 O11 2.125093 1_655
Hf1 O45 2.132601 1_555
Hf1 O47 2.167928 1_665
Hf2 O19 2.046370 1_556
Hf2 O18 2.081876 1_556
Hf2 O54 2.104623 1_555
Hf2 O20 2.125093 1_556
Hf2 O55 2.132601 1_555
Hf2 O56 2.167928 1_555
Hf3 O21 2.046370 1_555
Hf3 O22 2.081876 1_555
Hf3 O58 2.104623 1_555
Hf3 O23 2.125093 1_555
Hf3 O57 2.132601 1_555
Hf3 O59 2.167928 1_555
Hf4 O31 2.046370 1_555
Hf4 O30 2.081876 1_555
Hf4 O66 2.104623 1_555
Hf4 O32 2.125093 1_555
Hf4 O67 2.132601 1_555
Hf4 O68 2.167928 1_555
Hf5 O33 2.046370 1_555
Hf5 O34 2.081876 1_555
Hf5 O70 2.104623 1_555
Hf5 O35 2.125093 1_555
Hf5 O69 2.132601 1_555
Hf5 O71 2.167928 1_555
O0 P0 1.521058 1_545
O0 Y0 2.155186 1_445
O1 P1 1.509579 1_555
O1 Y0 2.139400 1_555
O2 P2 1.517028 1_655
O2 Y0 2.221247 1_545
O3 P3 1.509579 1_555
O3 Y1 2.139400 1_555
O4 P4 1.521058 1_655
O4 Y1 2.155186 1_665
O5 P5 1.517028 1_545
O5 Y1 2.221247 1_655
O6 P5 1.584681 1_555
O7 P3 1.570174 1_555
O8 P4 1.575928 1_555
O9 P1 1.570174 1_555
O10 P2 1.584681 1_555
O11 P0 1.575928 1_555
O12 P6 1.521058 1_555
O12 Y2 2.155186 1_555
O13 P7 1.509579 1_555
O13 Y2 2.139400 1_555
O14 P8 1.517028 1_555
O14 Y2 2.221247 1_555
O15 P9 1.509579 1_555
O15 Y3 2.139400 1_555
O16 P10 1.521058 1_555
O16 Y3 2.155186 1_555
O17 P11 1.517028 1_555
O17 Y3 2.221247 1_555
O18 P11 1.584681 1_555
O19 P9 1.570174 1_555
O20 P10 1.575928 1_555
O21 P7 1.570174 1_555
O22 P8 1.584681 1_555
O23 P6 1.575928 1_555
O24 P12 1.521058 1_555
O24 Y4 2.155186 1_556
O25 P13 1.509579 1_555
O25 Y4 2.139400 1_556
O26 P14 1.517028 1_555
O26 Y4 2.221247 1_556
O27 P15 1.509579 1_555
O27 Y5 2.139400 1_555
O28 P16 1.521058 1_555
O28 Y5 2.155186 1_555
O29 P17 1.517028 1_555
O29 Y5 2.221247 1_555
O30 P17 1.584681 1_555
O31 P15 1.570174 1_555
O32 P16 1.575928 1_555
O33 P13 1.570174 1_555
O34 P14 1.584681 1_555
O35 P12 1.575928 1_555
O36 P17 1.518063 1_555
O36 Y0 2.202292 1_455
O37 P15 1.535178 1_545
O37 Y0 2.251584 1_545
O38 P16 1.536264 1_555
O38 Y0 2.249716 1_445
O39 P13 1.535178 1_655
O39 Y1 2.251584 1_655
O40 P14 1.518064 1_555
O40 Y1 2.202292 1_565
O41 P12 1.536264 1_555
O41 Y1 2.249716 1_665
O42 P6 1.562688 1_555
O43 P7 1.574619 1_555
O44 P8 1.580056 1_555
O45 P9 1.574619 1_555
O46 P10 1.562688 1_555
O47 P11 1.580056 1_555
O48 P5 1.518063 1_545
O48 Y2 2.202292 1_555
O49 P3 1.535178 1_555
O49 Y2 2.251584 1_555
O50 P4 1.536264 1_655
O50 Y2 2.249716 1_555
O51 P1 1.535178 1_555
O51 Y3 2.251584 1_555
O52 P2 1.518064 1_655
O52 Y3 2.202292 1_555
O53 P0 1.536264 1_545
O53 Y3 2.249716 1_555
O54 P12 1.562699 1_555
O55 P13 1.574604 1_655
O56 P14 1.580054 1_545
O57 P15 1.574604 1_545
O58 P16 1.562699 1_555
O59 P17 1.580054 1_655
O60 P11 1.518076 1_555
O60 Y4 2.202292 1_555
O61 P9 1.535164 1_455
O61 Y4 2.251584 1_555
O62 P10 1.536260 1_565
O62 Y4 2.249716 1_555
O63 P7 1.535164 1_565
O63 Y5 2.251584 1_555
O64 P8 1.518076 1_555
O64 Y5 2.202292 1_555
O65 P6 1.536260 1_455
O65 Y5 2.249716 1_555
O66 P0 1.562688 1_555
O67 P1 1.574619 1_555
O68 P2 1.580056 1_555
O69 P3 1.574619 1_555
O70 P4 1.562688 1_555
O71 P5 1.580056 1_555
