# generated using pymatgen
data_Th2P11
_symmetry_space_group_name_H-M   'P 1'
_cell_length_a   10.16134303
_cell_length_b   17.42281566
_cell_length_c   19.14272365
_cell_angle_alpha   116.50830948
_cell_angle_beta   90.00000000
_cell_angle_gamma   90.00000000
_symmetry_Int_Tables_number   1
_chemical_formula_structural   Th2P11
_chemical_formula_sum   'Th24 P132'
_cell_volume   3032.72449313
_cell_formula_units_Z   12
loop_
 _symmetry_equiv_pos_site_id
 _symmetry_equiv_pos_as_xyz
  1  'x, y, z'
loop_
 _atom_site_type_symbol
 _atom_site_label
 _atom_site_symmetry_multiplicity
 _atom_site_fract_x
 _atom_site_fract_y
 _atom_site_fract_z
 _atom_site_occupancy
  P  P0  1  0.10766625  0.89355814  0.96939854  1
  P  P1  1  0.60766625  0.60644186  0.53060146  1
  P  P2  1  0.89233375  0.10644186  0.03060146  1
  P  P3  1  0.39233375  0.39355814  0.46939854  1
  P  P4  1  0.11820033  0.57394888  0.97765964  1
  P  P5  1  0.61820033  0.92605112  0.52234036  1
  P  P6  1  0.88179967  0.42605112  0.02234036  1
  P  P7  1  0.38179967  0.07394888  0.47765964  1
  P  P8  1  0.11579910  0.24707387  0.98016577  1
  P  P9  1  0.61579910  0.25292613  0.51983423  1
  P  P10  1  0.88420090  0.75292613  0.01983423  1
  P  P11  1  0.38420090  0.74707387  0.48016577  1
  P  P12  1  0.09803346  0.99129384  0.09214635  1
  P  P13  1  0.59803346  0.50870616  0.40785365  1
  P  P14  1  0.90196654  0.00870616  0.90785365  1
  P  P15  1  0.40196654  0.49129384  0.59214635  1
  P  P16  1  0.10407693  0.65088915  0.10405280  1
  P  P17  1  0.60407693  0.84911085  0.39594720  1
  P  P18  1  0.89592307  0.34911085  0.89594720  1
  P  P19  1  0.39592307  0.15088915  0.60405280  1
  P  P20  1  0.10249317  0.32322723  0.10690242  1
  P  P21  1  0.60249317  0.17677277  0.39309758  1
  P  P22  1  0.89750683  0.67677277  0.89309758  1
  P  P23  1  0.39750683  0.82322723  0.60690242  1
  P  P24  1  0.39055810  0.46495403  0.39628532  1
  P  P25  1  0.89055810  0.03504597  0.10371468  1
  P  P26  1  0.60944190  0.53504597  0.60371468  1
  P  P27  1  0.10944190  0.96495403  0.89628532  1
  P  P28  1  0.39282783  0.83454566  0.36608677  1
  P  P29  1  0.89282783  0.66545434  0.13391323  1
  P  P30  1  0.60717217  0.16545434  0.63391323  1
  P  P31  1  0.10717217  0.33454566  0.86608677  1
  P  P32  1  0.39203552  0.16272525  0.36110806  1
  P  P33  1  0.89203552  0.33727475  0.13889194  1
  P  P34  1  0.60796448  0.83727475  0.63889194  1
  P  P35  1  0.10796448  0.66272525  0.86110806  1
  P  P36  1  0.59982965  0.13210237  0.13132784  1
  P  P37  1  0.09982965  0.36789763  0.36867216  1
  P  P38  1  0.40017035  0.86789763  0.86867216  1
  P  P39  1  0.90017035  0.63210237  0.63132784  1
  P  P40  1  0.59541068  0.46762425  0.13397007  1
  P  P41  1  0.09541068  0.03237575  0.36602993  1
  P  P42  1  0.40458932  0.53237575  0.86602993  1
  P  P43  1  0.90458932  0.96762425  0.63397007  1
  P  P44  1  0.59512259  0.79770881  0.13210299  1
  P  P45  1  0.09512259  0.70229119  0.36789701  1
  P  P46  1  0.40487741  0.20229119  0.86789701  1
  P  P47  1  0.90487741  0.29770881  0.63210299  1
  P  P48  1  0.61077678  0.86334325  0.83775702  1
  P  P49  1  0.11077678  0.63665675  0.66224298  1
  P  P50  1  0.38922322  0.13665675  0.16224298  1
  P  P51  1  0.88922322  0.36334325  0.33775702  1
  P  P52  1  0.61823521  0.52184846  0.83671186  1
  P  P53  1  0.11823521  0.97815154  0.66328814  1
  P  P54  1  0.38176479  0.47815154  0.16328814  1
  P  P55  1  0.88176479  0.02184846  0.33671186  1
  P  P56  1  0.61720127  0.19212233  0.83483344  1
  P  P57  1  0.11720127  0.30787767  0.66516656  1
  P  P58  1  0.38279873  0.80787767  0.16516656  1
  P  P59  1  0.88279873  0.69212233  0.33483344  1
  P  P60  1  0.60136759  0.76596828  0.71216008  1
  P  P61  1  0.10136759  0.73403172  0.78783992  1
  P  P62  1  0.39863241  0.23403172  0.28783992  1
  P  P63  1  0.89863241  0.26596828  0.21216008  1
  P  P64  1  0.61652963  0.43773153  0.70836878  1
  P  P65  1  0.11652963  0.06226847  0.79163122  1
  P  P66  1  0.38347037  0.56226847  0.29163122  1
  P  P67  1  0.88347037  0.93773153  0.20836878  1
  P  P68  1  0.60481101  0.09641433  0.70814792  1
  P  P69  1  0.10481101  0.40358567  0.79185208  1
  P  P70  1  0.39518899  0.90358567  0.29185208  1
  P  P71  1  0.89518899  0.59641433  0.20814792  1
  P  P72  1  0.39561229  0.72276192  0.70037062  1
  P  P73  1  0.89561229  0.77723808  0.79962938  1
  P  P74  1  0.60438771  0.27723808  0.29962938  1
  P  P75  1  0.10438771  0.22276192  0.20037062  1
  P  P76  1  0.41713526  0.37951284  0.69447846  1
  P  P77  1  0.91713526  0.12048716  0.80552154  1
  P  P78  1  0.58286474  0.62048716  0.30552154  1
  P  P79  1  0.08286474  0.87951284  0.19447846  1
  P  P80  1  0.40163538  0.05018374  0.69946113  1
  P  P81  1  0.90163538  0.44981626  0.80053887  1
  P  P82  1  0.59836462  0.94981626  0.30053887  1
  P  P83  1  0.09836462  0.55018374  0.19946113  1
  P  P84  1  0.40654959  0.65480207  0.77458973  1
  P  P85  1  0.90654959  0.84519793  0.72541027  1
  P  P86  1  0.59345041  0.34519793  0.22541027  1
  P  P87  1  0.09345041  0.15480207  0.27458973  1
  P  P88  1  0.40291235  0.31851979  0.77428441  1
  P  P89  1  0.90291235  0.18148021  0.72571559  1
  P  P90  1  0.59708765  0.68148021  0.22571559  1
  P  P91  1  0.09708765  0.81851979  0.27428441  1
  P  P92  1  0.42135190  0.98910657  0.77876881  1
  P  P93  1  0.92135190  0.51089343  0.72123119  1
  P  P94  1  0.57864810  0.01089343  0.22123119  1
  P  P95  1  0.07864810  0.48910657  0.27876881  1
  P  P96  1  0.39368713  0.75655665  0.89968116  1
  P  P97  1  0.89368713  0.74344335  0.60031884  1
  P  P98  1  0.60631287  0.24344335  0.10031884  1
  P  P99  1  0.10631287  0.25655665  0.39968116  1
  P  P100  1  0.39712964  0.42342161  0.89869131  1
  P  P101  1  0.89712964  0.07657839  0.60130869  1
  P  P102  1  0.60287036  0.57657839  0.10130869  1
  P  P103  1  0.10287036  0.92342161  0.39869131  1
  P  P104  1  0.39848901  0.09442181  0.90131495  1
  P  P105  1  0.89848901  0.40557819  0.59868505  1
  P  P106  1  0.60151099  0.90557819  0.09868505  1
  P  P107  1  0.10151099  0.59442181  0.40131495  1
  P  P108  1  0.60397879  0.75135991  0.92942412  1
  P  P109  1  0.10397879  0.74864009  0.57057588  1
  P  P110  1  0.39602121  0.24864009  0.07057588  1
  P  P111  1  0.89602121  0.25135991  0.42942412  1
  P  P112  1  0.60721623  0.42791926  0.93520274  1
  P  P113  1  0.10721623  0.07208074  0.56479726  1
  P  P114  1  0.39278377  0.57208074  0.06479726  1
  P  P115  1  0.89278377  0.92791926  0.43520274  1
  P  P116  1  0.60917249  0.09655824  0.93657046  1
  P  P117  1  0.10917249  0.40344176  0.56342954  1
  P  P118  1  0.39082751  0.90344176  0.06342954  1
  P  P119  1  0.89082751  0.59655824  0.43657046  1
  P  P120  1  0.39627207  0.97502272  0.99249562  1
  P  P121  1  0.89627207  0.52497728  0.50750438  1
  P  P122  1  0.60372793  0.02497728  0.00750438  1
  P  P123  1  0.10372793  0.47502272  0.49249562  1
  P  P124  1  0.39716847  0.63904629  0.99039444  1
  P  P125  1  0.89716847  0.86095371  0.50960556  1
  P  P126  1  0.60283153  0.36095371  0.00960556  1
  P  P127  1  0.10283153  0.13904629  0.49039444  1
  P  P128  1  0.39754538  0.31074225  0.99252352  1
  P  P129  1  0.89754538  0.18925775  0.50747648  1
  P  P130  1  0.60245462  0.68925775  0.00747648  1
  P  P131  1  0.10245462  0.81074225  0.49252352  1
  Th  Th0  1  0.68840123  0.37726547  0.46323184  1
  Th  Th1  1  0.18840123  0.12273453  0.03676816  1
  Th  Th2  1  0.31159877  0.62273453  0.53676816  1
  Th  Th3  1  0.81159877  0.87726547  0.96323184  1
  Th  Th4  1  0.67699784  0.05721411  0.46836501  1
  Th  Th5  1  0.17699784  0.44278589  0.03163499  1
  Th  Th6  1  0.32300216  0.94278589  0.53163499  1
  Th  Th7  1  0.82300216  0.55721411  0.96836501  1
  Th  Th8  1  0.67642483  0.73353119  0.47288758  1
  Th  Th9  1  0.17642483  0.76646881  0.02711242  1
  Th  Th10  1  0.32357517  0.26646881  0.52711242  1
  Th  Th11  1  0.82357517  0.23353119  0.97288758  1
  Th  Th12  1  0.79903687  0.13724682  0.26506192  1
  Th  Th13  1  0.29903687  0.36275318  0.23493808  1
  Th  Th14  1  0.20096313  0.86275318  0.73493808  1
  Th  Th15  1  0.70096313  0.63724682  0.76506192  1
  Th  Th16  1  0.80269558  0.82105724  0.27336662  1
  Th  Th17  1  0.30269558  0.67894276  0.22663338  1
  Th  Th18  1  0.19730442  0.17894276  0.72663338  1
  Th  Th19  1  0.69730442  0.32105724  0.77336662  1
  Th  Th20  1  0.78564481  0.48868571  0.27808580  1
  Th  Th21  1  0.28564481  0.01131429  0.22191420  1
  Th  Th22  1  0.21435519  0.51131429  0.72191420  1
  Th  Th23  1  0.71435519  0.98868571  0.77808580  1
loop_
_geom_bond_atom_site_label_1
_geom_bond_atom_site_label_2
_geom_bond_distance
_geom_bond_site_symmetry_2
P0 P12 2.204258 1_556
P0 P27 2.249574 1_555
P0 Th9 2.965699 1_556
P0 Th3 3.019161 1_455
P1 P13 2.204258 1_555
P1 P26 2.249574 1_555
P1 Th8 2.965699 1_555
P1 Th2 3.019161 1_555
P2 P25 2.249574 1_555
P2 Th11 2.965699 1_554
P2 Th1 3.019161 1_655
P3 Th10 2.965699 1_555
P3 Th0 3.019161 1_555
P4 Th5 2.958804 1_556
P4 Th7 3.011315 1_455
P4 Th9 3.108481 1_556
P5 Th4 2.958804 1_565
P5 Th6 3.011315 1_555
P5 Th8 3.108481 1_555
P6 Th7 2.958804 1_554
P6 Th5 3.011315 1_655
P6 Th11 3.108481 1_554
P7 Th6 2.958804 1_545
P7 Th4 3.011315 1_555
P7 Th10 3.108481 1_555
P8 Th1 2.916612 1_556
P8 Th11 2.977079 1_455
P8 Th5 3.159999 1_556
P9 Th0 2.916612 1_555
P9 Th10 2.977079 1_555
P9 Th4 3.159999 1_555
P10 P22 2.188875 1_554
P10 Th3 2.916612 1_554
P10 Th9 2.977079 1_655
P10 Th7 3.159999 1_554
P11 P23 2.188875 1_555
P11 Th2 2.916612 1_555
P11 Th8 2.977079 1_555
P11 Th6 3.159999 1_555
P12 P25 2.219022 1_465
P12 Th21 3.025441 1_565
P12 Th1 3.062429 1_565
P13 P24 2.219022 1_555
P13 Th20 3.025441 1_555
P13 Th0 3.062429 1_555
P14 P2 2.204258 1_556
P14 P27 2.219022 1_645
P14 Th23 3.025441 1_545
P14 Th3 3.062429 1_545
P15 P3 2.204258 1_555
P15 P26 2.219022 1_555
P15 Th22 3.025441 1_555
P15 Th2 3.062429 1_555
P16 P4 2.185492 1_554
P16 P29 2.206679 1_455
P16 Th17 2.965559 1_555
P16 Th9 3.067955 1_555
P16 Th5 3.336179 1_555
P17 P5 2.185492 1_555
P17 P28 2.206679 1_555
P17 Th16 2.965559 1_555
P17 Th8 3.067955 1_555
P17 Th4 3.336179 1_565
P18 P6 2.185492 1_556
P18 P31 2.206679 1_655
P18 Th19 2.965559 1_555
P18 Th11 3.067955 1_555
P18 Th7 3.336179 1_555
P19 P7 2.185492 1_555
P19 P30 2.206679 1_555
P19 Th18 2.965559 1_555
P19 Th10 3.067955 1_555
P19 Th6 3.336179 1_545
P20 P8 2.188875 1_554
P20 P33 2.207811 1_455
P20 Th13 2.993882 1_555
P20 Th5 3.109236 1_555
P20 Th1 3.252727 1_555
P21 P9 2.188875 1_555
P21 P32 2.207811 1_555
P21 Th12 2.993882 1_555
P21 Th4 3.109236 1_555
P21 Th0 3.252727 1_555
P22 P35 2.207811 1_655
P22 Th15 2.993882 1_555
P22 Th7 3.109236 1_555
P22 Th3 3.252727 1_555
P23 P34 2.207811 1_555
P23 Th14 2.993882 1_555
P23 Th6 3.109236 1_555
P23 Th2 3.252727 1_555
P24 P3 2.249574 1_555
P24 Th13 2.943769 1_555
P24 Th2 2.972119 1_555
P25 Th12 2.943769 1_555
P25 Th3 2.972119 1_544
P26 Th15 2.943769 1_555
P26 Th0 2.972119 1_555
P27 Th14 2.943769 1_555
P27 Th1 2.972119 1_566
P28 P70 2.234441 1_555
P28 Th6 2.961060 1_555
P28 Th17 2.975664 1_555
P29 P71 2.234441 1_555
P29 Th7 2.961060 1_554
P29 Th16 2.975664 1_555
P30 P68 2.234441 1_555
P30 Th4 2.961060 1_555
P30 Th19 2.975664 1_555
P31 P69 2.234441 1_555
P31 Th5 2.961060 1_556
P31 Th18 2.975664 1_555
P32 P62 2.251784 1_555
P32 Th10 2.953301 1_555
P32 Th21 2.992166 1_555
P33 P63 2.251784 1_555
P33 Th11 2.953301 1_554
P33 Th20 2.992166 1_555
P34 P60 2.251784 1_555
P34 Th8 2.953301 1_555
P34 Th23 2.992166 1_555
P35 P61 2.251784 1_555
P35 Th9 2.953301 1_556
P35 Th22 2.992166 1_555
P36 P50 2.212328 1_555
P36 P98 2.268854 1_555
P36 Th12 3.233330 1_555
P37 P51 2.212328 1_455
P37 P99 2.268854 1_555
P37 Th13 3.233330 1_555
P38 P48 2.212328 1_555
P38 P96 2.268854 1_555
P38 Th14 3.233330 1_555
P39 P49 2.212328 1_655
P39 P97 2.268854 1_555
P39 Th15 3.233330 1_555
P40 P54 2.229274 1_555
P40 Th20 3.252447 1_555
P41 P55 2.229274 1_455
P41 Th21 3.252447 1_555
P42 P52 2.229274 1_555
P42 Th22 3.252447 1_555
P43 P53 2.229274 1_655
P43 Th23 3.252447 1_555
P44 P58 2.233086 1_555
P44 Th16 3.308303 1_555
P45 P59 2.233086 1_455
P45 Th17 3.308303 1_555
P46 P56 2.233086 1_555
P46 Th18 3.308303 1_555
P47 P57 2.233086 1_655
P47 Th19 3.308303 1_555
P48 P60 2.242056 1_555
P48 Th23 3.067300 1_555
P48 Th3 3.077687 1_555
P49 P61 2.242056 1_555
P49 Th22 3.067300 1_555
P49 Th2 3.077687 1_555
P50 P62 2.242056 1_555
P50 Th21 3.067300 1_555
P50 Th1 3.077687 1_555
P51 P63 2.242056 1_555
P51 Th20 3.067300 1_555
P51 Th0 3.077687 1_555
P52 P64 2.229366 1_555
P52 Th15 3.015271 1_555
P52 Th7 3.110344 1_555
P52 Th19 3.250791 1_555
P53 P65 2.229366 1_565
P53 Th14 3.015271 1_555
P53 Th6 3.110344 1_555
P53 Th18 3.250791 1_565
P54 P66 2.229366 1_555
P54 Th13 3.015271 1_555
P54 Th5 3.110344 1_555
P54 Th17 3.250791 1_555
P55 P67 2.229366 1_545
P55 Th12 3.015271 1_555
P55 Th4 3.110344 1_555
P55 Th16 3.250791 1_545
P56 P68 2.251172 1_555
P56 Th19 3.074549 1_555
P56 Th11 3.193766 1_555
P56 Th23 3.358671 1_545
P57 P69 2.251172 1_555
P57 Th18 3.074549 1_555
P57 Th10 3.193766 1_555
P57 Th22 3.358671 1_555
P58 P70 2.251172 1_555
P58 Th17 3.074549 1_555
P58 Th9 3.193766 1_555
P58 Th21 3.358671 1_565
P59 P71 2.251172 1_555
P59 Th16 3.074549 1_555
P59 Th8 3.193766 1_555
P59 Th20 3.358671 1_555
P60 P72 2.199361 1_555
P60 Th15 3.017736 1_555
P61 P73 2.199361 1_455
P61 Th14 3.017736 1_555
P62 P74 2.199361 1_555
P62 Th13 3.017736 1_555
P63 P75 2.199361 1_655
P63 Th12 3.017736 1_555
P64 P76 2.227994 1_555
P64 Th19 2.934592 1_555
P64 Th15 3.260329 1_555
P65 P77 2.227994 1_455
P65 Th18 2.934592 1_555
P65 Th14 3.260329 1_545
P66 P78 2.227994 1_555
P66 Th17 2.934592 1_555
P66 Th13 3.260329 1_555
P67 P79 2.227994 1_655
P67 Th16 2.934592 1_555
P67 Th12 3.260329 1_565
P68 P80 2.195263 1_555
P68 Th23 2.966043 1_545
P69 P81 2.195263 1_455
P69 Th22 2.966043 1_555
P70 P82 2.195263 1_555
P70 Th21 2.966043 1_565
P71 P83 2.195263 1_655
P71 Th20 2.966043 1_555
P72 P84 2.221384 1_555
P72 Th2 2.949926 1_555
P72 Th14 2.976267 1_555
P73 P85 2.221384 1_555
P73 Th3 2.949926 1_555
P73 Th15 2.976267 1_555
P74 P86 2.221384 1_555
P74 Th0 2.949926 1_555
P74 Th12 2.976267 1_555
P75 P87 2.221384 1_555
P75 Th1 2.949926 1_555
P75 Th13 2.976267 1_555
P76 P88 2.221083 1_555
P76 Th22 2.952664 1_555
P76 Th10 3.068351 1_555
P77 P89 2.221083 1_555
P77 Th23 2.952664 1_545
P77 Th11 3.068351 1_555
P78 P90 2.221083 1_555
P78 Th20 2.952664 1_555
P78 Th8 3.068351 1_555
P79 P91 2.221083 1_555
P79 Th21 2.952664 1_565
P79 Th9 3.068351 1_555
P80 P92 2.217987 1_545
P80 Th18 2.927876 1_555
P80 Th6 3.015743 1_545
P81 P93 2.217987 1_555
P81 Th19 2.927876 1_555
P81 Th7 3.015743 1_555
P82 P94 2.217987 1_565
P82 Th16 2.927876 1_555
P82 Th4 3.015743 1_565
P83 P95 2.217987 1_555
P83 Th17 2.927876 1_555
P83 Th5 3.015743 1_555
P84 P96 2.259336 1_555
P84 Th22 2.971593 1_555
P84 Th15 3.004482 1_555
P85 P97 2.259336 1_555
P85 Th23 2.971593 1_555
P85 Th14 3.004482 1_655
P86 P98 2.259336 1_555
P86 Th20 2.971593 1_555
P86 Th13 3.004482 1_555
P87 P99 2.259336 1_555
P87 Th21 2.971593 1_555
P87 Th12 3.004482 1_455
P88 Th19 2.991913 1_555
P88 Th18 3.021702 1_555
P89 Th18 2.991913 1_655
P89 Th19 3.021702 1_555
P90 Th17 2.991913 1_555
P90 Th16 3.021702 1_555
P91 Th16 2.991913 1_455
P91 Th17 3.021702 1_555
P92 Th23 2.977330 1_555
P92 Th14 2.986067 1_555
P93 Th22 2.977330 1_655
P93 Th15 2.986067 1_555
P94 Th21 2.977330 1_555
P94 Th12 2.986067 1_555
P95 Th20 2.977330 1_455
P95 Th13 2.986067 1_555
P96 Th9 3.237003 1_556
P97 Th8 3.237003 1_555
P98 Th11 3.237003 1_554
P99 Th10 3.237003 1_555
P100 P112 2.236730 1_555
P100 P42 2.249358 1_555
P100 P88 2.264947 1_555
P100 Th5 3.290495 1_556
P101 P113 2.236730 1_655
P101 P43 2.249358 1_545
P101 P89 2.264947 1_555
P101 Th4 3.290495 1_555
P102 P114 2.236730 1_555
P102 P40 2.249358 1_555
P102 P90 2.264947 1_555
P102 Th7 3.290495 1_554
P103 P115 2.236730 1_455
P103 P41 2.249358 1_565
P103 P91 2.264947 1_555
P103 Th6 3.290495 1_555
P104 P116 2.239994 1_555
P104 P46 2.240257 1_555
P104 P92 2.254225 1_545
P104 Th1 3.222139 1_556
P105 P117 2.239994 1_655
P105 P47 2.240257 1_555
P105 P93 2.254225 1_555
P105 Th0 3.222139 1_555
P106 P118 2.239994 1_555
P106 P44 2.240257 1_555
P106 P94 2.254225 1_565
P106 Th3 3.222139 1_554
P107 P119 2.239994 1_455
P107 P45 2.240257 1_555
P107 P95 2.254225 1_555
P107 Th2 3.222139 1_555
P108 P130 2.201476 1_556
P108 P96 2.223622 1_555
P108 Th3 2.900759 1_555
P108 Th15 3.039655 1_555
P109 P131 2.201476 1_555
P109 P97 2.223622 1_455
P109 Th2 2.900759 1_555
P109 Th14 3.039655 1_555
P110 P128 2.201476 1_554
P110 P98 2.223622 1_555
P110 Th1 2.900759 1_555
P110 Th13 3.039655 1_555
P111 P129 2.201476 1_555
P111 P99 2.223622 1_655
P111 Th0 2.900759 1_555
P111 Th12 3.039655 1_555
P112 P126 2.207975 1_556
P112 Th19 2.958572 1_555
P112 Th7 3.001475 1_555
P113 P127 2.207975 1_555
P113 Th18 2.958572 1_555
P113 Th6 3.001475 1_545
P114 P124 2.207975 1_554
P114 Th17 2.958572 1_555
P114 Th5 3.001475 1_555
P115 P125 2.207975 1_555
P115 Th16 2.958572 1_555
P115 Th4 3.001475 1_565
P116 P122 2.216732 1_556
P116 Th23 2.964610 1_545
P116 Th11 3.073088 1_555
P117 P123 2.216732 1_555
P117 Th22 2.964610 1_555
P117 Th10 3.073088 1_555
P118 P120 2.216732 1_554
P118 Th21 2.964610 1_565
P118 Th9 3.073088 1_555
P119 P121 2.216732 1_555
P119 Th20 2.964610 1_555
P119 Th8 3.073088 1_555
P120 P122 2.249584 1_566
P120 P38 2.270328 1_555
P120 Th1 3.139438 1_566
P121 P123 2.249584 1_655
P121 P39 2.270328 1_555
P121 Th0 3.139438 1_555
P122 P36 2.270328 1_555
P122 Th3 3.139438 1_544
P123 P37 2.270328 1_555
P123 Th2 3.139438 1_555
P124 P130 2.228949 1_556
P124 P42 2.275475 1_555
P124 Th9 3.010158 1_556
P125 P131 2.228949 1_655
P125 P43 2.275475 1_555
P125 Th8 3.010158 1_555
P126 P128 2.228949 1_554
P126 P40 2.275475 1_555
P126 Th11 3.010158 1_554
P127 P129 2.228949 1_455
P127 P41 2.275475 1_555
P127 Th10 3.010158 1_555
P128 P46 2.289856 1_555
P128 Th5 3.055812 1_556
P129 P47 2.289856 1_555
P129 Th4 3.055812 1_555
P130 P44 2.289856 1_555
P130 Th7 3.055812 1_554
P131 P45 2.289856 1_555
P131 Th6 3.055812 1_555
