# generated using pymatgen
data_MgCu2P2O7
_symmetry_space_group_name_H-M   'P 1'
_cell_length_a   5.94458600
_cell_length_b   5.59828143
_cell_length_c   5.59828219
_cell_angle_alpha   95.40715892
_cell_angle_beta   110.99098736
_cell_angle_gamma   110.99097823
_symmetry_Int_Tables_number   1
_chemical_formula_structural   MgCu2P2O7
_chemical_formula_sum   'Mg1 Cu2 P2 O7'
_cell_volume   157.01797448
_cell_formula_units_Z   1
loop_
 _symmetry_equiv_pos_site_id
 _symmetry_equiv_pos_as_xyz
  1  'x, y, z'
loop_
 _atom_site_type_symbol
 _atom_site_label
 _atom_site_symmetry_multiplicity
 _atom_site_fract_x
 _atom_site_fract_y
 _atom_site_fract_z
 _atom_site_occupancy
  Mg  Mg0  1  0.00000000  0.66847184  0.33152816  1
  Cu  Cu0  1  0.50000000  0.31422947  0.68577053  1
  Cu  Cu1  1  0.50000000  0.70144862  0.29855138  1
  P  P0  1  0.93378805  0.16923294  0.15010726  1
  P  P1  1  0.06621195  0.84989274  0.83076706  1
  O  O0  1  0.24880586  0.93238162  0.68921947  1
  O  O1  1  0.75119414  0.31078053  0.06761838  1
  O  O2  1  0.81134544  0.90536016  0.21274972  1
  O  O3  1  0.18865456  0.78725028  0.09463984  1
  O  O4  1  1.00000000  0.09963185  0.90036815  1
  O  O5  1  0.80314592  0.62073757  0.62191761  1
  O  O6  1  0.19685408  0.37808239  0.37926243  1
loop_
_geom_bond_atom_site_label_1
_geom_bond_atom_site_label_2
_geom_bond_distance
_geom_bond_site_symmetry_2
Mg0 O1 2.033517 1_455
Mg0 O0 2.033517 1_555
Mg0 O2 2.038639 1_455
Mg0 O3 2.038639 1_555
Mg0 O6 2.303139 1_555
Mg0 O5 2.303139 1_455
Cu0 O1 2.131047 1_556
Cu0 O0 2.131047 1_545
Cu0 O6 2.163647 1_555
Cu0 O5 2.163647 1_555
Cu1 O3 2.045967 1_555
Cu1 O2 2.045967 1_555
Cu1 O5 2.264751 1_555
Cu1 O6 2.264751 1_555
O0 P1 1.531491 1_555
O1 P0 1.531490 1_555
O2 P0 1.531394 1_565
O3 P1 1.531394 1_554
O4 P1 1.631847 1_645
O4 P0 1.631847 1_556
O5 P1 1.558322 1_655
O6 P0 1.558322 1_455
