# generated using pymatgen
data_Na4ScSi2SnPO12
_symmetry_space_group_name_H-M   'P 1'
_cell_length_a   9.15468344
_cell_length_b   9.15468312
_cell_length_c   22.43292557
_cell_angle_alpha   90.31793217
_cell_angle_beta   89.68206784
_cell_angle_gamma   120.00366186
_symmetry_Int_Tables_number   1
_chemical_formula_structural   Na4ScSi2SnPO12
_chemical_formula_sum   'Na24 Sc6 Si12 Sn6 P6 O72'
_cell_volume   1628.08941899
_cell_formula_units_Z   6
loop_
 _symmetry_equiv_pos_site_id
 _symmetry_equiv_pos_as_xyz
  1  'x, y, z'
loop_
 _atom_site_type_symbol
 _atom_site_label
 _atom_site_symmetry_multiplicity
 _atom_site_fract_x
 _atom_site_fract_y
 _atom_site_fract_z
 _atom_site_occupancy
  Na  Na0  1  0.63999118  0.00534392  0.25075444  1
  Na  Na1  1  0.36912178  0.36704698  0.24594792  1
  Na  Na2  1  0.99122405  0.62525988  0.25053188  1
  Na  Na3  1  0.63295302  0.63087822  0.74594792  1
  Na  Na4  1  0.99465608  0.36000882  0.75075444  1
  Na  Na5  1  0.37474012  0.00877595  0.75053188  1
  Na  Na6  1  0.30665818  0.33867692  0.58408744  1
  Na  Na7  1  0.03578878  0.70037998  0.57928092  1
  Na  Na8  1  0.65789105  0.95859288  0.58386488  1
  Na  Na9  1  0.29962002  0.96421122  0.07928092  1
  Na  Na10  1  0.66132308  0.69334182  0.08408744  1
  Na  Na11  1  0.04140712  0.34210895  0.08386488  1
  Na  Na12  1  0.97332418  0.67201092  0.91742144  1
  Na  Na13  1  0.70245478  0.03371398  0.91261492  1
  Na  Na14  1  0.32455705  0.29192688  0.91719888  1
  Na  Na15  1  0.96628602  0.29754522  0.41261492  1
  Na  Na16  1  0.32798908  0.02667582  0.41742144  1
  Na  Na17  1  0.70807312  0.67544295  0.41719888  1
  Na  Na18  1  0.99646089  0.99238002  0.49793917  1
  Na  Na19  1  0.00761998  0.00353911  0.99793917  1
  Na  Na20  1  0.66312789  0.32571302  0.83127217  1
  Na  Na21  1  0.67428698  0.33687211  0.33127217  1
  Na  Na22  1  0.32979389  0.65904702  0.16460617  1
  Na  Na23  1  0.34095298  0.67020611  0.66460617  1
  Sc  Sc0  1  0.99308774  0.99548996  0.35171718  1
  Sc  Sc1  1  0.00451004  0.00691226  0.85171718  1
  Sc  Sc2  1  0.65975474  0.32882296  0.68505018  1
  Sc  Sc3  1  0.67117704  0.34024526  0.18505018  1
  Sc  Sc4  1  0.32642074  0.66215696  0.01838418  1
  Sc  Sc5  1  0.33784304  0.67357926  0.51838418  1
  Si  Si0  1  0.70282107  0.70550166  0.25100152  1
  Si  Si1  1  0.00184528  0.29577591  0.25152834  1
  Si  Si2  1  0.29449834  0.29717893  0.75100152  1
  Si  Si3  1  0.70422409  0.99815472  0.75152834  1
  Si  Si4  1  0.36948807  0.03883466  0.58433452  1
  Si  Si5  1  0.66851228  0.62910891  0.58486134  1
  Si  Si6  1  0.96116534  0.63051193  0.08433452  1
  Si  Si7  1  0.37089109  0.33148772  0.08486134  1
  Si  Si8  1  0.03615407  0.37216866  0.91766852  1
  Si  Si9  1  0.33517828  0.96244291  0.91819534  1
  Si  Si10  1  0.62783134  0.96384593  0.41766852  1
  Si  Si11  1  0.03755709  0.66482172  0.41819534  1
  Sn  Sn0  1  0.99872433  0.00012838  0.64963872  1
  Sn  Sn1  1  0.99987162  0.00127567  0.14963872  1
  Sn  Sn2  1  0.66539133  0.33346138  0.98297172  1
  Sn  Sn3  1  0.66653862  0.33460867  0.48297172  1
  Sn  Sn4  1  0.33205733  0.66679538  0.31630572  1
  Sn  Sn5  1  0.33320462  0.66794267  0.81630572  1
  P  P0  1  0.29198557  0.99683553  0.25061524  1
  P  P1  1  0.00316447  0.70801443  0.75061524  1
  P  P2  1  0.95865257  0.33016853  0.58394824  1
  P  P3  1  0.66983147  0.04134743  0.08394824  1
  P  P4  1  0.62531857  0.66350253  0.91728224  1
  P  P5  1  0.33649747  0.37468143  0.41728224  1
  O  O0  1  0.21054356  0.02598409  0.30580558  1
  O  O1  1  0.82269951  0.79132798  0.30839924  1
  O  O2  1  0.97557401  0.17974038  0.30919096  1
  O  O3  1  0.20867202  0.17730049  0.80839924  1
  O  O4  1  0.97401591  0.78945644  0.80580558  1
  O  O5  1  0.82025962  0.02442599  0.80919096  1
  O  O6  1  0.78309795  0.95711372  0.69088424  1
  O  O7  1  0.17413189  0.21627326  0.69094442  1
  O  O8  1  0.03663058  0.81862554  0.69372270  1
  O  O9  1  0.78372674  0.82586811  0.19094442  1
  O  O10  1  0.04288628  0.21690205  0.19088424  1
  O  O11  1  0.18137446  0.96336942  0.19372270  1
  O  O12  1  0.87721056  0.35931709  0.63913858  1
  O  O13  1  0.48936651  0.12466098  0.64173224  1
  O  O14  1  0.64224101  0.51307338  0.64252396  1
  O  O15  1  0.87533902  0.51063349  0.14173224  1
  O  O16  1  0.64068291  0.12278944  0.13913858  1
  O  O17  1  0.48692662  0.35775899  0.14252396  1
  O  O18  1  0.44976495  0.29044672  0.02421724  1
  O  O19  1  0.84079889  0.54960626  0.02427742  1
  O  O20  1  0.70329758  0.15195854  0.02705570  1
  O  O21  1  0.45039374  0.15920111  0.52427742  1
  O  O22  1  0.70955328  0.55023505  0.52421724  1
  O  O23  1  0.84804146  0.29670242  0.52705570  1
  O  O24  1  0.54387656  0.69265109  0.97247258  1
  O  O25  1  0.15603251  0.45799498  0.97506624  1
  O  O26  1  0.30890701  0.84640738  0.97585796  1
  O  O27  1  0.54200502  0.84396749  0.47506624  1
  O  O28  1  0.30734891  0.45612344  0.47247258  1
  O  O29  1  0.15359262  0.69109299  0.47585796  1
  O  O30  1  0.11643095  0.62378072  0.35755124  1
  O  O31  1  0.50746489  0.88294026  0.35761142  1
  O  O32  1  0.36996358  0.48529254  0.36038970  1
  O  O33  1  0.11705974  0.49253511  0.85761142  1
  O  O34  1  0.37621928  0.88356905  0.85755124  1
  O  O35  1  0.51470746  0.63003642  0.86038970  1
  O  O36  1  0.02209550  0.83468384  0.41308154  1
  O  O37  1  0.81702501  0.98836782  0.41282845  1
  O  O38  1  0.18092363  0.19641305  0.41102773  1
  O  O39  1  0.01163218  0.18297499  0.91282845  1
  O  O40  1  0.16531616  0.97790450  0.91308154  1
  O  O41  1  0.80358695  0.81907637  0.91102773  1
  O  O42  1  0.97337543  0.16753808  0.58768001  1
  O  O43  1  0.18176966  0.02537943  0.58880355  1
  O  O44  1  0.84099191  0.81891109  0.58795718  1
  O  O45  1  0.97462057  0.81823034  0.08880355  1
  O  O46  1  0.83246192  0.02662457  0.08768001  1
  O  O47  1  0.18108891  0.15900809  0.08795718  1
  O  O48  1  0.68876250  0.16801684  0.74641454  1
  O  O49  1  0.48369201  0.32170082  0.74616145  1
  O  O50  1  0.84759063  0.52974605  0.74436073  1
  O  O51  1  0.67829918  0.51630799  0.24616145  1
  O  O52  1  0.83198316  0.31123750  0.24641454  1
  O  O53  1  0.47025395  0.15240937  0.24436073  1
  O  O54  1  0.64004243  0.50087108  0.92101301  1
  O  O55  1  0.84843666  0.35871243  0.92213655  1
  O  O56  1  0.50765891  0.15224409  0.92129018  1
  O  O57  1  0.64128757  0.15156334  0.42213655  1
  O  O58  1  0.49912892  0.35995757  0.42101301  1
  O  O59  1  0.84775591  0.49234109  0.42129018  1
  O  O60  1  0.35542850  0.50135084  0.07974854  1
  O  O61  1  0.15035801  0.65503482  0.07949545  1
  O  O62  1  0.51425663  0.86308005  0.07769473  1
  O  O63  1  0.34496518  0.84964199  0.57949545  1
  O  O64  1  0.49864916  0.64457150  0.57974854  1
  O  O65  1  0.13691995  0.48574337  0.57769473  1
  O  O66  1  0.30670843  0.83420508  0.25434701  1
  O  O67  1  0.51510266  0.69204643  0.25547055  1
  O  O68  1  0.17432491  0.48557809  0.25462418  1
  O  O69  1  0.30795357  0.48489734  0.75547055  1
  O  O70  1  0.16579492  0.69329157  0.75434701  1
  O  O71  1  0.51442191  0.82567509  0.75462418  1
loop_
_geom_bond_atom_site_label_1
_geom_bond_atom_site_label_2
_geom_bond_distance
_geom_bond_site_symmetry_2
Na0 O52 2.453433 1_555
Na0 O67 2.503410 1_545
Na0 O53 2.518865 1_555
Na0 O66 2.643527 1_545
Na0 O31 2.666766 1_545
Na0 O16 2.729158 1_555
Na0 O9 2.889541 1_545
Na0 O2 2.970125 1_555
Na1 O51 2.451635 1_555
Na1 O68 2.514883 1_555
Na1 O53 2.556890 1_555
Na1 O17 2.571954 1_555
Na1 O67 2.589080 1_555
Na1 O32 2.779163 1_555
Na1 O10 2.872512 1_555
Na2 O52 2.491040 1_555
Na2 O51 2.521013 1_555
Na2 O66 2.546265 1_655
Na2 O68 2.569061 1_655
Na2 O15 2.659055 1_555
Na2 O30 2.669098 1_655
Na2 O1 2.945895 1_555
Na2 O11 2.977505 1_655
Na3 O49 2.451635 1_555
Na3 O71 2.514883 1_555
Na3 O50 2.556890 1_555
Na3 O14 2.571953 1_555
Na3 O69 2.589081 1_555
Na3 O35 2.779163 1_555
Na3 O6 2.872511 1_555
Na4 O48 2.453433 1_555
Na4 O69 2.503410 1_655
Na4 O50 2.518865 1_555
Na4 O70 2.643527 1_655
Na4 O33 2.666766 1_655
Na4 O12 2.729158 1_555
Na4 O7 2.889541 1_655
Na4 O5 2.970125 1_555
Na5 O48 2.491040 1_555
Na5 O49 2.521012 1_555
Na5 O70 2.546264 1_545
Na5 O71 2.569061 1_545
Na5 O13 2.659055 1_555
Na5 O34 2.669098 1_545
Na5 O3 2.945895 1_555
Na5 O8 2.977505 1_545
Na6 O64 2.453438 1_555
Na6 O43 2.503410 1_555
Na6 O65 2.518880 1_555
Na6 O42 2.643527 1_455
Na6 O7 2.666766 1_555
Na6 O28 2.729143 1_555
Na6 O21 2.889541 1_555
Na6 O14 2.970125 1_555
Na7 O63 2.451627 1_555
Na7 O44 2.514883 1_455
Na7 O65 2.556874 1_555
Na7 O29 2.571927 1_555
Na7 O43 2.589080 1_565
Na7 O8 2.779163 1_555
Na7 O22 2.872512 1_455
Na8 O64 2.491032 1_555
Na8 O63 2.521022 1_555
Na8 O42 2.546265 1_565
Na8 O44 2.569061 1_555
Na8 O27 2.659035 1_555
Na8 O6 2.669098 1_555
Na8 O13 2.945895 1_565
Na8 O23 2.977505 1_565
Na9 O61 2.451627 1_555
Na9 O47 2.514883 1_565
Na9 O62 2.556874 1_555
Na9 O26 2.571927 1_554
Na9 O45 2.589081 1_455
Na9 O11 2.779163 1_555
Na9 O18 2.872511 1_565
Na10 O60 2.453438 1_555
Na10 O45 2.503410 1_555
Na10 O62 2.518880 1_555
Na10 O46 2.643527 1_565
Na10 O9 2.666766 1_555
Na10 O24 2.729143 1_554
Na10 O19 2.889541 1_555
Na10 O17 2.970125 1_555
Na11 O60 2.491032 1_555
Na11 O61 2.521022 1_555
Na11 O46 2.546264 1_455
Na11 O47 2.569061 1_555
Na11 O25 2.659035 1_554
Na11 O10 2.669098 1_555
Na11 O15 2.945895 1_455
Na11 O20 2.977505 1_455
Na12 O40 2.453433 1_655
Na12 O55 2.503418 1_555
Na12 O41 2.518865 1_555
Na12 O54 2.643518 1_555
Na12 O19 2.666746 1_556
Na12 O4 2.729158 1_555
Na12 O33 2.889541 1_655
Na12 O26 2.970125 1_655
Na13 O39 2.451635 1_655
Na13 O56 2.514866 1_555
Na13 O41 2.556890 1_545
Na13 O5 2.571954 1_555
Na13 O55 2.589070 1_555
Na13 O20 2.779137 1_556
Na13 O34 2.872512 1_545
Na14 O40 2.491040 1_545
Na14 O39 2.521013 1_555
Na14 O54 2.546269 1_555
Na14 O56 2.569076 1_555
Na14 O3 2.659055 1_555
Na14 O18 2.669084 1_556
Na14 O25 2.945895 1_555
Na14 O35 2.977505 1_555
Na15 O37 2.451635 1_545
Na15 O59 2.514866 1_555
Na15 O38 2.556890 1_655
Na15 O2 2.571953 1_555
Na15 O57 2.589070 1_555
Na15 O23 2.779137 1_555
Na15 O30 2.872511 1_655
Na16 O36 2.453433 1_545
Na16 O57 2.503418 1_555
Na16 O38 2.518865 1_555
Na16 O58 2.643518 1_555
Na16 O21 2.666746 1_555
Na16 O0 2.729158 1_555
Na16 O31 2.889541 1_545
Na16 O29 2.970125 1_545
Na17 O36 2.491040 1_655
Na17 O37 2.521012 1_555
Na17 O58 2.546269 1_555
Na17 O59 2.569076 1_555
Na17 O1 2.659055 1_555
Na17 O22 2.669084 1_555
Na17 O27 2.945895 1_555
Na17 O32 2.977505 1_555
Na18 O36 2.462988 1_655
Na18 O37 2.513720 1_555
Na18 O44 2.523622 1_555
Na18 O43 2.577414 1_665
Na18 O42 2.639523 1_565
Na18 O38 2.644072 1_665
Na19 O40 2.462988 1_545
Na19 O39 2.513720 1_555
Na19 O47 2.523622 1_556
Na19 O45 2.577414 1_446
Na19 O46 2.639523 1_456
Na19 O41 2.644072 1_445
Na20 O48 2.462988 1_555
Na20 O49 2.513720 1_555
Na20 O56 2.523622 1_555
Na20 O55 2.577414 1_555
Na20 O54 2.639523 1_555
Na20 O50 2.644072 1_555
Na21 O52 2.462988 1_555
Na21 O51 2.513720 1_555
Na21 O59 2.523622 1_555
Na21 O57 2.577414 1_555
Na21 O58 2.639523 1_555
Na21 O53 2.644072 1_555
Na22 O60 2.462988 1_555
Na22 O61 2.513720 1_555
Na22 O68 2.523622 1_555
Na22 O67 2.577414 1_555
Na22 O66 2.639523 1_555
Na22 O62 2.644072 1_555
Na23 O64 2.462988 1_555
Na23 O63 2.513720 1_555
Na23 O71 2.523622 1_555
Na23 O69 2.577414 1_555
Na23 O70 2.639523 1_555
Na23 O65 2.644072 1_555
O0 P0 1.531339 1_545
O0 Sc0 2.127526 1_445
O1 Si0 1.619175 1_555
O1 Sc0 1.987877 1_555
O2 Si1 1.617342 1_655
O2 Sc0 2.017663 1_545
O3 Si2 1.619175 1_555
O3 Sc1 1.987877 1_555
O4 P1 1.531339 1_655
O4 Sc1 2.127526 1_665
O5 Si3 1.617342 1_545
O5 Sc1 2.017663 1_655
O6 Si3 1.663744 1_555
O6 Sn0 2.028341 1_565
O7 Si2 1.663450 1_555
O7 Sn0 2.042292 1_455
O8 P1 1.564555 1_555
O8 Sn0 2.111408 1_465
O9 Si0 1.663450 1_555
O9 Sn1 2.042292 1_565
O10 Si1 1.663744 1_555
O10 Sn1 2.028341 1_455
O11 P0 1.564555 1_555
O11 Sn1 2.111408 1_465
O12 P2 1.531339 1_555
O12 Sc2 2.127526 1_555
O13 Si4 1.619175 1_555
O13 Sc2 1.987877 1_555
O14 Si5 1.617342 1_555
O14 Sc2 2.017663 1_555
O15 Si6 1.619175 1_555
O15 Sc3 1.987877 1_555
O16 P3 1.531339 1_555
O16 Sc3 2.127526 1_555
O17 Si7 1.617342 1_555
O17 Sc3 2.017663 1_555
O18 Si7 1.663744 1_555
O18 Sn2 2.028341 1_554
O19 Si6 1.663450 1_555
O19 Sn2 2.042292 1_554
O20 P3 1.564555 1_555
O20 Sn2 2.111408 1_554
O21 Si4 1.663450 1_555
O21 Sn3 2.042292 1_555
O22 Si5 1.663744 1_555
O22 Sn3 2.028341 1_555
O23 P2 1.564555 1_555
O23 Sn3 2.111408 1_555
O24 P4 1.531339 1_555
O24 Sc4 2.127526 1_556
O25 Si8 1.619175 1_555
O25 Sc4 1.987877 1_556
O26 Si9 1.617342 1_555
O26 Sc4 2.017663 1_556
O27 Si10 1.619175 1_555
O27 Sc5 1.987877 1_555
O28 P5 1.531339 1_555
O28 Sc5 2.127526 1_555
O29 Si11 1.617342 1_555
O29 Sc5 2.017663 1_555
O30 Si11 1.663744 1_555
O30 Sn4 2.028341 1_555
O31 Si10 1.663450 1_555
O31 Sn4 2.042292 1_555
O32 P5 1.564555 1_555
O32 Sn4 2.111408 1_555
O33 Si8 1.663450 1_555
O33 Sn5 2.042292 1_555
O34 Si9 1.663744 1_555
O34 Sn5 2.028341 1_555
O35 P4 1.564555 1_555
O35 Sn5 2.111408 1_555
O36 Si11 1.635120 1_555
O36 Sc0 2.133117 1_455
O37 Si10 1.634429 1_555
O37 Sc0 2.086359 1_555
O38 P5 1.544862 1_555
O38 Sc0 2.223839 1_445
O39 Si8 1.634429 1_555
O39 Sc1 2.086359 1_555
O40 Si9 1.635120 1_555
O40 Sc1 2.133117 1_565
O41 P4 1.544862 1_555
O41 Sc1 2.223839 1_665
O42 P2 1.563327 1_555
O42 Sn0 2.171966 1_555
O43 Si4 1.662827 1_555
O43 Sn0 2.077168 1_455
O44 Si5 1.665286 1_555
O44 Sn0 2.086345 1_565
O45 Si6 1.662827 1_555
O45 Sn1 2.077168 1_565
O46 P3 1.563327 1_555
O46 Sn1 2.171967 1_555
O47 Si7 1.665286 1_555
O47 Sn1 2.086345 1_455
O48 Si3 1.635120 1_545
O48 Sc2 2.133117 1_555
O49 Si2 1.634429 1_555
O49 Sc2 2.086359 1_555
O50 P1 1.544862 1_655
O50 Sc2 2.223839 1_555
O51 Si0 1.634429 1_555
O51 Sc3 2.086359 1_555
O52 Si1 1.635120 1_655
O52 Sc3 2.133117 1_555
O53 P0 1.544862 1_545
O53 Sc3 2.223839 1_555
O54 P4 1.563339 1_555
O54 Sn2 2.171966 1_555
O55 Si8 1.662813 1_655
O55 Sn2 2.077168 1_555
O56 Si9 1.665283 1_545
O56 Sn2 2.086345 1_555
O57 Si10 1.662813 1_545
O57 Sn3 2.077168 1_555
O58 P5 1.563340 1_555
O58 Sn3 2.171967 1_555
O59 Si11 1.665283 1_655
O59 Sn3 2.086345 1_555
O60 Si7 1.635133 1_555
O60 Sc4 2.133117 1_555
O61 Si6 1.634415 1_455
O61 Sc4 2.086359 1_555
O62 P3 1.544858 1_565
O62 Sc4 2.223839 1_555
O63 Si4 1.634415 1_565
O63 Sc5 2.086359 1_555
O64 Si5 1.635133 1_555
O64 Sc5 2.133117 1_555
O65 P2 1.544858 1_455
O65 Sc5 2.223839 1_555
O66 P0 1.563327 1_555
O66 Sn4 2.171966 1_555
O67 Si0 1.662827 1_555
O67 Sn4 2.077168 1_555
O68 Si1 1.665286 1_555
O68 Sn4 2.086345 1_555
O69 Si2 1.662827 1_555
O69 Sn5 2.077168 1_555
O70 P1 1.563327 1_555
O70 Sn5 2.171967 1_555
O71 Si3 1.665286 1_555
O71 Sn5 2.086345 1_555
