# generated using pymatgen
data_Na2Sc3NbP4(SO12)2
_symmetry_space_group_name_H-M   'P 1'
_cell_length_a   8.82260414
_cell_length_b   8.82612834
_cell_length_c   23.06002984
_cell_angle_alpha   90.19108923
_cell_angle_beta   89.84865867
_cell_angle_gamma   120.05442987
_symmetry_Int_Tables_number   1
_chemical_formula_structural   Na2Sc3NbP4(SO12)2
_chemical_formula_sum   'Na6 Sc9 Nb3 P12 S6 O72'
_cell_volume   1554.23390944
_cell_formula_units_Z   3
loop_
 _symmetry_equiv_pos_site_id
 _symmetry_equiv_pos_as_xyz
  1  'x, y, z'
loop_
 _atom_site_type_symbol
 _atom_site_label
 _atom_site_symmetry_multiplicity
 _atom_site_fract_x
 _atom_site_fract_y
 _atom_site_fract_z
 _atom_site_occupancy
  Na  Na0  1  0.99706039  0.99625869  0.49946352  1
  Na  Na1  1  0.00269041  0.00000888  0.99861537  1
  Na  Na2  1  0.66678965  0.33258724  0.83105798  1
  Na  Na3  1  0.67326233  0.33629363  0.33224654  1
  Na  Na4  1  0.33106885  0.66087424  0.16279067  1
  Na  Na5  1  0.33352991  0.66651087  0.66760106  1
  Sc  Sc0  1  0.98639748  0.99308351  0.35209857  1
  Sc  Sc1  1  0.00066458  0.00067563  0.85209992  1
  Sc  Sc2  1  0.99972125  0.99941455  0.65294054  1
  Sc  Sc3  1  0.99816926  0.00198974  0.14547322  1
  Sc  Sc4  1  0.66651329  0.33347148  0.69024081  1
  Sc  Sc5  1  0.67463496  0.34617830  0.18494610  1
  Sc  Sc6  1  0.67345935  0.33322129  0.47904544  1
  Sc  Sc7  1  0.32796988  0.66132861  0.01863879  1
  Sc  Sc8  1  0.33506318  0.67473209  0.51790936  1
  Nb  Nb0  1  0.66384155  0.34134414  0.97804662  1
  Nb  Nb1  1  0.33105246  0.66779034  0.31218724  1
  Nb  Nb2  1  0.33236906  0.66709546  0.81262818  1
  P  P0  1  0.71125820  0.70948820  0.24984040  1
  P  P1  1  0.99586489  0.28602867  0.25031436  1
  P  P2  1  0.28970086  0.28874854  0.75069839  1
  P  P3  1  0.99876891  0.71039170  0.75067238  1
  P  P4  1  0.71147611  0.00135250  0.75077710  1
  P  P5  1  0.95932026  0.62557088  0.08362707  1
  P  P6  1  0.37555604  0.33404580  0.08447943  1
  P  P7  1  0.62304756  0.67282260  0.91735468  1
  P  P8  1  0.04423686  0.37513232  0.91737214  1
  P  P9  1  0.33078443  0.95412206  0.91798234  1
  P  P10  1  0.62310510  0.95671988  0.41721175  1
  P  P11  1  0.04337822  0.66905679  0.41727475  1
  S  S0  1  0.29068565  0.00267741  0.25039644  1
  S  S1  1  0.95851338  0.33264565  0.58339520  1
  S  S2  1  0.37545148  0.04397212  0.58314647  1
  S  S3  1  0.66673885  0.62422042  0.58307813  1
  S  S4  1  0.66527823  0.04435264  0.08321799  1
  S  S5  1  0.33252128  0.37639923  0.41680165  1
  O  O0  1  0.21240044  0.02661538  0.30333903  1
  O  O1  1  0.81962635  0.79084719  0.30465292  1
  O  O2  1  0.97612437  0.18135491  0.30526941  1
  O  O3  1  0.20991972  0.18069376  0.80464637  1
  O  O4  1  0.97059961  0.79017315  0.80476431  1
  O  O5  1  0.81954159  0.02941432  0.80470454  1
  O  O6  1  0.78474100  0.96396990  0.69519298  1
  O  O7  1  0.17919948  0.21516660  0.69523709  1
  O  O8  1  0.03629913  0.82079402  0.69527163  1
  O  O9  1  0.78629053  0.82256435  0.19595732  1
  O  O10  1  0.03703943  0.21373890  0.19596618  1
  O  O11  1  0.18362683  0.96553939  0.19823621  1
  O  O12  1  0.87800212  0.36147183  0.63519662  1
  O  O13  1  0.48370076  0.12291348  0.63519362  1
  O  O14  1  0.63899779  0.51651315  0.63513591  1
  O  O15  1  0.87429360  0.51050803  0.13687276  1
  O  O16  1  0.63855309  0.12303892  0.13593424  1
  O  O17  1  0.48946823  0.35899190  0.13743320  1
  O  O18  1  0.47095991  0.30808170  0.02882095  1
  O  O19  1  0.83706574  0.52780538  0.02893196  1
  O  O20  1  0.69319759  0.15510171  0.03042366  1
  O  O21  1  0.45733797  0.15048995  0.53051970  1
  O  O22  1  0.69222177  0.54186296  0.53038101  1
  O  O23  1  0.85022878  0.30628790  0.53078057  1
  O  O24  1  0.53933150  0.69381096  0.97160541  1
  O  O25  1  0.15380045  0.45968736  0.97088323  1
  O  O26  1  0.30747640  0.84562464  0.97138812  1
  O  O27  1  0.53860579  0.84208931  0.47058477  1
  O  O28  1  0.30488343  0.45644893  0.46897517  1
  O  O29  1  0.15655060  0.69340547  0.47055855  1
  O  O30  1  0.13697952  0.64097061  0.36232771  1
  O  O31  1  0.50365783  0.86141504  0.36254161  1
  O  O32  1  0.36083495  0.48818207  0.36382322  1
  O  O33  1  0.13053867  0.49511330  0.86250205  1
  O  O34  1  0.36423787  0.86865403  0.86251110  1
  O  O35  1  0.50453362  0.63515872  0.86233611  1
  O  O36  1  0.02906229  0.83273979  0.40894772  1
  O  O37  1  0.80461776  0.97653945  0.41009767  1
  O  O38  1  0.17739306  0.20234293  0.40922754  1
  O  O39  1  0.01979359  0.19380677  0.90941848  1
  O  O40  1  0.17502751  0.98015711  0.90956538  1
  O  O41  1  0.80664516  0.82560671  0.90962363  1
  O  O42  1  0.97601475  0.17450907  0.58851658  1
  O  O43  1  0.19850450  0.02368410  0.58855232  1
  O  O44  1  0.82470268  0.80086224  0.58852337  1
  O  O45  1  0.97054602  0.80414958  0.08834834  1
  O  O46  1  0.82475103  0.02890940  0.08793242  1
  O  O47  1  0.19553721  0.16686714  0.08808262  1
  O  O48  1  0.68407264  0.15899089  0.74254067  1
  O  O49  1  0.47489609  0.31601262  0.74253081  1
  O  O50  1  0.84109665  0.52504065  0.74252048  1
  O  O51  1  0.68170950  0.52333630  0.24476072  1
  O  O52  1  0.83837436  0.31328539  0.24427361  1
  O  O53  1  0.46876667  0.15289707  0.24408090  1
  O  O54  1  0.63849280  0.50015357  0.92414301  1
  O  O55  1  0.85873013  0.35972194  0.92526504  1
  O  O56  1  0.50239971  0.13994580  0.92525358  1
  O  O57  1  0.63629779  0.13686688  0.42198063  1
  O  O58  1  0.49199536  0.36202630  0.42206125  1
  O  O59  1  0.86211607  0.50245248  0.42201703  1
  O  O60  1  0.36078225  0.49771130  0.07638817  1
  O  O61  1  0.13946173  0.64332259  0.07636168  1
  O  O62  1  0.50988927  0.86917332  0.07665944  1
  O  O63  1  0.35734295  0.86664634  0.57706215  1
  O  O64  1  0.50764796  0.64143238  0.57652159  1
  O  O65  1  0.13494353  0.49074535  0.57629755  1
  O  O66  1  0.30881516  0.83895672  0.25795604  1
  O  O67  1  0.52248059  0.68958281  0.26103522  1
  O  O68  1  0.16624464  0.47643357  0.26105111  1
  O  O69  1  0.31040435  0.47709635  0.75934877  1
  O  O70  1  0.16663218  0.68972281  0.75915154  1
  O  O71  1  0.52300142  0.83316700  0.75933309  1
loop_
_geom_bond_atom_site_label_1
_geom_bond_atom_site_label_2
_geom_bond_distance
_geom_bond_site_symmetry_2
Na0 O37 2.622954 1_555
Na0 O44 2.623867 1_555
Na0 O36 2.627624 1_655
Na0 O42 2.644956 1_565
Na0 O43 2.650063 1_665
Na0 O38 2.697921 1_665
Na1 O40 2.609080 1_545
Na1 O47 2.609330 1_556
Na1 O45 2.623021 1_446
Na1 O41 2.627407 1_445
Na1 O39 2.634881 1_555
Na1 O46 2.674380 1_456
Na2 O48 2.597863 1_555
Na2 O50 2.609358 1_555
Na2 O49 2.612148 1_555
Na2 O54 2.683865 1_555
Na2 O56 2.692702 1_555
Na2 O55 2.693352 1_555
Na3 O52 2.560599 1_555
Na3 O51 2.588261 1_555
Na3 O59 2.600516 1_555
Na3 O57 2.632903 1_555
Na3 O53 2.661003 1_555
Na3 O58 2.691084 1_555
Na4 O60 2.543360 1_555
Na4 O61 2.570486 1_555
Na4 O62 2.629922 1_555
Na4 O68 2.744993 1_555
Na4 O66 2.758398 1_555
Na4 O67 2.763412 1_555
Na5 O70 2.636283 1_555
Na5 O71 2.639639 1_555
Na5 O69 2.644314 1_555
Na5 O64 2.672173 1_555
Na5 O63 2.678428 1_555
Na5 O65 2.680390 1_555
Nb0 O18 1.960688 1_556
Nb0 O54 1.971516 1_555
Nb0 O19 1.974413 1_556
Nb0 O56 2.032061 1_555
Nb0 O55 2.043300 1_555
Nb0 O20 2.160859 1_556
Nb1 O68 1.973120 1_555
Nb1 O30 1.977383 1_555
Nb1 O67 1.986541 1_555
Nb1 O31 1.994302 1_555
Nb1 O66 2.048299 1_555
Nb1 O32 2.105076 1_555
Nb2 O70 2.000598 1_555
Nb2 O71 2.004841 1_555
Nb2 O69 2.005309 1_555
Nb2 O34 2.013472 1_555
Nb2 O33 2.022638 1_555
Nb2 O35 2.034889 1_555
O0 S0 1.467025 1_555
O0 Sc0 2.174148 1_445
O1 P0 1.529719 1_555
O1 Sc0 1.978099 1_555
O2 P1 1.528167 1_555
O2 Sc0 2.024593 1_545
O3 P2 1.511135 1_555
O3 Sc1 2.047701 1_555
O4 P3 1.510402 1_555
O4 Sc1 2.051368 1_665
O5 P4 1.511454 1_555
O5 Sc1 2.056564 1_655
O6 P4 1.541441 1_565
O6 Sc2 2.010613 1_555
O7 P2 1.541028 1_555
O7 Sc2 2.015035 1_445
O8 P3 1.540827 1_455
O8 Sc2 2.015935 1_455
O9 P0 1.523272 1_555
O9 Sc3 2.095984 1_565
O10 P1 1.527797 1_455
O10 Sc3 2.076502 1_455
O11 S0 1.462744 1_565
O11 Sc3 2.191233 1_465
O12 S1 1.473338 1_555
O12 Sc4 2.163669 1_555
O13 S2 1.473778 1_555
O13 Sc4 2.158515 1_555
O14 S3 1.475708 1_555
O14 Sc4 2.166061 1_555
O15 P5 1.530384 1_555
O15 Sc5 1.968963 1_555
O16 S4 1.473964 1_555
O16 Sc5 2.148617 1_555
O17 P6 1.527311 1_555
O17 Sc5 2.019258 1_555
O18 P6 1.610548 1_555
O19 P5 1.602014 1_555
O20 S4 1.504490 1_555
O21 S2 1.483651 1_555
O21 Sc6 2.136903 1_555
O22 S3 1.487276 1_555
O22 Sc6 2.121571 1_555
O23 S1 1.490143 1_555
O23 Sc6 2.072464 1_555
O24 P7 1.508481 1_555
O24 Sc7 2.047378 1_556
O25 P8 1.513801 1_555
O25 Sc7 1.999488 1_556
O26 P9 1.511714 1_555
O26 Sc7 2.042857 1_556
O27 P10 1.530421 1_555
O27 Sc8 1.985220 1_555
O28 S5 1.473597 1_555
O28 Sc8 2.128207 1_555
O29 P11 1.530586 1_555
O29 Sc8 1.992529 1_555
O30 P11 1.595721 1_555
O31 P10 1.587300 1_555
O32 S5 1.512573 1_555
O33 P8 1.580623 1_555
O34 P9 1.583354 1_555
O35 P7 1.571465 1_555
O36 P11 1.524695 1_555
O36 Sc0 2.100394 1_455
O37 P10 1.529787 1_555
O37 Sc0 2.034111 1_555
O38 S5 1.468730 1_555
O38 Sc0 2.205531 1_445
O39 P8 1.514591 1_555
O39 Sc1 2.092656 1_555
O40 P9 1.515536 1_555
O40 Sc1 2.108726 1_565
O41 P7 1.512012 1_555
O41 Sc1 2.104672 1_665
O42 S1 1.484225 1_555
O42 Sc2 2.231547 1_545
O43 S2 1.484540 1_555
O43 Sc2 2.222237 1_445
O44 S3 1.487268 1_555
O44 Sc2 2.224025 1_555
O45 P5 1.532478 1_555
O45 Sc3 2.098537 1_565
O46 S4 1.484233 1_555
O46 Sc3 2.129541 1_555
O47 P6 1.536025 1_555
O47 Sc3 2.088969 1_455
O48 P4 1.539249 1_555
O48 Sc4 2.025445 1_555
O49 P2 1.538790 1_555
O49 Sc4 2.016249 1_555
O50 P3 1.538372 1_555
O50 Sc4 2.017998 1_555
O51 P0 1.533292 1_555
O51 Sc5 2.059043 1_555
O52 P1 1.531009 1_555
O52 Sc5 2.115663 1_555
O53 S0 1.470079 1_555
O53 Sc5 2.228794 1_555
O54 P7 1.604794 1_555
O55 P8 1.582996 1_655
O56 P9 1.588297 1_545
O57 P10 1.538595 1_545
O57 Sc6 2.064103 1_555
O58 S5 1.479922 1_555
O58 Sc6 2.185309 1_555
O59 P11 1.541556 1_655
O59 Sc6 2.059648 1_555
O60 P6 1.526106 1_555
O60 Sc7 2.091958 1_555
O61 P5 1.525743 1_455
O61 Sc7 2.070759 1_555
O62 S4 1.472855 1_565
O62 Sc7 2.185688 1_555
O63 S2 1.497646 1_565
O63 Sc8 2.102611 1_555
O64 S3 1.493610 1_555
O64 Sc8 2.166433 1_555
O65 S1 1.490444 1_455
O65 Sc8 2.167342 1_555
O66 S0 1.541880 1_565
O67 P0 1.605109 1_555
O68 P1 1.616775 1_455
O69 P2 1.590755 1_555
O70 P3 1.592868 1_455
O71 P4 1.592256 1_565
