# generated using pymatgen
data_Ca3MnNiO6
_symmetry_space_group_name_H-M   'P 1'
_cell_length_a   6.40531844
_cell_length_b   6.40530848
_cell_length_c   6.40531004
_cell_angle_alpha   92.16063131
_cell_angle_beta   92.16103074
_cell_angle_gamma   92.16098034
_symmetry_Int_Tables_number   1
_chemical_formula_structural   Ca3MnNiO6
_chemical_formula_sum   'Ca6 Mn2 Ni2 O12'
_cell_volume   262.22217134
_cell_formula_units_Z   2
loop_
 _symmetry_equiv_pos_site_id
 _symmetry_equiv_pos_as_xyz
  1  'x, y, z'
loop_
 _atom_site_type_symbol
 _atom_site_label
 _atom_site_symmetry_multiplicity
 _atom_site_fract_x
 _atom_site_fract_y
 _atom_site_fract_z
 _atom_site_occupancy
  Ca  Ca0  1  0.25000100  0.61083600  0.88916500  1
  Ca  Ca1  1  0.38916500  0.11083600  0.74999900  1
  Ca  Ca2  1  0.11083600  0.74999900  0.38916400  1
  Ca  Ca3  1  0.74999900  0.38916500  0.11083500  1
  Ca  Ca4  1  0.61083500  0.88916500  0.25000100  1
  Ca  Ca5  1  0.88916400  0.25000100  0.61083600  1
  Mn  Mn0  1  0.50000300  0.50000100  0.50000200  1
  Mn  Mn1  1  0.99999600  0.99999600  0.99999900  1
  Ni  Ni0  1  0.74999900  0.75000000  0.74999900  1
  Ni  Ni1  1  0.25000000  0.25000100  0.24999900  1
  O  O0  1  0.54151500  0.21083000  0.42136600  1
  O  O1  1  0.45848400  0.78917100  0.57863200  1
  O  O2  1  0.78917300  0.57863400  0.45848400  1
  O  O3  1  0.57863400  0.45848600  0.78917000  1
  O  O4  1  0.71082600  0.04151700  0.92136700  1
  O  O5  1  0.04151500  0.92136700  0.71082900  1
  O  O6  1  0.07863300  0.28917100  0.95848600  1
  O  O7  1  0.95848500  0.07863300  0.28917100  1
  O  O8  1  0.28917400  0.95848500  0.07863300  1
  O  O9  1  0.42136600  0.54151400  0.21083000  1
  O  O10  1  0.21082700  0.42136600  0.54151500  1
  O  O11  1  0.92136700  0.71082900  0.04151500  1
loop_
_geom_bond_atom_site_label_1
_geom_bond_atom_site_label_2
_geom_bond_distance
_geom_bond_site_symmetry_2
Ca0 O9 2.362683 1_556
Ca0 O6 2.362691 1_555
Ca0 O3 2.450103 1_555
Ca0 O11 2.450106 1_456
Ca0 O8 2.495105 1_556
Ca0 O10 2.495117 1_555
Ca0 O1 2.702052 1_555
Ca0 O5 2.702053 1_555
Ca1 O4 2.362668 1_555
Ca1 O1 2.362693 1_545
Ca1 O0 2.450095 1_555
Ca1 O8 2.450096 1_546
Ca1 O3 2.495108 1_555
Ca1 O5 2.495109 1_545
Ca1 O10 2.702046 1_555
Ca1 O6 2.702069 1_555
Ca2 O2 2.362673 1_455
Ca2 O5 2.362699 1_555
Ca2 O10 2.450089 1_555
Ca2 O7 2.450100 1_465
Ca2 O1 2.495095 1_555
Ca2 O11 2.495102 1_455
Ca2 O9 2.702050 1_555
Ca2 O8 2.702059 1_555
Ca3 O3 2.362682 1_554
Ca3 O11 2.362684 1_555
Ca3 O9 2.450100 1_555
Ca3 O6 2.450105 1_654
Ca3 O4 2.495099 1_554
Ca3 O2 2.495108 1_555
Ca3 O0 2.702045 1_555
Ca3 O7 2.702058 1_555
Ca4 O8 2.362669 1_555
Ca4 O0 2.362689 1_565
Ca4 O1 2.450086 1_555
Ca4 O4 2.450098 1_564
Ca4 O7 2.495106 1_565
Ca4 O9 2.495114 1_555
Ca4 O2 2.702047 1_555
Ca4 O11 2.702069 1_555
Ca5 O10 2.362675 1_655
Ca5 O7 2.362699 1_555
Ca5 O2 2.450091 1_555
Ca5 O5 2.450100 1_645
Ca5 O0 2.495106 1_555
Ca5 O6 2.495107 1_655
Ca5 O3 2.702050 1_555
Ca5 O4 2.702052 1_555
Mn0 O3 1.931826 1_555
Mn0 O1 1.931846 1_555
Mn0 O2 1.931848 1_555
Mn0 O0 1.931852 1_555
Mn0 O9 1.931857 1_555
Mn0 O10 1.931882 1_555
Mn1 O11 1.931818 1_556
Mn1 O5 1.931845 1_655
Mn1 O4 1.931850 1_565
Mn1 O7 1.931859 1_566
Mn1 O6 1.931875 1_665
Mn1 O8 1.931890 1_656
Ni0 O3 2.157750 1_555
Ni0 O1 2.157763 1_555
Ni0 O5 2.157768 1_655
Ni0 O2 2.157768 1_555
Ni0 O11 2.157769 1_556
Ni0 O4 2.157784 1_565
Ni1 O9 2.157745 1_555
Ni1 O6 2.157749 1_554
Ni1 O0 2.157763 1_555
Ni1 O7 2.157768 1_455
Ni1 O10 2.157770 1_555
Ni1 O8 2.157774 1_545
