# generated using pymatgen
data_Na6Mg2Ta4Si3(PO6)6
_symmetry_space_group_name_H-M   'P 1'
_cell_length_a   8.91836134
_cell_length_b   8.91836105
_cell_length_c   22.43175673
_cell_angle_alpha   90.13737394
_cell_angle_beta   89.86262607
_cell_angle_gamma   120.20591987
_symmetry_Int_Tables_number   1
_chemical_formula_structural   Na6Mg2Ta4Si3(PO6)6
_chemical_formula_sum   'Na12 Mg4 Ta8 Si6 P12 O72'
_cell_volume   1541.90448842
_cell_formula_units_Z   2
loop_
 _symmetry_equiv_pos_site_id
 _symmetry_equiv_pos_as_xyz
  1  'x, y, z'
loop_
 _atom_site_type_symbol
 _atom_site_label
 _atom_site_symmetry_multiplicity
 _atom_site_fract_x
 _atom_site_fract_y
 _atom_site_fract_z
 _atom_site_occupancy
  Na  Na0  1  0.36544704  0.35507484  0.24315635  1
  Na  Na1  1  0.98315299  0.62978539  0.24064388  1
  Na  Na2  1  0.64492516  0.63455296  0.74315635  1
  Na  Na3  1  0.37021461  0.01684701  0.74064388  1
  Na  Na4  1  0.71284343  0.03250347  0.91249127  1
  Na  Na5  1  0.96749653  0.28715657  0.41249127  1
  Na  Na6  1  0.00885856  0.99171979  0.49203525  1
  Na  Na7  1  0.00828021  0.99114144  0.99203525  1
  Na  Na8  1  0.68380305  0.34874949  0.82694729  1
  Na  Na9  1  0.65125051  0.31619695  0.32694729  1
  Na  Na10  1  0.34705504  0.69499143  0.16160864  1
  Na  Na11  1  0.30500857  0.65294496  0.66160864  1
  Mg  Mg0  1  0.00434532  0.99779171  0.35555121  1
  Mg  Mg1  1  0.00220829  0.99565468  0.85555121  1
  Mg  Mg2  1  0.67444925  0.33122079  0.68400670  1
  Mg  Mg3  1  0.66877921  0.32555075  0.18400670  1
  Ta  Ta0  1  0.00182466  0.00499373  0.64334616  1
  Ta  Ta1  1  0.99500627  0.99817534  0.14334616  1
  Ta  Ta2  1  0.66982574  0.34093594  0.98203585  1
  Ta  Ta3  1  0.65906406  0.33017426  0.48203585  1
  Ta  Ta4  1  0.33698838  0.66772140  0.02189653  1
  Ta  Ta5  1  0.33227860  0.66301162  0.52189653  1
  Ta  Ta6  1  0.34029736  0.67084959  0.31206205  1
  Ta  Ta7  1  0.32915041  0.65970264  0.81206205  1
  Si  Si0  1  0.95172047  0.33288884  0.58456358  1
  Si  Si1  1  0.37636283  0.04090269  0.58876927  1
  Si  Si2  1  0.95909731  0.62363717  0.08876927  1
  Si  Si3  1  0.66711116  0.04827953  0.08456358  1
  Si  Si4  1  0.62618200  0.66083492  0.91544070  1
  Si  Si5  1  0.33916508  0.37381800  0.41544070  1
  P  P0  1  0.28916106  0.00287471  0.25184650  1
  P  P1  1  0.71223832  0.71486845  0.25210197  1
  P  P2  1  0.99627987  0.28787373  0.25474786  1
  P  P3  1  0.28513155  0.28776168  0.75210197  1
  P  P4  1  0.99712529  0.71083894  0.75184650  1
  P  P5  1  0.71212627  0.00372013  0.75474786  1
  P  P6  1  0.66586646  0.62194685  0.58665983  1
  P  P7  1  0.37805315  0.33413354  0.08665983  1
  P  P8  1  0.04169767  0.37756908  0.91778739  1
  P  P9  1  0.33344724  0.95604381  0.91667242  1
  P  P10  1  0.62243092  0.95830233  0.41778739  1
  P  P11  1  0.04395619  0.66655276  0.41667242  1
  O  O0  1  0.20259102  0.02320728  0.30672252  1
  O  O1  1  0.82272358  0.80063780  0.30608789  1
  O  O2  1  0.98702646  0.19481220  0.31226564  1
  O  O3  1  0.19936220  0.17727642  0.80608789  1
  O  O4  1  0.97679272  0.79740898  0.80672252  1
  O  O5  1  0.80518780  0.01297354  0.81226564  1
  O  O6  1  0.80186340  0.97177697  0.69944239  1
  O  O7  1  0.17431678  0.19872224  0.69424931  1
  O  O8  1  0.02916539  0.83018140  0.69555287  1
  O  O9  1  0.80127776  0.82568322  0.19424931  1
  O  O10  1  0.02822303  0.19813660  0.19944239  1
  O  O11  1  0.16981860  0.97083461  0.19555287  1
  O  O12  1  0.87901932  0.37574740  0.64133763  1
  O  O13  1  0.47690192  0.11444385  0.64921969  1
  O  O14  1  0.62884826  0.52068914  0.64372336  1
  O  O15  1  0.88555615  0.52309808  0.14921969  1
  O  O16  1  0.62425260  0.12098068  0.14133763  1
  O  O17  1  0.47931086  0.37115174  0.14372336  1
  O  O18  1  0.47048204  0.30620407  0.03139112  1
  O  O19  1  0.82979077  0.52364246  0.03025634  1
  O  O20  1  0.69325478  0.16073992  0.02226682  1
  O  O21  1  0.47635754  0.17020923  0.53025634  1
  O  O22  1  0.69379593  0.52951796  0.53139112  1
  O  O23  1  0.83926008  0.30674522  0.52226682  1
  O  O24  1  0.51006569  0.67201840  0.97000578  1
  O  O25  1  0.14897270  0.47504164  0.97228181  1
  O  O26  1  0.31943338  0.84142644  0.97077361  1
  O  O27  1  0.52495836  0.85102730  0.47228181  1
  O  O28  1  0.32798160  0.48993431  0.47000578  1
  O  O29  1  0.15857356  0.68056662  0.47077361  1
  O  O30  1  0.13688839  0.64259849  0.35965655  1
  O  O31  1  0.50661856  0.86727904  0.36100786  1
  O  O32  1  0.36104063  0.49715882  0.35496078  1
  O  O33  1  0.13272096  0.49338144  0.86100786  1
  O  O34  1  0.35740151  0.86311161  0.85965655  1
  O  O35  1  0.50284118  0.63895937  0.85496078  1
  O  O36  1  0.02260393  0.82234362  0.41328689  1
  O  O37  1  0.80113739  0.97972296  0.41322411  1
  O  O38  1  0.16455546  0.19142801  0.41499325  1
  O  O39  1  0.02027704  0.19886261  0.91322411  1
  O  O40  1  0.17765638  0.97739607  0.91328689  1
  O  O41  1  0.80857199  0.83544454  0.91499325  1
  O  O42  1  0.96616230  0.15440700  0.59154793  1
  O  O43  1  0.18016895  0.01983131  0.59054199  1
  O  O44  1  0.83170947  0.80487021  0.59055029  1
  O  O45  1  0.98016869  0.81983105  0.09054199  1
  O  O46  1  0.84559300  0.03383770  0.09154793  1
  O  O47  1  0.19512979  0.16829053  0.09055029  1
  O  O48  1  0.67576385  0.15211604  0.74903626  1
  O  O49  1  0.47205878  0.32652977  0.74577311  1
  O  O50  1  0.83994426  0.53103974  0.74442666  1
  O  O51  1  0.67347023  0.52794122  0.24577311  1
  O  O52  1  0.84788396  0.32423615  0.24903626  1
  O  O53  1  0.46896026  0.16005574  0.24442666  1
  O  O54  1  0.63247819  0.48051712  0.92156650  1
  O  O55  1  0.85960720  0.36421527  0.92139257  1
  O  O56  1  0.50892916  0.13025470  0.92098271  1
  O  O57  1  0.63578473  0.14039280  0.42139257  1
  O  O58  1  0.51948288  0.36752181  0.42156650  1
  O  O59  1  0.86974530  0.49107084  0.42098271  1
  O  O60  1  0.34732324  0.48720372  0.07253479  1
  O  O61  1  0.15102975  0.65008550  0.07358845  1
  O  O62  1  0.50841963  0.84656861  0.07187017  1
  O  O63  1  0.34991450  0.84897025  0.57358845  1
  O  O64  1  0.51279628  0.65267676  0.57253479  1
  O  O65  1  0.15343139  0.49158037  0.57187017  1
  O  O66  1  0.29739687  0.82801578  0.25563536  1
  O  O67  1  0.52843034  0.70561608  0.25478539  1
  O  O68  1  0.17391499  0.47728396  0.25535788  1
  O  O69  1  0.29438392  0.47156966  0.75478539  1
  O  O70  1  0.17198422  0.70260313  0.75563536  1
  O  O71  1  0.52271604  0.82608501  0.75535788  1
loop_
_geom_bond_atom_site_label_1
_geom_bond_atom_site_label_2
_geom_bond_distance
_geom_bond_site_symmetry_2
Na0 O53 2.343931 1_555
Na0 O51 2.380228 1_555
Na0 O17 2.422986 1_555
Na0 O68 2.459719 1_555
Na0 O67 2.716579 1_555
Na0 O10 2.781634 1_555
Na0 O32 2.816298 1_555
Na0 O0 2.930436 1_555
Na1 O15 2.243790 1_555
Na1 O52 2.368534 1_555
Na1 O51 2.437402 1_555
Na1 O66 2.471645 1_655
Na1 O68 2.680703 1_655
Na1 O11 2.820901 1_655
Na1 O1 2.949030 1_555
Na1 O30 2.979669 1_655
Na2 O50 2.343931 1_555
Na2 O49 2.380228 1_555
Na2 O14 2.422986 1_555
Na2 O71 2.459719 1_555
Na2 O69 2.716579 1_555
Na2 O6 2.781634 1_555
Na2 O35 2.816298 1_555
Na2 O4 2.930436 1_555
Na3 O13 2.243790 1_555
Na3 O48 2.368534 1_555
Na3 O49 2.437402 1_555
Na3 O70 2.471645 1_545
Na3 O71 2.680703 1_545
Na3 O8 2.820901 1_545
Na3 O3 2.949030 1_555
Na3 O34 2.979669 1_545
Na4 O41 2.308910 1_545
Na4 O39 2.371899 1_655
Na4 O56 2.386698 1_555
Na4 O5 2.428320 1_555
Na4 O55 2.570403 1_555
Na4 O20 2.754569 1_556
Na5 O38 2.308910 1_655
Na5 O37 2.371898 1_545
Na5 O59 2.386698 1_555
Na5 O2 2.428320 1_555
Na5 O57 2.570403 1_555
Na5 O23 2.754569 1_555
Na6 O36 2.364254 1_555
Na6 O38 2.366790 1_565
Na6 O37 2.526669 1_455
Na6 O43 2.628279 1_565
Na6 O44 2.740116 1_455
Na6 O42 2.787352 1_465
Na7 O40 2.364254 1_555
Na7 O41 2.366790 1_455
Na7 O39 2.526669 1_565
Na7 O45 2.628279 1_456
Na7 O47 2.740116 1_566
Na7 O46 2.787352 1_466
Na8 O50 2.394317 1_555
Na8 O48 2.448306 1_555
Na8 O49 2.561091 1_555
Na8 O54 2.572943 1_555
Na8 O55 2.600493 1_555
Na8 O56 2.761322 1_555
Na9 O53 2.394317 1_555
Na9 O52 2.448306 1_555
Na9 O51 2.561091 1_555
Na9 O58 2.572943 1_555
Na9 O57 2.600493 1_555
Na9 O59 2.761322 1_555
Na10 O62 2.447903 1_555
Na10 O61 2.534440 1_555
Na10 O66 2.562115 1_555
Na10 O67 2.618233 1_555
Na10 O60 2.722701 1_555
Na10 O68 2.750246 1_555
Na11 O65 2.447903 1_555
Na11 O63 2.534440 1_555
Na11 O70 2.562115 1_555
Na11 O69 2.618233 1_555
Na11 O64 2.722701 1_555
Na11 O71 2.750246 1_555
Mg0 O0 1.991399 1_565
Mg0 O1 2.019867 1_455
Mg0 O38 2.077736 1_565
Mg0 O2 2.082312 1_465
Mg0 O36 2.102202 1_555
Mg0 O37 2.163309 1_455
Mg1 O4 1.991399 1_455
Mg1 O3 2.019867 1_565
Mg1 O41 2.077736 1_455
Mg1 O5 2.082312 1_465
Mg1 O40 2.102202 1_555
Mg1 O39 2.163309 1_565
Mg2 O12 1.914892 1_555
Mg2 O13 2.005638 1_555
Mg2 O14 2.130196 1_555
Mg2 O50 2.131311 1_555
Mg2 O48 2.170151 1_555
Mg2 O49 2.256488 1_555
Mg3 O16 1.914892 1_555
Mg3 O15 2.005638 1_555
Mg3 O17 2.130196 1_555
Mg3 O53 2.131311 1_555
Mg3 O52 2.170151 1_555
Mg3 O51 2.256488 1_555
O0 P0 1.509796 1_555
O1 P1 1.505129 1_555
O2 P2 1.515264 1_555
O3 P3 1.505129 1_555
O4 P4 1.509796 1_555
O5 P5 1.515264 1_555
O6 P5 1.575973 1_565
O6 Ta0 2.076265 1_665
O7 P3 1.582070 1_555
O7 Ta0 1.994990 1_555
O8 P4 1.583584 1_455
O8 Ta0 2.062557 1_565
O9 P1 1.582070 1_555
O9 Ta1 1.994990 1_555
O10 P2 1.575973 1_455
O10 Ta1 2.076265 1_445
O11 P0 1.583584 1_565
O11 Ta1 2.062557 1_455
O12 Si0 1.559318 1_555
O13 Si1 1.575666 1_555
O14 P6 1.505495 1_555
O15 Si2 1.575666 1_555
O16 Si3 1.559318 1_555
O17 P7 1.505495 1_555
O18 P7 1.574420 1_555
O18 Ta2 1.980003 1_554
O19 Si2 1.677731 1_555
O19 Ta2 1.876231 1_554
O20 Si3 1.668218 1_555
O20 Ta2 1.945877 1_554
O21 Si1 1.677731 1_555
O21 Ta3 1.876231 1_555
O22 P6 1.574420 1_555
O22 Ta3 1.980003 1_555
O23 Si0 1.668218 1_555
O23 Ta3 1.945877 1_555
O24 Si4 1.636388 1_555
O24 Ta4 1.915996 1_556
O25 P8 1.526083 1_555
O25 Ta4 2.025738 1_556
O26 P9 1.552408 1_555
O26 Ta4 1.998236 1_556
O27 P10 1.526083 1_555
O27 Ta5 2.025738 1_555
O28 Si5 1.636388 1_555
O28 Ta5 1.915996 1_555
O29 P11 1.552408 1_555
O29 Ta5 1.998236 1_555
O30 P11 1.593761 1_555
O30 Ta6 2.006558 1_555
O31 P10 1.582935 1_555
O31 Ta6 1.964309 1_555
O32 Si5 1.696633 1_555
O32 Ta6 1.912093 1_555
O33 P8 1.582935 1_555
O33 Ta7 1.964309 1_555
O34 P9 1.593761 1_555
O34 Ta7 2.006558 1_555
O35 Si4 1.696633 1_555
O35 Ta7 1.912093 1_555
O36 P11 1.496416 1_555
O37 P10 1.509974 1_555
O38 Si5 1.588139 1_555
O39 P8 1.509974 1_555
O40 P9 1.496416 1_555
O41 Si4 1.588139 1_555
O42 Si0 1.668063 1_555
O42 Ta0 1.913761 1_655
O43 Si1 1.663517 1_555
O43 Ta0 1.931393 1_555
O44 P6 1.558408 1_555
O44 Ta0 2.040492 1_665
O45 Si2 1.663517 1_555
O45 Ta1 1.931393 1_555
O46 Si3 1.668063 1_555
O46 Ta1 1.913761 1_545
O47 P7 1.558408 1_555
O47 Ta1 2.040492 1_445
O48 P5 1.518540 1_555
O49 P3 1.529050 1_555
O50 P4 1.517252 1_555
O51 P1 1.529050 1_555
O52 P2 1.518540 1_555
O53 P0 1.517252 1_555
O54 Si4 1.643200 1_555
O54 Ta2 1.981903 1_555
O55 P8 1.569313 1_655
O55 Ta2 2.096435 1_555
O56 P9 1.557524 1_545
O56 Ta2 2.179267 1_555
O57 P10 1.569313 1_545
O57 Ta3 2.096435 1_555
O58 Si5 1.643200 1_555
O58 Ta3 1.981903 1_555
O59 P11 1.557524 1_655
O59 Ta3 2.179267 1_555
O60 P7 1.555006 1_555
O60 Ta4 2.012264 1_555
O61 Si2 1.641012 1_455
O61 Ta4 1.961862 1_555
O62 Si3 1.660688 1_565
O62 Ta4 1.919400 1_555
O63 Si1 1.641012 1_565
O63 Ta5 1.961862 1_555
O64 P6 1.555006 1_555
O64 Ta5 2.012264 1_555
O65 Si0 1.660688 1_455
O65 Ta5 1.919400 1_555
O66 P0 1.600137 1_565
O66 Ta6 2.064852 1_555
O67 P1 1.600334 1_555
O67 Ta6 2.007520 1_555
O68 P2 1.634218 1_455
O68 Ta6 2.054471 1_555
O69 P3 1.600334 1_555
O69 Ta7 2.007520 1_555
O70 P4 1.600137 1_455
O70 Ta7 2.064852 1_555
O71 P5 1.634218 1_565
O71 Ta7 2.054471 1_555
