# generated using pymatgen
data_MnSO5
_symmetry_space_group_name_H-M   'P 1'
_cell_length_a   5.13676490
_cell_length_b   5.46513510
_cell_length_c   7.36675222
_cell_angle_alpha   110.84409461
_cell_angle_beta   108.81990003
_cell_angle_gamma   99.67837196
_symmetry_Int_Tables_number   1
_chemical_formula_structural   MnSO5
_chemical_formula_sum   'Mn2 S2 O10'
_cell_volume   173.33166589
_cell_formula_units_Z   2
loop_
 _symmetry_equiv_pos_site_id
 _symmetry_equiv_pos_as_xyz
  1  'x, y, z'
loop_
 _atom_site_type_symbol
 _atom_site_label
 _atom_site_symmetry_multiplicity
 _atom_site_fract_x
 _atom_site_fract_y
 _atom_site_fract_z
 _atom_site_occupancy
  Mn  Mn0  1  0.99996100  0.50001400  0.50005600  1
  Mn  Mn1  1  0.50003200  0.00008500  0.99997800  1
  S  S0  1  0.08796900  0.92689500  0.24780900  1
  S  S1  1  0.91201500  0.07307000  0.75213200  1
  O  O0  1  0.66703300  0.32625500  0.25524500  1
  O  O1  1  0.33295300  0.67383000  0.74481300  1
  O  O2  1  0.76082300  0.82168000  0.12953500  1
  O  O3  1  0.19601300  0.23176000  0.36714900  1
  O  O4  1  0.23927800  0.17836600  0.87052800  1
  O  O5  1  0.80402400  0.76812100  0.63287700  1
  O  O6  1  0.16638000  0.78991100  0.38553000  1
  O  O7  1  0.21030000  0.83946200  0.08355000  1
  O  O8  1  0.83356700  0.20999400  0.61434700  1
  O  O9  1  0.78965200  0.16055800  0.91645100  1
loop_
_geom_bond_atom_site_label_1
_geom_bond_atom_site_label_2
_geom_bond_distance
_geom_bond_site_symmetry_2
Mn0 O1 1.823219 1_655
Mn0 O0 1.823240 1_555
Mn0 O5 2.056278 1_555
Mn0 O3 2.057472 1_655
Mn0 O8 2.215887 1_555
Mn0 O6 2.216723 1_655
Mn1 O1 1.873124 1_545
Mn1 O0 1.873283 1_556
Mn1 O9 1.974083 1_555
Mn1 O7 1.975119 1_546
Mn1 O4 1.982100 1_555
Mn1 O2 1.983086 1_546
O2 S0 1.512502 1_655
O3 S0 1.479452 1_545
O4 S1 1.513088 1_455
O5 S1 1.479800 1_565
O6 S0 1.459545 1_555
O7 S0 1.505820 1_555
O8 S1 1.459678 1_555
O9 S1 1.506336 1_555
