# generated using pymatgen
data_Na2Zn4SiSn4S11O48
_symmetry_space_group_name_H-M   'P 1'
_cell_length_a   17.45828331
_cell_length_b   8.74367398
_cell_length_c   22.81039088
_cell_angle_alpha   90.03151504
_cell_angle_beta   89.91148616
_cell_angle_gamma   120.08747607
_symmetry_Int_Tables_number   1
_chemical_formula_structural   Na2Zn4SiSn4S11O48
_chemical_formula_sum   'Na6 Zn12 Si3 Sn12 S33 O144'
_cell_volume   3012.83139089
_cell_formula_units_Z   3
loop_
 _symmetry_equiv_pos_site_id
 _symmetry_equiv_pos_as_xyz
  1  'x, y, z'
loop_
 _atom_site_type_symbol
 _atom_site_label
 _atom_site_symmetry_multiplicity
 _atom_site_fract_x
 _atom_site_fract_y
 _atom_site_fract_z
 _atom_site_occupancy
  Na  Na0  1  0.99772144  0.98758835  0.49392752  1
  Na  Na1  1  0.49894602  0.00587106  0.99943727  1
  Na  Na2  1  0.33287087  0.32767559  0.83653535  1
  Na  Na3  1  0.83918209  0.34113949  0.83262528  1
  Na  Na4  1  0.33665621  0.33114258  0.33063324  1
  Na  Na5  1  0.83915371  0.34154560  0.33873833  1
  Zn  Zn0  1  0.99869420  0.98678552  0.35580101  1
  Zn  Zn1  1  0.00539324  0.00357442  0.85444810  1
  Zn  Zn2  1  0.33027187  0.32987483  0.68191834  1
  Zn  Zn3  1  0.83612451  0.33860229  0.67967129  1
  Zn  Zn4  1  0.33752261  0.32737350  0.18630013  1
  Zn  Zn5  1  0.83525397  0.33614872  0.18377034  1
  Zn  Zn6  1  0.33554392  0.32781153  0.97973758  1
  Zn  Zn7  1  0.83878226  0.33983011  0.98368501  1
  Zn  Zn8  1  0.33597725  0.33613363  0.48429952  1
  Zn  Zn9  1  0.83773875  0.34228455  0.48008819  1
  Zn  Zn10  1  0.66839477  0.66994193  0.52230422  1
  Zn  Zn11  1  0.16103793  0.66278495  0.81164046  1
  Si  Si0  1  0.49781697  0.29517126  0.25092433  1
  Si  Si1  1  0.51826429  0.37669790  0.91652323  1
  Si  Si2  1  0.01590636  0.66528178  0.41747559  1
  Sn  Sn0  1  0.50096744  0.00818310  0.35390067  1
  Sn  Sn1  1  0.49693041  0.00519873  0.85291117  1
  Sn  Sn2  1  0.99931755  0.99592971  0.65040986  1
  Sn  Sn3  1  0.50079143  0.00360885  0.64252663  1
  Sn  Sn4  1  0.00116382  0.00153183  0.14823916  1
  Sn  Sn5  1  0.50017302  0.00677479  0.15030124  1
  Sn  Sn6  1  0.16457191  0.66497768  0.01758563  1
  Sn  Sn7  1  0.66511685  0.65763699  0.02046314  1
  Sn  Sn8  1  0.16238784  0.66593334  0.51921721  1
  Sn  Sn9  1  0.16005773  0.66248111  0.31445088  1
  Sn  Sn10  1  0.66640371  0.66042751  0.31390316  1
  Sn  Sn11  1  0.66651902  0.66314154  0.81416047  1
  S  S0  1  0.14634863  0.00299731  0.25091223  1
  S  S1  1  0.64873318  0.00241805  0.25022179  1
  S  S2  1  0.35150118  0.70448294  0.25163917  1
  S  S3  1  0.85512724  0.70665563  0.25041648  1
  S  S4  1  0.99860706  0.28838969  0.25131610  1
  S  S5  1  0.14753400  0.29354844  0.75130309  1
  S  S6  1  0.64803558  0.29155421  0.74951334  1
  S  S7  1  0.99863104  0.70462004  0.75199112  1
  S  S8  1  0.49975944  0.70919222  0.74998685  1
  S  S9  1  0.35208454  -0.00085978  0.74848764  1
  S  S10  1  0.85353463  0.00261736  0.75249172  1
  S  S11  1  0.47882050  0.33869188  0.58353541  1
  S  S12  1  0.97904494  0.33013850  0.58391120  1
  S  S13  1  0.18848449  0.04314265  0.58317913  1
  S  S14  1  0.69058954  0.04382596  0.58318212  1
  S  S15  1  0.33159132  0.62248186  0.58276022  1
  S  S16  1  0.83200991  0.62413366  0.58379446  1
  S  S17  1  0.47887282  0.62762420  0.08377478  1
  S  S18  1  0.97884353  0.62521469  0.08386799  1
  S  S19  1  0.33192629  0.03861873  0.08240807  1
  S  S20  1  0.83298605  0.04174602  0.08328643  1
  S  S21  1  0.18952833  0.33455257  0.08336626  1
  S  S22  1  0.68944710  0.33174086  0.08305130  1
  S  S23  1  0.31039071  0.66173214  0.91519723  1
  S  S24  1  0.81542950  0.66827445  0.91685439  1
  S  S25  1  0.01920451  0.37231308  0.91523378  1
  S  S26  1  0.16609881  0.95783784  0.91485926  1
  S  S27  1  0.66863908  0.96253024  0.91652161  1
  S  S28  1  0.31334771  0.96066011  0.41695175  1
  S  S29  1  0.81075100  0.95631668  0.41730197  1
  S  S30  1  0.16904881  0.37455393  0.41654585  1
  S  S31  1  0.66768500  0.37494505  0.41856258  1
  S  S32  1  0.51956898  0.66678272  0.41704793  1
  O  O0  1  0.10485216  0.02929378  0.30211192  1
  O  O1  1  0.60760825  0.03101882  0.30351324  1
  O  O2  1  0.40869006  0.78425898  0.30440622  1
  O  O3  1  0.90988125  0.78807296  0.30155987  1
  O  O4  1  0.47911782  0.16763779  0.30833993  1
  O  O5  1  0.98614432  0.18038072  0.30265482  1
  O  O6  1  0.10595162  0.17811198  0.80214567  1
  O  O7  1  0.60756048  0.17972790  0.80344356  1
  O  O8  1  0.48528602  0.79010668  0.80473602  1
  O  O9  1  0.98228988  0.78822630  0.80259133  1
  O  O10  1  0.41065208  0.03645445  0.80230632  1
  O  O11  1  0.90740723  0.02682939  0.80425518  1
  O  O12  1  0.39561083  0.96716586  0.69650934  1
  O  O13  1  0.88883890  0.96416793  0.69751659  1
  O  O14  1  0.09112469  0.21506185  0.69571707  1
  O  O15  1  0.58975812  0.21230337  0.69769108  1
  O  O16  1  0.01596910  0.81510336  0.69615477  1
  O  O17  1  0.51564415  0.82324747  0.69770175  1
  O  O18  1  0.39000272  0.81534845  0.19768468  1
  O  O19  1  0.89224693  0.81697475  0.19490738  1
  O  O20  1  0.01553819  0.21386931  0.19553237  1
  O  O21  1  0.52134508  0.21395765  0.19261583  1
  O  O22  1  0.09009182  0.96248397  0.19573350  1
  O  O23  1  0.59147836  0.96270255  0.19680411  1
  O  O24  1  0.43899391  0.36227641  0.63744528  1
  O  O25  1  0.94241170  0.36010584  0.63759510  1
  O  O26  1  0.23942189  0.11896829  0.63683621  1
  O  O27  1  0.74049593  0.12074219  0.63792751  1
  O  O28  1  0.31691311  0.51935236  0.63642051  1
  O  O29  1  0.82037763  0.52396639  0.63823324  1
  O  O30  1  0.44164226  0.52450333  0.13665599  1
  O  O31  1  0.94147196  0.51838250  0.13639475  1
  O  O32  1  0.31751757  0.11102675  0.13570934  1
  O  O33  1  0.81664893  0.11478398  0.13624340  1
  O  O34  1  0.24158311  0.36502094  0.13659128  1
  O  O35  1  0.73974934  0.35672082  0.13644576  1
  O  O36  1  0.22653730  0.30312993  0.03029435  1
  O  O37  1  0.72728379  0.30408646  0.02933709  1
  O  O38  1  0.42687728  0.55710295  0.03030499  1
  O  O39  1  0.92609553  0.55256372  0.03059863  1
  O  O40  1  0.34888524  0.14554183  0.02970839  1
  O  O41  1  0.84814158  0.14665929  0.03001959  1
  O  O42  1  0.22509850  0.14878172  0.53014244  1
  O  O43  1  0.72729930  0.15594108  0.53143482  1
  O  O44  1  0.34812056  0.54978089  0.52997620  1
  O  O45  1  0.85152207  0.55199826  0.53193847  1
  O  O46  1  0.42261451  0.29772159  0.53125235  1
  O  O47  1  0.92680652  0.29745279  0.53127906  1
  O  O48  1  0.27597461  0.70344565  0.97033442  1
  O  O49  1  0.77489684  0.70305972  0.96997699  1
  O  O50  1  0.07472839  0.44949974  0.97106673  1
  O  O51  1  0.58220081  0.45549558  0.97438039  1
  O  O52  1  0.14994644  0.84813753  0.97119739  1
  O  O53  1  0.65173838  0.85171544  0.96975041  1
  O  O54  1  0.27520026  0.84879576  0.47009259  1
  O  O55  1  0.76947489  0.84211696  0.46845011  1
  O  O56  1  0.15473893  0.45618034  0.47066056  1
  O  O57  1  0.65016638  0.45525481  0.46909285  1
  O  O58  1  0.08252667  0.70937133  0.47460544  1
  O  O59  1  0.57449640  0.70028583  0.46868117  1
  O  O60  1  0.05886211  0.62273259  0.35865747  1
  O  O61  1  0.55854533  0.63796956  0.36199919  1
  O  O62  1  0.26012656  0.88161614  0.36246330  1
  O  O63  1  0.75503618  0.87667628  0.36079689  1
  O  O64  1  0.18783793  0.48948288  0.36265696  1
  O  O65  1  0.68289487  0.48079788  0.36283623  1
  O  O66  1  0.06062150  0.48832240  0.86467561  1
  O  O67  1  0.56234324  0.49572310  0.85705514  1
  O  O68  1  0.18305175  0.87483611  0.86427525  1
  O  O69  1  0.68402884  0.88567591  0.86230558  1
  O  O70  1  0.25893718  0.64332483  0.86281981  1
  O  O71  1  0.75724930  0.63183882  0.86314721  1
  O  O72  1  0.01358587  0.84599123  0.41336099  1
  O  O73  1  0.51149145  0.83008890  0.40799286  1
  O  O74  1  0.40049613  0.96943311  0.41168204  1
  O  O75  1  0.89846828  0.97458900  0.40915307  1
  O  O76  1  0.08759722  0.20586256  0.41005672  1
  O  O77  1  0.58531142  0.19625089  0.41143298  1
  O  O78  1  0.01134727  0.19898477  0.90940035  1
  O  O79  1  0.51407505  0.18191010  0.91212247  1
  O  O80  1  0.08560812  0.96911150  0.90970138  1
  O  O81  1  0.58488412  0.96931711  0.90978673  1
  O  O82  1  0.40257292  0.82670980  0.91149314  1
  O  O83  1  0.90058711  0.82683914  0.90860793  1
  O  O84  1  0.48640201  0.17164241  0.58994142  1
  O  O85  1  0.98994043  0.16754664  0.59040000  1
  O  O86  1  0.09644875  0.02111639  0.58889442  1
  O  O87  1  0.59772211  0.02540445  0.59002453  1
  O  O88  1  0.41223904  0.80437263  0.58976055  1
  O  O89  1  0.91684764  0.81078895  0.58985561  1
  O  O90  1  0.49051494  0.81428052  0.08997285  1
  O  O91  1  0.98958550  0.80659680  0.09072635  1
  O  O92  1  0.41265926  0.01377729  0.08714189  1
  O  O93  1  0.91270428  0.01916073  0.09045412  1
  O  O94  1  0.09714226  0.17420415  0.09027688  1
  O  O95  1  0.59729366  0.16822915  0.08644442  1
  O  O96  1  0.34731155  0.16090580  0.74260285  1
  O  O97  1  0.84187908  0.15609448  0.74448337  1
  O  O98  1  0.23527703  0.30781662  0.74279842  1
  O  O99  1  0.73503361  0.30890169  0.74414145  1
  O  O100  1  0.42137120  0.53454974  0.74458980  1
  O  O101  1  0.91827935  0.52886321  0.74373027  1
  O  O102  1  0.34091223  0.53010584  0.24429840  1
  O  O103  1  0.84435937  0.52992201  0.24202013  1
  O  O104  1  0.41091302  0.31156011  0.24616157  1
  O  O105  1  0.92087093  0.30975363  0.24298081  1
  O  O106  1  0.23295281  0.16052564  0.24228678  1
  O  O107  1  0.73494238  0.16192986  0.24302996  1
  O  O108  1  0.31983780  0.50758395  0.92319484  1
  O  O109  1  0.81923518  0.50495138  0.92343434  1
  O  O110  1  0.42277468  0.35686759  0.92049638  1
  O  O111  1  0.93143384  0.35887084  0.92360602  1
  O  O112  1  0.24490927  0.13290410  0.92326339  1
  O  O113  1  0.74596798  0.13834169  0.92277052  1
  O  O114  1  0.32227083  0.13544705  0.42295918  1
  O  O115  1  0.81553141  0.12783751  0.42122561  1
  O  O116  1  0.24884973  0.35956614  0.42305402  1
  O  O117  1  0.74402801  0.35157048  0.42249202  1
  O  O118  1  0.43053732  0.50981752  0.42182114  1
  O  O119  1  0.92238646  0.48585542  0.42133207  1
  O  O120  1  0.17729921  0.49389748  0.07580745  1
  O  O121  1  0.67960203  0.49282960  0.07898921  1
  O  O122  1  0.06958856  0.64662291  0.07687535  1
  O  O123  1  0.57103080  0.65494516  0.07761811  1
  O  O124  1  0.25224447  0.85619850  0.07566076  1
  O  O125  1  0.75234927  0.85920595  0.07560963  1
  O  O126  1  0.18010162  0.86434987  0.57859295  1
  O  O127  1  0.67636486  0.86505187  0.57640953  1
  O  O128  1  0.25255319  0.64664411  0.57557191  1
  O  O129  1  0.75568383  0.64872717  0.57704422  1
  O  O130  1  0.07078957  0.48775815  0.57906940  1
  O  O131  1  0.56746452  0.49024689  0.57592988  1
  O  O132  1  0.15610798  0.84176463  0.25470897  1
  O  O133  1  0.65621144  0.84295006  0.25754597  1
  O  O134  1  0.26444136  0.69640725  0.25894949  1
  O  O135  1  0.76728593  0.69535395  0.25545191  1
  O  O136  1  0.08220082  0.46579988  0.25375236  1
  O  O137  1  0.58847744  0.48492101  0.25820854  1
  O  O138  1  0.15504975  0.46688031  0.75732913  1
  O  O139  1  0.65448244  0.46711473  0.75556513  1
  O  O140  1  0.07870312  0.69196120  0.75707681  1
  O  O141  1  0.58257351  0.70175690  0.75608879  1
  O  O142  1  0.26751021  0.83961705  0.75696582  1
  O  O143  1  0.76274338  0.83554634  0.75763186  1
loop_
_geom_bond_atom_site_label_1
_geom_bond_atom_site_label_2
_geom_bond_distance
_geom_bond_site_symmetry_2
Na0 O72 2.307948 1_655
Na0 O75 2.562706 1_555
Na0 O76 2.599367 1_665
Na0 O89 2.641407 1_555
Na0 O86 2.693240 1_665
Na0 O85 2.747081 1_565
Na1 O79 2.449472 1_555
Na1 O92 2.524150 1_556
Na1 O95 2.542786 1_556
Na1 O82 2.583283 1_545
Na1 O90 2.616958 1_546
Na1 O81 2.646814 1_545
Na2 O110 2.409084 1_555
Na2 O112 2.558192 1_555
Na2 O108 2.605348 1_555
Na2 O96 2.672869 1_555
Na2 O98 2.686851 1_555
Na2 O100 2.692555 1_555
Na3 O101 2.536764 1_555
Na3 O111 2.585429 1_555
Na3 O97 2.595165 1_555
Na3 O99 2.637437 1_555
Na3 O109 2.637817 1_555
Na3 O113 2.668539 1_555
Na4 O104 2.374262 1_555
Na4 O102 2.604602 1_555
Na4 O106 2.619998 1_555
Na4 O118 2.625487 1_555
Na4 O114 2.645296 1_555
Na4 O116 2.688390 1_555
Na5 O119 2.328208 1_555
Na5 O115 2.535908 1_555
Na5 O117 2.559593 1_555
Na5 O105 2.696466 1_555
Na5 O103 2.727952 1_555
Na5 O107 2.772416 1_555
O0 S0 1.451125 1_555
O0 Zn0 2.091802 1_445
O1 S1 1.494219 1_555
O1 Sn0 2.109024 1_555
O2 S2 1.495545 1_555
O2 Sn0 2.131673 1_565
O3 S3 1.449737 1_555
O3 Zn0 2.063058 1_555
O4 Si0 1.643343 1_555
O4 Sn0 1.924961 1_555
O5 S4 1.450862 1_555
O5 Zn0 2.181266 1_545
O6 S5 1.467919 1_555
O6 Zn1 2.035592 1_555
O7 S6 1.508167 1_555
O7 Sn1 2.091010 1_555
O8 S8 1.517007 1_555
O8 Sn1 2.097853 1_565
O9 S7 1.468043 1_555
O9 Zn1 2.084433 1_665
O10 S9 1.525762 1_555
O10 Sn1 2.023473 1_555
O11 S10 1.458451 1_555
O11 Zn1 2.152588 1_655
O12 S9 1.507055 1_565
O12 Sn3 2.096777 1_565
O13 S10 1.506767 1_565
O13 Sn2 2.099698 1_555
O14 S5 1.540698 1_555
O14 Sn2 2.057180 1_445
O15 S6 1.486131 1_555
O15 Sn3 2.118339 1_555
O16 S7 1.534274 1_455
O16 Sn2 2.033901 1_455
O17 S8 1.488903 1_555
O17 Sn3 2.133406 1_565
O18 S2 1.500542 1_555
O18 Sn5 2.106388 1_565
O19 S3 1.525019 1_555
O19 Sn4 2.066887 1_665
O20 S4 1.523841 1_455
O20 Sn4 2.050663 1_555
O21 Si0 1.652787 1_555
O21 Sn5 1.917746 1_555
O22 S0 1.526037 1_565
O22 Sn4 2.058560 1_565
O23 S1 1.503226 1_565
O23 Sn5 2.106228 1_565
O24 S11 1.476140 1_555
O24 Zn2 2.041409 1_555
O25 S12 1.463714 1_555
O25 Zn3 2.011125 1_555
O26 S13 1.462782 1_555
O26 Zn2 2.011013 1_555
O27 S14 1.478433 1_555
O27 Zn3 2.033921 1_555
O28 S15 1.464770 1_555
O28 Zn2 2.065494 1_555
O29 S16 1.473905 1_555
O29 Zn3 2.011249 1_555
O30 S17 1.449704 1_555
O30 Zn4 2.100439 1_555
O31 S18 1.456560 1_555
O31 Zn5 2.044159 1_555
O32 S19 1.449215 1_555
O32 Zn4 2.090098 1_555
O33 S20 1.459140 1_555
O33 Zn5 2.096555 1_555
O34 S21 1.459853 1_555
O34 Zn4 2.181409 1_555
O35 S22 1.453622 1_555
O35 Zn5 2.069828 1_555
O36 S21 1.460714 1_555
O36 Zn6 2.140063 1_554
O37 S22 1.467430 1_555
O37 Zn7 2.086944 1_554
O38 S17 1.460547 1_555
O38 Zn6 2.165713 1_554
O39 S18 1.464274 1_555
O39 Zn7 2.022031 1_554
O40 S19 1.459229 1_555
O40 Zn6 2.066015 1_554
O41 S20 1.464476 1_555
O41 Zn7 2.067792 1_554
O42 S13 1.460209 1_555
O42 Zn8 2.083348 1_555
O43 S14 1.460830 1_555
O43 Zn9 2.142276 1_555
O44 S15 1.455691 1_555
O44 Zn8 2.054659 1_555
O45 S16 1.458206 1_555
O45 Zn9 2.091690 1_555
O46 S11 1.471118 1_555
O46 Zn8 2.015537 1_555
O47 S12 1.447905 1_555
O47 Zn9 2.133622 1_555
O48 S23 1.514180 1_555
O48 Sn6 2.096541 1_556
O49 S24 1.508085 1_555
O49 Sn7 2.094675 1_556
O50 S25 1.537543 1_555
O50 Sn6 2.043492 1_556
O51 Si1 1.641595 1_555
O51 Sn7 1.939509 1_556
O52 S26 1.542744 1_555
O52 Sn6 2.040174 1_556
O53 S27 1.487828 1_555
O53 Sn7 2.161654 1_556
O54 S28 1.488372 1_555
O54 Sn8 2.128111 1_555
O55 S29 1.467916 1_555
O55 Zn10 2.054556 1_555
O56 S30 1.507430 1_555
O56 Sn8 2.088269 1_555
O57 S31 1.458939 1_555
O57 Zn10 2.120838 1_555
O58 Si2 1.659562 1_555
O58 Sn8 1.912967 1_555
O59 S32 1.453955 1_555
O59 Zn10 2.167136 1_555
O60 Si2 1.666420 1_555
O60 Sn9 1.907375 1_555
O61 S32 1.507359 1_555
O61 Sn10 2.100251 1_555
O62 S28 1.498183 1_555
O62 Sn9 2.137787 1_555
O63 S29 1.554367 1_555
O63 Sn10 2.045255 1_555
O64 S30 1.515927 1_555
O64 Sn9 2.114582 1_555
O65 S31 1.515510 1_555
O65 Sn10 2.062019 1_555
O66 S25 1.464598 1_555
O66 Zn11 2.044013 1_555
O67 Si1 1.646417 1_555
O67 Sn11 1.932533 1_555
O68 S26 1.469365 1_555
O68 Zn11 2.076396 1_555
O69 S27 1.494069 1_555
O69 Sn11 2.118451 1_555
O70 S23 1.455473 1_555
O70 Zn11 2.147323 1_555
O71 S24 1.520851 1_555
O71 Sn11 2.067134 1_555
O72 Si2 1.603561 1_555
O72 Zn0 1.905442 1_455
O73 S32 1.517809 1_555
O73 Sn0 2.066572 1_565
O74 S28 1.489163 1_555
O74 Sn0 2.079940 1_565
O75 S29 1.469381 1_555
O75 Zn0 2.088203 1_555
O76 S30 1.454996 1_555
O76 Zn0 2.152277 1_445
O77 S31 1.511081 1_555
O77 Sn0 2.042145 1_555
O78 S25 1.457648 1_555
O78 Zn1 2.078780 1_555
O79 Si1 1.670666 1_555
O79 Sn1 1.958675 1_555
O80 S26 1.462066 1_555
O80 Zn1 2.017280 1_565
O81 S27 1.500969 1_555
O81 Sn1 2.151513 1_565
O82 S23 1.532985 1_555
O82 Sn1 2.086321 1_565
O83 S24 1.449357 1_555
O83 Zn1 2.102923 1_665
O84 S11 1.538322 1_555
O84 Sn3 2.008347 1_555
O85 S12 1.533178 1_555
O85 Sn2 2.097973 1_545
O86 S13 1.524782 1_555
O86 Sn2 2.124041 1_445
O87 S14 1.554460 1_555
O87 Sn3 2.001219 1_555
O88 S15 1.514100 1_555
O88 Sn3 2.043681 1_565
O89 S16 1.566256 1_555
O89 Sn2 2.065964 1_555
O90 S17 1.546663 1_555
O90 Sn5 2.113905 1_565
O91 S18 1.508800 1_555
O91 Sn4 2.078455 1_665
O92 S19 1.533904 1_555
O92 Sn5 2.124693 1_555
O93 S20 1.509630 1_555
O93 Sn4 2.095557 1_655
O94 S21 1.524512 1_555
O94 Sn4 2.072211 1_555
O95 S22 1.527053 1_555
O95 Sn5 2.141072 1_555
O96 S9 1.464233 1_555
O96 Zn2 2.152101 1_555
O97 S10 1.466217 1_555
O97 Zn3 2.214964 1_555
O98 S5 1.485677 1_555
O98 Zn2 2.094898 1_555
O99 S6 1.453734 1_555
O99 Zn3 2.208556 1_555
O100 S8 1.457678 1_555
O100 Zn2 2.219519 1_555
O101 S7 1.484595 1_555
O101 Zn3 2.138048 1_555
O102 S2 1.450558 1_555
O102 Zn4 2.188246 1_555
O103 S3 1.472581 1_555
O103 Zn5 2.095105 1_555
O104 Si0 1.597726 1_555
O104 Zn4 1.925747 1_555
O105 S4 1.472376 1_555
O105 Zn5 2.112838 1_555
O106 S0 1.460560 1_555
O106 Zn4 2.101559 1_555
O107 S1 1.460196 1_555
O107 Zn5 2.129502 1_555
O108 S23 1.449259 1_555
O108 Zn6 2.155209 1_555
O109 S24 1.470254 1_555
O109 Zn7 2.141814 1_555
O110 Si1 1.589711 1_555
O110 Zn6 1.953436 1_555
O111 S25 1.488909 1_655
O111 Zn7 2.060486 1_555
O112 S26 1.470292 1_545
O112 Zn6 2.089898 1_555
O113 S27 1.457927 1_545
O113 Zn7 2.191362 1_555
O114 S28 1.462810 1_545
O114 Zn8 2.161354 1_555
O115 S29 1.462369 1_545
O115 Zn9 2.176898 1_555
O116 S30 1.471020 1_555
O116 Zn8 2.150994 1_555
O117 S31 1.449041 1_555
O117 Zn9 2.132879 1_555
O118 S32 1.473838 1_555
O118 Zn8 2.131686 1_555
O119 Si2 1.601937 1_655
O119 Zn9 1.921388 1_555
O120 S21 1.521548 1_555
O120 Sn6 2.094541 1_555
O121 S22 1.504973 1_555
O121 Sn7 2.071537 1_555
O122 S18 1.507400 1_455
O122 Sn6 2.081120 1_555
O123 S17 1.509764 1_555
O123 Sn7 2.086381 1_555
O124 S19 1.509518 1_565
O124 Sn6 2.081120 1_555
O125 S20 1.519062 1_565
O125 Sn7 2.078507 1_555
O126 S13 1.498919 1_565
O126 Sn8 2.097762 1_555
O127 S14 1.462734 1_565
O127 Zn10 2.052581 1_555
O128 S15 1.506184 1_555
O128 Sn8 2.105104 1_555
O129 S16 1.460663 1_555
O129 Zn10 2.050706 1_555
O130 S12 1.504452 1_455
O130 Sn8 2.084693 1_555
O131 S11 1.457510 1_555
O131 Zn10 2.071086 1_555
O132 S0 1.504986 1_565
O132 Sn9 2.104801 1_555
O133 S1 1.473763 1_565
O133 Sn10 2.125769 1_555
O134 S2 1.494843 1_555
O134 Sn9 2.112590 1_555
O135 S3 1.490733 1_555
O135 Sn10 2.103993 1_555
O136 S4 1.506500 1_455
O136 Sn9 2.093197 1_555
O137 Si0 1.628804 1_555
O137 Sn10 1.931236 1_555
O138 S5 1.460639 1_555
O138 Zn11 2.073245 1_555
O139 S6 1.488177 1_555
O139 Sn11 2.098954 1_555
O140 S7 1.461350 1_455
O140 Zn11 2.013427 1_555
O141 S8 1.486199 1_555
O141 Sn11 2.125820 1_555
O142 S9 1.448284 1_565
O142 Zn11 2.124746 1_555
O143 S10 1.529103 1_565
O143 Sn11 2.052690 1_555
