# generated using pymatgen
data_KMgNiIO6
_symmetry_space_group_name_H-M   'P 1'
_cell_length_a   5.24389300
_cell_length_b   5.24389277
_cell_length_c   6.49819900
_cell_angle_alpha   90.00000000
_cell_angle_beta   90.00000000
_cell_angle_gamma   120.00000775
_symmetry_Int_Tables_number   1
_chemical_formula_structural   KMgNiIO6
_chemical_formula_sum   'K1 Mg1 Ni1 I1 O6'
_cell_volume   154.75020349
_cell_formula_units_Z   1
loop_
 _symmetry_equiv_pos_site_id
 _symmetry_equiv_pos_as_xyz
  1  'x, y, z'
loop_
 _atom_site_type_symbol
 _atom_site_label
 _atom_site_symmetry_multiplicity
 _atom_site_fract_x
 _atom_site_fract_y
 _atom_site_fract_z
 _atom_site_occupancy
  K  K0  1  0.00000000  0.00000000  0.99997400  1
  Mg  Mg0  1  0.00000000  0.00000000  0.50002300  1
  Ni  Ni0  1  0.33333300  0.66666700  0.50001800  1
  I  I0  1  0.66666700  0.33333300  0.50011500  1
  O  O0  1  0.36008400  0.02746700  0.66118300  1
  O  O1  1  0.97253300  0.33261700  0.66118300  1
  O  O2  1  0.66738300  0.63991600  0.66118300  1
  O  O3  1  0.97255600  0.63995600  0.33877400  1
  O  O4  1  0.66740000  0.02744400  0.33877400  1
  O  O5  1  0.36004400  0.33260000  0.33877400  1
loop_
_geom_bond_atom_site_label_1
_geom_bond_atom_site_label_2
_geom_bond_distance
_geom_bond_site_symmetry_2
K0 O5 2.856687 1_556
K0 O3 2.856687 1_446
K0 O4 2.856687 1_456
K0 O2 2.856741 1_445
K0 O1 2.856742 1_455
K0 O0 2.856742 1_555
Mg0 O2 2.100229 1_445
Mg0 O1 2.100230 1_455
Mg0 O0 2.100230 1_555
Mg0 O5 2.100382 1_555
Mg0 O3 2.100383 1_445
Mg0 O4 2.100383 1_455
Ni0 O0 2.104928 1_565
Ni0 O1 2.104930 1_455
Ni0 O2 2.104932 1_555
Ni0 O3 2.105159 1_455
Ni0 O4 2.105161 1_565
Ni0 O5 2.105164 1_555
I0 O1 1.916795 1_555
I0 O0 1.916797 1_555
I0 O2 1.916799 1_555
I0 O4 1.917903 1_555
I0 O3 1.917905 1_555
I0 O5 1.917907 1_555
