# generated using pymatgen
data_Cr4InCuSe8
_symmetry_space_group_name_H-M   'P 1'
_cell_length_a   7.52273578
_cell_length_b   7.52273578
_cell_length_c   7.52273578
_cell_angle_alpha   60.00000000
_cell_angle_beta   60.00000000
_cell_angle_gamma   60.00000000
_symmetry_Int_Tables_number   1
_chemical_formula_structural   Cr4InCuSe8
_chemical_formula_sum   'Cr4 In1 Cu1 Se8'
_cell_volume   301.03183551
_cell_formula_units_Z   1
loop_
 _symmetry_equiv_pos_site_id
 _symmetry_equiv_pos_as_xyz
  1  'x, y, z'
loop_
 _atom_site_type_symbol
 _atom_site_label
 _atom_site_symmetry_multiplicity
 _atom_site_fract_x
 _atom_site_fract_y
 _atom_site_fract_z
 _atom_site_occupancy
  Cr  Cr0  1  0.62044215  0.13867254  0.62044215  1
  Cr  Cr1  1  0.13867254  0.62044215  0.62044215  1
  Cr  Cr2  1  0.62044215  0.62044215  0.13867254  1
  Cr  Cr3  1  0.62044215  0.62044215  0.62044215  1
  In  In0  1  -0.00000000  -0.00000000  0.00000000  1
  Cu  Cu0  1  0.25000000  0.25000000  0.25000000  1
  Se  Se0  1  0.38307450  0.38307450  0.38307450  1
  Se  Se1  1  0.86086650  0.86086650  0.41740149  1
  Se  Se2  1  0.41740149  0.86086650  0.86086650  1
  Se  Se3  1  0.86086650  0.86086650  0.86086650  1
  Se  Se4  1  0.38307450  0.85077651  0.38307450  1
  Se  Se5  1  0.38307450  0.38307450  0.85077651  1
  Se  Se6  1  0.86086650  0.41740149  0.86086650  1
  Se  Se7  1  0.85077651  0.38307450  0.38307450  1
loop_
_geom_bond_atom_site_label_1
_geom_bond_atom_site_label_2
_geom_bond_distance
_geom_bond_site_symmetry_2
Cr0 Se0 2.525851 1_555
Cr0 Se7 2.525856 1_555
Cr0 Se5 2.525856 1_555
Cr0 Se1 2.573218 1_545
Cr0 Se2 2.573218 1_545
Cr0 Se3 2.573228 1_545
Cr1 Se0 2.525851 1_555
Cr1 Se4 2.525856 1_555
Cr1 Se5 2.525856 1_555
Cr1 Se6 2.573218 1_455
Cr1 Se1 2.573218 1_455
Cr1 Se3 2.573228 1_455
Cr2 Se0 2.525851 1_555
Cr2 Se7 2.525856 1_555
Cr2 Se4 2.525856 1_555
Cr2 Se6 2.573218 1_554
Cr2 Se2 2.573218 1_554
Cr2 Se3 2.573228 1_554
Cr3 Se7 2.525850 1_555
Cr3 Se4 2.525850 1_555
Cr3 Se5 2.525850 1_555
Cr3 Se1 2.573230 1_555
Cr3 Se2 2.573230 1_555
Cr3 Se6 2.573230 1_555
In0 Se3 2.563794 1_444
In0 Se1 2.563800 1_445
In0 Se6 2.563800 1_454
In0 Se2 2.563800 1_544
Cu0 Se5 2.452146 1_554
Cu0 Se4 2.452146 1_545
Cu0 Se7 2.452146 1_455
Cu0 Se0 2.452146 1_555
