# generated using pymatgen
data_Ba2ErMgSbO6
_symmetry_space_group_name_H-M   'P 1'
_cell_length_a   6.29531567
_cell_length_b   7.26404410
_cell_length_c   6.29531534
_cell_angle_alpha   63.60497206
_cell_angle_beta   59.89616674
_cell_angle_gamma   63.60497404
_symmetry_Int_Tables_number   1
_chemical_formula_structural   Ba2ErMgSbO6
_chemical_formula_sum   'Ba2 Er1 Mg1 Sb1 O6'
_cell_volume   213.77346448
_cell_formula_units_Z   1
loop_
 _symmetry_equiv_pos_site_id
 _symmetry_equiv_pos_as_xyz
  1  'x, y, z'
loop_
 _atom_site_type_symbol
 _atom_site_label
 _atom_site_symmetry_multiplicity
 _atom_site_fract_x
 _atom_site_fract_y
 _atom_site_fract_z
 _atom_site_occupancy
  Ba  Ba0  1  0.68146147  0.94964187  0.68146147  1
  Ba  Ba1  1  0.27749182  0.16664458  0.27749182  1
  Er  Er0  1  0.02660478  0.92013354  0.02660478  1
  Mg  Mg0  1  0.87778367  0.35021502  0.87778367  1
  Sb  Sb0  1  0.47149369  0.58926873  0.47149369  1
  O  O0  1  0.26582860  0.76446016  0.72131942  1
  O  O1  1  0.25803628  0.78525544  0.25803628  1
  O  O2  1  0.78361670  0.18735811  0.78361670  1
  O  O3  1  0.23443018  0.19357270  0.77693340  1
  O  O4  1  0.77693340  0.19357270  0.23443018  1
  O  O5  1  0.72131942  0.76446016  0.26582860  1
loop_
_geom_bond_atom_site_label_1
_geom_bond_atom_site_label_2
_geom_bond_distance
_geom_bond_site_symmetry_2
Ba0 O2 2.489681 1_565
Ba0 O4 2.497445 1_565
Ba0 O3 2.497446 1_565
Ba1 O1 2.885083 1_545
Ba1 O0 3.012378 1_545
Ba1 O5 3.012378 1_545
Ba1 O3 3.105164 1_555
Ba1 O4 3.105164 1_555
Ba1 O2 3.148664 1_455
Ba1 O2 3.148664 1_554
Ba1 O3 3.209887 1_554
Ba1 O4 3.209887 1_455
Er0 O0 2.180613 1_554
Er0 O5 2.180613 1_455
Er0 O1 2.190031 1_555
Er0 O2 2.348407 1_464
Er0 O3 2.366300 1_564
Er0 O4 2.366300 1_465
Mg0 O4 1.918249 1_556
Mg0 O3 1.918249 1_655
Mg0 O2 1.924040 1_555
O0 Sb0 2.010279 1_555
O1 Sb0 2.011917 1_555
O5 Sb0 2.010279 1_555
