# generated using pymatgen
data_Na10La7NbSi6(SO8)6
_symmetry_space_group_name_H-M   'P 1'
_cell_length_a   19.18897915
_cell_length_b   9.62964904
_cell_length_c   24.38655615
_cell_angle_alpha   90.14294667
_cell_angle_beta   89.63177972
_cell_angle_gamma   120.11664119
_symmetry_Int_Tables_number   1
_chemical_formula_structural   Na10La7NbSi6(SO8)6
_chemical_formula_sum   'Na30 La21 Nb3 Si18 S18 O144'
_cell_volume   3897.82791990
_cell_formula_units_Z   3
loop_
 _symmetry_equiv_pos_site_id
 _symmetry_equiv_pos_as_xyz
  1  'x, y, z'
loop_
 _atom_site_type_symbol
 _atom_site_label
 _atom_site_symmetry_multiplicity
 _atom_site_fract_x
 _atom_site_fract_y
 _atom_site_fract_z
 _atom_site_occupancy
  Na  Na0  1  0.32465051  0.01461290  0.24498746  1
  Na  Na1  1  0.82730527  0.00506486  0.24771562  1
  Na  Na2  1  0.18516106  0.35392057  0.24656932  1
  Na  Na3  1  0.68738700  0.38066532  0.23319984  1
  Na  Na4  1  0.99361348  0.63026024  0.23986738  1
  Na  Na5  1  0.49165917  0.61875048  0.24777982  1
  Na  Na6  1  0.30844572  0.61695074  0.74765861  1
  Na  Na7  1  0.81103155  0.62517495  0.74420522  1
  Na  Na8  1  0.99395445  0.34325858  0.74237569  1
  Na  Na9  1  0.69256090  0.02124966  0.75563760  1
  Na  Na10  1  0.16227365  0.34304691  0.58422661  1
  Na  Na11  1  0.00918353  0.70119127  0.59025295  1
  Na  Na12  1  0.32947242  0.96178358  0.58888283  1
  Na  Na13  1  0.83653904  0.97467632  0.58272684  1
  Na  Na14  1  0.83038660  0.67853148  0.07553956  1
  Na  Na15  1  0.17064646  0.30866924  0.90737317  1
  Na  Na16  1  0.67349586  0.31507145  0.91568954  1
  Na  Na17  1  0.35687845  0.66585768  0.41759227  1
  Na  Na18  1  0.00053993  0.99455948  0.49948111  1
  Na  Na19  1  0.50491752  0.96407696  0.49894521  1
  Na  Na20  1  0.98712471  0.96356757  0.00025967  1
  Na  Na21  1  0.48774711  0.95566289  0.00299208  1
  Na  Na22  1  0.32830527  0.33007578  0.83771525  1
  Na  Na23  1  0.82639182  0.33690448  0.83828977  1
  Na  Na24  1  0.34836304  0.34391485  0.33314228  1
  Na  Na25  1  0.84321003  0.35045559  0.33030101  1
  Na  Na26  1  0.15406241  0.66213889  0.16454017  1
  Na  Na27  1  0.64870339  0.63174568  0.15887485  1
  Na  Na28  1  0.16297791  0.65759209  0.66150426  1
  Na  Na29  1  0.67268696  0.63058994  0.66985501  1
  La  La0  1  0.99856102  0.99892782  0.34736184  1
  La  La1  1  0.50190768  0.99710558  0.34971910  1
  La  La2  1  0.99050135  0.98932079  0.85086315  1
  La  La3  1  0.49572172  0.99332916  0.85256057  1
  La  La4  1  0.50659523  0.00611565  0.65003395  1
  La  La5  1  0.32451759  0.32765787  0.68029273  1
  La  La6  1  0.82843770  0.33850851  0.67853581  1
  La  La7  1  0.33894723  0.34550876  0.17855323  1
  La  La8  1  0.84005667  0.34701575  0.17332935  1
  La  La9  1  0.34438142  0.36990844  0.98940894  1
  La  La10  1  0.83414474  0.35344977  0.99203419  1
  La  La11  1  0.33188332  0.34004188  0.48627113  1
  La  La12  1  0.84331026  0.35407368  0.48902993  1
  La  La13  1  0.16836015  0.67316041  0.01873864  1
  La  La14  1  0.66337571  0.66464520  0.01990816  1
  La  La15  1  0.16371745  0.66495278  0.51831098  1
  La  La16  1  0.66069113  0.65764465  0.51276414  1
  La  La17  1  0.16474686  0.66448724  0.30696282  1
  La  La18  1  0.65903270  0.65392318  0.31662512  1
  La  La19  1  0.16727251  0.66290498  0.81835745  1
  La  La20  1  0.67565951  0.66466316  0.81676700  1
  Nb  Nb0  1  0.00183102  0.01805451  0.64840068  1
  Nb  Nb1  1  0.99952581  0.98897247  0.15574831  1
  Nb  Nb2  1  0.49745389  0.00524067  0.14719913  1
  Si  Si0  1  0.14651118  -0.00004339  0.24780648  1
  Si  Si1  1  0.35515561  0.71492663  0.24762468  1
  Si  Si2  1  0.85042887  0.70226307  0.24871288  1
  Si  Si3  1  0.99784165  0.28656226  0.24532992  1
  Si  Si4  1  0.50096099  0.28979644  0.24712790  1
  Si  Si5  1  0.14390493  0.29637242  0.75130906  1
  Si  Si6  1  0.65329214  0.29933237  0.75477454  1
  Si  Si7  1  0.85215866  0.00016829  0.74389335  1
  Si  Si8  1  0.98359910  0.32763499  0.58984430  1
  Si  Si9  1  0.17658607  0.03021095  0.58535465  1
  Si  Si10  1  0.33451510  0.64980072  0.58332665  1
  Si  Si11  1  0.83869973  0.65630486  0.59048863  1
  Si  Si12  1  0.49171953  0.66134415  0.09205988  1
  Si  Si13  1  0.99121148  0.66430930  0.09101334  1
  Si  Si14  1  0.67503854  0.32641070  0.08823011  1
  Si  Si15  1  0.31593713  0.65915111  0.91408308  1
  Si  Si16  1  0.81970914  0.66055125  0.92036575  1
  Si  Si17  1  0.50989603  0.66277254  0.41350828  1
  S  S0  1  0.64584833  0.99883024  0.24385062  1
  S  S1  1  0.00220349  0.70876946  0.74393222  1
  S  S2  1  0.49993567  0.69627362  0.74991751  1
  S  S3  1  0.34722096  0.99732345  0.74796916  1
  S  S4  1  0.48404172  0.33044165  0.58487071  1
  S  S5  1  0.68194081  0.02658761  0.58186724  1
  S  S6  1  0.34070000  0.02848155  0.08775306  1
  S  S7  1  0.84259575  0.02527139  0.08808558  1
  S  S8  1  0.17057439  0.31600354  0.08629944  1
  S  S9  1  0.01466066  0.36413574  0.91680449  1
  S  S10  1  0.51411756  0.36387683  0.91629689  1
  S  S11  1  0.16964520  0.97915556  0.91734240  1
  S  S12  1  0.66895393  0.97889056  0.91410037  1
  S  S13  1  0.31645328  0.96726845  0.41578802  1
  S  S14  1  0.81848413  0.97718239  0.41737722  1
  S  S15  1  0.16740139  0.36512165  0.41575187  1
  S  S16  1  0.67184702  0.36077415  0.41564149  1
  S  S17  1  0.01296833  0.66538664  0.41592758  1
  O  O0  1  0.10907375  0.03395329  0.30199256  1
  O  O1  1  0.61381236  0.02334577  0.29568577  1
  O  O2  1  0.40270598  0.78062914  0.30545058  1
  O  O3  1  0.90829493  0.78206556  0.30094873  1
  O  O4  1  0.49215166  0.18760258  0.30186906  1
  O  O5  1  0.98470882  0.18286681  0.30041429  1
  O  O6  1  0.10557830  0.20632900  0.80892797  1
  O  O7  1  0.60836615  0.19926835  0.81105650  1
  O  O8  1  0.48954672  0.77743579  0.79850009  1
  O  O9  1  0.99785005  0.78883101  0.79405901  1
  O  O10  1  0.39551008  0.00259284  0.79568902  1
  O  O11  1  0.90581137  0.02008842  0.79741094  1
  O  O12  1  0.38637995  0.98838759  0.69615602  1
  O  O13  1  0.90910504  0.99253595  0.69092322  1
  O  O14  1  0.08406491  0.17803987  0.69812436  1
  O  O15  1  0.60172030  0.19704457  0.70079069  1
  O  O16  1  0.00564904  0.80200888  0.69406030  1
  O  O17  1  0.50465729  0.78787126  0.69977139  1
  O  O18  1  0.41446399  0.84079771  0.19720076  1
  O  O19  1  0.90815762  0.82310542  0.19422329  1
  O  O20  1  0.00190248  0.17261680  0.19291643  1
  O  O21  1  0.50354111  0.17779439  0.19426393  1
  O  O22  1  0.08333342  0.98778174  0.19547282  1
  O  O23  1  0.59404263  0.98957122  0.19713934  1
  O  O24  1  0.44449524  0.34352829  0.63509810  1
  O  O25  1  0.95007952  0.36626611  0.64567730  1
  O  O26  1  0.24246005  0.10226177  0.63460360  1
  O  O27  1  0.72198547  0.09778699  0.63491457  1
  O  O28  1  0.32466015  0.54006318  0.63807722  1
  O  O29  1  0.82123225  0.55689176  0.64790625  1
  O  O30  1  0.45409446  0.55694520  0.14803444  1
  O  O31  1  0.95689143  0.56929578  0.14918200  1
  O  O32  1  0.33144280  0.09809389  0.13958467  1
  O  O33  1  0.83195856  0.09308729  0.14007141  1
  O  O34  1  0.21976469  0.33706676  0.13587342  1
  O  O35  1  0.72940936  0.34975345  0.14274102  1
  O  O36  1  0.21125030  0.29830471  0.03663195  1
  O  O37  1  0.71390282  0.29386949  0.03272174  1
  O  O38  1  0.43193234  0.57396976  0.03880552  1
  O  O39  1  0.92207912  0.57123762  0.04324228  1
  O  O40  1  0.34931124  0.12925342  0.04017753  1
  O  O41  1  0.85009446  0.12763904  0.04094023  1
  O  O42  1  0.21068064  0.15189663  0.53294984  1
  O  O43  1  0.72837672  0.13350728  0.53582310  1
  O  O44  1  0.33827759  0.55770878  0.52732190  1
  O  O45  1  0.86221811  0.56733102  0.54129108  1
  O  O46  1  0.43624746  0.31913252  0.53574172  1
  O  O47  1  0.91881817  0.27628467  0.53977605  1
  O  O48  1  0.26050721  0.66438445  0.96434977  1
  O  O49  1  0.77020025  0.66425428  0.97504990  1
  O  O50  1  0.06433383  0.46310753  0.96300160  1
  O  O51  1  0.55986954  0.44988115  0.96574227  1
  O  O52  1  0.16310997  0.88322140  0.96620355  1
  O  O53  1  0.66392212  0.87662403  0.96025061  1
  O  O54  1  0.27356763  0.87746555  0.46646556  1
  O  O55  1  0.77334661  0.88435511  0.46683069  1
  O  O56  1  0.16556632  0.45078424  0.46600984  1
  O  O57  1  0.67005131  0.45363351  0.46370296  1
  O  O58  1  0.05348772  0.65938284  0.46686084  1
  O  O59  1  0.56674636  0.66545004  0.46429691  1
  O  O60  1  0.05876247  0.66623390  0.36659250  1
  O  O61  1  0.55341647  0.66096263  0.35417749  1
  O  O62  1  0.26944299  0.87932059  0.36641511  1
  O  O63  1  0.77509050  0.89084169  0.36655860  1
  O  O64  1  0.16822422  0.45659165  0.36613275  1
  O  O65  1  0.67597079  0.44791756  0.36401677  1
  O  O66  1  0.04998781  0.45130042  0.86390860  1
  O  O67  1  0.55348113  0.45839527  0.86630247  1
  O  O68  1  0.17126490  0.89351585  0.86686771  1
  O  O69  1  0.66859432  0.90237611  0.86058982  1
  O  O70  1  0.26832786  0.64421528  0.85469789  1
  O  O71  1  0.76941661  0.65018406  0.86351034  1
  O  O72  1  0.00527907  0.81104223  0.41900091  1
  O  O73  1  0.49754432  0.82083781  0.41955764  1
  O  O74  1  0.39522604  0.97210800  0.41580883  1
  O  O75  1  0.89983100  0.99284527  0.41972336  1
  O  O76  1  0.09629950  0.20152628  0.41732756  1
  O  O77  1  0.59810563  0.20078434  0.41733710  1
  O  O78  1  0.01823350  0.21261362  0.91734501  1
  O  O79  1  0.51389373  0.20822624  0.91510161  1
  O  O80  1  0.09919487  0.00585746  0.91676958  1
  O  O81  1  0.59786264  0.00457093  0.91740729  1
  O  O82  1  0.40727175  0.81564425  0.91606155  1
  O  O83  1  0.91088409  0.81780124  0.92012348  1
  O  O84  1  0.48731119  0.17872394  0.58592277  1
  O  O85  1  0.99546293  0.16477498  0.59714216  1
  O  O86  1  0.08842205  0.01861495  0.60208339  1
  O  O87  1  0.59930135  0.00241029  0.58061156  1
  O  O88  1  0.41063831  0.83597899  0.58490913  1
  O  O89  1  0.92592571  0.83500161  0.59839210  1
  O  O90  1  0.49452627  0.83847491  0.09986215  1
  O  O91  1  0.99348509  0.84276719  0.09600295  1
  O  O92  1  0.41681286  0.01638179  0.09082766  1
  O  O93  1  0.91695301  0.00964944  0.09073660  1
  O  O94  1  0.08993280  0.16817123  0.09220669  1
  O  O95  1  0.58367656  0.16485784  0.10104261  1
  O  O96  1  0.33715494  0.13961574  0.74935654  1
  O  O97  1  0.84205351  0.15851996  0.73906164  1
  O  O98  1  0.23783347  0.33776109  0.74496272  1
  O  O99  1  0.74411810  0.31509895  0.75392846  1
  O  O100  1  0.42787177  0.53245685  0.74782371  1
  O  O101  1  0.92758337  0.54617160  0.74332542  1
  O  O102  1  0.33628429  0.52898181  0.24100738  1
  O  O103  1  0.83355792  0.51781596  0.24286753  1
  O  O104  1  0.42127537  0.31124922  0.24313891  1
  O  O105  1  0.91895788  0.31032524  0.24152547  1
  O  O106  1  0.23713228  0.15014767  0.23804211  1
  O  O107  1  0.72988194  0.13580404  0.23813975  1
  O  O108  1  0.31558574  0.48495298  0.91788279  1
  O  O109  1  0.81834536  0.48531639  0.91929284  1
  O  O110  1  0.43026218  0.33370099  0.91932450  1
  O  O111  1  0.93096688  0.33182971  0.92101739  1
  O  O112  1  0.24436060  0.14071907  0.91914282  1
  O  O113  1  0.74336825  0.14033457  0.91649022  1
  O  O114  1  0.32678940  0.13003207  0.41639786  1
  O  O115  1  0.82560450  0.13868528  0.41769633  1
  O  O116  1  0.24422941  0.36145439  0.41417301  1
  O  O117  1  0.74516830  0.34489113  0.41795848  1
  O  O118  1  0.41755444  0.50276551  0.41518523  1
  O  O119  1  0.93155702  0.51720270  0.41295680  1
  O  O120  1  0.16087942  0.45943295  0.08125200  1
  O  O121  1  0.67075225  0.49207648  0.08328204  1
  O  O122  1  0.08057593  0.68938198  0.08027304  1
  O  O123  1  0.58263253  0.69380928  0.08324623  1
  O  O124  1  0.27154857  0.86320933  0.08270563  1
  O  O125  1  0.77297579  0.85906432  0.08231474  1
  O  O126  1  0.15345713  0.84237152  0.57688736  1
  O  O127  1  0.67975358  0.87068946  0.57778713  1
  O  O128  1  0.25115036  0.66432630  0.58338845  1
  O  O129  1  0.76703734  0.69606924  0.57752137  1
  O  O130  1  0.07508314  0.47292006  0.57829389  1
  O  O131  1  0.56701733  0.47073952  0.58218809  1
  O  O132  1  0.14199578  0.82441367  0.24663614  1
  O  O133  1  0.64824494  0.84556759  0.24580022  1
  O  O134  1  0.26977942  0.71874496  0.24673699  1
  O  O135  1  0.76748876  0.71253916  0.24861070  1
  O  O136  1  0.08409582  0.45876683  0.24471455  1
  O  O137  1  0.58566219  0.46593281  0.24548609  1
  O  O138  1  0.14313837  0.46906416  0.74576505  1
  O  O139  1  0.66697244  0.48298384  0.75167977  1
  O  O140  1  0.07358823  0.68584005  0.74439419  1
  O  O141  1  0.57629689  0.69341183  0.75356665  1
  O  O142  1  0.26713959  0.84415982  0.74998963  1
  O  O143  1  0.76398273  0.83433814  0.74298928  1
loop_
_geom_bond_atom_site_label_1
_geom_bond_atom_site_label_2
_geom_bond_distance
_geom_bond_site_symmetry_2
Na0 O134 2.493479 1_545
Na0 O104 2.506795 1_555
Na0 O106 2.599381 1_555
Na0 O32 2.677891 1_555
Na1 O135 2.451179 1_545
Na1 O105 2.562729 1_555
Na1 O107 2.739227 1_555
Na1 O33 2.747650 1_555
Na2 O102 2.521892 1_555
Na2 O136 2.597829 1_555
Na2 O106 2.616750 1_555
Na2 O34 2.799540 1_555
Na3 O35 2.412450 1_555
Na3 O103 2.440621 1_555
Na3 O137 2.484740 1_555
Na3 O135 2.790887 1_555
Na3 O107 2.858577 1_555
Na4 O31 2.308756 1_555
Na4 O132 2.508434 1_655
Na4 O105 2.667654 1_555
Na4 O103 2.696459 1_555
Na4 O136 2.938843 1_655
Na5 O30 2.524955 1_555
Na5 O104 2.567511 1_555
Na5 O102 2.661392 1_555
Na5 O133 2.685887 1_555
Na5 O61 2.802280 1_555
Na5 O137 2.843337 1_555
Na6 O98 2.326560 1_555
Na6 O142 2.675389 1_555
Na6 O138 2.749647 1_555
Na6 O70 2.765665 1_555
Na6 O100 2.790174 1_555
Na6 O28 2.827874 1_555
Na7 O139 2.397089 1_555
Na7 O29 2.470063 1_555
Na7 O143 2.588110 1_555
Na7 O99 2.602460 1_555
Na7 O101 2.699629 1_555
Na8 O138 2.488319 1_655
Na8 O97 2.542856 1_555
Na8 O25 2.556178 1_555
Na8 O101 2.817332 1_555
Na8 O140 2.856886 1_655
Na9 O99 2.485606 1_555
Na9 O97 2.514386 1_555
Na9 O69 2.746580 1_545
Na9 O143 2.771339 1_545
Na9 O141 2.806949 1_545
Na9 O27 3.016805 1_555
Na10 O130 2.547172 1_555
Na10 O128 2.680590 1_555
Na10 O42 2.739362 1_555
Na10 O86 2.741205 1_555
Na10 O85 2.787031 1_455
Na11 O126 2.415055 1_555
Na11 O89 2.512510 1_455
Na11 O86 2.660003 1_565
Na11 O16 2.721626 1_555
Na11 O45 2.725416 1_455
Na12 O88 2.407019 1_555
Na12 O128 2.482355 1_555
Na12 O84 2.681636 1_565
Na12 O12 2.802553 1_555
Na12 O26 2.845366 1_565
Na12 O126 2.988177 1_555
Na13 O129 2.324319 1_555
Na13 O127 2.655075 1_555
Na13 O85 2.680106 1_565
Na13 O89 2.687602 1_555
Na13 O47 2.723505 1_565
Na13 O13 2.955513 1_555
Na13 O55 3.031220 1_555
Na14 O125 2.486238 1_555
Na14 O39 2.566336 1_555
Na14 O121 2.667892 1_555
Na14 O49 2.689518 1_554
Na14 O91 2.755765 1_555
Na14 O93 2.783937 1_565
Na15 O108 2.439612 1_555
Na15 O80 2.534252 1_555
Na15 O78 2.597210 1_555
Na15 O112 2.646152 1_555
Na15 O6 2.661887 1_555
Na16 O109 2.418818 1_555
Na16 O81 2.587149 1_555
Na16 O113 2.625627 1_555
Na16 O79 2.697529 1_555
Na16 O7 2.818607 1_555
Na17 O73 2.339700 1_555
Na17 O118 2.378923 1_555
Na17 O116 2.629539 1_555
Na17 O74 2.657622 1_555
Na17 O44 2.828635 1_555
Na17 O2 2.912473 1_555
Na18 O72 2.669251 1_555
Na18 O75 2.744825 1_455
Na18 O76 2.767650 1_565
Na18 O89 2.827619 1_455
Na18 O85 2.916518 1_465
Na18 O86 2.969412 1_565
Na19 O73 2.337737 1_555
Na19 O87 2.598952 1_565
Na19 O88 2.629439 1_555
Na19 O77 2.870626 1_565
Na19 O74 2.960714 1_555
Na20 O83 2.427338 1_554
Na20 O91 2.641835 1_555
Na20 O93 2.726699 1_565
Na20 O80 2.829309 1_664
Na20 O78 2.961141 1_664
Na20 O94 2.989281 1_665
Na21 O82 2.575875 1_554
Na21 O90 2.652460 1_555
Na21 O92 2.745499 1_565
Na21 O81 2.827051 1_564
Na22 O108 2.539797 1_555
Na22 O112 2.625297 1_555
Na22 O110 2.787623 1_555
Na22 O98 2.883728 1_555
Na22 O96 2.885094 1_555
Na22 O100 2.912864 1_555
Na23 O109 2.484333 1_555
Na23 O99 2.544772 1_555
Na23 O113 2.590490 1_555
Na23 O111 2.872315 1_555
Na24 O118 2.467074 1_555
Na24 O104 2.696788 1_555
Na24 O114 2.773086 1_555
Na24 O116 2.865744 1_555
Na24 O102 2.952837 1_555
Na25 O119 2.609858 1_555
Na25 O105 2.732773 1_555
Na25 O103 2.738555 1_555
Na25 O117 2.821270 1_555
Na25 O115 2.852395 1_555
Na26 O122 2.586780 1_555
Na26 O136 2.609094 1_555
Na26 O132 2.616328 1_555
Na26 O134 2.843032 1_555
Na26 O120 2.861088 1_555
Na26 O124 2.897434 1_555
Na27 O121 2.436165 1_555
Na27 O123 2.482348 1_555
Na27 O137 2.553369 1_555
Na27 O125 2.947695 1_555
Na27 O133 2.954562 1_555
Na27 O135 2.977531 1_555
Na28 O128 2.518904 1_555
Na28 O138 2.641614 1_555
Na28 O130 2.672243 1_555
Na28 O140 2.742849 1_555
Na28 O126 2.794099 1_555
Na28 O142 2.882980 1_555
Na29 O139 2.422608 1_555
Na29 O143 2.583179 1_555
Na29 O129 2.748577 1_555
Na29 O131 2.821108 1_555
Na29 O141 3.003788 1_555
La0 O5 2.237258 1_565
La0 O3 2.241833 1_555
La0 O0 2.255853 1_665
La0 O75 2.559851 1_555
La0 O76 2.566618 1_665
La0 O72 2.568059 1_655
La1 O4 2.262721 1_565
La1 O2 2.273235 1_555
La1 O73 2.378815 1_555
La1 O1 2.414950 1_565
La1 O74 2.512212 1_555
La1 O77 2.522537 1_565
La2 O11 2.222673 1_565
La2 O83 2.315899 1_555
La2 O6 2.374819 1_665
La2 O9 2.433838 1_555
La2 O78 2.525983 1_665
La2 O80 2.582106 1_665
La3 O82 2.295987 1_555
La3 O7 2.304264 1_565
La3 O8 2.411504 1_555
La3 O10 2.415836 1_565
La3 O79 2.448878 1_565
La3 O81 2.485979 1_565
La4 O15 2.212282 1_555
La4 O88 2.365202 1_545
La4 O17 2.413105 1_545
La4 O84 2.445754 1_555
La4 O87 2.461043 1_555
La4 O12 2.487570 1_545
La5 O26 2.238885 1_555
La5 O28 2.290923 1_555
La5 O98 2.321937 1_555
La5 O24 2.480637 1_555
La5 O96 2.575942 1_555
La5 O100 2.575946 1_555
La6 O29 2.302265 1_555
La6 O25 2.347948 1_555
La6 O99 2.376320 1_555
La6 O97 2.392306 1_555
La6 O27 2.437519 1_555
La6 O101 2.513918 1_555
La7 O30 2.247970 1_555
La7 O102 2.349458 1_555
La7 O104 2.375474 1_555
La7 O106 2.397825 1_555
La7 O34 2.482706 1_555
La7 O32 2.499276 1_555
La8 O31 2.264574 1_555
La8 O35 2.267547 1_555
La8 O105 2.398967 1_555
La8 O103 2.405340 1_555
La8 O33 2.504308 1_555
La8 O107 2.600443 1_555
La9 O38 2.199134 1_556
La9 O108 2.282863 1_555
La9 O110 2.509158 1_555
La9 O36 2.554669 1_556
La9 O40 2.673582 1_556
La9 O112 2.695073 1_555
La10 O109 2.292516 1_555
La10 O39 2.295166 1_556
La10 O37 2.298341 1_556
La10 O111 2.615251 1_555
La10 O41 2.632477 1_556
La10 O113 2.659846 1_555
La11 O44 2.267972 1_555
La11 O118 2.356893 1_555
La11 O42 2.394814 1_555
La11 O46 2.437924 1_555
La11 O116 2.520083 1_555
La11 O114 2.605651 1_555
La12 O45 2.284366 1_555
La12 O47 2.304085 1_555
La12 O43 2.440570 1_555
La12 O119 2.466066 1_555
La12 O117 2.536226 1_555
La12 O115 2.593443 1_555
La13 O48 2.238789 1_554
La13 O122 2.311740 1_555
La13 O50 2.427520 1_554
La13 O52 2.441796 1_554
La13 O124 2.468264 1_555
La13 O120 2.509360 1_555
La14 O123 2.295423 1_555
La14 O49 2.318947 1_554
La14 O121 2.328453 1_555
La14 O51 2.421730 1_554
La14 O53 2.505324 1_554
La14 O125 2.513945 1_555
La15 O130 2.297240 1_555
La15 O126 2.306508 1_555
La15 O128 2.319035 1_555
La15 O54 2.424758 1_555
La15 O56 2.437437 1_555
La15 O58 2.443585 1_555
La16 O59 2.194584 1_555
La16 O57 2.379665 1_555
La16 O55 2.437017 1_555
La16 O131 2.462963 1_555
La16 O129 2.464938 1_555
La16 O127 2.468845 1_555
La17 O134 2.324049 1_555
La17 O132 2.328278 1_555
La17 O136 2.358486 1_555
La17 O64 2.498823 1_555
La17 O60 2.499426 1_555
La17 O62 2.503918 1_555
La18 O61 2.250404 1_555
La18 O137 2.393117 1_555
La18 O65 2.457631 1_555
La18 O135 2.486436 1_555
La18 O63 2.563142 1_555
La18 O133 2.614500 1_555
La19 O70 2.225126 1_555
La19 O66 2.414172 1_555
La19 O138 2.441143 1_555
La19 O142 2.472945 1_555
La19 O68 2.480766 1_555
La19 O140 2.641210 1_555
La20 O71 2.198747 1_555
La20 O139 2.303220 1_555
La20 O143 2.444524 1_555
La20 O67 2.490689 1_555
La20 O141 2.580124 1_555
La20 O69 2.588007 1_555
Nb0 O85 1.938480 1_455
Nb0 O13 1.959707 1_445
Nb0 O14 1.977251 1_555
Nb0 O86 2.000911 1_555
Nb0 O89 2.037543 1_445
Nb0 O16 2.395625 1_545
Nb1 O22 1.887705 1_655
Nb1 O19 1.918736 1_555
Nb1 O20 1.965347 1_665
Nb1 O91 1.986605 1_555
Nb1 O94 2.315838 1_665
Nb1 O93 2.326853 1_565
Nb2 O95 1.949257 1_555
Nb2 O90 1.953385 1_545
Nb2 O21 1.972162 1_555
Nb2 O18 1.996117 1_545
Nb2 O92 2.119082 1_555
Nb2 O23 2.291680 1_545
O0 Si0 1.609669 1_555
O1 S0 1.471630 1_545
O2 Si1 1.629172 1_555
O3 Si2 1.613444 1_555
O4 Si4 1.617348 1_555
O5 Si3 1.617074 1_555
O6 Si5 1.618628 1_555
O7 Si6 1.647202 1_555
O8 S2 1.484232 1_555
O9 S1 1.467751 1_655
O10 S3 1.477102 1_545
O11 Si7 1.617992 1_555
O12 S3 1.490209 1_555
O13 Si7 1.711756 1_565
O14 Si5 1.731437 1_555
O15 Si6 1.647648 1_555
O16 S1 1.494833 1_555
O17 S2 1.485076 1_555
O18 Si1 1.697525 1_555
O19 Si2 1.744186 1_555
O20 Si3 1.709187 1_455
O21 Si4 1.695137 1_555
O22 Si0 1.728799 1_565
O23 S0 1.489595 1_555
O24 S4 1.474893 1_555
O25 Si8 1.622443 1_555
O26 Si9 1.629997 1_555
O27 S5 1.487852 1_555
O28 Si10 1.654812 1_555
O29 Si11 1.633419 1_555
O30 Si12 1.631267 1_555
O31 Si13 1.634890 1_555
O32 S6 1.480195 1_555
O33 S7 1.483793 1_555
O34 S8 1.488273 1_555
O35 Si14 1.639256 1_555
O36 S8 1.491858 1_555
O37 Si14 1.645046 1_555
O38 Si12 1.660040 1_555
O39 Si13 1.655824 1_555
O40 S6 1.468771 1_555
O41 S7 1.474944 1_555
O42 Si9 1.631481 1_555
O43 S5 1.478889 1_555
O44 Si10 1.647392 1_555
O45 Si11 1.659249 1_555
O46 S4 1.483789 1_555
O47 Si8 1.637141 1_555
O48 Si15 1.635012 1_555
O49 Si16 1.643068 1_555
O50 S9 1.477458 1_555
O51 S10 1.479727 1_555
O52 S11 1.475220 1_555
O53 S12 1.467813 1_555
O54 S13 1.493478 1_555
O55 S14 1.489520 1_555
O56 S15 1.485730 1_555
O57 S16 1.483128 1_555
O58 S17 1.486119 1_555
O59 Si17 1.647343 1_555
O60 S17 1.482903 1_555
O61 Si17 1.670362 1_555
O62 S13 1.490940 1_555
O63 S14 1.494604 1_555
O64 S15 1.493791 1_555
O65 S16 1.494242 1_555
O66 S9 1.500399 1_555
O67 S10 1.479588 1_555
O68 S11 1.488742 1_555
O69 S12 1.495330 1_555
O70 Si15 1.684248 1_555
O71 Si16 1.668394 1_555
O72 S17 1.483821 1_555
O73 Si17 1.659890 1_555
O74 S13 1.488734 1_555
O75 S14 1.492470 1_555
O76 S15 1.478998 1_555
O77 S16 1.479670 1_555
O78 S9 1.494776 1_555
O79 S10 1.496922 1_555
O80 S11 1.497650 1_545
O81 S12 1.505204 1_545
O82 Si15 1.641717 1_555
O83 Si16 1.641724 1_555
O84 S4 1.493744 1_555
O85 Si8 1.703883 1_555
O86 Si9 1.686056 1_555
O87 S5 1.483203 1_555
O88 Si10 1.649779 1_555
O89 Si11 1.706433 1_555
O90 Si12 1.689634 1_555
O91 Si13 1.701086 1_555
O92 S6 1.524653 1_555
O93 S7 1.509741 1_555
O94 S8 1.493107 1_555
O95 Si14 1.688119 1_555
O96 S3 1.476907 1_545
O97 Si7 1.635430 1_555
O98 Si5 1.645373 1_555
O99 Si6 1.671837 1_555
O100 S2 1.488199 1_555
O101 S1 1.500795 1_655
O102 Si1 1.646808 1_555
O103 Si2 1.643827 1_555
O104 Si4 1.645980 1_555
O105 Si3 1.643705 1_555
O106 Si0 1.626302 1_555
O107 S0 1.490975 1_545
O108 Si15 1.676885 1_555
O109 Si16 1.674614 1_555
O110 S10 1.486084 1_555
O111 S9 1.477574 1_655
O112 S11 1.496666 1_545
O113 S12 1.494050 1_545
O114 S13 1.477878 1_545
O115 S14 1.491354 1_545
O116 S15 1.492533 1_555
O117 S16 1.491019 1_555
O118 Si17 1.665858 1_555
O119 S17 1.498605 1_655
O120 S8 1.488759 1_555
O121 Si14 1.642888 1_555
O122 Si13 1.626817 1_455
O123 Si12 1.623427 1_555
O124 S6 1.480094 1_565
O125 S7 1.490554 1_565
O126 Si9 1.644738 1_565
O127 S5 1.483737 1_565
O128 Si10 1.674238 1_555
O129 Si11 1.634690 1_555
O130 Si8 1.627682 1_455
O131 S4 1.484956 1_555
O132 Si0 1.648829 1_565
O133 S0 1.500348 1_555
O134 Si1 1.657317 1_555
O135 Si2 1.643436 1_555
O136 Si3 1.653789 1_455
O137 Si4 1.659270 1_555
O138 Si5 1.676195 1_555
O139 Si6 1.654304 1_555
O140 S1 1.492972 1_555
O141 S2 1.482557 1_555
O142 S3 1.504697 1_555
O143 Si7 1.643854 1_565
