# generated using pymatgen
data_NaTe
_symmetry_space_group_name_H-M   'P 1'
_cell_length_a   9.16534196
_cell_length_b   9.91995065
_cell_length_c   15.93643261
_cell_angle_alpha   90.00000000
_cell_angle_beta   90.00000000
_cell_angle_gamma   90.00000000
_symmetry_Int_Tables_number   1
_chemical_formula_structural   NaTe
_chemical_formula_sum   'Na24 Te24'
_cell_volume   1448.93630837
_cell_formula_units_Z   24
loop_
 _symmetry_equiv_pos_site_id
 _symmetry_equiv_pos_as_xyz
  1  'x, y, z'
loop_
 _atom_site_type_symbol
 _atom_site_label
 _atom_site_symmetry_multiplicity
 _atom_site_fract_x
 _atom_site_fract_y
 _atom_site_fract_z
 _atom_site_occupancy
  Na  Na0  1  0.72372003  0.51428262  0.80986688  1
  Na  Na1  1  0.22372003  0.98571738  0.69013312  1
  Na  Na2  1  0.77627997  0.51428262  0.19013312  1
  Na  Na3  1  0.27627997  0.98571738  0.30986688  1
  Na  Na4  1  0.27627997  0.48571738  0.19013312  1
  Na  Na5  1  0.77627997  0.01428262  0.30986688  1
  Na  Na6  1  0.22372003  0.48571738  0.80986688  1
  Na  Na7  1  0.72372003  0.01428262  0.69013312  1
  Na  Na8  1  0.93930721  0.68086043  0.97117787  1
  Na  Na9  1  0.43930721  0.81913957  0.52882213  1
  Na  Na10  1  0.56069279  0.68086043  0.02882213  1
  Na  Na11  1  0.06069279  0.81913957  0.47117787  1
  Na  Na12  1  0.06069279  0.31913957  0.02882213  1
  Na  Na13  1  0.56069279  0.18086043  0.47117787  1
  Na  Na14  1  0.43930721  0.31913957  0.97117787  1
  Na  Na15  1  0.93930721  0.18086043  0.52882213  1
  Na  Na16  1  0.75702248  0.67082978  0.61301674  1
  Na  Na17  1  0.25702248  0.82917022  0.88698326  1
  Na  Na18  1  0.74297752  0.67082978  0.38698326  1
  Na  Na19  1  0.24297752  0.82917022  0.11301674  1
  Na  Na20  1  0.24297752  0.32917022  0.38698326  1
  Na  Na21  1  0.74297752  0.17082978  0.11301674  1
  Na  Na22  1  0.25702248  0.32917022  0.61301674  1
  Na  Na23  1  0.75702248  0.17082978  0.88698326  1
  Te  Te0  1  0.75000000  0.92795305  0.50000000  1
  Te  Te1  1  0.25000000  0.57204695  0.00000000  1
  Te  Te2  1  0.25000000  0.07204695  0.50000000  1
  Te  Te3  1  0.75000000  0.42795305  0.00000000  1
  Te  Te4  1  0.51033181  0.24580552  0.25276377  1
  Te  Te5  1  0.01033181  0.25419448  0.24723623  1
  Te  Te6  1  0.98966819  0.24580552  0.74723623  1
  Te  Te7  1  0.48966819  0.25419448  0.75276377  1
  Te  Te8  1  0.48966819  0.75419448  0.74723623  1
  Te  Te9  1  0.98966819  0.74580552  0.75276377  1
  Te  Te10  1  0.01033181  0.75419448  0.25276377  1
  Te  Te11  1  0.51033181  0.74580552  0.24723623  1
  Te  Te12  1  0.30933729  0.14034025  0.13313552  1
  Te  Te13  1  0.80933729  0.35965975  0.36686448  1
  Te  Te14  1  0.19066271  0.14034025  0.86686448  1
  Te  Te15  1  0.69066271  0.35965975  0.63313552  1
  Te  Te16  1  0.69066271  0.85965975  0.86686448  1
  Te  Te17  1  0.19066271  0.64034025  0.63313552  1
  Te  Te18  1  0.80933729  0.85965975  0.13313552  1
  Te  Te19  1  0.30933729  0.64034025  0.36686448  1
  Te  Te20  1  -0.00000000  0.50000000  0.50000000  1
  Te  Te21  1  0.50000000  -0.00000000  0.00000000  1
  Te  Te22  1  0.50000000  0.50000000  0.50000000  1
  Te  Te23  1  -0.00000000  -0.00000000  0.00000000  1
loop_
_geom_bond_atom_site_label_1
_geom_bond_atom_site_label_2
_geom_bond_distance
_geom_bond_site_symmetry_2
Na0 Te3 3.157939 1_556
Na0 Te15 3.221333 1_555
Na0 Te8 3.355882 1_555
Na0 Te9 3.470502 1_555
Na0 Te7 3.476577 1_555
Na0 Te16 3.557415 1_555
Na0 Te6 3.745760 1_555
Na1 Te2 3.157939 1_565
Na1 Te14 3.221333 1_565
Na1 Te9 3.355882 1_455
Na1 Te8 3.470502 1_555
Na1 Te6 3.476577 1_465
Na1 Te17 3.557415 1_555
Na1 Te7 3.745760 1_565
Na2 Te3 3.157939 1_555
Na2 Te13 3.221333 1_555
Na2 Te10 3.355882 1_655
Na2 Te11 3.470502 1_555
Na2 Te5 3.476577 1_655
Na2 Te18 3.557415 1_555
Na2 Te4 3.745760 1_555
Na3 Te2 3.157939 1_565
Na3 Te12 3.221333 1_565
Na3 Te11 3.355882 1_555
Na3 Te10 3.470502 1_555
Na3 Te4 3.476577 1_565
Na3 Te19 3.557415 1_555
Na3 Te5 3.745760 1_565
Na4 Te1 3.157939 1_555
Na4 Te19 3.221333 1_555
Na4 Te4 3.355882 1_555
Na4 Te5 3.470502 1_555
Na4 Te11 3.476577 1_555
Na4 Te12 3.557415 1_555
Na4 Te10 3.745760 1_555
Na5 Te0 3.157939 1_545
Na5 Te18 3.221333 1_545
Na5 Te5 3.355882 1_655
Na5 Te4 3.470502 1_555
Na5 Te10 3.476577 1_645
Na5 Te13 3.557415 1_555
Na5 Te11 3.745760 1_545
Na6 Te1 3.157939 1_556
Na6 Te17 3.221333 1_555
Na6 Te6 3.355882 1_455
Na6 Te7 3.470502 1_555
Na6 Te9 3.476577 1_455
Na6 Te14 3.557415 1_555
Na6 Te8 3.745760 1_555
Na7 Te0 3.157939 1_545
Na7 Te16 3.221333 1_545
Na7 Te7 3.355882 1_555
Na7 Te6 3.470502 1_555
Na7 Te8 3.476577 1_545
Na7 Te15 3.557415 1_555
Na7 Te9 3.745760 1_545
Na8 Te1 3.079771 1_656
Na8 Te3 3.084745 1_556
Na8 Te23 3.247000 1_666
Na8 Te16 3.332101 1_555
Na8 Te18 3.350619 1_556
Na8 Te9 3.569828 1_555
Na9 Te0 3.079771 1_555
Na9 Te2 3.084745 1_565
Na9 Te22 3.247000 1_555
Na9 Te17 3.332101 1_555
Na9 Te19 3.350619 1_555
Na9 Te8 3.569828 1_555
Na10 Te1 3.079771 1_555
Na10 Te3 3.084745 1_555
Na10 Te21 3.247000 1_565
Na10 Te18 3.332101 1_555
Na10 Te16 3.350619 1_554
Na10 Te11 3.569828 1_555
Na11 Te0 3.079771 1_455
Na11 Te2 3.084745 1_565
Na11 Te20 3.247000 1_555
Na11 Te19 3.332101 1_555
Na11 Te17 3.350619 1_555
Na11 Te10 3.569828 1_555
Na12 Te3 3.079771 1_455
Na12 Te1 3.084745 1_555
Na12 Te23 3.247000 1_555
Na12 Te12 3.332101 1_555
Na12 Te14 3.350619 1_554
Na12 Te5 3.569828 1_555
Na13 Te2 3.079771 1_555
Na13 Te0 3.084745 1_545
Na13 Te22 3.247000 1_555
Na13 Te13 3.332101 1_555
Na13 Te15 3.350619 1_555
Na13 Te4 3.569828 1_555
Na14 Te3 3.079771 1_556
Na14 Te1 3.084745 1_556
Na14 Te21 3.247000 1_556
Na14 Te14 3.332101 1_555
Na14 Te12 3.350619 1_556
Na14 Te7 3.569828 1_555
Na15 Te2 3.079771 1_655
Na15 Te0 3.084745 1_545
Na15 Te20 3.247000 1_655
Na15 Te15 3.332101 1_555
Na15 Te13 3.350619 1_555
Na15 Te6 3.569828 1_555
Na16 Te0 3.123117 1_555
Na16 Te15 3.162436 1_555
Na16 Te9 3.171690 1_555
Na16 Te20 3.327920 1_655
Na16 Te8 3.356121 1_555
Na16 Te22 3.415401 1_555
Na17 Te1 3.123117 1_556
Na17 Te14 3.162436 1_565
Na17 Te8 3.171690 1_555
Na17 Te21 3.327920 1_566
Na17 Te9 3.356121 1_455
Na17 Te23 3.415401 1_566
Na18 Te0 3.123117 1_555
Na18 Te13 3.162436 1_555
Na18 Te11 3.171690 1_555
Na18 Te22 3.327920 1_555
Na18 Te10 3.356121 1_655
Na18 Te20 3.415401 1_655
Na19 Te1 3.123117 1_555
Na19 Te12 3.162436 1_565
Na19 Te10 3.171690 1_555
Na19 Te23 3.327920 1_565
Na19 Te11 3.356121 1_555
Na19 Te21 3.415401 1_565
Na20 Te2 3.123117 1_555
Na20 Te19 3.162436 1_555
Na20 Te5 3.171690 1_555
Na20 Te20 3.327920 1_555
Na20 Te4 3.356121 1_555
Na20 Te22 3.415401 1_555
Na21 Te3 3.123117 1_555
Na21 Te18 3.162436 1_545
Na21 Te4 3.171690 1_555
Na21 Te21 3.327920 1_555
Na21 Te5 3.356121 1_655
Na21 Te23 3.415401 1_655
Na22 Te2 3.123117 1_555
Na22 Te17 3.162436 1_555
Na22 Te7 3.171690 1_555
Na22 Te22 3.327920 1_555
Na22 Te6 3.356121 1_455
Na22 Te20 3.415401 1_555
Na23 Te3 3.123117 1_556
Na23 Te16 3.162436 1_545
Na23 Te6 3.171690 1_555
Na23 Te23 3.327920 1_656
Na23 Te7 3.356121 1_555
Na23 Te21 3.415401 1_556
Te10 Te18 2.850042 1_455
Te11 Te19 2.850042 1_555
Te12 Te4 2.850042 1_555
Te12 Te21 3.081150 1_555
Te13 Te5 2.850042 1_655
Te13 Te20 3.081150 1_655
Te14 Te6 2.850042 1_455
Te14 Te23 3.081150 1_556
Te15 Te7 2.850042 1_555
Te15 Te22 3.081150 1_555
Te16 Te8 2.850042 1_555
Te16 Te21 3.081150 1_566
Te17 Te9 2.850042 1_455
Te17 Te20 3.081150 1_555
Te18 Te23 3.081150 1_665
Te19 Te22 3.081150 1_555
