# generated using pymatgen
data_SnH6CBr3N
_symmetry_space_group_name_H-M   'P 1'
_cell_length_a   7.98017100
_cell_length_b   12.22726700
_cell_length_c   8.65042900
_cell_angle_alpha   90.00000000
_cell_angle_beta   90.00000000
_cell_angle_gamma   90.00000000
_symmetry_Int_Tables_number   1
_chemical_formula_structural   SnH6CBr3N
_chemical_formula_sum   'Sn4 H24 C4 Br12 N4'
_cell_volume   844.07150514
_cell_formula_units_Z   4
loop_
 _symmetry_equiv_pos_site_id
 _symmetry_equiv_pos_as_xyz
  1  'x, y, z'
loop_
 _atom_site_type_symbol
 _atom_site_label
 _atom_site_symmetry_multiplicity
 _atom_site_fract_x
 _atom_site_fract_y
 _atom_site_fract_z
 _atom_site_occupancy
  Sn  Sn0  1  0.50000000  0.00000000  0.50000000  1
  Sn  Sn1  1  0.00000000  0.00000000  0.00000000  1
  Sn  Sn2  1  0.50000000  0.50000000  0.50000000  1
  Sn  Sn3  1  0.00000000  0.50000000  0.00000000  1
  H  H0  1  0.50960200  0.31846300  0.14989800  1
  H  H1  1  0.49039800  0.68153700  0.85010200  1
  H  H2  1  0.99039800  0.68153700  0.64989800  1
  H  H3  1  0.00960200  0.31846300  0.35010200  1
  H  H4  1  0.49039800  0.81846300  0.85010200  1
  H  H5  1  0.50960200  0.18153700  0.14989800  1
  H  H6  1  0.00960200  0.18153700  0.35010200  1
  H  H7  1  0.99039800  0.81846300  0.64989800  1
  H  H8  1  0.33877100  0.25000000  0.08642900  1
  H  H9  1  0.66122900  0.75000000  0.91357100  1
  H  H10  1  0.16122900  0.75000000  0.58642900  1
  H  H11  1  0.83877100  0.25000000  0.41357100  1
  H  H12  1  0.49419100  0.32340100  0.86994200  1
  H  H13  1  0.50580900  0.67659900  0.13005800  1
  H  H14  1  0.00580900  0.67659900  0.36994200  1
  H  H15  1  0.99419100  0.32340100  0.63005900  1
  H  H16  1  0.50580900  0.82340100  0.13005800  1
  H  H17  1  0.49419100  0.17659900  0.86994200  1
  H  H18  1  0.99419100  0.17659900  0.63005900  1
  H  H19  1  0.00580900  0.82340100  0.36994200  1
  H  H20  1  0.67551100  0.25000000  0.93601200  1
  H  H21  1  0.32448900  0.75000000  0.06398800  1
  H  H22  1  0.82448900  0.75000000  0.43601200  1
  H  H23  1  0.17551100  0.25000000  0.56398800  1
  C  C0  1  0.53859500  0.25000000  0.92944700  1
  C  C1  1  0.46140400  0.75000000  0.07055300  1
  C  C2  1  0.96140500  0.75000000  0.42944800  1
  C  C3  1  0.03859500  0.25000000  0.57055300  1
  Br  Br0  1  0.55629400  0.25000000  0.50089400  1
  Br  Br1  1  0.44370600  0.75000000  0.49910600  1
  Br  Br2  1  0.94370600  0.75000000  0.00089400  1
  Br  Br3  1  0.05629400  0.25000000  0.99910600  1
  Br  Br4  1  0.79807000  0.97808800  0.70792300  1
  Br  Br5  1  0.20193000  0.02191200  0.29207700  1
  Br  Br6  1  0.70193000  0.02191200  0.20792300  1
  Br  Br7  1  0.29807000  0.97808800  0.79207700  1
  Br  Br8  1  0.20193000  0.47808800  0.29207700  1
  Br  Br9  1  0.79807000  0.52191200  0.70792300  1
  Br  Br10  1  0.29807000  0.52191200  0.79207700  1
  Br  Br11  1  0.70193000  0.47808800  0.20792300  1
  N  N0  1  0.46941100  0.25000000  0.08966900  1
  N  N1  1  0.53058900  0.75000000  0.91033100  1
  N  N2  1  0.03058900  0.75000000  0.58966900  1
  N  N3  1  0.96941100  0.25000000  0.41033100  1
loop_
_geom_bond_atom_site_label_1
_geom_bond_atom_site_label_2
_geom_bond_distance
_geom_bond_site_symmetry_2
H0 N0 1.036860 1_555
H1 N1 1.036860 1_555
H2 N2 1.036860 1_655
H3 N3 1.036860 1_455
H4 N1 1.036860 1_555
H5 N0 1.036860 1_555
H6 N3 1.036860 1_455
H7 N2 1.036860 1_655
H8 N0 1.042906 1_555
H9 N1 1.042906 1_555
H10 N2 1.042906 1_555
H11 N3 1.042906 1_555
C0 H12 1.093627 1_555
C0 H17 1.093627 1_555
C0 H20 1.094088 1_555
C0 N0 1.491905 1_556
C1 H16 1.093630 1_555
C1 H13 1.093630 1_555
C1 H21 1.094080 1_555
C1 N1 1.491908 1_554
C2 H19 1.093632 1_655
C2 H14 1.093632 1_655
C2 H22 1.094088 1_555
C2 N2 1.491897 1_655
C3 H15 1.093632 1_455
C3 H18 1.093632 1_455
C3 H23 1.094088 1_555
C3 N3 1.491905 1_455
Br0 Sn0 3.089660 1_555
Br0 Sn2 3.089660 1_555
Br1 Sn0 3.089660 1_565
Br1 Sn2 3.089660 1_555
Br2 Sn1 3.089660 1_665
Br2 Sn3 3.089660 1_655
Br3 Sn1 3.089660 1_556
Br3 Sn3 3.089660 1_556
Br4 Sn0 2.994128 1_565
Br4 Sn1 3.008683 1_666
Br5 Sn0 2.994128 1_555
Br5 Sn1 3.008683 1_555
Br6 Sn1 2.994128 1_655
Br6 Sn0 3.008683 1_555
Br7 Sn1 2.994128 1_566
Br7 Sn0 3.008683 1_565
Br8 Sn2 2.994128 1_555
Br8 Sn3 3.008683 1_555
Br9 Sn2 2.994128 1_555
Br9 Sn3 3.008683 1_656
Br10 Sn3 2.994128 1_556
Br10 Sn2 3.008683 1_555
Br11 Sn3 2.994128 1_655
Br11 Sn2 3.008683 1_555
