# generated using pymatgen
data_Na2ZrSi2GeSO12
_symmetry_space_group_name_H-M   'P 1'
_cell_length_a   8.85510448
_cell_length_b   8.91261964
_cell_length_c   22.56118493
_cell_angle_alpha   89.13548600
_cell_angle_beta   91.34080934
_cell_angle_gamma   119.64481497
_symmetry_Int_Tables_number   1
_chemical_formula_structural   Na2ZrSi2GeSO12
_chemical_formula_sum   'Na12 Zr6 Si12 Ge6 S6 O72'
_cell_volume   1547.07865530
_cell_formula_units_Z   6
loop_
 _symmetry_equiv_pos_site_id
 _symmetry_equiv_pos_as_xyz
  1  'x, y, z'
loop_
 _atom_site_type_symbol
 _atom_site_label
 _atom_site_symmetry_multiplicity
 _atom_site_fract_x
 _atom_site_fract_y
 _atom_site_fract_z
 _atom_site_occupancy
  Na  Na0  1  0.99471790  0.63793593  0.25418053  1
  Na  Na1  1  0.37176080  0.00354545  0.75834199  1
  Na  Na2  1  0.66011326  0.97152821  0.58817208  1
  Na  Na3  1  0.03967755  0.33620372  0.08603043  1
  Na  Na4  1  0.33430003  0.29901500  0.92255123  1
  Na  Na5  1  0.70802094  0.67236874  0.42210378  1
  Na  Na6  1  0.01497147  0.98820729  0.50149492  1
  Na  Na7  1  0.00056928  0.97737815  0.99604033  1
  Na  Na8  1  0.68268701  0.32891596  0.83669735  1
  Na  Na9  1  0.67575850  0.31281303  0.33038036  1
  Na  Na10  1  0.35201185  0.66206608  0.16250569  1
  Na  Na11  1  0.33878768  0.64722805  0.66918059  1
  Zr  Zr0  1  0.98572003  0.99642725  0.35250996  1
  Zr  Zr1  1  0.99622455  -0.00152609  0.65067264  1
  Zr  Zr2  1  0.00247485  0.99863247  0.14064969  1
  Zr  Zr3  1  0.65154028  0.32985628  0.68914774  1
  Zr  Zr4  1  0.66819601  0.33305342  0.47992698  1
  Zr  Zr5  1  0.33152656  0.66256154  0.31048091  1
  Si  Si0  1  0.70213645  0.70099989  0.24635757  1
  Si  Si1  1  0.98453986  0.29031582  0.24163108  1
  Si  Si2  1  0.28621561  0.30582066  0.75693085  1
  Si  Si3  1  0.70693530  0.98956043  0.75746352  1
  Si  Si4  1  0.36412144  0.03301955  0.58346823  1
  Si  Si5  1  0.65384226  0.62757198  0.57865620  1
  Si  Si6  1  0.95123481  0.61655773  0.07691879  1
  Si  Si7  1  0.39709157  0.34828779  0.07678245  1
  Si  Si8  1  0.03767090  0.38306556  0.91648446  1
  Si  Si9  1  0.33008429  0.94726351  0.91711408  1
  Si  Si10  1  0.62096811  0.96004755  0.41829918  1
  Si  Si11  1  0.05330419  0.67061149  0.41796612  1
  Ge  Ge0  1  0.02240039  0.03753950  0.85655768  1
  Ge  Ge1  1  0.68954142  0.37311844  0.18158229  1
  Ge  Ge2  1  0.66549307  0.32530761  0.97849323  1
  Ge  Ge3  1  0.30249229  0.64712418  0.01806994  1
  Ge  Ge4  1  0.35294563  0.70429463  0.52059303  1
  Ge  Ge5  1  0.33516958  0.66820357  0.81830986  1
  S  S0  1  0.30218365  0.01513632  0.24905212  1
  S  S1  1  0.00344563  0.70820180  0.75564101  1
  S  S2  1  0.96888545  0.34652793  0.58559376  1
  S  S3  1  0.65222885  0.04281860  0.08036345  1
  S  S4  1  0.62467573  0.67030867  0.91826394  1
  S  S5  1  0.32467455  0.37489137  0.41902112  1
  O  O0  1  0.21673262  0.02835377  0.30229285  1
  O  O1  1  0.81900095  0.77741971  0.30803196  1
  O  O2  1  0.96645156  0.17314269  0.30074329  1
  O  O3  1  0.21360314  0.17534189  0.81533954  1
  O  O4  1  0.98096461  0.78948397  0.80816836  1
  O  O5  1  0.84245425  0.01302591  0.81277705  1
  O  O6  1  0.77915523  0.96015929  0.69486709  1
  O  O7  1  0.16732516  0.20726107  0.69883546  1
  O  O8  1  0.02708703  0.81281470  0.70102795  1
  O  O9  1  0.81245966  0.82489616  0.19185571  1
  O  O10  1  0.01946820  0.20857852  0.18310362  1
  O  O11  1  0.19224705  0.98647493  0.19561344  1
  O  O12  1  0.88148186  0.36019159  0.63798050  1
  O  O13  1  0.48596543  0.11392311  0.64378173  1
  O  O14  1  0.63614887  0.50597485  0.63637926  1
  O  O15  1  0.88271133  0.50663419  0.14002661  1
  O  O16  1  0.63670105  0.12682678  0.13327871  1
  O  O17  1  0.51528186  0.36743740  0.13730489  1
  O  O18  1  0.47480698  0.31098249  0.01678595  1
  O  O19  1  0.82576077  0.50827011  0.02192845  1
  O  O20  1  0.68623599  0.15001072  0.02532463  1
  O  O21  1  0.46893584  0.15414051  0.52780269  1
  O  O22  1  0.68797220  0.54937189  0.51917859  1
  O  O23  1  0.86158393  0.31822932  0.53151967  1
  O  O24  1  0.54109754  0.69055987  0.97063658  1
  O  O25  1  0.16142583  0.45239294  0.97720932  1
  O  O26  1  0.30155213  0.82031194  0.97473061  1
  O  O27  1  0.54357194  0.84399713  0.47950678  1
  O  O28  1  0.31096607  0.45855493  0.47183630  1
  O  O29  1  0.17318339  0.67806026  0.47651929  1
  O  O30  1  0.12678076  0.64471861  0.35562603  1
  O  O31  1  0.50798425  0.85491129  0.36078882  1
  O  O32  1  0.34457014  0.47422387  0.36390691  1
  O  O33  1  0.13983401  0.51097019  0.86104683  1
  O  O34  1  0.36094973  0.86600009  0.85658510  1
  O  O35  1  0.51178028  0.63765717  0.86312550  1
  O  O36  1  0.03772600  0.84686529  0.41542406  1
  O  O37  1  0.81235378  0.97168372  0.41526881  1
  O  O38  1  0.17522905  0.20036274  0.41424916  1
  O  O39  1  0.02907026  0.19070757  0.91102829  1
  O  O40  1  0.15320193  0.97546220  0.90956791  1
  O  O41  1  0.79935650  0.81944008  0.91302200  1
  O  O42  1  0.97653849  0.18008710  0.58919343  1
  O  O43  1  0.17401809  0.01195239  0.58939124  1
  O  O44  1  0.81426625  0.82580421  0.58751163  1
  O  O45  1  0.97498011  0.80878632  0.08087804  1
  O  O46  1  0.81715236  0.02885797  0.08338441  1
  O  O47  1  0.19780965  0.18460686  0.08384539  1
  O  O48  1  0.68689309  0.16404494  0.75164630  1
  O  O49  1  0.47691825  0.31666812  0.74951964  1
  O  O50  1  0.85389078  0.53295277  0.74851824  1
  O  O51  1  0.69469800  0.51215476  0.24050997  1
  O  O52  1  0.80179883  0.30033571  0.23512558  1
  O  O53  1  0.47407004  0.16643275  0.24388231  1
  O  O54  1  0.63465856  0.50399258  0.91992120  1
  O  O55  1  0.83997983  0.35316754  0.92414414  1
  O  O56  1  0.49849994  0.14906841  0.92466183  1
  O  O57  1  0.64297091  0.15031654  0.41939334  1
  O  O58  1  0.48959978  0.36296559  0.41964765  1
  O  O59  1  0.85446889  0.50769641  0.42207603  1
  O  O60  1  0.37492802  0.52629312  0.07140032  1
  O  O61  1  0.14618749  0.62979199  0.07393814  1
  O  O62  1  0.50085797  0.86884578  0.07520908  1
  O  O63  1  0.35589592  0.84377845  0.57845767  1
  O  O64  1  0.46983680  0.63561806  0.57317644  1
  O  O65  1  0.14232782  0.49552655  0.58121656  1
  O  O66  1  0.31240478  0.85056591  0.25211565  1
  O  O67  1  0.51095658  0.67818613  0.24961193  1
  O  O68  1  0.14552429  0.48867219  0.24914226  1
  O  O69  1  0.30461027  0.49539944  0.76511106  1
  O  O70  1  0.16952933  0.69970309  0.75783395  1
  O  O71  1  0.50712014  0.82319784  0.76482912  1
loop_
_geom_bond_atom_site_label_1
_geom_bond_atom_site_label_2
_geom_bond_distance
_geom_bond_site_symmetry_2
Na0 O68 2.309784 1_655
Na0 O51 2.331480 1_555
Na0 O66 2.497397 1_655
Na0 O30 2.533475 1_655
Na0 O52 2.660160 1_555
Na0 O1 2.736837 1_555
Na0 O15 2.794518 1_555
Na1 O70 2.396479 1_545
Na1 O48 2.433207 1_555
Na1 O71 2.435641 1_545
Na1 O49 2.473083 1_555
Na1 O34 2.497318 1_545
Na1 O13 2.780676 1_555
Na1 O3 2.867837 1_555
Na1 O8 2.937055 1_545
Na2 O44 2.303422 1_555
Na2 O63 2.355221 1_555
Na2 O42 2.480470 1_565
Na2 O6 2.625920 1_555
Na2 O64 2.632538 1_555
Na2 O27 2.678185 1_555
Na2 O13 2.763587 1_565
Na3 O61 2.315151 1_555
Na3 O47 2.380248 1_555
Na3 O10 2.421601 1_555
Na3 O46 2.459618 1_455
Na3 O60 2.616459 1_555
Na3 O25 2.684226 1_554
Na3 O15 2.819045 1_455
Na4 O54 2.369065 1_555
Na4 O39 2.387140 1_555
Na4 O56 2.412367 1_555
Na4 O18 2.414801 1_556
Na4 O40 2.530224 1_545
Na4 O3 2.646136 1_555
Na4 O25 2.818171 1_555
Na4 O35 2.942965 1_555
Na5 O37 2.355844 1_555
Na5 O59 2.391365 1_555
Na5 O22 2.404805 1_555
Na5 O58 2.464078 1_555
Na5 O36 2.546980 1_655
Na5 O1 2.757031 1_555
Na5 O27 2.913628 1_555
Na6 O43 2.355395 1_565
Na6 O36 2.396155 1_555
Na6 O44 2.559622 1_455
Na6 O37 2.570836 1_455
Na6 O38 2.612972 1_565
Na6 O42 2.768502 1_465
Na7 O45 2.359952 1_456
Na7 O40 2.404242 1_555
Na7 O41 2.471134 1_455
Na7 O39 2.606773 1_565
Na7 O47 2.672717 1_566
Na7 O46 2.765127 1_466
Na8 O55 2.337847 1_555
Na8 O48 2.446464 1_555
Na8 O56 2.576298 1_555
Na8 O49 2.615800 1_555
Na8 O50 2.620655 1_555
Na8 O54 2.631247 1_555
Na9 O57 2.395487 1_555
Na9 O52 2.473611 1_555
Na9 O53 2.511743 1_555
Na9 O51 2.628341 1_555
Na9 O59 2.652751 1_555
Na9 O58 2.807981 1_555
Na10 O67 2.354304 1_555
Na10 O60 2.463301 1_555
Na10 O62 2.573264 1_555
Na10 O61 2.593384 1_555
Na10 O68 2.613980 1_555
Na10 O66 2.784127 1_555
Na11 O69 2.478726 1_555
Na11 O64 2.508377 1_555
Na11 O65 2.526976 1_555
Na11 O63 2.631524 1_555
Na11 O71 2.641457 1_555
Na11 O70 2.706952 1_555
Ge0 O5 1.775075 1_455
Ge0 O3 1.794988 1_555
Ge0 O39 1.828874 1_555
Ge0 O40 1.904515 1_545
Ge0 O4 2.337915 1_445
Ge0 O41 2.355281 1_445
Ge1 O17 1.798243 1_555
Ge1 O15 1.802431 1_555
Ge1 O51 1.815505 1_555
Ge1 O52 1.851011 1_555
Ge1 O16 2.292884 1_555
Ge1 O53 2.362185 1_555
Ge2 O19 1.824086 1_556
Ge2 O18 1.861595 1_556
Ge2 O55 1.911138 1_555
Ge2 O56 1.950569 1_555
Ge2 O20 1.953465 1_556
Ge2 O54 2.169511 1_555
Ge3 O25 1.808903 1_554
Ge3 O26 1.818101 1_554
Ge3 O61 1.841897 1_555
Ge3 O60 1.904465 1_555
Ge3 O24 2.245773 1_554
Ge3 O62 2.278036 1_555
Ge4 O29 1.772579 1_555
Ge4 O27 1.793930 1_555
Ge4 O63 1.807128 1_555
Ge4 O64 1.844134 1_555
Ge4 O28 2.322342 1_555
Ge4 O65 2.328276 1_555
Ge5 O69 1.874591 1_555
Ge5 O33 1.877445 1_555
Ge5 O34 1.882597 1_555
Ge5 O71 1.907221 1_555
Ge5 O35 1.970055 1_555
Ge5 O70 2.096176 1_555
O0 S0 1.471136 1_555
O0 Zr0 2.252136 1_445
O1 Si0 1.653750 1_555
O1 Zr0 2.033621 1_555
O2 Si1 1.642362 1_555
O2 Zr0 2.018606 1_545
O3 Si2 1.660127 1_555
O4 S1 1.465763 1_655
O5 Si3 1.652480 1_545
O6 Si3 1.640520 1_555
O6 Zr1 2.058060 1_565
O7 Si2 1.628879 1_555
O7 Zr1 2.033207 1_455
O8 S1 1.488496 1_555
O8 Zr1 2.116486 1_465
O9 Si0 1.622898 1_555
O9 Zr2 2.005762 1_655
O10 Si1 1.625111 1_455
O10 Zr2 2.051857 1_545
O11 S0 1.474750 1_565
O11 Zr2 2.109960 1_555
O12 S2 1.466681 1_555
O12 Zr3 2.260012 1_555
O13 Si4 1.651349 1_555
O13 Zr3 2.024582 1_555
O14 Si5 1.641351 1_555
O14 Zr3 2.011828 1_555
O15 Si6 1.662962 1_555
O16 S3 1.463297 1_555
O17 Si7 1.659036 1_555
O18 Si7 1.643129 1_555
O19 Si6 1.617407 1_555
O20 S3 1.497472 1_555
O21 Si4 1.620647 1_555
O21 Zr4 2.019065 1_555
O22 Si5 1.622756 1_555
O22 Zr4 2.059661 1_555
O23 S2 1.474021 1_555
O23 Zr4 2.104943 1_555
O24 S4 1.468323 1_555
O25 Si8 1.656839 1_555
O26 Si9 1.649844 1_555
O27 Si10 1.657223 1_555
O28 S5 1.453862 1_555
O29 Si11 1.656412 1_555
O30 Si11 1.629692 1_555
O30 Zr5 2.036205 1_555
O31 Si10 1.615875 1_555
O31 Zr5 1.998638 1_555
O32 S5 1.477736 1_555
O32 Zr5 2.099543 1_555
O33 Si8 1.634632 1_555
O34 Si9 1.645383 1_555
O35 S4 1.515430 1_555
O36 Si11 1.643554 1_555
O36 Zr0 2.126795 1_455
O37 Si10 1.648913 1_555
O37 Zr0 2.041471 1_555
O38 S5 1.464412 1_555
O38 Zr0 2.238218 1_445
O39 Si8 1.684320 1_555
O40 Si9 1.709131 1_555
O41 S4 1.463984 1_555
O42 S2 1.518976 1_555
O42 Zr1 2.185033 1_555
O43 Si4 1.607479 1_555
O43 Zr1 2.077113 1_455
O44 Si5 1.641327 1_555
O44 Zr1 2.121520 1_565
O45 Si6 1.623214 1_555
O45 Zr2 2.094445 1_655
O46 S3 1.525708 1_555
O46 Zr2 2.182294 1_645
O47 Si7 1.651393 1_555
O47 Zr2 2.141295 1_545
O48 Si3 1.653142 1_545
O48 Zr3 2.155057 1_555
O49 Si2 1.655357 1_555
O49 Zr3 2.043036 1_555
O50 S1 1.473310 1_655
O50 Zr3 2.243587 1_555
O51 Si0 1.658677 1_555
O52 Si1 1.667184 1_555
O53 S0 1.456648 1_555
O54 S4 1.527828 1_555
O55 Si8 1.648239 1_655
O56 Si9 1.682843 1_545
O57 Si10 1.608875 1_545
O57 Zr4 2.064114 1_555
O58 S5 1.515553 1_555
O58 Zr4 2.174211 1_555
O59 Si11 1.640586 1_655
O59 Zr4 2.084862 1_555
O60 Si7 1.694495 1_555
O61 Si6 1.674036 1_455
O62 S3 1.468522 1_565
O63 Si4 1.657304 1_565
O64 Si5 1.667701 1_555
O65 S2 1.455200 1_455
O66 S0 1.514037 1_565
O66 Zr5 2.184934 1_555
O67 Si0 1.605476 1_555
O67 Zr5 2.075393 1_555
O68 Si1 1.640403 1_455
O68 Zr5 2.112514 1_555
O69 Si2 1.628260 1_555
O70 S1 1.509236 1_555
O71 Si3 1.663684 1_555
