# generated using pymatgen
data_Na3Al2(PO4)3
_symmetry_space_group_name_H-M   'P 1'
_cell_length_a   8.57334037
_cell_length_b   8.57334104
_cell_length_c   21.49018447
_cell_angle_alpha   90.02368036
_cell_angle_beta   89.97630560
_cell_angle_gamma   120.05663708
_symmetry_Int_Tables_number   1
_chemical_formula_structural   Na3Al2(PO4)3
_chemical_formula_sum   'Na18 Al12 P18 O72'
_cell_volume   1367.17072795
_cell_formula_units_Z   6
loop_
 _symmetry_equiv_pos_site_id
 _symmetry_equiv_pos_as_xyz
  1  'x, y, z'
loop_
 _atom_site_type_symbol
 _atom_site_label
 _atom_site_symmetry_multiplicity
 _atom_site_fract_x
 _atom_site_fract_y
 _atom_site_fract_z
 _atom_site_occupancy
  Na  Na0  1  0.00028196  0.99983741  0.50000803  1
  Na  Na1  1  0.00016321  0.99971840  0.00000799  1
  Na  Na2  1  0.65139447  0.32483536  0.83332800  1
  Na  Na3  1  0.67516407  0.34860584  0.33332796  1
  Na  Na4  1  0.33374100  0.66652199  0.16664923  1
  Na  Na5  1  0.33347795  0.66625893  0.66664922  1
  Na  Na6  1  0.63484893  0.99820093  0.24986764  1
  Na  Na7  1  0.36594792  0.36456756  0.24994170  1
  Na  Na8  1  0.63543222  0.63405127  0.74994177  1
  Na  Na9  1  0.00179867  0.36515079  0.74986766  1
  Na  Na10  1  0.03033771  0.69879246  0.58329696  1
  Na  Na11  1  0.66485376  0.96756484  0.58324380  1
  Na  Na12  1  0.30120777  0.96966236  0.08329714  1
  Na  Na13  1  0.03243591  0.33514606  0.08324395  1
  Na  Na14  1  0.96745191  0.66513880  0.91708305  1
  Na  Na15  1  0.69789952  0.02976830  0.91660632  1
  Na  Na16  1  0.97023145  0.30210052  0.41660621  1
  Na  Na17  1  0.33486083  0.03254800  0.41708309  1
  Al  Al0  1  0.99436853  0.99250745  0.35221334  1
  Al  Al1  1  0.00749260  0.00563142  0.85221335  1
  Al  Al2  1  0.00646210  0.00590614  0.64784197  1
  Al  Al3  1  0.99409380  0.99353786  0.14784195  1
  Al  Al4  1  0.66014318  0.32830400  0.68549696  1
  Al  Al5  1  0.67169601  0.33985692  0.18549698  1
  Al  Al6  1  0.66117165  0.33414935  0.98120104  1
  Al  Al7  1  0.66585067  0.33882826  0.48120103  1
  Al  Al8  1  0.33866408  0.66671615  0.01878671  1
  Al  Al9  1  0.33328390  0.66133602  0.51878673  1
  Al  Al10  1  0.32851259  0.66493216  0.31458306  1
  Al  Al11  1  0.33506795  0.67148758  0.81458301  1
  P  P0  1  0.28553271  0.99548238  0.24999755  1
  P  P1  1  0.71462048  0.71062450  0.25015531  1
  P  P2  1  0.99991381  0.29153008  0.24993694  1
  P  P3  1  0.28937550  0.28537946  0.75015527  1
  P  P4  1  0.00451778  0.71446738  0.74999752  1
  P  P5  1  0.70846997  0.00008633  0.74993697  1
  P  P6  1  0.95828260  0.33340505  0.58331175  1
  P  P7  1  0.37666387  0.04746568  0.58267380  1
  P  P8  1  0.66233904  0.61941257  0.58386939  1
  P  P9  1  0.95253428  0.62333626  0.08267377  1
  P  P10  1  0.66659518  0.04171742  0.08331176  1
  P  P11  1  0.38058765  0.33766103  0.08386934  1
  P  P12  1  0.61902897  0.66262277  0.91610889  1
  P  P13  1  0.04748055  0.37634055  0.91682960  1
  P  P14  1  0.33340112  0.95805252  0.91713136  1
  P  P15  1  0.62365957  0.95251946  0.41682950  1
  P  P16  1  0.33737735  0.38097110  0.41610886  1
  P  P17  1  0.04194748  0.66659879  0.41713141  1
  O  O0  1  0.20504065  0.03649730  0.30789373  1
  O  O1  1  0.83023524  0.79583504  0.30775104  1
  O  O2  1  0.96244458  0.17030814  0.30799871  1
  O  O3  1  0.20416507  0.16976474  0.80775112  1
  O  O4  1  0.96350290  0.79495939  0.80789378  1
  O  O5  1  0.82969195  0.03755536  0.80799879  1
  O  O6  1  0.79242815  0.96235852  0.69193268  1
  O  O7  1  0.16591365  0.20488804  0.69317773  1
  O  O8  1  0.03277220  0.82788843  0.69127192  1
  O  O9  1  0.79511207  0.83408644  0.19317758  1
  O  O10  1  0.03764138  0.20757227  0.19193283  1
  O  O11  1  0.17211176  0.96722781  0.19127195  1
  O  O12  1  0.87417930  0.37126173  0.64145938  1
  O  O13  1  0.50208038  0.13060263  0.63917924  1
  O  O14  1  0.63355576  0.50673548  0.64306385  1
  O  O15  1  0.86939770  0.49791980  0.13917929  1
  O  O16  1  0.62873833  0.12582066  0.14145936  1
  O  O17  1  0.49326435  0.36644432  0.14306368  1
  O  O18  1  0.46359702  0.29525733  0.02751016  1
  O  O19  1  0.83989616  0.53957709  0.02355200  1
  O  O20  1  0.70470667  0.16371600  0.02530166  1
  O  O21  1  0.46042300  0.16010390  0.52355202  1
  O  O22  1  0.70474274  0.53640280  0.52751012  1
  O  O23  1  0.83628407  0.29529348  0.52530162  1
  O  O24  1  0.53637289  0.70488848  0.97248192  1
  O  O25  1  0.16115301  0.46203370  0.97542260  1
  O  O26  1  0.29482548  0.83750252  0.97563653  1
  O  O27  1  0.53796575  0.83884631  0.47542280  1
  O  O28  1  0.29511170  0.46362702  0.47248196  1
  O  O29  1  0.16249731  0.70517447  0.47563654  1
  O  O30  1  0.12849285  0.62769889  0.36061919  1
  O  O31  1  0.50205870  0.87151078  0.35875592  1
  O  O32  1  0.36702827  0.49375024  0.35692705  1
  O  O33  1  0.12848894  0.49794110  0.85875601  1
  O  O34  1  0.37230109  0.87150723  0.86061922  1
  O  O35  1  0.50625003  0.63297160  0.85692698  1
  O  O36  1  0.02813121  0.83842530  0.40936400  1
  O  O37  1  0.81520506  0.97959209  0.40981511  1
  O  O38  1  0.16576880  0.18877240  0.40949286  1
  O  O39  1  0.02040807  0.18479530  0.90981505  1
  O  O40  1  0.16157466  0.97186894  0.90936402  1
  O  O41  1  0.81122743  0.83423094  0.90949294  1
  O  O42  1  0.97204083  0.16121033  0.59075305  1
  O  O43  1  0.18565903  0.02121433  0.59028297  1
  O  O44  1  0.83404029  0.81163091  0.59028542  1
  O  O45  1  0.97878559  0.81434089  0.09028303  1
  O  O46  1  0.83878942  0.02795910  0.09075309  1
  O  O47  1  0.18836916  0.16595982  0.09028537  1
  O  O48  1  0.69441832  0.17242490  0.74243697  1
  O  O49  1  0.48119547  0.31217607  0.74269963  1
  O  O50  1  0.83295388  0.52230961  0.74347977  1
  O  O51  1  0.68782407  0.51880454  0.24269967  1
  O  O52  1  0.82757533  0.30558182  0.24243697  1
  O  O53  1  0.47769024  0.16704581  0.24347981  1
  O  O54  1  0.64511264  0.49750803  0.92361203  1
  O  O55  1  0.85558339  0.35598578  0.92319253  1
  O  O56  1  0.50583380  0.14472863  0.92447549  1
  O  O57  1  0.64401436  0.14441692  0.42319260  1
  O  O58  1  0.50249238  0.35488735  0.42361205  1
  O  O59  1  0.85527133  0.49416598  0.42447545  1
  O  O60  1  0.35466233  0.50248595  0.07628844  1
  O  O61  1  0.14456376  0.64400699  0.07646444  1
  O  O62  1  0.49453814  0.85571527  0.07589678  1
  O  O63  1  0.35599299  0.85543613  0.57646445  1
  O  O64  1  0.49751375  0.64533757  0.57628843  1
  O  O65  1  0.14428483  0.50546202  0.57589680  1
  O  O66  1  0.31214550  0.83042303  0.25723091  1
  O  O67  1  0.52240068  0.68985672  0.25699312  1
  O  O68  1  0.17189534  0.47811710  0.25713845  1
  O  O69  1  0.31014362  0.47759970  0.75699310  1
  O  O70  1  0.16957692  0.68785455  0.75723090  1
  O  O71  1  0.52188203  0.82810374  0.75713850  1
loop_
_geom_bond_atom_site_label_1
_geom_bond_atom_site_label_2
_geom_bond_distance
_geom_bond_site_symmetry_2
Na0 O37 2.455825 1_455
Na0 O43 2.456348 1_565
Na0 O36 2.468789 1_555
Na0 O44 2.468896 1_455
Na0 O42 2.471565 1_465
Na0 O38 2.473599 1_565
Na1 O39 2.455826 1_564
Na1 O45 2.456350 1_455
Na1 O40 2.468785 1_554
Na1 O47 2.468894 1_565
Na1 O46 2.471569 1_465
Na1 O41 2.473602 1_454
Na2 O49 2.403691 1_555
Na2 O56 2.418403 1_555
Na2 O54 2.456886 1_555
Na2 O48 2.477655 1_555
Na2 O50 2.525435 1_555
Na2 O55 2.529716 1_555
Na3 O51 2.403686 1_555
Na3 O59 2.418404 1_555
Na3 O58 2.456881 1_555
Na3 O52 2.477659 1_555
Na3 O53 2.525434 1_555
Na3 O57 2.529719 1_555
Na4 O60 2.455799 1_555
Na4 O66 2.460930 1_555
Na4 O68 2.463986 1_555
Na4 O62 2.468910 1_555
Na4 O67 2.470574 1_555
Na4 O61 2.472373 1_555
Na5 O64 2.455798 1_555
Na5 O70 2.460930 1_555
Na5 O71 2.463984 1_555
Na5 O65 2.468909 1_555
Na5 O69 2.470572 1_555
Na5 O63 2.472372 1_555
Na6 O52 2.310565 1_565
Na6 O67 2.321311 1_555
Na6 O66 2.400383 1_555
Na6 O53 2.425650 1_565
Na6 O16 2.585933 1_565
Na6 O31 2.590906 1_555
Na6 O9 2.699158 1_555
Na6 O2 2.734247 1_565
Na7 O68 2.315485 1_555
Na7 O53 2.330131 1_555
Na7 O51 2.394252 1_555
Na7 O67 2.419156 1_555
Na7 O17 2.539188 1_555
Na7 O32 2.549580 1_555
Na7 O0 2.734933 1_555
Na7 O10 2.737644 1_555
Na8 O71 2.315489 1_555
Na8 O50 2.330126 1_555
Na8 O49 2.394246 1_555
Na8 O69 2.419151 1_555
Na8 O14 2.539184 1_555
Na8 O35 2.549577 1_555
Na8 O4 2.734936 1_555
Na8 O6 2.737650 1_555
Na9 O48 2.310560 1_455
Na9 O69 2.321316 1_555
Na9 O70 2.400386 1_555
Na9 O50 2.425650 1_455
Na9 O12 2.585933 1_455
Na9 O33 2.590909 1_555
Na9 O7 2.699158 1_555
Na9 O5 2.734246 1_455
Na10 O65 2.312692 1_555
Na10 O44 2.328343 1_455
Na10 O43 2.397780 1_565
Na10 O63 2.421576 1_555
Na10 O29 2.564287 1_555
Na10 O8 2.566018 1_555
Na10 O22 2.697429 1_455
Na10 O12 2.734122 1_455
Na11 O42 2.310532 1_565
Na11 O63 2.325382 1_555
Na11 O64 2.396261 1_555
Na11 O44 2.420095 1_555
Na11 O27 2.562730 1_555
Na11 O6 2.589413 1_555
Na11 O13 2.701365 1_565
Na11 O23 2.733120 1_565
Na12 O62 2.312691 1_555
Na12 O47 2.328344 1_565
Na12 O45 2.397782 1_455
Na12 O61 2.421577 1_555
Na12 O26 2.564292 1_554
Na12 O11 2.566015 1_555
Na12 O18 2.697430 1_565
Na12 O16 2.734119 1_565
Na13 O46 2.310533 1_455
Na13 O61 2.325385 1_555
Na13 O60 2.396254 1_555
Na13 O47 2.420088 1_555
Na13 O25 2.562732 1_554
Na13 O10 2.589409 1_555
Na13 O15 2.701369 1_455
Na13 O20 2.733125 1_455
Na14 O40 2.308411 1_655
Na14 O55 2.327208 1_555
Na14 O54 2.396581 1_555
Na14 O41 2.422282 1_555
Na14 O19 2.531912 1_556
Na14 O4 2.604981 1_555
Na14 O26 2.737026 1_655
Na14 O33 2.740723 1_655
Na15 O56 2.310144 1_555
Na15 O41 2.325719 1_545
Na15 O39 2.398229 1_655
Na15 O55 2.425286 1_555
Na15 O5 2.578964 1_555
Na15 O20 2.590230 1_556
Na15 O24 2.693540 1_545
Na15 O34 2.699685 1_545
Na16 O59 2.310141 1_555
Na16 O38 2.325720 1_655
Na16 O37 2.398229 1_545
Na16 O57 2.425283 1_555
Na16 O2 2.578964 1_555
Na16 O23 2.590230 1_555
Na16 O28 2.693545 1_655
Na16 O30 2.699683 1_655
Na17 O36 2.308407 1_545
Na17 O57 2.327211 1_555
Na17 O58 2.396582 1_555
Na17 O38 2.422280 1_555
Na17 O21 2.531913 1_555
Na17 O0 2.604982 1_555
Na17 O29 2.737025 1_545
Na17 O31 2.740727 1_545
Al0 O1 1.832816 1_555
Al0 O0 1.904765 1_665
Al0 O2 1.928915 1_565
Al0 O36 1.929225 1_655
Al0 O37 1.931876 1_555
Al0 O38 2.007194 1_665
Al1 O3 1.832815 1_555
Al1 O4 1.904765 1_445
Al1 O5 1.928914 1_455
Al1 O40 1.929224 1_545
Al1 O39 1.931878 1_555
Al1 O41 2.007196 1_445
Al2 O7 1.841705 1_555
Al2 O8 1.896699 1_545
Al2 O43 1.924613 1_555
Al2 O6 1.927938 1_445
Al2 O42 1.939156 1_455
Al2 O44 2.005678 1_445
Al3 O9 1.841702 1_555
Al3 O11 1.896702 1_655
Al3 O45 1.924612 1_555
Al3 O10 1.927943 1_665
Al3 O46 1.939157 1_565
Al3 O47 2.005679 1_665
Al4 O13 1.843621 1_555
Al4 O14 1.890576 1_555
Al4 O49 1.915745 1_555
Al4 O12 1.928830 1_555
Al4 O48 1.940277 1_555
Al4 O50 2.011352 1_555
Al5 O15 1.843622 1_555
Al5 O17 1.890579 1_555
Al5 O51 1.915745 1_555
Al5 O16 1.928832 1_555
Al5 O52 1.940278 1_555
Al5 O53 2.011353 1_555
Al6 O18 1.844970 1_556
Al6 O19 1.890658 1_556
Al6 O54 1.925309 1_555
Al6 O20 1.928808 1_556
Al6 O56 1.931371 1_555
Al6 O55 2.013226 1_555
Al7 O22 1.844969 1_555
Al7 O21 1.890657 1_555
Al7 O58 1.925307 1_555
Al7 O23 1.928807 1_555
Al7 O59 1.931371 1_555
Al7 O57 2.013223 1_555
Al8 O24 1.847603 1_554
Al8 O25 1.894345 1_554
Al8 O26 1.922948 1_554
Al8 O60 1.929591 1_555
Al8 O62 1.936057 1_555
Al8 O61 2.004350 1_555
Al9 O28 1.847605 1_555
Al9 O27 1.894337 1_555
Al9 O29 1.922949 1_555
Al9 O64 1.929589 1_555
Al9 O65 1.936056 1_555
Al9 O63 2.004349 1_555
Al10 O30 1.863290 1_555
Al10 O32 1.891494 1_555
Al10 O31 1.900455 1_555
Al10 O68 1.933293 1_555
Al10 O66 1.937216 1_555
Al10 O67 1.995796 1_555
Al11 O34 1.863291 1_555
Al11 O35 1.891496 1_555
Al11 O33 1.900459 1_555
Al11 O71 1.933284 1_555
Al11 O70 1.937216 1_555
Al11 O69 1.995795 1_555
O0 P0 1.545930 1_545
O1 P1 1.524170 1_555
O2 P2 1.551291 1_555
O3 P3 1.524172 1_555
O4 P4 1.545931 1_655
O5 P5 1.551293 1_555
O6 P5 1.551999 1_565
O7 P3 1.537718 1_555
O8 P4 1.536798 1_555
O9 P1 1.537721 1_555
O10 P2 1.551994 1_455
O11 P0 1.536798 1_555
O12 P6 1.555666 1_555
O13 P7 1.539930 1_555
O14 P8 1.540873 1_555
O15 P9 1.539931 1_555
O16 P10 1.555666 1_555
O17 P11 1.540870 1_555
O18 P11 1.537417 1_555
O19 P9 1.538861 1_555
O20 P10 1.553472 1_555
O21 P7 1.538862 1_555
O22 P8 1.537420 1_555
O23 P6 1.553473 1_555
O24 P12 1.535341 1_555
O25 P13 1.535600 1_555
O26 P14 1.554555 1_555
O27 P15 1.535608 1_555
O28 P16 1.535341 1_555
O29 P17 1.554554 1_555
O30 P17 1.543848 1_555
O31 P15 1.549779 1_555
O32 P16 1.539996 1_555
O33 P13 1.549777 1_555
O34 P14 1.543847 1_555
O35 P12 1.539997 1_555
O36 P17 1.544995 1_555
O37 P15 1.546409 1_555
O38 P16 1.572108 1_555
O39 P13 1.546408 1_555
O40 P14 1.544995 1_555
O41 P12 1.572105 1_555
O42 P6 1.547108 1_555
O43 P7 1.545830 1_555
O44 P8 1.572150 1_555
O45 P9 1.545828 1_555
O46 P10 1.547104 1_555
O47 P11 1.572150 1_555
O48 P5 1.549859 1_555
O49 P3 1.550584 1_555
O50 P4 1.571558 1_655
O51 P1 1.550585 1_555
O52 P2 1.549858 1_555
O53 P0 1.571555 1_545
O54 P12 1.548292 1_555
O55 P13 1.571011 1_655
O56 P14 1.549749 1_545
O57 P15 1.571014 1_545
O58 P16 1.548295 1_555
O59 P17 1.549749 1_655
O60 P11 1.545199 1_555
O61 P9 1.570735 1_455
O62 P10 1.545294 1_565
O63 P7 1.570735 1_565
O64 P8 1.545200 1_555
O65 P6 1.545294 1_455
O66 P0 1.549966 1_555
O67 P1 1.573209 1_555
O68 P2 1.547329 1_455
O69 P3 1.573212 1_555
O70 P4 1.549964 1_555
O71 P5 1.547337 1_565
