# generated using pymatgen
data_DyGeAu
_symmetry_space_group_name_H-M   'P 1'
_cell_length_a   4.42187874
_cell_length_b   4.42187893
_cell_length_c   7.35354089
_cell_angle_alpha   90.00000000
_cell_angle_beta   90.00000000
_cell_angle_gamma   119.99999109
_symmetry_Int_Tables_number   1
_chemical_formula_structural   DyGeAu
_chemical_formula_sum   'Dy2 Ge2 Au2'
_cell_volume   124.52050084
_cell_formula_units_Z   2
loop_
 _symmetry_equiv_pos_site_id
 _symmetry_equiv_pos_as_xyz
  1  'x, y, z'
loop_
 _atom_site_type_symbol
 _atom_site_label
 _atom_site_symmetry_multiplicity
 _atom_site_fract_x
 _atom_site_fract_y
 _atom_site_fract_z
 _atom_site_occupancy
  Dy  Dy0  1  0.00000000  -0.00000000  0.84365315  1
  Dy  Dy1  1  0.00000000  -0.00000000  0.34365315  1
  Ge  Ge0  1  0.66666700  0.33333300  0.05091743  1
  Ge  Ge1  1  0.33333300  0.66666700  0.55091743  1
  Au  Au0  1  0.66666700  0.33333300  0.63142943  1
  Au  Au1  1  0.33333300  0.66666700  0.13142943  1
loop_
_geom_bond_atom_site_label_1
_geom_bond_atom_site_label_2
_geom_bond_distance
_geom_bond_site_symmetry_2
Dy0 Ge0 2.973318 1_456
Dy0 Ge0 2.973321 1_556
Dy0 Ge0 2.973321 1_446
Dy0 Ge1 3.339391 1_545
Dy0 Ge1 3.339394 1_445
Dy0 Ge1 3.339394 1_555
Dy1 Ge1 2.973318 1_545
Dy1 Ge1 2.973321 1_445
Dy1 Ge1 2.973321 1_555
Dy1 Ge0 3.339391 1_455
Dy1 Ge0 3.339394 1_555
Dy1 Ge0 3.339394 1_445
Au0 Ge1 2.620721 1_655
Au0 Ge1 2.620721 1_545
Au0 Ge1 2.620728 1_555
Au0 Dy0 2.992176 1_655
Au0 Dy0 2.992179 1_555
Au0 Dy0 2.992179 1_665
Au0 Ge0 3.084722 1_556
Au0 Dy1 3.315999 1_655
Au0 Dy1 3.316003 1_555
Au0 Dy1 3.316003 1_665
Au1 Ge0 2.620721 1_455
Au1 Ge0 2.620721 1_565
Au1 Ge0 2.620728 1_555
Au1 Dy1 2.992176 1_565
Au1 Dy1 2.992179 1_665
Au1 Dy1 2.992179 1_555
Au1 Ge1 3.084722 1_555
Au1 Dy0 3.315999 1_564
Au1 Dy0 3.316003 1_664
Au1 Dy0 3.316003 1_554
