# generated using pymatgen
data_MgTe2Mo2W2(Se2S)2
_symmetry_space_group_name_H-M   'P 1'
_cell_length_a   3.33539700
_cell_length_b   3.33538813
_cell_length_c   45.60961001
_cell_angle_alpha   90.00209720
_cell_angle_beta   90.00000000
_cell_angle_gamma   120.00009791
_symmetry_Int_Tables_number   1
_chemical_formula_structural   MgTe2Mo2W2(Se2S)2
_chemical_formula_sum   'Mg1 Te2 Mo2 W2 Se4 S2'
_cell_volume   439.42066200
_cell_formula_units_Z   1
loop_
 _symmetry_equiv_pos_site_id
 _symmetry_equiv_pos_as_xyz
  1  'x, y, z'
loop_
 _atom_site_type_symbol
 _atom_site_label
 _atom_site_symmetry_multiplicity
 _atom_site_fract_x
 _atom_site_fract_y
 _atom_site_fract_z
 _atom_site_occupancy
  Mg  Mg0  1  0.00000600  0.00001300  0.38146600  1
  Te  Te0  1  0.33331700  0.66663400  0.69949000  1
  Te  Te1  1  0.33329600  0.66659400  0.61618100  1
  Mo  Mo0  1  0.33336000  0.66672100  0.09381600  1
  Mo  Mo1  1  0.66664100  0.33328200  0.65785500  1
  W  W0  1  0.33333300  0.66666400  0.47667300  1
  W  W1  1  0.66666600  0.33333000  0.27422200  1
  Se  Se0  1  0.33334300  0.66668700  0.31125200  1
  Se  Se1  1  0.66668000  0.33335800  0.05721400  1
  Se  Se2  1  0.66671000  0.33342000  0.13043200  1
  Se  Se3  1  0.33331700  0.66663500  0.23746600  1
  S  S0  1  0.66665500  0.33330800  0.44299800  1
  S  S1  1  0.66667700  0.33335400  0.50989000  1
loop_
_geom_bond_atom_site_label_1
_geom_bond_atom_site_label_2
_geom_bond_distance
_geom_bond_site_symmetry_2
Mo0 Se1 2.548551 1_565
Mo0 Se1 2.548569 1_455
Mo0 Se1 2.548575 1_555
Mo0 Se2 2.548975 1_455
Mo0 Se2 2.548977 1_555
Mo0 Se2 2.548998 1_565
Mo1 Te0 2.704490 1_655
Mo1 Te0 2.704490 1_555
Mo1 Te0 2.704515 1_545
Mo1 Te1 2.705732 1_545
Mo1 Te1 2.705753 1_655
Mo1 Te1 2.705758 1_555
Se0 W1 2.561391 1_455
Se0 W1 2.561394 1_565
Se0 W1 2.561398 1_555
Se3 W1 2.553165 1_455
Se3 W1 2.553172 1_555
Se3 W1 2.553177 1_565
S0 W0 2.463181 1_545
S0 W0 2.463186 1_655
S0 W0 2.463186 1_555
S1 W0 2.450211 1_555
S1 W0 2.450213 1_545
S1 W0 2.450216 1_655
