# generated using pymatgen
data_TeCF3
_symmetry_space_group_name_H-M   'P 1'
_cell_length_a   11.79486300
_cell_length_b   7.03460800
_cell_length_c   10.44832753
_cell_angle_alpha   79.14750964
_cell_angle_beta   90.00000000
_cell_angle_gamma   90.00000000
_symmetry_Int_Tables_number   1
_chemical_formula_structural   TeCF3
_chemical_formula_sum   'Te8 C8 F24'
_cell_volume   851.41638041
_cell_formula_units_Z   8
loop_
 _symmetry_equiv_pos_site_id
 _symmetry_equiv_pos_as_xyz
  1  'x, y, z'
loop_
 _atom_site_type_symbol
 _atom_site_label
 _atom_site_symmetry_multiplicity
 _atom_site_fract_x
 _atom_site_fract_y
 _atom_site_fract_z
 _atom_site_occupancy
  Te  Te0  1  0.09691900  0.99405000  0.80024600  1
  Te  Te1  1  0.59691900  0.00595000  0.69975400  1
  Te  Te2  1  0.90308100  0.00595000  0.19975400  1
  Te  Te3  1  0.40308100  0.99405000  0.30024600  1
  Te  Te4  1  0.14362400  0.74771600  0.02413800  1
  Te  Te5  1  0.64362400  0.25228400  0.47586200  1
  Te  Te6  1  0.85637600  0.25228400  0.97586200  1
  Te  Te7  1  0.35637600  0.74771600  0.52413800  1
  C  C0  1  0.22278700  0.57622100  0.44549700  1
  C  C1  1  0.96730800  0.80986300  0.72869200  1
  C  C2  1  0.46730800  0.19013700  0.77130800  1
  C  C3  1  0.03269200  0.19013700  0.27130800  1
  C  C4  1  0.53269200  0.80986300  0.22869200  1
  C  C5  1  0.27721300  0.57622100  0.94549700  1
  C  C6  1  0.77721300  0.42377900  0.55450300  1
  C  C7  1  0.72278700  0.42377900  0.05450300  1
  F  F0  1  0.87725700  0.77107300  0.81126900  1
  F  F1  1  0.57296800  0.90425800  0.11158000  1
  F  F2  1  0.07296800  0.09574200  0.38842000  1
  F  F3  1  0.42703200  0.09574200  0.88842000  1
  F  F4  1  0.26315700  0.47706800  0.35458900  1
  F  F5  1  0.76315700  0.52293200  0.14541100  1
  F  F6  1  0.73684300  0.52293200  0.64541100  1
  F  F7  1  0.23684300  0.47706800  0.85458900  1
  F  F8  1  0.18092500  0.44336400  0.54653800  1
  F  F9  1  0.68092500  0.55663600  0.95346200  1
  F  F10  1  0.81907500  0.55663600  0.45346200  1
  F  F11  1  0.31907500  0.44336400  0.04653800  1
  F  F12  1  0.13400800  0.68485900  0.38935800  1
  F  F13  1  0.63400800  0.31514100  0.11064200  1
  F  F14  1  0.86599200  0.31514100  0.61064200  1
  F  F15  1  0.36599200  0.68485900  0.88935800  1
  F  F16  1  0.92703200  0.90425800  0.61158000  1
  F  F17  1  0.62274300  0.77107300  0.31126900  1
  F  F18  1  0.12274300  0.22892700  0.18873100  1
  F  F19  1  0.37725700  0.22892700  0.68873100  1
  F  F20  1  0.49030300  0.63698100  0.21117500  1
  F  F21  1  0.99030300  0.36301900  0.28882500  1
  F  F22  1  0.50969700  0.36301900  0.78882500  1
  F  F23  1  0.00969700  0.63698100  0.71117500  1
loop_
_geom_bond_atom_site_label_1
_geom_bond_atom_site_label_2
_geom_bond_distance
_geom_bond_site_symmetry_2
C0 F12 1.362273 1_555
C0 F8 1.363910 1_555
C0 F4 1.365615 1_555
C0 Te7 2.233053 1_555
C1 F23 1.358796 1_655
C1 F16 1.363048 1_555
C1 F0 1.363214 1_555
C1 Te0 2.222511 1_655
C2 F22 1.358796 1_555
C2 F3 1.363048 1_555
C2 F19 1.363214 1_555
C2 Te1 2.222511 1_555
C3 F21 1.358796 1_455
C3 F2 1.363048 1_555
C3 F18 1.363214 1_555
C3 Te2 2.222511 1_455
C4 F20 1.358796 1_555
C4 F1 1.363048 1_555
C4 F17 1.363214 1_555
C4 Te3 2.222511 1_555
C5 F15 1.362273 1_555
C5 F11 1.363910 1_556
C5 F7 1.365615 1_555
C5 Te4 2.233053 1_556
C6 F14 1.362273 1_555
C6 F10 1.363910 1_555
C6 F6 1.365615 1_555
C6 Te5 2.233053 1_555
C7 F13 1.362273 1_555
C7 F9 1.363910 1_554
C7 F5 1.365615 1_555
C7 Te6 2.233053 1_554
