# generated using pymatgen
data_Na3Al2(PO4)3
_symmetry_space_group_name_H-M   'P 1'
_cell_length_a   14.91064250
_cell_length_b   8.57341791
_cell_length_c   8.64476142
_cell_angle_alpha   90.00000000
_cell_angle_beta   124.53860899
_cell_angle_gamma   90.00000000
_symmetry_Int_Tables_number   1
_chemical_formula_structural   Na3Al2(PO4)3
_chemical_formula_sum   'Na12 Al8 P12 O48'
_cell_volume   910.32359573
_cell_formula_units_Z   4
loop_
 _symmetry_equiv_pos_site_id
 _symmetry_equiv_pos_as_xyz
  1  'x, y, z'
loop_
 _atom_site_type_symbol
 _atom_site_label
 _atom_site_symmetry_multiplicity
 _atom_site_fract_x
 _atom_site_fract_y
 _atom_site_fract_z
 _atom_site_occupancy
  Na  Na0  1  0.24729299  0.76734049  0.99845724  1
  Na  Na1  1  0.74729299  0.73265951  0.49845724  1
  Na  Na2  1  0.74729299  0.26734049  0.99845724  1
  Na  Na3  1  0.24729299  0.23265951  0.49845724  1
  Na  Na4  1  0.50136311  0.10155672  0.74891603  1
  Na  Na5  1  0.50136311  0.89844328  0.24891603  1
  Na  Na6  1  0.00136311  0.60155672  0.74891603  1
  Na  Na7  1  0.00136311  0.39844328  0.24891603  1
  Na  Na8  1  0.81411868  0.93048582  0.21436686  1
  Na  Na9  1  0.81411868  0.06951418  0.71436686  1
  Na  Na10  1  0.31411868  0.43048582  0.21436686  1
  Na  Na11  1  0.31411868  0.56951418  0.71436686  1
  Al  Al0  1  0.10385558  0.75654484  0.55983240  1
  Al  Al1  1  0.89648470  0.74955834  0.93857065  1
  Al  Al2  1  0.89648470  0.25044166  0.43857065  1
  Al  Al3  1  0.10385558  0.24345516  0.05983240  1
  Al  Al4  1  0.60385558  0.25654484  0.55983240  1
  Al  Al5  1  0.39648470  0.24955834  0.93857065  1
  Al  Al6  1  0.39648470  0.75044166  0.43857065  1
  Al  Al7  1  0.60385558  0.74345516  0.05983240  1
  P  P0  1  0.00260117  0.96010305  0.74823835  1
  P  P1  1  0.00260117  0.03989695  0.24823835  1
  P  P2  1  0.50260117  0.46010305  0.74823835  1
  P  P3  1  0.50260117  0.53989695  0.24823835  1
  P  P4  1  0.35544396  0.89494141  0.75300279  1
  P  P5  1  0.64633209  0.89036557  0.74637765  1
  P  P6  1  0.64633209  0.10963443  0.24637765  1
  P  P7  1  0.35544396  0.10505859  0.25300279  1
  P  P8  1  0.85544396  0.39494141  0.75300279  1
  P  P9  1  0.14633209  0.39036557  0.74637765  1
  P  P10  1  0.14633209  0.60963443  0.24637765  1
  P  P11  1  0.85544396  0.60505859  0.25300279  1
  O  O0  1  0.15254481  0.57220476  0.73418731  1
  O  O1  1  0.85221974  0.57446759  0.76637905  1
  O  O2  1  0.85221974  0.42553241  0.26637905  1
  O  O3  1  0.15254481  0.42779524  0.23418731  1
  O  O4  1  0.65254481  0.07220476  0.73418731  1
  O  O5  1  0.35221974  0.07446759  0.76637905  1
  O  O6  1  0.35221974  0.92553241  0.26637905  1
  O  O7  1  0.65254481  0.92779524  0.23418731  1
  O  O8  1  0.42839782  0.55965062  0.56970554  1
  O  O9  1  0.56856876  0.56456626  0.92133791  1
  O  O10  1  0.56856876  0.43543374  0.42133791  1
  O  O11  1  0.42839782  0.44034938  0.06970554  1
  O  O12  1  0.92839782  0.05965062  0.56970554  1
  O  O13  1  0.06856876  0.06456626  0.92133791  1
  O  O14  1  0.06856876  0.93543374  0.42133791  1
  O  O15  1  0.92839782  0.94034938  0.06970554  1
  O  O16  1  0.25590005  0.81767731  0.73388343  1
  O  O17  1  0.74745326  0.82225098  0.76314022  1
  O  O18  1  0.74745326  0.17774902  0.26314022  1
  O  O19  1  0.25590005  0.18232269  0.23388343  1
  O  O20  1  0.75590005  0.31767731  0.73388343  1
  O  O21  1  0.24745326  0.32225098  0.76314022  1
  O  O22  1  0.24745326  0.67774902  0.26314022  1
  O  O23  1  0.75590005  0.68232269  0.23388343  1
  O  O24  1  0.35977041  0.85803284  0.58260374  1
  O  O25  1  0.64498132  0.86129084  0.92213607  1
  O  O26  1  0.64498132  0.13870916  0.42213607  1
  O  O27  1  0.35977041  0.14196716  0.08260374  1
  O  O28  1  0.85977041  0.35803284  0.58260374  1
  O  O29  1  0.14498132  0.36129084  0.92213607  1
  O  O30  1  0.14498132  0.63870916  0.42213607  1
  O  O31  1  0.85977041  0.64196716  0.08260374  1
  O  O32  1  0.45895715  0.82719638  0.93296383  1
  O  O33  1  0.54167496  0.82698498  0.56825117  1
  O  O34  1  0.54167496  0.17301502  0.06825117  1
  O  O35  1  0.45895715  0.17280362  0.43296383  1
  O  O36  1  0.95895715  0.32719638  0.93296383  1
  O  O37  1  0.04167496  0.32698498  0.56825117  1
  O  O38  1  0.04167496  0.67301502  0.06825117  1
  O  O39  1  0.95895715  0.67280362  0.43296383  1
  O  O40  1  0.08036496  0.85024513  0.73562635  1
  O  O41  1  0.92167448  0.85335853  0.76202343  1
  O  O42  1  0.92167448  0.14664147  0.26202343  1
  O  O43  1  0.08036496  0.14975487  0.23562635  1
  O  O44  1  0.58036496  0.35024513  0.73562635  1
  O  O45  1  0.42167448  0.35335853  0.76202343  1
  O  O46  1  0.42167448  0.64664147  0.26202343  1
  O  O47  1  0.58036496  0.64975487  0.23562635  1
loop_
_geom_bond_atom_site_label_1
_geom_bond_atom_site_label_2
_geom_bond_distance
_geom_bond_site_symmetry_2
Na0 O40 2.334559 1_555
Na0 O6 2.354281 1_556
Na0 O16 2.401402 1_555
Na0 O22 2.412320 1_556
Na0 O46 2.511020 1_556
Na0 O0 2.520747 1_555
Na1 O47 2.334559 1_555
Na1 O1 2.354281 1_555
Na1 O23 2.401402 1_555
Na1 O17 2.412320 1_555
Na1 O41 2.511020 1_555
Na1 O7 2.520747 1_555
Na2 O44 2.334559 1_555
Na2 O2 2.354281 1_556
Na2 O20 2.401402 1_555
Na2 O18 2.412320 1_556
Na2 O42 2.511020 1_556
Na2 O4 2.520747 1_555
Na3 O43 2.334559 1_555
Na3 O5 2.354281 1_555
Na3 O19 2.401402 1_555
Na3 O21 2.412320 1_555
Na3 O45 2.511020 1_555
Na3 O3 2.520747 1_555
Na4 O5 2.324392 1_555
Na4 O4 2.342325 1_555
Na4 O44 2.469849 1_555
Na4 O45 2.497553 1_555
Na4 O35 2.504951 1_555
Na4 O34 2.544773 1_556
Na4 O25 2.726748 1_545
Na4 O24 2.727918 1_545
Na5 O6 2.324392 1_555
Na5 O7 2.342325 1_555
Na5 O47 2.469849 1_555
Na5 O46 2.497553 1_555
Na5 O32 2.504951 1_554
Na5 O33 2.544773 1_555
Na5 O26 2.726748 1_565
Na5 O27 2.727918 1_565
Na6 O1 2.324392 1_455
Na6 O0 2.342325 1_555
Na6 O40 2.469849 1_555
Na6 O41 2.497553 1_455
Na6 O39 2.504951 1_455
Na6 O38 2.544773 1_556
Na6 O29 2.726748 1_555
Na6 O28 2.727918 1_455
Na7 O2 2.324392 1_455
Na7 O3 2.342325 1_555
Na7 O43 2.469849 1_555
Na7 O42 2.497553 1_455
Na7 O36 2.504951 1_454
Na7 O37 2.544773 1_555
Na7 O30 2.726748 1_555
Na7 O31 2.727918 1_455
Na8 O42 2.329550 1_565
Na8 O23 2.339830 1_555
Na8 O25 2.422771 1_554
Na8 O18 2.476901 1_565
Na8 O7 2.510392 1_555
Na8 O15 2.625052 1_555
Na8 O12 2.762354 1_565
Na9 O41 2.329550 1_545
Na9 O20 2.339830 1_555
Na9 O26 2.422771 1_555
Na9 O17 2.476901 1_545
Na9 O4 2.510392 1_555
Na9 O12 2.625052 1_555
Na9 O15 2.762354 1_546
Na10 O46 2.329550 1_555
Na10 O19 2.339830 1_555
Na10 O29 2.422771 1_554
Na10 O22 2.476901 1_555
Na10 O3 2.510392 1_555
Na10 O11 2.625052 1_555
Na10 O8 2.762354 1_555
Na11 O45 2.329550 1_555
Na11 O16 2.339830 1_555
Na11 O30 2.422771 1_555
Na11 O21 2.476901 1_555
Na11 O0 2.510392 1_555
Na11 O8 2.625052 1_555
Na11 O11 2.762354 1_556
Al0 O14 1.829796 1_555
Al0 O30 1.908212 1_555
Al0 O40 1.918613 1_555
Al0 O39 1.923356 1_455
Al0 O16 1.952003 1_555
Al0 O0 2.013909 1_555
Al1 O31 1.863817 1_556
Al1 O15 1.890896 1_556
Al1 O38 1.903193 1_656
Al1 O1 1.946985 1_555
Al1 O17 1.950635 1_555
Al1 O41 1.977967 1_555
Al2 O28 1.863817 1_555
Al2 O12 1.890896 1_555
Al2 O37 1.903193 1_655
Al2 O2 1.946985 1_555
Al2 O18 1.950635 1_555
Al2 O42 1.977967 1_555
Al3 O13 1.829796 1_554
Al3 O29 1.908212 1_554
Al3 O43 1.918613 1_555
Al3 O36 1.923356 1_454
Al3 O19 1.952003 1_555
Al3 O3 2.013909 1_555
Al4 O10 1.829796 1_555
Al4 O26 1.908212 1_555
Al4 O44 1.918613 1_555
Al4 O35 1.923356 1_555
Al4 O20 1.952003 1_555
Al4 O4 2.013909 1_555
Al5 O27 1.863817 1_556
Al5 O11 1.890896 1_556
Al5 O34 1.903193 1_556
Al5 O5 1.946985 1_555
Al5 O21 1.950635 1_555
Al5 O45 1.977967 1_555
Al6 O24 1.863817 1_555
Al6 O8 1.890896 1_555
Al6 O33 1.903193 1_555
Al6 O6 1.946985 1_555
Al6 O22 1.950635 1_555
Al6 O46 1.977967 1_555
Al7 O9 1.829796 1_554
Al7 O25 1.908212 1_554
Al7 O47 1.918613 1_555
Al7 O32 1.923356 1_554
Al7 O23 1.952003 1_555
Al7 O7 2.013909 1_555
O0 P9 1.568817 1_555
O1 P8 1.546279 1_555
O2 P11 1.546279 1_555
O3 P10 1.568817 1_555
O4 P5 1.568817 1_545
O5 P4 1.546279 1_545
O6 P7 1.546279 1_565
O7 P6 1.568817 1_565
O8 P2 1.548631 1_555
O9 P2 1.529651 1_555
O10 P3 1.529651 1_555
O11 P3 1.548631 1_555
O12 P0 1.548631 1_645
O13 P0 1.529651 1_545
O14 P1 1.529651 1_565
O15 P1 1.548631 1_665
O16 P4 1.546278 1_555
O17 P5 1.545212 1_555
O18 P6 1.545212 1_555
O19 P7 1.546278 1_555
O20 P8 1.546278 1_555
O21 P9 1.545212 1_555
O22 P10 1.545212 1_555
O23 P11 1.546278 1_555
O24 P4 1.543356 1_555
O25 P5 1.551060 1_555
O26 P6 1.551060 1_555
O27 P7 1.543356 1_555
O28 P8 1.543356 1_555
O29 P9 1.551060 1_555
O30 P10 1.551060 1_555
O31 P11 1.543356 1_555
O32 P4 1.554699 1_555
O33 P5 1.541702 1_555
O34 P6 1.541702 1_555
O35 P7 1.554699 1_555
O36 P8 1.554699 1_555
O37 P9 1.541702 1_555
O38 P10 1.541702 1_555
O39 P11 1.554699 1_555
O40 P0 1.544924 1_555
O41 P0 1.571889 1_655
O42 P1 1.571889 1_655
O43 P1 1.544924 1_555
O44 P2 1.544924 1_555
O45 P2 1.571889 1_555
O46 P3 1.571889 1_555
O47 P3 1.544924 1_555
