# generated using pymatgen
data_Na2Ta4Ga4Si5S7O48
_symmetry_space_group_name_H-M   'P 1'
_cell_length_a   17.47053807
_cell_length_b   8.72501808
_cell_length_c   22.58002004
_cell_angle_alpha   90.22298518
_cell_angle_beta   89.63464575
_cell_angle_gamma   120.02828020
_symmetry_Int_Tables_number   1
_chemical_formula_structural   Na2Ta4Ga4Si5S7O48
_chemical_formula_sum   'Na6 Ta12 Ga12 Si15 S21 O144'
_cell_volume   2979.85250243
_cell_formula_units_Z   3
loop_
 _symmetry_equiv_pos_site_id
 _symmetry_equiv_pos_as_xyz
  1  'x, y, z'
loop_
 _atom_site_type_symbol
 _atom_site_label
 _atom_site_symmetry_multiplicity
 _atom_site_fract_x
 _atom_site_fract_y
 _atom_site_fract_z
 _atom_site_occupancy
  Na  Na0  1  0.00037969  0.99375754  0.49765368  1
  Na  Na1  1  0.49697335  0.00284196  0.99576471  1
  Na  Na2  1  0.33267354  0.32629419  0.84163159  1
  Na  Na3  1  0.83265601  0.33867840  0.83866573  1
  Na  Na4  1  0.32981254  0.32382695  0.33595368  1
  Na  Na5  1  0.83812202  0.33873887  0.33832226  1
  Ta  Ta0  1  0.50163916  0.01054858  0.35344242  1
  Ta  Ta1  1  0.00613729  0.99234352  0.85674004  1
  Ta  Ta2  1  0.50557686  0.01160176  0.63949307  1
  Ta  Ta3  1  0.00718768  0.00299052  0.13872615  1
  Ta  Ta4  1  0.33408121  0.34540585  0.68964147  1
  Ta  Ta5  1  0.82982066  0.32921384  0.69259376  1
  Ta  Ta6  1  0.33151172  0.32940764  0.18999319  1
  Ta  Ta7  1  0.83311771  0.32363996  0.18792319  1
  Ta  Ta8  1  0.16505588  0.66935404  0.02409535  1
  Ta  Ta9  1  0.66353238  0.66136580  0.02247742  1
  Ta  Ta10  1  0.16392958  0.66681747  0.52267696  1
  Ta  Ta11  1  0.66668241  0.66820315  0.52507999  1
  Ga  Ga0  1  0.00720536  0.98418245  0.35448646  1
  Ga  Ga1  1  0.50361881  0.02546774  0.85544186  1
  Ga  Ga2  1  0.00901500  0.01376843  0.66090062  1
  Ga  Ga3  1  0.50797407  0.00837835  0.15458183  1
  Ga  Ga4  1  0.32589280  0.31756705  0.97179430  1
  Ga  Ga5  1  0.84030861  0.33150854  0.98547858  1
  Ga  Ga6  1  0.33815125  0.34423900  0.48700602  1
  Ga  Ga7  1  0.83770589  0.33575295  0.48059165  1
  Ga  Ga8  1  0.15016556  0.66844416  0.31195011  1
  Ga  Ga9  1  0.66485607  0.66934884  0.30400694  1
  Ga  Ga10  1  0.16385427  0.67468679  0.80589374  1
  Ga  Ga11  1  0.65288092  0.63485999  0.81257169  1
  Si  Si0  1  0.14022129  0.99167868  0.25299594  1
  Si  Si1  1  0.64489130  0.99764460  0.24862239  1
  Si  Si2  1  0.50433150  0.29449101  0.24770382  1
  Si  Si3  1  0.14428459  0.30057049  0.75110335  1
  Si  Si4  1  0.63841135  0.28734301  0.75399001  1
  Si  Si5  1  0.00387965  0.71684158  0.74711297  1
  Si  Si6  1  0.47105553  0.32898539  0.57980009  1
  Si  Si7  1  0.69828700  0.06388539  0.57829889  1
  Si  Si8  1  0.33199555  0.61851204  0.58140354  1
  Si  Si9  1  0.97201289  0.61335666  0.07993288  1
  Si  Si10  1  0.83234430  0.04374928  0.08111111  1
  Si  Si11  1  0.19976728  0.34010447  0.07861938  1
  Si  Si12  1  0.51652583  0.37277612  0.91655478  1
  Si  Si13  1  0.17291923  0.95059067  0.91254354  1
  Si  Si14  1  0.01473656  0.65899761  0.41698401  1
  S  S0  1  0.35263720  0.71220800  0.25140204  1
  S  S1  1  0.85725358  0.71549386  0.25181950  1
  S  S2  1  0.00121426  0.28378778  0.25357946  1
  S  S3  1  0.50233807  0.72057891  0.75329347  1
  S  S4  1  0.35780892  0.00010235  0.74993725  1
  S  S5  1  0.85228489  0.99159965  0.75169385  1
  S  S6  1  0.97648498  0.32252223  0.58310664  1
  S  S7  1  0.18654925  0.04852854  0.58169333  1
  S  S8  1  0.83906070  0.63024342  0.58232786  1
  S  S9  1  0.47575265  0.63017763  0.08276086  1
  S  S10  1  0.34026313  0.04652337  0.08294962  1
  S  S11  1  0.68698418  0.32573440  0.08149500  1
  S  S12  1  0.31386944  0.67240078  0.91420199  1
  S  S13  1  0.80777671  0.65908831  0.91579481  1
  S  S14  1  0.01852672  0.37706466  0.91584634  1
  S  S15  1  0.66868457  0.95667434  0.91516242  1
  S  S16  1  0.30835899  0.95738784  0.41599012  1
  S  S17  1  0.81126158  0.95196506  0.41360120  1
  S  S18  1  0.16837323  0.37982185  0.41491045  1
  S  S19  1  0.66884862  0.38449734  0.41425828  1
  S  S20  1  0.52123832  0.66120243  0.41543976  1
  O  O0  1  0.10619370  0.04858224  0.31088273  1
  O  O1  1  0.59331268  0.02878476  0.30738699  1
  O  O2  1  0.41196051  0.79569132  0.30479458  1
  O  O3  1  0.91156345  0.78858723  0.30574883  1
  O  O4  1  0.47929741  0.15817387  0.30737291  1
  O  O5  1  0.98063271  0.17321689  0.30658173  1
  O  O6  1  0.09289670  0.16095224  0.80708604  1
  O  O7  1  0.60253243  0.15991378  0.81051695  1
  O  O8  1  0.48150325  0.79005299  0.80606453  1
  O  O9  1  0.97863565  0.80051065  0.80575478  1
  O  O10  1  0.41170707  0.03772235  0.80370576  1
  O  O11  1  0.90969416  0.02916100  0.80353476  1
  O  O12  1  0.40209530  0.97995400  0.69688721  1
  O  O13  1  0.89099815  0.96656669  0.69666118  1
  O  O14  1  0.08751871  0.22464784  0.69113440  1
  O  O15  1  0.58096466  0.18941160  0.69483249  1
  O  O16  1  0.01103605  0.82349315  0.68766928  1
  O  O17  1  0.50924923  0.81840581  0.69867485  1
  O  O18  1  0.39178099  0.81709145  0.19790912  1
  O  O19  1  0.89771146  0.82345085  0.19887776  1
  O  O20  1  0.00859801  0.19924402  0.19936350  1
  O  O21  1  0.51231428  0.19955049  0.18967132  1
  O  O22  1  0.07965239  0.97097609  0.19568847  1
  O  O23  1  0.58579424  0.96017099  0.19091869  1
  O  O24  1  0.42734288  0.36278176  0.63846683  1
  O  O25  1  0.93952124  0.36076623  0.63614375  1
  O  O26  1  0.24114884  0.12653605  0.63502842  1
  O  O27  1  0.75933326  0.14832774  0.63655303  1
  O  O28  1  0.31209256  0.48990582  0.63990745  1
  O  O29  1  0.82222848  0.51687952  0.63533422  1
  O  O30  1  0.43991446  0.52068156  0.13731666  1
  O  O31  1  0.92581524  0.49402109  0.13946807  1
  O  O32  1  0.32571825  0.13181708  0.13714424  1
  O  O33  1  0.81177970  0.13230184  0.14061272  1
  O  O34  1  0.25826979  0.37082897  0.13910233  1
  O  O35  1  0.74077352  0.35428294  0.13568701  1
  O  O36  1  0.24291430  0.29724863  0.02437604  1
  O  O37  1  0.72721966  0.30071680  0.02801654  1
  O  O38  1  0.42366770  0.54907898  0.03061497  1
  O  O39  1  0.91335032  0.53861664  0.02224642  1
  O  O40  1  0.35693233  0.15452776  0.03060934  1
  O  O41  1  0.84972729  0.15995750  0.02349212  1
  O  O42  1  0.22641537  0.15174876  0.52742178  1
  O  O43  1  0.73950112  0.18358947  0.52112341  1
  O  O44  1  0.34980435  0.53978275  0.52260187  1
  O  O45  1  0.85520594  0.55391446  0.52908169  1
  O  O46  1  0.41458860  0.28881944  0.52101462  1
  O  O47  1  0.92429096  0.29772138  0.52940554  1
  O  O48  1  0.27068702  0.69678944  0.96880152  1
  O  O49  1  0.76636190  0.68354794  0.97096068  1
  O  O50  1  0.07225347  0.45542411  0.97070355  1
  O  O51  1  0.58277187  0.47317164  0.97494083  1
  O  O52  1  0.15846513  0.83409549  0.97329839  1
  O  O53  1  0.66110733  0.84522781  0.96935194  1
  O  O54  1  0.26719792  0.85038564  0.47084566  1
  O  O55  1  0.76774340  0.83971951  0.46809022  1
  O  O56  1  0.16060539  0.47616812  0.46912070  1
  O  O57  1  0.65603072  0.46497418  0.46923920  1
  O  O58  1  0.07954514  0.68676562  0.47518718  1
  O  O59  1  0.57579023  0.68782644  0.46983854  1
  O  O60  1  0.05670855  0.61754894  0.35979471  1
  O  O61  1  0.56440576  0.63772304  0.36369453  1
  O  O62  1  0.25615515  0.87049023  0.36347761  1
  O  O63  1  0.75681714  0.86408964  0.36192163  1
  O  O64  1  0.18398356  0.48891089  0.36221302  1
  O  O65  1  0.68005767  0.49230042  0.36265255  1
  O  O66  1  0.06001532  0.48277537  0.86376089  1
  O  O67  1  0.55952096  0.49691097  0.85933926  1
  O  O68  1  0.18502650  0.85510564  0.85668531  1
  O  O69  1  0.68472343  0.87921305  0.86211330  1
  O  O70  1  0.26120695  0.64559192  0.86186414  1
  O  O71  1  0.75486714  0.63811927  0.86326415  1
  O  O72  1  0.00787157  0.83879525  0.41444233  1
  O  O73  1  0.51232386  0.82216234  0.40993329  1
  O  O74  1  0.39707078  0.97035756  0.41133438  1
  O  O75  1  0.90050785  0.97319262  0.41045067  1
  O  O76  1  0.08400558  0.20962872  0.41441338  1
  O  O77  1  0.58419577  0.20564109  0.40959307  1
  O  O78  1  0.00619981  0.19549359  0.91006472  1
  O  O79  1  0.51005660  0.17972560  0.91441697  1
  O  O80  1  0.07945600  0.96046093  0.90742614  1
  O  O81  1  0.58490819  0.95835622  0.91459268  1
  O  O82  1  0.40357116  0.83452630  0.91064684  1
  O  O83  1  0.89514148  0.82390795  0.91120703  1
  O  O84  1  0.48699441  0.16460978  0.59196551  1
  O  O85  1  0.98659451  0.16614509  0.58994961  1
  O  O86  1  0.09717361  0.02199118  0.58785514  1
  O  O87  1  0.59935051  0.02636892  0.59241180  1
  O  O88  1  0.41544817  0.80586233  0.59932733  1
  O  O89  1  0.91143379  0.81081572  0.59023924  1
  O  O90  1  0.48691231  0.80881545  0.09115536  1
  O  O91  1  0.98684527  0.80932900  0.09270333  1
  O  O92  1  0.41438141  0.01462076  0.09226932  1
  O  O93  1  0.91599963  0.02578373  0.10003615  1
  O  O94  1  0.10044628  0.17457854  0.09355842  1
  O  O95  1  0.59730130  0.17218353  0.08761535  1
  O  O96  1  0.34814074  0.16164508  0.74104863  1
  O  O97  1  0.84802703  0.16281666  0.74448736  1
  O  O98  1  0.23932834  0.29877714  0.74308850  1
  O  O99  1  0.73809530  0.30517346  0.74053401  1
  O  O100  1  0.42165421  0.53209768  0.74534342  1
  O  O101  1  0.91371445  0.51833284  0.73981716  1
  O  O102  1  0.35030886  0.53693204  0.24606867  1
  O  O103  1  0.84770317  0.53541943  0.24346330  1
  O  O104  1  0.41679333  0.31779247  0.24190567  1
  O  O105  1  0.92128853  0.31192755  0.24581806  1
  O  O106  1  0.23997309  0.17131760  0.23972490  1
  O  O107  1  0.73943882  0.18787153  0.24491383  1
  O  O108  1  0.32446232  0.51604594  0.92206874  1
  O  O109  1  0.81816536  0.50247540  0.92178668  1
  O  O110  1  0.42399522  0.36487251  0.92823502  1
  O  O111  1  0.92884127  0.35859613  0.92143691  1
  O  O112  1  0.25281803  0.14898551  0.91707353  1
  O  O113  1  0.74551615  0.13806949  0.92301326  1
  O  O114  1  0.31892458  0.13533640  0.42180482  1
  O  O115  1  0.81708909  0.12601808  0.42064395  1
  O  O116  1  0.24497022  0.35187491  0.42263838  1
  O  O117  1  0.74364255  0.35525142  0.41972267  1
  O  O118  1  0.43210230  0.50332284  0.42088364  1
  O  O119  1  0.91736142  0.48294933  0.42616654  1
  O  O120  1  0.18838718  0.51134603  0.06847978  1
  O  O121  1  0.68075426  0.49075284  0.07572124  1
  O  O122  1  0.06977453  0.63167816  0.07299818  1
  O  O123  1  0.56723317  0.65085087  0.07507227  1
  O  O124  1  0.25660477  0.87132145  0.07741175  1
  O  O125  1  0.74650595  0.84874627  0.07171136  1
  O  O126  1  0.18039105  0.87004365  0.57450516  1
  O  O127  1  0.68672162  0.86534205  0.56797160  1
  O  O128  1  0.24601544  0.64260997  0.57062950  1
  O  O129  1  0.75413299  0.63612870  0.57328260  1
  O  O130  1  0.06683146  0.48431687  0.57421996  1
  O  O131  1  0.57113738  0.50387667  0.56937506  1
  O  O132  1  0.15768871  0.82904156  0.25814691  1
  O  O133  1  0.66422955  0.84396977  0.26296529  1
  O  O134  1  0.26497613  0.68242550  0.26323430  1
  O  O135  1  0.76916964  0.69221478  0.25944382  1
  O  O136  1  0.08185073  0.45705017  0.25834633  1
  O  O137  1  0.59026257  0.47340593  0.26341170  1
  O  O138  1  0.16528000  0.49265375  0.76687622  1
  O  O139  1  0.65742924  0.48601207  0.75772209  1
  O  O140  1  0.08574646  0.69265815  0.75688151  1
  O  O141  1  0.58201235  0.70651491  0.75770534  1
  O  O142  1  0.27139478  0.84447122  0.75385195  1
  O  O143  1  0.76325868  0.84624210  0.76080542  1
loop_
_geom_bond_atom_site_label_1
_geom_bond_atom_site_label_2
_geom_bond_distance
_geom_bond_site_symmetry_2
Na0 O72 2.351530 1_555
Na0 O76 2.540315 1_565
Na0 O75 2.584848 1_455
Na0 O86 2.586842 1_565
Na0 O89 2.614400 1_455
Na0 O85 2.644855 1_465
Na1 O79 2.339160 1_555
Na1 O82 2.476477 1_545
Na1 O81 2.534861 1_545
Na1 O92 2.635819 1_556
Na1 O95 2.643342 1_556
Na1 O90 2.694787 1_546
Na2 O112 2.252012 1_555
Na2 O110 2.445387 1_555
Na2 O108 2.504271 1_555
Na2 O98 2.705266 1_555
Na2 O100 2.749821 1_555
Na2 O96 2.765905 1_555
Na3 O109 2.442197 1_555
Na3 O111 2.468256 1_555
Na3 O113 2.516084 1_555
Na3 O101 2.685059 1_555
Na3 O99 2.698663 1_555
Na3 O97 2.707105 1_555
Na4 O114 2.491127 1_555
Na4 O116 2.531882 1_555
Na4 O118 2.557954 1_555
Na4 O104 2.619106 1_555
Na4 O106 2.624129 1_555
Na4 O102 2.656770 1_555
Na5 O119 2.388772 1_555
Na5 O117 2.514129 1_555
Na5 O115 2.523990 1_555
Na5 O105 2.612731 1_555
Na5 O107 2.628125 1_555
Na5 O103 2.701328 1_555
Ga0 O0 1.812705 1_565
Ga0 O72 1.862894 1_555
Ga0 O3 2.017498 1_455
Ga0 O76 2.204861 1_565
Ga0 O75 2.207443 1_455
Ga0 O5 2.211896 1_465
Ga1 O7 1.830125 1_555
Ga1 O79 1.853072 1_555
Ga1 O10 2.037470 1_555
Ga1 O82 2.111482 1_545
Ga1 O8 2.191956 1_545
Ga1 O81 2.237457 1_545
Ga2 O16 1.785905 1_545
Ga2 O14 1.791352 1_555
Ga2 O13 2.050418 1_445
Ga2 O86 2.226128 1_555
Ga2 O85 2.243524 1_455
Ga2 O89 2.361990 1_445
Ga3 O21 1.810960 1_555
Ga3 O23 1.813219 1_545
Ga3 O18 2.111842 1_545
Ga3 O95 2.125782 1_555
Ga3 O90 2.136428 1_545
Ga3 O92 2.185254 1_555
Ga4 O36 1.806970 1_556
Ga4 O110 1.829995 1_555
Ga4 O112 1.856499 1_555
Ga4 O108 2.078224 1_555
Ga4 O40 2.208457 1_556
Ga4 O38 2.305813 1_556
Ga5 O41 1.806242 1_556
Ga5 O39 1.810229 1_556
Ga5 O111 2.036553 1_555
Ga5 O37 2.084418 1_556
Ga5 O113 2.189601 1_555
Ga5 O109 2.245988 1_555
Ga6 O44 1.800583 1_555
Ga6 O46 1.808047 1_555
Ga6 O42 2.042555 1_555
Ga6 O118 2.134139 1_555
Ga6 O116 2.215059 1_555
Ga6 O114 2.230504 1_555
Ga7 O43 1.803741 1_555
Ga7 O119 1.816030 1_555
Ga7 O47 2.034627 1_555
Ga7 O45 2.078716 1_555
Ga7 O115 2.153592 1_555
Ga7 O117 2.220129 1_555
Ga8 O132 1.812042 1_555
Ga8 O60 1.812661 1_555
Ga8 O136 2.022170 1_555
Ga8 O62 2.152812 1_555
Ga8 O134 2.230728 1_555
Ga8 O64 2.244886 1_555
Ga9 O133 1.791092 1_555
Ga9 O137 1.798465 1_555
Ga9 O135 1.996945 1_555
Ga9 O63 2.110843 1_555
Ga9 O61 2.111962 1_555
Ga9 O65 2.154381 1_555
Ga10 O138 1.824211 1_555
Ga10 O68 1.827213 1_555
Ga10 O140 1.829267 1_555
Ga10 O142 2.074853 1_555
Ga10 O66 2.179140 1_555
Ga10 O70 2.239739 1_555
Ga11 O67 1.802016 1_555
Ga11 O139 1.821083 1_555
Ga11 O141 2.063716 1_555
Ga11 O71 2.112036 1_555
Ga11 O69 2.215522 1_555
Ga11 O143 2.216944 1_555
O0 Si0 1.608980 1_545
O1 Si1 1.695133 1_545
O1 Ta0 1.843055 1_555
O2 S0 1.520436 1_555
O2 Ta0 2.059587 1_565
O3 S1 1.480845 1_555
O4 Si2 1.704556 1_555
O4 Ta0 1.847238 1_555
O5 S2 1.465819 1_655
O6 Si3 1.670569 1_555
O6 Ta1 1.864975 1_545
O7 Si4 1.600479 1_555
O8 S3 1.459262 1_555
O9 Si5 1.669734 1_655
O9 Ta1 1.882773 1_655
O10 S4 1.473284 1_555
O11 S5 1.471935 1_545
O11 Ta1 2.226199 1_645
O12 S4 1.478882 1_565
O12 Ta2 2.120722 1_565
O13 S5 1.477941 1_555
O14 Si3 1.615104 1_555
O15 Si4 1.634499 1_555
O15 Ta2 1.914096 1_555
O16 Si5 1.604456 1_555
O17 S3 1.472163 1_555
O17 Ta2 2.181313 1_565
O18 S0 1.461428 1_555
O19 S1 1.465438 1_555
O19 Ta3 2.222953 1_665
O20 S2 1.464792 1_555
O20 Ta3 2.178824 1_555
O21 Si2 1.589828 1_555
O22 Si0 1.628233 1_555
O22 Ta3 1.926811 1_565
O23 Si1 1.595786 1_555
O24 Si6 1.623091 1_555
O24 Ta4 1.934701 1_555
O25 S6 1.471482 1_555
O25 Ta5 2.194788 1_555
O26 S7 1.477152 1_555
O26 Ta4 2.169685 1_555
O27 Si7 1.623083 1_555
O27 Ta5 1.915120 1_555
O28 Si8 1.655375 1_555
O28 Ta4 1.870691 1_555
O29 S8 1.486925 1_555
O29 Ta5 2.146231 1_555
O30 S9 1.490932 1_555
O30 Ta6 2.147090 1_555
O31 Si9 1.642759 1_555
O31 Ta7 1.900062 1_555
O32 S10 1.514622 1_555
O32 Ta6 2.053601 1_555
O33 Si10 1.671744 1_555
O33 Ta7 1.853508 1_555
O34 Si11 1.649962 1_555
O34 Ta6 1.890295 1_555
O35 S11 1.490130 1_555
O35 Ta7 2.126936 1_555
O36 Si11 1.573203 1_555
O37 S11 1.463085 1_555
O38 S9 1.441476 1_555
O39 Si9 1.585491 1_555
O40 S10 1.448857 1_555
O41 Si10 1.584300 1_555
O42 S7 1.472351 1_555
O43 Si7 1.588075 1_555
O44 Si8 1.591568 1_555
O45 S8 1.464942 1_555
O46 Si6 1.589026 1_555
O47 S6 1.470787 1_555
O48 S12 1.510344 1_555
O48 Ta8 2.133677 1_556
O49 S13 1.503884 1_555
O49 Ta9 2.060360 1_556
O50 S14 1.499580 1_555
O50 Ta8 2.131818 1_556
O51 Si12 1.685422 1_555
O51 Ta9 1.877735 1_556
O52 Si13 1.651784 1_555
O52 Ta8 1.890783 1_556
O53 S15 1.529247 1_555
O53 Ta9 2.024322 1_556
O54 S16 1.499552 1_555
O54 Ta10 2.070151 1_555
O55 S17 1.517621 1_555
O55 Ta11 2.086691 1_555
O56 S18 1.525600 1_555
O56 Ta10 2.030098 1_555
O57 S19 1.493810 1_555
O57 Ta11 2.103320 1_555
O58 Si14 1.676250 1_555
O58 Ta10 1.905774 1_555
O59 S20 1.504055 1_555
O59 Ta11 2.098993 1_555
O60 Si14 1.608017 1_555
O61 S20 1.455138 1_555
O62 S16 1.458534 1_555
O63 S17 1.459996 1_555
O64 S18 1.463239 1_555
O65 S19 1.449877 1_555
O66 S14 1.444896 1_555
O67 Si12 1.609543 1_555
O68 Si13 1.579375 1_555
O69 S15 1.465979 1_555
O70 S12 1.447115 1_555
O71 S13 1.462149 1_555
O72 Si14 1.633313 1_555
O73 S20 1.494157 1_555
O73 Ta0 2.165643 1_565
O74 S16 1.499451 1_555
O74 Ta0 2.121585 1_565
O75 S17 1.476506 1_555
O76 S18 1.478911 1_555
O77 S19 1.524597 1_555
O77 Ta0 2.033363 1_555
O78 S14 1.493463 1_555
O78 Ta1 2.138451 1_545
O79 Si12 1.631291 1_555
O80 Si13 1.682320 1_555
O80 Ta1 1.845480 1_555
O81 S15 1.471155 1_555
O82 S12 1.497966 1_555
O83 S13 1.486843 1_555
O83 Ta1 2.136366 1_655
O84 Si6 1.616669 1_555
O84 Ta2 1.867801 1_555
O85 S6 1.469630 1_555
O86 S7 1.465163 1_555
O87 Si7 1.619826 1_555
O87 Ta2 1.896923 1_555
O88 Si8 1.605797 1_555
O88 Ta2 1.923749 1_565
O89 S8 1.455931 1_555
O90 S9 1.482318 1_555
O91 Si9 1.620983 1_555
O91 Ta3 1.857779 1_665
O92 S10 1.470771 1_555
O93 Si10 1.606532 1_555
O93 Ta3 1.917535 1_655
O94 Si11 1.642751 1_555
O94 Ta3 1.866937 1_555
O95 S11 1.471955 1_555
O96 S4 1.515357 1_555
O96 Ta4 2.095383 1_555
O97 S5 1.541730 1_545
O97 Ta5 2.015476 1_555
O98 Si3 1.676989 1_555
O98 Ta4 1.914826 1_555
O99 Si4 1.694671 1_555
O99 Ta5 1.851214 1_555
O100 S3 1.550623 1_555
O100 Ta4 2.022451 1_555
O101 Si5 1.666962 1_655
O101 Ta5 1.895687 1_555
O102 S0 1.513685 1_555
O102 Ta6 2.093293 1_555
O103 S1 1.505883 1_555
O103 Ta7 2.137001 1_555
O104 Si2 1.646603 1_555
O104 Ta6 1.943825 1_555
O105 S2 1.545106 1_655
O105 Ta7 2.067962 1_555
O106 Si0 1.687206 1_545
O106 Ta6 1.871496 1_555
O107 Si1 1.656982 1_545
O107 Ta7 1.944835 1_555
O108 S12 1.477100 1_555
O109 S13 1.472549 1_555
O110 Si12 1.603344 1_555
O111 S14 1.497287 1_655
O112 Si13 1.592924 1_545
O113 S15 1.487500 1_545
O114 S16 1.474374 1_545
O115 S17 1.478321 1_545
O116 S18 1.486792 1_555
O117 S19 1.457323 1_555
O118 S20 1.479725 1_555
O119 Si14 1.636795 1_655
O120 Si11 1.620119 1_555
O120 Ta8 1.910377 1_555
O121 S11 1.503435 1_555
O121 Ta9 2.053939 1_555
O122 Si9 1.640331 1_455
O122 Ta8 1.878841 1_555
O123 S9 1.524842 1_555
O123 Ta9 2.017460 1_555
O124 S10 1.501087 1_565
O124 Ta8 2.073619 1_555
O125 Si10 1.623676 1_565
O125 Ta9 1.909067 1_555
O126 S7 1.514470 1_565
O126 Ta10 2.018440 1_555
O127 Si7 1.656257 1_565
O127 Ta11 1.846009 1_555
O128 Si8 1.637348 1_555
O128 Ta10 1.896927 1_555
O129 S8 1.525128 1_555
O129 Ta11 2.012130 1_555
O130 S6 1.514099 1_455
O130 Ta10 2.013314 1_555
O131 Si6 1.663812 1_555
O131 Ta11 1.853885 1_555
O132 Si0 1.598558 1_555
O133 Si1 1.573205 1_555
O134 S0 1.442697 1_555
O135 S1 1.457083 1_555
O136 S2 1.466521 1_555
O137 Si2 1.572697 1_555
O138 Si3 1.565851 1_555
O139 Si4 1.595287 1_555
O140 Si5 1.563726 1_555
O141 S3 1.461276 1_555
O142 S4 1.441646 1_565
O143 S5 1.446915 1_555
