# generated using pymatgen
data_La3InB
_symmetry_space_group_name_H-M   'P 1'
_cell_length_a   5.32894900
_cell_length_b   5.32894900
_cell_length_c   5.32894900
_cell_angle_alpha   90.00000000
_cell_angle_beta   90.00000000
_cell_angle_gamma   90.00000000
_symmetry_Int_Tables_number   1
_chemical_formula_structural   La3InB
_chemical_formula_sum   'La3 In1 B1'
_cell_volume   151.32988140
_cell_formula_units_Z   1
loop_
 _symmetry_equiv_pos_site_id
 _symmetry_equiv_pos_as_xyz
  1  'x, y, z'
loop_
 _atom_site_type_symbol
 _atom_site_label
 _atom_site_symmetry_multiplicity
 _atom_site_fract_x
 _atom_site_fract_y
 _atom_site_fract_z
 _atom_site_occupancy
  La  La0  1  0.50000000  0.00000000  0.50000000  1
  La  La1  1  0.50000000  0.50000000  0.00000000  1
  La  La2  1  0.00000000  0.50000000  0.50000000  1
  In  In0  1  0.00000000  0.00000000  0.00000000  1
  B  B0  1  0.50000000  0.50000000  0.50000000  1
loop_
_geom_bond_atom_site_label_1
_geom_bond_atom_site_label_2
_geom_bond_distance
_geom_bond_site_symmetry_2
In0 La1 3.768136 1_545
In0 La2 3.768136 1_555
In0 La2 3.768136 1_545
In0 La0 3.768136 1_455
In0 La0 3.768136 1_454
In0 La1 3.768136 1_445
In0 La2 3.768136 1_544
In0 La0 3.768136 1_555
In0 La0 3.768136 1_554
In0 La1 3.768136 1_455
In0 La2 3.768136 1_554
In0 La1 3.768136 1_555
B0 La0 2.664474 1_565
B0 La1 2.664474 1_556
B0 La2 2.664474 1_555
B0 La0 2.664474 1_555
B0 La2 2.664474 1_655
B0 La1 2.664474 1_555
