# generated using pymatgen
data_Ba2CeMgNbO6
_symmetry_space_group_name_H-M   'P 1'
_cell_length_a   6.00854094
_cell_length_b   6.59689394
_cell_length_c   5.96341355
_cell_angle_alpha   87.33384407
_cell_angle_beta   59.74500585
_cell_angle_gamma   62.90467600
_symmetry_Int_Tables_number   1
_chemical_formula_structural   Ba2CeMgNbO6
_chemical_formula_sum   'Ba2 Ce1 Mg1 Nb1 O6'
_cell_volume   176.55046672
_cell_formula_units_Z   1
loop_
 _symmetry_equiv_pos_site_id
 _symmetry_equiv_pos_as_xyz
  1  'x, y, z'
loop_
 _atom_site_type_symbol
 _atom_site_label
 _atom_site_symmetry_multiplicity
 _atom_site_fract_x
 _atom_site_fract_y
 _atom_site_fract_z
 _atom_site_occupancy
  Ba  Ba0  1  0.71963658  0.64712306  0.91364327  1
  Ba  Ba1  1  0.24059769  0.35882393  0.15997278  1
  Ce  Ce0  1  0.13328789  0.02215460  0.71128989  1
  Mg  Mg0  1  0.86085098  0.94340455  0.33474683  1
  Nb  Nb0  1  0.48729181  0.49381303  0.53162646  1
  O  O0  1  0.79762720  0.25015429  0.15553619  1
  O  O1  1  0.17096226  0.72132535  0.93579233  1
  O  O2  1  0.31030318  0.27714751  0.62732805  1
  O  O3  1  0.16657118  0.73362486  0.43798118  1
  O  O4  1  0.66186175  0.73353655  0.43882999  1
  O  O5  1  0.78434148  0.27722527  0.62825303  1
loop_
_geom_bond_atom_site_label_1
_geom_bond_atom_site_label_2
_geom_bond_distance
_geom_bond_site_symmetry_2
Ba0 O5 2.803117 1_555
Ba0 O2 2.803318 1_655
Ba0 O0 2.893126 1_556
Ba0 O3 3.018872 1_556
Ba0 O4 3.020427 1_555
Ba0 O4 3.023996 1_556
Ba0 O3 3.025325 1_655
Ba0 O1 3.031032 1_655
Ba0 O1 3.036885 1_555
Ba1 O1 2.652509 1_554
Ba1 O4 2.773596 1_455
Ba1 O3 2.774206 1_555
Ba1 O2 3.010695 1_555
Ba1 O5 3.015538 1_455
Ba1 O5 3.022510 1_554
Ba1 O2 3.027900 1_554
Ba1 O0 3.067512 1_455
Ba1 O0 3.073018 1_555
Ce0 O2 2.286140 1_555
Ce0 O5 2.286367 1_455
Ce0 O1 2.330453 1_545
Ce0 O0 2.360396 1_456
Ce0 O4 2.435397 1_545
Ce0 O3 2.435724 1_545
Mg0 O4 2.100407 1_555
Mg0 O3 2.100730 1_655
Mg0 O1 2.156127 1_654
Mg0 O0 2.211115 1_565
Mg0 O2 2.596368 1_565
Mg0 O5 2.598083 1_565
Nb0 O5 2.048382 1_555
Nb0 O2 2.048593 1_555
Nb0 O0 2.116974 1_555
Nb0 O4 2.179929 1_555
Nb0 O3 2.180209 1_555
Nb0 O1 2.189958 1_555
