# generated using pymatgen
data_Tm4MgTi2O10
_symmetry_space_group_name_H-M   'P 1'
_cell_length_a   3.87667775
_cell_length_b   5.88462048
_cell_length_c   11.56587879
_cell_angle_alpha   101.16199870
_cell_angle_beta   90.00000108
_cell_angle_gamma   70.76820124
_symmetry_Int_Tables_number   1
_chemical_formula_structural   Tm4MgTi2O10
_chemical_formula_sum   'Tm4 Mg1 Ti2 O10'
_cell_volume   243.83308066
_cell_formula_units_Z   1
loop_
 _symmetry_equiv_pos_site_id
 _symmetry_equiv_pos_as_xyz
  1  'x, y, z'
loop_
 _atom_site_type_symbol
 _atom_site_label
 _atom_site_symmetry_multiplicity
 _atom_site_fract_x
 _atom_site_fract_y
 _atom_site_fract_z
 _atom_site_occupancy
  Tm  Tm0  1  0.14932486  0.70135029  0.94154938  1
  Tm  Tm1  1  0.17895191  0.64209619  0.61759483  1
  Tm  Tm2  1  0.85067514  0.29864971  0.05845062  1
  Tm  Tm3  1  0.82104809  0.35790381  0.38240517  1
  Mg  Mg0  1  0.50000000  -0.00000000  0.50000000  1
  Ti  Ti0  1  0.13427872  0.73144356  0.23197872  1
  Ti  Ti1  1  0.86572128  0.26855644  0.76802128  1
  O  O0  1  0.02468330  0.95063240  0.37764178  1
  O  O1  1  0.02299068  0.95401765  0.12193098  1
  O  O2  1  0.72819220  0.54361559  0.92271757  1
  O  O3  1  0.66548236  0.66903529  0.53530241  1
  O  O4  1  0.29425217  0.41149566  0.75258465  1
  O  O5  1  0.70574783  0.58850434  0.24741535  1
  O  O6  1  0.27180780  0.45638441  0.07728243  1
  O  O7  1  0.33451764  0.33096471  0.46469759  1
  O  O8  1  0.97531670  0.04936760  0.62235822  1
  O  O9  1  0.97700932  0.04598235  0.87806902  1
loop_
_geom_bond_atom_site_label_1
_geom_bond_atom_site_label_2
_geom_bond_distance
_geom_bond_site_symmetry_2
Mg0 O7 1.963719 1_555
Mg0 O3 1.963719 1_545
Mg0 O8 2.382425 1_455
Mg0 O0 2.382425 1_645
Mg0 O0 2.382429 1_545
Mg0 O8 2.382429 1_555
O0 Ti0 1.865516 1_555
O0 Tm3 2.252240 1_465
O1 Ti0 1.948026 1_555
O1 Tm2 2.186826 1_465
O1 Tm0 2.263275 1_554
O2 Ti1 2.101345 1_555
O2 Tm0 2.120004 1_555
O2 Tm0 2.120004 1_655
O2 Tm2 2.278863 1_556
O3 Tm1 2.178043 1_655
O3 Tm1 2.178043 1_555
O3 Tm3 2.205022 1_555
O4 Ti1 2.116111 1_555
O4 Ti1 2.116115 1_455
O4 Tm1 2.213481 1_555
O4 Tm0 2.434543 1_555
O5 Ti0 2.116111 1_555
O5 Ti0 2.116115 1_655
O5 Tm3 2.213481 1_555
O5 Tm2 2.434543 1_555
O6 Ti0 2.101345 1_555
O6 Tm2 2.120004 1_555
O6 Tm2 2.120004 1_455
O6 Tm0 2.278863 1_554
O7 Tm3 2.178043 1_455
O7 Tm3 2.178043 1_555
O7 Tm1 2.205022 1_555
O8 Ti1 1.865516 1_555
O8 Tm1 2.252240 1_645
O9 Ti1 1.948026 1_555
O9 Tm0 2.186826 1_645
O9 Tm2 2.263275 1_556
