# generated using pymatgen
data_Mg(CuO)2
_symmetry_space_group_name_H-M   'P 1'
_cell_length_a   3.09667010
_cell_length_b   4.52714972
_cell_length_c   6.17904889
_cell_angle_alpha   98.50033755
_cell_angle_beta   112.38606364
_cell_angle_gamma   91.82425203
_symmetry_Int_Tables_number   1
_chemical_formula_structural   Mg(CuO)2
_chemical_formula_sum   'Mg1 Cu2 O2'
_cell_volume   78.84792344
_cell_formula_units_Z   1
loop_
 _symmetry_equiv_pos_site_id
 _symmetry_equiv_pos_as_xyz
  1  'x, y, z'
loop_
 _atom_site_type_symbol
 _atom_site_label
 _atom_site_symmetry_multiplicity
 _atom_site_fract_x
 _atom_site_fract_y
 _atom_site_fract_z
 _atom_site_occupancy
  Mg  Mg0  1  0.00000000  0.50000000  -0.00000000  1
  Cu  Cu0  1  0.00000000  0.50000000  0.50000000  1
  Cu  Cu1  1  0.50000000  -0.00000000  -0.00000000  1
  O  O0  1  0.63520870  0.36955971  0.18664295  1
  O  O1  1  0.36479130  0.63044029  0.81335705  1
loop_
_geom_bond_atom_site_label_1
_geom_bond_atom_site_label_2
_geom_bond_distance
_geom_bond_site_symmetry_2
Mg0 O1 2.023696 1_454
Mg0 O0 2.023696 1_555
Mg0 O1 2.026334 1_554
Mg0 O0 2.026334 1_455
Cu0 O1 1.824102 1_555
Cu0 O0 1.824102 1_455
Cu1 O1 1.822537 1_544
Cu1 O0 1.822537 1_555
