# generated using pymatgen
data_Na14Si11Ge8SO48
_symmetry_space_group_name_H-M   'P 1'
_cell_length_a   17.49249601
_cell_length_b   8.74704811
_cell_length_c   21.68686009
_cell_angle_alpha   90.25477140
_cell_angle_beta   90.19839146
_cell_angle_gamma   120.00564201
_symmetry_Int_Tables_number   1
_chemical_formula_structural   Na14Si11Ge8SO48
_chemical_formula_sum   'Na42 Si33 Ge24 S3 O144'
_cell_volume   2873.44082716
_cell_formula_units_Z   3
loop_
 _symmetry_equiv_pos_site_id
 _symmetry_equiv_pos_as_xyz
  1  'x, y, z'
loop_
 _atom_site_type_symbol
 _atom_site_label
 _atom_site_symmetry_multiplicity
 _atom_site_fract_x
 _atom_site_fract_y
 _atom_site_fract_z
 _atom_site_occupancy
  Na  Na0  1  0.31798659  0.99993830  0.24998010  1
  Na  Na1  1  0.81790439  0.99992123  0.25002092  1
  Na  Na2  1  0.31728377  0.63515170  0.75046037  1
  Na  Na3  1  0.81639807  0.63216022  0.74968821  1
  Na  Na4  1  0.50057854  0.36659979  0.75080465  1
  Na  Na5  1  0.68533684  0.00099063  0.74953799  1
  Na  Na6  1  0.14934112  0.33450940  0.58204005  1
  Na  Na7  1  0.64931033  0.33260915  0.58396099  1
  Na  Na8  1  0.01729914  0.69806990  0.58358239  1
  Na  Na9  1  0.51831992  0.70328587  0.58289938  1
  Na  Na10  1  0.33294549  0.96328249  0.58364795  1
  Na  Na11  1  0.83262445  0.96640290  0.58338037  1
  Na  Na12  1  0.14982280  0.96588886  0.08267572  1
  Na  Na13  1  0.64971409  0.96605370  0.08247074  1
  Na  Na14  1  0.33231067  0.69973973  0.08336274  1
  Na  Na15  1  0.83224173  0.69947183  0.08364404  1
  Na  Na16  1  0.01816341  0.33659827  0.08350644  1
  Na  Na17  1  0.51813308  0.33634581  0.08355252  1
  Na  Na18  1  0.48195366  0.66669690  0.91647698  1
  Na  Na19  1  0.98265192  0.66408703  0.91652225  1
  Na  Na20  1  0.35065160  0.03534443  0.91633497  1
  Na  Na21  1  0.85005510  0.03632631  0.91654068  1
  Na  Na22  1  0.16710042  0.30117262  0.91820471  1
  Na  Na23  1  0.66633797  0.29649453  0.91643403  1
  Na  Na24  1  0.48252866  0.30045681  0.41635951  1
  Na  Na25  1  0.98236678  0.30038874  0.41663048  1
  Na  Na26  1  0.16669308  0.03370734  0.41746601  1
  Na  Na27  1  0.66676459  0.03418931  0.41768224  1
  Na  Na28  1  0.34995308  0.66360525  0.41631109  1
  Na  Na29  1  0.84979468  0.66306930  0.41638887  1
  Na  Na30  1  0.00017504  0.99990954  0.49992691  1
  Na  Na31  1  0.50031226  0.99916020  0.50071661  1
  Na  Na32  1  0.00059360  0.00151408  0.00031252  1
  Na  Na33  1  0.50023430  0.00039214  0.99920080  1
  Na  Na34  1  0.33142289  0.32544262  0.83308842  1
  Na  Na35  1  0.83787396  0.33488080  0.83126031  1
  Na  Na36  1  0.33616484  0.34492947  0.33095821  1
  Na  Na37  1  0.83604317  0.34486445  0.33111889  1
  Na  Na38  1  0.16375590  0.65499065  0.16891307  1
  Na  Na39  1  0.66372148  0.65495915  0.16898365  1
  Na  Na40  1  0.16319199  0.67184861  0.66864151  1
  Na  Na41  1  0.66727878  0.66764673  0.66685108  1
  Si  Si0  1  0.35498668  0.70644415  0.24976915  1
  Si  Si1  1  0.85493923  0.70635925  0.24974952  1
  Si  Si2  1  0.00186107  0.29345795  0.25012513  1
  Si  Si3  1  0.50187225  0.29342382  0.25012811  1
  Si  Si4  1  0.64377584  0.28693187  0.75029386  1
  Si  Si5  1  0.00343596  0.71323478  0.74992030  1
  Si  Si6  1  0.49884701  0.71140386  0.74972057  1
  Si  Si7  1  0.35266892  0.99834029  0.74973580  1
  Si  Si8  1  0.85878765  0.00576698  0.74994485  1
  Si  Si9  1  0.47842235  0.33344807  0.58195452  1
  Si  Si10  1  0.97702390  0.33305991  0.58417604  1
  Si  Si11  1  0.18998254  0.04736725  0.58367729  1
  Si  Si12  1  0.69032654  0.04767944  0.58378140  1
  Si  Si13  1  0.33288883  0.61819679  0.58433613  1
  Si  Si14  1  0.83174993  0.61554969  0.58325538  1
  Si  Si15  1  0.47891195  0.62466591  0.08268447  1
  Si  Si16  1  0.97896843  0.62452076  0.08257299  1
  Si  Si17  1  0.33173715  0.04938340  0.08392468  1
  Si  Si18  1  0.83173701  0.04927652  0.08406667  1
  Si  Si19  1  0.19061174  0.33250700  0.08465739  1
  Si  Si20  1  0.69065314  0.33237534  0.08452982  1
  Si  Si21  1  0.30864018  0.66658120  0.91540428  1
  Si  Si22  1  0.80842142  0.66351438  0.91745040  1
  Si  Si23  1  0.02422756  0.38113575  0.91533475  1
  Si  Si24  1  0.52323965  0.38046631  0.91628159  1
  Si  Si25  1  0.16685657  0.95780387  0.91783192  1
  Si  Si26  1  0.66640390  0.95321549  0.91660907  1
  Si  Si27  1  0.30700182  0.95041137  0.41621442  1
  Si  Si28  1  0.80715542  0.95064656  0.41600052  1
  Si  Si29  1  0.16659291  0.37554936  0.41741152  1
  Si  Si30  1  0.66669237  0.37544304  0.41749446  1
  Si  Si31  1  0.02436719  0.66725533  0.41525269  1
  Si  Si32  1  0.52430776  0.66732130  0.41518928  1
  Ge  Ge0  1  0.99198988  0.99467047  0.35451739  1
  Ge  Ge1  1  0.49207906  0.99486820  0.35462208  1
  Ge  Ge2  1  0.99283183  0.98884555  0.85543759  1
  Ge  Ge3  1  0.49883499  0.00030140  0.85265251  1
  Ge  Ge4  1  0.99537916  0.98457684  0.64493553  1
  Ge  Ge5  1  0.49920955  0.99923341  0.64732446  1
  Ge  Ge6  1  0.99476023  0.00512736  0.14562233  1
  Ge  Ge7  1  0.49475249  0.00519604  0.14554521  1
  Ge  Ge8  1  0.33881116  0.33083329  0.68322368  1
  Ge  Ge9  1  0.83739559  0.33637718  0.68838033  1
  Ge  Ge10  1  0.34314404  0.35285544  0.18482810  1
  Ge  Ge11  1  0.84312029  0.35292878  0.18482995  1
  Ge  Ge12  1  0.33295749  0.33508251  0.98031865  1
  Ge  Ge13  1  0.83281144  0.33342568  0.98015074  1
  Ge  Ge14  1  0.33294301  0.33274109  0.47993899  1
  Ge  Ge15  1  0.83362861  0.33171266  0.48017087  1
  Ge  Ge16  1  0.16650786  0.66612825  0.01979370  1
  Ge  Ge17  1  0.66652569  0.66662660  0.02020517  1
  Ge  Ge18  1  0.16563941  0.66559594  0.52000705  1
  Ge  Ge19  1  0.66610222  0.66655684  0.51963801  1
  Ge  Ge20  1  0.16654238  0.64744103  0.31512477  1
  Ge  Ge21  1  0.66650308  0.64728733  0.31515705  1
  Ge  Ge22  1  0.16578036  0.68371459  0.81564076  1
  Ge  Ge23  1  0.66725126  0.66752424  0.81284087  1
  S  S0  1  0.14314471  0.00014905  0.25008752  1
  S  S1  1  0.64314801  0.00015912  0.25008024  1
  S  S2  1  0.14343047  0.28620627  0.74997662  1
  O  O0  1  0.10319337  0.02807386  0.30642802  1
  O  O1  1  0.60321199  0.02807757  0.30641340  1
  O  O2  1  0.41617496  0.79568070  0.31156226  1
  O  O3  1  0.91619290  0.79558923  0.31151680  1
  O  O4  1  0.48034866  0.16324561  0.31043206  1
  O  O5  1  0.98042183  0.16326723  0.31043270  1
  O  O6  1  0.10440095  0.17983969  0.80616362  1
  O  O7  1  0.60124506  0.16045726  0.81068601  1
  O  O8  1  0.47744683  0.79443758  0.81052868  1
  O  O9  1  0.98147540  0.79972661  0.81066103  1
  O  O10  1  0.41773328  0.04453474  0.81038669  1
  O  O11  1  0.91795015  0.03640863  0.81202166  1
  O  O12  1  0.39629266  0.95762793  0.68915690  1
  O  O13  1  0.90022912  0.95981863  0.68947486  1
  O  O14  1  0.08974024  0.20597024  0.69338277  1
  O  O15  1  0.57977483  0.20412527  0.68937812  1
  O  O16  1  0.01949525  0.83429048  0.68835313  1
  O  O17  1  0.52043638  0.83716182  0.68923434  1
  O  O18  1  0.39859741  0.83696831  0.18958220  1
  O  O19  1  0.89860937  0.83696031  0.18956634  1
  O  O20  1  0.01828990  0.20432679  0.18846846  1
  O  O21  1  0.51827769  0.20431401  0.18848191  1
  O  O22  1  0.08902632  0.97201849  0.19349057  1
  O  O23  1  0.58903820  0.97203496  0.19348415  1
  O  O24  1  0.44003254  0.38105145  0.64332895  1
  O  O25  1  0.93418508  0.37982852  0.64200403  1
  O  O26  1  0.25594611  0.13529990  0.64252787  1
  O  O27  1  0.75365879  0.13130774  0.64428704  1
  O  O28  1  0.31157972  0.49080827  0.64492917  1
  O  O29  1  0.81142430  0.49379115  0.64413240  1
  O  O30  1  0.43956806  0.49390666  0.14093771  1
  O  O31  1  0.93957666  0.49398460  0.14090415  1
  O  O32  1  0.31140435  0.13301964  0.14495999  1
  O  O33  1  0.81149297  0.13323138  0.14498598  1
  O  O34  1  0.25720332  0.37568675  0.14266570  1
  O  O35  1  0.75722935  0.37579921  0.14261386  1
  O  O36  1  0.22956706  0.28869570  0.02229399  1
  O  O37  1  0.72980172  0.28863871  0.02217898  1
  O  O38  1  0.41459223  0.54362290  0.02196724  1
  O  O39  1  0.91462400  0.54337881  0.02186929  1
  O  O40  1  0.35461134  0.17439011  0.02299617  1
  O  O41  1  0.85470860  0.17391370  0.02297270  1
  O  O42  1  0.22967812  0.17094010  0.52242800  1
  O  O43  1  0.73106265  0.17145043  0.52258320  1
  O  O44  1  0.35470778  0.53605640  0.52335711  1
  O  O45  1  0.85489012  0.53620960  0.52225125  1
  O  O46  1  0.41347106  0.28928867  0.52222601  1
  O  O47  1  0.91494427  0.28629521  0.52199341  1
  O  O48  1  0.26805550  0.71007814  0.97689812  1
  O  O49  1  0.76851109  0.70980614  0.97800646  1
  O  O50  1  0.08561929  0.45961037  0.97771783  1
  O  O51  1  0.58631811  0.46237359  0.97738264  1
  O  O52  1  0.14327622  0.82995803  0.97793101  1
  O  O53  1  0.64537452  0.82827884  0.97732149  1
  O  O54  1  0.26749675  0.82543262  0.47722265  1
  O  O55  1  0.76784110  0.82600318  0.47697453  1
  O  O56  1  0.14332479  0.45668128  0.47803458  1
  O  O57  1  0.64311537  0.45675703  0.47792687  1
  O  O58  1  0.08553774  0.71170657  0.47785662  1
  O  O59  1  0.58542211  0.71131676  0.47772810  1
  O  O60  1  0.06924063  0.62421080  0.35739476  1
  O  O61  1  0.56909897  0.62402513  0.35734771  1
  O  O62  1  0.24471748  0.86688015  0.35501536  1
  O  O63  1  0.74476059  0.86688000  0.35490632  1
  O  O64  1  0.19245284  0.50600345  0.35907259  1
  O  O65  1  0.69238717  0.50597817  0.35910584  1
  O  O66  1  0.06850036  0.51316622  0.85746301  1
  O  O67  1  0.56477908  0.50619567  0.85583800  1
  O  O68  1  0.19242123  0.87889429  0.85903238  1
  O  O69  1  0.68828613  0.87047103  0.85583958  1
  O  O70  1  0.24458649  0.62234365  0.85476338  1
  O  O71  1  0.74734145  0.62360446  0.85601530  1
  O  O72  1  0.01429432  0.84483542  0.40888584  1
  O  O73  1  0.51423511  0.84479066  0.40885920  1
  O  O74  1  0.40647935  0.97308253  0.41205203  1
  O  O75  1  0.90662963  0.97314726  0.41197685  1
  O  O76  1  0.07887519  0.17889078  0.40809255  1
  O  O77  1  0.57879534  0.17891879  0.40804683  1
  O  O78  1  0.01463812  0.18379566  0.90892098  1
  O  O79  1  0.51315114  0.18360956  0.91066059  1
  O  O80  1  0.07929462  0.97943973  0.90850100  1
  O  O81  1  0.57809576  0.97294276  0.91071213  1
  O  O82  1  0.40720893  0.84286494  0.91023957  1
  O  O83  1  0.90735486  0.84051832  0.91285941  1
  O  O84  1  0.48650508  0.15575002  0.58856171  1
  O  O85  1  0.98944218  0.15895705  0.59248398  1
  O  O86  1  0.09182038  0.02870503  0.59071008  1
  O  O87  1  0.59157928  0.02613790  0.58923192  1
  O  O88  1  0.42117702  0.81485641  0.58990645  1
  O  O89  1  0.92041474  0.81427491  0.58728679  1
  O  O90  1  0.48942527  0.82105612  0.09207825  1
  O  O91  1  0.98942842  0.82103020  0.09199608  1
  O  O92  1  0.41994831  0.02679999  0.08805111  1
  O  O93  1  0.92001812  0.02681777  0.08801079  1
  O  O94  1  0.09180519  0.15509988  0.09100015  1
  O  O95  1  0.59185892  0.15517403  0.09101746  1
  O  O96  1  0.34706591  0.18038854  0.74308921  1
  O  O97  1  0.84451342  0.17501107  0.74439575  1
  O  O98  1  0.23325617  0.30667346  0.74623984  1
  O  O99  1  0.74153629  0.30764250  0.74462818  1
  O  O100  1  0.40880485  0.51438652  0.74365449  1
  O  O101  1  0.91119806  0.52331350  0.74398780  1
  O  O102  1  0.34482486  0.51122017  0.24358643  1
  O  O103  1  0.84486142  0.51124360  0.24358416  1
  O  O104  1  0.40836762  0.29734596  0.24349038  1
  O  O105  1  0.90837259  0.29732450  0.24348720  1
  O  O106  1  0.23229336  0.15840418  0.24672891  1
  O  O107  1  0.73232308  0.15842347  0.24671062  1
  O  O108  1  0.31930933  0.49098226  0.92189736  1
  O  O109  1  0.81980660  0.48920493  0.92258548  1
  O  O110  1  0.42498202  0.36007089  0.92258038  1
  O  O111  1  0.92570051  0.35886909  0.92237545  1
  O  O112  1  0.25497541  0.15313228  0.92358403  1
  O  O113  1  0.75501225  0.14940290  0.92253366  1
  O  O114  1  0.31930201  0.14845353  0.42224185  1
  O  O115  1  0.81948217  0.14861502  0.42197763  1
  O  O116  1  0.25480425  0.35676488  0.42359858  1
  O  O117  1  0.75480615  0.35646529  0.42361143  1
  O  O118  1  0.42567468  0.49227365  0.42223790  1
  O  O119  1  0.92587914  0.49200923  0.42217390  1
  O  O120  1  0.17980816  0.50791821  0.07779661  1
  O  O121  1  0.67971989  0.50774293  0.07779189  1
  O  O122  1  0.07649111  0.64316824  0.07637973  1
  O  O123  1  0.57642952  0.64342793  0.07647640  1
  O  O124  1  0.24507245  0.85120943  0.07763307  1
  O  O125  1  0.74510536  0.85130942  0.07797658  1
  O  O126  1  0.17972829  0.85101231  0.57768315  1
  O  O127  1  0.68018320  0.85069731  0.57742978  1
  O  O128  1  0.24510465  0.63925590  0.57793065  1
  O  O129  1  0.74502747  0.63999205  0.57714353  1
  O  O130  1  0.07519238  0.50926514  0.57735773  1
  O  O131  1  0.57575173  0.51044422  0.57684569  1
  O  O132  1  0.15305832  0.84159719  0.25339656  1
  O  O133  1  0.65307617  0.84161271  0.25339215  1
  O  O134  1  0.25958642  0.70249399  0.25645958  1
  O  O135  1  0.75959983  0.70248509  0.25642837  1
  O  O136  1  0.08925496  0.48871430  0.25630033  1
  O  O137  1  0.58924650  0.48873108  0.25629067  1
  O  O138  1  0.15365067  0.46465081  0.75348647  1
  O  O139  1  0.65308104  0.48336013  0.75590858  1
  O  O140  1  0.09025144  0.69128579  0.75659947  1
  O  O141  1  0.58698185  0.69140078  0.75544789  1
  O  O142  1  0.25805885  0.81402575  0.75657803  1
  O  O143  1  0.76028108  0.82557608  0.75560018  1
loop_
_geom_bond_atom_site_label_1
_geom_bond_atom_site_label_2
_geom_bond_distance
_geom_bond_site_symmetry_2
Na0 O104 2.275537 1_565
Na0 O134 2.275614 1_555
Na0 O106 2.500298 1_565
Na0 O132 2.500591 1_555
Na0 O32 2.590635 1_565
Na0 O62 2.595738 1_555
Na0 O4 2.779460 1_565
Na0 O18 2.782571 1_555
Na1 O135 2.275648 1_555
Na1 O105 2.275761 1_565
Na1 O107 2.498890 1_565
Na1 O133 2.499028 1_555
Na1 O33 2.591077 1_565
Na1 O63 2.592247 1_555
Na1 O5 2.781129 1_565
Na1 O19 2.784348 1_555
Na2 O142 2.271394 1_555
Na2 O100 2.322130 1_555
Na2 O138 2.480759 1_555
Na2 O98 2.489381 1_555
Na2 O70 2.574104 1_555
Na2 O28 2.586244 1_555
Na2 O8 2.746256 1_555
Na2 O12 2.789454 1_555
Na3 O101 2.291539 1_555
Na3 O143 2.345684 1_555
Na3 O99 2.462277 1_555
Na3 O139 2.481725 1_555
Na3 O29 2.565429 1_555
Na3 O71 2.590827 1_555
Na3 O13 2.812972 1_555
Na3 O9 2.821049 1_555
Na4 O139 2.333167 1_555
Na4 O96 2.347721 1_555
Na4 O141 2.463279 1_555
Na4 O100 2.519506 1_555
Na4 O67 2.554755 1_555
Na4 O24 2.586461 1_555
Na4 O10 2.769125 1_555
Na4 O15 2.771030 1_555
Na5 O99 2.353385 1_555
Na5 O141 2.377917 1_545
Na5 O97 2.418038 1_555
Na5 O143 2.470343 1_545
Na5 O27 2.572401 1_555
Na5 O69 2.588855 1_545
Na5 O17 2.811986 1_545
Na5 O7 2.813750 1_555
Na6 O128 2.335961 1_555
Na6 O86 2.348760 1_555
Na6 O85 2.438108 1_455
Na6 O130 2.452084 1_555
Na6 O56 2.524453 1_555
Na6 O14 2.655356 1_555
Na6 O42 2.774945 1_555
Na6 O28 2.803440 1_555
Na7 O87 2.348414 1_555
Na7 O129 2.357336 1_555
Na7 O131 2.470180 1_555
Na7 O84 2.471935 1_555
Na7 O57 2.572368 1_555
Na7 O15 2.577593 1_555
Na7 O29 2.773348 1_555
Na7 O43 2.795842 1_555
Na8 O130 2.332999 1_555
Na8 O89 2.373804 1_455
Na8 O126 2.466034 1_555
Na8 O86 2.512226 1_565
Na8 O16 2.552138 1_555
Na8 O58 2.564225 1_555
Na8 O25 2.732059 1_455
Na8 O45 2.789038 1_455
Na9 O88 2.349918 1_555
Na9 O131 2.359156 1_555
Na9 O87 2.451907 1_565
Na9 O127 2.458794 1_555
Na9 O59 2.553901 1_555
Na9 O17 2.573452 1_555
Na9 O24 2.778861 1_555
Na9 O44 2.787210 1_555
Na10 O126 2.351246 1_555
Na10 O84 2.352536 1_565
Na10 O128 2.459530 1_555
Na10 O88 2.467844 1_555
Na10 O12 2.550346 1_555
Na10 O54 2.582224 1_555
Na10 O26 2.780368 1_565
Na10 O46 2.814147 1_565
Na11 O127 2.334267 1_555
Na11 O85 2.402677 1_565
Na11 O129 2.477393 1_555
Na11 O89 2.485975 1_555
Na11 O55 2.584995 1_555
Na11 O13 2.597344 1_555
Na11 O47 2.773410 1_565
Na11 O27 2.778811 1_565
Na12 O124 2.337981 1_555
Na12 O94 2.340995 1_565
Na12 O91 2.443122 1_455
Na12 O122 2.450778 1_555
Na12 O52 2.534741 1_554
Na12 O22 2.642527 1_555
Na12 O36 2.781992 1_565
Na12 O32 2.788165 1_565
Na13 O95 2.338395 1_565
Na13 O125 2.340191 1_555
Na13 O90 2.441976 1_555
Na13 O123 2.449773 1_555
Na13 O53 2.557534 1_554
Na13 O23 2.645293 1_555
Na13 O37 2.779556 1_565
Na13 O33 2.793159 1_565
Na14 O120 2.337822 1_555
Na14 O90 2.406822 1_555
Na14 O124 2.474244 1_555
Na14 O92 2.480853 1_565
Na14 O18 2.580036 1_555
Na14 O48 2.586117 1_554
Na14 O38 2.769856 1_555
Na14 O34 2.781016 1_555
Na15 O121 2.338252 1_555
Na15 O91 2.407149 1_555
Na15 O125 2.475319 1_555
Na15 O93 2.482837 1_565
Na15 O49 2.565999 1_554
Na15 O19 2.575150 1_555
Na15 O39 2.775010 1_555
Na15 O35 2.775082 1_555
Na16 O122 2.350336 1_555
Na16 O93 2.376973 1_455
Na16 O120 2.454024 1_555
Na16 O94 2.500497 1_555
Na16 O20 2.558533 1_555
Na16 O50 2.566008 1_554
Na16 O31 2.687717 1_455
Na16 O41 2.794917 1_455
Na17 O123 2.354472 1_555
Na17 O92 2.375474 1_555
Na17 O121 2.453253 1_555
Na17 O95 2.499130 1_555
Na17 O21 2.557016 1_555
Na17 O51 2.581826 1_554
Na17 O30 2.688469 1_555
Na17 O40 2.796080 1_555
Na18 O81 2.349105 1_555
Na18 O110 2.352642 1_555
Na18 O108 2.469990 1_555
Na18 O82 2.473465 1_555
Na18 O38 2.559888 1_556
Na18 O8 2.577544 1_555
Na18 O53 2.797654 1_555
Na18 O67 2.798322 1_555
Na19 O111 2.340926 1_555
Na19 O80 2.416462 1_655
Na19 O109 2.473421 1_555
Na19 O83 2.481162 1_555
Na19 O39 2.556188 1_556
Na19 O9 2.593662 1_555
Na19 O66 2.760311 1_655
Na19 O52 2.766372 1_655
Na20 O82 2.344295 1_545
Na20 O112 2.369010 1_555
Na20 O110 2.465434 1_555
Na20 O79 2.468558 1_555
Na20 O10 2.566850 1_555
Na20 O40 2.593125 1_556
Na20 O68 2.692713 1_545
Na20 O48 2.800408 1_545
Na21 O113 2.324702 1_555
Na21 O83 2.379251 1_545
Na21 O111 2.447135 1_555
Na21 O78 2.504111 1_655
Na21 O11 2.562461 1_555
Na21 O41 2.580444 1_556
Na21 O69 2.774228 1_545
Na21 O49 2.818004 1_545
Na22 O108 2.329804 1_555
Na22 O78 2.337322 1_555
Na22 O80 2.447956 1_545
Na22 O112 2.458492 1_555
Na22 O36 2.531007 1_556
Na22 O6 2.650981 1_555
Na22 O50 2.755060 1_555
Na22 O70 2.803770 1_555
Na23 O79 2.349736 1_555
Na23 O109 2.352776 1_555
Na23 O81 2.456403 1_545
Na23 O113 2.464762 1_555
Na23 O37 2.560530 1_556
Na23 O7 2.564051 1_555
Na23 O51 2.799774 1_555
Na23 O71 2.811158 1_555
Na24 O118 2.342718 1_555
Na24 O77 2.406086 1_555
Na24 O114 2.478623 1_555
Na24 O74 2.482964 1_545
Na24 O46 2.577435 1_555
Na24 O4 2.578429 1_555
Na24 O57 2.767566 1_555
Na24 O61 2.774958 1_555
Na25 O119 2.335737 1_555
Na25 O76 2.410077 1_655
Na25 O115 2.472769 1_555
Na25 O75 2.482407 1_545
Na25 O47 2.550116 1_555
Na25 O5 2.584196 1_555
Na25 O56 2.770864 1_655
Na25 O60 2.779094 1_655
Na26 O72 2.336572 1_545
Na26 O114 2.337039 1_555
Na26 O76 2.442350 1_555
Na26 O116 2.453064 1_555
Na26 O42 2.543992 1_555
Na26 O0 2.638312 1_555
Na26 O58 2.776713 1_545
Na26 O62 2.795296 1_545
Na27 O115 2.338825 1_555
Na27 O73 2.339389 1_545
Na27 O77 2.441871 1_555
Na27 O117 2.447073 1_555
Na27 O43 2.547432 1_555
Na27 O1 2.642436 1_555
Na27 O59 2.778977 1_545
Na27 O63 2.801563 1_545
Na28 O116 2.352965 1_555
Na28 O74 2.374845 1_555
Na28 O118 2.450069 1_555
Na28 O73 2.499272 1_555
Na28 O2 2.557360 1_555
Na28 O44 2.599131 1_555
Na28 O64 2.682192 1_555
Na28 O54 2.804940 1_555
Na29 O117 2.350848 1_555
Na29 O75 2.379067 1_555
Na29 O119 2.453188 1_555
Na29 O72 2.502825 1_655
Na29 O3 2.561346 1_555
Na29 O45 2.574922 1_555
Na29 O65 2.681397 1_555
Na29 O55 2.802235 1_555
Na30 O89 2.439744 1_455
Na30 O75 2.441667 1_455
Na30 O86 2.465654 1_565
Na30 O72 2.472610 1_555
Na30 O76 2.490731 1_565
Na30 O85 2.497764 1_465
Na31 O84 2.423758 1_565
Na31 O87 2.426386 1_565
Na31 O74 2.458310 1_555
Na31 O88 2.463884 1_555
Na31 O73 2.481808 1_555
Na31 O77 2.506837 1_565
Na32 O83 2.428555 1_444
Na32 O93 2.445331 1_455
Na32 O94 2.455492 1_555
Na32 O78 2.484060 1_554
Na32 O80 2.485647 1_544
Na32 O91 2.491207 1_445
Na33 O81 2.436486 1_545
Na33 O79 2.444306 1_555
Na33 O82 2.445557 1_545
Na33 O92 2.465325 1_556
Na33 O95 2.479990 1_556
Na33 O90 2.507512 1_546
Na34 O96 2.413123 1_555
Na34 O112 2.437254 1_555
Na34 O110 2.452311 1_555
Na34 O100 2.476830 1_555
Na34 O108 2.477071 1_555
Na34 O98 2.493195 1_555
Na35 O97 2.378714 1_555
Na35 O101 2.423655 1_555
Na35 O111 2.441663 1_555
Na35 O99 2.449275 1_555
Na35 O109 2.500383 1_555
Na35 O113 2.519457 1_555
Na36 O102 2.352686 1_555
Na36 O104 2.429404 1_555
Na36 O118 2.443126 1_555
Na36 O116 2.497584 1_555
Na36 O106 2.507106 1_555
Na36 O114 2.546931 1_555
Na37 O103 2.355331 1_555
Na37 O105 2.433367 1_555
Na37 O119 2.440994 1_555
Na37 O117 2.493055 1_555
Na37 O107 2.508656 1_555
Na37 O115 2.539674 1_555
Na38 O136 2.356097 1_555
Na38 O134 2.421093 1_555
Na38 O120 2.445612 1_555
Na38 O122 2.487361 1_555
Na38 O132 2.517427 1_555
Na38 O124 2.548680 1_555
Na39 O137 2.354432 1_555
Na39 O135 2.419840 1_555
Na39 O121 2.447299 1_555
Na39 O123 2.487873 1_555
Na39 O133 2.516162 1_555
Na39 O125 2.544779 1_555
Na40 O140 2.350845 1_555
Na40 O142 2.414583 1_555
Na40 O126 2.451295 1_555
Na40 O130 2.464832 1_555
Na40 O128 2.535243 1_555
Na40 O138 2.535243 1_555
Na41 O143 2.442600 1_555
Na41 O141 2.452512 1_555
Na41 O131 2.452905 1_555
Na41 O139 2.453758 1_555
Na41 O129 2.456871 1_555
Na41 O127 2.458568 1_555
Ge0 O3 1.824207 1_555
Ge0 O5 1.854581 1_565
Ge0 O75 1.884569 1_555
Ge0 O76 1.943731 1_665
Ge0 O72 1.944778 1_655
Ge0 O0 2.098865 1_665
Ge1 O2 1.825867 1_555
Ge1 O4 1.855568 1_565
Ge1 O74 1.886592 1_555
Ge1 O77 1.940076 1_565
Ge1 O73 1.943305 1_555
Ge1 O1 2.099649 1_565
Ge2 O11 1.820811 1_565
Ge2 O9 1.837013 1_555
Ge2 O83 1.885931 1_555
Ge2 O78 1.930662 1_665
Ge2 O80 1.931789 1_655
Ge2 O6 2.123927 1_665
Ge3 O7 1.874191 1_555
Ge3 O8 1.877826 1_545
Ge3 O10 1.882990 1_555
Ge3 O79 1.947947 1_555
Ge3 O82 1.961273 1_545
Ge3 O81 1.971652 1_545
Ge4 O16 1.831810 1_655
Ge4 O13 1.844627 1_555
Ge4 O89 1.876163 1_555
Ge4 O86 1.935039 1_665
Ge4 O85 1.950471 1_565
Ge4 O14 2.086020 1_665
Ge5 O15 1.865541 1_565
Ge5 O17 1.873308 1_555
Ge5 O12 1.885586 1_555
Ge5 O88 1.945079 1_555
Ge5 O84 1.966115 1_565
Ge5 O87 1.972244 1_565
Ge6 O20 1.826053 1_655
Ge6 O19 1.857394 1_545
Ge6 O93 1.882893 1_555
Ge6 O91 1.945945 1_545
Ge6 O94 1.950971 1_655
Ge6 O22 2.085432 1_645
Ge7 O21 1.826465 1_555
Ge7 O18 1.858662 1_545
Ge7 O92 1.881674 1_555
Ge7 O90 1.944225 1_545
Ge7 O95 1.950304 1_555
Ge7 O23 2.086732 1_545
Ge8 O26 1.817528 1_555
Ge8 O24 1.820076 1_555
Ge8 O28 1.883864 1_555
Ge8 O96 1.908425 1_555
Ge8 O100 1.948967 1_555
Ge8 O98 2.225166 1_555
Ge9 O25 1.842319 1_555
Ge9 O27 1.903854 1_555
Ge9 O101 1.911813 1_555
Ge9 O29 1.912450 1_555
Ge9 O97 1.916632 1_555
Ge9 O99 1.989539 1_555
Ge10 O30 1.792586 1_555
Ge10 O34 1.851566 1_555
Ge10 O102 1.867302 1_555
Ge10 O32 1.915073 1_555
Ge10 O104 1.924957 1_555
Ge10 O106 2.279193 1_555
Ge11 O31 1.793346 1_555
Ge11 O35 1.851563 1_555
Ge11 O103 1.866545 1_555
Ge11 O33 1.914223 1_555
Ge11 O105 1.925702 1_555
Ge11 O107 2.278637 1_555
Ge12 O40 1.875475 1_556
Ge12 O36 1.882796 1_556
Ge12 O38 1.885079 1_556
Ge12 O112 1.925407 1_555
Ge12 O108 1.964862 1_555
Ge12 O110 1.967594 1_555
Ge13 O41 1.870691 1_556
Ge13 O37 1.881381 1_556
Ge13 O39 1.893905 1_556
Ge13 O113 1.945189 1_555
Ge13 O109 1.946836 1_555
Ge13 O111 1.978515 1_555
Ge14 O46 1.870663 1_555
Ge14 O44 1.870758 1_555
Ge14 O42 1.892410 1_555
Ge14 O116 1.919196 1_555
Ge14 O114 1.953550 1_555
Ge14 O118 1.977378 1_555
Ge15 O45 1.867754 1_555
Ge15 O43 1.880810 1_555
Ge15 O47 1.887638 1_555
Ge15 O117 1.934358 1_555
Ge15 O115 1.949983 1_555
Ge15 O119 1.979570 1_555
Ge16 O48 1.870867 1_554
Ge16 O50 1.875593 1_554
Ge16 O52 1.906412 1_554
Ge16 O122 1.930024 1_555
Ge16 O124 1.956458 1_555
Ge16 O120 1.971552 1_555
Ge17 O51 1.868704 1_554
Ge17 O49 1.871688 1_554
Ge17 O53 1.879816 1_554
Ge17 O123 1.926106 1_555
Ge17 O125 1.953950 1_555
Ge17 O121 1.969429 1_555
Ge18 O58 1.876491 1_555
Ge18 O54 1.876622 1_555
Ge18 O56 1.894621 1_555
Ge18 O130 1.945479 1_555
Ge18 O126 1.958497 1_555
Ge18 O128 1.968273 1_555
Ge19 O55 1.873180 1_555
Ge19 O59 1.875648 1_555
Ge19 O57 1.895348 1_555
Ge19 O131 1.942125 1_555
Ge19 O127 1.951642 1_555
Ge19 O129 1.956234 1_555
Ge20 O64 1.792399 1_555
Ge20 O60 1.856115 1_555
Ge20 O136 1.864886 1_555
Ge20 O62 1.911664 1_555
Ge20 O134 1.932727 1_555
Ge20 O132 2.269494 1_555
Ge21 O65 1.791215 1_555
Ge21 O61 1.856710 1_555
Ge21 O137 1.864750 1_555
Ge21 O63 1.911472 1_555
Ge21 O135 1.934089 1_555
Ge21 O133 2.270679 1_555
Ge22 O68 1.790064 1_555
Ge22 O66 1.851355 1_555
Ge22 O140 1.861707 1_555
Ge22 O70 1.909037 1_555
Ge22 O142 1.931984 1_555
Ge22 O138 2.258766 1_555
Ge23 O69 1.867043 1_555
Ge23 O71 1.876015 1_555
Ge23 O67 1.888717 1_555
Ge23 O139 1.939506 1_555
Ge23 O141 1.961598 1_555
Ge23 O143 1.969662 1_555
O0 S0 1.488272 1_555
O1 S1 1.487971 1_555
O2 Si0 1.641924 1_555
O3 Si1 1.641932 1_555
O4 Si3 1.654252 1_555
O5 Si2 1.654547 1_655
O6 S2 1.482251 1_555
O7 Si4 1.639865 1_555
O8 Si6 1.635097 1_555
O9 Si5 1.655434 1_655
O10 Si7 1.647319 1_545
O11 Si8 1.632472 1_555
O12 Si7 1.646109 1_555
O13 Si8 1.643202 1_565
O14 S2 1.485291 1_555
O15 Si4 1.641169 1_555
O16 Si5 1.643338 1_555
O17 Si6 1.635274 1_555
O18 Si0 1.654750 1_555
O19 Si1 1.655120 1_555
O20 Si2 1.641902 1_555
O21 Si3 1.641443 1_555
O22 S0 1.489815 1_565
O23 S1 1.489726 1_565
O24 Si9 1.636116 1_555
O25 Si10 1.615619 1_555
O26 Si11 1.626446 1_555
O27 Si12 1.629443 1_555
O28 Si13 1.645701 1_555
O29 Si14 1.625033 1_555
O30 Si15 1.615367 1_555
O31 Si16 1.615789 1_555
O32 Si17 1.633608 1_555
O33 Si18 1.632428 1_555
O34 Si19 1.621030 1_555
O35 Si20 1.621862 1_555
O36 Si19 1.644177 1_555
O37 Si20 1.645474 1_555
O38 Si15 1.638901 1_555
O39 Si16 1.638943 1_555
O40 Si17 1.637252 1_555
O41 Si18 1.638248 1_555
O42 Si11 1.638099 1_555
O43 Si12 1.639831 1_555
O44 Si13 1.637090 1_555
O45 Si14 1.634709 1_555
O46 Si9 1.632284 1_555
O47 Si10 1.644936 1_555
O48 Si21 1.643004 1_555
O49 Si22 1.631066 1_555
O50 Si23 1.642910 1_555
O51 Si24 1.636282 1_555
O52 Si25 1.635471 1_555
O53 Si26 1.636235 1_555
O54 Si27 1.639137 1_555
O55 Si28 1.636884 1_555
O56 Si29 1.637709 1_555
O57 Si30 1.637822 1_555
O58 Si31 1.645772 1_555
O59 Si32 1.644465 1_555
O60 Si31 1.621892 1_555
O61 Si32 1.621787 1_555
O62 Si27 1.633266 1_555
O63 Si28 1.632508 1_555
O64 Si29 1.614914 1_555
O65 Si30 1.616373 1_555
O66 Si23 1.622883 1_555
O67 Si24 1.635819 1_555
O68 Si25 1.614715 1_555
O69 Si26 1.636862 1_555
O70 Si21 1.638997 1_555
O71 Si22 1.628344 1_555
O72 Si31 1.654791 1_555
O73 Si32 1.653759 1_555
O74 Si27 1.652747 1_555
O75 Si28 1.653121 1_555
O76 Si29 1.645940 1_555
O77 Si30 1.646871 1_555
O78 Si23 1.653832 1_555
O79 Si24 1.644706 1_555
O80 Si25 1.646485 1_555
O81 Si26 1.642481 1_555
O82 Si21 1.645252 1_555
O83 Si22 1.650659 1_555
O84 Si9 1.636495 1_555
O85 Si10 1.652837 1_555
O86 Si11 1.649253 1_555
O87 Si12 1.645980 1_555
O88 Si13 1.642723 1_555
O89 Si14 1.654073 1_555
O90 Si15 1.645277 1_555
O91 Si16 1.646766 1_555
O92 Si17 1.652889 1_555
O93 Si18 1.653266 1_555
O94 Si19 1.653862 1_555
O95 Si20 1.653279 1_555
O96 Si7 1.650489 1_545
O97 Si8 1.624639 1_555
O98 S2 1.492376 1_555
O99 Si4 1.632200 1_555
O100 Si6 1.658225 1_555
O101 Si5 1.641773 1_655
O102 Si0 1.630887 1_555
O103 Si1 1.630528 1_555
O104 Si3 1.658831 1_555
O105 Si2 1.658300 1_655
O106 S0 1.481881 1_555
O107 S1 1.482198 1_555
O108 Si21 1.643873 1_555
O109 Si22 1.637624 1_555
O110 Si24 1.643114 1_555
O111 Si23 1.642558 1_655
O112 Si25 1.635054 1_545
O113 Si26 1.643216 1_545
O114 Si27 1.639877 1_545
O115 Si28 1.638973 1_545
O116 Si29 1.636552 1_555
O117 Si30 1.635706 1_555
O118 Si32 1.645079 1_555
O119 Si31 1.644033 1_655
O120 Si19 1.644344 1_555
O121 Si20 1.645036 1_555
O122 Si16 1.636543 1_455
O123 Si15 1.636060 1_555
O124 Si17 1.640055 1_565
O125 Si18 1.638427 1_565
O126 Si11 1.639723 1_565
O127 Si12 1.646565 1_565
O128 Si13 1.640989 1_555
O129 Si14 1.639448 1_555
O130 Si10 1.644034 1_455
O131 Si9 1.635338 1_555
O132 S0 1.483221 1_565
O133 S1 1.483326 1_565
O134 Si0 1.658660 1_555
O135 Si1 1.657897 1_555
O136 Si2 1.630061 1_555
O137 Si3 1.630156 1_555
O138 S2 1.481149 1_555
O139 Si4 1.646726 1_555
O140 Si5 1.629226 1_555
O141 Si6 1.640590 1_555
O142 Si7 1.641758 1_555
O143 Si8 1.659895 1_565
