# generated using pymatgen
data_Na2Ti3Cl8
_symmetry_space_group_name_H-M   'P 1'
_cell_length_a   7.92797152
_cell_length_b   7.92797152
_cell_length_c   7.92797152
_cell_angle_alpha   54.79821137
_cell_angle_beta   54.79821137
_cell_angle_gamma   54.79821259
_symmetry_Int_Tables_number   1
_chemical_formula_structural   Na2Ti3Cl8
_chemical_formula_sum   'Na2 Ti3 Cl8'
_cell_volume   309.66806414
_cell_formula_units_Z   1
loop_
 _symmetry_equiv_pos_site_id
 _symmetry_equiv_pos_as_xyz
  1  'x, y, z'
loop_
 _atom_site_type_symbol
 _atom_site_label
 _atom_site_symmetry_multiplicity
 _atom_site_fract_x
 _atom_site_fract_y
 _atom_site_fract_z
 _atom_site_occupancy
  Na  Na0  1  0.15866000  0.15866000  0.15866000  1
  Na  Na1  1  0.84134000  0.84134000  0.84134000  1
  Ti  Ti0  1  0.50000000  0.50000000  0.00000000  1
  Ti  Ti1  1  0.50000000  0.00000000  0.50000000  1
  Ti  Ti2  1  0.00000000  0.50000000  0.50000000  1
  Cl  Cl0  1  0.40511400  0.40511400  0.40511400  1
  Cl  Cl1  1  0.59488600  0.59488600  0.59488600  1
  Cl  Cl2  1  0.57869400  0.10084700  0.10084700  1
  Cl  Cl3  1  0.10084700  0.10084700  0.57869400  1
  Cl  Cl4  1  0.10084700  0.57869400  0.10084700  1
  Cl  Cl5  1  0.89915300  0.42130600  0.89915300  1
  Cl  Cl6  1  0.42130600  0.89915300  0.89915300  1
  Cl  Cl7  1  0.89915300  0.89915300  0.42130600  1
loop_
_geom_bond_atom_site_label_1
_geom_bond_atom_site_label_2
_geom_bond_distance
_geom_bond_site_symmetry_2
Cl0 Ti0 2.555081 1_555
Cl0 Ti1 2.555081 1_555
Cl0 Ti2 2.555081 1_555
Cl1 Ti0 2.555081 1_556
Cl1 Ti1 2.555081 1_565
Cl1 Ti2 2.555081 1_655
Cl2 Ti1 2.534629 1_555
Cl2 Ti0 2.534629 1_555
Cl2 Na1 2.793421 1_544
Cl2 Na0 2.869150 1_555
Cl3 Ti2 2.534629 1_555
Cl3 Ti1 2.534629 1_555
Cl3 Na1 2.793421 1_445
Cl3 Na0 2.869150 1_555
Cl4 Ti2 2.534629 1_555
Cl4 Ti0 2.534629 1_555
Cl4 Na1 2.793421 1_454
Cl4 Na0 2.869150 1_555
Cl5 Ti2 2.534629 1_655
Cl5 Ti0 2.534629 1_556
Cl5 Na0 2.793421 1_656
Cl5 Na1 2.869150 1_555
Cl6 Ti1 2.534629 1_565
Cl6 Ti0 2.534629 1_556
Cl6 Na0 2.793421 1_566
Cl6 Na1 2.869150 1_555
Cl7 Ti2 2.534629 1_655
Cl7 Ti1 2.534629 1_565
Cl7 Na0 2.793421 1_665
Cl7 Na1 2.869150 1_555
