# generated using pymatgen
data_Na3Y2Ta2SiP5O24
_symmetry_space_group_name_H-M   'P 1'
_cell_length_a   9.07634919
_cell_length_b   9.07330039
_cell_length_c   22.92862232
_cell_angle_alpha   89.93892370
_cell_angle_beta   90.13947175
_cell_angle_gamma   120.09215485
_symmetry_Int_Tables_number   1
_chemical_formula_structural   Na3Y2Ta2SiP5O24
_chemical_formula_sum   'Na9 Y6 Ta6 Si3 P15 O72'
_cell_volume   1633.72796346
_cell_formula_units_Z   3
loop_
 _symmetry_equiv_pos_site_id
 _symmetry_equiv_pos_as_xyz
  1  'x, y, z'
loop_
 _atom_site_type_symbol
 _atom_site_label
 _atom_site_symmetry_multiplicity
 _atom_site_fract_x
 _atom_site_fract_y
 _atom_site_fract_z
 _atom_site_occupancy
  Na  Na0  1  0.34679164  0.98858474  0.75207812  1
  Na  Na1  1  0.67525031  0.98353711  0.58803479  1
  Na  Na2  1  0.68586970  0.69720353  0.08156194  1
  Na  Na3  1  0.02782116  0.00029012  0.50294015  1
  Na  Na4  1  0.01965671  0.00597267  0.00258572  1
  Na  Na5  1  0.68104056  0.35126714  0.83722290  1
  Na  Na6  1  0.66318946  0.33113489  0.33583353  1
  Na  Na7  1  0.32074739  0.66647396  0.17110711  1
  Na  Na8  1  0.33036915  0.64498360  0.67064990  1
  Y  Y0  1  0.00045682  0.99663598  0.64657515  1
  Y  Y1  1  0.00879159  0.00832993  0.14762880  1
  Y  Y2  1  0.66733524  0.32994240  0.97846797  1
  Y  Y3  1  0.66341468  0.33494339  0.47714405  1
  Y  Y4  1  0.33534829  0.66765244  0.31175321  1
  Y  Y5  1  0.33756404  0.66304394  0.81407036  1
  Ta  Ta0  1  0.00026852  0.99990008  0.35242508  1
  Ta  Ta1  1  0.99264449  0.99915741  0.85259249  1
  Ta  Ta2  1  0.66852372  0.33286038  0.68521089  1
  Ta  Ta3  1  0.67070251  0.33393663  0.18669711  1
  Ta  Ta4  1  0.32682191  0.66715235  0.01869074  1
  Ta  Ta5  1  0.33127126  0.66634803  0.51850494  1
  Si  Si0  1  0.70885036  0.01189482  0.74616767  1
  Si  Si1  1  0.37220121  0.03121906  0.58161300  1
  Si  Si2  1  0.96380924  0.62154698  0.08291343  1
  P  P0  1  0.30272545  0.01736650  0.25079972  1
  P  P1  1  0.71573135  0.69908913  0.24792360  1
  P  P2  1  0.98214508  0.28582956  0.25074770  1
  P  P3  1  0.30005840  0.28583785  0.75032796  1
  P  P4  1  0.98449713  0.70000928  0.75238461  1
  P  P5  1  0.96467951  0.34954707  0.58260997  1
  P  P6  1  0.65044879  0.61716718  0.58248497  1
  P  P7  1  0.65027115  0.03226485  0.08436038  1
  P  P8  1  0.38265743  0.34820421  0.08270832  1
  P  P9  1  0.63753839  0.68187679  0.91817872  1
  P  P10  1  0.04858918  0.36392219  0.91609810  1
  P  P11  1  0.31539735  0.95182850  0.91400826  1
  P  P12  1  0.63670078  0.95174477  0.41657930  1
  P  P13  1  0.31575217  0.36574611  0.41519541  1
  P  P14  1  0.05047188  0.68381815  0.41522606  1
  O  O0  1  0.19946654  0.03281157  0.30506606  1
  O  O1  1  0.83678169  0.80398973  0.30159947  1
  O  O2  1  0.96750228  0.16746312  0.30489541  1
  O  O3  1  0.20363232  0.16550030  0.80469464  1
  O  O4  1  0.96749151  0.80022371  0.80687583  1
  O  O5  1  0.83762247  0.02545179  0.80339165  1
  O  O6  1  0.77965506  0.98545511  0.68622801  1
  O  O7  1  0.19945460  0.20386143  0.69580955  1
  O  O8  1  0.02588570  0.81365580  0.69909701  1
  O  O9  1  0.78951550  0.79455707  0.19160138  1
  O  O10  1  0.00491337  0.20963183  0.19578635  1
  O  O11  1  0.20008936  0.99115339  0.19607200  1
  O  O12  1  0.87006491  0.37321402  0.63795114  1
  O  O13  1  0.50039213  0.13644263  0.64136288  1
  O  O14  1  0.63616301  0.50635412  0.63815425  1
  O  O15  1  0.86127474  0.49363249  0.14153674  1
  O  O16  1  0.62984512  0.12802304  0.13934347  1
  O  O17  1  0.50182718  0.36857464  0.13744667  1
  O  O18  1  0.45754180  0.31936533  0.02853533  1
  O  O19  1  0.84328015  0.53781818  0.02840245  1
  O  O20  1  0.67925897  0.13566146  0.02982661  1
  O  O21  1  0.47212664  0.14065066  0.52703543  1
  O  O22  1  0.68329295  0.54486180  0.52840842  1
  O  O23  1  0.85624906  0.32050934  0.52957834  1
  O  O24  1  0.54466758  0.69942352  0.97428578  1
  O  O25  1  0.16759402  0.46623097  0.97075383  1
  O  O26  1  0.30491436  0.83020049  0.96767960  1
  O  O27  1  0.54017068  0.83638855  0.47284389  1
  O  O28  1  0.29889186  0.46406770  0.47023984  1
  O  O29  1  0.16832150  0.70076278  0.47061903  1
  O  O30  1  0.13126437  0.66159249  0.36165166  1
  O  O31  1  0.52898454  0.86894269  0.36368083  1
  O  O32  1  0.33604309  0.46691252  0.36102936  1
  O  O33  1  0.12512025  0.46643007  0.86186244  1
  O  O34  1  0.33567088  0.87695007  0.85788102  1
  O  O35  1  0.53473041  0.66530140  0.86442364  1
  O  O36  1  0.04616161  0.85572431  0.41027309  1
  O  O37  1  0.81126191  0.95312467  0.40959030  1
  O  O38  1  0.14439566  0.18761067  0.41004896  1
  O  O39  1  0.04707744  0.18952391  0.91099810  1
  O  O40  1  0.14471184  0.95484874  0.91268559  1
  O  O41  1  0.81493433  0.85405905  0.91184665  1
  O  O42  1  0.98597438  0.19451363  0.59080242  1
  O  O43  1  0.18062968  0.99037296  0.58536876  1
  O  O44  1  0.79023259  0.80347901  0.58883333  1
  O  O45  1  0.99054627  0.80970786  0.08919460  1
  O  O46  1  0.79316156  0.99179395  0.09203689  1
  O  O47  1  0.19918946  0.20816771  0.08993305  1
  O  O48  1  0.70926073  0.19721152  0.74205227  1
  O  O49  1  0.47605155  0.28994973  0.74598336  1
  O  O50  1  0.81436959  0.52944474  0.74529925  1
  O  O51  1  0.70945501  0.52202014  0.24472034  1
  O  O52  1  0.80796224  0.28591155  0.24610594  1
  O  O53  1  0.47633030  0.18926562  0.24608376  1
  O  O54  1  0.66917592  0.53291809  0.92096736  1
  O  O55  1  0.86732260  0.32658273  0.92337735  1
  O  O56  1  0.46529628  0.13004823  0.92180377  1
  O  O57  1  0.67498650  0.13392485  0.42246519  1
  O  O58  1  0.46322207  0.33253617  0.42060235  1
  O  O59  1  0.87023848  0.53779608  0.42212256  1
  O  O60  1  0.38705715  0.52532533  0.07735799  1
  O  O61  1  0.15071766  0.62986318  0.07328979  1
  O  O62  1  0.48009954  0.85460747  0.07709233  1
  O  O63  1  0.37487315  0.84601084  0.57539686  1
  O  O64  1  0.47687173  0.61801526  0.57626493  1
  O  O65  1  0.14262855  0.51478717  0.57641175  1
  O  O66  1  0.33573107  0.86993267  0.25717947  1
  O  O67  1  0.53576815  0.66728943  0.25534486  1
  O  O68  1  0.12704339  0.46786937  0.25702426  1
  O  O69  1  0.33242416  0.46608831  0.75585204  1
  O  O70  1  0.13442722  0.67099438  0.76037497  1
  O  O71  1  0.51293967  0.86501723  0.75412934  1
loop_
_geom_bond_atom_site_label_1
_geom_bond_atom_site_label_2
_geom_bond_distance
_geom_bond_site_symmetry_2
Na0 O71 2.286554 1_555
Na0 O49 2.378195 1_565
Na0 O70 2.546742 1_555
Na0 O34 2.610486 1_555
Na0 O3 2.797109 1_565
Na0 O8 2.798125 1_555
Na0 O48 2.866586 1_565
Na0 O13 2.884798 1_565
Na1 O44 2.338396 1_555
Na1 O63 2.378943 1_555
Na1 O6 2.437293 1_555
Na1 O42 2.491555 1_565
Na1 O13 2.856517 1_565
Na1 O64 2.885363 1_555
Na1 O27 2.934582 1_555
Na1 O23 2.967909 1_565
Na2 O46 2.353826 1_555
Na2 O60 2.356836 1_555
Na2 O45 2.426341 1_555
Na2 O9 2.681591 1_555
Na2 O19 2.775310 1_555
Na2 O24 2.775506 1_554
Na2 O62 2.865618 1_555
Na2 O17 2.886286 1_555
Na3 O43 2.369754 1_545
Na3 O36 2.547416 1_545
Na3 O38 2.597012 1_555
Na3 O37 2.786720 1_445
Na3 O44 2.805222 1_445
Na3 O42 2.826787 1_455
Na4 O40 2.508743 1_544
Na4 O45 2.589911 1_445
Na4 O39 2.612452 1_554
Na4 O47 2.650688 1_555
Na4 O41 2.664599 1_444
Na4 O46 2.864260 1_445
Na5 O50 2.561967 1_555
Na5 O54 2.569196 1_555
Na5 O49 2.663299 1_555
Na5 O48 2.673831 1_555
Na5 O55 2.678354 1_555
Na5 O56 2.773632 1_555
Na6 O53 2.562714 1_555
Na6 O52 2.585193 1_555
Na6 O51 2.609138 1_555
Na6 O58 2.666902 1_555
Na6 O57 2.709668 1_555
Na6 O59 2.723639 1_555
Na7 O61 2.644402 1_555
Na7 O68 2.655426 1_555
Na7 O66 2.660048 1_555
Na7 O62 2.680303 1_555
Na7 O60 2.721761 1_555
Na7 O67 2.739805 1_555
Na8 O69 2.544578 1_555
Na8 O64 2.617788 1_555
Na8 O65 2.633802 1_555
Na8 O71 2.659050 1_555
Na8 O63 2.741714 1_555
Na8 O70 2.809028 1_555
O0 P0 1.607460 1_555
O0 Ta0 2.001150 1_545
O1 P1 1.604672 1_555
O1 Ta0 2.017578 1_655
O2 P2 1.602284 1_555
O2 Ta0 2.008942 1_645
O3 P3 1.598805 1_555
O3 Ta1 2.063891 1_445
O4 P4 1.598664 1_555
O4 Ta1 1.999626 1_555
O5 Si0 1.717967 1_555
O5 Ta1 1.907252 1_545
O6 Si0 1.587117 1_565
O6 Y0 2.158245 1_655
O7 P3 1.504977 1_555
O7 Y0 2.158932 1_545
O8 P4 1.519316 1_455
O8 Y0 2.153720 1_555
O9 P1 1.512155 1_555
O9 Y1 2.207767 1_665
O10 P2 1.501719 1_455
O10 Y1 2.150681 1_555
O11 P0 1.507230 1_565
O11 Y1 2.129390 1_565
O12 P5 1.607631 1_555
O12 Ta2 1.997901 1_555
O13 Si1 1.738736 1_555
O13 Ta2 1.945449 1_555
O14 P6 1.588807 1_555
O14 Ta2 2.046180 1_555
O15 Si2 1.714494 1_555
O15 Ta3 1.912020 1_555
O16 P7 1.594863 1_555
O16 Ta3 2.028443 1_555
O17 P8 1.603965 1_555
O17 Ta3 2.048715 1_555
O18 P8 1.502137 1_555
O18 Y2 2.186329 1_554
O19 Si2 1.580514 1_555
O19 Y2 2.096144 1_554
O20 P7 1.504789 1_555
O20 Y2 2.166109 1_554
O21 Si1 1.572976 1_555
O21 Y3 2.089703 1_555
O22 P6 1.502088 1_555
O22 Y3 2.168182 1_555
O23 P5 1.500443 1_555
O23 Y3 2.178333 1_555
O24 P9 1.590955 1_555
O24 Ta4 2.111978 1_556
O25 P10 1.609124 1_555
O25 Ta4 1.993657 1_556
O26 P11 1.622867 1_555
O26 Ta4 1.971364 1_556
O27 P12 1.615689 1_555
O27 Ta5 2.035731 1_555
O28 P13 1.597617 1_555
O28 Ta5 2.035048 1_555
O29 P14 1.615483 1_555
O29 Ta5 1.986176 1_555
O30 P14 1.496842 1_555
O30 Y4 2.156664 1_555
O31 P12 1.500328 1_555
O31 Y4 2.148885 1_555
O32 P13 1.499364 1_555
O32 Y4 2.145009 1_555
O33 P10 1.499285 1_555
O33 Y5 2.158231 1_555
O34 P11 1.509960 1_555
O34 Y5 2.194054 1_555
O35 P9 1.505501 1_555
O35 Y5 2.118747 1_555
O36 P14 1.583685 1_555
O36 Ta0 2.045498 1_555
O37 P12 1.586641 1_555
O37 Ta0 2.029946 1_655
O38 P13 1.588691 1_555
O38 Ta0 2.029742 1_545
O39 P10 1.579989 1_555
O39 Ta1 2.041279 1_445
O40 P11 1.563341 1_555
O40 Ta1 2.123932 1_455
O41 P9 1.591360 1_555
O41 Ta1 2.014485 1_555
O42 P5 1.524219 1_555
O42 Y0 2.259869 1_645
O43 Si1 1.588254 1_565
O43 Y0 2.179788 1_555
O44 P6 1.528868 1_555
O44 Y0 2.259283 1_655
O45 Si2 1.605988 1_555
O45 Y1 2.185200 1_665
O46 P7 1.524514 1_565
O46 Y1 2.274073 1_665
O47 P8 1.514592 1_555
O47 Y1 2.210871 1_555
O48 Si0 1.682118 1_555
O48 Ta2 1.949535 1_555
O49 P3 1.582381 1_555
O49 Ta2 2.115110 1_555
O50 P4 1.552013 1_555
O50 Ta2 2.112017 1_555
O51 P1 1.580588 1_555
O51 Ta3 2.050995 1_555
O52 P2 1.584636 1_555
O52 Ta3 2.032798 1_555
O53 P0 1.569452 1_555
O53 Ta3 2.091694 1_555
O54 P9 1.517278 1_555
O54 Y2 2.257049 1_555
O55 P10 1.513842 1_655
O55 Y2 2.226657 1_555
O56 P11 1.513635 1_545
O56 Y2 2.235730 1_555
O57 P12 1.515103 1_545
O57 Y3 2.259879 1_555
O58 P13 1.516994 1_555
O58 Y3 2.220707 1_555
O59 P14 1.511236 1_655
O59 Y3 2.246092 1_555
O60 P8 1.592035 1_555
O60 Ta4 2.112470 1_555
O61 Si2 1.675033 1_455
O61 Ta4 1.924331 1_555
O62 P7 1.585686 1_565
O62 Ta4 2.060189 1_555
O63 Si1 1.698884 1_565
O63 Ta5 1.967399 1_555
O64 P6 1.585399 1_555
O64 Ta5 2.064957 1_555
O65 P5 1.564946 1_455
O65 Ta5 2.057081 1_555
O66 P0 1.517180 1_565
O66 Y4 2.218784 1_555
O67 P1 1.519500 1_555
O67 Y4 2.235919 1_555
O68 P2 1.516492 1_455
O68 Y4 2.234204 1_555
O69 P3 1.515115 1_555
O69 Y5 2.213307 1_555
O70 P4 1.520733 1_455
O70 Y5 2.245545 1_555
O71 Si0 1.611189 1_565
O71 Y5 2.204777 1_555
