# generated using pymatgen
data_Na4MgCr2O8
_symmetry_space_group_name_H-M   'P 1'
_cell_length_a   6.05845973
_cell_length_b   5.91135303
_cell_length_c   6.57754744
_cell_angle_alpha   90.00000000
_cell_angle_beta   90.00000000
_cell_angle_gamma   115.37468535
_symmetry_Int_Tables_number   1
_chemical_formula_structural   Na4MgCr2O8
_chemical_formula_sum   'Na4 Mg1 Cr2 O8'
_cell_volume   212.83995035
_cell_formula_units_Z   1
loop_
 _symmetry_equiv_pos_site_id
 _symmetry_equiv_pos_as_xyz
  1  'x, y, z'
loop_
 _atom_site_type_symbol
 _atom_site_label
 _atom_site_symmetry_multiplicity
 _atom_site_fract_x
 _atom_site_fract_y
 _atom_site_fract_z
 _atom_site_occupancy
  Na  Na0  1  0.17764787  0.83456133  0.75000000  1
  Na  Na1  1  0.59065155  0.99058030  0.25000000  1
  Na  Na2  1  0.54918603  0.49873401  0.50691731  1
  Na  Na3  1  0.54918603  0.49873401  0.99308269  1
  Mg  Mg0  1  0.09688520  0.44386511  0.25000000  1
  Cr  Cr0  1  0.89956213  0.15937601  0.75000000  1
  Cr  Cr1  1  0.10713135  0.89271684  0.25000000  1
  O  O0  1  0.22231511  0.74356425  0.06010921  1
  O  O1  1  0.81725801  0.26111586  0.53469175  1
  O  O2  1  0.81725801  0.26111586  0.96530825  1
  O  O3  1  0.22231511  0.74356425  0.43989079  1
  O  O4  1  0.20213520  0.25942847  0.75000000  1
  O  O5  1  0.78798366  0.74770940  0.25000000  1
  O  O6  1  0.77207596  0.84740019  0.75000000  1
  O  O7  1  0.27174176  0.23420115  0.25000000  1
loop_
_geom_bond_atom_site_label_1
_geom_bond_atom_site_label_2
_geom_bond_distance
_geom_bond_site_symmetry_2
Na0 O3 2.155913 1_555
Na0 O0 2.155913 1_556
Na0 O4 2.451631 1_565
Na0 O6 2.490609 1_455
Na1 O5 2.227465 1_555
Na1 O0 2.424720 1_555
Na1 O3 2.424720 1_555
Na1 O1 2.463155 1_565
Na1 O2 2.463155 1_564
Na1 O7 2.862127 1_565
Na2 O5 2.299994 1_555
Na2 O7 2.423551 1_555
Na2 O6 2.498519 1_555
Na2 O4 2.535595 1_555
Na2 O1 2.568918 1_555
Na2 O3 2.944003 1_555
Na3 O5 2.299994 1_556
Na3 O7 2.423551 1_556
Na3 O6 2.498519 1_555
Na3 O4 2.535595 1_555
Na3 O2 2.568918 1_555
Na3 O0 2.944003 1_556
Mg0 O7 1.945164 1_555
Mg0 O0 2.030347 1_555
Mg0 O3 2.030347 1_555
Mg0 O2 2.444385 1_454
Mg0 O1 2.444385 1_455
Cr0 O6 1.666376 1_545
Cr0 O4 1.667612 1_655
Cr0 O1 1.694991 1_555
Cr0 O2 1.694991 1_555
Cr1 O5 1.747238 1_455
Cr1 O7 1.828673 1_565
Cr1 O0 1.830775 1_555
Cr1 O3 1.830775 1_555
