# generated using pymatgen
data_Na4Mg(Fe2O5)2
_symmetry_space_group_name_H-M   'P 1'
_cell_length_a   5.45498315
_cell_length_b   8.12050950
_cell_length_c   5.74851823
_cell_angle_alpha   69.27217266
_cell_angle_beta   89.99578836
_cell_angle_gamma   70.35962577
_symmetry_Int_Tables_number   1
_chemical_formula_structural   Na4Mg(Fe2O5)2
_chemical_formula_sum   'Na4 Mg1 Fe4 O10'
_cell_volume   222.25260519
_cell_formula_units_Z   1
loop_
 _symmetry_equiv_pos_site_id
 _symmetry_equiv_pos_as_xyz
  1  'x, y, z'
loop_
 _atom_site_type_symbol
 _atom_site_label
 _atom_site_symmetry_multiplicity
 _atom_site_fract_x
 _atom_site_fract_y
 _atom_site_fract_z
 _atom_site_occupancy
  Na  Na0  1  0.60411900  0.78152500  0.15431400  1
  Na  Na1  1  0.88549000  0.21851200  0.43593700  1
  Na  Na2  1  0.42929000  0.17648200  0.89579700  1
  Na  Na3  1  0.10602000  0.82350800  0.57217600  1
  Mg  Mg0  1  0.08138800  0.50008300  0.55073900  1
  Fe  Fe0  1  0.02278100  0.99338100  0.01120200  1
  Fe  Fe1  1  0.18043800  0.49986600  0.11496900  1
  Fe  Fe2  1  0.51643100  0.00641400  0.50451300  1
  Fe  Fe3  1  0.68179300  0.50012900  0.84134000  1
  O  O0  1  0.75412400  0.04046400  0.23760200  1
  O  O1  1  0.26491900  0.01478300  0.25264000  1
  O  O2  1  0.82791500  0.49991800  0.13865400  1
  O  O3  1  0.14668400  0.69915400  0.22375700  1
  O  O4  1  0.34612600  0.30065600  0.42298700  1
  O  O5  1  0.93157900  0.30317600  0.78111800  1
  O  O6  1  0.73451400  0.69717900  0.58418100  1
  O  O7  1  0.32752300  0.50003100  0.81593000  1
  O  O8  1  0.29461600  0.95951700  0.77803000  1
  O  O9  1  0.77975400  0.98522300  0.76744700  1
loop_
_geom_bond_atom_site_label_1
_geom_bond_atom_site_label_2
_geom_bond_distance
_geom_bond_site_symmetry_2
Na0 O2 2.235376 1_555
Na0 O6 2.357135 1_555
Na0 O1 2.394315 1_565
Na0 O8 2.401145 1_554
Na0 O9 2.657244 1_554
Na0 O0 2.681334 1_565
Na0 O3 2.786782 1_555
Na0 O3 2.801220 1_655
Na1 O2 2.234806 1_555
Na1 O5 2.356946 1_555
Na1 O9 2.394172 1_545
Na1 O0 2.401531 1_555
Na1 O1 2.657628 1_655
Na1 O8 2.681239 1_645
Na1 O4 2.784371 1_555
Na1 O4 2.802864 1_655
Na2 O0 2.317144 1_556
Na2 O9 2.329463 1_545
Na2 O7 2.363849 1_555
Na2 O1 2.370778 1_556
Na2 O8 2.411775 1_545
Na2 O4 2.522408 1_555
Na2 O5 2.550838 1_455
Na3 O8 2.316836 1_555
Na3 O1 2.328775 1_565
Na3 O7 2.363189 1_555
Na3 O9 2.371535 1_455
Na3 O0 2.411720 1_465
Na3 O3 2.522213 1_555
Na3 O6 2.551762 1_455
Mg0 O7 2.031298 1_555
Mg0 O5 2.087519 1_455
Mg0 O6 2.088280 1_455
Mg0 O3 2.123522 1_555
Mg0 O4 2.125329 1_555
Fe0 O9 1.962233 1_454
Fe0 O0 1.990734 1_465
Fe0 O1 2.006614 1_565
Fe0 O8 2.014359 1_554
Fe0 O3 2.122843 1_555
Fe0 O5 2.264742 1_464
Fe1 O4 1.886481 1_555
Fe1 O3 1.886799 1_555
Fe1 O7 1.896765 1_554
Fe1 O2 1.927680 1_455
Fe2 O1 1.962485 1_555
Fe2 O8 1.991717 1_545
Fe2 O9 2.006873 1_545
Fe2 O0 2.013024 1_555
Fe2 O4 2.122996 1_555
Fe2 O6 2.260234 1_545
Fe3 O5 1.860460 1_555
Fe3 O6 1.861014 1_555
Fe3 O2 1.885111 1_556
Fe3 O7 1.938348 1_555
