# generated using pymatgen
data_Li2Mo(PO4)2
_symmetry_space_group_name_H-M   'P 1'
_cell_length_a   4.91325472
_cell_length_b   4.91325472
_cell_length_c   6.52412673
_cell_angle_alpha   88.49663208
_cell_angle_beta   88.49663208
_cell_angle_gamma   68.07940373
_symmetry_Int_Tables_number   1
_chemical_formula_structural   Li2Mo(PO4)2
_chemical_formula_sum   'Li2 Mo1 P2 O8'
_cell_volume   146.03323871
_cell_formula_units_Z   1
loop_
 _symmetry_equiv_pos_site_id
 _symmetry_equiv_pos_as_xyz
  1  'x, y, z'
loop_
 _atom_site_type_symbol
 _atom_site_label
 _atom_site_symmetry_multiplicity
 _atom_site_fract_x
 _atom_site_fract_y
 _atom_site_fract_z
 _atom_site_occupancy
  Li  Li0  1  0.82719900  0.82719900  0.71175500  1
  Li  Li1  1  0.49582900  0.49582900  0.48672100  1
  Mo  Mo0  1  0.49647400  0.49647400  0.00559500  1
  P  P0  1  0.85130100  0.85130100  0.23927400  1
  P  P1  1  0.15428700  0.15428700  0.76245700  1
  O  O0  1  0.74815900  0.74815900  0.43508000  1
  O  O1  1  0.25507600  0.25507600  0.96345700  1
  O  O2  1  0.26328000  0.26328000  0.57491700  1
  O  O3  1  0.19428700  0.73018500  0.22441300  1
  O  O4  1  0.80755600  0.26197400  0.77432600  1
  O  O5  1  0.73018500  0.19428700  0.22441300  1
  O  O6  1  0.26197400  0.80755600  0.77432600  1
  O  O7  1  0.74322800  0.74322800  0.03988600  1
loop_
_geom_bond_atom_site_label_1
_geom_bond_atom_site_label_2
_geom_bond_distance
_geom_bond_site_symmetry_2
Li0 O0 1.935468 1_555
Li0 O6 2.151488 1_655
Li0 O4 2.151488 1_565
Li0 O7 2.226594 1_556
Li1 O2 1.961570 1_555
Li1 O0 2.071543 1_555
Li1 O5 2.281536 1_555
Li1 O3 2.281536 1_555
Li1 O6 2.431145 1_555
Li1 O4 2.431145 1_555
Mo0 O1 1.993373 1_554
Mo0 O7 2.028697 1_555
Mo0 O5 2.064665 1_555
Mo0 O3 2.064665 1_555
Mo0 O6 2.143711 1_554
Mo0 O4 2.143711 1_554
O0 P0 1.506432 1_555
O1 P1 1.568863 1_555
O2 P1 1.488602 1_555
O3 P0 1.564945 1_455
O4 P1 1.584409 1_655
O5 P0 1.564945 1_545
O6 P1 1.584409 1_565
O7 P0 1.593446 1_555
