# generated using pymatgen
data_Na3Ca3GePS5O24
_symmetry_space_group_name_H-M   'P 1'
_cell_length_a   9.10986963
_cell_length_b   9.07142979
_cell_length_c   23.19104272
_cell_angle_alpha   90.19118536
_cell_angle_beta   89.65184690
_cell_angle_gamma   120.65793959
_symmetry_Int_Tables_number   1
_chemical_formula_structural   Na3Ca3GePS5O24
_chemical_formula_sum   'Na9 Ca9 Ge3 P3 S15 O72'
_cell_volume   1648.59177505
_cell_formula_units_Z   3
loop_
 _symmetry_equiv_pos_site_id
 _symmetry_equiv_pos_as_xyz
  1  'x, y, z'
loop_
 _atom_site_type_symbol
 _atom_site_label
 _atom_site_symmetry_multiplicity
 _atom_site_fract_x
 _atom_site_fract_y
 _atom_site_fract_z
 _atom_site_occupancy
  Na  Na0  1  0.35586767  0.35286509  0.25517588  1
  Na  Na1  1  0.03309424  0.70090104  0.58294952  1
  Na  Na2  1  0.29752439  0.96277886  0.07299381  1
  Na  Na3  1  0.98637751  0.00312374  0.50120149  1
  Na  Na4  1  0.99521371  0.01217219  0.98986105  1
  Na  Na5  1  0.66248853  0.32904419  0.83275024  1
  Na  Na6  1  0.68463120  0.33208038  0.33761620  1
  Na  Na7  1  0.33096472  0.66540796  0.17180334  1
  Na  Na8  1  0.37527219  0.66137727  0.67278500  1
  Ca  Ca0  1  0.99277839  0.99205393  0.35433484  1
  Ca  Ca1  1  0.00307687  0.00156208  0.85262824  1
  Ca  Ca2  1  0.98955300  0.00502585  0.65233474  1
  Ca  Ca3  1  0.98509475  0.99429258  0.14532388  1
  Ca  Ca4  1  0.65838799  0.33096920  0.69040776  1
  Ca  Ca5  1  0.68256980  0.34052027  0.18590147  1
  Ca  Ca6  1  0.33545899  0.65765223  0.01496164  1
  Ca  Ca7  1  0.34438709  0.66335950  0.51656913  1
  Ca  Ca8  1  0.33578452  0.67998961  0.32518670  1
  Ge  Ge0  1  0.67455108  0.32808582  0.97160512  1
  Ge  Ge1  1  0.66412654  0.33823015  0.48622673  1
  Ge  Ge2  1  0.31222798  0.67269514  0.82292233  1
  P  P0  1  0.67521355  0.62360907  0.58119788  1
  P  P1  1  0.02851639  0.37900853  0.91690396  1
  P  P2  1  0.34627457  0.96905045  0.92085742  1
  S  S0  1  0.29718007  0.99555079  0.24643956  1
  S  S1  1  0.68700119  0.69343180  0.25123566  1
  S  S2  1  0.00804130  0.30536723  0.25204821  1
  S  S3  1  0.30197707  0.32801446  0.75715456  1
  S  S4  1  0.01900508  0.69709343  0.75348617  1
  S  S5  1  0.67238413  0.97765797  0.75854019  1
  S  S6  1  0.94218306  0.32532539  0.57838309  1
  S  S7  1  0.37413527  0.04953054  0.57852411  1
  S  S8  1  0.95409564  0.62599811  0.07442635  1
  S  S9  1  0.67404000  0.05535571  0.07450668  1
  S  S10  1  0.38385724  0.32752952  0.07965053  1
  S  S11  1  0.62505889  0.64478499  0.91824252  1
  S  S12  1  0.64292643  0.99942406  0.42323625  1
  S  S13  1  0.35203956  0.35577130  0.41892728  1
  S  S14  1  0.00885887  0.64981786  0.42545152  1
  O  O0  1  0.19855967  0.00472962  0.29581203  1
  O  O1  1  0.78209116  0.78396162  0.30313704  1
  O  O2  1  0.00003177  0.20678764  0.30355350  1
  O  O3  1  0.21538385  0.21872943  0.80623324  1
  O  O4  1  0.99819217  0.78852265  0.80124199  1
  O  O5  1  0.78270653  0.00001933  0.80661761  1
  O  O6  1  0.73817369  0.95116798  0.70275556  1
  O  O7  1  0.20907576  0.25505241  0.70203504  1
  O  O8  1  0.04354361  0.78543394  0.69717148  1
  O  O9  1  0.77317555  0.78436539  0.19775309  1
  O  O10  1  0.01762102  0.21992984  0.19852918  1
  O  O11  1  0.21059176  0.98459118  0.19090029  1
  O  O12  1  0.85901918  0.33575757  0.63043897  1
  O  O13  1  0.47269381  0.12823685  0.62976251  1
  O  O14  1  0.66806052  0.52646720  0.63476777  1
  O  O15  1  0.86836204  0.53657962  0.12738038  1
  O  O16  1  0.66481876  0.14311790  0.12610537  1
  O  O17  1  0.46722465  0.33405814  0.13473864  1
  O  O18  1  0.47871559  0.30880275  0.02831460  1
  O  O19  1  0.85445695  0.53271460  0.02101333  1
  O  O20  1  0.68900704  0.15653058  0.01985562  1
  O  O21  1  0.46489793  0.15253587  0.52391679  1
  O  O22  1  0.69635449  0.52644955  0.52481955  1
  O  O23  1  0.83455230  0.30250734  0.52454083  1
  O  O24  1  0.55444794  0.66283344  0.97187543  1
  O  O25  1  0.12308620  0.45531742  0.97132933  1
  O  O26  1  0.33268364  0.88192397  0.97755632  1
  O  O27  1  0.55595612  0.89237992  0.47297367  1
  O  O28  1  0.33147918  0.44700945  0.46715905  1
  O  O29  1  0.10707563  0.66917425  0.47774007  1
  O  O30  1  0.09109541  0.63054724  0.37309386  1
  O  O31  1  0.54830762  0.92630052  0.36883708  1
  O  O32  1  0.37484924  0.44714663  0.36325593  1
  O  O33  1  0.12169032  0.50374235  0.86198507  1
  O  O34  1  0.37509890  0.87048195  0.86725751  1
  O  O35  1  0.51402693  0.61717234  0.86684760  1
  O  O36  1  0.97874508  0.79458754  0.42059837  1
  O  O37  1  0.81893495  0.03162453  0.41932176  1
  O  O38  1  0.20572005  0.17853928  0.41691477  1
  O  O39  1  0.99546252  0.19956334  0.90714894  1
  O  O40  1  0.19668113  0.99457638  0.91093055  1
  O  O41  1  0.79866062  0.79098970  0.91105625  1
  O  O42  1  0.96728516  0.17660537  0.57832295  1
  O  O43  1  0.20416331  0.03617435  0.57976126  1
  O  O44  1  0.84466986  0.80008711  0.57877674  1
  O  O45  1  0.97635768  0.80135051  0.07306669  1
  O  O46  1  0.82391271  0.03379088  0.07411545  1
  O  O47  1  0.21142647  0.16729029  0.07800759  1
  O  O48  1  0.64294327  0.12356892  0.75460664  1
  O  O49  1  0.47868420  0.36087149  0.75353886  1
  O  O50  1  0.87735707  0.51761231  0.75197041  1
  O  O51  1  0.66277288  0.51717250  0.25205507  1
  O  O52  1  0.85867973  0.32856771  0.25228786  1
  O  O53  1  0.46678616  0.15821839  0.24828271  1
  O  O54  1  0.63548320  0.47862141  0.92054062  1
  O  O55  1  0.84690153  0.37017230  0.91854688  1
  O  O56  1  0.51952186  0.15439279  0.92090233  1
  O  O57  1  0.65021140  0.17135865  0.42864007  1
  O  O58  1  0.51584649  0.34951496  0.42589701  1
  O  O59  1  0.83610396  0.48290162  0.42788780  1
  O  O60  1  0.36665556  0.47975667  0.07684889  1
  O  O61  1  0.12831087  0.64952422  0.07524657  1
  O  O62  1  0.51362652  0.88620954  0.07411167  1
  O  O63  1  0.34429506  0.87312479  0.57280092  1
  O  O64  1  0.51749061  0.64055638  0.57674885  1
  O  O65  1  0.10871818  0.48763878  0.57307105  1
  O  O66  1  0.32029486  0.84554719  0.25083054  1
  O  O67  1  0.51196740  0.67037993  0.25235391  1
  O  O68  1  0.17002999  0.47622137  0.25365040  1
  O  O69  1  0.30842161  0.49976126  0.76412842  1
  O  O70  1  0.18731160  0.69677631  0.76152327  1
  O  O71  1  0.49887403  0.81073043  0.76611754  1
loop_
_geom_bond_atom_site_label_1
_geom_bond_atom_site_label_2
_geom_bond_distance
_geom_bond_site_symmetry_2
Na0 O51 2.406681 1_555
Na0 O53 2.445415 1_555
Na0 O68 2.460193 1_555
Na0 O67 2.479052 1_555
Na0 O32 2.623740 1_555
Na1 O44 2.311504 1_455
Na1 O65 2.371515 1_555
Na1 O63 2.451698 1_555
Na1 O29 2.581355 1_555
Na1 O43 2.617376 1_565
Na1 O8 2.743897 1_555
Na2 O47 2.356254 1_565
Na2 O62 2.398756 1_555
Na2 O26 2.399870 1_554
Na2 O61 2.446789 1_555
Na2 O45 2.516983 1_455
Na2 O11 2.876284 1_555
Na2 O18 2.892765 1_565
Na3 O44 2.421676 1_545
Na3 O42 2.441777 1_555
Na3 O37 2.537721 1_555
Na3 O43 2.603663 1_655
Na3 O36 2.630866 1_545
Na3 O38 2.660136 1_655
Na4 O46 2.562053 1_556
Na4 O39 2.566491 1_555
Na4 O41 2.631227 1_545
Na4 O40 2.645865 1_645
Na4 O45 2.663835 1_546
Na4 O47 2.691028 1_656
Na5 O56 2.504119 1_555
Na5 O55 2.513353 1_555
Na5 O54 2.522429 1_555
Na5 O48 2.536361 1_555
Na5 O49 2.606833 1_555
Na5 O50 2.613278 1_555
Na6 O57 2.495264 1_555
Na6 O59 2.499868 1_555
Na6 O52 2.538474 1_555
Na6 O58 2.605450 1_555
Na6 O51 2.676588 1_555
Na6 O53 2.748476 1_555
Na7 O68 2.473772 1_555
Na7 O67 2.484267 1_555
Na7 O66 2.485660 1_555
Na7 O61 2.867069 1_555
Na7 O60 2.883778 1_555
Na7 O62 2.915326 1_555
Na8 O69 2.470263 1_555
Na8 O71 2.498540 1_555
Na8 O64 2.624164 1_555
Na8 O70 2.789925 1_555
Ca0 O1 2.230423 1_555
Ca0 O2 2.251411 1_665
Ca0 O0 2.262696 1_665
Ca0 O36 2.317123 1_555
Ca0 O38 2.324281 1_665
Ca0 O37 2.335693 1_565
Ca1 O3 2.209632 1_555
Ca1 O39 2.222726 1_455
Ca1 O4 2.248230 1_445
Ca1 O40 2.255299 1_545
Ca1 O5 2.272944 1_455
Ca1 O41 2.304693 1_445
Ca2 O44 2.368990 1_545
Ca2 O6 2.383378 1_545
Ca2 O42 2.398725 1_555
Ca2 O7 2.420106 1_655
Ca2 O43 2.476818 1_655
Ca2 O8 2.512063 1_645
Ca3 O9 2.251567 1_555
Ca3 O10 2.273531 1_665
Ca3 O11 2.357166 1_655
Ca3 O46 2.362521 1_565
Ca3 O45 2.391184 1_555
Ca3 O47 2.414238 1_665
Ca4 O14 2.161574 1_555
Ca4 O13 2.249626 1_555
Ca4 O12 2.272699 1_555
Ca4 O49 2.306126 1_555
Ca4 O50 2.336292 1_555
Ca4 O48 2.349969 1_555
Ca5 O15 2.188165 1_555
Ca5 O16 2.201522 1_555
Ca5 O52 2.272546 1_555
Ca5 O17 2.273837 1_555
Ca5 O51 2.286731 1_555
Ca5 O53 2.314752 1_555
Ca6 O25 2.127393 1_554
Ca6 O24 2.204761 1_554
Ca6 O26 2.226363 1_554
Ca6 O60 2.287582 1_555
Ca6 O61 2.312549 1_555
Ca6 O62 2.321854 1_555
Ca7 O64 2.199702 1_555
Ca7 O28 2.220346 1_555
Ca7 O27 2.227076 1_555
Ca7 O63 2.303602 1_555
Ca7 O65 2.314483 1_555
Ca7 O29 2.372264 1_555
Ca8 O30 2.314732 1_555
Ca8 O31 2.315736 1_555
Ca8 O66 2.342084 1_555
Ca8 O67 2.354856 1_555
Ca8 O68 2.369111 1_555
Ca8 O32 2.480003 1_555
Ge0 O55 1.869051 1_555
Ge0 O56 1.896915 1_555
Ge0 O54 1.976218 1_555
Ge0 O20 1.978332 1_556
Ge0 O19 2.085850 1_556
Ge0 O18 2.144241 1_556
Ge1 O22 1.812260 1_555
Ge1 O21 1.941200 1_555
Ge1 O23 1.958758 1_555
Ge1 O57 1.970777 1_555
Ge1 O59 1.973967 1_555
Ge1 O58 1.989378 1_555
Ge2 O33 1.860018 1_555
Ge2 O34 1.884469 1_555
Ge2 O70 1.909320 1_555
Ge2 O71 2.001740 1_555
Ge2 O69 2.062071 1_555
Ge2 O35 2.375168 1_555
O0 S0 1.479278 1_545
O1 S1 1.467708 1_555
O2 S2 1.473528 1_555
O3 S3 1.449015 1_555
O4 S4 1.449864 1_655
O5 S5 1.448643 1_545
O6 S5 1.491977 1_555
O7 S3 1.491499 1_555
O8 S4 1.489478 1_555
O9 S1 1.472993 1_555
O10 S2 1.486616 1_555
O11 S0 1.490838 1_555
O12 S6 1.449682 1_555
O13 S7 1.442722 1_555
O14 P0 1.507303 1_555
O15 S8 1.457738 1_555
O16 S9 1.460623 1_555
O17 S10 1.475754 1_555
O18 S10 1.526053 1_555
O19 S8 1.515821 1_555
O20 S9 1.531448 1_555
O21 S7 1.538765 1_555
O22 P0 1.638828 1_555
O23 S6 1.539335 1_555
O24 S11 1.443591 1_555
O25 P1 1.487848 1_555
O26 P2 1.508026 1_555
O27 S12 1.453580 1_555
O28 S13 1.456234 1_555
O29 S14 1.467446 1_555
O30 S14 1.478934 1_555
O31 S12 1.482933 1_555
O32 S13 1.491766 1_555
O33 P1 1.624784 1_555
O34 P2 1.625323 1_555
O35 S11 1.503580 1_555
O36 S14 1.476948 1_655
O37 S12 1.478264 1_545
O38 S13 1.475979 1_555
O39 P1 1.513325 1_655
O40 P2 1.513196 1_555
O41 S11 1.465300 1_555
O42 S6 1.478845 1_555
O43 S7 1.490393 1_555
O44 P0 1.558313 1_555
O45 S8 1.497899 1_555
O46 S9 1.474677 1_555
O47 S10 1.501210 1_555
O48 S5 1.481676 1_545
O49 S3 1.482047 1_555
O50 S4 1.474718 1_655
O51 S1 1.498626 1_555
O52 S2 1.479080 1_655
O53 S0 1.497269 1_545
O54 S11 1.559011 1_555
O55 P1 1.615306 1_655
O56 P2 1.616041 1_545
O57 S12 1.531661 1_545
O58 S13 1.531519 1_555
O59 S14 1.530346 1_655
O60 S10 1.468714 1_555
O61 S8 1.489847 1_455
O62 S9 1.484360 1_565
O63 S7 1.485835 1_565
O64 P0 1.525109 1_555
O65 S6 1.485144 1_455
O66 S0 1.483154 1_555
O67 S1 1.498809 1_555
O68 S2 1.499666 1_555
O69 S3 1.536908 1_555
O70 S4 1.547120 1_555
O71 S5 1.542653 1_555
