# generated using pymatgen
data_Na2ScTaSi2SO12
_symmetry_space_group_name_H-M   'P 1'
_cell_length_a   8.99127502
_cell_length_b   8.99127471
_cell_length_c   22.84948081
_cell_angle_alpha   89.90782760
_cell_angle_beta   90.09217239
_cell_angle_gamma   119.57198120
_symmetry_Int_Tables_number   1
_chemical_formula_structural   Na2ScTaSi2SO12
_chemical_formula_sum   'Na12 Sc6 Ta6 Si12 S6 O72'
_cell_volume   1606.59261256
_cell_formula_units_Z   6
loop_
 _symmetry_equiv_pos_site_id
 _symmetry_equiv_pos_as_xyz
  1  'x, y, z'
loop_
 _atom_site_type_symbol
 _atom_site_label
 _atom_site_symmetry_multiplicity
 _atom_site_fract_x
 _atom_site_fract_y
 _atom_site_fract_z
 _atom_site_occupancy
  Na  Na0  1  0.98361318  0.62192849  0.24982083  1
  Na  Na1  1  0.37807151  0.01638682  0.74982083  1
  Na  Na2  1  0.65028018  0.95526149  0.58315383  1
  Na  Na3  1  0.04473851  0.34971982  0.08315383  1
  Na  Na4  1  0.31694618  0.28859549  0.91648783  1
  Na  Na5  1  0.71140451  0.68305382  0.41648783  1
  Na  Na6  1  0.00862470  0.99082315  0.49542279  1
  Na  Na7  1  0.00917685  0.99137530  0.99542279  1
  Na  Na8  1  0.67529170  0.32415615  0.82875579  1
  Na  Na9  1  0.67584385  0.32470830  0.32875579  1
  Na  Na10  1  0.34195770  0.65749015  0.16208979  1
  Na  Na11  1  0.34250985  0.65804230  0.66208979  1
  Sc  Sc0  1  0.98480462  0.99615458  0.35278284  1
  Sc  Sc1  1  0.00384542  0.01519538  0.85278284  1
  Sc  Sc2  1  0.65147162  0.32948758  0.68611584  1
  Sc  Sc3  1  0.67051242  0.34852838  0.18611584  1
  Sc  Sc4  1  0.31813762  0.66282158  0.01944984  1
  Sc  Sc5  1  0.33717842  0.68186238  0.51944984  1
  Ta  Ta0  1  0.99893347  0.00133990  0.64635125  1
  Ta  Ta1  1  0.99866010  0.00106653  0.14635125  1
  Ta  Ta2  1  0.66560047  0.33467290  0.97968425  1
  Ta  Ta3  1  0.66532710  0.33439953  0.47968425  1
  Ta  Ta4  1  0.33226647  0.66800690  0.31301825  1
  Ta  Ta5  1  0.33199310  0.66773353  0.81301825  1
  Si  Si0  1  0.70547628  0.71061030  0.25145607  1
  Si  Si1  1  0.99888007  0.29079053  0.25086647  1
  Si  Si2  1  0.28938970  0.29452372  0.75145607  1
  Si  Si3  1  0.70920947  0.00111993  0.75086647  1
  Si  Si4  1  0.37214328  0.04394330  0.58478907  1
  Si  Si5  1  0.66554707  0.62412353  0.58419947  1
  Si  Si6  1  0.95605670  0.62785672  0.08478907  1
  Si  Si7  1  0.37587647  0.33445293  0.08419947  1
  Si  Si8  1  0.03880928  0.37727730  0.91812307  1
  Si  Si9  1  0.33221307  0.95745753  0.91753347  1
  Si  Si10  1  0.62272270  0.96119072  0.41812307  1
  Si  Si11  1  0.04254247  0.66778693  0.41753347  1
  S  S0  1  0.28926608  0.00003199  0.25042091  1
  S  S1  1  -0.00003199  0.71073392  0.75042091  1
  S  S2  1  0.95593308  0.33336499  0.58375391  1
  S  S3  1  0.66663501  0.04406692  0.08375391  1
  S  S4  1  0.62259908  0.66669899  0.91708791  1
  S  S5  1  0.33330101  0.37740092  0.41708791  1
  O  O0  1  0.21175036  0.02290755  0.30304934  1
  O  O1  1  0.82408876  0.78913255  0.30859803  1
  O  O2  1  0.98650792  0.17873857  0.30638385  1
  O  O3  1  0.21086745  0.17591124  0.80859803  1
  O  O4  1  0.97709245  0.78824964  0.80304934  1
  O  O5  1  0.82126143  0.01349208  0.80638385  1
  O  O6  1  0.80152567  0.97177771  0.69078959  1
  O  O7  1  0.16148893  0.18840072  0.69445545  1
  O  O8  1  0.03099147  0.82371811  0.69742430  1
  O  O9  1  0.81159928  0.83851107  0.19445545  1
  O  O10  1  0.02822229  0.19847433  0.19078959  1
  O  O11  1  0.17628189  0.96900853  0.19742430  1
  O  O12  1  0.87841736  0.35624055  0.63638234  1
  O  O13  1  0.49075576  0.12246555  0.64193103  1
  O  O14  1  0.65317492  0.51207157  0.63971685  1
  O  O15  1  0.87753445  0.50924424  0.14193103  1
  O  O16  1  0.64375945  0.12158264  0.13638234  1
  O  O17  1  0.48792843  0.34682508  0.13971685  1
  O  O18  1  0.46819267  0.30511071  0.02412259  1
  O  O19  1  0.82815593  0.52173372  0.02778845  1
  O  O20  1  0.69765847  0.15705111  0.03075730  1
  O  O21  1  0.47826628  0.17184407  0.52778845  1
  O  O22  1  0.69488929  0.53180733  0.52412259  1
  O  O23  1  0.84294889  0.30234153  0.53075730  1
  O  O24  1  0.54508336  0.68957455  0.96971634  1
  O  O25  1  0.15742176  0.45579955  0.97526503  1
  O  O26  1  0.31984092  0.84540557  0.97305085  1
  O  O27  1  0.54420045  0.84257824  0.47526503  1
  O  O28  1  0.31042545  0.45491664  0.46971634  1
  O  O29  1  0.15459443  0.68015908  0.47305085  1
  O  O30  1  0.13485867  0.63844471  0.35745659  1
  O  O31  1  0.49482193  0.85506772  0.36112245  1
  O  O32  1  0.36432447  0.49038511  0.36409130  1
  O  O33  1  0.14493228  0.50517807  0.86112245  1
  O  O34  1  0.36155529  0.86514133  0.85745659  1
  O  O35  1  0.50961489  0.63567553  0.86409130  1
  O  O36  1  0.01450976  0.83089702  0.41129448  1
  O  O37  1  0.81053294  0.98060946  0.41141923  1
  O  O38  1  0.19189900  0.20555360  0.40879293  1
  O  O39  1  0.01939054  0.18946706  0.91141923  1
  O  O40  1  0.16910298  0.98549024  0.91129448  1
  O  O41  1  0.79444640  0.80810100  0.90879293  1
  O  O42  1  0.96143004  0.16668422  0.58782774  1
  O  O43  1  0.18222994  0.02969962  0.59168647  1
  O  O44  1  0.83957434  0.82102946  0.59115742  1
  O  O45  1  0.97030038  0.81777006  0.09168647  1
  O  O46  1  0.83331578  0.03856996  0.08782774  1
  O  O47  1  0.17897054  0.16042566  0.09115742  1
  O  O48  1  0.68117676  0.16423002  0.74462748  1
  O  O49  1  0.47719994  0.31394246  0.74475223  1
  O  O50  1  0.85856600  0.53888660  0.74212593  1
  O  O51  1  0.68605754  0.52280006  0.24475223  1
  O  O52  1  0.83576998  0.31882324  0.24462748  1
  O  O53  1  0.46111340  0.14143400  0.24212593  1
  O  O54  1  0.62809704  0.50001722  0.92116074  1
  O  O55  1  0.84889694  0.36303262  0.92501947  1
  O  O56  1  0.50624134  0.15436246  0.92449042  1
  O  O57  1  0.63696738  0.15110306  0.42501947  1
  O  O58  1  0.49998278  0.37190296  0.42116074  1
  O  O59  1  0.84563754  0.49375866  0.42449042  1
  O  O60  1  0.34784276  0.49756402  0.07796148  1
  O  O61  1  0.14386594  0.64727646  0.07808623  1
  O  O62  1  0.52523200  0.87222060  0.07545993  1
  O  O63  1  0.35272354  0.85613406  0.57808623  1
  O  O64  1  0.50243598  0.65215724  0.57796148  1
  O  O65  1  0.12777940  0.47476800  0.57545993  1
  O  O66  1  0.29476304  0.83335122  0.25449474  1
  O  O67  1  0.51556294  0.69636662  0.25835347  1
  O  O68  1  0.17290734  0.48769646  0.25782442  1
  O  O69  1  0.30363338  0.48443706  0.75835347  1
  O  O70  1  0.16664878  0.70523696  0.75449474  1
  O  O71  1  0.51230354  0.82709266  0.75782442  1
loop_
_geom_bond_atom_site_label_1
_geom_bond_atom_site_label_2
_geom_bond_distance
_geom_bond_site_symmetry_2
Na0 O51 2.368817 1_555
Na0 O52 2.373427 1_555
Na0 O66 2.490436 1_655
Na0 O68 2.532332 1_655
Na0 O15 2.657107 1_555
Na0 O30 2.776903 1_655
Na0 O1 2.874411 1_555
Na0 O11 2.971824 1_655
Na1 O49 2.368817 1_555
Na1 O48 2.373428 1_555
Na1 O70 2.490436 1_545
Na1 O71 2.532332 1_545
Na1 O13 2.657107 1_555
Na1 O34 2.776903 1_545
Na1 O3 2.874411 1_555
Na1 O8 2.971824 1_545
Na2 O63 2.368826 1_555
Na2 O64 2.373418 1_555
Na2 O42 2.490436 1_565
Na2 O44 2.532332 1_555
Na2 O27 2.657085 1_555
Na2 O6 2.776903 1_555
Na2 O13 2.874411 1_565
Na2 O23 2.971824 1_565
Na3 O61 2.368826 1_555
Na3 O60 2.373418 1_555
Na3 O46 2.490436 1_455
Na3 O47 2.532332 1_555
Na3 O25 2.657085 1_554
Na3 O10 2.776903 1_555
Na3 O15 2.874411 1_455
Na3 O20 2.971824 1_455
Na4 O39 2.368817 1_555
Na4 O40 2.373427 1_545
Na4 O54 2.490440 1_555
Na4 O56 2.532345 1_555
Na4 O3 2.657107 1_555
Na4 O18 2.776889 1_556
Na4 O25 2.874411 1_555
Na4 O35 2.971824 1_555
Na5 O37 2.368817 1_555
Na5 O36 2.373428 1_655
Na5 O58 2.490440 1_555
Na5 O59 2.532345 1_555
Na5 O1 2.657107 1_555
Na5 O22 2.776889 1_555
Na5 O27 2.874411 1_555
Na5 O32 2.971824 1_555
Na6 O36 2.418674 1_555
Na6 O37 2.587104 1_455
Na6 O43 2.617194 1_565
Na6 O44 2.671269 1_455
Na6 O38 2.686857 1_565
Na6 O42 2.795395 1_465
Na7 O40 2.418674 1_555
Na7 O39 2.587104 1_565
Na7 O45 2.617194 1_456
Na7 O47 2.671269 1_566
Na7 O41 2.686857 1_455
Na7 O46 2.795395 1_466
Na8 O48 2.418674 1_555
Na8 O49 2.587104 1_555
Na8 O55 2.617194 1_555
Na8 O56 2.671269 1_555
Na8 O50 2.686857 1_555
Na8 O54 2.795395 1_555
Na9 O52 2.418674 1_555
Na9 O51 2.587104 1_555
Na9 O57 2.617194 1_555
Na9 O59 2.671269 1_555
Na9 O53 2.686857 1_555
Na9 O58 2.795395 1_555
Na10 O60 2.418674 1_555
Na10 O61 2.587104 1_555
Na10 O67 2.617194 1_555
Na10 O68 2.671269 1_555
Na10 O62 2.686857 1_555
Na10 O66 2.795395 1_555
Na11 O64 2.418674 1_555
Na11 O63 2.587104 1_555
Na11 O69 2.617194 1_555
Na11 O71 2.671269 1_555
Na11 O65 2.686857 1_555
Na11 O70 2.795395 1_555
O0 S0 1.455725 1_555
O0 Sc0 2.243905 1_445
O1 Si0 1.611177 1_555
O1 Sc0 1.979560 1_555
O2 Si1 1.588186 1_555
O2 Sc0 1.946519 1_545
O3 Si2 1.611177 1_555
O3 Sc1 1.979560 1_555
O4 S1 1.455725 1_655
O4 Sc1 2.243905 1_665
O5 Si3 1.588186 1_555
O5 Sc1 1.946519 1_655
O6 Si3 1.692313 1_565
O6 Ta0 1.947146 1_565
O7 Si2 1.686827 1_555
O7 Ta0 1.935872 1_455
O8 S1 1.514472 1_555
O8 Ta0 2.107795 1_465
O9 Si0 1.686827 1_555
O9 Ta1 1.935872 1_565
O10 Si1 1.692312 1_455
O10 Ta1 1.947146 1_455
O11 S0 1.514472 1_565
O11 Ta1 2.107795 1_465
O12 S2 1.455725 1_555
O12 Sc2 2.243905 1_555
O13 Si4 1.611177 1_555
O13 Sc2 1.979560 1_555
O14 Si5 1.588186 1_555
O14 Sc2 1.946519 1_555
O15 Si6 1.611177 1_555
O15 Sc3 1.979560 1_555
O16 S3 1.455725 1_555
O16 Sc3 2.243905 1_555
O17 Si7 1.588186 1_555
O17 Sc3 1.946519 1_555
O18 Si7 1.692313 1_555
O18 Ta2 1.947146 1_554
O19 Si6 1.686827 1_555
O19 Ta2 1.935872 1_554
O20 S3 1.514472 1_555
O20 Ta2 2.107795 1_554
O21 Si4 1.686827 1_555
O21 Ta3 1.935872 1_555
O22 Si5 1.692312 1_555
O22 Ta3 1.947146 1_555
O23 S2 1.514472 1_555
O23 Ta3 2.107795 1_555
O24 S4 1.455725 1_555
O24 Sc4 2.243905 1_556
O25 Si8 1.611177 1_555
O25 Sc4 1.979560 1_556
O26 Si9 1.588186 1_555
O26 Sc4 1.946519 1_556
O27 Si10 1.611177 1_555
O27 Sc5 1.979560 1_555
O28 S5 1.455725 1_555
O28 Sc5 2.243905 1_555
O29 Si11 1.588186 1_555
O29 Sc5 1.946519 1_555
O30 Si11 1.692313 1_555
O30 Ta4 1.947146 1_555
O31 Si10 1.686827 1_555
O31 Ta4 1.935872 1_555
O32 S5 1.514472 1_555
O32 Ta4 2.107795 1_555
O33 Si8 1.686827 1_555
O33 Ta5 1.935872 1_555
O34 Si9 1.692312 1_555
O34 Ta5 1.947146 1_555
O35 S4 1.514472 1_555
O35 Ta5 2.107795 1_555
O36 Si11 1.612061 1_555
O36 Sc0 2.109692 1_455
O37 Si10 1.617168 1_555
O37 Sc0 2.014911 1_555
O38 S5 1.449465 1_555
O38 Sc0 2.278081 1_445
O39 Si8 1.617168 1_555
O39 Sc1 2.014910 1_555
O40 Si9 1.612061 1_555
O40 Sc1 2.109692 1_565
O41 S4 1.449465 1_555
O41 Sc1 2.278081 1_665
O42 S2 1.526360 1_555
O42 Ta0 2.144528 1_555
O43 Si4 1.655887 1_555
O43 Ta0 1.982956 1_455
O44 Si5 1.695248 1_555
O44 Ta0 1.994950 1_565
O45 Si6 1.655887 1_555
O45 Ta1 1.982956 1_565
O46 S3 1.526360 1_555
O46 Ta1 2.144528 1_555
O47 Si7 1.695248 1_555
O47 Ta1 1.994950 1_455
O48 Si3 1.612061 1_555
O48 Sc2 2.109692 1_555
O49 Si2 1.617168 1_555
O49 Sc2 2.014911 1_555
O50 S1 1.449465 1_655
O50 Sc2 2.278081 1_555
O51 Si0 1.617168 1_555
O51 Sc3 2.014910 1_555
O52 Si1 1.612061 1_555
O52 Sc3 2.109692 1_555
O53 S0 1.449465 1_555
O53 Sc3 2.278081 1_555
O54 S4 1.526372 1_555
O54 Ta2 2.144528 1_555
O55 Si8 1.655872 1_655
O55 Ta2 1.982956 1_555
O56 Si9 1.695245 1_545
O56 Ta2 1.994950 1_555
O57 Si10 1.655872 1_545
O57 Ta3 1.982956 1_555
O58 S5 1.526372 1_555
O58 Ta3 2.144528 1_555
O59 Si11 1.695245 1_655
O59 Ta3 1.994950 1_555
O60 Si7 1.612073 1_555
O60 Sc4 2.109692 1_555
O61 Si6 1.617153 1_455
O61 Sc4 2.014911 1_555
O62 S3 1.449459 1_565
O62 Sc4 2.278081 1_555
O63 Si4 1.617153 1_565
O63 Sc5 2.014910 1_555
O64 Si5 1.612073 1_555
O64 Sc5 2.109692 1_555
O65 S2 1.449459 1_455
O65 Sc5 2.278081 1_555
O66 S0 1.526360 1_565
O66 Ta4 2.144528 1_555
O67 Si0 1.655887 1_555
O67 Ta4 1.982956 1_555
O68 Si1 1.695248 1_455
O68 Ta4 1.994950 1_555
O69 Si2 1.655887 1_555
O69 Ta5 1.982956 1_555
O70 S1 1.526360 1_555
O70 Ta5 2.144528 1_555
O71 Si3 1.695248 1_565
O71 Ta5 1.994950 1_555
