# generated using pymatgen
data_Na6Sc3TaSi2(PO6)4
_symmetry_space_group_name_H-M   'P 1'
_cell_length_a   15.74343210
_cell_length_b   9.05126930
_cell_length_c   9.06688096
_cell_angle_alpha   89.48415190
_cell_angle_beta   124.91057927
_cell_angle_gamma   90.19964221
_symmetry_Int_Tables_number   1
_chemical_formula_structural   Na6Sc3TaSi2(PO6)4
_chemical_formula_sum   'Na12 Sc6 Ta2 Si4 P8 O48'
_cell_volume   1059.46507843
_cell_formula_units_Z   2
loop_
 _symmetry_equiv_pos_site_id
 _symmetry_equiv_pos_as_xyz
  1  'x, y, z'
loop_
 _atom_site_type_symbol
 _atom_site_label
 _atom_site_symmetry_multiplicity
 _atom_site_fract_x
 _atom_site_fract_y
 _atom_site_fract_z
 _atom_site_occupancy
  Na  Na0  1  0.25027453  0.75115402  0.99818037  1
  Na  Na1  1  0.74600110  0.75331133  0.48502165  1
  Na  Na2  1  0.75027453  0.25115402  0.99818037  1
  Na  Na3  1  0.24600110  0.25331133  0.48502165  1
  Na  Na4  1  0.49835420  0.09210763  0.73485664  1
  Na  Na5  1  0.50634425  0.88198708  0.25739792  1
  Na  Na6  1  0.99835420  0.59210763  0.73485664  1
  Na  Na7  1  0.00634425  0.38198708  0.25739792  1
  Na  Na8  1  0.19190800  0.93271596  0.29031463  1
  Na  Na9  1  0.80819157  0.07929103  0.70786834  1
  Na  Na10  1  0.69190800  0.43271596  0.29031463  1
  Na  Na11  1  0.30819157  0.57929103  0.70786834  1
  Sc  Sc0  1  0.10550246  0.75563558  0.56384150  1
  Sc  Sc1  1  0.89434409  0.24463672  0.43731898  1
  Sc  Sc2  1  0.10314012  0.25410884  0.05583346  1
  Sc  Sc3  1  0.60550246  0.25563558  0.56384150  1
  Sc  Sc4  1  0.39434409  0.74463672  0.43731898  1
  Sc  Sc5  1  0.60314012  0.75410884  0.05583346  1
  Ta  Ta0  1  0.89569720  0.74788878  0.94145251  1
  Ta  Ta1  1  0.39569720  0.24788878  0.94145251  1
  Si  Si0  1  0.35227449  0.90050766  0.75386694  1
  Si  Si1  1  0.65085326  0.10299647  0.25313746  1
  Si  Si2  1  0.85227449  0.40050766  0.75386694  1
  Si  Si3  1  0.15085326  0.60299647  0.25313746  1
  P  P0  1  0.00171413  0.95377844  0.76052443  1
  P  P1  1  0.99659785  0.04299229  0.24507562  1
  P  P2  1  0.50171413  0.45377844  0.76052443  1
  P  P3  1  0.49659785  0.54299229  0.24507562  1
  P  P4  1  0.64672613  0.89212634  0.74057464  1
  P  P5  1  0.35610185  0.10367377  0.25988908  1
  P  P6  1  0.14672613  0.39212634  0.74057464  1
  P  P7  1  0.85610185  0.60367377  0.25988908  1
  O  O0  1  0.15496307  0.56361395  0.74364509  1
  O  O1  1  0.84727788  0.58549878  0.76847701  1
  O  O2  1  0.85276150  0.43346866  0.24214177  1
  O  O3  1  0.15291859  0.42393947  0.24358715  1
  O  O4  1  0.65496307  0.06361395  0.74364509  1
  O  O5  1  0.34727788  0.08549878  0.76847701  1
  O  O6  1  0.35276150  0.93346866  0.24214177  1
  O  O7  1  0.65291859  0.92393947  0.24358715  1
  O  O8  1  0.43537133  0.55661866  0.59541096  1
  O  O9  1  0.56825523  0.54122518  0.93372715  1
  O  O10  1  0.55490482  0.44021697  0.40915652  1
  O  O11  1  0.43375117  0.44432093  0.07154730  1
  O  O12  1  0.93537133  0.05661866  0.59541096  1
  O  O13  1  0.06825523  0.04122518  0.93372715  1
  O  O14  1  0.05490482  0.94021697  0.40915652  1
  O  O15  1  0.93375117  0.94432093  0.07154730  1
  O  O16  1  0.25607660  0.82340270  0.74468018  1
  O  O17  1  0.74720372  0.83212395  0.76259582  1
  O  O18  1  0.73902844  0.19265175  0.24777777  1
  O  O19  1  0.25977547  0.15956350  0.24626102  1
  O  O20  1  0.75607660  0.32340270  0.74468018  1
  O  O21  1  0.24720372  0.33212395  0.76259582  1
  O  O22  1  0.23902844  0.69265175  0.24777777  1
  O  O23  1  0.75977547  0.65956350  0.24626102  1
  O  O24  1  0.35385144  0.87474563  0.57564323  1
  O  O25  1  0.64379791  0.84690315  0.90076405  1
  O  O26  1  0.65271284  0.14700243  0.42856411  1
  O  O27  1  0.35854715  0.16532368  0.09657335  1
  O  O28  1  0.85385144  0.37474563  0.57564323  1
  O  O29  1  0.14379791  0.34690315  0.90076405  1
  O  O30  1  0.15271284  0.64700243  0.42856411  1
  O  O31  1  0.85854715  0.66532368  0.09657335  1
  O  O32  1  0.46047240  0.84053761  0.93171622  1
  O  O33  1  0.55154041  0.83404394  0.56264141  1
  O  O34  1  0.53373717  0.16988849  0.07671735  1
  O  O35  1  0.45528893  0.15467875  0.43466446  1
  O  O36  1  0.96047240  0.34053761  0.93171622  1
  O  O37  1  0.05154041  0.33404394  0.56264141  1
  O  O38  1  0.03373717  0.66988849  0.07671735  1
  O  O39  1  0.95528893  0.65467875  0.43466446  1
  O  O40  1  0.06650166  0.83696565  0.74368705  1
  O  O41  1  0.91653727  0.86100692  0.76624780  1
  O  O42  1  0.92100850  0.14921506  0.24609022  1
  O  O43  1  0.07969129  0.13413227  0.24252882  1
  O  O44  1  0.56650166  0.33696565  0.74368705  1
  O  O45  1  0.41653727  0.36100692  0.76624780  1
  O  O46  1  0.42100850  0.64921506  0.24609022  1
  O  O47  1  0.57969129  0.63413227  0.24252882  1
loop_
_geom_bond_atom_site_label_1
_geom_bond_atom_site_label_2
_geom_bond_distance
_geom_bond_site_symmetry_2
Na0 O22 2.422728 1_556
Na0 O16 2.435511 1_555
Na0 O6 2.486237 1_556
Na0 O46 2.488627 1_556
Na0 O0 2.558949 1_555
Na0 O40 2.576905 1_555
Na1 O7 2.368075 1_555
Na1 O23 2.454619 1_555
Na1 O47 2.507404 1_555
Na1 O1 2.590522 1_555
Na1 O17 2.611679 1_555
Na1 O41 2.617431 1_555
Na2 O18 2.422728 1_556
Na2 O20 2.435511 1_555
Na2 O2 2.486237 1_556
Na2 O42 2.488627 1_556
Na2 O4 2.558949 1_555
Na2 O44 2.576905 1_555
Na3 O3 2.368075 1_555
Na3 O19 2.454619 1_555
Na3 O43 2.507404 1_555
Na3 O5 2.590522 1_555
Na3 O21 2.611679 1_555
Na3 O45 2.617431 1_555
Na4 O4 2.435373 1_555
Na4 O44 2.440831 1_555
Na4 O35 2.459955 1_555
Na4 O5 2.565564 1_555
Na4 O24 2.718651 1_545
Na4 O45 2.849188 1_555
Na4 O25 2.909385 1_545
Na4 O34 2.910977 1_556
Na5 O6 2.388822 1_555
Na5 O7 2.410101 1_555
Na5 O33 2.465919 1_555
Na5 O46 2.465949 1_555
Na5 O47 2.566343 1_555
Na5 O32 2.638027 1_554
Na6 O0 2.435373 1_655
Na6 O40 2.440831 1_655
Na6 O39 2.459955 1_555
Na6 O1 2.565564 1_555
Na6 O28 2.718651 1_555
Na6 O41 2.849188 1_555
Na6 O29 2.909385 1_655
Na6 O38 2.910977 1_656
Na7 O2 2.388822 1_455
Na7 O3 2.410101 1_555
Na7 O37 2.465919 1_555
Na7 O42 2.465949 1_455
Na7 O43 2.566343 1_555
Na7 O36 2.638027 1_454
Na8 O43 2.400950 1_565
Na8 O22 2.402978 1_555
Na8 O24 2.429746 1_555
Na8 O19 2.444476 1_565
Na8 O6 2.805290 1_555
Na8 O13 2.821268 1_564
Na8 O14 2.912112 1_555
Na9 O26 2.380704 1_555
Na9 O20 2.450695 1_555
Na9 O41 2.462623 1_545
Na9 O17 2.585237 1_545
Na9 O4 2.614807 1_555
Na9 O12 2.726565 1_555
Na9 O15 2.959161 1_546
Na10 O47 2.400950 1_555
Na10 O18 2.402978 1_555
Na10 O28 2.429746 1_555
Na10 O23 2.444476 1_555
Na10 O2 2.805290 1_555
Na10 O9 2.821268 1_554
Na10 O10 2.912112 1_555
Na11 O30 2.380704 1_555
Na11 O16 2.450695 1_555
Na11 O45 2.462623 1_555
Na11 O21 2.585237 1_555
Na11 O0 2.614807 1_555
Na11 O8 2.726565 1_555
Na11 O11 2.959161 1_556
O0 P6 1.556309 1_555
O0 Sc0 2.188669 1_555
O1 Si2 1.686477 1_555
O1 Ta0 1.966346 1_555
O2 P7 1.547978 1_555
O2 Sc1 2.260266 1_555
O3 Si3 1.625213 1_555
O3 Sc2 2.094464 1_555
O4 P4 1.556309 1_545
O4 Sc3 2.188669 1_555
O5 Si0 1.686477 1_545
O5 Ta1 1.966346 1_555
O6 P5 1.547978 1_565
O6 Sc4 2.260266 1_555
O7 Si1 1.625213 1_565
O7 Sc5 2.094464 1_555
O8 P2 1.546131 1_555
O8 Sc4 2.066878 1_555
O9 P2 1.524364 1_555
O9 Sc5 2.138983 1_556
O10 P3 1.529438 1_555
O10 Sc3 2.020180 1_555
O11 P3 1.577778 1_555
O11 Ta1 2.032953 1_554
O12 P0 1.546131 1_645
O12 Sc1 2.066878 1_555
O13 P0 1.524364 1_545
O13 Sc2 2.138983 1_556
O14 P1 1.529438 1_465
O14 Sc0 2.020180 1_555
O15 P1 1.577778 1_565
O15 Ta0 2.032953 1_554
O16 Si0 1.623870 1_555
O16 Sc0 2.059923 1_555
O17 P4 1.574685 1_555
O17 Ta0 2.080207 1_555
O18 Si1 1.629902 1_555
O18 Sc1 2.085796 1_555
O19 P5 1.536461 1_555
O19 Sc2 2.215671 1_555
O20 Si2 1.623870 1_555
O20 Sc3 2.059923 1_555
O21 P6 1.574685 1_555
O21 Ta1 2.080207 1_555
O22 Si3 1.629902 1_555
O22 Sc4 2.085796 1_555
O23 P7 1.536461 1_555
O23 Sc5 2.215671 1_555
O24 Si0 1.648931 1_555
O24 Sc4 2.076814 1_555
O25 P4 1.531338 1_555
O25 Sc5 2.024123 1_556
O26 Si1 1.627101 1_555
O26 Sc3 2.023341 1_555
O27 P5 1.598668 1_555
O27 Ta1 1.948913 1_554
O28 Si2 1.648931 1_555
O28 Sc1 2.076814 1_555
O29 P6 1.531338 1_555
O29 Sc2 2.024123 1_556
O30 Si3 1.627101 1_555
O30 Sc0 2.023341 1_555
O31 P7 1.598668 1_555
O31 Ta0 1.948913 1_554
O32 Si0 1.625796 1_555
O32 Sc5 2.006626 1_556
O33 P4 1.538625 1_555
O33 Sc4 2.203318 1_555
O34 Si1 1.714477 1_555
O34 Ta1 1.915691 1_554
O35 P5 1.529228 1_555
O35 Sc3 2.152516 1_555
O36 Si2 1.625796 1_555
O36 Sc2 2.006626 1_656
O37 P6 1.538625 1_555
O37 Sc1 2.203318 1_455
O38 Si3 1.714477 1_555
O38 Ta0 1.915691 1_454
O39 P7 1.529228 1_555
O39 Sc0 2.152516 1_655
O40 P0 1.539546 1_555
O40 Sc0 2.179139 1_555
O41 P0 1.605311 1_655
O41 Ta0 2.060193 1_555
O42 P1 1.536659 1_555
O42 Sc1 2.188834 1_555
O43 P1 1.555340 1_455
O43 Sc2 2.204609 1_555
O44 P2 1.539546 1_555
O44 Sc3 2.179139 1_555
O45 P2 1.605311 1_555
O45 Ta1 2.060193 1_555
O46 P3 1.536659 1_555
O46 Sc4 2.188834 1_555
O47 P3 1.555340 1_555
O47 Sc5 2.204609 1_555
