# generated using pymatgen
data_Na10Nb4Al4Si9(SO16)3
_symmetry_space_group_name_H-M   'P 1'
_cell_length_a   17.73027056
_cell_length_b   8.85457829
_cell_length_c   22.13787332
_cell_angle_alpha   89.98231017
_cell_angle_beta   90.71747578
_cell_angle_gamma   119.74918815
_symmetry_Int_Tables_number   1
_chemical_formula_structural   Na10Nb4Al4Si9(SO16)3
_chemical_formula_sum   'Na30 Nb12 Al12 Si27 S9 O144'
_cell_volume   3017.15590176
_cell_formula_units_Z   3
loop_
 _symmetry_equiv_pos_site_id
 _symmetry_equiv_pos_as_xyz
  1  'x, y, z'
loop_
 _atom_site_type_symbol
 _atom_site_label
 _atom_site_symmetry_multiplicity
 _atom_site_fract_x
 _atom_site_fract_y
 _atom_site_fract_z
 _atom_site_occupancy
  Na  Na0  1  0.18692626  0.36555859  0.24367481  1
  Na  Na1  1  0.68688591  0.36649194  0.24334005  1
  Na  Na2  1  0.18762471  0.00838513  0.74297633  1
  Na  Na3  1  0.68516586  0.00477394  0.74341623  1
  Na  Na4  1  0.65035797  0.33679908  0.58036424  1
  Na  Na5  1  0.02120415  0.70357520  0.57640053  1
  Na  Na6  1  0.51868677  0.69341812  0.57991589  1
  Na  Na7  1  0.32754261  0.97014773  0.58402452  1
  Na  Na8  1  0.15077620  0.96379363  0.07997061  1
  Na  Na9  1  0.65073053  0.96360428  0.07984864  1
  Na  Na10  1  0.32893964  0.69019160  0.08187520  1
  Na  Na11  1  0.82904164  0.69057124  0.08183735  1
  Na  Na12  1  0.01972491  0.34427201  0.08004271  1
  Na  Na13  1  0.51963957  0.34440409  0.07997396  1
  Na  Na14  1  0.48702084  0.67006850  0.91461220  1
  Na  Na15  1  0.98704636  0.67034096  0.91527357  1
  Na  Na16  1  0.35191605  0.66633853  0.41048720  1
  Na  Na17  1  0.85260426  0.67349973  0.41008705  1
  Na  Na18  1  0.01239079  0.02189133  0.49305712  1
  Na  Na19  1  0.51042723  0.01228218  0.49188122  1
  Na  Na20  1  0.00614398  0.01901809  0.99119521  1
  Na  Na21  1  0.50627976  0.01921366  0.99118136  1
  Na  Na22  1  0.33989751  0.33154014  0.82664968  1
  Na  Na23  1  0.83975264  0.32983424  0.82812851  1
  Na  Na24  1  0.34363782  0.33650025  0.32799105  1
  Na  Na25  1  0.84502537  0.33490433  0.32567091  1
  Na  Na26  1  0.16765573  0.67340175  0.16282667  1
  Na  Na27  1  0.66774129  0.67322100  0.16256520  1
  Na  Na28  1  0.17268205  0.65735211  0.66272655  1
  Na  Na29  1  0.67376960  0.67368199  0.66023719  1
  Nb  Nb0  1  0.99482002  0.98715528  0.64573813  1
  Nb  Nb1  1  0.49337724  0.98395377  0.64331454  1
  Nb  Nb2  1  0.99541300  0.00077870  0.14544681  1
  Nb  Nb3  1  0.49514015  0.00091207  0.14535696  1
  Nb  Nb4  1  0.33342671  0.32220777  0.97795379  1
  Nb  Nb5  1  0.83334326  0.32223881  0.97812593  1
  Nb  Nb6  1  0.33272872  0.33696796  0.47936702  1
  Nb  Nb7  1  0.82914844  0.34003250  0.47614387  1
  Nb  Nb8  1  0.16019008  0.64629052  0.31134760  1
  Nb  Nb9  1  0.66046813  0.65007965  0.31113581  1
  Nb  Nb10  1  0.16262084  0.67578670  0.81107204  1
  Nb  Nb11  1  0.66225701  0.67596204  0.81094028  1
  Al  Al0  1  0.00107114  0.00089505  0.35413675  1
  Al  Al1  1  0.50073846  0.99880805  0.35356779  1
  Al  Al2  1  -0.00003778  0.00624515  0.85333352  1
  Al  Al3  1  0.49975112  0.00505288  0.85355255  1
  Al  Al4  1  0.34262459  0.33786415  0.68457238  1
  Al  Al5  1  0.83495710  0.33301756  0.68726226  1
  Al  Al6  1  0.34325134  0.34954897  0.18468346  1
  Al  Al7  1  0.84329209  0.34969000  0.18437222  1
  Al  Al8  1  0.15803125  0.66098980  0.02199424  1
  Al  Al9  1  0.65800553  0.66094109  0.02191570  1
  Al  Al10  1  0.16479193  0.66233719  0.51888769  1
  Al  Al11  1  0.65990401  0.65815581  0.52410840  1
  Si  Si0  1  0.35768827  0.70639206  0.25456022  1
  Si  Si1  1  0.85805726  0.70698664  0.25481440  1
  Si  Si2  1  0.98837634  0.27389563  0.25308541  1
  Si  Si3  1  0.48836923  0.27392421  0.25345623  1
  Si  Si4  1  0.98844040  0.69970070  0.75366122  1
  Si  Si5  1  0.48792350  0.70096477  0.75392509  1
  Si  Si6  1  0.35918576  0.01054930  0.75361306  1
  Si  Si7  1  0.85885314  0.01109207  0.75386602  1
  Si  Si8  1  0.47957473  0.33841309  0.58489677  1
  Si  Si9  1  0.19020422  0.04538725  0.58603915  1
  Si  Si10  1  0.69494922  0.04104131  0.58716287  1
  Si  Si11  1  0.32049241  0.60311594  0.58618909  1
  Si  Si12  1  0.82748260  0.61575938  0.58598077  1
  Si  Si13  1  0.47897546  0.61966796  0.08339530  1
  Si  Si14  1  0.97906091  0.61982713  0.08337433  1
  Si  Si15  1  0.32626793  0.04099826  0.08699193  1
  Si  Si16  1  0.82635039  0.04078162  0.08702839  1
  Si  Si17  1  0.19272131  0.34012015  0.08614708  1
  Si  Si18  1  0.69267543  0.34016694  0.08619777  1
  Si  Si19  1  0.02544731  0.36836753  0.91884518  1
  Si  Si20  1  0.52560370  0.36819464  0.91880067  1
  Si  Si21  1  0.16173179  0.95711071  0.91926988  1
  Si  Si22  1  0.66181724  0.95720912  0.91939591  1
  Si  Si23  1  0.15809293  0.36476947  0.42007712  1
  Si  Si24  1  0.65514770  0.36675944  0.41940368  1
  Si  Si25  1  0.02588172  0.67885332  0.42056822  1
  Si  Si26  1  0.52477007  0.67832650  0.42019898  1
  S  S0  1  0.14491072  0.00016370  0.25201695  1
  S  S1  1  0.64457382  0.00022496  0.25203965  1
  S  S2  1  0.14379464  0.28678518  0.75183941  1
  S  S3  1  0.64522045  0.28885369  0.75136958  1
  S  S4  1  0.97792874  0.33491655  0.58440169  1
  S  S5  1  0.31104495  0.67101821  0.91809171  1
  S  S6  1  0.81081816  0.67078168  0.91806047  1
  S  S7  1  0.31103760  0.95502805  0.41708863  1
  S  S8  1  0.81050414  0.95290538  0.41819973  1
  O  O0  1  0.10021626  0.02143610  0.30405589  1
  O  O1  1  0.60059717  0.02150677  0.30393440  1
  O  O2  1  0.41607822  0.80445784  0.31288038  1
  O  O3  1  0.91636421  0.80462231  0.31336773  1
  O  O4  1  0.48853550  0.15959220  0.30882552  1
  O  O5  1  0.98803987  0.15935642  0.30858856  1
  O  O6  1  0.10169981  0.17624740  0.80480620  1
  O  O7  1  0.60319099  0.17722669  0.80350715  1
  O  O8  1  0.48821130  0.80784271  0.81267489  1
  O  O9  1  0.98560607  0.80314661  0.81224699  1
  O  O10  1  0.42137025  0.03024672  0.80899214  1
  O  O11  1  0.92086666  0.03171770  0.80955810  1
  O  O12  1  0.40276816  0.97897361  0.69076814  1
  O  O13  1  0.90553856  0.98162618  0.69263811  1
  O  O14  1  0.09007510  0.20980689  0.69578290  1
  O  O15  1  0.59368493  0.21490555  0.69419269  1
  O  O16  1  0.01504870  0.83121658  0.69315642  1
  O  O17  1  0.51599073  0.83182636  0.69342473  1
  O  O18  1  0.40412945  0.82866242  0.19307447  1
  O  O19  1  0.90422495  0.82861829  0.19325693  1
  O  O20  1  0.01622871  0.20269793  0.19134353  1
  O  O21  1  0.51649279  0.20284004  0.19166252  1
  O  O22  1  0.09312345  0.97186060  0.19440830  1
  O  O23  1  0.59326933  0.97191072  0.19437947  1
  O  O24  1  0.43509401  0.37330065  0.64127730  1
  O  O25  1  0.93687856  0.36128833  0.63787302  1
  O  O26  1  0.25166208  0.13161197  0.64494273  1
  O  O27  1  0.75025857  0.13874778  0.64693741  1
  O  O28  1  0.31317818  0.48796504  0.64286404  1
  O  O29  1  0.81726977  0.48831166  0.64042134  1
  O  O30  1  0.43432283  0.49381973  0.13936320  1
  O  O31  1  0.93434700  0.49401962  0.13932449  1
  O  O32  1  0.30964385  0.13612329  0.14196294  1
  O  O33  1  0.80961642  0.13615262  0.14194473  1
  O  O34  1  0.25187999  0.37091778  0.14598156  1
  O  O35  1  0.75191470  0.37097203  0.14607737  1
  O  O36  1  0.23730599  0.29806896  0.02762245  1
  O  O37  1  0.73728246  0.29805791  0.02770483  1
  O  O38  1  0.41721439  0.54585578  0.02172163  1
  O  O39  1  0.91730541  0.54580503  0.02170169  1
  O  O40  1  0.35376066  0.16965636  0.02631238  1
  O  O41  1  0.85375289  0.16964051  0.02636655  1
  O  O42  1  0.23647099  0.16707375  0.52595159  1
  O  O43  1  0.74174279  0.17413161  0.52854024  1
  O  O44  1  0.34910388  0.53694197  0.52430094  1
  O  O45  1  0.85231429  0.53873276  0.52406842  1
  O  O46  1  0.41482364  0.29136822  0.52490064  1
  O  O47  1  0.92529332  0.30596683  0.52868700  1
  O  O48  1  0.27017810  0.68861353  0.97355520  1
  O  O49  1  0.77033272  0.68837630  0.97345378  1
  O  O50  1  0.08039312  0.46429798  0.97966395  1
  O  O51  1  0.58042558  0.46390959  0.97971262  1
  O  O52  1  0.14953879  0.83364774  0.97678431  1
  O  O53  1  0.64983888  0.83384223  0.97689684  1
  O  O54  1  0.27120735  0.85292995  0.47272429  1
  O  O55  1  0.76925265  0.84442890  0.47112608  1
  O  O56  1  0.15345490  0.47814862  0.47501885  1
  O  O57  1  0.65330676  0.47044724  0.47802014  1
  O  O58  1  0.08194689  0.69643181  0.48069652  1
  O  O59  1  0.58247685  0.69835961  0.47951594  1
  O  O60  1  0.07458397  0.65032754  0.36136112  1
  O  O61  1  0.57486513  0.65135610  0.36081949  1
  O  O62  1  0.25708477  0.86868889  0.36272401  1
  O  O63  1  0.75819273  0.87826262  0.36205085  1
  O  O64  1  0.18122800  0.49249207  0.35792073  1
  O  O65  1  0.68261760  0.49630232  0.35874558  1
  O  O66  1  0.07423083  0.50304096  0.86114287  1
  O  O67  1  0.57459580  0.50315603  0.86121169  1
  O  O68  1  0.17962959  0.86889016  0.85786706  1
  O  O69  1  0.67988824  0.86970529  0.85790133  1
  O  O70  1  0.25737490  0.64758323  0.86350501  1
  O  O71  1  0.75767853  0.64775086  0.86344850  1
  O  O72  1  0.00603239  0.83774589  0.41135764  1
  O  O73  1  0.50679788  0.83999461  0.41040719  1
  O  O74  1  0.39750867  0.96945707  0.41302001  1
  O  O75  1  0.89782714  0.97053813  0.41291018  1
  O  O76  1  0.07548181  0.17601609  0.40849772  1
  O  O77  1  0.57542621  0.17574243  0.40817148  1
  O  O78  1  0.01221323  0.17750979  0.90907125  1
  O  O79  1  0.51231051  0.17744086  0.90879859  1
  O  O80  1  0.07371553  0.96659971  0.90875615  1
  O  O81  1  0.57396071  0.96736577  0.90950970  1
  O  O82  1  0.39898790  0.82343907  0.91396849  1
  O  O83  1  0.89930794  0.82383727  0.91394685  1
  O  O84  1  0.49082837  0.16347590  0.58901270  1
  O  O85  1  0.98971717  0.18042533  0.58939885  1
  O  O86  1  0.09198885  0.02509239  0.59006649  1
  O  O87  1  0.59689973  0.02819524  0.59026283  1
  O  O88  1  0.41324032  0.80217137  0.58962838  1
  O  O89  1  0.91848346  0.80872303  0.58910237  1
  O  O90  1  0.49097260  0.81705375  0.08998643  1
  O  O91  1  0.99086306  0.81695388  0.08985657  1
  O  O92  1  0.41633910  0.02499475  0.08960131  1
  O  O93  1  0.91634220  0.02474132  0.08968063  1
  O  O94  1  0.09519095  0.16299811  0.09031954  1
  O  O95  1  0.59523570  0.16306697  0.09039981  1
  O  O96  1  0.33863337  0.16846226  0.74464221  1
  O  O97  1  0.83967643  0.17086547  0.74379033  1
  O  O98  1  0.22929463  0.30108333  0.74656495  1
  O  O99  1  0.73198842  0.30397669  0.74656000  1
  O  O100  1  0.40584247  0.51179932  0.74462391  1
  O  O101  1  0.90798155  0.50958758  0.74104999  1
  O  O102  1  0.33966576  0.50927171  0.24522332  1
  O  O103  1  0.83969540  0.50939528  0.24553441  1
  O  O104  1  0.40613020  0.29916565  0.24328308  1
  O  O105  1  0.90612128  0.29909376  0.24282327  1
  O  O106  1  0.22989942  0.15773893  0.24748870  1
  O  O107  1  0.73026581  0.15836178  0.24754627  1
  O  O108  1  0.32073382  0.51134304  0.91944731  1
  O  O109  1  0.82093019  0.51135087  0.91939814  1
  O  O110  1  0.43048969  0.36841918  0.92103893  1
  O  O111  1  0.93036088  0.36862477  0.92086821  1
  O  O112  1  0.25001125  0.15061079  0.92042547  1
  O  O113  1  0.75015103  0.15115476  0.92040809  1
  O  O114  1  0.31924503  0.12997236  0.41880403  1
  O  O115  1  0.82175117  0.13195393  0.42327028  1
  O  O116  1  0.25019309  0.35671319  0.42168971  1
  O  O117  1  0.74904351  0.35733297  0.42188773  1
  O  O118  1  0.42676832  0.49872947  0.42137581  1
  O  O119  1  0.92795606  0.49588432  0.42331802  1
  O  O120  1  0.18053756  0.50912643  0.07609108  1
  O  O121  1  0.68059999  0.50917341  0.07618086  1
  O  O122  1  0.07617079  0.64601559  0.07796276  1
  O  O123  1  0.57613858  0.64595894  0.07796788  1
  O  O124  1  0.24664610  0.84632444  0.07444059  1
  O  O125  1  0.74668412  0.84631703  0.07451692  1
  O  O126  1  0.17615980  0.84790914  0.57664976  1
  O  O127  1  0.67807885  0.84682078  0.57734292  1
  O  O128  1  0.24463655  0.65196251  0.57454931  1
  O  O129  1  0.74419783  0.63748671  0.57504898  1
  O  O130  1  0.06481425  0.49347346  0.57973527  1
  O  O131  1  0.57559107  0.50514402  0.57807439  1
  O  O132  1  0.15504192  0.84359032  0.25598205  1
  O  O133  1  0.65527966  0.84397401  0.25570973  1
  O  O134  1  0.25943756  0.69219496  0.25666793  1
  O  O135  1  0.75981569  0.69266351  0.25695313  1
  O  O136  1  0.08094011  0.47193342  0.25585372  1
  O  O137  1  0.58149053  0.47212015  0.25655319  1
  O  O138  1  0.15330012  0.46338277  0.75667021  1
  O  O139  1  0.65586536  0.46579881  0.75679806  1
  O  O140  1  0.08193324  0.69043003  0.75510405  1
  O  O141  1  0.58162747  0.68994805  0.75598405  1
  O  O142  1  0.26055214  0.82779245  0.75688327  1
  O  O143  1  0.76057136  0.82998325  0.75662914  1
loop_
_geom_bond_atom_site_label_1
_geom_bond_atom_site_label_2
_geom_bond_distance
_geom_bond_site_symmetry_2
Na0 O106 2.315932 1_555
Na0 O102 2.352040 1_555
Na0 O34 2.452342 1_555
Na0 O136 2.502105 1_555
Na0 O134 2.530158 1_555
Na0 O64 2.791229 1_555
Na0 O20 2.857165 1_555
Na0 O0 2.972360 1_555
Na1 O107 2.324076 1_555
Na1 O103 2.353413 1_555
Na1 O35 2.446198 1_555
Na1 O137 2.490119 1_555
Na1 O135 2.527576 1_555
Na1 O65 2.819049 1_555
Na1 O21 2.847041 1_555
Na2 O98 2.316799 1_555
Na2 O96 2.326021 1_555
Na2 O26 2.453667 1_555
Na2 O140 2.507259 1_545
Na2 O142 2.522973 1_545
Na2 O68 2.801452 1_545
Na2 O16 2.862303 1_545
Na2 O6 2.950333 1_555
Na3 O99 2.351354 1_555
Na3 O97 2.380962 1_555
Na3 O27 2.449999 1_555
Na3 O141 2.480348 1_545
Na3 O143 2.512333 1_545
Na3 O69 2.784886 1_545
Na3 O17 2.815390 1_545
Na3 O7 2.909652 1_555
Na4 O129 2.340795 1_555
Na4 O87 2.418215 1_555
Na4 O131 2.437445 1_555
Na4 O84 2.469377 1_555
Na4 O57 2.544874 1_555
Na4 O15 2.740445 1_555
Na4 O29 2.878879 1_555
Na4 O43 2.894784 1_555
Na5 O130 2.343138 1_555
Na5 O126 2.386765 1_555
Na5 O58 2.403653 1_555
Na5 O89 2.441044 1_455
Na5 O86 2.493324 1_565
Na5 O45 2.831261 1_455
Na5 O16 2.846293 1_555
Na5 O25 2.970611 1_455
Na6 O131 2.338601 1_555
Na6 O127 2.455472 1_555
Na6 O59 2.497004 1_555
Na6 O88 2.503157 1_555
Na6 O87 2.583717 1_565
Na6 O17 2.807434 1_555
Na6 O24 2.820504 1_555
Na6 O44 2.872301 1_555
Na7 O126 2.346996 1_555
Na7 O128 2.454613 1_555
Na7 O84 2.529423 1_565
Na7 O88 2.602750 1_555
Na7 O54 2.656521 1_555
Na7 O12 2.680843 1_555
Na7 O26 2.761943 1_565
Na7 O46 2.806801 1_565
Na8 O124 2.397101 1_555
Na8 O94 2.422003 1_565
Na8 O122 2.444172 1_555
Na8 O91 2.476742 1_455
Na8 O52 2.553801 1_554
Na8 O22 2.757820 1_555
Na8 O32 2.790157 1_565
Na8 O36 2.827266 1_565
Na9 O125 2.396949 1_555
Na9 O95 2.423348 1_565
Na9 O123 2.443110 1_555
Na9 O90 2.474994 1_555
Na9 O53 2.549032 1_554
Na9 O23 2.758830 1_555
Na9 O33 2.791585 1_565
Na9 O37 2.826625 1_565
Na10 O120 2.305493 1_555
Na10 O124 2.462318 1_555
Na10 O90 2.516370 1_555
Na10 O92 2.579480 1_565
Na10 O48 2.599798 1_554
Na10 O18 2.763719 1_555
Na10 O38 2.809755 1_555
Na10 O34 2.843554 1_555
Na11 O121 2.306318 1_555
Na11 O125 2.460226 1_555
Na11 O91 2.513317 1_555
Na11 O93 2.574812 1_565
Na11 O49 2.599680 1_554
Na11 O19 2.767242 1_555
Na11 O39 2.812200 1_555
Na11 O35 2.847217 1_555
Na12 O122 2.343017 1_555
Na12 O120 2.478670 1_555
Na12 O50 2.479615 1_554
Na12 O93 2.504611 1_455
Na12 O94 2.557730 1_555
Na12 O20 2.751585 1_555
Na12 O31 2.795489 1_455
Na12 O41 2.803651 1_455
Na13 O123 2.341296 1_555
Na13 O51 2.476782 1_554
Na13 O121 2.480736 1_555
Na13 O92 2.503514 1_555
Na13 O95 2.560422 1_555
Na13 O21 2.760430 1_555
Na13 O30 2.793592 1_555
Na13 O40 2.802279 1_555
Na14 O81 2.301259 1_555
Na14 O110 2.346380 1_555
Na14 O82 2.526602 1_555
Na14 O8 2.560313 1_555
Na14 O108 2.564149 1_555
Na14 O38 2.661760 1_556
Na14 O53 2.843386 1_555
Na14 O67 2.883968 1_555
Na15 O80 2.295310 1_655
Na15 O111 2.345418 1_555
Na15 O83 2.522937 1_555
Na15 O109 2.560606 1_555
Na15 O9 2.571414 1_555
Na15 O39 2.648456 1_556
Na15 O52 2.830930 1_655
Na15 O66 2.887906 1_655
Na16 O74 2.388758 1_555
Na16 O73 2.390619 1_555
Na16 O116 2.436063 1_555
Na16 O118 2.443043 1_555
Na16 O2 2.477530 1_555
Na16 O44 2.758307 1_555
Na16 O64 2.858715 1_555
Na17 O75 2.338903 1_555
Na17 O72 2.363878 1_655
Na17 O3 2.442760 1_555
Na17 O117 2.487423 1_555
Na17 O119 2.533622 1_555
Na17 O45 2.789883 1_555
Na17 O65 2.838950 1_555
Na17 O55 2.927746 1_555
Na18 O76 2.270212 1_555
Na18 O72 2.399344 1_545
Na18 O75 2.544488 1_445
Na18 O86 2.547371 1_555
Na18 O85 2.695242 1_455
Na18 O89 2.796991 1_445
Na19 O77 2.292091 1_555
Na19 O73 2.342213 1_545
Na19 O74 2.521793 1_545
Na19 O87 2.610781 1_555
Na19 O84 2.649323 1_555
Na19 O88 2.832389 1_545
Na20 O78 2.267114 1_555
Na20 O80 2.364028 1_545
Na20 O83 2.484208 1_445
Na20 O94 2.617411 1_556
Na20 O93 2.730990 1_456
Na20 O91 2.752540 1_446
Na21 O79 2.270493 1_555
Na21 O81 2.349754 1_545
Na21 O82 2.488653 1_545
Na21 O95 2.618366 1_556
Na21 O92 2.731465 1_556
Na21 O90 2.755477 1_546
Na22 O96 2.313010 1_555
Na22 O100 2.326245 1_555
Na22 O110 2.539441 1_555
Na22 O98 2.539667 1_555
Na22 O112 2.638792 1_555
Na22 O108 2.725221 1_555
Na23 O97 2.338153 1_555
Na23 O101 2.420450 1_555
Na23 O111 2.506816 1_555
Na23 O99 2.538425 1_555
Na23 O113 2.604843 1_555
Na23 O109 2.707088 1_555
Na24 O104 2.295532 1_555
Na24 O102 2.409272 1_555
Na24 O118 2.516773 1_555
Na24 O106 2.547976 1_555
Na24 O114 2.609137 1_555
Na24 O116 2.731350 1_555
Na25 O105 2.242493 1_555
Na25 O103 2.383770 1_555
Na25 O107 2.516329 1_555
Na25 O119 2.590189 1_555
Na25 O115 2.711460 1_555
Na25 O117 2.810517 1_555
Na26 O122 2.398543 1_555
Na26 O124 2.464374 1_555
Na26 O120 2.489447 1_555
Na26 O134 2.576517 1_555
Na26 O132 2.630926 1_555
Na26 O136 2.672555 1_555
Na27 O123 2.395522 1_555
Na27 O125 2.458683 1_555
Na27 O121 2.482011 1_555
Na27 O135 2.587818 1_555
Na27 O133 2.632792 1_555
Na27 O137 2.685823 1_555
Na28 O128 2.358653 1_555
Na28 O130 2.509653 1_555
Na28 O126 2.525796 1_555
Na28 O142 2.576224 1_555
Na28 O138 2.612110 1_555
Na28 O140 2.721640 1_555
Na29 O127 2.368391 1_555
Na29 O129 2.382242 1_555
Na29 O131 2.431047 1_555
Na29 O143 2.577468 1_555
Na29 O139 2.737379 1_555
Na29 O141 2.739161 1_555
Nb0 O13 1.884264 1_555
Nb0 O16 1.902174 1_655
Nb0 O89 1.933042 1_555
Nb0 O86 2.019531 1_665
Nb0 O14 2.148644 1_665
Nb0 O85 2.154511 1_565
Nb1 O12 1.912692 1_555
Nb1 O88 1.926504 1_555
Nb1 O17 1.931261 1_555
Nb1 O84 2.010649 1_565
Nb1 O87 2.059593 1_565
Nb1 O15 2.226090 1_565
Nb2 O19 1.911542 1_545
Nb2 O20 1.924079 1_655
Nb2 O93 1.945835 1_555
Nb2 O91 2.009683 1_545
Nb2 O94 2.052667 1_655
Nb2 O22 2.152852 1_645
Nb3 O18 1.909250 1_545
Nb3 O21 1.926321 1_555
Nb3 O92 1.942520 1_555
Nb3 O90 2.009462 1_545
Nb3 O95 2.053185 1_555
Nb3 O23 2.160268 1_545
Nb4 O40 1.890346 1_556
Nb4 O112 1.960063 1_555
Nb4 O36 1.960728 1_556
Nb4 O110 2.017868 1_555
Nb4 O38 2.028041 1_556
Nb4 O108 2.213203 1_555
Nb5 O41 1.889934 1_556
Nb5 O37 1.958599 1_556
Nb5 O113 1.959507 1_555
Nb5 O111 2.021747 1_555
Nb5 O39 2.026359 1_556
Nb5 O109 2.213577 1_555
Nb6 O44 1.921665 1_555
Nb6 O42 1.932490 1_555
Nb6 O46 1.960624 1_555
Nb6 O116 2.002342 1_555
Nb6 O118 2.040141 1_555
Nb6 O114 2.184659 1_555
Nb7 O117 1.912179 1_555
Nb7 O45 1.913870 1_555
Nb7 O43 1.920875 1_555
Nb7 O119 1.998046 1_555
Nb7 O115 2.130629 1_555
Nb7 O47 2.193247 1_555
Nb8 O64 1.884231 1_555
Nb8 O60 1.904438 1_555
Nb8 O136 1.916304 1_555
Nb8 O134 2.017478 1_555
Nb8 O132 2.171813 1_555
Nb8 O62 2.172088 1_555
Nb9 O61 1.890063 1_555
Nb9 O65 1.907503 1_555
Nb9 O137 1.916495 1_555
Nb9 O135 2.019204 1_555
Nb9 O133 2.148075 1_555
Nb9 O63 2.198450 1_555
Nb10 O68 1.889246 1_555
Nb10 O66 1.920390 1_555
Nb10 O140 1.933446 1_555
Nb10 O142 1.999364 1_555
Nb10 O70 2.144648 1_555
Nb10 O138 2.168622 1_555
Nb11 O69 1.892689 1_555
Nb11 O141 1.916048 1_555
Nb11 O67 1.917723 1_555
Nb11 O143 2.009058 1_555
Nb11 O71 2.155448 1_555
Nb11 O139 2.168209 1_555
Al0 O5 1.831355 1_455
Al0 O3 1.862057 1_445
Al0 O76 1.877352 1_555
Al0 O72 1.954865 1_545
Al0 O0 2.020830 1_555
Al0 O75 2.164989 1_445
Al1 O4 1.831449 1_565
Al1 O2 1.851890 1_555
Al1 O77 1.889836 1_565
Al1 O73 1.928158 1_555
Al1 O1 2.019378 1_565
Al1 O74 2.176650 1_555
Al2 O11 1.799010 1_455
Al2 O78 1.880684 1_555
Al2 O9 1.914970 1_445
Al2 O80 1.937451 1_545
Al2 O6 2.006660 1_555
Al2 O83 2.189117 1_445
Al3 O10 1.796495 1_555
Al3 O79 1.879458 1_555
Al3 O8 1.884626 1_545
Al3 O81 1.942110 1_545
Al3 O7 2.047023 1_555
Al3 O82 2.184951 1_545
Al4 O24 1.798256 1_555
Al4 O28 1.888752 1_555
Al4 O100 1.909566 1_555
Al4 O26 1.936123 1_555
Al4 O96 1.979686 1_555
Al4 O98 2.333757 1_555
Al5 O27 1.847936 1_555
Al5 O29 1.866374 1_555
Al5 O101 1.868758 1_555
Al5 O97 1.936496 1_555
Al5 O25 2.030789 1_555
Al5 O99 2.171712 1_555
Al6 O30 1.799590 1_555
Al6 O104 1.892580 1_555
Al6 O34 1.914089 1_555
Al6 O32 1.921010 1_555
Al6 O102 1.973057 1_555
Al6 O106 2.353273 1_555
Al7 O31 1.796143 1_555
Al7 O105 1.890734 1_555
Al7 O35 1.909865 1_555
Al7 O33 1.918447 1_555
Al7 O103 1.982415 1_555
Al7 O107 2.354026 1_555
Al8 O50 1.842761 1_554
Al8 O122 1.874380 1_555
Al8 O52 1.893510 1_554
Al8 O124 1.976453 1_555
Al8 O120 1.980199 1_555
Al8 O48 2.175781 1_554
Al9 O51 1.842808 1_554
Al9 O123 1.875687 1_555
Al9 O53 1.890376 1_554
Al9 O125 1.979019 1_555
Al9 O121 1.982614 1_555
Al9 O49 2.179370 1_554
Al10 O56 1.820491 1_555
Al10 O58 1.836393 1_555
Al10 O128 1.901643 1_555
Al10 O126 2.010453 1_555
Al10 O54 2.083175 1_555
Al10 O130 2.149561 1_555
Al11 O59 1.853829 1_555
Al11 O131 1.879192 1_555
Al11 O57 1.903238 1_555
Al11 O127 1.934141 1_555
Al11 O129 1.941144 1_555
Al11 O55 2.176531 1_555
O0 S0 1.470290 1_555
O1 S1 1.460029 1_555
O2 Si0 1.602425 1_555
O3 Si1 1.605169 1_555
O4 Si3 1.590432 1_555
O5 Si2 1.591162 1_555
O6 S2 1.478580 1_555
O7 S3 1.467771 1_555
O8 Si5 1.607163 1_555
O9 Si4 1.603649 1_555
O10 Si6 1.588864 1_555
O11 Si7 1.590362 1_555
O12 Si6 1.688915 1_565
O13 Si7 1.683193 1_565
O14 S2 1.496138 1_555
O15 S3 1.497876 1_555
O16 Si4 1.685953 1_455
O17 Si5 1.681555 1_555
O18 Si0 1.686822 1_555
O19 Si1 1.684991 1_555
O20 Si2 1.684024 1_455
O21 Si3 1.686792 1_555
O22 S0 1.508271 1_565
O23 S1 1.504820 1_565
O24 Si8 1.594346 1_555
O25 S4 1.475101 1_555
O26 Si9 1.615579 1_555
O27 Si10 1.608562 1_555
O28 Si11 1.581983 1_555
O29 Si12 1.600196 1_555
O30 Si13 1.597457 1_555
O31 Si14 1.597161 1_555
O32 Si15 1.591627 1_555
O33 Si16 1.592947 1_555
O34 Si17 1.615768 1_555
O35 Si18 1.617362 1_555
O36 Si17 1.661381 1_555
O37 Si18 1.661303 1_555
O38 Si13 1.656271 1_555
O39 Si14 1.656333 1_555
O40 Si15 1.674596 1_555
O41 Si16 1.675293 1_555
O42 Si9 1.659105 1_555
O43 Si10 1.678410 1_555
O44 Si11 1.670526 1_555
O45 Si12 1.688572 1_555
O46 Si8 1.656255 1_555
O47 S4 1.480504 1_555
O48 S5 1.480311 1_555
O49 S6 1.475285 1_555
O50 Si19 1.621730 1_555
O51 Si20 1.622273 1_555
O52 Si21 1.623114 1_555
O53 Si22 1.623094 1_555
O54 S7 1.490130 1_555
O55 S8 1.467631 1_555
O56 Si23 1.605984 1_555
O57 Si24 1.599816 1_555
O58 Si25 1.611727 1_555
O59 Si26 1.609057 1_555
O60 Si25 1.665060 1_555
O61 Si26 1.677459 1_555
O62 S7 1.481202 1_555
O63 S8 1.485074 1_555
O64 Si23 1.701018 1_555
O65 Si24 1.678439 1_555
O66 Si19 1.674823 1_555
O67 Si20 1.674699 1_555
O68 Si21 1.678136 1_555
O69 Si22 1.677567 1_555
O70 S5 1.477930 1_555
O71 S6 1.473737 1_555
O72 Si25 1.623049 1_555
O73 Si26 1.627420 1_555
O74 S7 1.477856 1_555
O75 S8 1.483183 1_555
O76 Si23 1.601835 1_555
O77 Si24 1.593547 1_555
O78 Si19 1.601025 1_555
O79 Si20 1.600407 1_555
O80 Si21 1.617891 1_555
O81 Si22 1.616464 1_555
O82 S5 1.475175 1_555
O83 S6 1.483210 1_555
O84 Si8 1.659422 1_555
O85 S4 1.486708 1_555
O86 Si9 1.663126 1_555
O87 Si10 1.687180 1_555
O88 Si11 1.713802 1_555
O89 Si12 1.669979 1_555
O90 Si13 1.658813 1_555
O91 Si14 1.657705 1_555
O92 Si15 1.672139 1_555
O93 Si16 1.670940 1_555
O94 Si17 1.664619 1_555
O95 Si18 1.663662 1_555
O96 Si6 1.622038 1_555
O97 Si7 1.625448 1_555
O98 S2 1.463451 1_555
O99 S3 1.481774 1_555
O100 Si5 1.593579 1_555
O101 Si4 1.598083 1_555
O102 Si0 1.623693 1_555
O103 Si1 1.625585 1_555
O104 Si3 1.594350 1_555
O105 Si2 1.594658 1_555
O106 S0 1.464461 1_555
O107 S1 1.473556 1_555
O108 S5 1.506746 1_555
O109 S6 1.508946 1_555
O110 Si20 1.688732 1_555
O111 Si19 1.688194 1_655
O112 Si21 1.650385 1_545
O113 Si22 1.653033 1_545
O114 S7 1.482697 1_545
O115 S8 1.500552 1_545
O116 Si23 1.669451 1_555
O117 Si24 1.707966 1_555
O118 Si26 1.675619 1_555
O119 Si25 1.689394 1_655
O120 Si17 1.629442 1_555
O121 Si18 1.628202 1_555
O122 Si14 1.625295 1_455
O123 Si13 1.625912 1_555
O124 Si15 1.617706 1_565
O125 Si16 1.616663 1_565
O126 Si9 1.652144 1_565
O127 Si10 1.606967 1_565
O128 Si11 1.622002 1_555
O129 Si12 1.596579 1_555
O130 S4 1.487424 1_455
O131 Si8 1.616353 1_555
O132 S0 1.486179 1_565
O133 S1 1.488951 1_565
O134 Si0 1.684426 1_555
O135 Si1 1.683804 1_555
O136 Si2 1.706943 1_455
O137 Si3 1.712382 1_555
O138 S2 1.491008 1_555
O139 S3 1.486920 1_555
O140 Si4 1.699790 1_455
O141 Si5 1.711949 1_555
O142 Si6 1.696125 1_565
O143 Si7 1.685619 1_565
