# generated using pymatgen
data_Na7Y2Al2SiP5O24
_symmetry_space_group_name_H-M   'P 1'
_cell_length_a   9.02406135
_cell_length_b   9.00644886
_cell_length_c   22.33136214
_cell_angle_alpha   90.00445495
_cell_angle_beta   89.88059347
_cell_angle_gamma   119.85636803
_symmetry_Int_Tables_number   1
_chemical_formula_structural   Na7Y2Al2SiP5O24
_chemical_formula_sum   'Na21 Y6 Al6 Si3 P15 O72'
_cell_volume   1574.08077109
_cell_formula_units_Z   3
loop_
 _symmetry_equiv_pos_site_id
 _symmetry_equiv_pos_as_xyz
  1  'x, y, z'
loop_
 _atom_site_type_symbol
 _atom_site_label
 _atom_site_symmetry_multiplicity
 _atom_site_fract_x
 _atom_site_fract_y
 _atom_site_fract_z
 _atom_site_occupancy
  Na  Na0  1  0.37135701  0.37408709  0.25327295  1
  Na  Na1  1  0.00130711  0.62941904  0.25009906  1
  Na  Na2  1  0.64019344  0.65106337  0.75176109  1
  Na  Na3  1  0.99533671  0.35385738  0.75695250  1
  Na  Na4  1  0.35874350  0.99280285  0.75138348  1
  Na  Na5  1  0.30816526  0.32855181  0.57649705  1
  Na  Na6  1  0.03139953  0.69144433  0.57771581  1
  Na  Na7  1  0.65585707  0.97095022  0.58337152  1
  Na  Na8  1  0.30935387  0.97579377  0.08399359  1
  Na  Na9  1  0.67444730  0.69058052  0.08288115  1
  Na  Na10  1  0.02468939  0.34137139  0.08538037  1
  Na  Na11  1  0.95913469  0.66584732  0.92022823  1
  Na  Na12  1  0.70708856  0.03884079  0.91458850  1
  Na  Na13  1  0.96249561  0.29324106  0.41215296  1
  Na  Na14  1  0.33279669  0.03650113  0.41633732  1
  Na  Na15  1  0.99193630  0.98521592  0.49639487  1
  Na  Na16  1  0.01186727  0.00788827  0.00617313  1
  Na  Na17  1  0.65327116  0.32843888  0.83272157  1
  Na  Na18  1  0.66650567  0.33246990  0.33135508  1
  Na  Na19  1  0.34138078  0.68010478  0.16799272  1
  Na  Na20  1  0.34121146  0.67786004  0.66616714  1
  Y  Y0  1  0.00922484  0.00955732  0.85651641  1
  Y  Y1  1  -0.00074494  0.00025405  0.65394129  1
  Y  Y2  1  0.66348205  0.32608206  0.67769293  1
  Y  Y3  1  0.66957649  0.32601371  0.18555294  1
  Y  Y4  1  0.66001513  0.33622503  0.98384521  1
  Y  Y5  1  0.66511706  0.34146183  0.47553351  1
  Al  Al0  1  0.99048842  0.99215150  0.35088034  1
  Al  Al1  1  0.99551616  0.99397465  0.15382207  1
  Al  Al2  1  0.33070280  0.66441377  0.01856435  1
  Al  Al3  1  0.33892142  0.67186122  0.51180153  1
  Al  Al4  1  0.34396868  0.67528520  0.31466801  1
  Al  Al5  1  0.33619767  0.66725444  0.81760765  1
  Si  Si0  1  0.68188682  0.99113430  0.75446939  1
  Si  Si1  1  0.35672166  0.01365924  0.57727867  1
  Si  Si2  1  0.98245304  0.65005552  0.08464102  1
  P  P0  1  0.27555952  0.99107151  0.25467669  1
  P  P1  1  0.71027855  0.72412231  0.25299533  1
  P  P2  1  0.00800119  0.28434373  0.25414306  1
  P  P3  1  0.30738282  0.31788767  0.75124459  1
  P  P4  1  0.00852185  0.69195523  0.75487946  1
  P  P5  1  0.98383015  0.34562414  0.57702064  1
  P  P6  1  0.65579178  0.63890561  0.58085011  1
  P  P7  1  0.66816216  0.01963841  0.08141412  1
  P  P8  1  0.35169421  0.33196014  0.08754041  1
  P  P9  1  0.60595786  0.66164355  0.91759057  1
  P  P10  1  0.05784523  0.39234048  0.91913644  1
  P  P11  1  0.33648398  0.94186376  0.91853890  1
  P  P12  1  0.62505767  0.94104316  0.41210897  1
  P  P13  1  0.32242415  0.38069652  0.41072208  1
  P  P14  1  0.06014373  0.67808993  0.41037629  1
  O  O0  1  0.18614662  0.01407385  0.31081165  1
  O  O1  1  0.82904122  0.81513884  0.30620219  1
  O  O2  1  0.99117521  0.17883964  0.31093352  1
  O  O3  1  0.21962233  0.18481130  0.80118925  1
  O  O4  1  0.97714846  0.77865748  0.80926476  1
  O  O5  1  0.81180229  0.03046738  0.81049806  1
  O  O6  1  0.76186641  0.95697852  0.69336628  1
  O  O7  1  0.20574481  0.24748732  0.69210905  1
  O  O8  1  0.04318988  0.80369180  0.69770870  1
  O  O9  1  0.79310193  0.82247618  0.19383774  1
  O  O10  1  0.02116374  0.19076875  0.19732071  1
  O  O11  1  0.16613317  0.96899832  0.19789608  1
  O  O12  1  0.91009036  0.38117526  0.63505914  1
  O  O13  1  0.46983390  0.09106770  0.63865286  1
  O  O14  1  0.62612578  0.54005754  0.64068640  1
  O  O15  1  0.90010300  0.51633475  0.14095698  1
  O  O16  1  0.61525625  0.10066763  0.13273113  1
  O  O17  1  0.46951387  0.37582894  0.14293459  1
  O  O18  1  0.43033802  0.28098676  0.03495727  1
  O  O19  1  0.85320916  0.57150129  0.02707263  1
  O  O20  1  0.71070856  0.13398515  0.02482135  1
  O  O21  1  0.44621138  0.14701861  0.52192327  1
  O  O22  1  0.70064628  0.54912101  0.53133832  1
  O  O23  1  0.86270897  0.31169975  0.52393032  1
  O  O24  1  0.51207180  0.66614281  0.97490964  1
  O  O25  1  0.15338799  0.48669637  0.97639968  1
  O  O26  1  0.33445797  0.84415486  0.97560046  1
  O  O27  1  0.54221822  0.84299017  0.47126085  1
  O  O28  1  0.30917663  0.47243346  0.46809634  1
  O  O29  1  0.16795388  0.69938339  0.46749919  1
  O  O30  1  0.15104684  0.65671109  0.35455904  1
  O  O31  1  0.50597967  0.85013344  0.35905865  1
  O  O32  1  0.33880019  0.48764764  0.35452077  1
  O  O33  1  0.14893741  0.48995778  0.86143609  1
  O  O34  1  0.33991026  0.84847366  0.86077045  1
  O  O35  1  0.51114418  0.65926968  0.85992641  1
  O  O36  1  0.03807120  0.83979555  0.40716043  1
  O  O37  1  0.81087661  0.96952373  0.40717158  1
  O  O38  1  0.15879860  0.19653359  0.41039477  1
  O  O39  1  0.02997873  0.20790807  0.92152344  1
  O  O40  1  0.17137572  0.95502217  0.92116820  1
  O  O41  1  0.78800603  0.82516013  0.92015164  1
  O  O42  1  0.99957948  0.18330813  0.58360245  1
  O  O43  1  0.16548890  0.99003641  0.58250602  1
  O  O44  1  0.80997401  0.82188046  0.58396189  1
  O  O45  1  0.99827270  0.83762910  0.09689930  1
  O  O46  1  0.83251221  0.01161589  0.09571633  1
  O  O47  1  0.17081147  0.17492903  0.09792467  1
  O  O48  1  0.66315762  0.16247638  0.75079537  1
  O  O49  1  0.49066443  0.34783027  0.74697087  1
  O  O50  1  0.84678694  0.51567890  0.74825171  1
  O  O51  1  0.69057184  0.54010742  0.25004321  1
  O  O52  1  0.85124524  0.31330165  0.25252697  1
  O  O53  1  0.45281630  0.15733277  0.25116449  1
  O  O54  1  0.63539629  0.50584164  0.91585957  1
  O  O55  1  0.87531161  0.37345866  0.91719699  1
  O  O56  1  0.49908479  0.12093035  0.91690908  1
  O  O57  1  0.64629117  0.12549434  0.41401992  1
  O  O58  1  0.47882744  0.35151192  0.41098542  1
  O  O59  1  0.88316375  0.51187106  0.41238657  1
  O  O60  1  0.33751148  0.49368415  0.07447535  1
  O  O61  1  0.17287662  0.67143111  0.07454504  1
  O  O62  1  0.51447572  0.83616467  0.07297511  1
  O  O63  1  0.34784184  0.82979995  0.56775581  1
  O  O64  1  0.48970557  0.64233796  0.56850748  1
  O  O65  1  0.16104895  0.50414189  0.56737364  1
  O  O66  1  0.29703422  0.82895563  0.25815888  1
  O  O67  1  0.52427069  0.69542936  0.25823351  1
  O  O68  1  0.17172149  0.46839732  0.25479781  1
  O  O69  1  0.31325160  0.48930319  0.76253164  1
  O  O70  1  0.16657830  0.67076759  0.76236295  1
  O  O71  1  0.49478722  0.81964758  0.76194503  1
loop_
_geom_bond_atom_site_label_1
_geom_bond_atom_site_label_2
_geom_bond_distance
_geom_bond_site_symmetry_2
Na0 O68 2.343380 1_555
Na0 O53 2.404633 1_555
Na0 O51 2.499908 1_555
Na0 O67 2.513327 1_555
Na0 O32 2.557454 1_555
Na0 O17 2.614047 1_555
Na1 O66 2.368684 1_555
Na1 O52 2.470564 1_455
Na1 O51 2.502844 1_455
Na1 O68 2.588499 1_555
Na1 O15 2.625747 1_455
Na1 O30 2.647700 1_555
Na1 O11 2.896415 1_555
Na2 O49 2.371131 1_555
Na2 O71 2.461949 1_555
Na2 O69 2.569504 1_555
Na2 O14 2.653835 1_555
Na2 O50 2.689106 1_555
Na2 O35 2.696316 1_555
Na2 O6 2.734925 1_555
Na2 O4 2.958448 1_555
Na3 O50 2.430071 1_555
Na3 O70 2.481622 1_655
Na3 O69 2.500220 1_655
Na3 O48 2.613967 1_555
Na3 O33 2.681284 1_655
Na3 O5 2.800970 1_555
Na3 O12 2.873867 1_555
Na3 O7 2.901596 1_655
Na4 O48 2.387864 1_565
Na4 O71 2.429483 1_555
Na4 O70 2.543645 1_555
Na4 O13 2.689265 1_565
Na4 O34 2.732121 1_555
Na4 O8 2.762480 1_555
Na4 O49 2.803694 1_565
Na4 O3 2.821206 1_565
Na5 O42 2.421196 1_455
Na5 O64 2.468125 1_555
Na5 O65 2.529133 1_555
Na5 O43 2.657444 1_545
Na5 O7 2.715018 1_555
Na5 O28 2.743706 1_555
Na5 O21 2.780555 1_555
Na5 O14 2.913932 1_555
Na6 O43 2.338431 1_555
Na6 O63 2.492220 1_555
Na6 O65 2.496352 1_555
Na6 O29 2.735179 1_555
Na6 O12 2.756073 1_455
Na6 O44 2.779954 1_455
Na6 O22 2.797810 1_455
Na6 O8 2.847331 1_555
Na7 O44 2.365612 1_555
Na7 O63 2.439138 1_555
Na7 O64 2.588691 1_555
Na7 O6 2.663504 1_555
Na7 O13 2.704010 1_565
Na7 O42 2.715224 1_565
Na7 O27 2.735193 1_555
Na7 O23 2.991880 1_565
Na8 O61 2.390660 1_555
Na8 O45 2.455733 1_455
Na8 O18 2.637052 1_565
Na8 O16 2.644030 1_565
Na8 O47 2.665948 1_565
Na8 O62 2.717362 1_555
Na8 O26 2.753324 1_554
Na8 O11 2.837531 1_555
Na9 O62 2.395437 1_555
Na9 O46 2.524306 1_565
Na9 O45 2.557691 1_555
Na9 O19 2.649469 1_555
Na9 O60 2.656812 1_555
Na9 O9 2.727885 1_555
Na9 O24 2.775373 1_554
Na9 O17 2.832865 1_555
Na10 O47 2.456435 1_555
Na10 O60 2.459994 1_555
Na10 O61 2.593138 1_555
Na10 O46 2.598378 1_455
Na10 O15 2.654295 1_455
Na10 O25 2.731299 1_554
Na10 O10 2.836715 1_555
Na10 O20 2.844647 1_455
Na11 O40 2.342101 1_655
Na11 O55 2.351245 1_555
Na11 O54 2.535833 1_555
Na11 O19 2.551616 1_556
Na11 O41 2.578709 1_555
Na11 O4 2.652037 1_555
Na12 O56 2.335358 1_555
Na12 O41 2.377380 1_545
Na12 O5 2.522615 1_555
Na12 O39 2.533185 1_655
Na12 O20 2.601388 1_556
Na12 O55 2.614501 1_555
Na13 O38 2.331120 1_655
Na13 O59 2.406932 1_555
Na13 O57 2.476626 1_555
Na13 O37 2.532510 1_545
Na13 O2 2.549621 1_555
Na13 O23 2.684928 1_555
Na14 O36 2.359040 1_545
Na14 O58 2.465168 1_555
Na14 O57 2.527861 1_555
Na14 O21 2.567727 1_555
Na14 O38 2.610488 1_555
Na14 O0 2.663109 1_555
Na14 O29 2.869388 1_545
Na15 O43 2.469291 1_655
Na15 O44 2.503256 1_555
Na15 O36 2.529563 1_655
Na15 O37 2.538338 1_555
Na15 O38 2.590960 1_665
Na15 O42 2.618762 1_565
Na16 O45 2.506679 1_445
Na16 O47 2.526275 1_555
Na16 O39 2.559587 1_554
Na16 O40 2.563770 1_544
Na16 O46 2.580658 1_455
Na16 O41 2.680497 1_444
Na17 O48 2.391864 1_555
Na17 O49 2.473371 1_555
Na17 O54 2.506130 1_555
Na17 O56 2.522666 1_555
Na17 O50 2.550742 1_555
Na17 O55 2.635274 1_555
Na18 O52 2.486383 1_555
Na18 O58 2.517249 1_555
Na18 O53 2.529605 1_555
Na18 O51 2.536930 1_555
Na18 O57 2.564478 1_555
Na18 O59 2.564504 1_555
Na19 O66 2.557754 1_555
Na19 O61 2.562816 1_555
Na19 O67 2.567285 1_555
Na19 O62 2.592008 1_555
Na19 O68 2.611317 1_555
Na19 O60 2.668876 1_555
Na20 O71 2.525059 1_555
Na20 O63 2.573773 1_555
Na20 O70 2.643467 1_555
Na20 O64 2.658716 1_555
Na20 O69 2.673988 1_555
Na20 O65 2.727673 1_555
Al0 O1 1.831094 1_555
Al0 O0 1.898271 1_665
Al0 O2 1.900724 1_565
Al0 O37 1.977746 1_555
Al0 O36 2.058156 1_655
Al0 O38 2.164710 1_665
Al1 O45 1.906236 1_555
Al1 O9 1.924858 1_555
Al1 O10 1.931540 1_665
Al1 O11 1.934180 1_655
Al1 O46 2.028142 1_565
Al1 O47 2.035146 1_665
Al2 O25 1.861424 1_554
Al2 O26 1.867558 1_554
Al2 O24 1.896662 1_554
Al2 O61 1.917664 1_555
Al2 O60 2.005444 1_555
Al2 O62 2.018257 1_555
Al3 O63 1.864769 1_555
Al3 O27 1.933590 1_555
Al3 O28 1.942040 1_555
Al3 O29 1.951330 1_555
Al3 O64 1.973121 1_555
Al3 O65 1.994039 1_555
Al4 O31 1.820301 1_555
Al4 O30 1.885737 1_555
Al4 O32 1.889900 1_555
Al4 O67 1.991497 1_555
Al4 O66 2.067247 1_555
Al4 O68 2.190920 1_555
Al5 O35 1.873477 1_555
Al5 O71 1.874612 1_555
Al5 O34 1.881363 1_555
Al5 O33 1.915738 1_555
Al5 O69 1.947971 1_555
Al5 O70 1.980403 1_555
O0 P0 1.558065 1_545
O1 P1 1.537132 1_555
O2 P2 1.545979 1_655
O3 P3 1.535945 1_555
O3 Y0 2.151620 1_555
O4 P4 1.543849 1_655
O4 Y0 2.218895 1_665
O5 Si0 1.630327 1_545
O5 Y0 2.146435 1_655
O6 Si0 1.641442 1_555
O6 Y1 2.162632 1_665
O7 P3 1.553410 1_555
O7 Y1 2.243212 1_555
O8 P4 1.557449 1_555
O8 Y1 2.224241 1_565
O9 P1 1.557367 1_555
O10 P2 1.559942 1_555
O11 P0 1.559531 1_555
O12 P5 1.560007 1_555
O12 Y2 2.235374 1_555
O13 Si1 1.644248 1_555
O13 Y2 2.148789 1_555
O14 P6 1.552786 1_555
O14 Y2 2.271293 1_555
O15 Si2 1.639978 1_555
O15 Y3 2.167683 1_555
O16 P7 1.555083 1_555
O16 Y3 2.182278 1_555
O17 P8 1.550457 1_555
O17 Y3 2.275999 1_555
O18 P8 1.553745 1_555
O18 Y4 2.193089 1_554
O19 Si2 1.642581 1_555
O19 Y4 2.188595 1_554
O20 P7 1.552316 1_555
O20 Y4 2.279463 1_554
O21 Si1 1.628866 1_555
O21 Y5 2.142349 1_555
O22 P6 1.537570 1_555
O22 Y5 2.134944 1_555
O23 P5 1.538328 1_555
O23 Y5 2.214327 1_555
O24 P9 1.545165 1_555
O25 P10 1.541330 1_555
O26 P11 1.543553 1_555
O27 P12 1.556395 1_555
O28 P13 1.560791 1_555
O29 P14 1.558810 1_555
O30 P14 1.554560 1_555
O31 P12 1.535486 1_555
O32 P13 1.543544 1_555
O33 P10 1.544403 1_555
O34 P11 1.548616 1_555
O35 P9 1.541788 1_555
O36 P14 1.566786 1_555
O37 P12 1.568671 1_555
O38 P13 1.578926 1_555
O39 P10 1.552202 1_555
O39 Y0 2.236395 1_555
O40 P11 1.553344 1_555
O40 Y0 2.278448 1_565
O41 P9 1.569228 1_555
O41 Y0 2.334591 1_665
O42 P5 1.544640 1_555
O42 Y1 2.276177 1_655
O43 Si1 1.634174 1_565
O43 Y1 2.220595 1_565
O44 P6 1.540747 1_555
O44 Y1 2.284551 1_665
O45 Si2 1.645983 1_555
O46 P7 1.554189 1_555
O47 P8 1.555105 1_555
O48 Si0 1.635994 1_545
O48 Y2 2.198242 1_555
O49 P3 1.540331 1_555
O49 Y2 2.271107 1_555
O50 P4 1.538310 1_655
O50 Y2 2.309317 1_555
O51 P1 1.577741 1_555
O51 Y3 2.337725 1_555
O52 P2 1.561375 1_655
O52 Y3 2.265991 1_555
O53 P0 1.556192 1_545
O53 Y3 2.304477 1_555
O54 P9 1.553126 1_555
O54 Y4 2.242252 1_555
O55 P10 1.570172 1_655
O55 Y4 2.332729 1_555
O56 P11 1.548861 1_545
O56 Y4 2.303935 1_555
O57 P12 1.575239 1_545
O57 Y5 2.317504 1_555
O58 P13 1.559026 1_555
O58 Y5 2.252476 1_555
O59 P14 1.553388 1_655
O59 Y5 2.279861 1_555
O60 P8 1.552063 1_555
O61 Si2 1.646141 1_455
O62 P7 1.552025 1_565
O63 Si1 1.631445 1_565
O64 P6 1.539837 1_555
O65 P5 1.538691 1_455
O66 P0 1.567565 1_555
O67 P1 1.570121 1_555
O68 P2 1.578768 1_555
O69 P3 1.538955 1_555
O70 P4 1.539707 1_555
O71 Si0 1.632937 1_555
