# generated using pymatgen
data_CsCrF4
_symmetry_space_group_name_H-M   'P 1'
_cell_length_a   9.84030825
_cell_length_b   9.84030825
_cell_length_c   3.96418800
_cell_angle_alpha   90.00000000
_cell_angle_beta   90.00000000
_cell_angle_gamma   120.00000169
_symmetry_Int_Tables_number   1
_chemical_formula_structural   CsCrF4
_chemical_formula_sum   'Cs3 Cr3 F12'
_cell_volume   332.43157946
_cell_formula_units_Z   3
loop_
 _symmetry_equiv_pos_site_id
 _symmetry_equiv_pos_as_xyz
  1  'x, y, z'
loop_
 _atom_site_type_symbol
 _atom_site_label
 _atom_site_symmetry_multiplicity
 _atom_site_fract_x
 _atom_site_fract_y
 _atom_site_fract_z
 _atom_site_occupancy
  Cs  Cs0  1  0.00000000  0.57161700  0.50000000  1
  Cs  Cs1  1  0.42838300  0.42838300  0.50000000  1
  Cs  Cs2  1  0.57161700  0.00000000  0.50000000  1
  Cr  Cr0  1  0.00000000  0.22399300  0.00000000  1
  Cr  Cr1  1  0.77600700  0.77600700  0.00000000  1
  Cr  Cr2  1  0.22399300  0.00000000  0.00000000  1
  F  F0  1  0.15985300  0.43764100  0.00000000  1
  F  F1  1  0.56235900  0.72221200  0.00000000  1
  F  F2  1  0.27778800  0.84014700  0.00000000  1
  F  F3  1  0.84014700  0.27778800  0.00000000  1
  F  F4  1  0.72221200  0.56235900  0.00000000  1
  F  F5  1  0.43764100  0.15985300  0.00000000  1
  F  F6  1  0.83108700  0.00000000  0.00000000  1
  F  F7  1  0.16891300  0.16891300  0.00000000  1
  F  F8  1  0.00000000  0.83108700  0.00000000  1
  F  F9  1  0.21866000  0.00000000  0.50000000  1
  F  F10  1  0.78134000  0.78134000  0.50000000  1
  F  F11  1  0.00000000  0.21866000  0.50000000  1
loop_
_geom_bond_atom_site_label_1
_geom_bond_atom_site_label_2
_geom_bond_distance
_geom_bond_site_symmetry_2
Cs0 F3 3.196078 1_456
Cs0 F3 3.196078 1_455
Cs0 F0 3.196078 1_555
Cs0 F0 3.196078 1_556
Cs0 F8 3.232315 1_556
Cs0 F8 3.232315 1_555
Cs0 F2 3.340673 1_556
Cs0 F2 3.340673 1_555
Cs0 F4 3.340673 1_455
Cs0 F4 3.340673 1_456
Cs1 F4 3.196078 1_555
Cs1 F4 3.196078 1_556
Cs1 F1 3.196078 1_555
Cs1 F1 3.196078 1_556
Cs1 F7 3.232315 1_555
Cs1 F7 3.232315 1_556
Cs1 F5 3.340673 1_555
Cs1 F5 3.340673 1_556
Cs1 F0 3.340673 1_555
Cs1 F0 3.340673 1_556
Cs2 F2 3.196078 1_546
Cs2 F2 3.196078 1_545
Cs2 F5 3.196078 1_555
Cs2 F5 3.196078 1_556
Cs2 F6 3.232315 1_556
Cs2 F6 3.232315 1_555
Cs2 F3 3.340673 1_555
Cs2 F3 3.340673 1_556
Cs2 F1 3.340673 1_545
Cs2 F1 3.340673 1_546
Cr0 F0 1.894002 1_555
Cr0 F3 1.894002 1_455
Cr0 F11 1.982789 1_554
Cr0 F11 1.982789 1_555
Cr0 F6 1.989328 1_455
Cr0 F7 1.989328 1_555
Cr1 F4 1.894002 1_555
Cr1 F1 1.894002 1_555
Cr1 F10 1.982789 1_555
Cr1 F10 1.982789 1_554
Cr1 F6 1.989328 1_565
Cr1 F8 1.989328 1_655
Cr2 F5 1.894002 1_555
Cr2 F2 1.894002 1_545
Cr2 F9 1.982789 1_555
Cr2 F9 1.982789 1_554
Cr2 F8 1.989328 1_545
Cr2 F7 1.989328 1_555
