# generated using pymatgen
data_Ba4Cl6O
_symmetry_space_group_name_H-M   'P 1'
_cell_length_a   10.06269720
_cell_length_b   10.06266232
_cell_length_c   7.63848225
_cell_angle_alpha   90.00007135
_cell_angle_beta   90.00006392
_cell_angle_gamma   119.99998356
_symmetry_Int_Tables_number   1
_chemical_formula_structural   Ba4Cl6O
_chemical_formula_sum   'Ba8 Cl12 O2'
_cell_volume   669.83074982
_cell_formula_units_Z   2
loop_
 _symmetry_equiv_pos_site_id
 _symmetry_equiv_pos_as_xyz
  1  'x, y, z'
loop_
 _atom_site_type_symbol
 _atom_site_label
 _atom_site_symmetry_multiplicity
 _atom_site_fract_x
 _atom_site_fract_y
 _atom_site_fract_z
 _atom_site_occupancy
  Ba  Ba0  1  0.66666453  0.33333090  0.92967154  1
  Ba  Ba1  1  0.33332983  0.66666386  0.42964392  1
  Ba  Ba2  1  0.80467192  0.60934180  0.49552981  1
  Ba  Ba3  1  0.19532025  0.80468501  0.99552317  1
  Ba  Ba4  1  0.60935992  0.80468062  0.99552079  1
  Ba  Ba5  1  0.39066064  0.19533155  0.49553238  1
  Ba  Ba6  1  0.80467327  0.19533186  0.49553038  1
  Ba  Ba7  1  0.19531706  0.39063284  0.99552456  1
  Cl  Cl0  1  0.52985515  0.47014136  0.21055930  1
  Cl  Cl1  1  0.05965556  0.52982694  0.71052930  1
  Cl  Cl2  1  0.47017175  0.94034358  0.71053171  1
  Cl  Cl3  1  0.52985665  0.05971409  0.21055733  1
  Cl  Cl4  1  0.94028571  0.47014128  0.21056118  1
  Cl  Cl5  1  0.47017227  0.52982730  0.71053056  1
  Cl  Cl6  1  0.14532661  0.29065239  0.39299827  1
  Cl  Cl7  1  0.85466352  0.14533977  0.89299288  1
  Cl  Cl8  1  0.29067765  0.14534004  0.89299273  1
  Cl  Cl9  1  0.70935032  0.85467593  0.39299774  1
  Cl  Cl10  1  0.14532692  0.85467606  0.39299780  1
  Cl  Cl11  1  0.85466267  0.70932482  0.89299285  1
  O  O0  1  0.66666676  0.33333326  0.59825948  1
  O  O1  1  0.33333202  0.66666576  0.09821835  1
loop_
_geom_bond_atom_site_label_1
_geom_bond_atom_site_label_2
_geom_bond_distance
_geom_bond_site_symmetry_2
Ba0 O0 2.531485 1_555
Ba0 Cl3 3.207635 1_556
Ba0 Cl0 3.207664 1_556
Ba0 Cl4 3.207682 1_556
Ba0 Cl8 3.288514 1_555
Ba0 Cl7 3.288536 1_555
Ba0 Cl11 3.288564 1_555
Ba1 O1 2.531588 1_555
Ba1 Cl1 3.208011 1_555
Ba1 Cl5 3.208042 1_555
Ba1 Cl2 3.208046 1_555
Ba1 Cl6 3.288694 1_555
Ba1 Cl10 3.288731 1_555
Ba1 Cl9 3.288785 1_555
Ba2 O0 2.530048 1_555
Ba2 Cl11 3.158567 1_555
Ba2 Cl9 3.161639 1_555
Ba2 Cl10 3.161642 1_655
Ba2 Cl4 3.236343 1_555
Ba2 Cl0 3.236369 1_555
Ba2 Cl1 3.460303 1_655
Ba2 Cl5 3.460324 1_555
Ba3 O1 2.530155 1_556
Ba3 Cl10 3.158657 1_556
Ba3 Cl8 3.161542 1_565
Ba3 Cl11 3.161568 1_455
Ba3 Cl2 3.236705 1_555
Ba3 Cl1 3.236747 1_555
Ba3 Cl3 3.460773 1_566
Ba3 Cl4 3.460847 1_456
Ba4 O1 2.530141 1_556
Ba4 Cl9 3.158687 1_556
Ba4 Cl11 3.161581 1_555
Ba4 Cl7 3.161584 1_565
Ba4 Cl2 3.236684 1_555
Ba4 Cl5 3.236698 1_555
Ba4 Cl3 3.460791 1_566
Ba4 Cl0 3.460817 1_556
Ba5 O0 2.530027 1_555
Ba5 Cl8 3.158551 1_555
Ba5 Cl10 3.161639 1_545
Ba5 Cl6 3.161641 1_555
Ba5 Cl0 3.236337 1_555
Ba5 Cl3 3.236370 1_555
Ba5 Cl5 3.460273 1_555
Ba5 Cl2 3.460313 1_545
Ba6 O0 2.530044 1_555
Ba6 Cl7 3.158563 1_555
Ba6 Cl6 3.161629 1_655
Ba6 Cl9 3.161634 1_545
Ba6 Cl4 3.236315 1_555
Ba6 Cl3 3.236381 1_555
Ba6 Cl1 3.460270 1_655
Ba6 Cl2 3.460344 1_545
Ba7 O1 2.530162 1_556
Ba7 Cl6 3.158642 1_556
Ba7 Cl8 3.161522 1_555
Ba7 Cl7 3.161529 1_455
Ba7 Cl5 3.236742 1_555
Ba7 Cl1 3.236745 1_555
Ba7 Cl0 3.460790 1_556
Ba7 Cl4 3.460812 1_456
