# generated using pymatgen
data_Na2AlCoF7
_symmetry_space_group_name_H-M   'P 1'
_cell_length_a   7.24717814
_cell_length_b   7.24717814
_cell_length_c   24.36833139
_cell_angle_alpha   81.95452583
_cell_angle_beta   81.95452583
_cell_angle_gamma   60.47556985
_symmetry_Int_Tables_number   1
_chemical_formula_structural   Na2AlCoF7
_chemical_formula_sum   'Na16 Al8 Co8 F56'
_cell_volume   1098.95692994
_cell_formula_units_Z   8
loop_
 _symmetry_equiv_pos_site_id
 _symmetry_equiv_pos_as_xyz
  1  'x, y, z'
loop_
 _atom_site_type_symbol
 _atom_site_label
 _atom_site_symmetry_multiplicity
 _atom_site_fract_x
 _atom_site_fract_y
 _atom_site_fract_z
 _atom_site_occupancy
  Na  Na0  1  0.50000000  0.00000000  0.00000000  1
  Na  Na1  1  0.69973500  0.79628200  0.75155400  1
  Na  Na2  1  0.88123800  0.86556000  0.37804400  1
  Na  Na3  1  0.21073100  0.78926900  0.75000000  1
  Na  Na4  1  0.20371800  0.30026500  0.74844600  1
  Na  Na5  1  0.50000000  0.50000000  0.00000000  1
  Na  Na6  1  0.78926900  0.21073100  0.25000000  1
  Na  Na7  1  0.86556000  0.88123800  0.87804400  1
  Na  Na8  1  0.00000000  0.00000000  0.50000000  1
  Na  Na9  1  0.00000000  0.00000000  0.00000000  1
  Na  Na10  1  0.00000000  0.50000000  0.50000000  1
  Na  Na11  1  0.13444000  0.11876200  0.12195600  1
  Na  Na12  1  0.30026500  0.20371800  0.24844600  1
  Na  Na13  1  0.50000000  0.50000000  0.50000000  1
  Na  Na14  1  0.79628200  0.69973500  0.25155400  1
  Na  Na15  1  0.11876200  0.13444000  0.62195600  1
  Al  Al0  1  0.89198100  0.36115400  0.37432200  1
  Al  Al1  1  0.25206500  0.74793500  0.25000000  1
  Al  Al2  1  0.10801900  0.63884600  0.62567800  1
  Al  Al3  1  0.00000000  0.50000000  0.00000000  1
  Al  Al4  1  0.50000000  0.00000000  0.50000000  1
  Al  Al5  1  0.36115400  0.89198100  0.87432200  1
  Al  Al6  1  0.74793500  0.25206500  0.75000000  1
  Al  Al7  1  0.63884600  0.10801900  0.12567800  1
  Co  Co0  1  0.60962900  0.13731200  0.62591900  1
  Co  Co1  1  0.39037100  0.86268800  0.37408100  1
  Co  Co2  1  0.36653700  0.38913000  0.87237400  1
  Co  Co3  1  0.86268800  0.39037100  0.87408100  1
  Co  Co4  1  0.61087000  0.63346300  0.62762600  1
  Co  Co5  1  0.38913000  0.36653700  0.37237400  1
  Co  Co6  1  0.13731200  0.60962900  0.12591900  1
  Co  Co7  1  0.63346300  0.61087000  0.12762600  1
  F  F0  1  0.55091100  0.92417300  0.11178700  1
  F  F1  1  0.97468900  0.35407100  0.29905800  1
  F  F2  1  0.15052200  0.00517300  0.20982800  1
  F  F3  1  0.70506400  0.35491300  0.59410800  1
  F  F4  1  0.44908900  0.07582700  0.88821300  1
  F  F5  1  0.27697000  0.70533600  0.85990100  1
  F  F6  1  0.02531100  0.64592900  0.70094200  1
  F  F7  1  0.70533600  0.27697000  0.35990100  1
  F  F8  1  0.92356700  0.92158300  0.61104000  1
  F  F9  1  0.75975400  0.57594300  0.04668100  1
  F  F10  1  0.24024600  0.42405700  0.95331900  1
  F  F11  1  0.15100300  0.63694000  0.20690600  1
  F  F12  1  0.48596500  0.36198200  0.79055800  1
  F  F13  1  0.36306000  0.84899700  0.29309400  1
  F  F14  1  0.35407100  0.97468900  0.79905800  1
  F  F15  1  0.57471000  0.12901300  0.54486000  1
  F  F16  1  0.36578600  0.81290800  0.94985300  1
  F  F17  1  0.42529000  0.87098700  0.45514000  1
  F  F18  1  0.42405700  0.24024600  0.45331900  1
  F  F19  1  0.77980300  0.87509400  0.46897700  1
  F  F20  1  0.35575600  0.29492400  0.13994100  1
  F  F21  1  0.35491300  0.70506400  0.09410800  1
  F  F22  1  0.07841700  0.07643300  0.88896000  1
  F  F23  1  0.87509400  0.77980300  0.96897700  1
  F  F24  1  0.64592900  0.02531100  0.20094200  1
  F  F25  1  0.57594300  0.75975400  0.54668100  1
  F  F26  1  0.63694000  0.15100300  0.70690600  1
  F  F27  1  0.64508700  0.29493600  0.90589200  1
  F  F28  1  0.72303000  0.29466400  0.14009900  1
  F  F29  1  0.29492400  0.35575600  0.63994100  1
  F  F30  1  0.63421400  0.18709200  0.05014700  1
  F  F31  1  0.12901300  0.57471000  0.04486000  1
  F  F32  1  0.87098700  0.42529000  0.95514000  1
  F  F33  1  0.92158300  0.92356700  0.11104000  1
  F  F34  1  0.29466400  0.72303000  0.64009900  1
  F  F35  1  0.18709200  0.63421400  0.55014700  1
  F  F36  1  0.91753000  0.51639200  0.15845700  1
  F  F37  1  0.63801800  0.51403500  0.70944200  1
  F  F38  1  0.00517300  0.15052200  0.70982800  1
  F  F39  1  0.48360800  0.08247000  0.34154300  1
  F  F40  1  0.84899700  0.36306000  0.79309400  1
  F  F41  1  0.36198200  0.48596500  0.29055800  1
  F  F42  1  0.92417300  0.55091100  0.61178700  1
  F  F43  1  0.51403500  0.63801800  0.20944200  1
  F  F44  1  0.81290800  0.36578600  0.44985300  1
  F  F45  1  0.99482700  0.84947800  0.29017200  1
  F  F46  1  0.64424400  0.70507600  0.86005900  1
  F  F47  1  0.22019700  0.12490600  0.53102300  1
  F  F48  1  0.29493600  0.64508700  0.40589200  1
  F  F49  1  0.84947800  0.99482700  0.79017200  1
  F  F50  1  0.08247000  0.48360800  0.84154300  1
  F  F51  1  0.12490600  0.22019700  0.03102300  1
  F  F52  1  0.07582700  0.44908900  0.38821300  1
  F  F53  1  0.51639200  0.91753000  0.65845700  1
  F  F54  1  0.07643300  0.07841700  0.38896000  1
  F  F55  1  0.70507600  0.64424400  0.36005900  1
loop_
_geom_bond_atom_site_label_1
_geom_bond_atom_site_label_2
_geom_bond_distance
_geom_bond_site_symmetry_2
Al0 F52 1.821919 1_655
Al0 F7 1.825321 1_555
Al0 F54 1.828119 1_655
Al0 F55 1.832458 1_555
Al0 F1 1.847698 1_555
Al0 F44 1.849403 1_555
Al1 F45 1.820425 1_455
Al1 F2 1.820425 1_565
Al1 F11 1.821722 1_555
Al1 F13 1.821722 1_555
Al1 F41 1.849431 1_555
Al1 F43 1.849431 1_555
Al2 F42 1.821919 1_455
Al2 F34 1.825321 1_555
Al2 F8 1.828119 1_455
Al2 F29 1.832458 1_555
Al2 F6 1.847698 1_555
Al2 F35 1.849403 1_555
Al3 F10 1.817898 1_554
Al3 F9 1.817898 1_455
Al3 F31 1.820182 1_555
Al3 F32 1.820182 1_454
Al3 F23 1.859071 1_454
Al3 F51 1.859071 1_555
Al4 F18 1.817898 1_555
Al4 F25 1.817898 1_545
Al4 F15 1.820182 1_555
Al4 F17 1.820182 1_545
Al4 F19 1.859071 1_545
Al4 F47 1.859071 1_555
Al5 F4 1.821919 1_565
Al5 F5 1.825321 1_555
Al5 F22 1.828119 1_565
Al5 F46 1.832458 1_555
Al5 F14 1.847698 1_555
Al5 F16 1.849403 1_555
Al6 F49 1.820425 1_545
Al6 F38 1.820425 1_655
Al6 F40 1.821722 1_555
Al6 F26 1.821722 1_555
Al6 F37 1.849431 1_555
Al6 F12 1.849431 1_555
Al7 F0 1.821919 1_545
Al7 F28 1.825321 1_555
Al7 F33 1.828119 1_545
Al7 F20 1.832458 1_555
Al7 F24 1.847698 1_555
Al7 F30 1.849403 1_555
Co0 F26 2.031576 1_555
Co0 F3 2.036883 1_555
Co0 F15 2.039004 1_555
Co0 F8 2.043064 1_545
Co0 F53 2.044392 1_545
Co0 F29 2.049233 1_555
Co1 F13 2.031576 1_555
Co1 F48 2.036883 1_555
Co1 F17 2.039004 1_555
Co1 F54 2.043064 1_565
Co1 F39 2.044392 1_565
Co1 F55 2.049233 1_555
Co2 F4 2.035399 1_555
Co2 F27 2.038518 1_555
Co2 F5 2.039450 1_555
Co2 F50 2.042335 1_555
Co2 F10 2.049042 1_555
Co2 F12 2.054674 1_555
Co3 F40 2.031576 1_555
Co3 F27 2.036883 1_555
Co3 F32 2.039004 1_555
Co3 F22 2.043064 1_655
Co3 F50 2.044392 1_655
Co3 F46 2.049233 1_555
Co4 F42 2.035399 1_555
Co4 F3 2.038518 1_555
Co4 F34 2.039450 1_555
Co4 F53 2.042335 1_555
Co4 F25 2.049042 1_555
Co4 F37 2.054674 1_555
Co5 F52 2.035399 1_555
Co5 F48 2.038518 1_555
Co5 F7 2.039450 1_555
Co5 F39 2.042335 1_555
Co5 F18 2.049042 1_555
Co5 F41 2.054674 1_555
Co6 F11 2.031576 1_555
Co6 F21 2.036883 1_555
Co6 F31 2.039004 1_555
Co6 F33 2.043064 1_455
Co6 F36 2.044392 1_455
Co6 F20 2.049233 1_555
Co7 F0 2.035399 1_555
Co7 F21 2.038518 1_555
Co7 F28 2.039450 1_555
Co7 F36 2.042335 1_555
Co7 F9 2.049042 1_555
Co7 F43 2.054674 1_555
F0 Na11 2.617883 1_565
F0 Na0 2.742465 1_565
F1 Na12 2.302896 1_655
F1 Na14 2.387920 1_555
F1 Na6 2.546973 1_555
F2 Na11 2.181345 1_555
F2 Na6 2.424593 1_455
F2 Na12 2.517456 1_555
F3 Na13 2.704093 1_555
F3 Na15 2.747170 1_655
F4 Na7 2.617883 1_545
F4 Na0 2.742465 1_556
F5 Na7 2.598644 1_455
F5 Na3 2.718228 1_555
F6 Na1 2.302896 1_455
F6 Na4 2.387920 1_555
F6 Na3 2.546973 1_555
F7 Na2 2.598644 1_545
F7 Na6 2.718228 1_555
F8 Na15 2.611989 1_665
F8 Na8 2.722451 1_665
F9 Na5 2.633714 1_555
F9 Na0 2.863798 1_565
F10 Na5 2.633714 1_556
F10 Na0 2.863798 1_556
F11 Na14 2.490404 1_455
F11 Na12 2.849865 1_555
F12 Na4 2.656116 1_555
F12 Na3 2.855171 1_555
F13 Na12 2.490404 1_565
F13 Na14 2.849865 1_555
F14 Na4 2.302896 1_565
F14 Na1 2.387920 1_555
F14 Na3 2.546973 1_555
F15 Na13 2.573911 1_555
F15 Na8 2.841058 1_655
F16 Na5 2.228209 1_556
F16 Na9 2.524588 1_566
F16 Na0 2.524707 1_566
F17 Na13 2.573911 1_555
F17 Na8 2.841058 1_565
F18 Na13 2.633714 1_555
F18 Na10 2.863798 1_555
F19 Na2 2.234312 1_555
F19 Na8 2.427035 1_665
F19 Na10 2.448392 1_655
F20 Na11 2.601171 1_555
F20 Na12 2.657997 1_555
F21 Na5 2.704093 1_555
F21 Na11 2.747170 1_565
F22 Na7 2.611989 1_445
F22 Na9 2.722451 1_556
F23 Na7 2.234312 1_555
F23 Na9 2.427035 1_666
F23 Na0 2.448392 1_566
F24 Na14 2.302896 1_545
F24 Na12 2.387920 1_555
F24 Na6 2.546973 1_555
F25 Na13 2.633714 1_555
F25 Na10 2.863798 1_655
F26 Na1 2.490404 1_545
F26 Na4 2.849865 1_555
F27 Na5 2.704093 1_556
F27 Na7 2.747170 1_545
F28 Na11 2.598644 1_655
F28 Na6 2.718228 1_555
F29 Na15 2.601171 1_555
F29 Na4 2.657997 1_555
F30 Na5 2.228209 1_555
F30 Na9 2.524588 1_655
F30 Na0 2.524707 1_555
F31 Na5 2.573911 1_555
F31 Na9 2.841058 1_565
F32 Na5 2.573911 1_556
F32 Na9 2.841058 1_656
F33 Na11 2.611989 1_665
F33 Na9 2.722451 1_665
F34 Na15 2.598644 1_565
F34 Na3 2.718228 1_555
F35 Na13 2.228209 1_555
F35 Na8 2.524588 1_565
F35 Na10 2.524707 1_555
F36 Na14 2.611377 1_555
F36 Na11 2.725408 1_655
F37 Na1 2.656116 1_555
F37 Na3 2.855171 1_555
F38 Na15 2.181345 1_555
F38 Na3 2.424593 1_545
F38 Na4 2.517456 1_555
F39 Na12 2.611377 1_555
F39 Na2 2.725408 1_545
F40 Na4 2.490404 1_655
F40 Na1 2.849865 1_555
F41 Na12 2.656116 1_555
F41 Na6 2.855171 1_555
F42 Na15 2.617883 1_655
F42 Na10 2.742465 1_655
F43 Na14 2.656116 1_555
F43 Na6 2.855171 1_555
F44 Na13 2.228209 1_555
F44 Na8 2.524588 1_655
F44 Na10 2.524707 1_655
F45 Na2 2.181345 1_555
F45 Na6 2.424593 1_565
F45 Na14 2.517456 1_555
F46 Na7 2.601171 1_555
F46 Na1 2.657997 1_555
F47 Na15 2.234312 1_555
F47 Na8 2.427035 1_555
F47 Na10 2.448392 1_555
F48 Na13 2.704093 1_555
F48 Na2 2.747170 1_455
F49 Na7 2.181345 1_555
F49 Na3 2.424593 1_655
F49 Na1 2.517456 1_555
F50 Na4 2.611377 1_555
F50 Na7 2.725408 1_455
F51 Na11 2.234312 1_555
F51 Na9 2.427035 1_555
F51 Na0 2.448392 1_555
F52 Na2 2.617883 1_455
F52 Na10 2.742465 1_555
F53 Na1 2.611377 1_555
F53 Na15 2.725408 1_565
F54 Na2 2.611989 1_445
F54 Na8 2.722451 1_555
F55 Na2 2.601171 1_555
F55 Na14 2.657997 1_555
