# generated using pymatgen
data_Zr2Fe3Ge
_symmetry_space_group_name_H-M   'P 1'
_cell_length_a   5.00988674
_cell_length_b   5.00988725
_cell_length_c   8.29707537
_cell_angle_alpha   89.99977728
_cell_angle_beta   90.00022878
_cell_angle_gamma   119.99883810
_symmetry_Int_Tables_number   1
_chemical_formula_structural   Zr2Fe3Ge
_chemical_formula_sum   'Zr4 Fe6 Ge2'
_cell_volume   180.35019303
_cell_formula_units_Z   2
loop_
 _symmetry_equiv_pos_site_id
 _symmetry_equiv_pos_as_xyz
  1  'x, y, z'
loop_
 _atom_site_type_symbol
 _atom_site_label
 _atom_site_symmetry_multiplicity
 _atom_site_fract_x
 _atom_site_fract_y
 _atom_site_fract_z
 _atom_site_occupancy
  Zr  Zr0  1  0.66667239  0.33334054  0.93534453  1
  Zr  Zr1  1  0.33333999  0.66668134  0.43528416  1
  Zr  Zr2  1  0.66667790  0.33334255  0.56463085  1
  Zr  Zr3  1  0.33333813  0.66667577  0.06474581  1
  Fe  Fe0  1  0.82845741  0.65691987  0.25003975  1
  Fe  Fe1  1  0.17153982  0.82846234  0.74995963  1
  Fe  Fe2  1  0.65691837  0.82845788  0.74995957  1
  Fe  Fe3  1  0.34308694  0.17154947  0.25003972  1
  Fe  Fe4  1  0.82846111  0.17154352  0.25003966  1
  Fe  Fe5  1  0.17154644  0.34308604  0.74995947  1
  Ge  Ge0  1  -0.00001803  -0.00002895  0.49994702  1
  Ge  Ge1  1  -0.00001948  -0.00003037  0.00004984  1
loop_
_geom_bond_atom_site_label_1
_geom_bond_atom_site_label_2
_geom_bond_distance
_geom_bond_site_symmetry_2
Fe0 Fe4 2.431690 1_555
Fe0 Fe3 2.431694 1_555
Fe0 Ge0 2.552406 1_665
Fe0 Ge1 2.552954 1_665
Fe0 Fe4 2.578197 1_565
Fe0 Fe3 2.578281 1_665
Fe0 Zr1 2.939191 1_555
Fe0 Zr1 2.939198 1_655
Fe0 Zr3 2.939391 1_555
Fe0 Zr3 2.939427 1_655
Fe0 Zr2 2.963788 1_555
Fe0 Zr0 2.964559 1_554
Fe1 Fe5 2.431697 1_555
Fe1 Fe2 2.431703 1_555
Fe1 Ge0 2.553132 1_565
Fe1 Ge1 2.553666 1_566
Fe1 Fe2 2.578184 1_455
Fe1 Fe5 2.578190 1_565
Fe1 Zr2 2.939558 1_455
Fe1 Zr2 2.939636 1_565
Fe1 Zr0 2.939818 1_455
Fe1 Zr0 2.939864 1_565
Fe1 Zr1 2.964409 1_555
Fe1 Zr3 2.965215 1_556
Fe2 Fe5 2.431701 1_555
Fe2 Ge0 2.553148 1_665
Fe2 Ge1 2.553662 1_666
Fe2 Fe5 2.578274 1_665
Fe2 Zr2 2.939544 1_555
Fe2 Zr2 2.939577 1_565
Fe2 Zr0 2.939774 1_555
Fe2 Zr0 2.939834 1_565
Fe2 Zr1 2.964406 1_555
Fe2 Zr3 2.965226 1_556
Fe3 Fe4 2.431685 1_555
Fe3 Ge0 2.552543 1_555
Fe3 Ge1 2.553097 1_555
Fe3 Fe4 2.578202 1_455
Fe3 Zr1 2.939167 1_545
Fe3 Zr1 2.939221 1_555
Fe3 Zr3 2.939406 1_555
Fe3 Zr3 2.939411 1_545
Fe3 Zr2 2.963816 1_555
Fe3 Zr0 2.964571 1_554
Fe4 Ge0 2.552490 1_655
Fe4 Ge1 2.553057 1_655
Fe4 Zr1 2.939195 1_545
Fe4 Zr1 2.939266 1_655
Fe4 Zr3 2.939426 1_545
Fe4 Zr3 2.939465 1_655
Fe4 Zr2 2.963796 1_555
Fe4 Zr0 2.964551 1_554
Fe5 Ge0 2.553277 1_555
Fe5 Ge1 2.553800 1_556
Fe5 Zr2 2.939541 1_455
Fe5 Zr2 2.939577 1_555
Fe5 Zr0 2.939792 1_555
Fe5 Zr0 2.939815 1_455
Fe5 Zr1 2.964441 1_555
Fe5 Zr3 2.965246 1_556
Ge0 Zr2 2.941698 1_445
Ge0 Zr1 2.941702 1_545
Ge0 Zr1 2.941723 1_445
Ge0 Zr2 2.941852 1_455
Ge0 Zr2 2.941985 1_555
Ge0 Zr1 2.942015 1_555
Ge1 Zr0 2.941735 1_444
Ge1 Zr3 2.941763 1_545
Ge1 Zr3 2.941778 1_445
Ge1 Zr0 2.941895 1_454
Ge1 Zr0 2.942003 1_554
Ge1 Zr3 2.942050 1_555
