# generated using pymatgen
data_Mg4FeO5
_symmetry_space_group_name_H-M   'P 1'
_cell_length_a   5.15644536
_cell_length_b   5.94795592
_cell_length_c   12.38644187
_cell_angle_alpha   89.99951008
_cell_angle_beta   98.52459111
_cell_angle_gamma   89.99987764
_symmetry_Int_Tables_number   1
_chemical_formula_structural   Mg4FeO5
_chemical_formula_sum   'Mg16 Fe4 O20'
_cell_volume   375.69904366
_cell_formula_units_Z   4
loop_
 _symmetry_equiv_pos_site_id
 _symmetry_equiv_pos_as_xyz
  1  'x, y, z'
loop_
 _atom_site_type_symbol
 _atom_site_label
 _atom_site_symmetry_multiplicity
 _atom_site_fract_x
 _atom_site_fract_y
 _atom_site_fract_z
 _atom_site_occupancy
  Mg  Mg0  1  0.39651535  0.49708429  0.20294659  1
  Mg  Mg1  1  0.89651508  0.25292218  0.20294796  1
  Mg  Mg2  1  0.39651533  0.99709113  0.20294766  1
  Mg  Mg3  1  0.89651654  0.75291490  0.20294927  1
  Mg  Mg4  1  0.60283220  0.50310353  0.79718314  1
  Mg  Mg5  1  0.10282967  0.24690270  0.79718272  1
  Mg  Mg6  1  0.60283290  0.00310635  0.79718542  1
  Mg  Mg7  1  0.10282963  0.74690087  0.79718392  1
  Mg  Mg8  1  0.30043882  0.24941961  0.40105943  1
  Mg  Mg9  1  0.80044440  0.00054063  0.40105828  1
  Mg  Mg10  1  0.30043984  0.74942036  0.40106005  1
  Mg  Mg11  1  0.80044354  0.50054151  0.40105804  1
  Mg  Mg12  1  0.69948766  0.75099239  0.59900643  1
  Mg  Mg13  1  0.19949133  0.49898252  0.59900794  1
  Mg  Mg14  1  0.69948753  0.25099104  0.59900520  1
  Mg  Mg15  1  0.19949244  0.99898099  0.59900967  1
  Fe  Fe0  1  0.50155931  0.73842790  -0.00003146  1
  Fe  Fe1  1  0.00155261  0.51158953  -0.00002930  1
  Fe  Fe2  1  0.50155478  0.23843621  -0.00003092  1
  Fe  Fe3  1  0.00155884  0.01159687  -0.00002966  1
  O  O0  1  0.50000833  0.50004832  0.49992269  1
  O  O1  1  0.00000524  0.24991680  0.49992202  1
  O  O2  1  0.50000825  0.00004917  0.49992278  1
  O  O3  1  0.00000381  0.74991831  0.49992286  1
  O  O4  1  0.80709563  0.76171485  0.89356023  1
  O  O5  1  0.30707542  0.48830933  0.89352748  1
  O  O6  1  0.80708734  0.26173212  0.89356456  1
  O  O7  1  0.30708153  0.98832330  0.89352099  1
  O  O8  1  0.19245168  0.24544364  0.10655826  1
  O  O9  1  0.69246779  0.00458969  0.10655478  1
  O  O10  1  0.19244450  0.74542606  0.10656072  1
  O  O11  1  0.69247384  0.50457165  0.10655231  1
  O  O12  1  0.40152036  0.24939558  0.69784623  1
  O  O13  1  0.90148561  0.00062981  0.69783637  1
  O  O14  1  0.40151947  0.74939369  0.69784567  1
  O  O15  1  0.90148591  0.50062690  0.69783667  1
  O  O16  1  0.59809330  0.74996050  0.30196618  1
  O  O17  1  0.09813005  0.50002237  0.30197177  1
  O  O18  1  0.59809094  0.24996047  0.30196562  1
  O  O19  1  0.09812922  0.00002191  0.30197246  1
loop_
_geom_bond_atom_site_label_1
_geom_bond_atom_site_label_2
_geom_bond_distance
_geom_bond_site_symmetry_2
Mg0 O11 2.072858 1_555
Mg0 O10 2.083759 1_555
Mg0 O18 2.089793 1_555
Mg0 O8 2.097731 1_555
Mg0 O17 2.105134 1_555
Mg0 O16 2.114025 1_555
Mg1 O8 2.072726 1_655
Mg1 O9 2.083732 1_555
Mg1 O17 2.089826 1_655
Mg1 O11 2.097747 1_555
Mg1 O18 2.105234 1_555
Mg1 O19 2.114215 1_655
Mg2 O9 2.072822 1_565
Mg2 O8 2.083810 1_565
Mg2 O16 2.089823 1_555
Mg2 O10 2.097842 1_555
Mg2 O19 2.105134 1_565
Mg2 O18 2.113980 1_565
Mg3 O10 2.072681 1_655
Mg3 O11 2.083790 1_555
Mg3 O19 2.089845 1_665
Mg3 O9 2.097864 1_565
Mg3 O16 2.105224 1_555
Mg3 O17 2.114168 1_655
Mg4 O6 2.054955 1_555
Mg4 O5 2.072969 1_555
Mg4 O14 2.087782 1_555
Mg4 O15 2.108995 1_555
Mg4 O12 2.118986 1_555
Mg4 O4 2.127869 1_555
Mg5 O5 2.054869 1_555
Mg5 O6 2.073236 1_455
Mg5 O13 2.087851 1_455
Mg5 O12 2.109066 1_555
Mg5 O15 2.119161 1_455
Mg5 O7 2.127455 1_545
Mg6 O4 2.055014 1_545
Mg6 O7 2.072869 1_545
Mg6 O12 2.087789 1_555
Mg6 O13 2.109013 1_555
Mg6 O14 2.119027 1_545
Mg6 O6 2.127924 1_555
Mg7 O7 2.054900 1_555
Mg7 O4 2.073150 1_455
Mg7 O15 2.087861 1_455
Mg7 O14 2.109077 1_555
Mg7 O13 2.119191 1_465
Mg7 O5 2.127526 1_555
Mg8 O2 2.094020 1_555
Mg8 O0 2.099346 1_555
Mg8 O19 2.101324 1_555
Mg8 O18 2.102563 1_555
Mg8 O17 2.106375 1_555
Mg8 O1 2.112317 1_555
Mg9 O1 2.094047 1_655
Mg9 O3 2.099288 1_645
Mg9 O18 2.101528 1_555
Mg9 O19 2.102632 1_655
Mg9 O16 2.106415 1_545
Mg9 O2 2.112344 1_555
Mg10 O0 2.094021 1_555
Mg10 O2 2.099341 1_565
Mg10 O17 2.101334 1_555
Mg10 O16 2.102569 1_555
Mg10 O19 2.106373 1_565
Mg10 O3 2.112329 1_555
Mg11 O3 2.094055 1_655
Mg11 O1 2.099299 1_655
Mg11 O16 2.101512 1_555
Mg11 O17 2.102643 1_655
Mg11 O18 2.106424 1_555
Mg11 O0 2.112342 1_555
Mg12 O2 2.093911 1_565
Mg12 O13 2.100050 1_565
Mg12 O14 2.101733 1_555
Mg12 O0 2.101886 1_555
Mg12 O15 2.103098 1_555
Mg12 O3 2.114559 1_655
Mg13 O1 2.093995 1_555
Mg13 O12 2.099938 1_555
Mg13 O15 2.101802 1_455
Mg13 O3 2.101858 1_555
Mg13 O14 2.103419 1_555
Mg13 O0 2.114576 1_555
Mg14 O0 2.093905 1_555
Mg14 O15 2.100054 1_555
Mg14 O12 2.101744 1_555
Mg14 O2 2.101868 1_555
Mg14 O13 2.103086 1_555
Mg14 O1 2.114562 1_655
Mg15 O3 2.093993 1_555
Mg15 O14 2.099920 1_555
Mg15 O13 2.101790 1_465
Mg15 O1 2.101874 1_565
Mg15 O12 2.103425 1_565
Mg15 O2 2.114585 1_565
Fe0 O11 2.064335 1_555
Fe0 O7 2.135731 1_554
Fe0 O5 2.136642 1_554
Fe0 O9 2.198422 1_565
Fe0 O4 2.203207 1_554
Fe0 O10 2.215728 1_555
Fe1 O10 2.064274 1_555
Fe1 O6 2.135287 1_454
Fe1 O4 2.136391 1_454
Fe1 O8 2.198326 1_555
Fe1 O5 2.203454 1_554
Fe1 O11 2.215488 1_455
Fe2 O9 2.064307 1_555
Fe2 O5 2.135601 1_554
Fe2 O7 2.136645 1_544
Fe2 O11 2.198309 1_555
Fe2 O6 2.203162 1_554
Fe2 O8 2.215654 1_555
Fe3 O8 2.064302 1_555
Fe3 O4 2.135412 1_444
Fe3 O6 2.136429 1_454
Fe3 O10 2.198426 1_545
Fe3 O7 2.203505 1_544
Fe3 O9 2.215562 1_455
