# generated using pymatgen
data_MgTi(GaO2)4
_symmetry_space_group_name_H-M   'P 1'
_cell_length_a   3.00622058
_cell_length_b   6.68360003
_cell_length_c   8.24432975
_cell_angle_alpha   78.34486248
_cell_angle_beta   79.47934721
_cell_angle_gamma   76.99452313
_symmetry_Int_Tables_number   1
_chemical_formula_structural   MgTi(GaO2)4
_chemical_formula_sum   'Mg1 Ti1 Ga4 O8'
_cell_volume   156.43065834
_cell_formula_units_Z   1
loop_
 _symmetry_equiv_pos_site_id
 _symmetry_equiv_pos_as_xyz
  1  'x, y, z'
loop_
 _atom_site_type_symbol
 _atom_site_label
 _atom_site_symmetry_multiplicity
 _atom_site_fract_x
 _atom_site_fract_y
 _atom_site_fract_z
 _atom_site_occupancy
  Mg  Mg0  1  0.94752575  0.77324379  0.33236458  1
  Ti  Ti0  1  0.98523303  0.01911385  0.01090422  1
  Ga  Ga0  1  0.69722190  0.50712237  0.09952398  1
  Ga  Ga1  1  0.73510913  0.86301144  0.66747300  1
  Ga  Ga2  1  0.21545592  0.18542446  0.38355372  1
  Ga  Ga3  1  0.45505070  0.38122244  0.70917190  1
  O  O0  1  0.88814803  0.54683077  0.67727623  1
  O  O1  1  0.52335736  0.83098925  0.12257880  1
  O  O2  1  0.44456524  0.19687258  0.91408723  1
  O  O3  1  0.82309875  0.11254993  0.24134205  1
  O  O4  1  0.11602023  0.47814364  0.29051734  1
  O  O5  1  0.62729707  0.18640502  0.55913959  1
  O  O6  1  0.32632221  0.86194514  0.48579728  1
  O  O7  1  0.15309469  0.88004232  0.81460308  1
loop_
_geom_bond_atom_site_label_1
_geom_bond_atom_site_label_2
_geom_bond_distance
_geom_bond_site_symmetry_2
Mg0 O4 2.006776 1_655
Mg0 O6 2.093100 1_555
Mg0 O6 2.093127 1_655
Mg0 O3 2.208849 1_565
Mg0 O1 2.252680 1_655
Mg0 O1 2.253981 1_555
Ga0 O4 2.143121 1_655
Ga0 O4 2.143386 1_555
Ga0 O1 2.148378 1_555
Ga1 O7 1.933065 1_555
Ga1 O7 1.933908 1_655
Ga1 O0 2.047168 1_555
Ga1 O6 2.104466 1_655
Ga1 O6 2.105722 1_555
Ga1 O5 2.141251 1_565
Ga2 O4 1.928587 1_555
Ga2 O3 1.999219 1_555
Ga2 O3 1.999352 1_455
Ga2 O5 2.070214 1_455
Ga2 O5 2.071324 1_555
Ga2 O6 2.130217 1_545
Ga3 O0 1.842677 1_555
Ga3 O0 1.842751 1_455
Ga3 O2 1.878873 1_555
Ga3 O5 1.899179 1_555
O1 Ti0 2.050922 1_465
O1 Ti0 2.051276 1_565
O2 Ti0 1.976895 1_456
O2 Ti0 1.977853 1_556
O3 Ti0 2.059375 1_555
O7 Ti0 1.958618 1_466
