# generated using pymatgen
data_Pu5Ir4
_symmetry_space_group_name_H-M   'P 1'
_cell_length_a   6.83549800
_cell_length_b   7.52533800
_cell_length_c   14.13705700
_cell_angle_alpha   90.00000000
_cell_angle_beta   90.00000000
_cell_angle_gamma   90.00000000
_symmetry_Int_Tables_number   1
_chemical_formula_structural   Pu5Ir4
_chemical_formula_sum   'Pu20 Ir16'
_cell_volume   727.20219422
_cell_formula_units_Z   4
loop_
 _symmetry_equiv_pos_site_id
 _symmetry_equiv_pos_as_xyz
  1  'x, y, z'
loop_
 _atom_site_type_symbol
 _atom_site_label
 _atom_site_symmetry_multiplicity
 _atom_site_fract_x
 _atom_site_fract_y
 _atom_site_fract_z
 _atom_site_occupancy
  Pu  Pu0  1  0.69940300  0.02925000  0.25000000  1
  Pu  Pu1  1  0.19940300  0.47075000  0.25000000  1
  Pu  Pu2  1  0.80059700  0.52925000  0.75000000  1
  Pu  Pu3  1  0.30059700  0.97075000  0.75000000  1
  Pu  Pu4  1  0.85523500  0.66502500  0.11767500  1
  Pu  Pu5  1  0.35523500  0.83497500  0.38232500  1
  Pu  Pu6  1  0.64476500  0.16502500  0.88232500  1
  Pu  Pu7  1  0.14476500  0.33497500  0.61767500  1
  Pu  Pu8  1  0.14476500  0.33497500  0.88232500  1
  Pu  Pu9  1  0.64476500  0.16502500  0.61767500  1
  Pu  Pu10  1  0.35523500  0.83497500  0.11767500  1
  Pu  Pu11  1  0.85523500  0.66502500  0.38232500  1
  Pu  Pu12  1  0.00067500  0.16978900  0.09528200  1
  Pu  Pu13  1  0.50067500  0.33021100  0.40471800  1
  Pu  Pu14  1  0.49932500  0.66978900  0.90471800  1
  Pu  Pu15  1  0.99932500  0.83021100  0.59528200  1
  Pu  Pu16  1  0.99932500  0.83021100  0.90471800  1
  Pu  Pu17  1  0.49932500  0.66978900  0.59528200  1
  Pu  Pu18  1  0.50067500  0.33021100  0.09528200  1
  Pu  Pu19  1  0.00067500  0.16978900  0.40471800  1
  Ir  Ir0  1  0.04200600  0.87072900  0.25000000  1
  Ir  Ir1  1  0.54200600  0.62927100  0.25000000  1
  Ir  Ir2  1  0.45799400  0.37072900  0.75000000  1
  Ir  Ir3  1  0.95799400  0.12927100  0.75000000  1
  Ir  Ir4  1  0.83029900  0.36927800  0.25000000  1
  Ir  Ir5  1  0.33029900  0.13072200  0.25000000  1
  Ir  Ir6  1  0.66970100  0.86927800  0.75000000  1
  Ir  Ir7  1  0.16970100  0.63072200  0.75000000  1
  Ir  Ir8  1  0.80383300  0.45764100  0.96686800  1
  Ir  Ir9  1  0.30383300  0.04235900  0.53313200  1
  Ir  Ir10  1  0.69616700  0.95764100  0.03313200  1
  Ir  Ir11  1  0.19616700  0.54235900  0.46686800  1
  Ir  Ir12  1  0.19616700  0.54235900  0.03313200  1
  Ir  Ir13  1  0.69616700  0.95764100  0.46686800  1
  Ir  Ir14  1  0.30383300  0.04235900  0.96686800  1
  Ir  Ir15  1  0.80383300  0.45764100  0.53313200  1
loop_
_geom_bond_atom_site_label_1
_geom_bond_atom_site_label_2
_geom_bond_distance
_geom_bond_site_symmetry_2
Ir0 Pu0 2.628191 1_465
Ir0 Pu11 2.743290 1_455
Ir0 Pu4 2.743290 1_455
Ir0 Ir5 2.776940 1_565
Ir0 Pu10 2.855883 1_555
Ir0 Pu5 2.855883 1_555
Ir0 Pu12 3.150997 1_565
Ir0 Pu19 3.150997 1_565
Ir0 Pu1 3.196482 1_555
Ir1 Pu1 2.628191 1_555
Ir1 Pu10 2.743290 1_555
Ir1 Pu5 2.743290 1_555
Ir1 Ir4 2.776940 1_555
Ir1 Pu4 2.855883 1_555
Ir1 Pu11 2.855883 1_555
Ir1 Pu18 3.150997 1_555
Ir1 Pu13 3.150997 1_555
Ir1 Pu0 3.196482 1_565
Ir2 Pu2 2.628191 1_555
Ir2 Pu9 2.743290 1_555
Ir2 Pu6 2.743290 1_555
Ir2 Ir7 2.776940 1_555
Ir2 Pu7 2.855883 1_555
Ir2 Pu8 2.855883 1_555
Ir2 Pu17 3.150997 1_555
Ir2 Pu14 3.150997 1_555
Ir2 Pu3 3.196482 1_545
Ir3 Pu3 2.628191 1_645
Ir3 Pu7 2.743290 1_655
Ir3 Pu8 2.743290 1_655
Ir3 Ir6 2.776940 1_545
Ir3 Pu6 2.855883 1_555
Ir3 Pu9 2.855883 1_555
Ir3 Pu16 3.150997 1_545
Ir3 Pu15 3.150997 1_545
Ir3 Pu2 3.196482 1_555
Ir4 Pu1 2.636035 1_655
Ir4 Pu0 2.710747 1_555
Ir4 Pu12 2.897252 1_655
Ir4 Pu19 2.897252 1_655
Ir4 Pu4 2.912353 1_555
Ir4 Pu11 2.912353 1_555
Ir4 Pu18 3.153916 1_555
Ir4 Pu13 3.153916 1_555
Ir5 Pu0 2.636035 1_555
Ir5 Pu1 2.710747 1_555
Ir5 Pu18 2.897252 1_555
Ir5 Pu13 2.897252 1_555
Ir5 Pu5 2.912353 1_545
Ir5 Pu10 2.912353 1_545
Ir5 Pu12 3.153916 1_555
Ir5 Pu19 3.153916 1_555
Ir6 Pu3 2.636035 1_555
Ir6 Pu2 2.710747 1_555
Ir6 Pu17 2.897252 1_555
Ir6 Pu14 2.897252 1_555
Ir6 Pu9 2.912353 1_565
Ir6 Pu6 2.912353 1_565
Ir6 Pu15 3.153916 1_555
Ir6 Pu16 3.153916 1_555
Ir7 Pu2 2.636035 1_455
Ir7 Pu3 2.710747 1_555
Ir7 Pu15 2.897252 1_455
Ir7 Pu16 2.897252 1_455
Ir7 Pu8 2.912353 1_555
Ir7 Pu7 2.912353 1_555
Ir7 Pu17 3.153916 1_555
Ir7 Pu14 3.153916 1_555
Ir8 Pu4 2.665393 1_556
Ir8 Pu6 2.731240 1_555
Ir8 Pu14 2.766447 1_555
Ir8 Pu8 2.776967 1_655
Ir8 Pu18 2.917090 1_556
Ir8 Pu2 3.112953 1_555
Ir8 Pu12 3.130243 1_656
Ir8 Pu16 3.227762 1_555
Ir9 Pu5 2.665393 1_545
Ir9 Pu7 2.731240 1_555
Ir9 Pu15 2.766447 1_445
Ir9 Pu9 2.776967 1_555
Ir9 Pu19 2.917090 1_555
Ir9 Pu3 3.112953 1_545
Ir9 Pu13 3.130243 1_555
Ir9 Pu17 3.227762 1_545
Ir10 Pu6 2.665393 1_564
Ir10 Pu4 2.731240 1_555
Ir10 Pu12 2.766447 1_665
Ir10 Pu10 2.776967 1_555
Ir10 Ir14 2.911364 1_564
Ir10 Pu16 2.917090 1_554
Ir10 Pu0 3.112953 1_565
Ir10 Pu14 3.130243 1_554
Ir10 Pu18 3.227762 1_565
Ir11 Pu7 2.665393 1_555
Ir11 Pu5 2.731240 1_555
Ir11 Pu13 2.766447 1_555
Ir11 Pu11 2.776967 1_455
Ir11 Ir15 2.911364 1_455
Ir11 Pu17 2.917090 1_555
Ir11 Pu1 3.112953 1_555
Ir11 Pu15 3.130243 1_455
Ir11 Pu19 3.227762 1_555
Ir12 Pu8 2.665393 1_554
Ir12 Pu10 2.731240 1_555
Ir12 Pu18 2.766447 1_555
Ir12 Pu4 2.776967 1_455
Ir12 Ir8 2.911364 1_454
Ir12 Pu14 2.917090 1_554
Ir12 Pu1 3.112953 1_555
Ir12 Pu16 3.130243 1_454
Ir12 Pu12 3.227762 1_555
Ir13 Pu9 2.665393 1_565
Ir13 Pu11 2.731240 1_555
Ir13 Pu19 2.766447 1_665
Ir13 Pu5 2.776967 1_555
Ir13 Ir9 2.911364 1_565
Ir13 Pu15 2.917090 1_555
Ir13 Pu0 3.112953 1_565
Ir13 Pu17 3.130243 1_555
Ir13 Pu13 3.227762 1_565
Ir14 Pu10 2.665393 1_546
Ir14 Pu8 2.731240 1_555
Ir14 Pu16 2.766447 1_445
Ir14 Pu6 2.776967 1_555
Ir14 Pu12 2.917090 1_556
Ir14 Pu3 3.112953 1_545
Ir14 Pu18 3.130243 1_556
Ir14 Pu14 3.227762 1_545
Ir15 Pu11 2.665393 1_555
Ir15 Pu9 2.731240 1_555
Ir15 Pu17 2.766447 1_555
Ir15 Pu7 2.776967 1_655
Ir15 Pu13 2.917090 1_555
Ir15 Pu2 3.112953 1_555
Ir15 Pu19 3.130243 1_655
Ir15 Pu15 3.227762 1_555
