# generated using pymatgen
data_Yb5Si4
_symmetry_space_group_name_H-M   'P 1'
_cell_length_a   7.51486400
_cell_length_b   7.80974700
_cell_length_c   15.47795200
_cell_angle_alpha   90.00000000
_cell_angle_beta   90.00000000
_cell_angle_gamma   90.00000000
_symmetry_Int_Tables_number   1
_chemical_formula_structural   Yb5Si4
_chemical_formula_sum   'Yb20 Si16'
_cell_volume   908.38841280
_cell_formula_units_Z   4
loop_
 _symmetry_equiv_pos_site_id
 _symmetry_equiv_pos_as_xyz
  1  'x, y, z'
loop_
 _atom_site_type_symbol
 _atom_site_label
 _atom_site_symmetry_multiplicity
 _atom_site_fract_x
 _atom_site_fract_y
 _atom_site_fract_z
 _atom_site_occupancy
  Yb  Yb0  1  0.31651400  0.18134000  0.12252400  1
  Yb  Yb1  1  0.81651400  0.31866000  0.37747600  1
  Yb  Yb2  1  0.18348600  0.68134000  0.87747600  1
  Yb  Yb3  1  0.68348600  0.81866000  0.62252400  1
  Yb  Yb4  1  0.31651400  0.18134000  0.37747600  1
  Yb  Yb5  1  0.81651400  0.31866000  0.12252400  1
  Yb  Yb6  1  0.18348600  0.68134000  0.62252400  1
  Yb  Yb7  1  0.68348600  0.81866000  0.87747600  1
  Yb  Yb8  1  0.96662300  0.82068700  0.40112700  1
  Yb  Yb9  1  0.46662300  0.67931300  0.09887300  1
  Yb  Yb10  1  0.53337700  0.32068700  0.59887300  1
  Yb  Yb11  1  0.03337700  0.17931300  0.90112700  1
  Yb  Yb12  1  0.03337700  0.17931300  0.59887300  1
  Yb  Yb13  1  0.53337700  0.32068700  0.90112700  1
  Yb  Yb14  1  0.46662300  0.67931300  0.40112700  1
  Yb  Yb15  1  0.96662300  0.82068700  0.09887300  1
  Yb  Yb16  1  0.35967200  0.00862600  0.75000000  1
  Yb  Yb17  1  0.85967200  0.49137400  0.75000000  1
  Yb  Yb18  1  0.14032800  0.50862600  0.25000000  1
  Yb  Yb19  1  0.64032800  0.99137400  0.25000000  1
  Si  Si0  1  0.86358100  0.52385900  0.53726300  1
  Si  Si1  1  0.36358100  0.97614100  0.96273700  1
  Si  Si2  1  0.63641900  0.02385900  0.46273700  1
  Si  Si3  1  0.13641900  0.47614100  0.03726300  1
  Si  Si4  1  0.13641900  0.47614100  0.46273700  1
  Si  Si5  1  0.63641900  0.02385900  0.03726300  1
  Si  Si6  1  0.36358100  0.97614100  0.53726300  1
  Si  Si7  1  0.86358100  0.52385900  0.96273700  1
  Si  Si8  1  0.97335300  0.90455100  0.75000000  1
  Si  Si9  1  0.47335300  0.59544900  0.75000000  1
  Si  Si10  1  0.52664700  0.40455100  0.25000000  1
  Si  Si11  1  0.02664700  0.09544900  0.25000000  1
  Si  Si12  1  0.25246800  0.37952000  0.75000000  1
  Si  Si13  1  0.75246800  0.12048000  0.75000000  1
  Si  Si14  1  0.24753200  0.87952000  0.25000000  1
  Si  Si15  1  0.74753200  0.62048000  0.25000000  1
loop_
_geom_bond_atom_site_label_1
_geom_bond_atom_site_label_2
_geom_bond_distance
_geom_bond_site_symmetry_2
Si0 Si4 2.381882 1_655
Si0 Yb1 2.968144 1_555
Si0 Yb3 2.978903 1_555
Si0 Yb6 3.005588 1_655
Si0 Yb10 3.095895 1_555
Si0 Yb12 3.126980 1_655
Si0 Yb8 3.226970 1_555
Si0 Yb17 3.302623 1_555
Si1 Si5 2.381882 1_566
Si1 Yb0 2.968144 1_566
Si1 Yb2 2.978903 1_555
Si1 Yb7 3.005588 1_555
Si1 Yb11 3.095895 1_565
Si1 Yb13 3.126980 1_565
Si1 Yb9 3.226970 1_556
Si1 Yb16 3.302623 1_565
Si2 Si6 2.381882 1_545
Si2 Yb3 2.968144 1_545
Si2 Yb1 2.978903 1_555
Si2 Yb4 3.005588 1_555
Si2 Yb8 3.095895 1_545
Si2 Yb14 3.126980 1_545
Si2 Yb10 3.226970 1_555
Si2 Yb19 3.302623 1_545
Si3 Si7 2.381882 1_454
Si3 Yb2 2.968144 1_554
Si3 Yb0 2.978903 1_555
Si3 Yb5 3.005588 1_455
Si3 Yb9 3.095895 1_555
Si3 Yb15 3.126980 1_455
Si3 Yb11 3.226970 1_554
Si3 Yb18 3.302623 1_555
Si4 Yb6 2.968144 1_555
Si4 Yb4 2.978903 1_555
Si4 Yb1 3.005588 1_455
Si4 Yb14 3.095895 1_555
Si4 Yb8 3.126980 1_455
Si4 Yb12 3.226970 1_555
Si4 Yb18 3.302623 1_555
Si5 Yb7 2.968144 1_544
Si5 Yb5 2.978903 1_555
Si5 Yb0 3.005588 1_555
Si5 Yb15 3.095895 1_545
Si5 Yb9 3.126980 1_545
Si5 Yb13 3.226970 1_554
Si5 Yb19 3.302623 1_545
Si6 Yb4 2.968144 1_565
Si6 Yb6 2.978903 1_555
Si6 Yb3 3.005588 1_555
Si6 Yb12 3.095895 1_565
Si6 Yb10 3.126980 1_565
Si6 Yb14 3.226970 1_555
Si6 Yb16 3.302623 1_565
Si7 Yb5 2.968144 1_556
Si7 Yb7 2.978903 1_555
Si7 Yb2 3.005588 1_655
Si7 Yb13 3.095895 1_555
Si7 Yb11 3.126980 1_655
Si7 Yb15 3.226970 1_556
Si7 Yb17 3.302623 1_555
Si8 Yb7 3.014629 1_555
Si8 Yb3 3.014629 1_555
Si8 Yb16 3.014769 1_665
Si8 Yb2 3.070088 1_655
Si8 Yb6 3.070088 1_655
Si8 Yb12 3.206178 1_665
Si8 Yb11 3.206178 1_665
Si8 Yb17 3.337980 1_555
Si9 Yb2 3.014629 1_555
Si9 Yb6 3.014629 1_555
Si9 Yb17 3.014769 1_555
Si9 Yb3 3.070088 1_555
Si9 Yb7 3.070088 1_555
Si9 Yb10 3.206178 1_555
Si9 Yb13 3.206178 1_555
Si9 Yb16 3.337980 1_565
Si10 Si15 2.366245 1_555
Si10 Yb1 3.014629 1_555
Si10 Yb5 3.014629 1_555
Si10 Yb18 3.014769 1_555
Si10 Yb4 3.070088 1_555
Si10 Yb0 3.070088 1_555
Si10 Yb14 3.206178 1_555
Si10 Yb9 3.206178 1_555
Si10 Yb19 3.337980 1_545
Si11 Si14 2.366245 1_545
Si11 Yb0 3.014629 1_555
Si11 Yb4 3.014629 1_555
Si11 Yb19 3.014769 1_445
Si11 Yb1 3.070088 1_455
Si11 Yb5 3.070088 1_455
Si11 Yb8 3.206178 1_445
Si11 Yb15 3.206178 1_445
Si11 Yb18 3.337980 1_555
Si12 Si9 2.366245 1_555
Si12 Yb16 3.006535 1_555
Si12 Yb17 3.078354 1_455
Si12 Yb2 3.117342 1_555
Si12 Yb6 3.117342 1_555
Si12 Yb13 3.184174 1_555
Si12 Yb10 3.184174 1_555
Si12 Yb12 3.259917 1_555
Si12 Yb11 3.259917 1_555
Si13 Si8 2.366245 1_545
Si13 Yb17 3.006535 1_555
Si13 Yb16 3.078354 1_555
Si13 Yb3 3.117342 1_545
Si13 Yb7 3.117342 1_545
Si13 Yb12 3.184174 1_655
Si13 Yb11 3.184174 1_655
Si13 Yb13 3.259917 1_555
Si13 Yb10 3.259917 1_555
Si14 Yb18 3.006535 1_555
Si14 Yb19 3.078354 1_555
Si14 Yb4 3.117342 1_565
Si14 Yb0 3.117342 1_565
Si14 Yb15 3.184174 1_455
Si14 Yb8 3.184174 1_455
Si14 Yb9 3.259917 1_555
Si14 Yb14 3.259917 1_555
Si15 Yb19 3.006535 1_555
Si15 Yb18 3.078354 1_655
Si15 Yb1 3.117342 1_555
Si15 Yb5 3.117342 1_555
Si15 Yb9 3.184174 1_555
Si15 Yb14 3.184174 1_555
Si15 Yb15 3.259917 1_555
Si15 Yb8 3.259917 1_555
