# generated using pymatgen
data_Eu(FeP3)4
_symmetry_space_group_name_H-M   'P 1'
_cell_length_a   6.74100130
_cell_length_b   6.74100574
_cell_length_c   6.74101891
_cell_angle_alpha   109.47120932
_cell_angle_beta   109.47126367
_cell_angle_gamma   109.47115115
_symmetry_Int_Tables_number   1
_chemical_formula_structural   Eu(FeP3)4
_chemical_formula_sum   'Eu1 Fe4 P12'
_cell_volume   235.80497581
_cell_formula_units_Z   1
loop_
 _symmetry_equiv_pos_site_id
 _symmetry_equiv_pos_as_xyz
  1  'x, y, z'
loop_
 _atom_site_type_symbol
 _atom_site_label
 _atom_site_symmetry_multiplicity
 _atom_site_fract_x
 _atom_site_fract_y
 _atom_site_fract_z
 _atom_site_occupancy
  Eu  Eu0  1  0.00000000  -0.00000000  -0.00000011  1
  Fe  Fe0  1  0.50000007  0.00000000  -0.00000017  1
  Fe  Fe1  1  0.00000005  0.00000009  0.50000018  1
  Fe  Fe2  1  -0.00000013  0.50000011  -0.00000004  1
  Fe  Fe3  1  0.49999993  0.49999978  0.50000001  1
  P  P0  1  0.49748168  0.85053406  0.64694229  1
  P  P1  1  0.20359114  0.85054012  0.35305859  1
  P  P2  1  0.79640905  0.14945988  0.64694155  1
  P  P3  1  0.14946155  0.35305080  0.50251614  1
  P  P4  1  0.35305850  0.50251899  0.14946535  1
  P  P5  1  0.50251840  0.14946598  0.35305775  1
  P  P6  1  0.14946562  0.64694425  0.79640637  1
  P  P7  1  0.35305172  0.20358944  0.85053396  1
  P  P8  1  0.85053850  0.64694941  0.49748398  1
  P  P9  1  0.64694817  0.79641039  0.14946594  1
  P  P10  1  0.85053436  0.35305580  0.20359361  1
  P  P11  1  0.64694142  0.49748091  0.85053457  1
loop_
_geom_bond_atom_site_label_1
_geom_bond_atom_site_label_2
_geom_bond_distance
_geom_bond_site_symmetry_2
Eu0 P8 2.984228 1_444
Eu0 P3 2.984230 1_555
Eu0 P7 2.984234 1_554
Eu0 P9 2.984235 1_445
Eu0 P0 2.984239 1_444
Eu0 P2 2.984239 1_454
Eu0 P5 2.984240 1_555
Eu0 P1 2.984242 1_545
Eu0 P4 2.984248 1_555
Eu0 P11 2.984249 1_444
Eu0 P6 2.984259 1_544
Eu0 P10 2.984260 1_455
Fe0 P10 2.245575 1_555
Fe0 P6 2.245576 1_544
Fe0 P7 2.245586 1_554
Fe0 P9 2.245588 1_545
Fe0 P0 2.245602 1_544
Fe0 P5 2.245605 1_555
Fe1 P2 2.245552 1_455
Fe1 P1 2.245554 1_545
Fe1 P8 2.245561 1_445
Fe1 P3 2.245562 1_555
Fe1 P7 2.245563 1_555
Fe1 P9 2.245565 1_445
Fe2 P11 2.245598 1_454
Fe2 P4 2.245600 1_555
Fe2 P6 2.245601 1_554
Fe2 P10 2.245601 1_455
Fe2 P1 2.245608 1_555
Fe2 P2 2.245608 1_454
Fe3 P5 2.245562 1_555
Fe3 P0 2.245565 1_555
Fe3 P11 2.245571 1_555
Fe3 P4 2.245573 1_555
Fe3 P3 2.245586 1_555
Fe3 P8 2.245587 1_555
P0 P1 2.287595 1_555
P0 P2 2.326802 1_565
P1 P5 2.326802 1_565
P2 P5 2.287596 1_555
P3 P6 2.287595 1_555
P4 P9 2.287597 1_555
P4 P7 2.326804 1_554
P6 P8 2.326804 1_455
P10 P8 2.287596 1_555
P10 P3 2.326804 1_655
P11 P7 2.287597 1_555
P11 P9 2.326804 1_556
