# generated using pymatgen
data_Na4ScNb(SiO4)3
_symmetry_space_group_name_H-M   'P 1'
_cell_length_a   9.21669041
_cell_length_b   9.21669009
_cell_length_c   22.44199746
_cell_angle_alpha   90.00000000
_cell_angle_beta   90.00000000
_cell_angle_gamma   120.00000119
_symmetry_Int_Tables_number   1
_chemical_formula_structural   Na4ScNb(SiO4)3
_chemical_formula_sum   'Na24 Sc6 Nb6 Si18 O72'
_cell_volume   1650.98116869
_cell_formula_units_Z   6
loop_
 _symmetry_equiv_pos_site_id
 _symmetry_equiv_pos_as_xyz
  1  'x, y, z'
loop_
 _atom_site_type_symbol
 _atom_site_label
 _atom_site_symmetry_multiplicity
 _atom_site_fract_x
 _atom_site_fract_y
 _atom_site_fract_z
 _atom_site_occupancy
  Na  Na0  1  0.63813698  0.01269088  0.24697528  1
  Na  Na1  1  0.37455389  0.36186302  0.24697528  1
  Na  Na2  1  0.98730912  0.62544611  0.24697528  1
  Na  Na3  1  0.63813698  0.62544611  0.74697528  1
  Na  Na4  1  0.98730912  0.36186302  0.74697528  1
  Na  Na5  1  0.37455389  0.01269088  0.74697528  1
  Na  Na6  1  0.30480398  0.34602388  0.58030828  1
  Na  Na7  1  0.04122089  0.69519602  0.58030828  1
  Na  Na8  1  0.65397612  0.95877911  0.58030828  1
  Na  Na9  1  0.30480398  0.95877911  0.08030828  1
  Na  Na10  1  0.65397612  0.69519602  0.08030828  1
  Na  Na11  1  0.04122089  0.34602388  0.08030828  1
  Na  Na12  1  0.97146998  0.67935788  0.91364228  1
  Na  Na13  1  0.70788689  0.02853002  0.91364228  1
  Na  Na14  1  0.32064212  0.29211311  0.91364228  1
  Na  Na15  1  0.97146998  0.29211311  0.41364228  1
  Na  Na16  1  0.32064212  0.02853002  0.41364228  1
  Na  Na17  1  0.70788689  0.67935788  0.41364228  1
  Na  Na18  1  0.00000000  -0.00000000  0.49491061  1
  Na  Na19  1  0.00000000  -0.00000000  0.99491061  1
  Na  Na20  1  0.66666700  0.33333300  0.82824361  1
  Na  Na21  1  0.66666700  0.33333300  0.32824361  1
  Na  Na22  1  0.33333300  0.66666700  0.16157761  1
  Na  Na23  1  0.33333300  0.66666700  0.66157761  1
  Sc  Sc0  1  0.00000000  -0.00000000  0.35154704  1
  Sc  Sc1  1  0.00000000  -0.00000000  0.85154704  1
  Sc  Sc2  1  0.66666700  0.33333300  0.68488004  1
  Sc  Sc3  1  0.66666700  0.33333300  0.18488004  1
  Sc  Sc4  1  0.33333300  0.66666700  0.01821404  1
  Sc  Sc5  1  0.33333300  0.66666700  0.51821404  1
  Nb  Nb0  1  0.00000000  -0.00000000  0.64668200  1
  Nb  Nb1  1  0.00000000  -0.00000000  0.14668200  1
  Nb  Nb2  1  0.66666700  0.33333300  0.98001500  1
  Nb  Nb3  1  0.66666700  0.33333300  0.48001500  1
  Nb  Nb4  1  0.33333300  0.66666700  0.31334900  1
  Nb  Nb5  1  0.33333300  0.66666700  0.81334900  1
  Si  Si0  1  0.29265938  0.99840733  0.25180699  1
  Si  Si1  1  0.70574795  0.70734062  0.25180699  1
  Si  Si2  1  0.00159267  0.29425205  0.25180699  1
  Si  Si3  1  0.29265938  0.29425205  0.75180699  1
  Si  Si4  1  0.00159267  0.70734062  0.75180699  1
  Si  Si5  1  0.70574795  0.99840733  0.75180699  1
  Si  Si6  1  0.95932638  0.33174033  0.58513999  1
  Si  Si7  1  0.37241495  0.04067362  0.58513999  1
  Si  Si8  1  0.66825967  0.62758505  0.58513999  1
  Si  Si9  1  0.95932638  0.62758505  0.08513999  1
  Si  Si10  1  0.66825967  0.04067362  0.08513999  1
  Si  Si11  1  0.37241495  0.33174033  0.08513999  1
  Si  Si12  1  0.62599238  0.66507433  0.91847399  1
  Si  Si13  1  0.03908095  0.37400762  0.91847399  1
  Si  Si14  1  0.33492567  0.96091905  0.91847399  1
  Si  Si15  1  0.62599238  0.96091905  0.41847399  1
  Si  Si16  1  0.33492567  0.37400762  0.41847399  1
  Si  Si17  1  0.03908095  0.66507433  0.41847399  1
  O  O0  1  0.20814382  0.02673243  0.31012648  1
  O  O1  1  0.81858860  0.79185618  0.31012648  1
  O  O2  1  0.97326757  0.18141140  0.31012648  1
  O  O3  1  0.20814382  0.18141140  0.81012648  1
  O  O4  1  0.97326757  0.79185618  0.81012648  1
  O  O5  1  0.81858860  0.02673243  0.81012648  1
  O  O6  1  0.80325589  0.97012121  0.69272501  1
  O  O7  1  0.16686532  0.19674411  0.69272501  1
  O  O8  1  0.02987879  0.83313468  0.69272501  1
  O  O9  1  0.80325589  0.83313468  0.19272501  1
  O  O10  1  0.02987879  0.19674411  0.19272501  1
  O  O11  1  0.16686532  0.97012121  0.19272501  1
  O  O12  1  0.87481082  0.36006543  0.64345948  1
  O  O13  1  0.48525560  0.12518918  0.64345948  1
  O  O14  1  0.63993457  0.51474440  0.64345948  1
  O  O15  1  0.87481082  0.51474440  0.14345948  1
  O  O16  1  0.63993457  0.12518918  0.14345948  1
  O  O17  1  0.48525560  0.36006543  0.14345948  1
  O  O18  1  0.46992289  0.30345421  0.02605801  1
  O  O19  1  0.83353232  0.53007711  0.02605801  1
  O  O20  1  0.69654579  0.16646768  0.02605801  1
  O  O21  1  0.46992289  0.16646768  0.52605801  1
  O  O22  1  0.69654579  0.53007711  0.52605801  1
  O  O23  1  0.83353232  0.30345421  0.52605801  1
  O  O24  1  0.54147682  0.69339943  0.97679348  1
  O  O25  1  0.15192160  0.45852318  0.97679348  1
  O  O26  1  0.30660057  0.84807840  0.97679348  1
  O  O27  1  0.54147682  0.84807840  0.47679348  1
  O  O28  1  0.30660057  0.45852318  0.47679348  1
  O  O29  1  0.15192160  0.69339943  0.47679348  1
  O  O30  1  0.13658889  0.63678821  0.35939201  1
  O  O31  1  0.50019832  0.86341111  0.35939201  1
  O  O32  1  0.36321179  0.49980168  0.35939201  1
  O  O33  1  0.13658889  0.49980168  0.85939201  1
  O  O34  1  0.36321179  0.86341111  0.85939201  1
  O  O35  1  0.50019832  0.63678821  0.85939201  1
  O  O36  1  0.01226138  0.82545537  0.41263129  1
  O  O37  1  0.81319399  0.98773862  0.41263129  1
  O  O38  1  0.17454463  0.18680601  0.41263129  1
  O  O39  1  0.01226138  0.18680601  0.91263129  1
  O  O40  1  0.17454463  0.98773862  0.91263129  1
  O  O41  1  0.81319399  0.82545537  0.91263129  1
  O  O42  1  0.96747621  0.15494896  0.58802173  1
  O  O43  1  0.18747275  0.03252379  0.58802173  1
  O  O44  1  0.84505104  0.81252725  0.58802173  1
  O  O45  1  0.96747621  0.81252725  0.08802173  1
  O  O46  1  0.84505104  0.03252379  0.08802173  1
  O  O47  1  0.18747275  0.15494896  0.08802173  1
  O  O48  1  0.67892838  0.15878837  0.74596429  1
  O  O49  1  0.47986099  0.32107162  0.74596429  1
  O  O50  1  0.84121163  0.52013901  0.74596429  1
  O  O51  1  0.67892838  0.52013901  0.24596429  1
  O  O52  1  0.84121163  0.32107162  0.24596429  1
  O  O53  1  0.47986099  0.15878837  0.24596429  1
  O  O54  1  0.63414321  0.48828196  0.92135473  1
  O  O55  1  0.85413975  0.36585679  0.92135473  1
  O  O56  1  0.51171804  0.14586025  0.92135473  1
  O  O57  1  0.63414321  0.14586025  0.42135473  1
  O  O58  1  0.51171804  0.36585679  0.42135473  1
  O  O59  1  0.85413975  0.48828196  0.42135473  1
  O  O60  1  0.34559438  0.49212237  0.07929829  1
  O  O61  1  0.14652699  0.65440562  0.07929829  1
  O  O62  1  0.50787763  0.85347301  0.07929829  1
  O  O63  1  0.34559438  0.85347301  0.57929829  1
  O  O64  1  0.50787763  0.65440562  0.57929829  1
  O  O65  1  0.14652699  0.49212237  0.57929829  1
  O  O66  1  0.30080921  0.82161596  0.25468873  1
  O  O67  1  0.52080575  0.69919079  0.25468873  1
  O  O68  1  0.17838404  0.47919425  0.25468873  1
  O  O69  1  0.30080921  0.47919425  0.75468873  1
  O  O70  1  0.17838404  0.69919079  0.75468873  1
  O  O71  1  0.52080575  0.82161596  0.75468873  1
loop_
_geom_bond_atom_site_label_1
_geom_bond_atom_site_label_2
_geom_bond_distance
_geom_bond_site_symmetry_2
Na0 O53 2.430229 1_555
Na0 O52 2.502459 1_555
Na0 O67 2.534478 1_545
Na0 O16 2.540665 1_555
Na0 O66 2.705966 1_545
Na0 O31 2.850424 1_545
Na1 O51 2.430237 1_555
Na1 O53 2.502466 1_555
Na1 O68 2.534486 1_555
Na1 O17 2.540669 1_555
Na1 O67 2.705967 1_555
Na1 O32 2.850427 1_555
Na2 O52 2.430237 1_555
Na2 O51 2.502457 1_555
Na2 O66 2.534479 1_655
Na2 O15 2.540667 1_555
Na2 O68 2.705959 1_655
Na2 O30 2.850422 1_655
Na3 O49 2.430237 1_555
Na3 O50 2.502466 1_555
Na3 O71 2.534486 1_555
Na3 O14 2.540669 1_555
Na3 O69 2.705967 1_555
Na3 O35 2.850427 1_555
Na4 O50 2.430229 1_555
Na4 O48 2.502459 1_555
Na4 O69 2.534478 1_655
Na4 O12 2.540665 1_555
Na4 O70 2.705966 1_655
Na4 O33 2.850424 1_655
Na5 O48 2.430237 1_555
Na5 O49 2.502457 1_555
Na5 O70 2.534479 1_545
Na5 O13 2.540667 1_555
Na5 O71 2.705959 1_545
Na5 O34 2.850422 1_545
Na6 O65 2.430245 1_555
Na6 O64 2.502464 1_555
Na6 O43 2.534478 1_555
Na6 O28 2.540650 1_555
Na6 O42 2.705966 1_455
Na6 O7 2.850424 1_555
Na7 O63 2.430229 1_555
Na7 O65 2.502450 1_555
Na7 O44 2.534486 1_455
Na7 O29 2.540643 1_555
Na7 O43 2.705967 1_565
Na7 O8 2.850427 1_555
Na8 O64 2.430229 1_555
Na8 O63 2.502467 1_555
Na8 O42 2.534479 1_565
Na8 O27 2.540646 1_555
Na8 O44 2.705959 1_555
Na8 O6 2.850422 1_555
Na9 O61 2.430229 1_555
Na9 O62 2.502450 1_555
Na9 O47 2.534486 1_565
Na9 O26 2.540643 1_554
Na9 O45 2.705967 1_455
Na9 O11 2.850427 1_555
Na10 O62 2.430245 1_555
Na10 O60 2.502464 1_555
Na10 O45 2.534478 1_555
Na10 O24 2.540650 1_554
Na10 O46 2.705966 1_565
Na10 O9 2.850424 1_555
Na11 O60 2.430229 1_555
Na11 O61 2.502467 1_555
Na11 O46 2.534479 1_455
Na11 O25 2.540646 1_554
Na11 O47 2.705959 1_555
Na11 O10 2.850422 1_555
Na12 O41 2.430229 1_555
Na12 O40 2.502459 1_655
Na12 O55 2.534486 1_555
Na12 O4 2.540665 1_555
Na12 O54 2.705958 1_555
Na12 O19 2.850405 1_556
Na13 O39 2.430237 1_655
Na13 O41 2.502466 1_545
Na13 O56 2.534469 1_555
Na13 O5 2.540669 1_555
Na13 O55 2.705957 1_555
Na13 O20 2.850400 1_556
Na14 O40 2.430237 1_545
Na14 O39 2.502457 1_555
Na14 O54 2.534484 1_555
Na14 O3 2.540667 1_555
Na14 O56 2.705973 1_555
Na14 O18 2.850409 1_556
Na15 O37 2.430237 1_545
Na15 O38 2.502466 1_655
Na15 O59 2.534469 1_555
Na15 O2 2.540669 1_555
Na15 O57 2.705957 1_555
Na15 O23 2.850400 1_555
Na16 O38 2.430229 1_555
Na16 O36 2.502459 1_545
Na16 O57 2.534486 1_555
Na16 O0 2.540665 1_555
Na16 O58 2.705958 1_555
Na16 O21 2.850405 1_555
Na17 O36 2.430237 1_655
Na17 O37 2.502457 1_555
Na17 O58 2.534484 1_555
Na17 O1 2.540667 1_555
Na17 O59 2.705973 1_555
Na17 O22 2.850409 1_555
Na18 O38 2.488407 1_555
Na18 O36 2.488407 1_545
Na18 O37 2.488408 1_445
Na18 O44 2.631329 1_445
Na18 O42 2.631329 1_455
Na18 O43 2.631329 1_555
Na19 O39 2.488407 1_555
Na19 O41 2.488407 1_445
Na19 O40 2.488408 1_545
Na19 O45 2.631329 1_446
Na19 O47 2.631329 1_556
Na19 O46 2.631329 1_456
Na20 O50 2.488407 1_555
Na20 O48 2.488407 1_555
Na20 O49 2.488408 1_555
Na20 O56 2.631329 1_555
Na20 O54 2.631329 1_555
Na20 O55 2.631329 1_555
Na21 O51 2.488407 1_555
Na21 O53 2.488407 1_555
Na21 O52 2.488408 1_555
Na21 O57 2.631329 1_555
Na21 O59 2.631329 1_555
Na21 O58 2.631329 1_555
Na22 O62 2.488407 1_555
Na22 O60 2.488407 1_555
Na22 O61 2.488408 1_555
Na22 O68 2.631329 1_555
Na22 O66 2.631329 1_555
Na22 O67 2.631329 1_555
Na23 O63 2.488407 1_555
Na23 O65 2.488407 1_555
Na23 O64 2.488408 1_555
Na23 O69 2.631329 1_555
Na23 O71 2.631329 1_555
Na23 O70 2.631329 1_555
Nb0 O7 1.983013 1_555
Nb0 O8 1.983013 1_545
Nb0 O6 1.983013 1_445
Nb0 O44 2.071357 1_445
Nb0 O42 2.071357 1_455
Nb0 O43 2.071357 1_555
Nb1 O10 1.983013 1_555
Nb1 O9 1.983013 1_445
Nb1 O11 1.983013 1_545
Nb1 O45 2.071357 1_445
Nb1 O47 2.071357 1_555
Nb1 O46 2.071357 1_455
Nb2 O19 1.983013 1_556
Nb2 O20 1.983013 1_556
Nb2 O18 1.983013 1_556
Nb2 O56 2.071357 1_555
Nb2 O54 2.071357 1_555
Nb2 O55 2.071357 1_555
Nb3 O22 1.983013 1_555
Nb3 O21 1.983013 1_555
Nb3 O23 1.983013 1_555
Nb3 O57 2.071357 1_555
Nb3 O59 2.071357 1_555
Nb3 O58 2.071357 1_555
Nb4 O31 1.983013 1_555
Nb4 O32 1.983013 1_555
Nb4 O30 1.983013 1_555
Nb4 O68 2.071357 1_555
Nb4 O66 2.071357 1_555
Nb4 O67 2.071357 1_555
Nb5 O34 1.983013 1_555
Nb5 O33 1.983013 1_555
Nb5 O35 1.983013 1_555
Nb5 O69 2.071357 1_555
Nb5 O71 2.071357 1_555
Nb5 O70 2.071357 1_555
O0 Si0 1.609737 1_545
O0 Sc0 2.032824 1_555
O1 Si1 1.609737 1_555
O1 Sc0 2.032824 1_665
O2 Si2 1.609737 1_655
O2 Sc0 2.032824 1_655
O3 Si3 1.609737 1_555
O3 Sc1 2.032824 1_555
O4 Si4 1.609737 1_655
O4 Sc1 2.032823 1_665
O5 Si5 1.609737 1_545
O5 Sc1 2.032824 1_655
O6 Si5 1.693512 1_555
O7 Si3 1.693512 1_555
O8 Si4 1.693512 1_555
O9 Si1 1.693512 1_555
O10 Si2 1.693512 1_555
O11 Si0 1.693512 1_555
O12 Si6 1.609737 1_555
O12 Sc2 2.032824 1_555
O13 Si7 1.609737 1_555
O13 Sc2 2.032824 1_555
O14 Si8 1.609737 1_555
O14 Sc2 2.032824 1_555
O15 Si9 1.609737 1_555
O15 Sc3 2.032824 1_555
O16 Si10 1.609737 1_555
O16 Sc3 2.032823 1_555
O17 Si11 1.609737 1_555
O17 Sc3 2.032824 1_555
O18 Si11 1.693512 1_555
O19 Si9 1.693512 1_555
O20 Si10 1.693512 1_555
O21 Si7 1.693512 1_555
O22 Si8 1.693512 1_555
O23 Si6 1.693512 1_555
O24 Si12 1.609737 1_555
O24 Sc4 2.032824 1_556
O25 Si13 1.609737 1_555
O25 Sc4 2.032824 1_556
O26 Si14 1.609737 1_555
O26 Sc4 2.032824 1_556
O27 Si15 1.609737 1_555
O27 Sc5 2.032824 1_555
O28 Si16 1.609737 1_555
O28 Sc5 2.032823 1_555
O29 Si17 1.609737 1_555
O29 Sc5 2.032824 1_555
O30 Si17 1.693512 1_555
O31 Si15 1.693512 1_555
O32 Si16 1.693512 1_555
O33 Si13 1.693512 1_555
O34 Si14 1.693512 1_555
O35 Si12 1.693512 1_555
O36 Si17 1.621329 1_555
O36 Sc0 2.159120 1_565
O37 Si15 1.621338 1_555
O37 Sc0 2.159120 1_665
O38 Si16 1.621334 1_555
O38 Sc0 2.159120 1_555
O39 Si13 1.621338 1_555
O39 Sc1 2.159120 1_555
O40 Si14 1.621329 1_555
O40 Sc1 2.159120 1_565
O41 Si12 1.621334 1_555
O41 Sc1 2.159120 1_665
O42 Si6 1.669510 1_555
O43 Si7 1.669520 1_555
O44 Si8 1.669515 1_555
O45 Si9 1.669520 1_555
O46 Si10 1.669510 1_555
O47 Si11 1.669515 1_555
O48 Si5 1.621329 1_545
O48 Sc2 2.159120 1_555
O49 Si3 1.621338 1_555
O49 Sc2 2.159120 1_555
O50 Si4 1.621334 1_655
O50 Sc2 2.159120 1_555
O51 Si1 1.621338 1_555
O51 Sc3 2.159120 1_555
O52 Si2 1.621329 1_655
O52 Sc3 2.159120 1_555
O53 Si0 1.621334 1_545
O53 Sc3 2.159120 1_555
O54 Si12 1.669524 1_555
O55 Si13 1.669505 1_655
O56 Si14 1.669514 1_545
O57 Si15 1.669505 1_545
O58 Si16 1.669524 1_555
O59 Si17 1.669514 1_655
O60 Si11 1.621341 1_555
O60 Sc4 2.159120 1_555
O61 Si9 1.621323 1_455
O61 Sc4 2.159120 1_555
O62 Si10 1.621330 1_565
O62 Sc4 2.159120 1_555
O63 Si7 1.621323 1_565
O63 Sc5 2.159120 1_555
O64 Si8 1.621341 1_555
O64 Sc5 2.159120 1_555
O65 Si6 1.621330 1_455
O65 Sc5 2.159120 1_555
O66 Si0 1.669510 1_555
O67 Si1 1.669520 1_555
O68 Si2 1.669515 1_555
O69 Si3 1.669520 1_555
O70 Si4 1.669510 1_555
O71 Si5 1.669515 1_555
