# generated using pymatgen
data_MgMn4(HO4)2
_symmetry_space_group_name_H-M   'P 1'
_cell_length_a   9.92955392
_cell_length_b   3.04423700
_cell_length_c   5.14187370
_cell_angle_alpha   90.00000000
_cell_angle_beta   89.01078252
_cell_angle_gamma   90.00000000
_symmetry_Int_Tables_number   1
_chemical_formula_structural   MgMn4(HO4)2
_chemical_formula_sum   'Mg1 Mn4 H2 O8'
_cell_volume   155.40495867
_cell_formula_units_Z   1
loop_
 _symmetry_equiv_pos_site_id
 _symmetry_equiv_pos_as_xyz
  1  'x, y, z'
loop_
 _atom_site_type_symbol
 _atom_site_label
 _atom_site_symmetry_multiplicity
 _atom_site_fract_x
 _atom_site_fract_y
 _atom_site_fract_z
 _atom_site_occupancy
  Mg  Mg0  1  0.59537900  0.75000000  0.97352200  1
  Mn  Mn0  1  0.65420700  0.25000000  0.45901500  1
  Mn  Mn1  1  0.13784300  0.25000000  0.02344500  1
  Mn  Mn2  1  0.34730100  0.75000000  0.53592700  1
  Mn  Mn3  1  0.87135900  0.75000000  0.91659400  1
  H  H0  1  0.39960400  0.25000000  0.96129300  1
  H  H1  1  0.98847100  0.25000000  0.54200400  1
  O  O0  1  0.47359800  0.25000000  0.83100900  1
  O  O1  1  0.97435300  0.25000000  0.73073100  1
  O  O2  1  0.53198900  0.75000000  0.34943100  1
  O  O3  1  0.01973400  0.75000000  0.15562900  1
  O  O4  1  0.74133200  0.25000000  0.08991900  1
  O  O5  1  0.27867900  0.25000000  0.35101700  1
  O  O6  1  0.23254600  0.75000000  0.85559500  1
  O  O7  1  0.72824500  0.75000000  0.65542400  1
loop_
_geom_bond_atom_site_label_1
_geom_bond_atom_site_label_2
_geom_bond_distance
_geom_bond_site_symmetry_2
Mg0 O2 2.022422 1_556
Mg0 O7 2.083578 1_555
Mg0 O0 2.084863 1_565
Mg0 O0 2.084863 1_555
Mg0 O4 2.192103 1_556
Mg0 O4 2.192103 1_566
Mn0 O7 1.975567 1_555
Mn0 O7 1.975567 1_545
Mn0 O2 2.032413 1_545
Mn0 O2 2.032413 1_555
Mn0 O4 2.072087 1_555
Mn0 O0 2.599292 1_555
Mn1 O6 1.979387 1_554
Mn1 O6 1.979387 1_544
Mn1 O3 2.031420 1_545
Mn1 O3 2.031420 1_555
Mn1 O5 2.207700 1_555
Mn1 O1 2.232724 1_454
Mn2 O5 1.925485 1_555
Mn2 O5 1.925485 1_565
Mn2 O6 1.983794 1_555
Mn2 O2 2.054731 1_555
Mn2 O0 2.501473 1_555
Mn2 O0 2.501473 1_565
Mn3 O3 1.934887 1_656
Mn3 O7 1.971976 1_555
Mn3 O1 2.059688 1_555
Mn3 O1 2.059688 1_565
Mn3 O4 2.176774 1_566
Mn3 O4 2.176774 1_556
H0 O0 0.985698 1_555
H1 O1 0.978085 1_555
