# generated using pymatgen
data_MgFe4(CoO4)2
_symmetry_space_group_name_H-M   'P 1'
_cell_length_a   6.14753037
_cell_length_b   6.10501264
_cell_length_c   6.14753151
_cell_angle_alpha   60.22852605
_cell_angle_beta   64.26015295
_cell_angle_gamma   60.22853006
_symmetry_Int_Tables_number   1
_chemical_formula_structural   MgFe4(CoO4)2
_chemical_formula_sum   'Mg1 Fe4 Co2 O8'
_cell_volume   168.35364027
_cell_formula_units_Z   1
loop_
 _symmetry_equiv_pos_site_id
 _symmetry_equiv_pos_as_xyz
  1  'x, y, z'
loop_
 _atom_site_type_symbol
 _atom_site_label
 _atom_site_symmetry_multiplicity
 _atom_site_fract_x
 _atom_site_fract_y
 _atom_site_fract_z
 _atom_site_occupancy
  Mg  Mg0  1  0.80077634  0.19922366  0.80077634  1
  Fe  Fe0  1  0.12008878  0.87991122  0.12008878  1
  Fe  Fe1  1  0.19510470  0.30489530  0.19510470  1
  Fe  Fe2  1  0.08363138  0.62606392  0.66424079  1
  Fe  Fe3  1  0.66424079  0.62606392  0.08363138  1
  Co  Co0  1  0.56100867  0.16216818  0.56100867  1
  Co  Co1  1  0.56100867  0.71581448  0.56100867  1
  O  O0  1  0.32400102  0.44040515  0.32400102  1
  O  O1  1  0.41209733  0.38292280  0.82205708  1
  O  O2  1  0.32400102  0.91159281  0.32400102  1
  O  O3  1  0.82205708  0.38292280  0.41209733  1
  O  O4  1  0.44571792  0.85967735  0.83492737  1
  O  O5  1  0.93608597  0.32568754  0.93608597  1
  O  O6  1  0.83492737  0.85967735  0.44571792  1
  O  O7  1  0.93608597  0.80214052  0.93608597  1
loop_
_geom_bond_atom_site_label_1
_geom_bond_atom_site_label_2
_geom_bond_distance
_geom_bond_site_symmetry_2
Mg0 O5 1.963790 1_555
Mg0 O7 1.963790 1_545
Mg0 O1 2.048703 1_555
Mg0 O3 2.048704 1_555
Fe0 O4 2.004272 1_554
Fe0 O6 2.004272 1_455
Fe0 O7 2.227679 1_454
Fe0 O5 2.227679 1_464
Fe0 O2 2.242021 1_555
Fe0 O0 2.242021 1_555
Fe1 O0 1.946166 1_555
Fe1 O2 1.946166 1_545
Fe1 O3 2.038315 1_455
Fe1 O1 2.038315 1_554
Fe1 O5 2.624486 1_454
Fe1 O7 2.624486 1_454
Fe2 O6 1.972847 1_455
Fe2 O5 2.066445 1_455
Fe2 O7 2.066446 1_455
Fe2 O1 2.125282 1_555
Fe2 O2 2.418616 1_555
Fe2 O0 2.418616 1_555
Fe3 O4 1.972847 1_554
Fe3 O7 2.066445 1_554
Fe3 O5 2.066445 1_554
Fe3 O3 2.125282 1_555
Fe3 O0 2.418616 1_555
Fe3 O2 2.418616 1_555
Co0 O4 1.980717 1_545
Co0 O6 1.980717 1_545
Co0 O0 2.014790 1_555
Co0 O3 2.208249 1_555
Co0 O1 2.208249 1_555
Co1 O6 1.980717 1_555
Co1 O4 1.980717 1_555
Co1 O2 2.014790 1_555
Co1 O1 2.208249 1_555
Co1 O3 2.208249 1_555
