# generated using pymatgen
data_GdAgS2
_symmetry_space_group_name_H-M   'P 1'
_cell_length_a   7.70207936
_cell_length_b   7.70405992
_cell_length_c   12.56225689
_cell_angle_alpha   89.96444393
_cell_angle_beta   90.00107218
_cell_angle_gamma   90.05165538
_symmetry_Int_Tables_number   1
_chemical_formula_structural   GdAgS2
_chemical_formula_sum   'Gd8 Ag8 S16'
_cell_volume   745.40971956
_cell_formula_units_Z   8
loop_
 _symmetry_equiv_pos_site_id
 _symmetry_equiv_pos_as_xyz
  1  'x, y, z'
loop_
 _atom_site_type_symbol
 _atom_site_label
 _atom_site_symmetry_multiplicity
 _atom_site_fract_x
 _atom_site_fract_y
 _atom_site_fract_z
 _atom_site_occupancy
  Gd  Gd0  1  0.50383363  0.74889848  0.00247875  1
  Gd  Gd1  1  0.00376391  0.25135600  0.99791865  1
  Gd  Gd2  1  0.25382573  0.99981964  0.75251937  1
  Gd  Gd3  1  0.75455733  0.00053434  0.24754264  1
  Gd  Gd4  1  0.75239452  0.49967665  0.74720154  1
  Gd  Gd5  1  0.25279482  0.50054864  0.25269274  1
  Gd  Gd6  1  0.00312823  0.75140969  0.50208932  1
  Gd  Gd7  1  0.50284098  0.24896430  0.49736360  1
  Ag  Ag0  1  0.23782260  0.50750640  0.81465295  1
  Ag  Ag1  1  0.73686852  0.49190623  0.18650851  1
  Ag  Ag2  1  0.76539369  0.00478289  0.68354826  1
  Ag  Ag3  1  0.26665793  -0.00573930  0.31508406  1
  Ag  Ag4  1  0.01391632  0.76778462  0.06585406  1
  Ag  Ag5  1  0.51513669  0.23159566  0.93643020  1
  Ag  Ag6  1  0.48749816  0.72832269  0.56215710  1
  Ag  Ag7  1  0.98824387  0.27073287  0.43641932  1
  S  S0  1  0.78123631  0.02821644  0.46813910  1
  S  S1  1  0.28090964  0.97176201  0.53150943  1
  S  S2  1  0.22899146  0.47678233  0.47456860  1
  S  S3  1  0.72935222  0.52313238  0.52564962  1
  S  S4  1  0.52591946  0.72717377  0.22358992  1
  S  S5  1  0.02637423  0.27320817  0.77639315  1
  S  S6  1  0.47395208  0.72041511  0.78110021  1
  S  S7  1  0.97427275  0.28010264  0.21912826  1
  S  S8  1  0.97930215  0.77358704  0.72325123  1
  S  S9  1  0.47958151  0.22744399  0.27630093  1
  S  S10  1  0.53242654  0.22012955  0.71838603  1
  S  S11  1  0.03251135  0.77939358  0.28158045  1
  S  S12  1  0.27717146  0.02301602  0.97375651  1
  S  S13  1  0.77734574  0.97693108  0.02620466  1
  S  S14  1  0.72481983  0.47139647  0.96829515  1
  S  S15  1  0.22435337  0.52921164  0.03168368  1
loop_
_geom_bond_atom_site_label_1
_geom_bond_atom_site_label_2
_geom_bond_distance
_geom_bond_site_symmetry_2
Gd0 S13 2.758055 1_555
Gd0 S15 2.761409 1_555
Gd0 S12 2.764662 1_564
Gd0 S14 2.767616 1_554
Gd0 S4 2.787790 1_555
Gd0 S6 2.799251 1_554
Gd1 S12 2.761976 1_555
Gd1 S13 2.762181 1_446
Gd1 S14 2.762932 1_455
Gd1 S15 2.764650 1_556
Gd1 S5 2.793271 1_555
Gd1 S7 2.797098 1_456
Gd2 S5 2.757257 1_565
Gd2 S8 2.763646 1_455
Gd2 S6 2.764500 1_555
Gd2 S10 2.767972 1_565
Gd2 S12 2.790873 1_565
Gd2 S1 2.792739 1_555
Gd3 S4 2.760593 1_545
Gd3 S7 2.760901 1_555
Gd3 S11 2.770222 1_645
Gd3 S9 2.771170 1_555
Gd3 S0 2.787083 1_555
Gd3 S13 2.792093 1_545
Gd4 S8 2.755079 1_555
Gd4 S10 2.762960 1_555
Gd4 S5 2.763578 1_655
Gd4 S6 2.771296 1_555
Gd4 S14 2.793905 1_555
Gd4 S3 2.794588 1_555
Gd5 S9 2.751677 1_555
Gd5 S4 2.756775 1_555
Gd5 S11 2.762747 1_555
Gd5 S7 2.767358 1_455
Gd5 S15 2.793617 1_555
Gd5 S2 2.799159 1_555
Gd6 S1 2.755014 1_555
Gd6 S3 2.760356 1_455
Gd6 S2 2.762198 1_555
Gd6 S0 2.766912 1_465
Gd6 S11 2.787523 1_555
Gd6 S8 2.789703 1_455
Gd7 S2 2.759938 1_555
Gd7 S3 2.761449 1_555
Gd7 S0 2.762622 1_555
Gd7 S1 2.767461 1_545
Gd7 S9 2.787842 1_555
Gd7 S10 2.794593 1_555
Ag0 S5 2.477350 1_555
Ag0 S6 2.483855 1_555
Ag0 S15 2.733599 1_556
Ag0 S8 3.080503 1_455
Ag1 S4 2.479595 1_555
Ag1 S7 2.485654 1_555
Ag1 S14 2.747461 1_554
Ag1 S9 3.056203 1_555
Ag2 S8 2.477860 1_545
Ag2 S10 2.483924 1_555
Ag2 S0 2.714668 1_555
Ag2 S5 3.110099 1_655
Ag3 S9 2.479458 1_555
Ag3 S11 2.482958 1_545
Ag3 S1 2.726418 1_545
Ag3 S4 3.090768 1_545
Ag4 S13 2.483659 1_455
Ag4 S15 2.489139 1_555
Ag4 S11 2.715314 1_555
Ag4 S12 3.050612 1_564
Ag5 S12 2.480942 1_555
Ag5 S14 2.485357 1_555
Ag5 S10 2.743845 1_555
Ag5 S13 3.033815 1_546
Ag6 S3 2.487055 1_555
Ag6 S1 2.490356 1_555
Ag6 S6 2.753034 1_555
Ag6 S2 2.987626 1_555
Ag7 S2 2.486652 1_655
Ag7 S0 2.487038 1_555
Ag7 S7 2.732696 1_555
Ag7 S3 3.003899 1_555
