# generated using pymatgen
data_TbIr2
_symmetry_space_group_name_H-M   'P 1'
_cell_length_a   5.34009442
_cell_length_b   5.34009450
_cell_length_c   5.34009508
_cell_angle_alpha   59.99999643
_cell_angle_beta   59.99999593
_cell_angle_gamma   59.99999418
_symmetry_Int_Tables_number   1
_chemical_formula_structural   TbIr2
_chemical_formula_sum   'Tb2 Ir4'
_cell_volume   107.67920162
_cell_formula_units_Z   2
loop_
 _symmetry_equiv_pos_site_id
 _symmetry_equiv_pos_as_xyz
  1  'x, y, z'
loop_
 _atom_site_type_symbol
 _atom_site_label
 _atom_site_symmetry_multiplicity
 _atom_site_fract_x
 _atom_site_fract_y
 _atom_site_fract_z
 _atom_site_occupancy
  Tb  Tb0  1  0.12500000  0.12500000  0.12500000  1
  Tb  Tb1  1  0.87500000  0.87500000  0.87500000  1
  Ir  Ir0  1  0.00000000  0.50000000  0.50000000  1
  Ir  Ir1  1  0.50000000  -0.00000000  0.50000000  1
  Ir  Ir2  1  0.50000000  0.50000000  -0.00000000  1
  Ir  Ir3  1  0.50000000  0.50000000  0.50000000  1
loop_
_geom_bond_atom_site_label_1
_geom_bond_atom_site_label_2
_geom_bond_distance
_geom_bond_site_symmetry_2
Ir0 Ir1 2.670047 1_555
Ir0 Ir1 2.670047 1_465
Ir0 Ir3 2.670047 1_455
Ir0 Ir2 2.670047 1_555
Ir0 Ir2 2.670047 1_456
Ir0 Ir3 2.670047 1_555
Ir0 Tb1 3.130908 1_445
Ir0 Tb0 3.130908 1_565
Ir0 Tb0 3.130908 1_555
Ir0 Tb0 3.130908 1_556
Ir0 Tb1 3.130908 1_455
Ir0 Tb1 3.130908 1_454
Ir1 Ir3 2.670047 1_555
Ir1 Ir3 2.670047 1_545
Ir1 Ir2 2.670047 1_555
Ir1 Ir2 2.670047 1_546
Ir1 Tb0 3.130908 1_655
Ir1 Tb1 3.130908 1_445
Ir1 Tb1 3.130908 1_544
Ir1 Tb1 3.130908 1_545
Ir1 Tb0 3.130908 1_555
Ir1 Tb0 3.130908 1_556
Ir2 Ir3 2.670048 1_554
Ir2 Ir3 2.670048 1_555
Ir2 Tb1 3.130908 1_454
Ir2 Tb0 3.130908 1_655
Ir2 Tb0 3.130908 1_565
Ir2 Tb1 3.130908 1_544
Ir2 Tb0 3.130908 1_555
Ir2 Tb1 3.130908 1_554
Ir3 Tb1 3.130908 1_455
Ir3 Tb0 3.130908 1_655
Ir3 Tb0 3.130908 1_565
Ir3 Tb1 3.130908 1_545
Ir3 Tb1 3.130908 1_554
Ir3 Tb0 3.130908 1_556
