# generated using pymatgen
data_Sc2Al3Mo4C3
_symmetry_space_group_name_H-M   'P 1'
_cell_length_a   9.43491500
_cell_length_b   5.39734600
_cell_length_c   13.54778700
_cell_angle_alpha   90.00000000
_cell_angle_beta   90.00000000
_cell_angle_gamma   90.00000000
_symmetry_Int_Tables_number   1
_chemical_formula_structural   Sc2Al3Mo4C3
_chemical_formula_sum   'Sc8 Al12 Mo16 C12'
_cell_volume   689.90074126
_cell_formula_units_Z   4
loop_
 _symmetry_equiv_pos_site_id
 _symmetry_equiv_pos_as_xyz
  1  'x, y, z'
loop_
 _atom_site_type_symbol
 _atom_site_label
 _atom_site_symmetry_multiplicity
 _atom_site_fract_x
 _atom_site_fract_y
 _atom_site_fract_z
 _atom_site_occupancy
  Sc  Sc0  1  0.00000000  0.16257600  0.10977100  1
  Sc  Sc1  1  0.00000000  0.83742400  0.89022900  1
  Sc  Sc2  1  0.00000000  0.16257600  0.39022900  1
  Sc  Sc3  1  0.00000000  0.83742400  0.60977100  1
  Sc  Sc4  1  0.50000000  0.66257600  0.10977100  1
  Sc  Sc5  1  0.50000000  0.33742400  0.89022900  1
  Sc  Sc6  1  0.50000000  0.66257600  0.39022900  1
  Sc  Sc7  1  0.50000000  0.33742400  0.60977100  1
  Al  Al0  1  0.00000000  0.69000900  0.25000000  1
  Al  Al1  1  0.00000000  0.30999100  0.75000000  1
  Al  Al2  1  0.50000000  0.19000900  0.25000000  1
  Al  Al3  1  0.50000000  0.80999100  0.75000000  1
  Al  Al4  1  0.75774500  0.41776300  0.25000000  1
  Al  Al5  1  0.75774500  0.58223700  0.75000000  1
  Al  Al6  1  0.24225500  0.41776300  0.25000000  1
  Al  Al7  1  0.24225500  0.58223700  0.75000000  1
  Al  Al8  1  0.25774500  0.91776300  0.25000000  1
  Al  Al9  1  0.25774500  0.08223700  0.75000000  1
  Al  Al10  1  0.74225500  0.91776300  0.25000000  1
  Al  Al11  1  0.74225500  0.08223700  0.75000000  1
  Mo  Mo0  1  0.16163900  0.32831400  0.57897500  1
  Mo  Mo1  1  0.16163900  0.67168600  0.42102500  1
  Mo  Mo2  1  0.83836100  0.32831400  0.92102500  1
  Mo  Mo3  1  0.83836100  0.67168600  0.07897500  1
  Mo  Mo4  1  0.83836100  0.67168600  0.42102500  1
  Mo  Mo5  1  0.83836100  0.32831400  0.57897500  1
  Mo  Mo6  1  0.16163900  0.67168600  0.07897500  1
  Mo  Mo7  1  0.16163900  0.32831400  0.92102500  1
  Mo  Mo8  1  0.66163900  0.82831400  0.57897500  1
  Mo  Mo9  1  0.66163900  0.17168600  0.42102500  1
  Mo  Mo10  1  0.33836100  0.82831400  0.92102500  1
  Mo  Mo11  1  0.33836100  0.17168600  0.07897500  1
  Mo  Mo12  1  0.33836100  0.17168600  0.42102500  1
  Mo  Mo13  1  0.33836100  0.82831400  0.57897500  1
  Mo  Mo14  1  0.66163900  0.17168600  0.07897500  1
  Mo  Mo15  1  0.66163900  0.82831400  0.92102500  1
  C  C0  1  0.83275600  0.00000000  0.00000000  1
  C  C1  1  0.16724400  0.00000000  0.50000000  1
  C  C2  1  0.16724400  0.00000000  0.00000000  1
  C  C3  1  0.83275600  0.00000000  0.50000000  1
  C  C4  1  0.33275600  0.50000000  0.00000000  1
  C  C5  1  0.66724400  0.50000000  0.50000000  1
  C  C6  1  0.66724400  0.50000000  0.00000000  1
  C  C7  1  0.33275600  0.50000000  0.50000000  1
  C  C8  1  0.00000000  0.50000000  0.00000000  1
  C  C9  1  0.00000000  0.50000000  0.50000000  1
  C  C10  1  0.50000000  0.00000000  0.00000000  1
  C  C11  1  0.50000000  0.00000000  0.50000000  1
loop_
_geom_bond_atom_site_label_1
_geom_bond_atom_site_label_2
_geom_bond_distance
_geom_bond_site_symmetry_2
Al0 Al6 2.717236 1_555
Al0 Al4 2.717236 1_455
Al0 Al8 2.724841 1_555
Al0 Al10 2.724841 1_455
Al0 Mo6 2.775625 1_555
Al0 Mo3 2.775625 1_455
Al0 Mo1 2.775625 1_555
Al0 Mo4 2.775625 1_455
Al1 Al5 2.717236 1_455
Al1 Al7 2.717236 1_555
Al1 Al9 2.724841 1_555
Al1 Al11 2.724841 1_455
Al1 Mo0 2.775625 1_555
Al1 Mo5 2.775625 1_455
Al1 Mo2 2.775625 1_455
Al1 Mo7 2.775625 1_555
Al2 Al8 2.717236 1_545
Al2 Al6 2.724841 1_555
Al2 Al4 2.724841 1_555
Al2 Mo11 2.775625 1_555
Al2 Mo9 2.775625 1_555
Al2 Mo12 2.775625 1_555
Al2 Mo14 2.775625 1_555
Al3 Al9 2.717236 1_565
Al3 Al7 2.724841 1_555
Al3 Al5 2.724841 1_555
Al3 Mo13 2.775625 1_555
Al3 Mo15 2.775625 1_555
Al3 Mo10 2.775625 1_555
Al3 Mo8 2.775625 1_555
Al4 Mo3 2.797384 1_555
Al4 Mo4 2.797384 1_555
Al4 Mo14 2.820417 1_555
Al4 Mo9 2.820417 1_555
Al4 Sc0 3.275741 1_655
Al4 Sc2 3.275741 1_655
Al4 Sc6 3.356905 1_555
Al4 Sc4 3.356905 1_555
Al5 Mo2 2.797384 1_555
Al5 Mo5 2.797384 1_555
Al5 Mo8 2.820417 1_555
Al5 Mo15 2.820417 1_555
Al5 Sc1 3.275741 1_655
Al5 Sc3 3.275741 1_655
Al5 Sc7 3.356905 1_555
Al5 Sc5 3.356905 1_555
Al6 Al8 2.702627 1_555
Al6 Al8 2.702627 1_545
Al6 Mo6 2.797384 1_555
Al6 Mo1 2.797384 1_555
Al6 Mo11 2.820417 1_555
Al6 Mo12 2.820417 1_555
Al6 Sc0 3.275741 1_555
Al6 Sc2 3.275741 1_555
Al6 Sc6 3.356905 1_555
Al6 Sc4 3.356905 1_555
Al7 Al9 2.702627 1_555
Al7 Al9 2.702627 1_565
Al7 Mo0 2.797384 1_555
Al7 Mo7 2.797384 1_555
Al7 Mo13 2.820417 1_555
Al7 Mo10 2.820417 1_555
Al7 Sc1 3.275741 1_555
Al7 Sc3 3.275741 1_555
Al7 Sc7 3.356905 1_555
Al7 Sc5 3.356905 1_555
Al8 Mo11 2.797384 1_565
Al8 Mo12 2.797384 1_565
Al8 Mo6 2.820417 1_555
Al8 Mo1 2.820417 1_555
Al8 Sc4 3.275741 1_555
Al8 Sc6 3.275741 1_555
Al8 Sc0 3.356905 1_565
Al8 Sc2 3.356905 1_565
Al9 Mo13 2.797384 1_545
Al9 Mo10 2.797384 1_545
Al9 Mo7 2.820417 1_555
Al9 Mo0 2.820417 1_555
Al9 Sc5 3.275741 1_555
Al9 Sc7 3.275741 1_555
Al9 Sc1 3.356905 1_545
Al9 Sc3 3.356905 1_545
Al10 Al4 2.702627 1_565
Al10 Al4 2.702627 1_555
Al10 Al2 2.717236 1_565
Al10 Mo14 2.797384 1_565
Al10 Mo9 2.797384 1_565
Al10 Mo4 2.820417 1_555
Al10 Mo3 2.820417 1_555
Al10 Sc6 3.275741 1_555
Al10 Sc4 3.275741 1_555
Al10 Sc0 3.356905 1_665
Al10 Sc2 3.356905 1_665
Al11 Al5 2.702627 1_545
Al11 Al5 2.702627 1_555
Al11 Al3 2.717236 1_545
Al11 Mo15 2.797384 1_545
Al11 Mo8 2.797384 1_545
Al11 Mo5 2.820417 1_555
Al11 Mo2 2.820417 1_555
Al11 Sc7 3.275741 1_555
Al11 Sc5 3.275741 1_555
Al11 Sc3 3.356905 1_645
Al11 Sc1 3.356905 1_645
C0 Mo3 2.070659 1_545
C0 Mo2 2.070659 1_554
C0 Mo15 2.147084 1_544
C0 Mo14 2.147084 1_555
C0 Sc1 2.339117 1_644
C0 Sc0 2.339117 1_655
C1 Mo1 2.070659 1_545
C1 Mo0 2.070659 1_555
C1 Mo13 2.147084 1_545
C1 Mo12 2.147084 1_555
C1 Sc3 2.339117 1_545
C1 Sc2 2.339117 1_555
C2 Mo7 2.070659 1_554
C2 Mo6 2.070659 1_545
C2 Mo10 2.147084 1_544
C2 Mo11 2.147084 1_555
C2 Sc1 2.339117 1_544
C2 Sc0 2.339117 1_555
C3 Mo4 2.070659 1_545
C3 Mo5 2.070659 1_555
C3 Mo8 2.147084 1_545
C3 Mo9 2.147084 1_555
C3 Sc3 2.339117 1_645
C3 Sc2 2.339117 1_655
C4 Mo11 2.070659 1_555
C4 Mo10 2.070659 1_554
C4 Mo6 2.147084 1_555
C4 Mo7 2.147084 1_554
C4 Sc5 2.339117 1_554
C4 Sc4 2.339117 1_555
C5 Mo8 2.070659 1_555
C5 Mo9 2.070659 1_555
C5 Mo4 2.147084 1_555
C5 Mo5 2.147084 1_555
C5 Sc7 2.339117 1_555
C5 Sc6 2.339117 1_555
C6 Mo15 2.070659 1_554
C6 Mo14 2.070659 1_555
C6 Mo3 2.147084 1_555
C6 Mo2 2.147084 1_554
C6 Sc5 2.339117 1_554
C6 Sc4 2.339117 1_555
C7 Mo13 2.070659 1_555
C7 Mo12 2.070659 1_555
C7 Mo1 2.147084 1_555
C7 Mo0 2.147084 1_555
C7 Sc7 2.339117 1_555
C7 Sc6 2.339117 1_555
C8 Mo6 2.080678 1_555
C8 Mo3 2.080678 1_455
C8 Mo2 2.080678 1_454
C8 Mo7 2.080678 1_554
C8 Sc1 2.351250 1_554
C8 Sc0 2.351250 1_555
C9 Mo5 2.080678 1_455
C9 Mo4 2.080678 1_455
C9 Mo0 2.080678 1_555
C9 Mo1 2.080678 1_555
C9 Sc3 2.351250 1_555
C9 Sc2 2.351250 1_555
C10 Mo15 2.080678 1_544
C10 Mo10 2.080678 1_544
C10 Mo14 2.080678 1_555
C10 Mo11 2.080678 1_555
C10 Sc5 2.351250 1_554
C10 Sc4 2.351250 1_545
C11 Mo9 2.080678 1_555
C11 Mo12 2.080678 1_555
C11 Mo13 2.080678 1_545
C11 Mo8 2.080678 1_545
C11 Sc6 2.351250 1_545
C11 Sc7 2.351250 1_555
