# generated using pymatgen
data_Na6In4Si5Sn4S7O48
_symmetry_space_group_name_H-M   'P 1'
_cell_length_a   17.98632522
_cell_length_b   8.99123286
_cell_length_c   22.98319480
_cell_angle_alpha   89.97287867
_cell_angle_beta   89.82396154
_cell_angle_gamma   120.07030844
_symmetry_Int_Tables_number   1
_chemical_formula_structural   Na6In4Si5Sn4S7O48
_chemical_formula_sum   'Na18 In12 Si15 Sn12 S21 O144'
_cell_volume   3216.55787230
_cell_formula_units_Z   3
loop_
 _symmetry_equiv_pos_site_id
 _symmetry_equiv_pos_as_xyz
  1  'x, y, z'
loop_
 _atom_site_type_symbol
 _atom_site_label
 _atom_site_symmetry_multiplicity
 _atom_site_fract_x
 _atom_site_fract_y
 _atom_site_fract_z
 _atom_site_occupancy
  Na  Na0  1  0.99676635  0.62105788  0.25675193  1
  Na  Na1  1  0.49831643  0.63759610  0.25096226  1
  Na  Na2  1  0.99879893  0.36506007  0.74997659  1
  Na  Na3  1  0.49937968  0.36246738  0.75348977  1
  Na  Na4  1  0.66317293  0.30276993  0.91735238  1
  Na  Na5  1  0.16454482  0.01737871  0.43254677  1
  Na  Na6  1  0.99912036  0.99159064  0.50544428  1
  Na  Na7  1  0.50680499  0.99176225  0.50304908  1
  Na  Na8  1  0.00502391  0.01871874  0.99832441  1
  Na  Na9  1  0.50352445  0.01678478  0.00083241  1
  Na  Na10  1  0.32556954  0.31110859  0.83874680  1
  Na  Na11  1  0.82912781  0.33082097  0.82115513  1
  Na  Na12  1  0.34383907  0.34949522  0.32904909  1
  Na  Na13  1  0.81938941  0.33131957  0.34096672  1
  Na  Na14  1  0.19219476  0.65788136  0.16472041  1
  Na  Na15  1  0.67189685  0.64348249  0.16274516  1
  Na  Na16  1  0.17397059  0.70520003  0.66523829  1
  Na  Na17  1  0.68805913  0.69905467  0.67224444  1
  In  In0  1  0.99566018  0.99084874  0.35502709  1
  In  In1  1  0.49866375  0.00779543  0.85219931  1
  In  In2  1  0.32476905  0.33739506  0.67759408  1
  In  In3  1  0.82418477  0.30870698  0.68902828  1
  In  In4  1  0.33078752  0.34980499  0.18604823  1
  In  In5  1  0.82111977  0.30839068  0.17410751  1
  In  In6  1  0.82836913  0.31692171  0.98891934  1
  In  In7  1  0.33056832  0.34685405  0.49353703  1
  In  In8  1  0.17073893  0.66899361  0.31660148  1
  In  In9  1  0.66392926  0.64487179  0.31524765  1
  In  In10  1  0.16580893  0.68512504  0.81497699  1
  In  In11  1  0.66764795  0.65664687  0.81266494  1
  Si  Si0  1  0.35652151  0.72210214  0.25263626  1
  Si  Si1  1  0.49861009  0.30150339  0.24778162  1
  Si  Si2  1  0.64257576  0.28831578  0.75126356  1
  Si  Si3  1  0.00228496  0.69886782  0.74696980  1
  Si  Si4  1  0.85864565  0.99322096  0.75290491  1
  Si  Si5  1  0.17833582  0.03380259  0.58251965  1
  Si  Si6  1  0.68950979  0.03278449  0.58062051  1
  Si  Si7  1  0.33519937  0.64618868  0.58353811  1
  Si  Si8  1  0.83231326  0.02534304  0.08287260  1
  Si  Si9  1  0.18967085  0.34554184  0.08216568  1
  Si  Si10  1  0.67783656  0.32706941  0.08160997  1
  Si  Si11  1  0.51819952  0.37695868  0.91599359  1
  Si  Si12  1  0.16449022  0.96264854  0.91856747  1
  Si  Si13  1  0.66570173  0.36781598  0.41747582  1
  Si  Si14  1  0.02013153  0.65780229  0.41402474  1
  Sn  Sn0  1  0.50121798  0.02320489  0.35139444  1
  Sn  Sn1  1  0.00195684  0.97697140  0.85044968  1
  Sn  Sn2  1  0.00136451  0.98852008  0.65064153  1
  Sn  Sn3  1  0.50690928  0.99853938  0.64389926  1
  Sn  Sn4  1  0.00170761  0.01306396  0.14064056  1
  Sn  Sn5  1  0.49991982  0.01313964  0.14942117  1
  Sn  Sn6  1  0.32971888  0.32631855  0.98002332  1
  Sn  Sn7  1  0.83040528  0.33645968  0.48120246  1
  Sn  Sn8  1  0.16340202  0.66526308  0.01591818  1
  Sn  Sn9  1  0.66710758  0.65917276  0.02056902  1
  Sn  Sn10  1  0.16596714  0.67513161  0.52280200  1
  Sn  Sn11  1  0.66273443  0.65831741  0.51733609  1
  S  S0  1  0.14139237  0.99949349  0.24885921  1
  S  S1  1  0.65033875  0.00610202  0.25368840  1
  S  S2  1  0.85621209  0.70678058  0.24566781  1
  S  S3  1  0.99733114  0.28952866  0.24976849  1
  S  S4  1  0.15058006  0.29486926  0.75397989  1
  S  S5  1  0.49365715  0.69963395  0.74996179  1
  S  S6  1  0.35256071  0.00252923  0.74581011  1
  S  S7  1  0.48456177  0.33668417  0.58452143  1
  S  S8  1  0.97775549  0.32579812  0.58181324  1
  S  S9  1  0.83385593  0.63124361  0.58141294  1
  S  S10  1  0.47942743  0.63379554  0.08260476  1
  S  S11  1  0.98574769  0.63121621  0.08731302  1
  S  S12  1  0.33181856  0.03610071  0.08291075  1
  S  S13  1  0.31288094  0.66803826  0.91551973  1
  S  S14  1  0.81766791  0.66503720  0.92057297  1
  S  S15  1  0.01537042  0.36404157  0.91633948  1
  S  S16  1  0.66648631  0.95691207  0.91703903  1
  S  S17  1  0.31688225  0.97029663  0.41938971  1
  S  S18  1  0.81162890  0.95836781  0.41503690  1
  S  S19  1  0.16798224  0.37039125  0.41665215  1
  S  S20  1  0.51441318  0.66655583  0.41533425  1
  O  O0  1  0.10466084  0.02197681  0.30418968  1
  O  O1  1  0.60920874  0.02680930  0.30709650  1
  O  O2  1  0.42095122  0.81266124  0.30882810  1
  O  O3  1  0.90823161  0.78369008  0.29946150  1
  O  O4  1  0.48929112  0.19981403  0.30882756  1
  O  O5  1  0.98894274  0.18945790  0.30318048  1
  O  O6  1  0.10972881  0.19154441  0.80739528  1
  O  O7  1  0.60772871  0.19394740  0.81477097  1
  O  O8  1  0.47940548  0.77704613  0.80257917  1
  O  O9  1  0.99257735  0.77926466  0.80852647  1
  O  O10  1  0.40114730  0.02348784  0.80048280  1
  O  O11  1  0.92363340  0.03092720  0.80899639  1
  O  O12  1  0.39568435  0.98556238  0.69371887  1
  O  O13  1  0.90286196  0.97373166  0.69192782  1
  O  O14  1  0.09717083  0.21774376  0.70081813  1
  O  O15  1  0.57449333  0.18317681  0.69828053  1
  O  O16  1  0.02517386  0.82690774  0.69132016  1
  O  O17  1  0.49631373  0.79185047  0.69561006  1
  O  O18  1  0.40220185  0.82596005  0.19170063  1
  O  O19  1  0.90213570  0.81273726  0.19373836  1
  O  O20  1  0.00533825  0.20314068  0.19669522  1
  O  O21  1  0.51932900  0.21818149  0.19163473  1
  O  O22  1  0.08393802  0.97772465  0.19847234  1
  O  O23  1  0.59663874  0.97628830  0.20074809  1
  O  O24  1  0.44550411  0.35560055  0.63882227  1
  O  O25  1  0.94395278  0.35872097  0.63525495  1
  O  O26  1  0.24066969  0.11812996  0.63740526  1
  O  O27  1  0.74674088  0.10545365  0.63777999  1
  O  O28  1  0.31979521  0.53641946  0.64236302  1
  O  O29  1  0.82565979  0.53101861  0.63303784  1
  O  O30  1  0.44809646  0.53588575  0.13779621  1
  O  O31  1  0.94740918  0.53487605  0.14239114  1
  O  O32  1  0.32230850  0.11674374  0.13560701  1
  O  O33  1  0.82341477  0.10077517  0.14517591  1
  O  O34  1  0.24173725  0.38170280  0.14232273  1
  O  O35  1  0.73808523  0.36844056  0.13878907  1
  O  O36  1  0.23560797  0.31724503  0.02590325  1
  O  O37  1  0.71861476  0.30847001  0.02008960  1
  O  O38  1  0.42337641  0.54227205  0.03235881  1
  O  O39  1  0.93262112  0.55173895  0.03579736  1
  O  O40  1  0.34537387  0.13970431  0.02933391  1
  O  O41  1  0.85823680  0.15446791  0.02800432  1
  O  O42  1  0.21903610  0.13121115  0.52002865  1
  O  O43  1  0.73323964  0.14897957  0.52208751  1
  O  O44  1  0.36053819  0.57699549  0.52548707  1
  O  O45  1  0.84862333  0.55849579  0.52653691  1
  O  O46  1  0.43378844  0.31857234  0.53183242  1
  O  O47  1  0.92524826  0.30706059  0.52891166  1
  O  O48  1  0.27263397  0.69329489  0.96914595  1
  O  O49  1  0.77920935  0.69109514  0.97431587  1
  O  O50  1  0.07086509  0.44975307  0.96904843  1
  O  O51  1  0.58905127  0.47687756  0.96779295  1
  O  O52  1  0.14813425  0.84174770  0.97719757  1
  O  O53  1  0.66568681  0.86623085  0.97148234  1
  O  O54  1  0.27602042  0.86331956  0.47170851  1
  O  O55  1  0.76984460  0.85258749  0.46753351  1
  O  O56  1  0.16247083  0.45942698  0.46879374  1
  O  O57  1  0.64890391  0.45851857  0.47453346  1
  O  O58  1  0.09335604  0.70167206  0.46395817  1
  O  O59  1  0.57023699  0.68848186  0.46650395  1
  O  O60  1  0.05641732  0.63460950  0.35061406  1
  O  O61  1  0.55488459  0.65512505  0.35988078  1
  O  O62  1  0.26250732  0.89522591  0.36664765  1
  O  O63  1  0.76326295  0.88066487  0.36104764  1
  O  O64  1  0.17714990  0.46464703  0.36198196  1
  O  O65  1  0.68656428  0.47927114  0.35841022  1
  O  O66  1  0.05795517  0.45930645  0.86222868  1
  O  O67  1  0.55402954  0.47520953  0.85394007  1
  O  O68  1  0.18514748  0.88892970  0.86105318  1
  O  O69  1  0.67452269  0.87421829  0.86439523  1
  O  O70  1  0.26115800  0.64275294  0.86296944  1
  O  O71  1  0.76306303  0.63401977  0.86913108  1
  O  O72  1  0.01448348  0.83680641  0.41380046  1
  O  O73  1  0.50413388  0.82072192  0.41424736  1
  O  O74  1  0.40141513  0.97952351  0.41411496  1
  O  O75  1  0.89896843  0.97561558  0.41340061  1
  O  O76  1  0.08745263  0.19615636  0.41510863  1
  O  O77  1  0.57873960  0.17379794  0.41398261  1
  O  O78  1  0.00402578  0.18900838  0.91515630  1
  O  O79  1  0.50806152  0.18375712  0.91775188  1
  O  O80  1  0.07774798  0.98287985  0.91481854  1
  O  O81  1  0.58561501  0.96649044  0.91751963  1
  O  O82  1  0.39958854  0.82270660  0.91190123  1
  O  O83  1  0.90328936  0.82311246  0.91544857  1
  O  O84  1  0.49642251  0.18551058  0.58646316  1
  O  O85  1  0.98333054  0.16663789  0.58529690  1
  O  O86  1  0.08545771  0.03241710  0.58688733  1
  O  O87  1  0.59348658  0.01379140  0.58521280  1
  O  O88  1  0.41455998  0.84622330  0.58992805  1
  O  O89  1  0.90901214  0.81004213  0.58393992  1
  O  O90  1  0.48327268  0.80279150  0.08665901  1
  O  O91  1  0.00026625  0.80956826  0.09167229  1
  O  O92  1  0.40775251  0.01033217  0.08552247  1
  O  O93  1  0.91200190  0.98205620  0.08605554  1
  O  O94  1  0.09383662  0.16911912  0.08656575  1
  O  O95  1  0.58517176  0.14154049  0.08725166  1
  O  O96  1  0.34687858  0.16346545  0.74250128  1
  O  O97  1  0.85562734  0.17079753  0.75029655  1
  O  O98  1  0.23615321  0.30916725  0.75008672  1
  O  O99  1  0.73781785  0.31288899  0.74626529  1
  O  O100  1  0.42015474  0.51681257  0.74679578  1
  O  O101  1  0.91689149  0.51146753  0.74001778  1
  O  O102  1  0.34882774  0.53335098  0.25140704  1
  O  O103  1  0.84949910  0.53465466  0.24167661  1
  O  O104  1  0.41134247  0.31426419  0.24250424  1
  O  O105  1  0.92121385  0.31323105  0.24641833  1
  O  O106  1  0.22737751  0.14834279  0.24311063  1
  O  O107  1  0.73608636  0.16394491  0.24971626  1
  O  O108  1  0.32209140  0.51356838  0.92159110  1
  O  O109  1  0.82757366  0.51025238  0.92567959  1
  O  O110  1  0.42532864  0.36813284  0.92682949  1
  O  O111  1  0.93230340  0.36038161  0.92190598  1
  O  O112  1  0.24845694  0.15523829  0.92402750  1
  O  O113  1  0.74144210  0.13813192  0.91776769  1
  O  O114  1  0.32738747  0.14445477  0.42506686  1
  O  O115  1  0.82274027  0.13269354  0.41968945  1
  O  O116  1  0.24254046  0.34031441  0.41882166  1
  O  O117  1  0.75054363  0.34659601  0.42358294  1
  O  O118  1  0.43011413  0.50528185  0.42040974  1
  O  O119  1  0.92652123  0.48558816  0.42508463  1
  O  O120  1  0.17472586  0.51240534  0.07302830  1
  O  O121  1  0.65821112  0.48661462  0.07937172  1
  O  O122  1  0.07206530  0.64504730  0.08224613  1
  O  O123  1  0.56727418  0.66245531  0.07370975  1
  O  O124  1  0.25250389  0.86230137  0.07762458  1
  O  O125  1  0.74243999  0.84104837  0.07583320  1
  O  O126  1  0.15744587  0.83356353  0.57913772  1
  O  O127  1  0.67499228  0.83572869  0.57174251  1
  O  O128  1  0.24408228  0.64832752  0.57522022  1
  O  O129  1  0.75372106  0.64253194  0.57567410  1
  O  O130  1  0.06634973  0.47562955  0.57339758  1
  O  O131  1  0.57146848  0.49616517  0.58054084  1
  O  O132  1  0.14360077  0.83623484  0.25002562  1
  O  O133  1  0.65914008  0.85099273  0.25893725  1
  O  O134  1  0.26242334  0.70963176  0.25618873  1
  O  O135  1  0.77192051  0.69588882  0.24887805  1
  O  O136  1  0.07632784  0.46256897  0.25075943  1
  O  O137  1  0.57988464  0.50238145  0.24987695  1
  O  O138  1  0.15903525  0.46711926  0.75920733  1
  O  O139  1  0.64319358  0.47128875  0.74835689  1
  O  O140  1  0.08388743  0.66255398  0.74926692  1
  O  O141  1  0.57468931  0.69521846  0.75220043  1
  O  O142  1  0.26629312  0.84678482  0.74875302  1
  O  O143  1  0.76437369  0.82423545  0.75798089  1
loop_
_geom_bond_atom_site_label_1
_geom_bond_atom_site_label_2
_geom_bond_distance
_geom_bond_site_symmetry_2
Na0 O132 2.370380 1_655
Na0 O103 2.383998 1_555
Na0 O60 2.388130 1_655
Na0 O105 2.407684 1_555
Na0 O136 2.477895 1_655
Na0 O31 2.761125 1_555
Na0 O3 2.821839 1_555
Na1 O137 2.327726 1_555
Na1 O102 2.362696 1_555
Na1 O104 2.526153 1_555
Na1 O133 2.554214 1_555
Na1 O61 2.679900 1_555
Na1 O30 2.757875 1_555
Na1 O23 2.884482 1_555
Na1 O2 2.892798 1_555
Na2 O97 2.274777 1_555
Na2 O140 2.322648 1_655
Na2 O101 2.429163 1_555
Na2 O138 2.558708 1_655
Na2 O66 2.760709 1_655
Na2 O25 2.808594 1_555
Na2 O14 2.915346 1_655
Na2 O11 2.933940 1_555
Na3 O139 2.263607 1_555
Na3 O96 2.423916 1_555
Na3 O100 2.441906 1_555
Na3 O67 2.518203 1_555
Na3 O141 2.593312 1_555
Na3 O24 2.800746 1_555
Na3 O10 2.857665 1_555
Na3 O15 2.864949 1_555
Na4 O79 2.436536 1_555
Na4 O113 2.502325 1_555
Na4 O37 2.556520 1_556
Na4 O7 2.559133 1_555
Na4 O109 2.595430 1_555
Na4 O81 2.619374 1_545
Na4 O51 2.766871 1_555
Na4 O71 2.819397 1_555
Na5 O42 2.249333 1_555
Na5 O72 2.392256 1_545
Na5 O116 2.532348 1_555
Na5 O114 2.560626 1_555
Na5 O58 2.562876 1_545
Na5 O76 2.627461 1_555
Na5 O62 2.920493 1_545
Na6 O86 2.344611 1_665
Na6 O89 2.423640 1_555
Na6 O85 2.524572 1_565
Na6 O72 2.614217 1_655
Na6 O76 2.695461 1_665
Na6 O75 2.739548 1_555
Na7 O87 2.396863 1_565
Na7 O88 2.500723 1_555
Na7 O77 2.530143 1_565
Na7 O73 2.542111 1_555
Na7 O84 2.659302 1_565
Na7 O74 2.756483 1_555
Na8 O80 2.430186 1_545
Na8 O78 2.454248 1_555
Na8 O94 2.520163 1_556
Na8 O93 2.529739 1_446
Na8 O83 2.620893 1_445
Na8 O91 2.824951 1_546
Na9 O95 2.393542 1_555
Na9 O79 2.404184 1_554
Na9 O92 2.576522 1_555
Na9 O81 2.589123 1_544
Na9 O90 2.648657 1_545
Na9 O82 2.734077 1_544
Na10 O112 2.400471 1_555
Na10 O110 2.584967 1_555
Na10 O98 2.594430 1_555
Na10 O108 2.656995 1_555
Na10 O96 2.703637 1_555
Na10 O100 2.757203 1_555
Na11 O99 2.331969 1_555
Na11 O97 2.373652 1_555
Na11 O101 2.452973 1_555
Na11 O113 2.766958 1_555
Na11 O111 2.899836 1_555
Na11 O109 2.902253 1_555
Na12 O102 2.402633 1_555
Na12 O104 2.429420 1_555
Na12 O118 2.573633 1_555
Na12 O116 2.722044 1_555
Na12 O106 2.791471 1_555
Na12 O114 2.793152 1_555
Na13 O117 2.305176 1_555
Na13 O115 2.563608 1_555
Na13 O107 2.582776 1_555
Na13 O119 2.592599 1_555
Na13 O103 2.799914 1_555
Na13 O105 2.894315 1_555
Na14 O134 2.379012 1_555
Na14 O120 2.417742 1_555
Na14 O124 2.558715 1_555
Na14 O136 2.764273 1_555
Na14 O122 2.837324 1_555
Na14 O132 2.928556 1_555
Na15 O121 2.319317 1_555
Na15 O137 2.496371 1_555
Na15 O125 2.545155 1_555
Na15 O135 2.559442 1_555
Na15 O123 2.846512 1_555
Na15 O133 2.975095 1_555
Na16 O126 2.383594 1_555
Na16 O140 2.420635 1_555
Na16 O142 2.442482 1_555
Na16 O128 2.600630 1_555
Na16 O130 2.913453 1_555
Na16 O138 2.955442 1_555
Na17 O143 2.346119 1_555
Na17 O139 2.497397 1_555
Na17 O129 2.676878 1_555
Na17 O127 2.681578 1_555
Na17 O141 2.728097 1_555
Na17 O131 2.892183 1_555
In0 O72 2.080516 1_655
In0 O75 2.142436 1_555
In0 O3 2.156950 1_555
In0 O0 2.173221 1_665
In0 O5 2.199652 1_565
In0 O76 2.236617 1_665
In1 O7 2.021761 1_555
In1 O79 2.130104 1_555
In1 O10 2.183973 1_555
In1 O82 2.199710 1_545
In1 O8 2.238195 1_545
In1 O81 2.331003 1_545
In2 O28 2.006334 1_555
In2 O26 2.012403 1_555
In2 O98 2.226807 1_555
In2 O24 2.273404 1_555
In2 O100 2.306744 1_555
In2 O96 2.335334 1_555
In3 O27 2.031863 1_555
In3 O99 2.047212 1_555
In3 O101 2.108322 1_555
In3 O97 2.132185 1_555
In3 O25 2.320019 1_555
In3 O29 2.365649 1_555
In4 O34 2.031636 1_555
In4 O104 2.088096 1_555
In4 O102 2.134005 1_555
In4 O30 2.219734 1_555
In4 O106 2.251014 1_555
In4 O32 2.332706 1_555
In5 O35 1.999009 1_555
In5 O33 2.001679 1_555
In5 O107 2.244235 1_555
In5 O31 2.278339 1_555
In5 O103 2.403786 1_555
In5 O105 2.438242 1_555
In6 O41 2.004278 1_556
In6 O37 2.063226 1_556
In6 O109 2.270904 1_555
In6 O39 2.276326 1_556
In6 O113 2.280870 1_555
In6 O111 2.295472 1_555
In7 O44 1.999420 1_555
In7 O42 2.061035 1_555
In7 O46 2.183812 1_555
In7 O116 2.320036 1_555
In7 O118 2.341575 1_555
In7 O114 2.385447 1_555
In8 O134 2.040201 1_555
In8 O60 2.070646 1_555
In8 O64 2.165209 1_555
In8 O62 2.198704 1_555
In8 O136 2.340588 1_555
In8 O132 2.361911 1_555
In9 O65 1.993835 1_555
In9 O137 2.063675 1_555
In9 O63 2.238893 1_555
In9 O61 2.253100 1_555
In9 O133 2.296824 1_555
In9 O135 2.323416 1_555
In10 O68 1.991401 1_555
In10 O140 2.051189 1_555
In10 O70 2.229110 1_555
In10 O142 2.245934 1_555
In10 O66 2.258961 1_555
In10 O138 2.294327 1_555
In11 O143 2.057795 1_555
In11 O67 2.093600 1_555
In11 O139 2.104100 1_555
In11 O69 2.239731 1_555
In11 O71 2.243692 1_555
In11 O141 2.332786 1_555
O0 S0 1.491111 1_545
O1 S1 1.490412 1_555
O1 Sn0 2.176024 1_555
O2 Si0 1.654817 1_555
O2 Sn0 1.973987 1_565
O3 S2 1.497234 1_555
O4 Si1 1.635946 1_555
O4 Sn0 1.966178 1_555
O5 S3 1.483595 1_555
O6 S4 1.489769 1_555
O6 Sn1 2.167362 1_545
O7 Si2 1.644227 1_555
O8 S5 1.479966 1_555
O9 Si3 1.637232 1_655
O9 Sn1 1.954201 1_655
O10 S6 1.489990 1_555
O11 Si4 1.660039 1_545
O11 Sn1 1.954561 1_645
O12 S6 1.473523 1_565
O12 Sn3 2.253589 1_555
O13 Si4 1.661412 1_555
O13 Sn2 1.952041 1_655
O14 S4 1.495661 1_555
O14 Sn2 2.236619 1_545
O15 Si2 1.651122 1_555
O15 Sn3 1.945451 1_545
O16 Si3 1.628221 1_555
O16 Sn2 1.947751 1_555
O17 S5 1.486321 1_555
O17 Sn3 2.131669 1_555
O18 Si0 1.652657 1_555
O18 Sn5 1.972169 1_565
O19 S2 1.489499 1_555
O19 Sn4 2.166290 1_665
O20 S3 1.491265 1_455
O20 Sn4 2.115548 1_555
O21 Si1 1.625756 1_555
O21 Sn5 1.954677 1_555
O22 S0 1.500722 1_555
O22 Sn4 2.130203 1_565
O23 S1 1.494414 1_565
O23 Sn5 2.262192 1_565
O24 S7 1.481388 1_555
O25 S8 1.463561 1_555
O26 Si5 1.606499 1_555
O27 Si6 1.596080 1_555
O28 Si7 1.612799 1_555
O29 S9 1.451336 1_555
O30 S10 1.482896 1_555
O31 S11 1.491067 1_555
O32 S12 1.464814 1_555
O33 Si8 1.626138 1_555
O34 Si9 1.611692 1_555
O35 Si10 1.626329 1_555
O36 Si9 1.619844 1_555
O36 Sn6 1.958158 1_554
O37 Si10 1.637649 1_555
O38 S10 1.484525 1_555
O38 Sn6 2.188956 1_554
O39 S11 1.465960 1_555
O40 S12 1.487588 1_555
O40 Sn6 2.156995 1_554
O41 Si8 1.614951 1_555
O42 Si5 1.647906 1_555
O43 Si6 1.639689 1_555
O43 Sn7 1.953189 1_555
O44 Si7 1.629734 1_555
O45 S9 1.503963 1_555
O45 Sn7 2.127682 1_555
O46 S7 1.478133 1_555
O47 S8 1.498795 1_555
O47 Sn7 2.155301 1_555
O48 S13 1.501391 1_555
O48 Sn8 2.137663 1_556
O49 S14 1.488790 1_555
O49 Sn9 2.164370 1_556
O50 S15 1.514990 1_555
O50 Sn8 2.113371 1_556
O51 Si11 1.646651 1_555
O51 Sn9 1.958357 1_556
O52 Si12 1.661234 1_555
O52 Sn8 1.955045 1_556
O53 S16 1.489248 1_555
O53 Sn9 2.187519 1_556
O54 S17 1.481982 1_555
O54 Sn10 2.188060 1_555
O55 S18 1.483972 1_555
O55 Sn11 2.164485 1_555
O56 S19 1.471908 1_555
O56 Sn10 2.277442 1_555
O57 Si13 1.649712 1_555
O57 Sn11 1.952476 1_555
O58 Si14 1.642056 1_555
O58 Sn10 1.978510 1_555
O59 S20 1.496396 1_555
O59 Sn11 2.161048 1_555
O60 Si14 1.650522 1_555
O61 S20 1.494721 1_555
O62 S17 1.492648 1_555
O63 S18 1.477487 1_555
O64 S19 1.477114 1_555
O65 Si13 1.614511 1_555
O66 S15 1.484136 1_555
O67 Si11 1.628608 1_555
O68 Si12 1.602906 1_555
O69 S16 1.464617 1_555
O70 S13 1.473460 1_555
O71 S14 1.474168 1_555
O72 Si14 1.662702 1_555
O73 S20 1.487622 1_555
O73 Sn0 2.344706 1_565
O74 S17 1.485179 1_555
O74 Sn0 2.175226 1_565
O75 S18 1.499581 1_555
O76 S19 1.509920 1_555
O77 Si13 1.662118 1_555
O77 Sn0 1.992220 1_555
O78 S15 1.482355 1_555
O78 Sn1 2.404083 1_545
O79 Si11 1.653762 1_555
O80 Si12 1.661287 1_555
O80 Sn1 1.997416 1_555
O81 S16 1.499591 1_555
O82 S13 1.482812 1_555
O83 S14 1.486894 1_555
O83 Sn1 2.194621 1_655
O84 S7 1.478381 1_555
O84 Sn3 2.218432 1_545
O85 S8 1.485969 1_555
O85 Sn2 2.333836 1_645
O86 Si5 1.667044 1_555
O86 Sn2 1.994527 1_545
O87 Si6 1.651209 1_555
O87 Sn3 2.008952 1_545
O88 Si7 1.650054 1_555
O88 Sn3 1.976834 1_555
O89 S9 1.495972 1_555
O89 Sn2 2.243039 1_655
O90 S10 1.489010 1_555
O90 Sn5 2.277082 1_565
O91 S11 1.493467 1_455
O91 Sn4 2.137666 1_565
O92 S12 1.496736 1_555
O92 Sn5 2.208758 1_555
O93 Si8 1.664585 1_565
O93 Sn4 1.953683 1_665
O94 Si9 1.660219 1_555
O94 Sn4 1.978608 1_555
O95 Si10 1.670225 1_555
O95 Sn5 1.984097 1_555
O96 S6 1.502739 1_555
O97 Si4 1.625598 1_545
O98 S4 1.481337 1_555
O99 Si2 1.617419 1_555
O100 S5 1.509324 1_555
O101 Si3 1.622332 1_655
O102 Si0 1.632433 1_555
O103 S2 1.493679 1_555
O104 Si1 1.635000 1_555
O105 S3 1.489537 1_555
O106 S0 1.457672 1_545
O107 S1 1.485483 1_555
O108 S13 1.485402 1_555
O108 Sn6 2.210735 1_555
O109 S14 1.493594 1_555
O110 Si11 1.650201 1_555
O110 Sn6 1.982930 1_555
O111 S15 1.482986 1_655
O112 Si12 1.635771 1_545
O112 Sn6 1.979664 1_555
O113 S16 1.507172 1_545
O114 S17 1.486135 1_545
O115 S18 1.481385 1_545
O115 Sn7 2.263822 1_555
O116 S19 1.495926 1_555
O117 Si13 1.636405 1_555
O117 Sn7 1.992006 1_555
O118 S20 1.486836 1_555
O119 Si14 1.637514 1_655
O119 Sn7 2.027743 1_555
O120 Si9 1.664777 1_555
O120 Sn8 1.983357 1_555
O121 Si10 1.640898 1_555
O121 Sn9 2.001790 1_555
O122 S11 1.498262 1_455
O122 Sn8 2.177352 1_555
O123 S10 1.481441 1_555
O123 Sn9 2.180946 1_555
O124 S12 1.503018 1_565
O124 Sn8 2.211202 1_555
O125 Si8 1.643950 1_565
O125 Sn9 1.978745 1_555
O126 Si5 1.646526 1_565
O126 Sn10 1.987070 1_555
O127 Si6 1.669146 1_565
O127 Sn11 1.951366 1_555
O128 Si7 1.660208 1_555
O128 Sn10 1.957797 1_555
O129 S9 1.500964 1_555
O129 Sn11 2.177642 1_555
O130 S8 1.496019 1_455
O130 Sn10 2.131807 1_555
O131 S7 1.503570 1_555
O131 Sn11 2.124953 1_555
O132 S0 1.488427 1_555
O133 S1 1.485190 1_565
O134 Si0 1.640944 1_555
O135 S2 1.471088 1_555
O136 S3 1.491615 1_455
O137 Si1 1.660135 1_555
O138 S4 1.483380 1_555
O139 Si2 1.640940 1_555
O140 Si3 1.656599 1_555
O141 S5 1.478813 1_555
O142 S6 1.481528 1_565
O143 Si4 1.616815 1_555
