# generated using pymatgen
data_Tb2Ge5Rh3
_symmetry_space_group_name_H-M   'P 1'
_cell_length_a   8.32537276
_cell_length_b   8.32537276
_cell_length_c   5.94399608
_cell_angle_alpha   69.17008925
_cell_angle_beta   69.17008925
_cell_angle_gamma   90.96708103
_symmetry_Int_Tables_number   1
_chemical_formula_structural   Tb2Ge5Rh3
_chemical_formula_sum   'Tb4 Ge10 Rh6'
_cell_volume   355.01696944
_cell_formula_units_Z   2
loop_
 _symmetry_equiv_pos_site_id
 _symmetry_equiv_pos_as_xyz
  1  'x, y, z'
loop_
 _atom_site_type_symbol
 _atom_site_label
 _atom_site_symmetry_multiplicity
 _atom_site_fract_x
 _atom_site_fract_y
 _atom_site_fract_z
 _atom_site_occupancy
  Tb  Tb0  1  0.86288793  0.59375451  0.77173979  1
  Tb  Tb1  1  0.40624549  0.13711207  0.72826021  1
  Tb  Tb2  1  0.13711207  0.40624549  0.22826021  1
  Tb  Tb3  1  0.59375451  0.86288793  0.27173979  1
  Ge  Ge0  1  0.06507689  0.26088683  0.83696087  1
  Ge  Ge1  1  0.73911317  0.93492311  0.66303913  1
  Ge  Ge2  1  0.93492311  0.73911317  0.16303913  1
  Ge  Ge3  1  0.26088683  0.06507689  0.33696087  1
  Ge  Ge4  1  0.22005489  0.77994511  0.75000000  1
  Ge  Ge5  1  0.77994511  0.22005489  0.25000000  1
  Ge  Ge6  1  0.50052519  0.49947481  0.75000000  1
  Ge  Ge7  1  0.49947481  0.50052519  0.25000000  1
  Ge  Ge8  1  0.77926713  0.22073287  0.75000000  1
  Ge  Ge9  1  0.22073287  0.77926713  0.25000000  1
  Rh  Rh0  1  0.25063566  0.53528478  0.60795093  1
  Rh  Rh1  1  0.46471522  0.74936434  0.89204907  1
  Rh  Rh2  1  0.74936434  0.46471522  0.39204907  1
  Rh  Rh3  1  0.53528478  0.25063566  0.10795093  1
  Rh  Rh4  1  0.00014229  -0.00014229  0.75000000  1
  Rh  Rh5  1  -0.00014229  0.00014229  0.25000000  1
loop_
_geom_bond_atom_site_label_1
_geom_bond_atom_site_label_2
_geom_bond_distance
_geom_bond_site_symmetry_2
Ge0 Rh0 2.373187 1_555
Ge0 Rh4 2.498006 1_555
Ge0 Rh5 2.501311 1_556
Ge0 Ge8 2.647940 1_455
Ge0 Ge5 2.648122 1_456
Ge0 Tb1 2.968854 1_555
Ge0 Tb2 3.194245 1_556
Ge0 Tb2 3.198950 1_555
Ge0 Tb0 3.243625 1_455
Ge1 Rh1 2.373187 1_555
Ge1 Rh4 2.498006 1_665
Ge1 Rh5 2.501311 1_665
Ge1 Ge8 2.647940 1_565
Ge1 Ge5 2.648122 1_565
Ge1 Tb0 2.968854 1_555
Ge1 Tb3 3.194245 1_555
Ge1 Tb3 3.198950 1_556
Ge1 Tb1 3.243625 1_565
Ge2 Rh2 2.373187 1_555
Ge2 Rh5 2.498006 1_665
Ge2 Rh4 2.501311 1_664
Ge2 Ge9 2.647940 1_655
Ge2 Ge4 2.648122 1_654
Ge2 Tb3 2.968854 1_555
Ge2 Tb0 3.194245 1_554
Ge2 Tb0 3.198950 1_555
Ge2 Tb2 3.243625 1_655
Ge3 Rh3 2.373187 1_555
Ge3 Rh5 2.498006 1_555
Ge3 Rh4 2.501311 1_555
Ge3 Ge9 2.647940 1_545
Ge3 Ge4 2.648122 1_545
Ge3 Tb2 2.968854 1_555
Ge3 Tb1 3.194245 1_555
Ge3 Tb1 3.198950 1_554
Ge3 Tb3 3.243625 1_545
Ge4 Rh0 2.452425 1_555
Ge4 Rh1 2.452425 1_555
Ge4 Rh4 2.610978 1_565
Ge4 Tb2 3.237136 1_556
Ge4 Tb3 3.237136 1_555
Ge4 Tb1 3.269587 1_565
Ge4 Tb0 3.269587 1_455
Ge5 Rh3 2.452425 1_555
Ge5 Rh2 2.452425 1_555
Ge5 Rh5 2.610978 1_655
Ge5 Tb0 3.237136 1_554
Ge5 Tb1 3.237136 1_555
Ge5 Tb2 3.269587 1_655
Ge5 Tb3 3.269587 1_545
Ge6 Rh1 2.494219 1_555
Ge6 Rh0 2.494219 1_555
Ge6 Rh3 2.495167 1_556
Ge6 Rh2 2.495167 1_555
Ge6 Tb0 3.162807 1_555
Ge6 Tb1 3.162807 1_555
Ge6 Tb2 3.173698 1_556
Ge6 Tb3 3.173698 1_555
Ge7 Rh2 2.494219 1_555
Ge7 Rh3 2.494219 1_555
Ge7 Rh1 2.495167 1_554
Ge7 Rh0 2.495167 1_555
Ge7 Tb3 3.162807 1_555
Ge7 Tb2 3.162807 1_555
Ge7 Tb1 3.173698 1_555
Ge7 Tb0 3.173698 1_554
Ge8 Rh3 2.456628 1_556
Ge8 Rh2 2.456628 1_555
Ge8 Rh4 2.622406 1_655
Ge8 Tb0 3.228337 1_555
Ge8 Tb1 3.228337 1_555
Ge8 Tb2 3.278112 1_655
Ge8 Tb3 3.278112 1_546
Ge9 Rh1 2.456628 1_554
Ge9 Rh0 2.456628 1_555
Ge9 Rh5 2.622406 1_565
Ge9 Tb2 3.228337 1_555
Ge9 Tb3 3.228337 1_555
Ge9 Tb1 3.278112 1_564
Ge9 Tb0 3.278112 1_455
Rh0 Tb0 3.124205 1_455
Rh0 Tb2 3.211310 1_556
Rh0 Tb2 3.216821 1_555
Rh1 Tb1 3.124205 1_565
Rh1 Tb3 3.211310 1_555
Rh1 Tb3 3.216821 1_556
Rh2 Tb2 3.124205 1_655
Rh2 Tb0 3.211310 1_554
Rh2 Tb0 3.216821 1_555
Rh3 Tb3 3.124205 1_545
Rh3 Tb1 3.211310 1_555
Rh3 Tb1 3.216821 1_554
