# generated using pymatgen
data_Na7Ca2SiGe2P5O24
_symmetry_space_group_name_H-M   'P 1'
_cell_length_a   9.11505593
_cell_length_b   9.12586931
_cell_length_c   21.87812799
_cell_angle_alpha   89.89143478
_cell_angle_beta   90.05805613
_cell_angle_gamma   119.77369957
_symmetry_Int_Tables_number   1
_chemical_formula_structural   Na7Ca2SiGe2P5O24
_chemical_formula_sum   'Na21 Ca6 Si3 Ge6 P15 O72'
_cell_volume   1579.64474485
_cell_formula_units_Z   3
loop_
 _symmetry_equiv_pos_site_id
 _symmetry_equiv_pos_as_xyz
  1  'x, y, z'
loop_
 _atom_site_type_symbol
 _atom_site_label
 _atom_site_symmetry_multiplicity
 _atom_site_fract_x
 _atom_site_fract_y
 _atom_site_fract_z
 _atom_site_occupancy
  Na  Na0  1  0.35383179  0.36175112  0.25338060  1
  Na  Na1  1  0.01092659  0.64292131  0.25248162  1
  Na  Na2  1  0.63245066  0.64748388  0.75026330  1
  Na  Na3  1  0.00613042  0.36556240  0.75346925  1
  Na  Na4  1  0.35362509  0.98889275  0.75202992  1
  Na  Na5  1  0.29867531  0.31484327  0.58184376  1
  Na  Na6  1  0.02082721  0.69745325  0.58449919  1
  Na  Na7  1  0.67603712  0.97595863  0.58873729  1
  Na  Na8  1  0.30218609  0.98022434  0.08512493  1
  Na  Na9  1  0.68474382  0.70225575  0.08296822  1
  Na  Na10  1  0.02120096  0.32574501  0.08624675  1
  Na  Na11  1  0.96712341  0.65895580  0.92260476  1
  Na  Na12  1  0.69005254  0.03296593  0.91885459  1
  Na  Na13  1  0.96914932  0.31215878  0.41859527  1
  Na  Na14  1  0.34333811  0.03202140  0.42149767  1
  Na  Na15  1  0.99703671  0.98632145  0.50102174  1
  Na  Na16  1  0.01354394  0.00267312  0.00097509  1
  Na  Na17  1  0.65076408  0.33588931  0.83535509  1
  Na  Na18  1  0.66365644  0.33369105  0.33420818  1
  Na  Na19  1  0.35298948  0.68600723  0.16849639  1
  Na  Na20  1  0.34148630  0.67425458  0.66825128  1
  Ca  Ca0  1  0.00090601  0.99968938  0.65056228  1
  Ca  Ca1  1  0.99559659  0.99721181  0.15129223  1
  Ca  Ca2  1  0.66060184  0.33450377  0.98073645  1
  Ca  Ca3  1  0.66491637  0.33803136  0.47899322  1
  Ca  Ca4  1  0.34359079  0.67412439  0.31398094  1
  Ca  Ca5  1  0.33298673  0.66514912  0.81773731  1
  Si  Si0  1  0.70700468  0.01356753  0.74772787  1
  Si  Si1  1  0.37301180  0.02588392  0.57863199  1
  Si  Si2  1  0.97312366  0.62585141  0.08007120  1
  Ge  Ge0  1  0.99107394  0.99332050  0.35079521  1
  Ge  Ge1  1  0.00122929  0.00933626  0.85060210  1
  Ge  Ge2  1  0.65908639  0.31737934  0.68364997  1
  Ge  Ge3  1  0.67712385  0.33479110  0.18436867  1
  Ge  Ge4  1  0.32635236  0.65910777  0.01776152  1
  Ge  Ge5  1  0.34327371  0.67453458  0.51792627  1
  P  P0  1  0.30846805  0.02006418  0.24864462  1
  P  P1  1  0.71134079  0.69109389  0.24747674  1
  P  P2  1  0.97857222  0.28643151  0.24995301  1
  P  P3  1  0.30376687  0.28724250  0.74880770  1
  P  P4  1  0.98177108  0.69453116  0.75101027  1
  P  P5  1  0.97234085  0.35057226  0.58166959  1
  P  P6  1  0.65153541  0.61739760  0.58552543  1
  P  P7  1  0.65004061  0.03124364  0.08161138  1
  P  P8  1  0.37962639  0.34922561  0.08606911  1
  P  P9  1  0.63996066  0.68556334  0.91530511  1
  P  P10  1  0.04439629  0.35565878  0.91565030  1
  P  P11  1  0.31289531  0.95574876  0.91433631  1
  P  P12  1  0.64368213  0.95522022  0.41708236  1
  P  P13  1  0.31396880  0.36084117  0.41435336  1
  P  P14  1  0.04736583  0.68589637  0.41333048  1
  O  O0  1  0.21036566  0.04681580  0.30573861  1
  O  O1  1  0.83794194  0.79421923  0.30226052  1
  O  O2  1  0.96018919  0.17126443  0.30817972  1
  O  O3  1  0.20594180  0.16075625  0.80371657  1
  O  O4  1  0.96044485  0.79433709  0.80769790  1
  O  O5  1  0.84290100  0.04657343  0.80812959  1
  O  O6  1  0.77700943  0.98162450  0.68629912  1
  O  O7  1  0.21347729  0.22266480  0.68864027  1
  O  O8  1  0.01767296  0.79393219  0.69217591  1
  O  O9  1  0.77755572  0.77517992  0.18664343  1
  O  O10  1  0.00723896  0.21848872  0.19126813  1
  O  O11  1  0.21527333  0.00248642  0.18961953  1
  O  O12  1  0.88012343  0.37672576  0.63978093  1
  O  O13  1  0.50410946  0.12641006  0.64004526  1
  O  O14  1  0.62336619  0.50244463  0.64524399  1
  O  O15  1  0.87266678  0.49122357  0.14095313  1
  O  O16  1  0.61997849  0.12739631  0.13711525  1
  O  O17  1  0.49578366  0.37824341  0.14514288  1
  O  O18  1  0.44878200  0.30466566  0.03152183  1
  O  O19  1  0.86787027  0.55296767  0.01945634  1
  O  O20  1  0.67607097  0.12427572  0.02203526  1
  O  O21  1  0.44707172  0.13153707  0.51818473  1
  O  O22  1  0.68855655  0.54281136  0.53091298  1
  O  O23  1  0.87311428  0.32621423  0.52378744  1
  O  O24  1  0.53917914  0.70466057  0.97309402  1
  O  O25  1  0.15788819  0.45160986  0.97416817  1
  O  O26  1  0.28593415  0.83199669  0.97159196  1
  O  O27  1  0.55898661  0.84661672  0.47798154  1
  O  O28  1  0.29480051  0.45916453  0.47289034  1
  O  O29  1  0.17037205  0.71589916  0.47087005  1
  O  O30  1  0.12301282  0.66705106  0.35472550  1
  O  O31  1  0.53014950  0.87976937  0.36314422  1
  O  O32  1  0.32167567  0.44896967  0.35541958  1
  O  O33  1  0.11345681  0.45325545  0.85719851  1
  O  O34  1  0.33054874  0.88064828  0.85544354  1
  O  O35  1  0.55463508  0.67635940  0.85553180  1
  O  O36  1  0.04090421  0.85829199  0.41075869  1
  O  O37  1  0.82052852  0.96039943  0.41079782  1
  O  O38  1  0.14058883  0.18266258  0.41566529  1
  O  O39  1  0.03875721  0.17922473  0.91326883  1
  O  O40  1  0.14068557  0.96072350  0.91258065  1
  O  O41  1  0.81662263  0.85835022  0.91703154  1
  O  O42  1  0.00332246  0.20168408  0.58820845  1
  O  O43  1  0.18202532  0.98834158  0.58533048  1
  O  O44  1  0.79497678  0.79843566  0.59164791  1
  O  O45  1  0.01060121  0.81675014  0.08716195  1
  O  O46  1  0.80036665  0.00317394  0.09024072  1
  O  O47  1  0.19585839  0.21121970  0.09374006  1
  O  O48  1  0.70756221  0.20033805  0.74429406  1
  O  O49  1  0.48051524  0.29243672  0.74733668  1
  O  O50  1  0.80803356  0.52326658  0.74852377  1
  O  O51  1  0.71090064  0.51522497  0.24821728  1
  O  O52  1  0.80884595  0.29497825  0.24701350  1
  O  O53  1  0.48495059  0.19088462  0.24761832  1
  O  O54  1  0.67175947  0.53763261  0.91984551  1
  O  O55  1  0.86372178  0.32376823  0.92247776  1
  O  O56  1  0.46758475  0.12862965  0.92159235  1
  O  O57  1  0.68117288  0.13771285  0.42276566  1
  O  O58  1  0.46142029  0.32786677  0.41809333  1
  O  O59  1  0.87379813  0.53283810  0.42111499  1
  O  O60  1  0.38498521  0.52668808  0.07869687  1
  O  O61  1  0.16133261  0.62707536  0.07660736  1
  O  O62  1  0.48030119  0.85290334  0.07934382  1
  O  O63  1  0.37313962  0.83908788  0.57616258  1
  O  O64  1  0.47576494  0.61599961  0.57963947  1
  O  O65  1  0.14975060  0.52193681  0.57895428  1
  O  O66  1  0.32652538  0.86415120  0.25507056  1
  O  O67  1  0.53020578  0.65338686  0.25519219  1
  O  O68  1  0.12725339  0.46639672  0.25745980  1
  O  O69  1  0.33196382  0.46519651  0.75742198  1
  O  O70  1  0.12664776  0.65723485  0.75871659  1
  O  O71  1  0.51643052  0.86057123  0.75489850  1
loop_
_geom_bond_atom_site_label_1
_geom_bond_atom_site_label_2
_geom_bond_distance
_geom_bond_site_symmetry_2
Na0 O67 2.328143 1_555
Na0 O53 2.393245 1_555
Na0 O32 2.437807 1_555
Na0 O17 2.667562 1_555
Na0 O68 2.672977 1_555
Na0 O0 2.745969 1_555
Na0 O51 2.835554 1_555
Na1 O68 2.329550 1_555
Na1 O51 2.383359 1_455
Na1 O30 2.422776 1_555
Na1 O66 2.566456 1_555
Na1 O52 2.771618 1_455
Na1 O15 2.780710 1_455
Na1 O1 2.783883 1_455
Na2 O50 2.376978 1_555
Na2 O69 2.401768 1_555
Na2 O35 2.463319 1_555
Na2 O14 2.634420 1_555
Na2 O71 2.636951 1_555
Na2 O49 2.822143 1_555
Na2 O4 2.886650 1_555
Na2 O6 2.998346 1_555
Na3 O70 2.324186 1_555
Na3 O48 2.375890 1_455
Na3 O33 2.443873 1_555
Na3 O69 2.640618 1_555
Na3 O12 2.761454 1_455
Na3 O5 2.794080 1_455
Na3 O50 2.814835 1_455
Na4 O71 2.302808 1_555
Na4 O49 2.416389 1_565
Na4 O34 2.434146 1_555
Na4 O70 2.691175 1_555
Na4 O3 2.767192 1_565
Na4 O13 2.782902 1_565
Na4 O48 2.824432 1_565
Na4 O8 2.974430 1_555
Na5 O42 2.360646 1_555
Na5 O64 2.398937 1_555
Na5 O7 2.473341 1_555
Na5 O43 2.620557 1_545
Na5 O28 2.729840 1_555
Na5 O65 2.822359 1_555
Na5 O14 2.929611 1_555
Na5 O21 2.971129 1_555
Na6 O43 2.309233 1_555
Na6 O65 2.414883 1_555
Na6 O8 2.521665 1_555
Na6 O44 2.645197 1_455
Na6 O29 2.800707 1_555
Na6 O63 2.809734 1_555
Na6 O12 2.817109 1_455
Na6 O22 2.879762 1_455
Na7 O6 2.314063 1_555
Na7 O44 2.355375 1_555
Na7 O63 2.415238 1_555
Na7 O42 2.653285 1_665
Na7 O27 2.675443 1_555
Na7 O13 2.783419 1_565
Na7 O64 2.865143 1_555
Na8 O45 2.313797 1_555
Na8 O62 2.424118 1_555
Na8 O11 2.461832 1_565
Na8 O47 2.729395 1_565
Na8 O16 2.761117 1_565
Na8 O26 2.799006 1_554
Na8 O61 2.821685 1_555
Na8 O18 2.826305 1_565
Na9 O60 2.386137 1_555
Na9 O9 2.397099 1_555
Na9 O46 2.409208 1_565
Na9 O45 2.615321 1_655
Na9 O24 2.749849 1_554
Na9 O62 2.812945 1_555
Na9 O17 2.914040 1_555
Na9 O19 2.973804 1_555
Na10 O47 2.303261 1_555
Na10 O61 2.397474 1_555
Na10 O10 2.474249 1_555
Na10 O46 2.615252 1_455
Na10 O25 2.731028 1_554
Na10 O15 2.754406 1_455
Na11 O19 2.317530 1_556
Na11 O54 2.348888 1_555
Na11 O40 2.409637 1_655
Na11 O55 2.716949 1_555
Na11 O26 2.744016 1_655
Na11 O41 2.772335 1_555
Na11 O4 2.812942 1_555
Na12 O55 2.320187 1_555
Na12 O41 2.387066 1_545
Na12 O20 2.433030 1_556
Na12 O56 2.576114 1_555
Na12 O5 2.767427 1_555
Na12 O39 2.772344 1_655
Na12 O24 2.858956 1_545
Na13 O57 2.298405 1_555
Na13 O38 2.382690 1_655
Na13 O23 2.489158 1_555
Na13 O59 2.559892 1_555
Na13 O2 2.720758 1_555
Na13 O37 2.802103 1_545
Na13 O28 2.840032 1_655
Na14 O21 2.311675 1_555
Na14 O58 2.359361 1_555
Na14 O36 2.414057 1_545
Na14 O29 2.729379 1_545
Na14 O57 2.731996 1_555
Na14 O38 2.800642 1_555
Na14 O0 2.838366 1_555
Na14 O31 2.969975 1_545
Na15 O36 2.428807 1_655
Na15 O38 2.464500 1_665
Na15 O37 2.481573 1_555
Na15 O43 2.491735 1_655
Na15 O44 2.668615 1_555
Na15 O42 2.721508 1_665
Na16 O40 2.382765 1_544
Na16 O39 2.439703 1_554
Na16 O41 2.446212 1_444
Na16 O45 2.525437 1_545
Na16 O47 2.714661 1_555
Na16 O46 2.757964 1_455
Na17 O49 2.378936 1_555
Na17 O50 2.479235 1_555
Na17 O48 2.532740 1_555
Na17 O54 2.550567 1_555
Na17 O56 2.604116 1_555
Na17 O55 2.760124 1_555
Na18 O51 2.398045 1_555
Na18 O53 2.415659 1_555
Na18 O52 2.446915 1_555
Na18 O58 2.584230 1_555
Na18 O59 2.671228 1_555
Na18 O57 2.692166 1_555
Na19 O62 2.389309 1_555
Na19 O61 2.539006 1_555
Na19 O60 2.547920 1_555
Na19 O66 2.586650 1_555
Na19 O67 2.600920 1_555
Na19 O68 2.817167 1_555
Na20 O63 2.442088 1_555
Na20 O64 2.488785 1_555
Na20 O71 2.518089 1_555
Na20 O65 2.528638 1_555
Na20 O69 2.697242 1_555
Na20 O70 2.735109 1_555
Ca0 O6 2.114726 1_455
Ca0 O8 2.157844 1_555
Ca0 O7 2.162485 1_565
Ca0 O43 2.224438 1_555
Ca0 O44 2.266738 1_455
Ca0 O42 2.282484 1_565
Ca1 O11 2.148475 1_665
Ca1 O10 2.155832 1_665
Ca1 O9 2.156730 1_555
Ca1 O45 2.220873 1_655
Ca1 O46 2.246072 1_565
Ca1 O47 2.277383 1_665
Ca2 O18 2.125446 1_556
Ca2 O19 2.126979 1_556
Ca2 O20 2.186046 1_556
Ca2 O56 2.240824 1_555
Ca2 O54 2.241658 1_555
Ca2 O55 2.290731 1_555
Ca3 O22 2.106355 1_555
Ca3 O21 2.123739 1_555
Ca3 O23 2.184615 1_555
Ca3 O59 2.241369 1_555
Ca3 O58 2.246994 1_555
Ca3 O57 2.270470 1_555
Ca4 O31 2.098823 1_555
Ca4 O32 2.160885 1_555
Ca4 O30 2.171576 1_555
Ca4 O67 2.215531 1_555
Ca4 O66 2.225234 1_555
Ca4 O68 2.302749 1_555
Ca5 O35 2.137197 1_555
Ca5 O34 2.144340 1_555
Ca5 O33 2.154756 1_555
Ca5 O71 2.213653 1_555
Ca5 O69 2.250173 1_555
Ca5 O70 2.251771 1_555
Ge0 O37 1.941374 1_555
Ge0 O1 1.965381 1_555
Ge0 O36 1.998582 1_655
Ge0 O2 2.008308 1_565
Ge0 O0 2.058761 1_665
Ge0 O38 2.126940 1_665
Ge1 O5 1.882769 1_455
Ge1 O39 1.969978 1_555
Ge1 O3 1.970079 1_555
Ge1 O4 2.037355 1_445
Ge1 O40 2.050755 1_545
Ge1 O41 2.130012 1_445
Ge2 O13 1.871198 1_555
Ge2 O48 1.886422 1_555
Ge2 O12 2.047440 1_555
Ge2 O14 2.050498 1_555
Ge2 O49 2.068337 1_555
Ge2 O50 2.204707 1_555
Ge3 O15 1.894286 1_555
Ge3 O52 1.969774 1_555
Ge3 O16 1.987328 1_555
Ge3 O51 2.064410 1_555
Ge3 O17 2.067049 1_555
Ge3 O53 2.102677 1_555
Ge4 O61 1.889779 1_555
Ge4 O25 1.992320 1_554
Ge4 O24 2.022997 1_554
Ge4 O60 2.038904 1_555
Ge4 O26 2.053257 1_554
Ge4 O62 2.110118 1_555
Ge5 O63 1.884958 1_555
Ge5 O27 2.006893 1_555
Ge5 O28 2.042790 1_555
Ge5 O64 2.049737 1_555
Ge5 O29 2.066945 1_555
Ge5 O65 2.095631 1_555
O0 P0 1.624719 1_555
O1 P1 1.605242 1_555
O2 P2 1.604972 1_555
O3 P3 1.595408 1_555
O4 P4 1.608144 1_555
O5 Si0 1.731777 1_555
O6 Si0 1.576799 1_565
O7 P3 1.508794 1_555
O8 P4 1.512751 1_455
O9 P1 1.504077 1_555
O10 P2 1.505245 1_455
O11 P0 1.509363 1_555
O12 P5 1.607002 1_555
O13 Si1 1.728438 1_555
O14 P6 1.612892 1_555
O15 Si2 1.732358 1_555
O16 P7 1.600980 1_555
O17 P8 1.606725 1_555
O18 P8 1.498279 1_555
O19 Si2 1.577494 1_555
O20 P7 1.507433 1_555
O21 Si1 1.576336 1_555
O22 P6 1.495588 1_555
O23 P5 1.506710 1_555
O24 P9 1.623247 1_555
O25 P10 1.605585 1_555
O26 P11 1.620050 1_555
O27 P12 1.609547 1_555
O28 P13 1.623668 1_555
O29 P14 1.615661 1_555
O30 P14 1.506445 1_555
O31 P12 1.493492 1_555
O32 P13 1.501448 1_555
O33 P10 1.505121 1_555
O34 P11 1.506333 1_555
O35 P9 1.501857 1_555
O36 P14 1.604203 1_555
O37 P12 1.595094 1_555
O38 P13 1.609397 1_555
O39 P10 1.586172 1_555
O40 P11 1.593156 1_555
O41 P9 1.599745 1_555
O42 P5 1.525330 1_455
O43 Si1 1.605431 1_565
O44 P6 1.520568 1_555
O45 Si2 1.607981 1_455
O46 P7 1.525346 1_555
O47 P8 1.524709 1_555
O48 Si0 1.703441 1_555
O49 P3 1.588423 1_555
O50 P4 1.579746 1_555
O51 P1 1.603019 1_555
O52 P2 1.588473 1_555
O53 P0 1.589904 1_555
O54 P9 1.518031 1_555
O55 P10 1.530844 1_655
O56 P11 1.514462 1_545
O57 P12 1.530127 1_545
O58 P13 1.518229 1_555
O59 P14 1.512597 1_655
O60 P8 1.603634 1_555
O61 Si2 1.711770 1_455
O62 P7 1.595108 1_565
O63 Si1 1.706213 1_565
O64 P6 1.600919 1_555
O65 P5 1.597632 1_455
O66 P0 1.517602 1_565
O67 P1 1.519533 1_555
O68 P2 1.533289 1_455
O69 P3 1.524937 1_555
O70 P4 1.527700 1_455
O71 Si0 1.607019 1_565
