# generated using pymatgen
data_Sr2FeSnO6
_symmetry_space_group_name_H-M   'P 1'
_cell_length_a   6.85879380
_cell_length_b   6.85880667
_cell_length_c   11.84773953
_cell_angle_alpha   101.32084467
_cell_angle_beta   101.32022815
_cell_angle_gamma   108.79084514
_symmetry_Int_Tables_number   1
_chemical_formula_structural   Sr2FeSnO6
_chemical_formula_sum   'Sr8 Fe4 Sn4 O24'
_cell_volume   496.75076176
_cell_formula_units_Z   4
loop_
 _symmetry_equiv_pos_site_id
 _symmetry_equiv_pos_as_xyz
  1  'x, y, z'
loop_
 _atom_site_type_symbol
 _atom_site_label
 _atom_site_symmetry_multiplicity
 _atom_site_fract_x
 _atom_site_fract_y
 _atom_site_fract_z
 _atom_site_occupancy
  Sr  Sr0  1  0.50008123  0.50008335  0.00003955  1
  Sr  Sr1  1  0.74613303  0.74613388  0.49999303  1
  Sr  Sr2  1  0.00002326  0.00002508  0.00001946  1
  Sr  Sr3  1  0.25390935  0.25390767  0.49993880  1
  Sr  Sr4  1  0.87503219  0.37504490  0.25002056  1
  Sr  Sr5  1  0.12500372  0.62508292  0.74998346  1
  Sr  Sr6  1  0.37504762  0.87502693  0.25002086  1
  Sr  Sr7  1  0.62507085  0.12501190  0.74998322  1
  Fe  Fe0  1  0.37500344  0.37500121  0.24981142  1
  Fe  Fe1  1  0.62530530  0.62530883  0.75018853  1
  Fe  Fe2  1  0.87539182  0.87538866  0.25020242  1
  Fe  Fe3  1  0.12556127  0.12556588  0.74978884  1
  Sn  Sn0  1  0.50004839  0.00005930  0.00001115  1
  Sn  Sn1  1  0.75071819  0.24925340  0.49998928  1
  Sn  Sn2  1  0.00005867  0.50004931  0.00001116  1
  Sn  Sn3  1  0.24925529  0.75071840  0.49999009  1
  O  O0  1  0.75005376  0.24996114  0.00005201  1
  O  O1  1  0.99996952  0.49996243  0.49995828  1
  O  O2  1  0.24995332  0.75004610  0.00003899  1
  O  O3  1  0.49996646  0.99997012  0.49996183  1
  O  O4  1  0.61134368  0.61132514  0.25002990  1
  O  O5  1  0.86123009  0.86122644  0.75011496  1
  O  O6  1  0.13836428  0.13837252  0.24990010  1
  O  O7  1  0.38832231  0.38833039  0.74994931  1
  O  O8  1  0.55696695  0.31419728  0.37135686  1
  O  O9  1  0.80681100  0.56419770  0.87133448  1
  O  O10  1  0.05557920  0.81472496  0.37035320  1
  O  O11  1  0.30574697  0.06470862  0.87045883  1
  O  O12  1  0.69422288  0.93523757  0.12959476  1
  O  O13  1  0.94427056  0.18516082  0.62960031  1
  O  O14  1  0.19308034  0.43568017  0.12870149  1
  O  O15  1  0.44289530  0.68566485  0.62859987  1
  O  O16  1  0.43564862  0.19307842  0.12868575  1
  O  O17  1  0.68564194  0.44290157  0.62858680  1
  O  O18  1  0.93522362  0.69424032  0.12957876  1
  O  O19  1  0.18513949  0.94427920  0.62958803  1
  O  O20  1  0.81474656  0.05556099  0.37036747  1
  O  O21  1  0.06471473  0.30573000  0.87047147  1
  O  O22  1  0.31423914  0.55696762  0.37137795  1
  O  O23  1  0.56422564  0.80681301  0.87134678  1
loop_
_geom_bond_atom_site_label_1
_geom_bond_atom_site_label_2
_geom_bond_distance
_geom_bond_site_symmetry_2
Fe0 O4 1.886529 1_555
Fe0 O6 1.890165 1_555
Fe0 O16 1.911821 1_555
Fe0 O14 1.911844 1_555
Fe0 O8 1.915931 1_555
Fe0 O22 1.915941 1_555
Fe1 O5 1.884413 1_555
Fe1 O7 1.891627 1_555
Fe1 O23 1.912143 1_555
Fe1 O9 1.912188 1_555
Fe1 O15 1.916267 1_555
Fe1 O17 1.916271 1_555
Fe2 O20 1.897345 1_565
Fe2 O10 1.897377 1_655
Fe2 O18 1.901602 1_555
Fe2 O12 1.901637 1_555
Fe2 O6 2.101412 1_665
Fe2 O4 2.108120 1_555
Fe3 O13 1.897818 1_455
Fe3 O19 1.897820 1_545
Fe3 O21 1.902194 1_555
Fe3 O11 1.902234 1_555
Fe3 O7 2.097841 1_555
Fe3 O5 2.112346 1_445
O0 Sn0 1.996022 1_555
O0 Sn2 1.997090 1_655
O0 Sr2 2.787762 1_655
O0 Sr4 2.788142 1_555
O0 Sr0 2.788817 1_555
O0 Sr7 2.789260 1_554
O1 Sn1 1.996537 1_555
O1 Sn3 1.996612 1_655
O1 Sr4 2.787798 1_555
O1 Sr3 2.788437 1_655
O1 Sr1 2.788502 1_555
O1 Sr5 2.788774 1_655
O2 Sn2 1.996011 1_555
O2 Sn0 1.997099 1_565
O2 Sr2 2.787781 1_565
O2 Sr6 2.788291 1_555
O2 Sr0 2.788794 1_555
O2 Sr5 2.789112 1_554
O3 Sn3 1.996537 1_555
O3 Sn1 1.996602 1_565
O3 Sr6 2.787834 1_555
O3 Sr3 2.788437 1_565
O3 Sr1 2.788474 1_555
O3 Sr7 2.788731 1_565
O4 Sr1 2.789172 1_555
O4 Sr4 2.790263 1_555
O4 Sr6 2.790425 1_555
O4 Sr0 2.790560 1_555
O5 Sr2 2.789603 1_666
O5 Sr5 2.790030 1_655
O5 Sr7 2.790183 1_565
O5 Sr1 2.790999 1_555
O6 Sr2 2.789201 1_555
O6 Sr3 2.789963 1_555
O6 Sr4 2.790363 1_455
O6 Sr6 2.790500 1_545
O7 Sr3 2.789612 1_555
O7 Sr7 2.790685 1_555
O7 Sr5 2.790707 1_555
O7 Sr0 2.791533 1_556
O8 Sn1 2.034640 1_555
O8 Sr3 2.783722 1_555
O8 Sr1 2.785265 1_555
O8 Sr6 2.805559 1_545
O8 Sr4 2.807148 1_555
O9 Sn2 2.029859 1_656
O9 Sr0 2.805570 1_556
O9 Sr7 2.805688 1_555
O9 Sr2 2.807450 1_666
O9 Sr5 2.807995 1_655
O10 Sn3 2.038572 1_555
O10 Sr4 2.805970 1_455
O10 Sr6 2.806929 1_555
O10 Sr1 2.829374 1_455
O10 Sr3 2.829477 1_565
O11 Sn0 2.042896 1_556
O11 Sr5 2.806010 1_545
O11 Sr7 2.807275 1_555
O11 Sr2 2.807436 1_556
O11 Sr0 2.807714 1_556
O12 Sn0 2.043322 1_565
O12 Sr6 2.806024 1_555
O12 Sr0 2.806392 1_555
O12 Sr4 2.806921 1_565
O12 Sr2 2.808002 1_665
O13 Sn1 2.038220 1_555
O13 Sr7 2.805812 1_555
O13 Sr5 2.807473 1_655
O13 Sr1 2.828639 1_545
O13 Sr3 2.830654 1_655
O14 Sn2 2.029946 1_555
O14 Sr2 2.806465 1_555
O14 Sr6 2.806520 1_555
O14 Sr0 2.806744 1_555
O14 Sr4 2.806912 1_455
O15 Sn3 2.034456 1_555
O15 Sr3 2.784326 1_555
O15 Sr1 2.784950 1_555
O15 Sr5 2.806551 1_555
O15 Sr7 2.806682 1_565
O16 Sn0 2.029920 1_555
O16 Sr2 2.806260 1_555
O16 Sr0 2.806649 1_555
O16 Sr4 2.806774 1_555
O16 Sr6 2.807076 1_545
O17 Sn1 2.034468 1_555
O17 Sr3 2.784158 1_555
O17 Sr1 2.784823 1_555
O17 Sr7 2.806659 1_555
O17 Sr5 2.806805 1_655
O18 Sn2 2.043300 1_655
O18 Sr4 2.806281 1_555
O18 Sr0 2.806288 1_555
O18 Sr6 2.807063 1_655
O18 Sr2 2.807794 1_665
O19 Sn3 2.038227 1_555
O19 Sr5 2.805909 1_555
O19 Sr7 2.807560 1_565
O19 Sr1 2.828498 1_455
O19 Sr3 2.830509 1_565
O20 Sn1 2.038590 1_555
O20 Sr6 2.806118 1_545
O20 Sr4 2.807150 1_555
O20 Sr1 2.829164 1_545
O20 Sr3 2.829335 1_655
O21 Sn2 2.042880 1_556
O21 Sr7 2.806152 1_455
O21 Sr2 2.807238 1_556
O21 Sr5 2.807556 1_555
O21 Sr0 2.807640 1_556
O22 Sn3 2.034624 1_555
O22 Sr3 2.783571 1_555
O22 Sr1 2.784972 1_555
O22 Sr4 2.805827 1_455
O22 Sr6 2.807299 1_555
O23 Sn0 2.029858 1_566
O23 Sr0 2.805481 1_556
O23 Sr5 2.805929 1_555
O23 Sr2 2.807255 1_666
O23 Sr7 2.808146 1_565
