# generated using pymatgen
data_Mg2Sn
_symmetry_space_group_name_H-M   'P 1'
_cell_length_a   4.78025919
_cell_length_b   4.78025903
_cell_length_c   4.78026042
_cell_angle_alpha   59.99999035
_cell_angle_beta   59.99999149
_cell_angle_gamma   59.99998919
_symmetry_Int_Tables_number   1
_chemical_formula_structural   Mg2Sn
_chemical_formula_sum   'Mg2 Sn1'
_cell_volume   77.23947961
_cell_formula_units_Z   1
loop_
 _symmetry_equiv_pos_site_id
 _symmetry_equiv_pos_as_xyz
  1  'x, y, z'
loop_
 _atom_site_type_symbol
 _atom_site_label
 _atom_site_symmetry_multiplicity
 _atom_site_fract_x
 _atom_site_fract_y
 _atom_site_fract_z
 _atom_site_occupancy
  Mg  Mg0  1  0.25000000  0.25000000  0.25000000  1
  Mg  Mg1  1  0.75000000  0.75000000  0.75000000  1
  Sn  Sn0  1  -0.00000000  -0.00000000  -0.00000000  1
loop_
_geom_bond_atom_site_label_1
_geom_bond_atom_site_label_2
_geom_bond_distance
_geom_bond_site_symmetry_2
Mg0 Sn0 2.927298 1_565
Mg0 Sn0 2.927299 1_655
Mg0 Sn0 2.927299 1_555
Mg0 Sn0 2.927299 1_556
Mg1 Sn0 2.927298 1_656
Mg1 Sn0 2.927299 1_566
Mg1 Sn0 2.927299 1_665
Mg1 Sn0 2.927299 1_666
