# generated using pymatgen
data_K2MgNb2(CuS2)4
_symmetry_space_group_name_H-M   'P 1'
_cell_length_a   5.74639353
_cell_length_b   7.56516600
_cell_length_c   9.68070850
_cell_angle_alpha   90.00000000
_cell_angle_beta   102.96773186
_cell_angle_gamma   90.00000000
_symmetry_Int_Tables_number   1
_chemical_formula_structural   K2MgNb2(CuS2)4
_chemical_formula_sum   'K2 Mg1 Nb2 Cu4 S8'
_cell_volume   410.11088635
_cell_formula_units_Z   1
loop_
 _symmetry_equiv_pos_site_id
 _symmetry_equiv_pos_as_xyz
  1  'x, y, z'
loop_
 _atom_site_type_symbol
 _atom_site_label
 _atom_site_symmetry_multiplicity
 _atom_site_fract_x
 _atom_site_fract_y
 _atom_site_fract_z
 _atom_site_occupancy
  K  K0  1  0.45896000  0.75000000  0.58646800  1
  K  K1  1  0.91221000  0.25000000  0.34280000  1
  Mg  Mg0  1  0.13330700  0.75000000  0.94449100  1
  Nb  Nb0  1  0.55803700  0.75000000  0.20821500  1
  Nb  Nb1  1  0.41348600  0.25000000  0.77371600  1
  Cu  Cu0  1  0.48242600  0.49500300  0.99508600  1
  Cu  Cu1  1  0.48242600  0.00499700  0.99508600  1
  Cu  Cu2  1  0.07006300  0.75000000  0.21578300  1
  Cu  Cu3  1  0.91311500  0.25000000  0.78732900  1
  S  S0  1  0.73835900  0.75000000  0.00334100  1
  S  S1  1  0.72190600  0.25000000  0.98418800  1
  S  S2  1  0.89089900  0.75000000  0.40067800  1
  S  S3  1  0.59713500  0.25000000  0.58708900  1
  S  S4  1  0.16494100  0.49710900  0.78421300  1
  S  S5  1  0.31832300  0.50195800  0.20642900  1
  S  S6  1  0.16494100  0.00289100  0.78421300  1
  S  S7  1  0.31832300  0.99804200  0.20642900  1
loop_
_geom_bond_atom_site_label_1
_geom_bond_atom_site_label_2
_geom_bond_distance
_geom_bond_site_symmetry_2
K0 S2 3.354933 1_455
K0 S2 3.376275 1_555
K0 S6 3.410416 1_565
K0 S4 3.410416 1_555
K1 S3 3.285186 1_555
K1 S1 3.397669 1_554
K1 S7 3.493546 1_645
K1 S5 3.493546 1_655
Mg0 S0 2.460815 1_456
Mg0 S6 2.495456 1_565
Mg0 S4 2.495456 1_555
Nb0 S7 2.325568 1_555
Nb0 S5 2.325568 1_555
Nb0 S2 2.351726 1_555
Nb0 S0 2.435086 1_555
Nb1 S3 2.287684 1_555
Nb1 S4 2.368556 1_555
Nb1 S6 2.368556 1_555
Nb1 S1 2.381567 1_555
Cu0 S1 2.324970 1_555
Cu0 S4 2.413398 1_555
Cu0 S0 2.416191 1_556
Cu0 S5 2.437996 1_556
Cu0 Mg0 2.746824 1_555
Cu0 Nb0 2.786541 1_556
Cu0 Nb1 2.793540 1_555
Cu1 S1 2.324970 1_555
Cu1 S6 2.413398 1_555
Cu1 S0 2.416191 1_546
Cu1 S7 2.437996 1_546
Cu1 Mg0 2.746824 1_545
Cu1 Nb0 2.786541 1_546
Cu1 Nb1 2.793540 1_555
Cu2 S2 2.256284 1_455
Cu2 S5 2.371189 1_555
Cu2 S7 2.371189 1_555
Cu2 S0 2.470514 1_455
Cu2 Mg0 2.730914 1_554
Cu3 S3 2.339849 1_555
Cu3 S4 2.368398 1_655
Cu3 S6 2.368398 1_655
Cu3 S1 2.403929 1_555
