# generated using pymatgen
data_CsAlCl4
_symmetry_space_group_name_H-M   'P 1'
_cell_length_a   7.10798928
_cell_length_b   9.44371303
_cell_length_c   11.72181052
_cell_angle_alpha   90.00000000
_cell_angle_beta   90.00000000
_cell_angle_gamma   90.00000000
_symmetry_Int_Tables_number   1
_chemical_formula_structural   CsAlCl4
_chemical_formula_sum   'Cs4 Al4 Cl16'
_cell_volume   786.83603732
_cell_formula_units_Z   4
loop_
 _symmetry_equiv_pos_site_id
 _symmetry_equiv_pos_as_xyz
  1  'x, y, z'
loop_
 _atom_site_type_symbol
 _atom_site_label
 _atom_site_symmetry_multiplicity
 _atom_site_fract_x
 _atom_site_fract_y
 _atom_site_fract_z
 _atom_site_occupancy
  Cs  Cs0  1  0.25000000  0.16449757  0.67981339  1
  Cs  Cs1  1  0.75000000  0.83550243  0.32018661  1
  Cs  Cs2  1  0.75000000  0.66449757  0.82018661  1
  Cs  Cs3  1  0.25000000  0.33550243  0.17981339  1
  Al  Al0  1  0.25000000  0.69418685  0.57143925  1
  Al  Al1  1  0.75000000  0.30581315  0.42856075  1
  Al  Al2  1  0.75000000  0.19418685  0.92856075  1
  Al  Al3  1  0.25000000  0.80581315  0.07143925  1
  Cl  Cl0  1  0.25000000  0.54936232  0.71186677  1
  Cl  Cl1  1  0.75000000  0.45063768  0.28813323  1
  Cl  Cl2  1  0.75000000  0.04936232  0.78813323  1
  Cl  Cl3  1  0.25000000  0.95063768  0.21186677  1
  Cl  Cl4  1  0.25000000  0.58967624  0.40984295  1
  Cl  Cl5  1  0.75000000  0.41032376  0.59015705  1
  Cl  Cl6  1  0.75000000  0.08967624  0.09015705  1
  Cl  Cl7  1  0.25000000  0.91032376  0.90984295  1
  Cl  Cl8  1  0.00660665  0.82803809  0.58546312  1
  Cl  Cl9  1  0.50660665  0.17196191  0.41453688  1
  Cl  Cl10  1  0.99339335  0.32803809  0.91453688  1
  Cl  Cl11  1  0.49339335  0.67196191  0.08546312  1
  Cl  Cl12  1  0.99339335  0.17196191  0.41453688  1
  Cl  Cl13  1  0.49339335  0.82803809  0.58546312  1
  Cl  Cl14  1  0.00660665  0.67196191  0.08546312  1
  Cl  Cl15  1  0.50660665  0.32803809  0.91453688  1
loop_
_geom_bond_atom_site_label_1
_geom_bond_atom_site_label_2
_geom_bond_distance
_geom_bond_site_symmetry_2
Al0 Cl4 2.135908 1_555
Al0 Cl0 2.140112 1_555
Al0 Cl13 2.148926 1_555
Al0 Cl8 2.148926 1_555
Al1 Cl5 2.135908 1_555
Al1 Cl1 2.140112 1_555
Al1 Cl12 2.148926 1_555
Al1 Cl9 2.148926 1_555
Al2 Cl6 2.135908 1_556
Al2 Cl2 2.140112 1_555
Al2 Cl15 2.148926 1_555
Al2 Cl10 2.148926 1_555
Al3 Cl7 2.135908 1_554
Al3 Cl3 2.140112 1_555
Al3 Cl14 2.148926 1_555
Al3 Cl11 2.148926 1_555
Cl0 Cs0 3.653921 1_555
Cl0 Cs2 3.927500 1_555
Cl0 Cs2 3.927500 1_455
Cl1 Cs1 3.653921 1_555
Cl1 Cs3 3.927500 1_655
Cl1 Cs3 3.927500 1_555
Cl2 Cs2 3.653921 1_545
Cl2 Cs0 3.927500 1_555
Cl2 Cs0 3.927500 1_655
Cl3 Cs3 3.653921 1_565
Cl3 Cs1 3.927500 1_455
Cl3 Cs1 3.927500 1_555
Cl4 Cs3 3.609990 1_555
Cl5 Cs2 3.609990 1_555
Cl6 Cs1 3.609990 1_545
Cl7 Cs0 3.609990 1_565
Cl8 Cs1 3.605677 1_455
Cl8 Cs2 3.644475 1_455
Cl8 Cs0 3.783148 1_565
Cl9 Cs0 3.605677 1_555
Cl9 Cs3 3.644475 1_555
Cl9 Cs1 3.783148 1_545
Cl10 Cs3 3.605677 1_656
Cl10 Cs0 3.644475 1_655
Cl10 Cs2 3.783148 1_555
Cl11 Cs2 3.605677 1_554
Cl11 Cs1 3.644475 1_555
Cl11 Cs3 3.783148 1_555
Cl12 Cs0 3.605677 1_655
Cl12 Cs3 3.644475 1_655
Cl12 Cs1 3.783148 1_545
Cl13 Cs1 3.605677 1_555
Cl13 Cs2 3.644475 1_555
Cl13 Cs0 3.783148 1_565
Cl14 Cs2 3.605677 1_454
Cl14 Cs1 3.644475 1_455
Cl14 Cs3 3.783148 1_555
Cl15 Cs3 3.605677 1_556
Cl15 Cs0 3.644475 1_555
Cl15 Cs2 3.783148 1_555
