# generated using pymatgen
data_Na3Ca3In(SO4)6
_symmetry_space_group_name_H-M   'P 1'
_cell_length_a   9.14615861
_cell_length_b   9.15140866
_cell_length_c   24.03998589
_cell_angle_alpha   89.90504721
_cell_angle_beta   90.22938277
_cell_angle_gamma   120.18151742
_symmetry_Int_Tables_number   1
_chemical_formula_structural   Na3Ca3In(SO4)6
_chemical_formula_sum   'Na9 Ca9 In3 S18 O72'
_cell_volume   1739.36500267
_cell_formula_units_Z   3
loop_
 _symmetry_equiv_pos_site_id
 _symmetry_equiv_pos_as_xyz
  1  'x, y, z'
loop_
 _atom_site_type_symbol
 _atom_site_label
 _atom_site_symmetry_multiplicity
 _atom_site_fract_x
 _atom_site_fract_y
 _atom_site_fract_z
 _atom_site_occupancy
  Na  Na0  1  0.63843113  0.99933644  0.24864474  1
  Na  Na1  1  0.36063918  0.36030131  0.24837828  1
  Na  Na2  1  0.03432430  0.69949968  0.58719277  1
  Na  Na3  1  0.99929715  0.01709674  0.49983705  1
  Na  Na4  1  0.99986106  0.99896701  0.99764651  1
  Na  Na5  1  0.66587839  0.33240709  0.83200301  1
  Na  Na6  1  0.68507888  0.35098315  0.34143145  1
  Na  Na7  1  0.31366776  0.66562583  0.15385533  1
  Na  Na8  1  0.35212252  0.66565496  0.67639508  1
  Ca  Ca0  1  0.00035213  0.99240856  0.35325389  1
  Ca  Ca1  1  0.00007222  0.99889990  0.84967387  1
  Ca  Ca2  1  0.99884143  0.01065058  0.65579111  1
  Ca  Ca3  1  0.99943796  0.99344628  0.14473189  1
  Ca  Ca4  1  0.66035359  0.32643313  0.68740318  1
  Ca  Ca5  1  0.67587751  0.34251698  0.17893715  1
  Ca  Ca6  1  0.33580738  0.66680959  0.01515730  1
  Ca  Ca7  1  0.34226386  0.66605379  0.51447321  1
  Ca  Ca8  1  0.32353916  0.66634498  0.32563231  1
  In  In0  1  0.66615065  0.33264639  0.98228490  1
  In  In1  1  0.65870371  0.32620305  0.48580022  1
  In  In2  1  0.33211955  0.66675424  0.82178601  1
  S  S0  1  0.30572508  0.00270500  0.24974600  1
  S  S1  1  0.69241849  0.69803135  0.25095697  1
  S  S2  1  0.00125965  0.29530590  0.25039003  1
  S  S3  1  0.30376568  0.31709974  0.75381031  1
  S  S4  1  0.01308055  0.69710969  0.75028497  1
  S  S5  1  0.68356991  0.98679066  0.75359157  1
  S  S6  1  0.95796318  0.33373610  0.58034244  1
  S  S7  1  0.36366282  0.03392708  0.58087721  1
  S  S8  1  0.67401429  0.62797519  0.58173514  1
  S  S9  1  0.96451603  0.63122630  0.07890821  1
  S  S10  1  0.66660087  0.03731515  0.08283454  1
  S  S11  1  0.37024774  0.33336890  0.08244812  1
  S  S12  1  0.62838035  0.65486909  0.91710545  1
  S  S13  1  0.02665480  0.37144297  0.91693954  1
  S  S14  1  0.34482279  0.97267818  0.91710781  1
  S  S15  1  0.64051343  0.98554526  0.41664092  1
  S  S16  1  0.34445863  0.35980356  0.41658551  1
  S  S17  1  0.01424639  0.65482721  0.42286855  1
  O  O0  1  0.22140470  0.01870396  0.29982930  1
  O  O1  1  0.79126311  0.77890194  0.30167380  1
  O  O2  1  0.98157927  0.19231980  0.30045143  1
  O  O3  1  0.21536411  0.21496937  0.80254197  1
  O  O4  1  0.00042747  0.79225603  0.79724656  1
  O  O5  1  0.78596044  0.00113768  0.80247591  1
  O  O6  1  0.75948578  0.96773456  0.70153411  1
  O  O7  1  0.20811702  0.24082113  0.70162904  1
  O  O8  1  0.03086854  0.78685179  0.69639331  1
  O  O9  1  0.77700963  0.79845324  0.20106188  1
  O  O10  1  0.02032112  0.21256772  0.20035199  1
  O  O11  1  0.20816901  0.98674500  0.19920667  1
  O  O12  1  0.87099187  0.34975350  0.62916415  1
  O  O13  1  0.46373260  0.12005428  0.63007604  1
  O  O14  1  0.65863935  0.52793121  0.63120787  1
  O  O15  1  0.88417782  0.54006296  0.13082088  1
  O  O16  1  0.65766372  0.11367986  0.13652379  1
  O  O17  1  0.45580204  0.34242133  0.13626399  1
  O  O18  1  0.46902313  0.32455210  0.03454230  1
  O  O19  1  0.86178309  0.53888153  0.02904707  1
  O  O20  1  0.67644462  0.14530295  0.03469757  1
  O  O21  1  0.44502216  0.13035468  0.52857233  1
  O  O22  1  0.69230875  0.54409794  0.53023384  1
  O  O23  1  0.85811205  0.31355321  0.52814597  1
  O  O24  1  0.54569554  0.67055657  0.96681959  1
  O  O25  1  0.12596554  0.45501790  0.96672244  1
  O  O26  1  0.32989178  0.87432563  0.96686646  1
  O  O27  1  0.54506593  0.87876313  0.46388527  1
  O  O28  1  0.33292601  0.45438906  0.46399003  1
  O  O29  1  0.11085001  0.66742647  0.47366624  1
  O  O30  1  0.09713780  0.63732921  0.37248129  1
  O  O31  1  0.55073808  0.91209888  0.36305606  1
  O  O32  1  0.36146741  0.44983108  0.36311742  1
  O  O33  1  0.10818664  0.47463332  0.86561753  1
  O  O34  1  0.36595152  0.89183402  0.86570725  1
  O  O35  1  0.52547370  0.63394295  0.86573551  1
  O  O36  1  0.99382830  0.80515081  0.41911436  1
  O  O37  1  0.81268749  0.00817045  0.41638367  1
  O  O38  1  0.19415621  0.18784203  0.41611064  1
  O  O39  1  0.00485944  0.20091551  0.91211888  1
  O  O40  1  0.19591541  0.99414497  0.91222428  1
  O  O41  1  0.79967666  0.80387961  0.91258723  1
  O  O42  1  0.98187569  0.18565295  0.58346440  1
  O  O43  1  0.19068853  0.01303541  0.58309115  1
  O  O44  1  0.83467555  0.79554852  0.58423534  1
  O  O45  1  0.97927156  0.80008909  0.07866810  1
  O  O46  1  0.82069445  0.02265594  0.08129614  1
  O  O47  1  0.20081801  0.17898247  0.08059475  1
  O  O48  1  0.66099780  0.13621952  0.75062562  1
  O  O49  1  0.47616757  0.34008258  0.75099678  1
  O  O50  1  0.86287726  0.52459554  0.74908705  1
  O  O51  1  0.66233550  0.52190185  0.24759974  1
  O  O52  1  0.84573150  0.30946730  0.24655122  1
  O  O53  1  0.47745792  0.16148995  0.24717184  1
  O  O54  1  0.64093377  0.49632891  0.92005871  1
  O  O55  1  0.85472923  0.35745897  0.91961763  1
  O  O56  1  0.50351091  0.14496172  0.92000341  1
  O  O57  1  0.65426595  0.15646657  0.42097369  1
  O  O58  1  0.50179298  0.34643525  0.42117626  1
  O  O59  1  0.84180519  0.49823925  0.42419683  1
  O  O60  1  0.35560814  0.48717241  0.07897801  1
  O  O61  1  0.13408972  0.64798753  0.07673133  1
  O  O62  1  0.51227765  0.86852549  0.07927143  1
  O  O63  1  0.34236133  0.86126788  0.57740130  1
  O  O64  1  0.52586593  0.65054965  0.57704558  1
  O  O65  1  0.12436889  0.49430152  0.57639420  1
  O  O66  1  0.33466413  0.85614898  0.25385129  1
  O  O67  1  0.52150736  0.68554070  0.25438982  1
  O  O68  1  0.15697037  0.46549811  0.25491599  1
  O  O69  1  0.31910010  0.48952168  0.75782876  1
  O  O70  1  0.17065847  0.68353422  0.75609583  1
  O  O71  1  0.51100048  0.82911659  0.75764237  1
loop_
_geom_bond_atom_site_label_1
_geom_bond_atom_site_label_2
_geom_bond_distance
_geom_bond_site_symmetry_2
Na0 O66 2.406943 1_555
Na0 O52 2.498408 1_565
Na0 O67 2.514212 1_555
Na0 O53 2.562635 1_565
Na0 O16 2.863631 1_565
Na0 O31 2.865687 1_555
Na0 O9 2.942097 1_555
Na0 O2 2.987143 1_565
Na1 O51 2.387195 1_555
Na1 O68 2.495485 1_555
Na1 O53 2.531334 1_555
Na1 O67 2.577032 1_555
Na1 O17 2.865661 1_555
Na1 O32 2.877638 1_555
Na1 O10 2.931602 1_555
Na1 O0 2.986816 1_555
Na2 O44 2.392614 1_455
Na2 O65 2.414603 1_555
Na2 O63 2.448461 1_555
Na2 O43 2.482352 1_565
Na2 O8 2.750386 1_555
Na2 O29 2.872098 1_555
Na3 O42 2.589684 1_555
Na3 O37 2.603374 1_555
Na3 O38 2.624382 1_655
Na3 O43 2.666167 1_655
Na3 O44 2.726838 1_545
Na3 O36 2.728468 1_545
Na4 O45 2.605426 1_556
Na4 O47 2.646788 1_666
Na4 O46 2.676037 1_566
Na4 O41 2.723301 1_555
Na4 O40 2.746584 1_655
Na4 O39 2.747416 1_665
Na5 O49 2.627347 1_555
Na5 O48 2.642525 1_555
Na5 O55 2.654544 1_555
Na5 O56 2.659906 1_555
Na5 O54 2.672452 1_555
Na5 O50 2.672792 1_555
Na6 O59 2.423502 1_555
Na6 O57 2.528494 1_555
Na6 O58 2.538183 1_555
Na6 O51 2.808872 1_555
Na6 O52 2.845516 1_555
Na6 O53 2.900936 1_555
Na7 O61 2.423071 1_555
Na7 O62 2.566311 1_555
Na7 O60 2.588338 1_555
Na7 O66 2.920469 1_555
Na7 O68 2.946967 1_555
Na7 O67 3.017325 1_555
Na8 O71 2.442444 1_555
Na8 O69 2.454906 1_555
Na8 O70 2.598461 1_555
Na8 O64 2.915634 1_555
Na8 O63 3.003484 1_555
Na8 O65 3.043926 1_555
Ca0 O1 2.290062 1_455
Ca0 O2 2.300900 1_465
Ca0 O0 2.307722 1_565
Ca0 O36 2.309973 1_455
Ca0 O38 2.328937 1_565
Ca0 O37 2.353852 1_465
Ca1 O5 2.268308 1_465
Ca1 O3 2.273001 1_565
Ca1 O4 2.275698 1_555
Ca1 O40 2.351185 1_555
Ca1 O41 2.357160 1_455
Ca1 O39 2.366543 1_565
Ca2 O7 2.291665 1_655
Ca2 O6 2.304208 1_545
Ca2 O8 2.414010 1_645
Ca2 O42 2.418804 1_555
Ca2 O44 2.471269 1_545
Ca2 O43 2.473807 1_655
Ca3 O45 2.316509 1_555
Ca3 O11 2.336834 1_655
Ca3 O10 2.338199 1_665
Ca3 O46 2.342599 1_565
Ca3 O9 2.349601 1_555
Ca3 O47 2.349951 1_665
Ca4 O14 2.290462 1_555
Ca4 O13 2.296525 1_555
Ca4 O12 2.307478 1_555
Ca4 O48 2.311194 1_555
Ca4 O49 2.328839 1_555
Ca4 O50 2.351181 1_555
Ca5 O15 2.187113 1_555
Ca5 O17 2.255136 1_555
Ca5 O16 2.260069 1_555
Ca5 O52 2.365909 1_555
Ca5 O51 2.376966 1_555
Ca5 O53 2.391775 1_555
Ca6 O24 2.233424 1_554
Ca6 O25 2.246149 1_554
Ca6 O26 2.247796 1_554
Ca6 O61 2.307830 1_555
Ca6 O60 2.319051 1_555
Ca6 O62 2.319927 1_555
Ca7 O28 2.252302 1_555
Ca7 O27 2.255763 1_555
Ca7 O64 2.306814 1_555
Ca7 O29 2.335029 1_555
Ca7 O63 2.342521 1_555
Ca7 O65 2.350412 1_555
Ca8 O30 2.256453 1_555
Ca8 O31 2.340547 1_555
Ca8 O32 2.353946 1_555
Ca8 O68 2.400721 1_555
Ca8 O66 2.412248 1_555
Ca8 O67 2.438556 1_555
In0 O19 2.150061 1_556
In0 O20 2.165645 1_556
In0 O18 2.172073 1_556
In0 O56 2.196884 1_555
In0 O54 2.207244 1_555
In0 O55 2.218530 1_555
In1 O23 2.138472 1_555
In1 O21 2.139419 1_555
In1 O22 2.144735 1_555
In1 O58 2.180779 1_555
In1 O57 2.187990 1_555
In1 O59 2.199431 1_555
In2 O33 2.187862 1_555
In2 O34 2.194788 1_555
In2 O69 2.195777 1_555
In2 O71 2.197863 1_555
In2 O35 2.202673 1_555
In2 O70 2.215118 1_555
O0 S0 1.478976 1_555
O1 S1 1.474102 1_555
O2 S2 1.482025 1_655
O3 S3 1.464183 1_555
O4 S4 1.466873 1_555
O5 S5 1.464018 1_545
O6 S5 1.485968 1_555
O7 S3 1.485361 1_555
O8 S4 1.497740 1_555
O9 S1 1.473350 1_555
O10 S2 1.479233 1_555
O11 S0 1.467814 1_565
O12 S6 1.468681 1_555
O13 S7 1.458381 1_555
O14 S8 1.463135 1_555
O15 S9 1.476785 1_555
O16 S10 1.490709 1_555
O17 S11 1.489958 1_555
O18 S11 1.493623 1_555
O19 S9 1.493239 1_555
O20 S10 1.493803 1_555
O21 S7 1.502357 1_555
O22 S8 1.511297 1_555
O23 S6 1.504880 1_555
O24 S12 1.462129 1_555
O25 S13 1.462222 1_555
O26 S14 1.460755 1_555
O27 S15 1.467468 1_555
O28 S16 1.468027 1_555
O29 S17 1.474660 1_555
O30 S17 1.482480 1_555
O31 S15 1.491597 1_555
O32 S16 1.491435 1_555
O33 S13 1.505161 1_555
O34 S14 1.503422 1_555
O35 S12 1.502610 1_555
O36 S17 1.480966 1_655
O37 S15 1.481527 1_545
O38 S16 1.480250 1_555
O39 S13 1.475180 1_555
O40 S14 1.474752 1_555
O41 S12 1.476018 1_555
O42 S6 1.479017 1_555
O43 S7 1.496256 1_555
O44 S8 1.499463 1_555
O45 S9 1.482086 1_555
O46 S10 1.481962 1_555
O47 S11 1.482480 1_555
O48 S5 1.483624 1_545
O49 S3 1.484083 1_555
O50 S4 1.483118 1_655
O51 S1 1.494844 1_555
O52 S2 1.494338 1_655
O53 S0 1.512618 1_555
O54 S12 1.513382 1_555
O55 S13 1.513802 1_655
O56 S14 1.515207 1_545
O57 S15 1.508612 1_545
O58 S16 1.507838 1_555
O59 S17 1.506572 1_655
O60 S11 1.481557 1_555
O61 S9 1.480921 1_455
O62 S10 1.480822 1_565
O63 S7 1.494107 1_565
O64 S8 1.473615 1_555
O65 S6 1.495525 1_455
O66 S0 1.494953 1_565
O67 S1 1.511539 1_555
O68 S2 1.494958 1_555
O69 S3 1.515475 1_555
O70 S4 1.513428 1_555
O71 S5 1.514450 1_555
