# generated using pymatgen
data_U2Co2Sn
_symmetry_space_group_name_H-M   'P 1'
_cell_length_a   7.35524000
_cell_length_b   7.35524000
_cell_length_c   3.38660700
_cell_angle_alpha   90.00000000
_cell_angle_beta   90.00000000
_cell_angle_gamma   90.00000000
_symmetry_Int_Tables_number   1
_chemical_formula_structural   U2Co2Sn
_chemical_formula_sum   'U4 Co4 Sn2'
_cell_volume   183.21393321
_cell_formula_units_Z   2
loop_
 _symmetry_equiv_pos_site_id
 _symmetry_equiv_pos_as_xyz
  1  'x, y, z'
loop_
 _atom_site_type_symbol
 _atom_site_label
 _atom_site_symmetry_multiplicity
 _atom_site_fract_x
 _atom_site_fract_y
 _atom_site_fract_z
 _atom_site_occupancy
  U  U0  1  0.33465300  0.83465300  0.50000000  1
  U  U1  1  0.83465300  0.66534700  0.50000000  1
  U  U2  1  0.16534700  0.33465300  0.50000000  1
  U  U3  1  0.66534700  0.16534700  0.50000000  1
  Co  Co0  1  0.36534600  0.13465400  0.00000000  1
  Co  Co1  1  0.86534600  0.36534600  0.00000000  1
  Co  Co2  1  0.13465400  0.63465400  0.00000000  1
  Co  Co3  1  0.63465400  0.86534600  0.00000000  1
  Sn  Sn0  1  0.00000000  0.00000000  0.00000000  1
  Sn  Sn1  1  0.50000000  0.50000000  0.00000000  1
loop_
_geom_bond_atom_site_label_1
_geom_bond_atom_site_label_2
_geom_bond_distance
_geom_bond_site_symmetry_2
Co0 U2 2.682387 1_554
Co0 U2 2.682387 1_555
Co0 U3 2.790562 1_555
Co0 U0 2.790562 1_545
Co0 U0 2.790562 1_544
Co0 U3 2.790562 1_554
Co0 Co3 2.801310 1_545
Co0 Sn1 2.863914 1_555
Co0 Sn0 2.863914 1_555
Co1 U3 2.682387 1_554
Co1 U3 2.682387 1_555
Co1 U2 2.790562 1_654
Co1 U2 2.790562 1_655
Co1 U1 2.790562 1_555
Co1 U1 2.790562 1_554
Co1 Co2 2.801310 1_655
Co1 Sn1 2.863914 1_555
Co1 Sn0 2.863914 1_655
Co2 U0 2.682387 1_555
Co2 U0 2.682387 1_554
Co2 U2 2.790562 1_555
Co2 U2 2.790562 1_554
Co2 U1 2.790562 1_454
Co2 U1 2.790562 1_455
Co2 Sn1 2.863914 1_555
Co2 Sn0 2.863914 1_565
Co3 U1 2.682387 1_555
Co3 U1 2.682387 1_554
Co3 U0 2.790562 1_555
Co3 U0 2.790562 1_554
Co3 U3 2.790562 1_565
Co3 U3 2.790562 1_564
Co3 Sn1 2.863914 1_555
Co3 Sn0 2.863914 1_665
Sn0 U2 3.225692 1_554
Sn0 U3 3.225692 1_454
Sn0 U0 3.225692 1_545
Sn0 U0 3.225692 1_544
Sn0 U1 3.225692 1_444
Sn0 U3 3.225692 1_455
Sn0 U1 3.225692 1_445
Sn0 U2 3.225692 1_555
Sn1 U2 3.225692 1_554
Sn1 U1 3.225692 1_554
Sn1 U0 3.225692 1_555
Sn1 U1 3.225692 1_555
Sn1 U0 3.225692 1_554
Sn1 U3 3.225692 1_555
Sn1 U3 3.225692 1_554
Sn1 U2 3.225692 1_555
