# generated using pymatgen
data_Li3Mo(PO4)2
_symmetry_space_group_name_H-M   'P 1'
_cell_length_a   18.30686700
_cell_length_b   5.04573300
_cell_length_c   6.34179130
_cell_angle_alpha   87.47643356
_cell_angle_beta   90.00000000
_cell_angle_gamma   90.00000000
_symmetry_Int_Tables_number   1
_chemical_formula_structural   Li3Mo(PO4)2
_chemical_formula_sum   'Li12 Mo4 P8 O32'
_cell_volume   585.23306145
_cell_formula_units_Z   4
loop_
 _symmetry_equiv_pos_site_id
 _symmetry_equiv_pos_as_xyz
  1  'x, y, z'
loop_
 _atom_site_type_symbol
 _atom_site_label
 _atom_site_symmetry_multiplicity
 _atom_site_fract_x
 _atom_site_fract_y
 _atom_site_fract_z
 _atom_site_occupancy
  Li  Li0  1  0.29943900  0.18636200  0.18607600  1
  Li  Li1  1  0.11624500  0.22074300  0.50065700  1
  Li  Li2  1  0.61624500  0.27925700  0.99934300  1
  Li  Li3  1  0.44425600  0.21061300  0.78613300  1
  Li  Li4  1  0.94425600  0.28938700  0.71386700  1
  Li  Li5  1  0.79943900  0.31363800  0.31392400  1
  Li  Li6  1  0.20056100  0.68636200  0.68607600  1
  Li  Li7  1  0.05574400  0.71061300  0.28613300  1
  Li  Li8  1  0.55574400  0.78938700  0.21386700  1
  Li  Li9  1  0.38375500  0.72074300  0.00065700  1
  Li  Li10  1  0.88375500  0.77925700  0.49934300  1
  Li  Li11  1  0.70056100  0.81363800  0.81392400  1
  Mo  Mo0  1  0.12664900  0.19507300  0.98295100  1
  Mo  Mo1  1  0.62664900  0.30492700  0.51704900  1
  Mo  Mo2  1  0.37335100  0.69507300  0.48295100  1
  Mo  Mo3  1  0.87335100  0.80492700  0.01704900  1
  P  P0  1  0.71533800  0.82699900  0.29270900  1
  P  P1  1  0.53552000  0.78187300  0.73320200  1
  P  P2  1  0.03552000  0.71812700  0.76679800  1
  P  P3  1  0.21533800  0.67300100  0.20729100  1
  P  P4  1  0.28466200  0.17300100  0.70729100  1
  P  P5  1  0.46448000  0.21812700  0.26679800  1
  P  P6  1  0.96448000  0.28187300  0.23320200  1
  P  P7  1  0.78466200  0.32699900  0.79270900  1
  O  O0  1  0.20162600  0.97907800  0.18194900  1
  O  O1  1  0.69165900  0.96050800  0.49936500  1
  O  O2  1  0.67326400  0.94279300  0.10273900  1
  O  O3  1  0.44140700  0.91633900  0.26230100  1
  O  O4  1  0.79837400  0.02092200  0.81805100  1
  O  O5  1  0.30834100  0.03949200  0.50063500  1
  O  O6  1  0.32673600  0.05720700  0.89726100  1
  O  O7  1  0.55859300  0.08366100  0.73769900  1
  O  O8  1  0.93485300  0.13405200  0.42852300  1
  O  O9  1  0.20010100  0.11407000  0.72809700  1
  O  O10  1  0.93617600  0.15949100  0.02758500  1
  O  O11  1  0.55065700  0.21076300  0.26787000  1
  O  O12  1  0.05065700  0.28923700  0.23213000  1
  O  O13  1  0.43617600  0.34050900  0.47241500  1
  O  O14  1  0.43485300  0.36594800  0.07147700  1
  O  O15  1  0.70010100  0.38593000  0.77190300  1
  O  O16  1  0.05859300  0.41633900  0.76230100  1
  O  O17  1  0.82673600  0.44279300  0.60273900  1
  O  O18  1  0.80834100  0.46050800  0.99936500  1
  O  O19  1  0.29837400  0.47907800  0.68194900  1
  O  O20  1  0.70162600  0.52092200  0.31805100  1
  O  O21  1  0.19165900  0.53949200  0.00063500  1
  O  O22  1  0.17326400  0.55720700  0.39726100  1
  O  O23  1  0.94140700  0.58366100  0.23769900  1
  O  O24  1  0.29989900  0.61407000  0.22809700  1
  O  O25  1  0.56514700  0.63405200  0.92852300  1
  O  O26  1  0.56382400  0.65949100  0.52758500  1
  O  O27  1  0.94934300  0.71076300  0.76787000  1
  O  O28  1  0.44934300  0.78923700  0.73213000  1
  O  O29  1  0.06382400  0.84050900  0.97241500  1
  O  O30  1  0.79989900  0.88593000  0.27190300  1
  O  O31  1  0.06514700  0.86594800  0.57147700  1
loop_
_geom_bond_atom_site_label_1
_geom_bond_atom_site_label_2
_geom_bond_distance
_geom_bond_site_symmetry_2
Li0 O6 2.033297 1_554
Li0 O0 2.074470 1_545
Li0 O5 2.103581 1_555
Li0 O24 2.186122 1_555
Li1 O31 2.052020 1_545
Li1 O22 2.074547 1_555
Li1 O12 2.099841 1_555
Li1 O9 2.158344 1_555
Li1 O16 2.232802 1_555
Li2 O25 2.052020 1_555
Li2 O2 2.074547 1_546
Li2 O11 2.099841 1_556
Li2 O15 2.158344 1_555
Li2 O7 2.232802 1_555
Li3 O14 2.010836 1_556
Li3 O13 2.072407 1_555
Li3 O28 2.170392 1_545
Li3 O7 2.214336 1_555
Li3 O6 2.382520 1_555
Li4 O8 2.010836 1_555
Li4 O10 2.072407 1_556
Li4 O27 2.170392 1_555
Li4 O16 2.214336 1_655
Li4 O17 2.382520 1_555
Li5 O17 2.033297 1_555
Li5 O20 2.074470 1_555
Li5 O18 2.103581 1_554
Li5 O30 2.186122 1_545
Li6 O22 2.033297 1_555
Li6 O19 2.074470 1_555
Li6 O21 2.103581 1_556
Li6 O9 2.186122 1_565
Li7 O31 2.010836 1_555
Li7 O29 2.072407 1_554
Li7 O12 2.170392 1_555
Li7 O23 2.214336 1_455
Li7 O22 2.382520 1_555
Li8 O25 2.010836 1_554
Li8 O26 2.072407 1_555
Li8 O11 2.170392 1_565
Li8 O3 2.214336 1_555
Li8 O2 2.382520 1_555
Li9 O14 2.052020 1_555
Li9 O6 2.074547 1_564
Li9 O28 2.099841 1_554
Li9 O24 2.158344 1_555
Li9 O3 2.232802 1_555
Li10 O8 2.052020 1_565
Li10 O17 2.074547 1_555
Li10 O27 2.099841 1_555
Li10 O30 2.158344 1_555
Li10 O23 2.232802 1_555
Li11 O2 2.033297 1_556
Li11 O4 2.074470 1_565
Li11 O1 2.103581 1_555
Li11 O15 2.186122 1_555
Mo0 O21 2.113352 1_556
Mo0 O29 2.130360 1_545
Mo0 O0 2.131509 1_546
Mo0 O16 2.149237 1_555
Mo0 O9 2.155361 1_555
Mo0 O12 2.173567 1_556
Mo1 O1 2.113352 1_545
Mo1 O26 2.130360 1_555
Mo1 O20 2.131509 1_555
Mo1 O7 2.149237 1_555
Mo1 O15 2.155361 1_555
Mo1 O11 2.173567 1_555
Mo2 O5 2.113352 1_565
Mo2 O13 2.130360 1_555
Mo2 O19 2.131509 1_555
Mo2 O3 2.149237 1_555
Mo2 O24 2.155361 1_555
Mo2 O28 2.173567 1_555
Mo3 O18 2.113352 1_554
Mo3 O10 2.130360 1_565
Mo3 O4 2.131509 1_564
Mo3 O23 2.149237 1_555
Mo3 O30 2.155361 1_555
Mo3 O27 2.173567 1_554
O0 P3 1.565919 1_555
O1 P0 1.561107 1_555
O2 P0 1.524493 1_555
O3 P5 1.581707 1_565
O4 P7 1.565919 1_555
O5 P4 1.561107 1_555
O6 P4 1.524493 1_555
O7 P1 1.581707 1_545
O8 P6 1.517719 1_555
O9 P4 1.580766 1_555
O10 P6 1.555980 1_555
O11 P5 1.578076 1_555
O12 P6 1.578076 1_455
O13 P5 1.555980 1_555
O14 P5 1.517719 1_555
O15 P7 1.580766 1_555
O16 P2 1.581707 1_555
O17 P7 1.524493 1_555
O18 P7 1.561107 1_555
O19 P4 1.565919 1_555
O20 P0 1.565919 1_555
O21 P3 1.561107 1_555
O22 P3 1.524493 1_555
O23 P6 1.581707 1_555
O24 P3 1.580766 1_555
O25 P1 1.517719 1_555
O26 P1 1.555980 1_555
O27 P2 1.578076 1_655
O28 P1 1.578076 1_555
O29 P2 1.555980 1_555
O30 P0 1.580766 1_555
O31 P2 1.517719 1_555
