# generated using pymatgen
data_K2NaMgVOF5
_symmetry_space_group_name_H-M   'P 1'
_cell_length_a   6.19660452
_cell_length_b   7.82610070
_cell_length_c   6.19967880
_cell_angle_alpha   51.21809537
_cell_angle_beta   55.94269831
_cell_angle_gamma   51.21030028
_symmetry_Int_Tables_number   1
_chemical_formula_structural   K2NaMgVOF5
_chemical_formula_sum   'K2 Na1 Mg1 V1 O1 F5'
_cell_volume   175.59105653
_cell_formula_units_Z   1
loop_
 _symmetry_equiv_pos_site_id
 _symmetry_equiv_pos_as_xyz
  1  'x, y, z'
loop_
 _atom_site_type_symbol
 _atom_site_label
 _atom_site_symmetry_multiplicity
 _atom_site_fract_x
 _atom_site_fract_y
 _atom_site_fract_z
 _atom_site_occupancy
  K  K0  1  0.25707907  0.37199048  0.25717871  1
  K  K1  1  0.73179191  0.69773446  0.73151590  1
  Na  Na0  1  0.56200821  0.32630397  0.56150226  1
  Mg  Mg0  1  0.29454013  0.90254688  0.29326765  1
  V  V0  1  0.00264020  -0.00635812  0.00264236  1
  O  O0  1  0.27930057  0.67350369  0.27555945  1
  F  F0  1  0.30381923  0.12073801  0.85845575  1
  F  F1  1  0.85450789  0.11485874  0.31046419  1
  F  F2  1  0.19139657  0.89999561  0.65702654  1
  F  F3  1  0.66362288  0.89339535  0.18877321  1
  F  F4  1  0.74471033  0.34904094  0.74902997  1
loop_
_geom_bond_atom_site_label_1
_geom_bond_atom_site_label_2
_geom_bond_distance
_geom_bond_site_symmetry_2
K0 O0 2.522207 1_555
K1 O0 2.923467 1_556
K1 O0 2.942922 1_655
Na0 O0 2.252745 1_555
Mg0 O0 1.924657 1_555
O0 V0 2.153111 1_565
F0 Mg0 2.090197 1_546
F0 V0 2.148235 1_556
F0 Na0 2.180085 1_555
F0 K1 2.921952 1_545
F0 K0 3.026494 1_555
F1 Mg0 2.104018 1_645
F1 V0 2.144611 1_655
F1 Na0 2.180502 1_555
F1 K1 2.874191 1_545
F1 K0 3.011094 1_555
F2 Mg0 1.959578 1_555
F2 V0 2.140678 1_566
F2 K1 2.847315 1_555
F2 K0 3.039438 1_565
F3 Mg0 1.961851 1_555
F3 V0 2.139154 1_665
F3 K1 2.858723 1_555
F3 K0 3.086453 1_565
F4 V0 2.128208 1_656
F4 Na0 2.156584 1_555
F4 K1 2.613425 1_555
F4 K0 2.907618 1_556
F4 K0 2.931836 1_655
