# generated using pymatgen
data_Na8Ca3ZrSi3(SO8)3
_symmetry_space_group_name_H-M   'P 1'
_cell_length_a   9.50578368
_cell_length_b   9.50630974
_cell_length_c   23.17211375
_cell_angle_alpha   90.07522184
_cell_angle_beta   89.85093652
_cell_angle_gamma   119.87532872
_symmetry_Int_Tables_number   1
_chemical_formula_structural   Na8Ca3ZrSi3(SO8)3
_chemical_formula_sum   'Na24 Ca9 Zr3 Si9 S9 O72'
_cell_volume   1815.67838298
_cell_formula_units_Z   3
loop_
 _symmetry_equiv_pos_site_id
 _symmetry_equiv_pos_as_xyz
  1  'x, y, z'
loop_
 _atom_site_type_symbol
 _atom_site_label
 _atom_site_symmetry_multiplicity
 _atom_site_fract_x
 _atom_site_fract_y
 _atom_site_fract_z
 _atom_site_occupancy
  Na  Na0  1  0.62918209  0.99558867  0.26446473  1
  Na  Na1  1  0.37146309  0.36879365  0.23919777  1
  Na  Na2  1  0.00061304  0.62393451  0.25357133  1
  Na  Na3  1  0.64303433  0.66097290  0.72825819  1
  Na  Na4  1  0.96953108  0.32925294  0.75379571  1
  Na  Na5  1  0.38558118  0.01262796  0.73542278  1
  Na  Na6  1  0.32662557  0.33582279  0.58283507  1
  Na  Na7  1  0.04697807  0.72465198  0.56604318  1
  Na  Na8  1  0.64593766  0.93907854  0.58005044  1
  Na  Na9  1  0.27616669  0.95273639  0.06938473  1
  Na  Na10  1  0.66183357  0.67194784  0.08480956  1
  Na  Na11  1  0.06333729  0.35908297  0.07343035  1
  Na  Na12  1  0.00401833  0.68112206  0.92433937  1
  Na  Na13  1  0.71234565  0.04969505  0.90303721  1
  Na  Na14  1  0.29825342  0.28184245  0.92464065  1
  Na  Na15  1  0.96273734  0.31028165  0.41590066  1
  Na  Na16  1  0.32415279  0.98978981  0.42856763  1
  Na  Na17  1  0.71327847  0.69878578  0.43259007  1
  Na  Na18  1  0.98910171  0.97430431  0.50101678  1
  Na  Na19  1  0.02882800  0.01529094  -0.00024337  1
  Na  Na20  1  0.66682760  0.30241462  0.83357088  1
  Na  Na21  1  0.68417530  0.33308912  0.34591015  1
  Na  Na22  1  0.31124911  0.64679201  0.15383774  1
  Na  Na23  1  0.36438805  0.69675374  0.65273938  1
  Ca  Ca0  1  0.99776419  0.99486139  0.35160211  1
  Ca  Ca1  1  0.99810053  0.00397429  0.84846311  1
  Ca  Ca2  1  0.98463480  0.98747313  0.64711141  1
  Ca  Ca3  1  0.00667481  0.99909099  0.14361575  1
  Ca  Ca4  1  0.66205346  0.32884758  0.67929337  1
  Ca  Ca5  1  0.66866396  0.33930079  0.17845015  1
  Ca  Ca6  1  0.32701480  0.66585250  0.01442597  1
  Ca  Ca7  1  0.34008375  0.67666409  0.51249800  1
  Ca  Ca8  1  0.33014022  0.67835126  0.32919653  1
  Zr  Zr0  1  0.66853898  0.33685901  0.98377662  1
  Zr  Zr1  1  0.66078666  0.33081260  0.48706651  1
  Zr  Zr2  1  0.33101773  0.67871381  0.82197229  1
  Si  Si0  1  0.68521568  0.99232980  0.75391901  1
  Si  Si1  1  0.35973704  0.03021573  0.58564761  1
  Si  Si2  1  0.66351386  0.63176044  0.58586738  1
  Si  Si3  1  0.96704220  0.63414107  0.08501005  1
  Si  Si4  1  0.36868619  0.33662994  0.08513723  1
  Si  Si5  1  0.02864642  0.36653774  0.91834226  1
  Si  Si6  1  0.33936585  0.97881221  0.92110734  1
  Si  Si7  1  0.64634881  0.98527787  0.41538877  1
  Si  Si8  1  0.01381438  0.65670560  0.41614789  1
  S  S0  1  0.30495223  0.99787090  0.24924377  1
  S  S1  1  0.69198840  0.69588281  0.24946176  1
  S  S2  1  0.00267026  0.30216250  0.24878461  1
  S  S3  1  0.30502357  0.31515462  0.75293914  1
  S  S4  1  0.00780296  0.69511713  0.75364553  1
  S  S5  1  0.96418027  0.33331562  0.58292567  1
  S  S6  1  0.66920206  0.04003768  0.08243804  1
  S  S7  1  0.62715698  0.65804722  0.91685314  1
  S  S8  1  0.34091926  0.36248985  0.41568651  1
  O  O0  1  0.22384693  0.01457003  0.30159775  1
  O  O1  1  0.78975126  0.78483394  0.30065433  1
  O  O2  1  0.99813991  0.21030253  0.30126158  1
  O  O3  1  0.22518169  0.21234097  0.80446933  1
  O  O4  1  0.99002754  0.77243389  0.80648436  1
  O  O5  1  0.78798609  0.00962393  0.81173071  1
  O  O6  1  0.76334033  0.95717980  0.69628349  1
  O  O7  1  0.20684565  0.23826325  0.70042119  1
  O  O8  1  0.03235066  0.79657001  0.70230403  1
  O  O9  1  0.77092609  0.78909060  0.19605691  1
  O  O10  1  0.00737761  0.21519473  0.19609327  1
  O  O11  1  0.21026978  0.98919432  0.19719502  1
  O  O12  1  0.89477458  0.35419521  0.63732007  1
  O  O13  1  0.45760305  0.11071831  0.64486303  1
  O  O14  1  0.66115063  0.54461170  0.64635832  1
  O  O15  1  0.88937544  0.53649514  0.14480320  1
  O  O16  1  0.64803795  0.11064956  0.13640263  1
  O  O17  1  0.45638571  0.34256398  0.14594105  1
  O  O18  1  0.48330214  0.32696445  0.02968066  1
  O  O19  1  0.84876144  0.51717155  0.02889668  1
  O  O20  1  0.67904913  0.14443538  0.03155322  1
  O  O21  1  0.47613171  0.14667949  0.53026434  1
  O  O22  1  0.66723080  0.51549580  0.53160874  1
  O  O23  1  0.85871728  0.32328670  0.53272570  1
  O  O24  1  0.56113296  0.68574945  0.97015904  1
  O  O25  1  0.13694945  0.44351405  0.97507652  1
  O  O26  1  0.31894138  0.87740383  0.97877122  1
  O  O27  1  0.56014183  0.85733026  0.46782154  1
  O  O28  1  0.31543559  0.43972873  0.46686373  1
  O  O29  1  0.13164901  0.67835328  0.46995896  1
  O  O30  1  0.07979108  0.61669591  0.35565496  1
  O  O31  1  0.53963294  0.91608445  0.35565662  1
  O  O32  1  0.36398736  0.46043912  0.36272018  1
  O  O33  1  0.13236994  0.49007580  0.86181790  1
  O  O34  1  0.35705066  0.86887081  0.86583152  1
  O  O35  1  0.51953705  0.64245531  0.86655726  1
  O  O36  1  0.99835476  0.82171595  0.41457596  1
  O  O37  1  0.83591359  0.02669718  0.41170498  1
  O  O38  1  0.20153226  0.19536740  0.40976422  1
  O  O39  1  0.99738410  0.18271684  0.91216231  1
  O  O40  1  0.17923287  0.99656139  0.91266258  1
  O  O41  1  0.79548324  0.79157637  0.90811264  1
  O  O42  1  0.96956260  0.17951769  0.58321837  1
  O  O43  1  0.18845819  0.03416083  0.58051471  1
  O  O44  1  0.82744639  0.81048756  0.57741063  1
  O  O45  1  0.96084316  0.80398798  0.07815529  1
  O  O46  1  0.82384408  0.03582759  0.08276850  1
  O  O47  1  0.18851231  0.17367791  0.07757620  1
  O  O48  1  0.66787756  0.15727421  0.75165111  1
  O  O49  1  0.47285021  0.33917093  0.74914814  1
  O  O50  1  0.86814400  0.52809697  0.74868854  1
  O  O51  1  0.67883454  0.53146974  0.24949060  1
  O  O52  1  0.85246513  0.31728848  0.24969815  1
  O  O53  1  0.47393012  0.14125733  0.24729540  1
  O  O54  1  0.62864421  0.50001651  0.91919843  1
  O  O55  1  0.84992091  0.36382301  0.91980986  1
  O  O56  1  0.51155104  0.15785052  0.91987211  1
  O  O57  1  0.65405051  0.16428646  0.42577135  1
  O  O58  1  0.49211490  0.35009024  0.42238451  1
  O  O59  1  0.82764874  0.49649580  0.42605884  1
  O  O60  1  0.36351361  0.50590820  0.08100525  1
  O  O61  1  0.15219307  0.66560159  0.08130317  1
  O  O62  1  0.53026902  0.87371590  0.07612005  1
  O  O63  1  0.33159796  0.84619387  0.58108643  1
  O  O64  1  0.49513587  0.63900072  0.58148027  1
  O  O65  1  0.13010563  0.47336995  0.57543427  1
  O  O66  1  0.31612310  0.84573326  0.25129431  1
  O  O67  1  0.52424655  0.67333285  0.25306895  1
  O  O68  1  0.15164518  0.46749703  0.24898120  1
  O  O69  1  0.31838606  0.47901082  0.75960640  1
  O  O70  1  0.16086797  0.68074952  0.75850415  1
  O  O71  1  0.49675419  0.82296228  0.75937459  1
loop_
_geom_bond_atom_site_label_1
_geom_bond_atom_site_label_2
_geom_bond_distance
_geom_bond_site_symmetry_2
Na0 O31 2.261627 1_555
Na0 O53 2.508838 1_565
Na0 O66 2.599727 1_555
Na0 O67 2.721124 1_555
Na0 O52 2.739887 1_565
Na1 O17 2.360847 1_555
Na1 O67 2.530837 1_555
Na1 O51 2.546884 1_555
Na1 O68 2.692249 1_555
Na1 O53 2.786318 1_555
Na1 O32 3.001791 1_555
Na2 O30 2.495609 1_555
Na2 O52 2.529658 1_455
Na2 O68 2.531774 1_555
Na2 O66 2.672663 1_555
Na2 O15 2.700764 1_455
Na2 O51 2.731365 1_455
Na3 O14 2.244424 1_555
Na3 O6 2.564904 1_555
Na3 O71 2.636251 1_555
Na3 O49 2.698029 1_555
Na3 O69 2.777954 1_555
Na4 O48 2.495567 1_555
Na4 O50 2.516359 1_555
Na4 O12 2.832887 1_555
Na4 O69 2.887957 1_655
Na4 O70 2.903570 1_655
Na4 O33 2.941329 1_655
Na4 O5 2.964395 1_555
Na4 O7 3.048499 1_655
Na5 O13 2.259078 1_555
Na5 O48 2.358177 1_555
Na5 O71 2.565078 1_545
Na5 O49 2.803364 1_555
Na5 O70 2.843806 1_545
Na5 O8 3.036555 1_545
Na6 O43 2.489841 1_555
Na6 O64 2.504817 1_555
Na6 O65 2.768487 1_555
Na6 O28 2.884736 1_555
Na6 O7 2.918756 1_555
Na7 O63 2.380344 1_555
Na7 O29 2.477846 1_555
Na7 O43 2.576016 1_565
Na7 O44 2.604416 1_455
Na7 O65 2.874140 1_555
Na8 O64 2.473804 1_555
Na8 O44 2.564267 1_555
Na8 O63 2.660804 1_555
Na8 O27 2.721471 1_555
Na8 O42 2.772941 1_565
Na8 O6 2.890052 1_555
Na9 O26 2.317033 1_554
Na9 O61 2.389857 1_555
Na9 O45 2.607744 1_455
Na9 O47 2.623603 1_565
Na9 O62 2.869303 1_555
Na10 O60 2.466279 1_555
Na10 O45 2.474285 1_555
Na10 O62 2.770498 1_555
Na10 O9 2.795826 1_555
Na10 O24 2.851458 1_554
Na11 O25 2.401038 1_554
Na11 O60 2.480971 1_555
Na11 O47 2.573297 1_555
Na11 O61 2.604765 1_555
Na11 O46 2.775330 1_455
Na12 O55 2.617875 1_455
Na12 O40 2.619819 1_555
Na12 O41 2.692931 1_455
Na12 O19 2.859553 1_456
Na12 O4 2.890050 1_455
Na12 O26 2.912533 1_555
Na12 O33 3.012849 1_555
Na13 O5 2.324089 1_555
Na13 O39 2.360963 1_555
Na13 O56 2.608178 1_555
Na13 O55 2.624455 1_555
Na14 O40 2.377982 1_545
Na14 O39 2.543597 1_455
Na14 O54 2.773168 1_555
Na14 O56 2.809259 1_555
Na14 O3 2.867258 1_555
Na14 O25 2.900455 1_555
Na14 O18 2.910395 1_556
Na15 O37 2.343623 1_555
Na15 O57 2.555177 1_555
Na15 O59 2.664573 1_555
Na15 O2 2.894919 1_555
Na15 O23 2.903148 1_555
Na15 O30 2.906107 1_655
Na15 O38 2.972278 1_655
Na16 O36 2.706190 1_455
Na16 O57 2.721556 1_565
Na16 O29 2.763116 1_555
Na16 O38 2.764402 1_565
Na16 O21 2.779690 1_565
Na17 O36 2.392459 1_555
Na17 O59 2.642742 1_555
Na17 O27 2.689489 1_555
Na17 O37 2.773286 1_565
Na17 O22 2.781665 1_555
Na17 O58 2.919188 1_555
Na18 O44 2.351425 1_555
Na18 O36 2.498494 1_555
Na18 O43 2.499917 1_665
Na18 O37 2.718903 1_565
Na18 O42 2.796029 1_565
Na18 O38 2.954144 1_665
Na19 O47 2.356496 1_555
Na19 O40 2.527128 1_544
Na19 O45 2.542255 1_445
Na19 O39 2.688490 1_454
Na19 O46 2.809531 1_455
Na20 O48 2.348174 1_555
Na20 O56 2.457122 1_555
Na20 O55 2.523122 1_555
Na20 O49 2.830449 1_555
Na20 O50 2.834605 1_555
Na20 O54 2.874546 1_555
Na21 O59 2.370092 1_555
Na21 O57 2.372516 1_555
Na21 O58 2.603046 1_555
Na21 O52 2.787833 1_555
Na21 O51 2.942441 1_555
Na21 O53 2.987219 1_555
Na22 O61 2.329450 1_555
Na22 O60 2.354008 1_555
Na22 O68 2.735649 1_555
Na22 O62 2.783466 1_555
Na22 O66 2.929269 1_555
Na22 O67 2.994012 1_555
Na23 O64 2.288970 1_555
Na23 O63 2.306970 1_555
Na23 O71 2.762748 1_555
Na23 O65 2.824427 1_555
Ca0 O37 2.202243 1_565
Ca0 O36 2.203223 1_555
Ca0 O1 2.315785 1_555
Ca0 O38 2.351623 1_665
Ca0 O2 2.356735 1_565
Ca0 O0 2.362793 1_665
Ca1 O5 2.198276 1_555
Ca1 O39 2.251858 1_555
Ca1 O40 2.305889 1_645
Ca1 O3 2.314420 1_655
Ca1 O4 2.371374 1_545
Ca1 O41 2.411679 1_545
Ca2 O44 2.274402 1_555
Ca2 O6 2.278407 1_555
Ca2 O43 2.337068 1_665
Ca2 O42 2.411273 1_565
Ca2 O8 2.442127 1_655
Ca2 O7 2.580806 1_665
Ca3 O45 2.263111 1_455
Ca3 O47 2.284507 1_565
Ca3 O11 2.343072 1_555
Ca3 O10 2.383044 1_565
Ca3 O46 2.397731 1_465
Ca3 O9 2.453425 1_455
Ca4 O13 2.168491 1_555
Ca4 O14 2.193464 1_555
Ca4 O12 2.314351 1_555
Ca4 O48 2.360552 1_555
Ca4 O49 2.454532 1_555
Ca4 O50 2.514570 1_555
Ca5 O15 2.144978 1_555
Ca5 O17 2.170384 1_555
Ca5 O16 2.298541 1_555
Ca5 O51 2.423515 1_555
Ca5 O53 2.456950 1_555
Ca5 O52 2.490430 1_555
Ca6 O25 2.182249 1_554
Ca6 O26 2.211640 1_554
Ca6 O61 2.268442 1_555
Ca6 O60 2.312336 1_555
Ca6 O24 2.368540 1_554
Ca6 O62 2.425866 1_555
Ca7 O27 2.193507 1_555
Ca7 O29 2.222497 1_555
Ca7 O63 2.291699 1_555
Ca7 O64 2.322740 1_555
Ca7 O28 2.390731 1_555
Ca7 O65 2.448488 1_555
Ca8 O31 2.228953 1_555
Ca8 O30 2.233046 1_555
Ca8 O32 2.380705 1_555
Ca8 O66 2.455246 1_555
Ca8 O67 2.566935 1_555
Ca8 O68 2.640102 1_555
O0 S0 1.485897 1_545
O1 S1 1.485282 1_555
O2 S2 1.485978 1_655
O3 S3 1.488768 1_555
O4 S4 1.479250 1_655
O5 Si0 1.619320 1_545
O6 Si0 1.639421 1_555
O7 S3 1.486679 1_555
O8 S4 1.475579 1_555
O9 S1 1.488372 1_555
O10 S2 1.486672 1_555
O11 S0 1.484223 1_555
O12 S5 1.479474 1_555
O13 Si1 1.621271 1_555
O14 Si2 1.623567 1_555
O15 Si3 1.625344 1_555
O16 S6 1.478434 1_555
O17 Si4 1.625534 1_555
O18 Si4 1.714340 1_555
O18 Zr0 2.016507 1_554
O19 Si3 1.717437 1_555
O19 Zr0 2.011305 1_554
O20 S6 1.514577 1_555
O20 Zr0 2.183962 1_554
O21 Si1 1.694966 1_555
O21 Zr1 2.020284 1_555
O22 Si2 1.684819 1_555
O22 Zr1 2.009930 1_555
O23 S5 1.509238 1_555
O23 Zr1 2.192982 1_555
O24 S7 1.465864 1_555
O25 Si5 1.605513 1_555
O26 Si6 1.602503 1_555
O27 Si7 1.622603 1_555
O28 S8 1.475653 1_555
O29 Si8 1.621343 1_555
O30 Si8 1.653649 1_555
O31 Si7 1.648537 1_555
O32 S8 1.489851 1_555
O33 Si5 1.706063 1_555
O33 Zr2 2.062954 1_555
O34 Si6 1.712182 1_555
O34 Zr2 1.978057 1_555
O35 S7 1.510468 1_555
O35 Zr2 2.241301 1_555
O36 Si8 1.647235 1_655
O37 Si7 1.643727 1_545
O38 S8 1.483821 1_555
O39 Si5 1.626240 1_655
O40 Si6 1.625216 1_555
O41 S7 1.479229 1_555
O42 S5 1.488222 1_555
O43 Si1 1.651739 1_555
O44 Si2 1.647754 1_555
O45 Si3 1.652634 1_555
O46 S6 1.490373 1_555
O47 Si4 1.649670 1_555
O48 Si0 1.657197 1_545
O49 S3 1.497121 1_555
O50 S4 1.482224 1_655
O51 S1 1.504591 1_555
O52 S2 1.504711 1_655
O53 S0 1.502892 1_545
O54 S7 1.510431 1_555
O54 Zr0 2.320296 1_555
O55 Si5 1.686474 1_655
O55 Zr0 2.186996 1_555
O56 Si6 1.673682 1_545
O56 Zr0 2.188730 1_555
O57 Si7 1.683439 1_545
O57 Zr1 2.102639 1_555
O58 S8 1.507848 1_555
O58 Zr1 2.270846 1_555
O59 Si8 1.678609 1_655
O59 Zr1 2.121428 1_555
O60 Si4 1.637193 1_555
O61 Si3 1.633809 1_455
O62 S6 1.478395 1_565
O63 Si1 1.636004 1_565
O64 Si2 1.639358 1_555
O65 S5 1.482440 1_455
O66 S0 1.502806 1_555
O67 S1 1.501418 1_555
O68 S2 1.502794 1_555
O69 S3 1.506218 1_555
O69 Zr2 2.339562 1_555
O70 S4 1.532069 1_555
O70 Zr2 2.196120 1_555
O71 Si0 1.715665 1_555
O71 Zr2 2.075465 1_555
