# generated using pymatgen
data_NaNbGe3(PO4)6
_symmetry_space_group_name_H-M   'P 1'
_cell_length_a   8.43909763
_cell_length_b   8.43909737
_cell_length_c   21.94699305
_cell_angle_alpha   90.00000000
_cell_angle_beta   90.00000000
_cell_angle_gamma   120.00000096
_symmetry_Int_Tables_number   1
_chemical_formula_structural   NaNbGe3(PO4)6
_chemical_formula_sum   'Na3 Nb3 Ge9 P18 O72'
_cell_volume   1353.62280587
_cell_formula_units_Z   3
loop_
 _symmetry_equiv_pos_site_id
 _symmetry_equiv_pos_as_xyz
  1  'x, y, z'
loop_
 _atom_site_type_symbol
 _atom_site_label
 _atom_site_symmetry_multiplicity
 _atom_site_fract_x
 _atom_site_fract_y
 _atom_site_fract_z
 _atom_site_occupancy
  Na  Na0  1  -0.00000000  -0.00000000  0.99770316  1
  Na  Na1  1  0.66666700  0.33333300  0.83388410  1
  Na  Na2  1  0.66666700  0.33333300  0.33311043  1
  Nb  Nb0  1  -0.00000000  -0.00000000  0.64446097  1
  Nb  Nb1  1  -0.00000000  -0.00000000  0.14554378  1
  Nb  Nb2  1  0.33333300  0.66666700  0.52203739  1
  Ge  Ge0  1  -0.00000000  -0.00000000  0.35436107  1
  Ge  Ge1  1  -0.00000000  -0.00000000  0.85340880  1
  Ge  Ge2  1  0.66666700  0.33333300  0.68815559  1
  Ge  Ge3  1  0.66666700  0.33333300  0.18587988  1
  Ge  Ge4  1  0.66666700  0.33333300  0.97893731  1
  Ge  Ge5  1  0.66666700  0.33333300  0.47846641  1
  Ge  Ge6  1  0.33333300  0.66666700  0.02058044  1
  Ge  Ge7  1  0.33333300  0.66666700  0.31221835  1
  Ge  Ge8  1  0.33333300  0.66666700  0.81306901  1
  P  P0  1  0.29363471  0.99923748  0.25265473  1
  P  P1  1  0.70560276  0.70636529  0.25265473  1
  P  P2  1  0.00076252  0.29439724  0.25265473  1
  P  P3  1  0.29291708  0.29442041  0.75257754  1
  P  P4  1  0.00150332  0.70708292  0.75257754  1
  P  P5  1  0.70557959  0.99849668  0.75257754  1
  P  P6  1  0.94275421  0.33341402  0.58334241  1
  P  P7  1  0.39066081  0.05724579  0.58334241  1
  P  P8  1  0.66658598  0.60933919  0.58334241  1
  P  P9  1  0.95426678  0.61058410  0.08166458  1
  P  P10  1  0.65631833  0.04573322  0.08166458  1
  P  P11  1  0.38941590  0.34368167  0.08166458  1
  P  P12  1  0.62003129  0.66667967  0.91664219  1
  P  P13  1  0.04664738  0.37996871  0.91664219  1
  P  P14  1  0.33332033  0.95335262  0.91664219  1
  P  P15  1  0.62728180  0.95935000  0.41401740  1
  P  P16  1  0.33206720  0.37271820  0.41401740  1
  P  P17  1  0.04065000  0.66793280  0.41401740  1
  O  O0  1  0.20607888  0.03896945  0.30759701  1
  O  O1  1  0.83289057  0.79392112  0.30759701  1
  O  O2  1  0.96103055  0.16710943  0.30759701  1
  O  O3  1  0.20615073  0.16710475  0.80777569  1
  O  O4  1  0.96095402  0.79384927  0.80777569  1
  O  O5  1  0.83289525  0.03904598  0.80777569  1
  O  O6  1  0.79303517  0.96659074  0.69502091  1
  O  O7  1  0.17355557  0.20696483  0.69502091  1
  O  O8  1  0.03340926  0.82644443  0.69502091  1
  O  O9  1  0.79303916  0.82668969  0.19505081  1
  O  O10  1  0.03365053  0.20696084  0.19505081  1
  O  O11  1  0.17331031  0.96634947  0.19505081  1
  O  O12  1  0.86627123  0.36981373  0.64127659  1
  O  O13  1  0.50354349  0.13372877  0.64127659  1
  O  O14  1  0.63018627  0.49645651  0.64127659  1
  O  O15  1  0.87091576  0.49999288  0.14037363  1
  O  O16  1  0.62907811  0.12908424  0.14037363  1
  O  O17  1  0.50000712  0.37092189  0.14037363  1
  O  O18  1  0.46518226  0.29641610  0.02515397  1
  O  O19  1  0.83123485  0.53481774  0.02515397  1
  O  O20  1  0.70358390  0.16876515  0.02515397  1
  O  O21  1  0.46707261  0.17027457  0.52538840  1
  O  O22  1  0.70320297  0.53292739  0.52538840  1
  O  O23  1  0.82972543  0.29679703  0.52538840  1
  O  O24  1  0.53891764  0.70410748  0.97421756  1
  O  O25  1  0.16518884  0.46108236  0.97421756  1
  O  O26  1  0.29589252  0.83481116  0.97421756  1
  O  O27  1  0.54041547  0.84029471  0.47170989  1
  O  O28  1  0.29987824  0.45958453  0.47170989  1
  O  O29  1  0.15970529  0.70012176  0.47170989  1
  O  O30  1  0.12735118  0.62770713  0.35904454  1
  O  O31  1  0.50035495  0.87264882  0.35904454  1
  O  O32  1  0.37229287  0.49964505  0.35904454  1
  O  O33  1  0.12799280  0.49863518  0.85921277  1
  O  O34  1  0.37064137  0.87200720  0.85921277  1
  O  O35  1  0.50136482  0.62935863  0.85921277  1
  O  O36  1  0.02458766  0.83859979  0.40670138  1
  O  O37  1  0.81401213  0.97541234  0.40670138  1
  O  O38  1  0.16140021  0.18598787  0.40670138  1
  O  O39  1  0.02552737  0.18732231  0.90885911  1
  O  O40  1  0.16179494  0.97447263  0.90885911  1
  O  O41  1  0.81267769  0.83820506  0.90885911  1
  O  O42  1  0.96978115  0.16794326  0.59096831  1
  O  O43  1  0.19816210  0.03021885  0.59096831  1
  O  O44  1  0.83205674  0.80183790  0.59096831  1
  O  O45  1  0.97338377  0.80322333  0.08966826  1
  O  O46  1  0.82983956  0.02661623  0.08966826  1
  O  O47  1  0.19677667  0.17016044  0.08966826  1
  O  O48  1  0.69099827  0.17199259  0.74272029  1
  O  O49  1  0.48099532  0.30900173  0.74272029  1
  O  O50  1  0.82800741  0.51900468  0.74272029  1
  O  O51  1  0.69080227  0.51842147  0.24235050  1
  O  O52  1  0.82762019  0.30919773  0.24235050  1
  O  O53  1  0.48157853  0.17237981  0.24235050  1
  O  O54  1  0.64119974  0.49548804  0.92426319  1
  O  O55  1  0.85428930  0.35880026  0.92426319  1
  O  O56  1  0.50451196  0.14571070  0.92426319  1
  O  O57  1  0.64250923  0.14784037  0.42395944  1
  O  O58  1  0.50533213  0.35749077  0.42395944  1
  O  O59  1  0.85215963  0.49466787  0.42395944  1
  O  O60  1  0.36099175  0.50654696  0.07353394  1
  O  O61  1  0.14555421  0.63900825  0.07353394  1
  O  O62  1  0.49345304  0.85444579  0.07353394  1
  O  O63  1  0.36352494  0.86480390  0.57571469  1
  O  O64  1  0.50127797  0.63647506  0.57571469  1
  O  O65  1  0.13519610  0.49872203  0.57571469  1
  O  O66  1  0.30865147  0.82799105  0.26007997  1
  O  O67  1  0.51933858  0.69134853  0.26007997  1
  O  O68  1  0.17200895  0.48066142  0.26007997  1
  O  O69  1  0.30871261  0.48086894  0.76007675  1
  O  O70  1  0.17215533  0.69128739  0.76007675  1
  O  O71  1  0.51913106  0.82784467  0.76007675  1
loop_
_geom_bond_atom_site_label_1
_geom_bond_atom_site_label_2
_geom_bond_distance
_geom_bond_site_symmetry_2
Na0 O39 2.450884 1_555
Na0 O41 2.450884 1_445
Na0 O40 2.450884 1_545
Na0 O45 2.551248 1_446
Na0 O47 2.551248 1_556
Na0 O46 2.551248 1_456
Na1 O56 2.479395 1_555
Na1 O54 2.479395 1_555
Na1 O55 2.479395 1_555
Na1 O50 2.485697 1_555
Na1 O48 2.485697 1_555
Na1 O49 2.485697 1_555
Na2 O52 2.476049 1_555
Na2 O53 2.476049 1_555
Na2 O51 2.476049 1_555
Na2 O57 2.479589 1_555
Na2 O59 2.479589 1_555
Na2 O58 2.479589 1_555
Nb0 O44 1.952809 1_445
Nb0 O43 1.952809 1_555
Nb0 O42 1.952809 1_455
Nb0 O7 1.966964 1_555
Nb0 O8 1.966964 1_545
Nb0 O6 1.966964 1_445
Nb1 O10 1.953378 1_555
Nb1 O9 1.953378 1_445
Nb1 O11 1.953378 1_545
Nb1 O45 1.984669 1_445
Nb1 O47 1.984669 1_555
Nb1 O46 1.984669 1_455
Nb2 O63 1.955148 1_555
Nb2 O65 1.955148 1_555
Nb2 O64 1.955148 1_555
Nb2 O28 1.964787 1_555
Nb2 O27 1.964787 1_555
Nb2 O29 1.964787 1_555
Ge0 O38 1.870952 1_555
Ge0 O36 1.870952 1_545
Ge0 O37 1.870952 1_445
Ge0 O1 1.901080 1_445
Ge0 O2 1.901080 1_455
Ge0 O0 1.901080 1_555
Ge1 O4 1.888117 1_445
Ge1 O3 1.888117 1_555
Ge1 O5 1.888117 1_455
Ge1 O39 1.919868 1_555
Ge1 O41 1.919868 1_445
Ge1 O40 1.919868 1_545
Ge2 O13 1.863384 1_555
Ge2 O12 1.863384 1_555
Ge2 O14 1.863384 1_555
Ge2 O50 1.899917 1_555
Ge2 O48 1.899917 1_555
Ge2 O49 1.899917 1_555
Ge3 O16 1.876794 1_555
Ge3 O15 1.876794 1_555
Ge3 O17 1.876794 1_555
Ge3 O52 1.923314 1_555
Ge3 O53 1.923314 1_555
Ge3 O51 1.923314 1_555
Ge4 O19 1.867445 1_556
Ge4 O18 1.867445 1_556
Ge4 O20 1.867445 1_556
Ge4 O56 1.911222 1_555
Ge4 O54 1.911222 1_555
Ge4 O55 1.911222 1_555
Ge5 O22 1.863703 1_555
Ge5 O21 1.863703 1_555
Ge5 O23 1.863703 1_555
Ge5 O57 1.898400 1_555
Ge5 O59 1.898400 1_555
Ge5 O58 1.898400 1_555
Ge6 O62 1.883203 1_555
Ge6 O60 1.883203 1_555
Ge6 O61 1.883203 1_555
Ge6 O25 1.896591 1_554
Ge6 O26 1.896591 1_554
Ge6 O24 1.896591 1_554
Ge7 O68 1.868107 1_555
Ge7 O66 1.868107 1_555
Ge7 O67 1.868107 1_555
Ge7 O31 1.901162 1_555
Ge7 O32 1.901162 1_555
Ge7 O30 1.901162 1_555
Ge8 O69 1.878438 1_555
Ge8 O71 1.878438 1_555
Ge8 O70 1.878438 1_555
Ge8 O35 1.892623 1_555
Ge8 O33 1.892623 1_555
Ge8 O34 1.892623 1_555
O0 P0 1.536274 1_545
O1 P1 1.536274 1_555
O2 P2 1.536274 1_655
O3 P3 1.539935 1_555
O4 P4 1.539935 1_655
O5 P5 1.539935 1_545
O6 P5 1.552932 1_555
O7 P3 1.552932 1_555
O8 P4 1.552932 1_555
O9 P1 1.557108 1_555
O10 P2 1.557108 1_555
O11 P0 1.557108 1_555
O12 P6 1.525089 1_555
O13 P7 1.525089 1_555
O14 P8 1.525089 1_555
O15 P9 1.539327 1_555
O16 P10 1.539327 1_555
O17 P11 1.539327 1_555
O18 P11 1.536610 1_555
O19 P9 1.536610 1_555
O20 P10 1.536610 1_555
O21 P7 1.525895 1_555
O22 P8 1.525895 1_555
O23 P6 1.525895 1_555
O24 P12 1.543131 1_555
O25 P13 1.543131 1_555
O26 P14 1.543131 1_555
O27 P15 1.553553 1_555
O28 P16 1.553553 1_555
O29 P17 1.553553 1_555
O30 P17 1.534468 1_555
O31 P15 1.534468 1_555
O32 P16 1.534468 1_555
O33 P13 1.541195 1_555
O34 P14 1.541195 1_555
O35 P12 1.541195 1_555
O36 P17 1.521111 1_555
O37 P15 1.521120 1_555
O38 P16 1.521116 1_555
O39 P13 1.553796 1_555
O40 P14 1.553787 1_555
O41 P12 1.553792 1_555
O42 P6 1.532492 1_555
O43 P7 1.532501 1_555
O44 P8 1.532498 1_555
O45 P9 1.561254 1_555
O46 P10 1.561245 1_555
O47 P11 1.561250 1_555
O48 P5 1.544618 1_545
O49 P3 1.544626 1_555
O50 P4 1.544622 1_655
O51 P1 1.544110 1_555
O52 P2 1.544102 1_655
O53 P0 1.544106 1_545
O54 P12 1.550851 1_555
O55 P13 1.550835 1_655
O56 P14 1.550842 1_545
O57 P15 1.545963 1_545
O58 P16 1.545980 1_555
O59 P17 1.545970 1_655
O60 P11 1.519259 1_555
O61 P9 1.519242 1_455
O62 P10 1.519249 1_565
O63 P7 1.531682 1_565
O64 P8 1.531699 1_555
O65 P6 1.531689 1_455
O66 P0 1.521270 1_555
O67 P1 1.521278 1_555
O68 P2 1.521275 1_555
O69 P3 1.520159 1_555
O70 P4 1.520151 1_555
O71 P5 1.520155 1_555
