# generated using pymatgen
data_GdAl3Pd2
_symmetry_space_group_name_H-M   'P 1'
_cell_length_a   5.39787425
_cell_length_b   5.39787485
_cell_length_c   4.19298332
_cell_angle_alpha   90.00000000
_cell_angle_beta   90.00000000
_cell_angle_gamma   119.99986923
_symmetry_Int_Tables_number   1
_chemical_formula_structural   GdAl3Pd2
_chemical_formula_sum   'Gd1 Al3 Pd2'
_cell_volume   105.80347045
_cell_formula_units_Z   1
loop_
 _symmetry_equiv_pos_site_id
 _symmetry_equiv_pos_as_xyz
  1  'x, y, z'
loop_
 _atom_site_type_symbol
 _atom_site_label
 _atom_site_symmetry_multiplicity
 _atom_site_fract_x
 _atom_site_fract_y
 _atom_site_fract_z
 _atom_site_occupancy
  Gd  Gd0  1  0.00000000  0.00000000  -0.00000000  1
  Al  Al0  1  0.50000000  0.00000000  0.50000000  1
  Al  Al1  1  0.50000000  0.50000000  0.50000000  1
  Al  Al2  1  0.00000000  0.50000000  0.50000000  1
  Pd  Pd0  1  0.66666700  0.33333300  0.00000000  1
  Pd  Pd1  1  0.33333300  0.66666700  -0.00000000  1
loop_
_geom_bond_atom_site_label_1
_geom_bond_atom_site_label_2
_geom_bond_distance
_geom_bond_site_symmetry_2
Gd0 Pd1 3.116459 1_545
Gd0 Pd0 3.116459 1_455
Gd0 Pd1 3.116470 1_445
Gd0 Pd0 3.116470 1_555
Gd0 Pd0 3.116470 1_445
Gd0 Pd1 3.116470 1_555
Al0 Pd0 2.612157 1_556
Al0 Pd1 2.612157 1_545
Al0 Pd1 2.612157 1_546
Al0 Pd0 2.612157 1_555
Al0 Al1 2.698937 1_545
Al0 Al1 2.698937 1_555
Al0 Al2 2.698943 1_545
Al0 Al2 2.698943 1_655
Al0 Gd0 3.417534 1_655
Al0 Gd0 3.417534 1_656
Al0 Gd0 3.417534 1_555
Al0 Gd0 3.417534 1_556
Al1 Pd1 2.612158 1_556
Al1 Pd0 2.612158 1_556
Al1 Pd1 2.612158 1_555
Al1 Pd0 2.612158 1_555
Al1 Al2 2.698937 1_655
Al1 Al2 2.698937 1_555
Al1 Gd0 3.417538 1_555
Al1 Gd0 3.417538 1_556
Al1 Gd0 3.417538 1_666
Al1 Gd0 3.417538 1_665
Al2 Pd1 2.612157 1_555
Al2 Pd1 2.612157 1_556
Al2 Pd0 2.612157 1_455
Al2 Pd0 2.612157 1_456
Al2 Gd0 3.417534 1_555
Al2 Gd0 3.417534 1_556
Al2 Gd0 3.417534 1_566
Al2 Gd0 3.417534 1_565
Pd0 Pd1 3.116465 1_655
Pd0 Pd1 3.116465 1_545
Pd0 Pd1 3.116469 1_555
