# generated using pymatgen
data_MgTe2Mo3W(Se2S)2
_symmetry_space_group_name_H-M   'P 1'
_cell_length_a   6.67725203
_cell_length_b   6.67551763
_cell_length_c   91.15748617
_cell_angle_alpha   89.99339181
_cell_angle_beta   90.00170220
_cell_angle_gamma   119.99824755
_symmetry_Int_Tables_number   1
_chemical_formula_structural   MgTe2Mo3W(Se2S)2
_chemical_formula_sum   'Mg8 Te16 Mo24 W8 Se32 S16'
_cell_volume   3518.95208722
_cell_formula_units_Z   8
loop_
 _symmetry_equiv_pos_site_id
 _symmetry_equiv_pos_as_xyz
  1  'x, y, z'
loop_
 _atom_site_type_symbol
 _atom_site_label
 _atom_site_symmetry_multiplicity
 _atom_site_fract_x
 _atom_site_fract_y
 _atom_site_fract_z
 _atom_site_occupancy
  Mg  Mg0_0  1  0.49998550  0.00000200  0.27994700  1
  Mg  Mg0_1  1  0.49998550  0.00000200  0.77994700  1
  Mg  Mg0_2  1  0.49998550  0.50000200  0.27994700  1
  Mg  Mg0_3  1  0.49998550  0.50000200  0.77994700  1
  Mg  Mg0_4  1  0.99998550  0.00000200  0.27994700  1
  Mg  Mg0_5  1  0.99998550  0.00000200  0.77994700  1
  Mg  Mg0_6  1  0.99998550  0.50000200  0.27994700  1
  Mg  Mg0_7  1  0.99998550  0.50000200  0.77994700  1
  Te  Te0_0  1  0.33318950  0.16663300  0.02612350  1
  Te  Te0_1  1  0.33318950  0.16663300  0.52612350  1
  Te  Te0_2  1  0.33318950  0.66663300  0.02612350  1
  Te  Te0_3  1  0.33318950  0.66663300  0.52612350  1
  Te  Te0_4  1  0.83318950  0.16663300  0.02612350  1
  Te  Te0_5  1  0.83318950  0.16663300  0.52612350  1
  Te  Te0_6  1  0.83318950  0.66663300  0.02612350  1
  Te  Te0_7  1  0.83318950  0.66663300  0.52612350  1
  Te  Te1_0  1  0.33321700  0.16657250  0.06782700  1
  Te  Te1_1  1  0.33321700  0.16657250  0.56782700  1
  Te  Te1_2  1  0.33321700  0.66657250  0.06782700  1
  Te  Te1_3  1  0.33321700  0.66657250  0.56782700  1
  Te  Te1_4  1  0.83321700  0.16657250  0.06782700  1
  Te  Te1_5  1  0.83321700  0.16657250  0.56782700  1
  Te  Te1_6  1  0.83321700  0.66657250  0.06782700  1
  Te  Te1_7  1  0.83321700  0.66657250  0.56782700  1
  Mo  Mo0_0  1  0.16662050  0.33332700  0.04697050  1
  Mo  Mo0_1  1  0.16662050  0.33332700  0.54697050  1
  Mo  Mo0_2  1  0.16662050  0.83332700  0.04697050  1
  Mo  Mo0_3  1  0.16662050  0.83332700  0.54697050  1
  Mo  Mo0_4  1  0.66662050  0.33332700  0.04697050  1
  Mo  Mo0_5  1  0.66662050  0.33332700  0.54697050  1
  Mo  Mo0_6  1  0.66662050  0.83332700  0.04697050  1
  Mo  Mo0_7  1  0.66662050  0.83332700  0.54697050  1
  Mo  Mo1_0  1  0.16675550  0.33336600  0.23134350  1
  Mo  Mo1_1  1  0.16675550  0.33336600  0.73134350  1
  Mo  Mo1_2  1  0.16675550  0.83336600  0.23134350  1
  Mo  Mo1_3  1  0.16675550  0.83336600  0.73134350  1
  Mo  Mo1_4  1  0.66675550  0.33336600  0.23134350  1
  Mo  Mo1_5  1  0.66675550  0.33336600  0.73134350  1
  Mo  Mo1_6  1  0.66675550  0.83336600  0.23134350  1
  Mo  Mo1_7  1  0.66675550  0.83336600  0.73134350  1
  Mo  Mo2_0  1  0.33333150  0.16667150  0.14094950  1
  Mo  Mo2_1  1  0.33333150  0.16667150  0.64094950  1
  Mo  Mo2_2  1  0.33333150  0.66667150  0.14094950  1
  Mo  Mo2_3  1  0.33333150  0.66667150  0.64094950  1
  Mo  Mo2_4  1  0.83333150  0.16667150  0.14094950  1
  Mo  Mo2_5  1  0.83333150  0.16667150  0.64094950  1
  Mo  Mo2_6  1  0.83333150  0.66667150  0.14094950  1
  Mo  Mo2_7  1  0.83333150  0.66667150  0.64094950  1
  W  W0_0  1  0.33330250  0.16663600  0.33285650  1
  W  W0_1  1  0.33330250  0.16663600  0.83285650  1
  W  W0_2  1  0.33330250  0.66663600  0.33285650  1
  W  W0_3  1  0.33330250  0.66663600  0.83285650  1
  W  W0_4  1  0.83330250  0.16663600  0.33285650  1
  W  W0_5  1  0.83330250  0.16663600  0.83285650  1
  W  W0_6  1  0.83330250  0.66663600  0.33285650  1
  W  W0_7  1  0.83330250  0.66663600  0.83285650  1
  Se  Se0_0  1  0.16671550  0.33334000  0.35123000  1
  Se  Se0_1  1  0.16671550  0.33334000  0.85123000  1
  Se  Se0_2  1  0.16671550  0.83334000  0.35123000  1
  Se  Se0_3  1  0.16671550  0.83334000  0.85123000  1
  Se  Se0_4  1  0.66671550  0.33334000  0.35123000  1
  Se  Se0_5  1  0.66671550  0.33334000  0.85123000  1
  Se  Se0_6  1  0.66671550  0.83334000  0.35123000  1
  Se  Se0_7  1  0.66671550  0.83334000  0.85123000  1
  Se  Se1_0  1  0.33333650  0.16666950  0.21309350  1
  Se  Se1_1  1  0.33333650  0.16666950  0.71309350  1
  Se  Se1_2  1  0.33333650  0.66666950  0.21309350  1
  Se  Se1_3  1  0.33333650  0.66666950  0.71309350  1
  Se  Se1_4  1  0.83333650  0.16666950  0.21309350  1
  Se  Se1_5  1  0.83333650  0.16666950  0.71309350  1
  Se  Se1_6  1  0.83333650  0.66666950  0.21309350  1
  Se  Se1_7  1  0.83333650  0.66666950  0.71309350  1
  Se  Se2_0  1  0.33336700  0.16661150  0.24993650  1
  Se  Se2_1  1  0.33336700  0.16661150  0.74993650  1
  Se  Se2_2  1  0.33336700  0.66661150  0.24993650  1
  Se  Se2_3  1  0.33336700  0.66661150  0.74993650  1
  Se  Se2_4  1  0.83336700  0.16661150  0.24993650  1
  Se  Se2_5  1  0.83336700  0.16661150  0.74993650  1
  Se  Se2_6  1  0.83336700  0.66661150  0.24993650  1
  Se  Se2_7  1  0.83336700  0.66661150  0.74993650  1
  Se  Se3_0  1  0.16672900  0.33340100  0.31431750  1
  Se  Se3_1  1  0.16672900  0.33340100  0.81431750  1
  Se  Se3_2  1  0.16672900  0.83340100  0.31431750  1
  Se  Se3_3  1  0.16672900  0.83340100  0.81431750  1
  Se  Se3_4  1  0.66672900  0.33340100  0.31431750  1
  Se  Se3_5  1  0.66672900  0.33340100  0.81431750  1
  Se  Se3_6  1  0.66672900  0.83340100  0.31431750  1
  Se  Se3_7  1  0.66672900  0.83340100  0.81431750  1
  S  S0_0  1  0.16672200  0.33335550  0.15760700  1
  S  S0_1  1  0.16672200  0.33335550  0.65760700  1
  S  S0_2  1  0.16672200  0.83335550  0.15760700  1
  S  S0_3  1  0.16672200  0.83335550  0.65760700  1
  S  S0_4  1  0.66672200  0.33335550  0.15760700  1
  S  S0_5  1  0.66672200  0.33335550  0.65760700  1
  S  S0_6  1  0.66672200  0.83335550  0.15760700  1
  S  S0_7  1  0.66672200  0.83335550  0.65760700  1
  S  S1_0  1  0.16672750  0.33341400  0.12428900  1
  S  S1_1  1  0.16672750  0.33341400  0.62428900  1
  S  S1_2  1  0.16672750  0.83341400  0.12428900  1
  S  S1_3  1  0.16672750  0.83341400  0.62428900  1
  S  S1_4  1  0.66672750  0.33341400  0.12428900  1
  S  S1_5  1  0.66672750  0.33341400  0.62428900  1
  S  S1_6  1  0.66672750  0.83341400  0.12428900  1
  S  S1_7  1  0.66672750  0.83341400  0.62428900  1
loop_
_geom_bond_atom_site_label_1
_geom_bond_atom_site_label_2
_geom_bond_distance
_geom_bond_site_symmetry_2
Mg0_0 Mg0_2 3.337759 1_555
Mg0_0 Mg0_2 3.337759 1_545
Mg0_0 Mg0_6 3.338281 1_555
Mg0_0 Mg0_6 3.338281 1_445
Mg0_0 Mg0_4 3.338626 1_555
Mg0_0 Mg0_4 3.338626 1_455
Mg0_0 Se2_0 3.345918 1_555
Mg0_0 Se2_2 3.346659 1_545
Mg0_0 Se2_4 3.346684 1_555
Mg0_1 Mg0_3 3.337759 1_545
Mg0_1 Mg0_3 3.337759 1_555
Mg0_1 Mg0_7 3.338281 1_445
Mg0_1 Mg0_7 3.338281 1_555
Mg0_1 Mg0_5 3.338626 1_455
Mg0_1 Mg0_5 3.338626 1_555
Mg0_1 Se2_1 3.345918 1_555
Mg0_1 Se2_3 3.346659 1_545
Mg0_1 Se2_5 3.346684 1_555
Mg0_2 Mg0_4 3.338281 1_455
Mg0_2 Mg0_4 3.338281 1_565
Mg0_2 Mg0_6 3.338626 1_555
Mg0_2 Mg0_6 3.338626 1_455
Mg0_2 Se2_2 3.345918 1_555
Mg0_2 Se2_0 3.346659 1_555
Mg0_2 Se2_6 3.346684 1_555
Mg0_3 Mg0_5 3.338281 1_565
Mg0_3 Mg0_5 3.338281 1_455
Mg0_3 Mg0_7 3.338626 1_455
Mg0_3 Mg0_7 3.338626 1_555
Mg0_3 Se2_3 3.345918 1_555
Mg0_3 Se2_1 3.346659 1_555
Mg0_3 Se2_7 3.346684 1_555
Mg0_4 Mg0_6 3.337759 1_555
Mg0_4 Mg0_6 3.337759 1_545
Mg0_4 Se2_4 3.345918 1_555
Mg0_4 Se2_6 3.346659 1_545
Mg0_4 Se2_0 3.346684 1_655
Mg0_5 Mg0_7 3.337759 1_545
Mg0_5 Mg0_7 3.337759 1_555
Mg0_5 Se2_5 3.345918 1_555
Mg0_5 Se2_7 3.346659 1_545
Mg0_5 Se2_1 3.346684 1_655
Mg0_6 Se2_6 3.345918 1_555
Mg0_6 Se2_4 3.346659 1_555
Mg0_6 Se2_2 3.346684 1_655
Mg0_7 Se2_7 3.345918 1_555
Mg0_7 Se2_5 3.346659 1_555
Mg0_7 Se2_3 3.346684 1_655
Mo0_0 Te0_2 2.706212 1_555
Mo0_0 Te0_0 2.706448 1_555
Mo0_0 Te1_2 2.706886 1_555
Mo0_0 Te1_0 2.707191 1_555
Mo0_0 Te0_4 2.707284 1_455
Mo0_0 Te1_4 2.707692 1_455
Mo0_1 Te0_3 2.706212 1_555
Mo0_1 Te0_1 2.706448 1_555
Mo0_1 Te1_3 2.706886 1_555
Mo0_1 Te1_1 2.707191 1_555
Mo0_1 Te0_5 2.707284 1_455
Mo0_1 Te1_5 2.707692 1_455
Mo0_2 Te0_0 2.706212 1_565
Mo0_2 Te0_2 2.706448 1_555
Mo0_2 Te1_0 2.706886 1_565
Mo0_2 Te1_2 2.707191 1_555
Mo0_2 Te0_6 2.707284 1_455
Mo0_2 Te1_6 2.707692 1_455
Mo0_3 Te0_1 2.706212 1_565
Mo0_3 Te0_3 2.706448 1_555
Mo0_3 Te1_1 2.706886 1_565
Mo0_3 Te1_3 2.707191 1_555
Mo0_3 Te0_7 2.707284 1_455
Mo0_3 Te1_7 2.707692 1_455
Mo0_4 Te0_6 2.706212 1_555
Mo0_4 Te0_4 2.706448 1_555
Mo0_4 Te1_6 2.706886 1_555
Mo0_4 Te1_4 2.707191 1_555
Mo0_4 Te0_0 2.707284 1_555
Mo0_4 Te1_0 2.707692 1_555
Mo0_5 Te0_7 2.706212 1_555
Mo0_5 Te0_5 2.706448 1_555
Mo0_5 Te1_7 2.706886 1_555
Mo0_5 Te1_5 2.707191 1_555
Mo0_5 Te0_1 2.707284 1_555
Mo0_5 Te1_1 2.707692 1_555
Mo0_6 Te0_4 2.706212 1_565
Mo0_6 Te0_6 2.706448 1_555
Mo0_6 Te1_4 2.706886 1_565
Mo0_6 Te1_6 2.707191 1_555
Mo0_6 Te0_2 2.707284 1_555
Mo0_6 Te1_2 2.707692 1_555
Mo0_7 Te0_5 2.706212 1_565
Mo0_7 Te0_7 2.706448 1_555
Mo0_7 Te1_5 2.706886 1_565
Mo0_7 Te1_7 2.707191 1_555
Mo0_7 Te0_3 2.707284 1_555
Mo0_7 Te1_3 2.707692 1_555
Mo1_0 Se1_2 2.545567 1_555
Mo1_0 Se1_0 2.545856 1_555
Mo1_0 Se1_4 2.546639 1_455
Mo1_0 Se2_2 2.566151 1_555
Mo1_0 Se2_0 2.566570 1_555
Mo1_0 Se2_4 2.566959 1_455
Mo1_1 Se1_3 2.545567 1_555
Mo1_1 Se1_1 2.545856 1_555
Mo1_1 Se1_5 2.546639 1_455
Mo1_1 Se2_3 2.566151 1_555
Mo1_1 Se2_1 2.566570 1_555
Mo1_1 Se2_5 2.566959 1_455
Mo1_2 Se1_0 2.545567 1_565
Mo1_2 Se1_2 2.545856 1_555
Mo1_2 Se1_6 2.546639 1_455
Mo1_2 Se2_0 2.566151 1_565
Mo1_2 Se2_2 2.566570 1_555
Mo1_2 Se2_6 2.566959 1_455
Mo1_3 Se1_1 2.545567 1_565
Mo1_3 Se1_3 2.545856 1_555
Mo1_3 Se1_7 2.546639 1_455
Mo1_3 Se2_1 2.566151 1_565
Mo1_3 Se2_3 2.566570 1_555
Mo1_3 Se2_7 2.566959 1_455
Mo1_4 Se1_6 2.545567 1_555
Mo1_4 Se1_4 2.545856 1_555
Mo1_4 Se1_0 2.546639 1_555
Mo1_4 Se2_6 2.566151 1_555
Mo1_4 Se2_4 2.566570 1_555
Mo1_4 Se2_0 2.566959 1_555
Mo1_5 Se1_7 2.545567 1_555
Mo1_5 Se1_5 2.545856 1_555
Mo1_5 Se1_1 2.546639 1_555
Mo1_5 Se2_7 2.566151 1_555
Mo1_5 Se2_5 2.566570 1_555
Mo1_5 Se2_1 2.566959 1_555
Mo1_6 Se1_4 2.545567 1_565
Mo1_6 Se1_6 2.545856 1_555
Mo1_6 Se1_2 2.546639 1_555
Mo1_6 Se2_4 2.566151 1_565
Mo1_6 Se2_6 2.566570 1_555
Mo1_6 Se2_2 2.566959 1_555
Mo1_7 Se1_5 2.545567 1_565
Mo1_7 Se1_7 2.545856 1_555
Mo1_7 Se1_3 2.546639 1_555
Mo1_7 Se2_5 2.566151 1_565
Mo1_7 Se2_7 2.566570 1_555
Mo1_7 Se2_3 2.566959 1_555
Mo2_0 S0_2 2.453226 1_545
Mo2_0 S1_2 2.453407 1_545
Mo2_0 S0_0 2.453519 1_555
Mo2_0 S1_0 2.453729 1_555
Mo2_0 S0_4 2.454135 1_555
Mo2_0 S1_4 2.454252 1_555
Mo2_1 S0_3 2.453226 1_545
Mo2_1 S1_3 2.453407 1_545
Mo2_1 S0_1 2.453519 1_555
Mo2_1 S1_1 2.453729 1_555
Mo2_1 S0_5 2.454135 1_555
Mo2_1 S1_5 2.454252 1_555
Mo2_2 S0_0 2.453226 1_555
Mo2_2 S1_0 2.453407 1_555
Mo2_2 S0_2 2.453519 1_555
Mo2_2 S1_2 2.453729 1_555
Mo2_2 S0_6 2.454135 1_555
Mo2_2 S1_6 2.454252 1_555
Mo2_3 S0_1 2.453226 1_555
Mo2_3 S1_1 2.453407 1_555
Mo2_3 S0_3 2.453519 1_555
Mo2_3 S1_3 2.453729 1_555
Mo2_3 S0_7 2.454135 1_555
Mo2_3 S1_7 2.454252 1_555
Mo2_4 S0_6 2.453226 1_545
Mo2_4 S1_6 2.453407 1_545
Mo2_4 S0_4 2.453519 1_555
Mo2_4 S1_4 2.453729 1_555
Mo2_4 S0_0 2.454135 1_655
Mo2_4 S1_0 2.454252 1_655
Mo2_5 S0_7 2.453226 1_545
Mo2_5 S1_7 2.453407 1_545
Mo2_5 S0_5 2.453519 1_555
Mo2_5 S1_5 2.453729 1_555
Mo2_5 S0_1 2.454135 1_655
Mo2_5 S1_1 2.454252 1_655
Mo2_6 S0_4 2.453226 1_555
Mo2_6 S1_4 2.453407 1_555
Mo2_6 S0_6 2.453519 1_555
Mo2_6 S1_6 2.453729 1_555
Mo2_6 S0_2 2.454135 1_655
Mo2_6 S1_2 2.454252 1_655
Mo2_7 S0_5 2.453226 1_555
Mo2_7 S1_5 2.453407 1_555
Mo2_7 S0_7 2.453519 1_555
Mo2_7 S1_7 2.453729 1_555
Mo2_7 S0_3 2.454135 1_655
Mo2_7 S1_3 2.454252 1_655
Se0_0 W0_2 2.552905 1_555
Se0_0 W0_0 2.553286 1_555
Se0_0 W0_4 2.553981 1_455
Se0_1 W0_3 2.552905 1_555
Se0_1 W0_1 2.553286 1_555
Se0_1 W0_5 2.553981 1_455
Se0_2 W0_0 2.552905 1_565
Se0_2 W0_2 2.553286 1_555
Se0_2 W0_6 2.553981 1_455
Se0_3 W0_1 2.552905 1_565
Se0_3 W0_3 2.553286 1_555
Se0_3 W0_7 2.553981 1_455
Se0_4 W0_6 2.552905 1_555
Se0_4 W0_4 2.553286 1_555
Se0_4 W0_0 2.553981 1_555
Se0_5 W0_7 2.552905 1_555
Se0_5 W0_5 2.553286 1_555
Se0_5 W0_1 2.553981 1_555
Se0_6 W0_4 2.552905 1_565
Se0_6 W0_6 2.553286 1_555
Se0_6 W0_2 2.553981 1_555
Se0_7 W0_5 2.552905 1_565
Se0_7 W0_7 2.553286 1_555
Se0_7 W0_3 2.553981 1_555
Se3_0 W0_2 2.562857 1_555
Se3_0 W0_0 2.563203 1_555
Se3_0 W0_4 2.563877 1_455
Se3_1 W0_3 2.562857 1_555
Se3_1 W0_1 2.563203 1_555
Se3_1 W0_5 2.563877 1_455
Se3_2 W0_0 2.562857 1_565
Se3_2 W0_2 2.563203 1_555
Se3_2 W0_6 2.563877 1_455
Se3_3 W0_1 2.562857 1_565
Se3_3 W0_3 2.563203 1_555
Se3_3 W0_7 2.563877 1_455
Se3_4 W0_6 2.562857 1_555
Se3_4 W0_4 2.563203 1_555
Se3_4 W0_0 2.563877 1_555
Se3_5 W0_7 2.562857 1_555
Se3_5 W0_5 2.563203 1_555
Se3_5 W0_1 2.563877 1_555
Se3_6 W0_4 2.562857 1_565
Se3_6 W0_6 2.563203 1_555
Se3_6 W0_2 2.563877 1_555
Se3_7 W0_5 2.562857 1_565
Se3_7 W0_7 2.563203 1_555
Se3_7 W0_3 2.563877 1_555
