# generated using pymatgen
data_MgTl4(MoO4)2
_symmetry_space_group_name_H-M   'P 1'
_cell_length_a   6.37308540
_cell_length_b   6.81792083
_cell_length_c   8.26904301
_cell_angle_alpha   85.46980556
_cell_angle_beta   90.24109167
_cell_angle_gamma   63.37893144
_symmetry_Int_Tables_number   1
_chemical_formula_structural   MgTl4(MoO4)2
_chemical_formula_sum   'Mg1 Tl4 Mo2 O8'
_cell_volume   319.89045800
_cell_formula_units_Z   1
loop_
 _symmetry_equiv_pos_site_id
 _symmetry_equiv_pos_as_xyz
  1  'x, y, z'
loop_
 _atom_site_type_symbol
 _atom_site_label
 _atom_site_symmetry_multiplicity
 _atom_site_fract_x
 _atom_site_fract_y
 _atom_site_fract_z
 _atom_site_occupancy
  Mg  Mg0  1  0.87015061  0.35992212  0.48379893  1
  Tl  Tl0  1  0.61373638  0.73107378  0.16990080  1
  Tl  Tl1  1  0.30514684  0.36082527  0.81840491  1
  Tl  Tl2  1  0.03552675  0.82364553  0.47809752  1
  Tl  Tl3  1  0.99213077  0.00723153  0.96317588  1
  Mo  Mo0  1  0.39656582  0.32011864  0.28568522  1
  Mo  Mo1  1  0.65958342  0.66318546  0.72864550  1
  O  O0  1  0.27461712  0.62135212  0.22742166  1
  O  O1  1  0.35929587  0.74997509  0.79211717  1
  O  O2  1  0.40394509  0.14843177  0.11920118  1
  O  O3  1  0.86351301  0.74344042  0.82517735  1
  O  O4  1  0.71365144  0.23707982  0.34772877  1
  O  O5  1  0.81347517  0.34764048  0.72286765  1
  O  O6  1  0.69401585  0.68904079  0.49579416  1
  O  O7  1  0.19191286  0.30143720  0.44042129  1
loop_
_geom_bond_atom_site_label_1
_geom_bond_atom_site_label_2
_geom_bond_distance
_geom_bond_site_symmetry_2
Mg0 O7 1.946457 1_655
Mg0 O4 1.962209 1_555
Mg0 O5 2.013071 1_555
Mg0 O6 2.020837 1_555
Mo0 O0 1.861252 1_555
Mo0 O2 1.863697 1_555
Mo0 O7 1.868606 1_555
Mo0 O4 1.894074 1_555
Mo1 O3 1.822978 1_555
Mo1 O1 1.825032 1_555
Mo1 O5 1.928278 1_555
Mo1 O6 1.941963 1_555
O0 Tl0 2.618805 1_555
O0 Tl2 2.667502 1_555
O1 Tl3 2.700796 1_465
O1 Tl1 2.817063 1_555
O2 Tl0 2.541192 1_545
O2 Tl1 2.698291 1_554
O3 Tl3 2.616516 1_565
O3 Tl1 2.859099 1_655
O4 Tl2 2.763154 1_645
O5 Tl3 2.741491 1_555
O6 Tl0 2.709424 1_555
O6 Tl2 2.715176 1_655
