# generated using pymatgen
data_Sr4MgFe2(SO3)2
_symmetry_space_group_name_H-M   'P 1'
_cell_length_a   3.94121287
_cell_length_b   3.94143475
_cell_length_c   16.89719577
_cell_angle_alpha   97.06552295
_cell_angle_beta   82.89897678
_cell_angle_gamma   90.03436120
_symmetry_Int_Tables_number   1
_chemical_formula_structural   Sr4MgFe2(SO3)2
_chemical_formula_sum   'Sr4 Mg1 Fe2 S2 O6'
_cell_volume   258.46190492
_cell_formula_units_Z   1
loop_
 _symmetry_equiv_pos_site_id
 _symmetry_equiv_pos_as_xyz
  1  'x, y, z'
loop_
 _atom_site_type_symbol
 _atom_site_label
 _atom_site_symmetry_multiplicity
 _atom_site_fract_x
 _atom_site_fract_y
 _atom_site_fract_z
 _atom_site_occupancy
  Sr  Sr0  1  0.66557700  0.83678800  0.06144700  1
  Sr  Sr1  1  0.25170900  0.24687900  0.83093500  1
  Sr  Sr2  1  0.94157600  0.55516400  0.45299400  1
  Sr  Sr3  1  0.36599500  0.13293300  0.61217900  1
  Mg  Mg0  1  0.51812500  0.98278800  0.33124300  1
  Fe  Fe0  1  0.05938200  0.44204200  0.25571100  1
  Fe  Fe1  1  0.81429000  0.68447500  0.71135000  1
  S  S0  1  0.13679800  0.36539500  0.11516500  1
  S  S1  1  0.71568800  0.78259100  0.89649100  1
  O  O0  1  0.53880100  0.46307000  0.29470300  1
  O  O1  1  0.03817500  0.96253500  0.29464600  1
  O  O2  1  0.30825600  0.69049600  0.72299600  1
  O  O3  1  0.80822200  0.19049400  0.72298100  1
  O  O4  1  0.45975900  0.04279700  0.45233600  1
  O  O5  1  0.87764800  0.62155800  0.59204700  1
loop_
_geom_bond_atom_site_label_1
_geom_bond_atom_site_label_2
_geom_bond_distance
_geom_bond_site_symmetry_2
Mg0 O4 2.014982 1_565
Mg0 O1 2.060035 1_555
Mg0 O0 2.060633 1_565
Mg0 O0 2.064112 1_555
Mg0 O1 2.065051 1_655
Fe0 O1 2.074367 1_555
Fe0 O0 2.074385 1_455
Fe0 O1 2.074560 1_545
Fe0 O0 2.074923 1_555
Fe0 S0 2.338516 1_555
Fe1 O2 1.979582 1_555
Fe1 O3 1.979762 1_565
Fe1 O3 1.980631 1_555
Fe1 O2 1.980639 1_655
Fe1 O5 1.985015 1_555
Fe1 S1 3.080457 1_555
S0 Sr0 2.925879 1_445
S0 Sr0 2.925892 1_455
S0 Sr0 2.926031 1_555
S0 Sr0 2.929199 1_545
S1 Sr0 2.751566 1_556
S1 Sr1 2.987174 1_565
S1 Sr1 2.991665 1_555
S1 Sr1 2.992360 1_665
S1 Sr1 2.999951 1_655
O2 Sr1 2.664830 1_565
O2 Sr1 2.667757 1_555
O2 Sr3 2.696366 1_555
O2 Sr3 2.701197 1_565
O3 Sr1 2.664433 1_555
O3 Sr1 2.668325 1_655
O3 Sr3 2.695891 1_655
O3 Sr3 2.701168 1_555
O4 Sr3 2.659880 1_555
O4 Sr2 2.704616 1_545
O4 Sr2 2.771178 1_555
O4 Sr2 2.803552 1_445
O4 Sr2 2.871066 1_455
O5 Sr2 2.314101 1_555
O5 Sr3 2.802967 1_655
O5 Sr3 2.805549 1_665
O5 Sr3 2.806789 1_555
O5 Sr3 2.812681 1_565
