# generated using pymatgen
data_Er2MgNb2O8
_symmetry_space_group_name_H-M   'P 1'
_cell_length_a   5.22122102
_cell_length_b   6.30081990
_cell_length_c   5.49766000
_cell_angle_alpha   90.00000000
_cell_angle_beta   79.21380110
_cell_angle_gamma   90.00000000
_symmetry_Int_Tables_number   1
_chemical_formula_structural   Er2MgNb2O8
_chemical_formula_sum   'Er2 Mg1 Nb2 O8'
_cell_volume   177.66646912
_cell_formula_units_Z   1
loop_
 _symmetry_equiv_pos_site_id
 _symmetry_equiv_pos_as_xyz
  1  'x, y, z'
loop_
 _atom_site_type_symbol
 _atom_site_label
 _atom_site_symmetry_multiplicity
 _atom_site_fract_x
 _atom_site_fract_y
 _atom_site_fract_z
 _atom_site_occupancy
  Er  Er0  1  0.25000000  0.95082829  0.00000000  1
  Er  Er1  1  0.75000000  0.35270155  0.00000000  1
  Mg  Mg0  1  0.75000000  0.08625510  0.50000000  1
  Nb  Nb0  1  0.25000000  0.38832093  0.50000000  1
  Nb  Nb1  1  0.75000000  0.62317578  0.50000000  1
  O  O0  1  0.04650412  0.14255436  0.75367633  1
  O  O1  1  0.01486357  0.57360021  0.75015067  1
  O  O2  1  0.48513643  0.57360021  0.24984933  1
  O  O3  1  0.45349588  0.14255436  0.24632367  1
  O  O4  1  0.56740268  0.84661281  0.71599389  1
  O  O5  1  0.54931463  0.34373480  0.68819413  1
  O  O6  1  0.95068537  0.34373480  0.31180587  1
  O  O7  1  0.93259732  0.84661281  0.28400611  1
loop_
_geom_bond_atom_site_label_1
_geom_bond_atom_site_label_2
_geom_bond_distance
_geom_bond_site_symmetry_2
Er0 O7 2.155684 1_455
Er0 O4 2.155684 1_554
Er0 O3 2.227252 1_565
Er0 O0 2.227252 1_564
Er1 O5 2.170693 1_554
Er1 O6 2.170693 1_555
Er1 O1 2.241747 1_654
Er1 O2 2.241747 1_555
Er1 O3 2.280149 1_555
Er1 O0 2.280149 1_654
Mg0 O7 2.043329 1_545
Mg0 O4 2.043329 1_545
Mg0 O5 2.096326 1_555
Mg0 O6 2.096326 1_555
Mg0 O3 2.296863 1_555
Mg0 O0 2.296863 1_655
Nb0 O2 2.032103 1_555
Nb0 O1 2.032103 1_555
Nb0 O6 2.048626 1_455
Nb0 O5 2.048626 1_555
Nb0 O3 2.217479 1_555
Nb0 O0 2.217479 1_555
Nb1 O4 1.969078 1_555
Nb1 O7 1.969078 1_555
Nb1 O1 2.147824 1_655
Nb1 O2 2.147824 1_555
Nb1 O5 2.205155 1_555
Nb1 O6 2.205155 1_555
