# generated using pymatgen
data_Na3FePCO7
_symmetry_space_group_name_H-M   'P 1'
_cell_length_a   6.68129200
_cell_length_b   5.21795100
_cell_length_c   9.08663547
_cell_angle_alpha   89.38793239
_cell_angle_beta   90.00000000
_cell_angle_gamma   90.00000000
_symmetry_Int_Tables_number   1
_chemical_formula_structural   Na3FePCO7
_chemical_formula_sum   'Na6 Fe2 P2 C2 O14'
_cell_volume   316.76615565
_cell_formula_units_Z   2
loop_
 _symmetry_equiv_pos_site_id
 _symmetry_equiv_pos_as_xyz
  1  'x, y, z'
loop_
 _atom_site_type_symbol
 _atom_site_label
 _atom_site_symmetry_multiplicity
 _atom_site_fract_x
 _atom_site_fract_y
 _atom_site_fract_z
 _atom_site_occupancy
  Na  Na0  1  0.49606300  0.25084400  0.26210900  1
  Na  Na1  1  0.99606300  0.74915600  0.73789100  1
  Na  Na2  1  0.50393700  0.74915600  0.73789100  1
  Na  Na3  1  0.00393700  0.25084400  0.26210900  1
  Na  Na4  1  0.75000000  0.23377900  0.91652400  1
  Na  Na5  1  0.25000000  0.76622100  0.08347600  1
  Fe  Fe0  1  0.25000000  0.21809300  0.64574300  1
  Fe  Fe1  1  0.75000000  0.78190700  0.35425700  1
  P  P0  1  0.75000000  0.29770400  0.58359600  1
  P  P1  1  0.25000000  0.70229600  0.41640400  1
  C  C0  1  0.25000000  0.27179100  0.93757800  1
  C  C1  1  0.75000000  0.72820900  0.06242200  1
  O  O0  1  0.25000000  0.04736300  0.87562000  1
  O  O1  1  0.75000000  0.95263700  0.12438000  1
  O  O2  1  0.25000000  0.47664400  0.85426900  1
  O  O3  1  0.75000000  0.52335600  0.14573100  1
  O  O4  1  0.25000000  0.29022900  0.07994900  1
  O  O5  1  0.75000000  0.70977100  0.92005100  1
  O  O6  1  0.93616300  0.21795200  0.67786700  1
  O  O7  1  0.43616300  0.78204800  0.32213300  1
  O  O8  1  0.06383700  0.78204800  0.32213300  1
  O  O9  1  0.56383700  0.21795200  0.67786700  1
  O  O10  1  0.75000000  0.16875100  0.43156000  1
  O  O11  1  0.25000000  0.83124900  0.56844000  1
  O  O12  1  0.25000000  0.40479300  0.43752700  1
  O  O13  1  0.75000000  0.59520700  0.56247300  1
loop_
_geom_bond_atom_site_label_1
_geom_bond_atom_site_label_2
_geom_bond_distance
_geom_bond_site_symmetry_2
Na0 O10 2.327819 1_555
Na0 O4 2.340411 1_555
Na0 O12 2.432313 1_555
Na0 O3 2.446762 1_555
Na0 O7 2.532353 1_545
Na0 O1 2.628234 1_545
Na0 O7 2.858811 1_555
Na1 O11 2.327819 1_655
Na1 O5 2.340411 1_555
Na1 O13 2.432313 1_555
Na1 O2 2.446762 1_655
Na1 O6 2.532353 1_565
Na1 O0 2.628234 1_665
Na1 O6 2.858811 1_555
Na2 O11 2.327819 1_555
Na2 O5 2.340411 1_555
Na2 O13 2.432313 1_555
Na2 O2 2.446762 1_555
Na2 O9 2.532353 1_565
Na2 O0 2.628234 1_565
Na2 O9 2.858811 1_555
Na3 O10 2.327819 1_455
Na3 O4 2.340411 1_555
Na3 O12 2.432313 1_555
Na3 O3 2.446762 1_455
Na3 O8 2.532353 1_545
Na3 O1 2.628234 1_445
Na3 O8 2.858811 1_555
Na4 O1 2.379093 1_546
Na4 O5 2.484252 1_555
Na4 O6 2.502097 1_555
Na4 O9 2.502097 1_555
Na4 O3 2.586131 1_556
Na4 O5 2.734094 1_545
Na5 O0 2.379093 1_564
Na5 O4 2.484252 1_555
Na5 O7 2.502097 1_555
Na5 O8 2.502097 1_555
Na5 O2 2.586131 1_554
Na5 O4 2.734094 1_565
Fe0 O9 2.117056 1_555
Fe0 O6 2.117056 1_455
Fe0 O12 2.118790 1_555
Fe0 O11 2.144334 1_545
Fe0 O0 2.262078 1_555
Fe0 O2 2.337727 1_555
Fe1 O8 2.117056 1_655
Fe1 O7 2.117056 1_555
Fe1 O13 2.118790 1_555
Fe1 O10 2.144334 1_565
Fe1 O1 2.262078 1_555
Fe1 O3 2.337727 1_555
C0 O4 1.298270 1_556
C0 O2 1.303201 1_555
C0 O0 1.304765 1_555
C1 O5 1.298270 1_554
C1 O3 1.303201 1_555
C1 O1 1.304765 1_555
O6 P0 1.564095 1_555
O7 P1 1.564095 1_555
O8 P1 1.564095 1_555
O9 P0 1.564095 1_555
O10 P0 1.543096 1_555
O11 P1 1.543096 1_555
O12 P1 1.562141 1_555
O13 P0 1.562141 1_555
