# generated using pymatgen
data_MgMn4(HO4)2
_symmetry_space_group_name_H-M   'P 1'
_cell_length_a   10.00492677
_cell_length_b   2.96876447
_cell_length_c   5.36478145
_cell_angle_alpha   90.00000000
_cell_angle_beta   90.32882637
_cell_angle_gamma   90.00000000
_symmetry_Int_Tables_number   1
_chemical_formula_structural   MgMn4(HO4)2
_chemical_formula_sum   'Mg1 Mn4 H2 O8'
_cell_volume   159.34356903
_cell_formula_units_Z   1
loop_
 _symmetry_equiv_pos_site_id
 _symmetry_equiv_pos_as_xyz
  1  'x, y, z'
loop_
 _atom_site_type_symbol
 _atom_site_label
 _atom_site_symmetry_multiplicity
 _atom_site_fract_x
 _atom_site_fract_y
 _atom_site_fract_z
 _atom_site_occupancy
  Mg  Mg0  1  0.88636960  0.75000000  0.40897041  1
  Mn  Mn0  1  0.61983766  0.25000000  0.45150884  1
  Mn  Mn1  1  0.15104250  0.25000000  0.06082256  1
  Mn  Mn2  1  0.34643835  0.75000000  0.57362275  1
  Mn  Mn3  1  0.84358633  0.75000000  0.92485746  1
  H  H0  1  0.44991396  0.25000000  0.92128862  1
  H  H1  1  0.05326639  0.25000000  0.63643645  1
  O  O0  1  0.45174154  0.25000000  0.73835630  1
  O  O1  1  0.95536074  0.25000000  0.65026027  1
  O  O2  1  0.50468694  0.75000000  0.33515020  1
  O  O3  1  0.02982544  0.75000000  0.14807549  1
  O  O4  1  0.78798132  0.25000000  0.18784193  1
  O  O5  1  0.25770545  0.25000000  0.40995253  1
  O  O6  1  0.23270756  0.75000000  0.87565529  1
  O  O7  1  0.71667524  0.75000000  0.62164488  1
loop_
_geom_bond_atom_site_label_1
_geom_bond_atom_site_label_2
_geom_bond_distance
_geom_bond_site_symmetry_2
Mg0 O3 2.010485 1_655
Mg0 O7 2.050966 1_555
Mg0 O1 2.084521 1_565
Mg0 O1 2.084521 1_555
Mg0 O4 2.136888 1_555
Mg0 O4 2.136888 1_565
Mn0 O2 1.977899 1_545
Mn0 O2 1.977899 1_555
Mn0 O7 1.991235 1_555
Mn0 O7 1.991235 1_545
Mn0 O4 2.204129 1_555
Mn0 O0 2.286100 1_555
Mn1 O6 1.966492 1_544
Mn1 O6 1.966492 1_554
Mn1 O3 1.974797 1_545
Mn1 O3 1.974797 1_555
Mn1 O5 2.150356 1_555
Mn2 O5 1.937409 1_555
Mn2 O5 1.937409 1_565
Mn2 O6 1.985297 1_555
Mn2 O0 2.020818 1_555
Mn2 O0 2.020818 1_565
Mn2 O2 2.041255 1_555
Mn3 O7 2.057808 1_555
Mn3 O4 2.124242 1_556
Mn3 O4 2.124242 1_566
Mn3 O3 2.209152 1_656
Mn3 O1 2.375514 1_565
Mn3 O1 2.375514 1_555
H0 O0 0.981667 1_555
H1 O1 0.982767 1_455
