# generated using pymatgen
data_K2Na2Sm2MgNb2O10
_symmetry_space_group_name_H-M   'P 1'
_cell_length_a   5.89309750
_cell_length_b   5.89309750
_cell_length_c   9.01372309
_cell_angle_alpha   89.79424114
_cell_angle_beta   90.20575886
_cell_angle_gamma   86.24204886
_symmetry_Int_Tables_number   1
_chemical_formula_structural   K2Na2Sm2MgNb2O10
_chemical_formula_sum   'K2 Na2 Sm2 Mg1 Nb2 O10'
_cell_volume   312.35658256
_cell_formula_units_Z   1
loop_
 _symmetry_equiv_pos_site_id
 _symmetry_equiv_pos_as_xyz
  1  'x, y, z'
loop_
 _atom_site_type_symbol
 _atom_site_label
 _atom_site_symmetry_multiplicity
 _atom_site_fract_x
 _atom_site_fract_y
 _atom_site_fract_z
 _atom_site_occupancy
  K  K0  1  0.24461122  0.87296691  0.95616445  1
  K  K1  1  0.62703309  0.25538878  0.95616445  1
  Na  Na0  1  0.70706257  0.79293743  0.28148494  1
  Na  Na1  1  0.26743537  0.23256463  0.67868681  1
  Sm  Sm0  1  0.78754090  0.27817231  0.48170085  1
  Sm  Sm1  1  0.22182769  0.71245910  0.48170085  1
  Mg  Mg0  1  0.99357579  0.50642421  0.09730959  1
  Nb  Nb0  1  0.29030506  0.20969494  0.29452111  1
  Nb  Nb1  1  0.75819295  0.74180705  0.73199234  1
  O  O0  1  0.83115586  0.66884414  0.93819892  1
  O  O1  1  0.52691765  0.97308235  0.76168543  1
  O  O2  1  0.99672874  0.50327126  0.30989123  1
  O  O3  1  0.54043796  0.53819838  0.64562926  1
  O  O4  1  0.99357887  0.50642113  0.63283113  1
  O  O5  1  0.96180162  0.95956204  0.64562926  1
  O  O6  1  0.03710866  0.01445370  0.33519323  1
  O  O7  1  0.48554630  0.46289134  0.33519323  1
  O  O8  1  0.22492701  0.27507299  0.06931303  1
  O  O9  1  0.48337970  0.01662030  0.42920990  1
loop_
_geom_bond_atom_site_label_1
_geom_bond_atom_site_label_2
_geom_bond_distance
_geom_bond_site_symmetry_2
K0 O1 2.516142 1_555
K0 O8 2.578963 1_566
K0 O0 2.791538 1_455
K1 O1 2.516142 1_545
K1 O8 2.578963 1_556
K1 O0 2.791538 1_555
Na0 O9 2.246262 1_565
Na0 O2 2.346321 1_555
Na0 O6 2.460097 1_665
Na0 O7 2.460097 1_555
Na1 O1 2.216613 1_545
Na1 O4 2.242533 1_455
Na1 O5 2.510104 1_445
Na1 O3 2.510104 1_555
Na1 O9 2.850346 1_555
Mg0 O8 1.882167 1_655
Mg0 O2 1.916187 1_555
Mg0 O0 1.936326 1_554
Nb0 O9 1.968141 1_555
Nb0 O7 1.977514 1_555
Nb0 O6 1.977514 1_555
Nb0 O8 2.094502 1_555
Nb0 O2 2.369936 1_455
Nb1 O1 1.883752 1_555
Nb1 O0 1.946477 1_555
Nb1 O5 1.973276 1_555
Nb1 O3 1.973276 1_555
Nb1 O4 2.100681 1_555
O2 Sm0 2.427140 1_555
O2 Sm1 2.427140 1_655
O3 Sm0 2.528078 1_555
O3 Sm1 2.545530 1_555
O4 Sm1 2.314010 1_655
O4 Sm0 2.314010 1_555
O5 Sm1 2.528078 1_655
O5 Sm0 2.545530 1_565
O6 Sm1 2.411437 1_545
O6 Sm0 2.459945 1_455
O7 Sm0 2.411437 1_555
O7 Sm1 2.459945 1_555
O9 Sm1 2.484715 1_545
O9 Sm0 2.484715 1_555
