# generated using pymatgen
data_MgFe4(PO4)4
_symmetry_space_group_name_H-M   'P 1'
_cell_length_a   10.08188744
_cell_length_b   5.93150800
_cell_length_c   5.03917889
_cell_angle_alpha   90.00130237
_cell_angle_beta   88.89880137
_cell_angle_gamma   89.99942341
_symmetry_Int_Tables_number   1
_chemical_formula_structural   MgFe4(PO4)4
_chemical_formula_sum   'Mg1 Fe4 P4 O16'
_cell_volume   301.29125293
_cell_formula_units_Z   1
loop_
 _symmetry_equiv_pos_site_id
 _symmetry_equiv_pos_as_xyz
  1  'x, y, z'
loop_
 _atom_site_type_symbol
 _atom_site_label
 _atom_site_symmetry_multiplicity
 _atom_site_fract_x
 _atom_site_fract_y
 _atom_site_fract_z
 _atom_site_occupancy
  Mg  Mg0  1  0.06693200  0.74999900  0.07072900  1
  Fe  Fe0  1  0.76620300  0.24999900  0.54262900  1
  Fe  Fe1  1  0.71732800  0.75000800  0.06298200  1
  Fe  Fe2  1  0.28252900  0.25000100  0.93848700  1
  Fe  Fe3  1  0.24463500  0.75000200  0.48890100  1
  P  P0  1  0.09049700  0.24999900  0.37777600  1
  P  P1  1  0.40913500  0.74999600  0.92073700  1
  P  P2  1  0.59586100  0.25000800  0.10985700  1
  P  P3  1  0.90178100  0.75000800  0.59378800  1
  O  O0  1  0.55271800  0.74999800  0.83676900  1
  O  O1  1  0.90153100  0.74999900  0.28681400  1
  O  O2  1  0.83170200  0.95698300  0.72123900  1
  O  O3  1  0.83169800  0.54301400  0.72125200  1
  O  O4  1  0.05143400  0.74999800  0.68130600  1
  O  O5  1  0.13649100  0.24999800  0.66407700  1
  O  O6  1  0.15387400  0.04282200  0.21660600  1
  O  O7  1  0.15387400  0.45717600  0.21660700  1
  O  O8  1  0.33033300  0.54699900  0.78606100  1
  O  O9  1  0.66516300  0.45028400  0.25859600  1
  O  O10  1  0.38345500  0.75000200  0.21866900  1
  O  O11  1  0.44389500  0.25000300  0.15235100  1
  O  O12  1  0.94089000  0.25000000  0.34689200  1
  O  O13  1  0.62754300  0.24999800  0.81166900  1
  O  O14  1  0.66516200  0.04970000  0.25859500  1
  O  O15  1  0.33033700  0.95300100  0.78605700  1
loop_
_geom_bond_atom_site_label_1
_geom_bond_atom_site_label_2
_geom_bond_distance
_geom_bond_site_symmetry_2
Mg0 O4 1.971574 1_554
Mg0 O1 1.973988 1_455
Mg0 O6 2.085711 1_565
Mg0 O7 2.085726 1_555
Fe0 O13 1.928591 1_555
Fe0 O12 2.001964 1_555
Fe0 O3 2.071167 1_555
Fe0 O2 2.071179 1_545
Fe0 O9 2.133944 1_555
Fe0 O14 2.133974 1_555
Fe1 O0 2.031343 1_554
Fe1 O14 2.094801 1_565
Fe1 O9 2.095009 1_555
Fe1 O1 2.191258 1_555
Fe1 O3 2.392904 1_554
Fe1 O2 2.392964 1_554
Fe2 O11 1.968640 1_556
Fe2 O15 1.977741 1_545
Fe2 O8 1.977753 1_555
Fe2 O5 2.039160 1_555
Fe2 O7 2.255380 1_556
Fe2 O6 2.255438 1_556
Fe3 O10 1.933880 1_555
Fe3 O15 2.118570 1_555
Fe3 O8 2.118609 1_555
Fe3 O4 2.159053 1_555
Fe3 O7 2.405217 1_555
Fe3 O6 2.405226 1_565
O0 P1 1.500335 1_555
O1 P3 1.546947 1_555
O2 P3 1.549630 1_555
O3 P3 1.549799 1_555
O4 P3 1.580033 1_455
O5 P0 1.523871 1_555
O6 P0 1.599375 1_555
O7 P0 1.599410 1_555
O8 P1 1.600710 1_555
O9 P2 1.575202 1_555
O10 P1 1.518582 1_554
O11 P2 1.542915 1_555
O12 P0 1.519301 1_655
O13 P2 1.530181 1_556
O14 P2 1.575353 1_555
O15 P1 1.600745 1_555
