# generated using pymatgen
data_Mg2Ta4P6(SO12)3
_symmetry_space_group_name_H-M   'P 1'
_cell_length_a   8.74508554
_cell_length_b   8.74508526
_cell_length_c   22.52231150
_cell_angle_alpha   90.00000000
_cell_angle_beta   90.00000000
_cell_angle_gamma   120.00000107
_symmetry_Int_Tables_number   1
_chemical_formula_structural   Mg2Ta4P6(SO12)3
_chemical_formula_sum   'Mg4 Ta8 P12 S6 O72'
_cell_volume   1491.66636658
_cell_formula_units_Z   2
loop_
 _symmetry_equiv_pos_site_id
 _symmetry_equiv_pos_as_xyz
  1  'x, y, z'
loop_
 _atom_site_type_symbol
 _atom_site_label
 _atom_site_symmetry_multiplicity
 _atom_site_fract_x
 _atom_site_fract_y
 _atom_site_fract_z
 _atom_site_occupancy
  Mg  Mg0  1  0.00000000  0.00000000  0.35850551  1
  Mg  Mg1  1  0.00000000  0.00000000  0.85850551  1
  Mg  Mg2  1  0.66666700  0.33333300  0.68656108  1
  Mg  Mg3  1  0.66666700  0.33333300  0.18656108  1
  Ta  Ta0  1  0.00000000  0.00000000  0.64144046  1
  Ta  Ta1  1  0.00000000  0.00000000  0.14144046  1
  Ta  Ta2  1  0.66666700  0.33333300  0.97592635  1
  Ta  Ta3  1  0.66666700  0.33333300  0.47592635  1
  Ta  Ta4  1  0.33333300  0.66666700  0.02282838  1
  Ta  Ta5  1  0.33333300  0.66666700  0.52282838  1
  Ta  Ta6  1  0.33333300  0.66666700  0.31160950  1
  Ta  Ta7  1  0.33333300  0.66666700  0.81160950  1
  P  P0  1  0.95006458  0.33548204  0.58487929  1
  P  P1  1  0.38541846  0.04993542  0.58487929  1
  P  P2  1  0.66451796  0.61458154  0.58487929  1
  P  P3  1  0.95006458  0.61458154  0.08487929  1
  P  P4  1  0.66451796  0.04993542  0.08487929  1
  P  P5  1  0.38541846  0.33548204  0.08487929  1
  P  P6  1  0.62231146  0.66970192  0.91642267  1
  P  P7  1  0.04738946  0.37768854  0.91642267  1
  P  P8  1  0.33029808  0.95261054  0.91642267  1
  P  P9  1  0.62231146  0.95261054  0.41642267  1
  P  P10  1  0.33029808  0.37768854  0.41642267  1
  P  P11  1  0.04738946  0.66970192  0.41642267  1
  S  S0  1  0.28920980  0.00414318  0.25110899  1
  S  S1  1  0.71493338  0.71079020  0.25110899  1
  S  S2  1  0.99585683  0.28506662  0.25110899  1
  S  S3  1  0.28920980  0.28506662  0.75110899  1
  S  S4  1  0.99585683  0.71079020  0.75110899  1
  S  S5  1  0.71493338  0.00414318  0.75110899  1
  O  O0  1  0.20444538  0.02549981  0.30299264  1
  O  O1  1  0.82105444  0.79555462  0.30299264  1
  O  O2  1  0.97450019  0.17894556  0.30299264  1
  O  O3  1  0.20444538  0.17894556  0.80299264  1
  O  O4  1  0.97450019  0.79555462  0.80299264  1
  O  O5  1  0.82105444  0.02549981  0.80299264  1
  O  O6  1  0.79683364  0.96907350  0.69656699  1
  O  O7  1  0.17223986  0.20316636  0.69656699  1
  O  O8  1  0.03092650  0.82776014  0.69656699  1
  O  O9  1  0.79683364  0.82776014  0.19656699  1
  O  O10  1  0.03092650  0.20316636  0.19656699  1
  O  O11  1  0.17223986  0.96907350  0.19656699  1
  O  O12  1  0.87722463  0.36934321  0.63964994  1
  O  O13  1  0.49211958  0.12277537  0.63964994  1
  O  O14  1  0.63065679  0.50788042  0.63964994  1
  O  O15  1  0.87722463  0.50788042  0.13964994  1
  O  O16  1  0.63065679  0.12277537  0.13964994  1
  O  O17  1  0.49211958  0.36934321  0.13964994  1
  O  O18  1  0.46572379  0.30031449  0.02850965  1
  O  O19  1  0.83459170  0.53427621  0.02850965  1
  O  O20  1  0.69968551  0.16540830  0.02850965  1
  O  O21  1  0.46572379  0.16540830  0.52850965  1
  O  O22  1  0.69968551  0.53427621  0.52850965  1
  O  O23  1  0.83459170  0.30031449  0.52850965  1
  O  O24  1  0.52590483  0.68906883  0.97109965  1
  O  O25  1  0.16316300  0.47409517  0.97109965  1
  O  O26  1  0.31093117  0.83683700  0.97109965  1
  O  O27  1  0.52590483  0.83683700  0.47109965  1
  O  O28  1  0.31093117  0.47409517  0.47109965  1
  O  O29  1  0.16316300  0.68906883  0.47109965  1
  O  O30  1  0.13576804  0.63230768  0.36122681  1
  O  O31  1  0.49653864  0.86423196  0.36122681  1
  O  O32  1  0.36769232  0.50346136  0.36122681  1
  O  O33  1  0.13576804  0.50346136  0.86122681  1
  O  O34  1  0.36769232  0.86423196  0.86122681  1
  O  O35  1  0.49653864  0.63230768  0.86122681  1
  O  O36  1  0.02737951  0.82624617  0.40761985  1
  O  O37  1  0.79886667  0.97262049  0.40761985  1
  O  O38  1  0.17375383  0.20113333  0.40761985  1
  O  O39  1  0.02737951  0.20113333  0.90761985  1
  O  O40  1  0.17375383  0.97262049  0.90761985  1
  O  O41  1  0.79886667  0.82624617  0.90761985  1
  O  O42  1  0.97470132  0.16947010  0.59402847  1
  O  O43  1  0.19476878  0.02529868  0.59402847  1
  O  O44  1  0.83052990  0.80523122  0.59402847  1
  O  O45  1  0.97470132  0.80523122  0.09402847  1
  O  O46  1  0.83052990  0.02529868  0.09402847  1
  O  O47  1  0.19476878  0.16947010  0.09402847  1
  O  O48  1  0.68790996  0.15142334  0.74116682  1
  O  O49  1  0.46351438  0.31209004  0.74116682  1
  O  O50  1  0.84857666  0.53648562  0.74116682  1
  O  O51  1  0.68790996  0.53648562  0.24116682  1
  O  O52  1  0.84857666  0.31209004  0.24116682  1
  O  O53  1  0.46351438  0.15142334  0.24116682  1
  O  O54  1  0.63026609  0.49712461  0.92672794  1
  O  O55  1  0.86685952  0.36973391  0.92672794  1
  O  O56  1  0.50287539  0.13314048  0.92672794  1
  O  O57  1  0.63026609  0.13314048  0.42672794  1
  O  O58  1  0.50287539  0.36973391  0.42672794  1
  O  O59  1  0.86685952  0.49712461  0.42672794  1
  O  O60  1  0.35223607  0.49071202  0.07117077  1
  O  O61  1  0.13847495  0.64776393  0.07117077  1
  O  O62  1  0.50928798  0.86152505  0.07117077  1
  O  O63  1  0.35223607  0.86152505  0.57117077  1
  O  O64  1  0.50928798  0.64776393  0.57117077  1
  O  O65  1  0.13847495  0.49071202  0.57117077  1
  O  O66  1  0.30136493  0.83585873  0.25787242  1
  O  O67  1  0.53449280  0.69863507  0.25787242  1
  O  O68  1  0.16414127  0.46550720  0.25787242  1
  O  O69  1  0.30136493  0.46550720  0.75787242  1
  O  O70  1  0.16414127  0.69863507  0.75787242  1
  O  O71  1  0.53449280  0.83585873  0.75787242  1
loop_
_geom_bond_atom_site_label_1
_geom_bond_atom_site_label_2
_geom_bond_distance
_geom_bond_site_symmetry_2
Mg0 O38 1.988370 1_555
Mg0 O37 1.988370 1_445
Mg0 O36 1.988370 1_545
Mg0 O2 2.100187 1_455
Mg0 O1 2.100187 1_445
Mg0 O0 2.100187 1_555
Mg1 O39 1.988370 1_555
Mg1 O41 1.988370 1_445
Mg1 O40 1.988370 1_545
Mg1 O5 2.100187 1_455
Mg1 O3 2.100187 1_555
Mg1 O4 2.100187 1_445
Mg2 O13 2.006527 1_555
Mg2 O14 2.006527 1_555
Mg2 O12 2.006527 1_555
Mg2 O50 2.091234 1_555
Mg2 O48 2.091234 1_555
Mg2 O49 2.091234 1_555
Mg3 O16 2.006527 1_555
Mg3 O15 2.006527 1_555
Mg3 O17 2.006527 1_555
Mg3 O51 2.091234 1_555
Mg3 O53 2.091234 1_555
Mg3 O52 2.091234 1_555
O0 S0 1.445093 1_555
O1 S1 1.445093 1_555
O2 S2 1.445093 1_555
O3 S3 1.445093 1_555
O4 S4 1.445093 1_555
O5 S5 1.445093 1_555
O6 S5 1.528296 1_565
O6 Ta0 2.071431 1_665
O7 S3 1.528296 1_555
O7 Ta0 2.071431 1_555
O8 S4 1.528296 1_455
O8 Ta0 2.071431 1_565
O9 S1 1.528296 1_555
O9 Ta1 2.071431 1_665
O10 S2 1.528296 1_455
O10 Ta1 2.071431 1_555
O11 S0 1.528296 1_565
O11 Ta1 2.071431 1_565
O12 P0 1.484501 1_555
O13 P1 1.484501 1_555
O14 P2 1.484501 1_555
O15 P3 1.484501 1_555
O16 P4 1.484501 1_555
O17 P5 1.484501 1_555
O18 P5 1.554212 1_555
O18 Ta2 2.016559 1_554
O19 P3 1.554212 1_555
O19 Ta2 2.016559 1_554
O20 P4 1.554212 1_555
O20 Ta2 2.016559 1_554
O21 P1 1.554212 1_555
O21 Ta3 2.016559 1_555
O22 P2 1.554212 1_555
O22 Ta3 2.016559 1_555
O23 P0 1.554212 1_555
O23 Ta3 2.016559 1_555
O24 P6 1.548786 1_555
O24 Ta4 1.975311 1_556
O25 P7 1.548786 1_555
O25 Ta4 1.975311 1_556
O26 P8 1.548786 1_555
O26 Ta4 1.975311 1_556
O27 P9 1.548786 1_555
O27 Ta5 1.975311 1_555
O28 P10 1.548786 1_555
O28 Ta5 1.975311 1_555
O29 P11 1.548786 1_555
O29 Ta5 1.975311 1_555
O30 P11 1.581903 1_555
O30 Ta6 1.950633 1_555
O31 P9 1.581903 1_555
O31 Ta6 1.950633 1_555
O32 P10 1.581903 1_555
O32 Ta6 1.950633 1_555
O33 P7 1.581903 1_555
O33 Ta7 1.950633 1_555
O34 P8 1.581903 1_555
O34 Ta7 1.950633 1_555
O35 P6 1.581903 1_555
O35 Ta7 1.950633 1_555
O36 P11 1.477710 1_555
O37 P9 1.477719 1_555
O38 P10 1.477715 1_555
O39 P7 1.477719 1_555
O40 P8 1.477710 1_555
O41 P6 1.477715 1_555
O42 P0 1.584095 1_555
O42 Ta0 1.927044 1_655
O43 P1 1.584104 1_555
O43 Ta0 1.927044 1_555
O44 P2 1.584101 1_555
O44 Ta0 1.927044 1_665
O45 P3 1.584104 1_555
O45 Ta1 1.927044 1_665
O46 P4 1.584095 1_555
O46 Ta1 1.927044 1_655
O47 P5 1.584101 1_555
O47 Ta1 1.927044 1_555
O48 S5 1.438490 1_555
O49 S3 1.438498 1_555
O50 S4 1.438495 1_555
O51 S1 1.438498 1_555
O52 S2 1.438490 1_555
O53 S0 1.438495 1_555
O54 P6 1.562495 1_555
O54 Ta2 1.958772 1_555
O55 P7 1.562477 1_655
O55 Ta2 1.958772 1_555
O56 P8 1.562485 1_545
O56 Ta2 1.958772 1_555
O57 P9 1.562477 1_545
O57 Ta3 1.958772 1_555
O58 P10 1.562495 1_555
O58 Ta3 1.958772 1_555
O59 P11 1.562485 1_655
O59 Ta3 1.958772 1_555
O60 P5 1.554432 1_555
O60 Ta4 1.958282 1_555
O61 P3 1.554415 1_455
O61 Ta4 1.958282 1_555
O62 P4 1.554421 1_565
O62 Ta4 1.958282 1_555
O63 P1 1.554415 1_565
O63 Ta5 1.958282 1_555
O64 P2 1.554432 1_555
O64 Ta5 1.958282 1_555
O65 P0 1.554421 1_455
O65 Ta5 1.958282 1_555
O66 S0 1.535163 1_565
O66 Ta6 2.036121 1_555
O67 S1 1.535172 1_555
O67 Ta6 2.036121 1_555
O68 S2 1.535168 1_455
O68 Ta6 2.036121 1_555
O69 S3 1.535172 1_555
O69 Ta7 2.036121 1_555
O70 S4 1.535163 1_455
O70 Ta7 2.036121 1_555
O71 S5 1.535168 1_565
O71 Ta7 2.036121 1_555
