# generated using pymatgen
data_Na4Ca3GeP2(SO6)4
_symmetry_space_group_name_H-M   'P 1'
_cell_length_a   9.11830243
_cell_length_b   9.11237096
_cell_length_c   23.16041694
_cell_angle_alpha   90.53727578
_cell_angle_beta   89.95437037
_cell_angle_gamma   119.86735034
_symmetry_Int_Tables_number   1
_chemical_formula_structural   Na4Ca3GeP2(SO6)4
_chemical_formula_sum   'Na12 Ca9 Ge3 P6 S12 O72'
_cell_volume   1668.69866238
_cell_formula_units_Z   3
loop_
 _symmetry_equiv_pos_site_id
 _symmetry_equiv_pos_as_xyz
  1  'x, y, z'
loop_
 _atom_site_type_symbol
 _atom_site_label
 _atom_site_symmetry_multiplicity
 _atom_site_fract_x
 _atom_site_fract_y
 _atom_site_fract_z
 _atom_site_occupancy
  Na  Na0  1  0.63957007  0.00237972  0.25798818  1
  Na  Na1  1  0.35870010  0.36007079  0.25228121  1
  Na  Na2  1  0.31069180  0.34610746  0.59338633  1
  Na  Na3  1  0.66304767  0.94792780  0.57893671  1
  Na  Na4  1  0.98549782  0.67839040  0.91286464  1
  Na  Na5  1  0.32206279  0.29680894  0.90873422  1
  Na  Na6  1  0.97848170  0.97363616  0.49716216  1
  Na  Na7  1  0.98104872  0.00335197  0.99579841  1
  Na  Na8  1  0.65521023  0.31790923  0.82667339  1
  Na  Na9  1  0.67956650  0.33691647  0.34315669  1
  Na  Na10  1  0.31308911  0.66487653  0.16068691  1
  Na  Na11  1  0.32536443  0.65839466  0.68141759  1
  Ca  Ca0  1  0.99447290  0.99679124  0.35654322  1
  Ca  Ca1  1  0.99427816  0.00168671  0.84753921  1
  Ca  Ca2  1  0.00230908  0.99352729  0.65705361  1
  Ca  Ca3  1  0.99876072  0.99387583  0.14225713  1
  Ca  Ca4  1  0.66642543  0.34459461  0.69085180  1
  Ca  Ca5  1  0.67615684  0.34283899  0.18255717  1
  Ca  Ca6  1  0.34009135  0.66882121  0.01721196  1
  Ca  Ca7  1  0.33253372  0.66910639  0.51178541  1
  Ca  Ca8  1  0.33421072  0.68123711  0.32918054  1
  Ge  Ge0  1  0.66769897  0.32634934  0.97437322  1
  Ge  Ge1  1  0.66972983  0.33925057  0.48350268  1
  Ge  Ge2  1  0.33322266  0.65955271  0.82374822  1
  P  P0  1  0.30724340  0.32608943  0.75707562  1
  P  P1  1  0.67084960  0.62044766  0.57726921  1
  P  P2  1  0.62400522  0.65141694  0.91881784  1
  P  P3  1  0.03264734  0.37789166  0.91860904  1
  P  P4  1  0.34813061  0.96293038  0.91677341  1
  P  P5  1  0.64702164  0.99979669  0.42357476  1
  S  S0  1  0.30131591  -0.00105145  0.24937410  1
  S  S1  1  0.69232865  0.70060958  0.25078988  1
  S  S2  1  0.00552501  0.30075625  0.25050337  1
  S  S3  1  0.02231980  0.69413019  0.75850686  1
  S  S4  1  0.67288033  0.97985792  0.75198744  1
  S  S5  1  0.95118895  0.32796983  0.57968280  1
  S  S6  1  0.38246091  0.05445170  0.57968348  1
  S  S7  1  0.95155762  0.62222011  0.07463394  1
  S  S8  1  0.67290508  0.05172180  0.07812053  1
  S  S9  1  0.37567492  0.32787111  0.07849084  1
  S  S10  1  0.35036494  0.35820267  0.41957991  1
  S  S11  1  0.00700994  0.64917656  0.42180506  1
  O  O0  1  0.21605547  0.01434099  0.30106692  1
  O  O1  1  0.79016115  0.78421796  0.30303052  1
  O  O2  1  0.98757009  0.19730351  0.30147646  1
  O  O3  1  0.21705678  0.21755730  0.80920664  1
  O  O4  1  0.99725314  0.77023870  0.81101413  1
  O  O5  1  0.78374108  0.00019410  0.80047070  1
  O  O6  1  0.74165078  0.95735898  0.69584295  1
  O  O7  1  0.21027754  0.25681647  0.69860423  1
  O  O8  1  0.04096653  0.79424167  0.70611947  1
  O  O9  1  0.77592779  0.79716942  0.19831171  1
  O  O10  1  0.02350022  0.21918884  0.19728175  1
  O  O11  1  0.20680406  0.98594519  0.19619871  1
  O  O12  1  0.87281895  0.34501549  0.63199408  1
  O  O13  1  0.48288978  0.12971353  0.63184106  1
  O  O14  1  0.64682222  0.51232681  0.62928850  1
  O  O15  1  0.86376198  0.53131819  0.12675764  1
  O  O16  1  0.67023994  0.13123467  0.13350891  1
  O  O17  1  0.46254490  0.33128522  0.13274284  1
  O  O18  1  0.47020131  0.31859217  0.02480266  1
  O  O19  1  0.85126961  0.53036375  0.01952157  1
  O  O20  1  0.68504320  0.16145012  0.02616731  1
  O  O21  1  0.46936751  0.16394040  0.52683924  1
  O  O22  1  0.69102452  0.52727269  0.52029429  1
  O  O23  1  0.84394176  0.30906679  0.52626220  1
  O  O24  1  0.55513877  0.67840969  0.97404103  1
  O  O25  1  0.13432226  0.45317807  0.97276197  1
  O  O26  1  0.31240087  0.85960523  0.97034421  1
  O  O27  1  0.55641616  0.89115923  0.47578363  1
  O  O28  1  0.32804398  0.44112772  0.47068826  1
  O  O29  1  0.10817500  0.66639360  0.47280096  1
  O  O30  1  0.08120717  0.62593199  0.36804067  1
  O  O31  1  0.54856874  0.93042998  0.36566670  1
  O  O32  1  0.36764950  0.45412229  0.36565310  1
  O  O33  1  0.12016188  0.50540195  0.86558872  1
  O  O34  1  0.37674078  0.87038969  0.86217486  1
  O  O35  1  0.49671804  0.61395128  0.86575889  1
  O  O36  1  0.98161213  0.79619327  0.41810746  1
  O  O37  1  0.82721258  0.02872549  0.42041295  1
  O  O38  1  0.20886553  0.18382488  0.41564538  1
  O  O39  1  0.00866698  0.20153121  0.90936178  1
  O  O40  1  0.20045126  0.99623790  0.90626823  1
  O  O41  1  0.80616386  0.79006229  0.90814571  1
  O  O42  1  0.96173366  0.16824921  0.58029055  1
  O  O43  1  0.21564543  0.04728067  0.58220956  1
  O  O44  1  0.82596409  0.80096386  0.57873388  1
  O  O45  1  0.96595374  0.79138896  0.07291551  1
  O  O46  1  0.82586713  0.03428732  0.07490206  1
  O  O47  1  0.20541761  0.17475859  0.07590512  1
  O  O48  1  0.64750538  0.12738528  0.74924349  1
  O  O49  1  0.48904422  0.35835813  0.75451985  1
  O  O50  1  0.88074815  0.51949590  0.75257573  1
  O  O51  1  0.66140703  0.52356548  0.24862272  1
  O  O52  1  0.84904763  0.31452425  0.24832168  1
  O  O53  1  0.47418503  0.15654460  0.24817647  1
  O  O54  1  0.62784290  0.47190785  0.92230730  1
  O  O55  1  0.85016652  0.36874902  0.92187782  1
  O  O56  1  0.51665828  0.14807036  0.92197616  1
  O  O57  1  0.65513004  0.17995559  0.43061025  1
  O  O58  1  0.51457398  0.35385756  0.42432799  1
  O  O59  1  0.83508015  0.48930151  0.42580553  1
  O  O60  1  0.36169245  0.48221823  0.07867755  1
  O  O61  1  0.11990194  0.63769728  0.07556980  1
  O  O62  1  0.51824383  0.88586514  0.07624156  1
  O  O63  1  0.36072978  0.88349905  0.57327512  1
  O  O64  1  0.50853520  0.63544850  0.57202545  1
  O  O65  1  0.12545260  0.47228051  0.57423289  1
  O  O66  1  0.33032149  0.85131930  0.25193223  1
  O  O67  1  0.52069480  0.68761116  0.25347807  1
  O  O68  1  0.16056381  0.47098517  0.25522500  1
  O  O69  1  0.31313926  0.50573888  0.76564800  1
  O  O70  1  0.18748037  0.69195315  0.76363625  1
  O  O71  1  0.50361653  0.81971963  0.75987873  1
loop_
_geom_bond_atom_site_label_1
_geom_bond_atom_site_label_2
_geom_bond_distance
_geom_bond_site_symmetry_2
Na0 O66 2.448861 1_545
Na0 O67 2.512150 1_545
Na0 O52 2.527663 1_555
Na0 O53 2.532944 1_555
Na0 O31 2.612153 1_545
Na1 O51 2.398257 1_555
Na1 O68 2.471308 1_555
Na1 O53 2.549336 1_555
Na1 O67 2.588125 1_555
Na1 O32 2.743020 1_555
Na1 O10 2.946195 1_555
Na1 O17 2.976558 1_555
Na1 O0 2.979387 1_555
Na2 O64 2.395092 1_555
Na2 O43 2.422730 1_555
Na2 O65 2.513278 1_555
Na2 O7 2.594309 1_555
Na2 O42 2.774758 1_455
Na2 O14 2.781399 1_555
Na2 O28 2.959596 1_555
Na3 O44 2.445712 1_555
Na3 O42 2.449936 1_565
Na3 O64 2.472778 1_555
Na3 O63 2.519540 1_555
Na3 O27 2.529858 1_555
Na3 O6 2.790976 1_555
Na4 O41 2.319716 1_555
Na4 O55 2.463812 1_555
Na4 O4 2.494728 1_555
Na4 O40 2.570511 1_655
Na4 O33 2.661724 1_655
Na4 O19 2.798718 1_556
Na4 O54 2.849316 1_555
Na4 O26 2.906345 1_655
Na5 O40 2.388881 1_545
Na5 O54 2.445358 1_555
Na5 O3 2.456703 1_555
Na5 O39 2.539526 1_555
Na5 O35 2.710364 1_555
Na5 O56 2.735585 1_555
Na5 O18 2.969697 1_556
Na6 O44 2.418917 1_555
Na6 O36 2.440895 1_555
Na6 O37 2.454475 1_565
Na6 O42 2.660862 1_565
Na6 O43 2.746512 1_665
Na6 O38 2.774877 1_665
Na7 O46 2.412804 1_556
Na7 O45 2.595983 1_546
Na7 O47 2.614642 1_656
Na7 O39 2.635586 1_655
Na7 O41 2.699234 1_545
Na7 O40 2.902791 1_645
Na8 O49 2.407476 1_555
Na8 O48 2.460762 1_555
Na8 O50 2.615279 1_555
Na8 O56 2.641110 1_555
Na8 O54 2.688305 1_555
Na8 O55 2.720936 1_555
Na9 O59 2.365667 1_555
Na9 O57 2.435991 1_555
Na9 O58 2.458216 1_555
Na9 O52 2.748516 1_555
Na9 O53 2.814371 1_555
Na9 O51 2.839855 1_555
Na10 O61 2.571463 1_555
Na10 O66 2.654117 1_555
Na10 O60 2.692299 1_555
Na10 O68 2.733183 1_555
Na10 O62 2.774120 1_555
Na10 O67 2.802231 1_555
Na11 O69 2.376811 1_555
Na11 O70 2.380856 1_555
Na11 O71 2.383246 1_555
Ca0 O37 2.242597 1_565
Ca0 O1 2.263481 1_555
Ca0 O2 2.264365 1_565
Ca0 O36 2.285438 1_555
Ca0 O38 2.289571 1_665
Ca0 O0 2.331646 1_665
Ca1 O3 2.198661 1_655
Ca1 O5 2.202502 1_555
Ca1 O39 2.257665 1_655
Ca1 O4 2.277692 1_545
Ca1 O41 2.320273 1_545
Ca1 O40 2.342027 1_645
Ca2 O8 2.321687 1_555
Ca2 O7 2.388817 1_565
Ca2 O6 2.405548 1_455
Ca2 O44 2.467716 1_455
Ca2 O43 2.467847 1_565
Ca2 O42 2.544286 1_465
Ca3 O11 2.303611 1_655
Ca3 O10 2.319575 1_665
Ca3 O9 2.332132 1_555
Ca3 O45 2.338511 1_555
Ca3 O47 2.361906 1_665
Ca3 O46 2.376416 1_565
Ca4 O14 2.171280 1_555
Ca4 O49 2.236273 1_555
Ca4 O13 2.278679 1_555
Ca4 O50 2.293997 1_555
Ca4 O12 2.321387 1_555
Ca4 O48 2.342224 1_555
Ca5 O15 2.158263 1_555
Ca5 O16 2.206079 1_555
Ca5 O17 2.221048 1_555
Ca5 O51 2.290072 1_555
Ca5 O52 2.299583 1_555
Ca5 O53 2.348034 1_555
Ca6 O24 2.163382 1_554
Ca6 O25 2.175899 1_554
Ca6 O26 2.176555 1_554
Ca6 O62 2.274307 1_555
Ca6 O60 2.310002 1_555
Ca6 O61 2.318197 1_555
Ca7 O27 2.207207 1_555
Ca7 O29 2.225571 1_555
Ca7 O28 2.258677 1_555
Ca7 O64 2.262283 1_555
Ca7 O63 2.314959 1_555
Ca7 O65 2.354845 1_555
Ca8 O30 2.287647 1_555
Ca8 O31 2.288413 1_555
Ca8 O66 2.389777 1_555
Ca8 O32 2.398178 1_555
Ca8 O67 2.422324 1_555
Ca8 O68 2.456198 1_555
Ge0 O56 1.935428 1_555
Ge0 O55 1.939339 1_555
Ge0 O54 1.963741 1_555
Ge0 O20 1.998163 1_556
Ge0 O19 2.053849 1_556
Ge0 O18 2.117450 1_556
Ge1 O22 1.827792 1_555
Ge1 O57 1.843864 1_555
Ge1 O59 1.976421 1_555
Ge1 O21 2.004365 1_555
Ge1 O23 2.005633 1_555
Ge1 O58 2.022775 1_555
Ge2 O69 1.875668 1_555
Ge2 O34 1.962094 1_555
Ge2 O35 1.992171 1_555
Ge2 O33 1.997747 1_555
Ge2 O70 2.047661 1_555
Ge2 O71 2.123816 1_555
O0 S0 1.470170 1_555
O1 S1 1.465484 1_555
O2 S2 1.475144 1_655
O3 P0 1.524104 1_555
O4 S3 1.467556 1_655
O5 S4 1.458905 1_545
O6 S4 1.499284 1_555
O7 P0 1.563369 1_555
O8 S3 1.482966 1_555
O9 S1 1.477520 1_555
O10 S2 1.484095 1_555
O11 S0 1.473336 1_565
O12 S5 1.451992 1_555
O13 S6 1.459069 1_555
O14 P1 1.508993 1_555
O15 S7 1.463255 1_555
O16 S8 1.473514 1_555
O17 S9 1.477667 1_555
O18 S9 1.537890 1_555
O19 S7 1.544531 1_555
O20 S8 1.540123 1_555
O21 S6 1.534665 1_555
O22 P1 1.621768 1_555
O23 S5 1.531964 1_555
O24 P2 1.495758 1_555
O25 P3 1.501811 1_555
O26 P4 1.499258 1_555
O27 P5 1.526741 1_555
O28 S10 1.466140 1_555
O29 S11 1.457607 1_555
O30 S11 1.479718 1_555
O31 P5 1.557257 1_555
O32 S10 1.493884 1_555
O33 P3 1.611360 1_555
O34 P4 1.605228 1_555
O35 P2 1.604217 1_555
O36 S11 1.472029 1_655
O37 P5 1.530753 1_545
O38 S10 1.467459 1_555
O39 P3 1.523141 1_555
O40 P4 1.540641 1_555
O41 P2 1.526844 1_555
O42 S5 1.505820 1_555
O43 S6 1.490736 1_555
O44 P1 1.545713 1_555
O45 S7 1.481462 1_555
O46 S8 1.482040 1_555
O47 S9 1.483779 1_555
O48 S4 1.475196 1_545
O49 P0 1.533841 1_555
O50 S3 1.472345 1_655
O51 S1 1.493380 1_555
O52 S2 1.494187 1_655
O53 S0 1.514540 1_555
O54 P2 1.656182 1_555
O55 P3 1.625773 1_655
O56 P4 1.623732 1_545
O57 P5 1.612832 1_545
O58 S10 1.521506 1_555
O59 S11 1.521920 1_655
O60 S9 1.474080 1_555
O61 S7 1.470036 1_455
O62 S8 1.466597 1_565
O63 S6 1.475214 1_565
O64 P1 1.557570 1_555
O65 S5 1.480444 1_455
O66 S0 1.496346 1_565
O67 S1 1.510800 1_555
O68 S2 1.493195 1_555
O69 P0 1.621250 1_555
O70 S3 1.520717 1_555
O71 S4 1.518639 1_555
