# generated using pymatgen
data_Cu2PbO2
_symmetry_space_group_name_H-M   'P 1'
_cell_length_a   5.81142364
_cell_length_b   5.81142281
_cell_length_c   6.03222829
_cell_angle_alpha   118.29430904
_cell_angle_beta   118.29429779
_cell_angle_gamma   91.19391048
_symmetry_Int_Tables_number   1
_chemical_formula_structural   Cu2PbO2
_chemical_formula_sum   'Cu4 Pb2 O4'
_cell_volume   149.82390504
_cell_formula_units_Z   2
loop_
 _symmetry_equiv_pos_site_id
 _symmetry_equiv_pos_as_xyz
  1  'x, y, z'
loop_
 _atom_site_type_symbol
 _atom_site_label
 _atom_site_symmetry_multiplicity
 _atom_site_fract_x
 _atom_site_fract_y
 _atom_site_fract_z
 _atom_site_occupancy
  Cu  Cu0  1  0.50000000  -0.00000000  -0.00000000  1
  Cu  Cu1  1  -0.00000000  0.50000000  0.50000000  1
  Cu  Cu2  1  -0.00000000  -0.00000000  0.50000000  1
  Cu  Cu3  1  -0.00000000  -0.00000000  -0.00000000  1
  Pb  Pb0  1  0.37878761  0.62121239  0.25000000  1
  Pb  Pb1  1  0.62121239  0.37878761  0.75000000  1
  O  O0  1  0.00853570  0.64679805  0.29079166  1
  O  O1  1  0.35320195  0.99146430  0.20920834  1
  O  O2  1  0.99146430  0.35320195  0.70920834  1
  O  O3  1  0.64679805  0.00853570  0.79079166  1
loop_
_geom_bond_atom_site_label_1
_geom_bond_atom_site_label_2
_geom_bond_distance
_geom_bond_site_symmetry_2
Cu0 O3 1.844204 1_554
Cu0 O1 1.844204 1_545
Cu1 O2 1.844204 1_455
Cu1 O0 1.844204 1_555
Cu2 O2 1.848293 1_455
Cu2 O0 1.848293 1_545
Cu3 O3 1.848294 1_454
Cu3 O1 1.848294 1_545
O0 Pb0 2.278816 1_555
O0 Pb1 2.492068 1_454
O1 Pb0 2.278815 1_555
O1 Pb1 2.492068 1_565
O2 Pb1 2.278816 1_555
O2 Pb0 2.492068 1_656
O3 Pb1 2.278815 1_555
O3 Pb0 2.492068 1_545
