# generated using pymatgen
data_ZnSiGe3S5O24
_symmetry_space_group_name_H-M   'P 1'
_cell_length_a   8.49535775
_cell_length_b   8.45015361
_cell_length_c   21.85680499
_cell_angle_alpha   90.14906311
_cell_angle_beta   90.26048325
_cell_angle_gamma   120.09701295
_symmetry_Int_Tables_number   1
_chemical_formula_structural   ZnSiGe3S5O24
_chemical_formula_sum   'Zn3 Si3 Ge9 S15 O72'
_cell_volume   1357.45925135
_cell_formula_units_Z   3
loop_
 _symmetry_equiv_pos_site_id
 _symmetry_equiv_pos_as_xyz
  1  'x, y, z'
loop_
 _atom_site_type_symbol
 _atom_site_label
 _atom_site_symmetry_multiplicity
 _atom_site_fract_x
 _atom_site_fract_y
 _atom_site_fract_z
 _atom_site_occupancy
  Zn  Zn0  1  0.99951034  0.99830472  0.35608423  1
  Zn  Zn1  1  0.66415893  0.33998543  0.68839243  1
  Zn  Zn2  1  0.66513970  0.33217294  0.18428130  1
  Si  Si0  1  0.66779864  0.62578833  0.58497047  1
  Si  Si1  1  0.04668860  0.38025219  0.91600391  1
  Si  Si2  1  0.33184772  0.95206820  0.91631104  1
  Ge  Ge0  1  0.01029194  0.00910124  0.85967673  1
  Ge  Ge1  1  0.98985530  0.98995107  0.64736682  1
  Ge  Ge2  1  0.00161808  0.00141899  0.14622630  1
  Ge  Ge3  1  0.66928852  0.32671266  0.97212314  1
  Ge  Ge4  1  0.67087271  0.34211585  0.48544702  1
  Ge  Ge5  1  0.32198898  0.66186482  0.01486847  1
  Ge  Ge6  1  0.33884455  0.66581825  0.52356179  1
  Ge  Ge7  1  0.33454765  0.66763328  0.31195600  1
  Ge  Ge8  1  0.32478520  0.67189092  0.81574714  1
  S  S0  1  0.29036688  0.99714467  0.25115587  1
  S  S1  1  0.70644639  0.71004778  0.25106162  1
  S  S2  1  0.00294083  0.29331983  0.25108181  1
  S  S3  1  0.28348917  0.28924840  0.75056564  1
  S  S4  1  0.00552904  0.71716851  0.75203975  1
  S  S5  1  0.70825455  0.99314604  0.75224390  1
  S  S6  1  0.96065253  0.33303597  0.58308816  1
  S  S7  1  0.37297083  0.04080136  0.58303536  1
  S  S8  1  0.96054259  0.62676910  0.08363510  1
  S  S9  1  0.66456686  0.03390208  0.08328140  1
  S  S10  1  0.37377854  0.33771735  0.08287101  1
  S  S11  1  0.62069796  0.66665219  0.91648736  1
  S  S12  1  0.61846081  0.96108165  0.41835188  1
  S  S13  1  0.33842955  0.38101240  0.41722412  1
  S  S14  1  0.04544809  0.65905880  0.41823940  1
  O  O0  1  0.20924303  0.02556461  0.30544497  1
  O  O1  1  0.81585711  0.79152910  0.30585963  1
  O  O2  1  0.97569148  0.18388355  0.30538863  1
  O  O3  1  0.19501549  0.17125817  0.80457889  1
  O  O4  1  0.97154960  0.80382984  0.80554293  1
  O  O5  1  0.82599941  0.02374132  0.80651352  1
  O  O6  1  0.78846299  0.95796764  0.69505105  1
  O  O7  1  0.16454698  0.20863853  0.69304238  1
  O  O8  1  0.04440601  0.83472281  0.69532377  1
  O  O9  1  0.78504945  0.83006184  0.19465307  1
  O  O10  1  0.04424159  0.21439468  0.19423511  1
  O  O11  1  0.16980706  0.95482351  0.19416251  1
  O  O12  1  0.88592385  0.36913551  0.63675243  1
  O  O13  1  0.48859045  0.10909747  0.63641390  1
  O  O14  1  0.62010976  0.50002501  0.64229332  1
  O  O15  1  0.88489804  0.51920996  0.13867858  1
  O  O16  1  0.63019648  0.10789729  0.13854361  1
  O  O17  1  0.47937503  0.36802268  0.13877554  1
  O  O18  1  0.45264633  0.29920990  0.02827807  1
  O  O19  1  0.84226069  0.54867498  0.02861632  1
  O  O20  1  0.70466201  0.15342311  0.02893650  1
  O  O21  1  0.45289010  0.15535282  0.52553591  1
  O  O22  1  0.71373902  0.54389516  0.52149496  1
  O  O23  1  0.84035973  0.28658242  0.52586317  1
  O  O24  1  0.54658424  0.70730267  0.97221789  1
  O  O25  1  0.17514663  0.45635842  0.97700560  1
  O  O26  1  0.29688876  0.83146898  0.97787034  1
  O  O27  1  0.53147755  0.84171270  0.47175381  1
  O  O28  1  0.30278345  0.46665880  0.47083232  1
  O  O29  1  0.16463389  0.69330261  0.47279674  1
  O  O30  1  0.12622644  0.62331751  0.36141215  1
  O  O31  1  0.50100376  0.88241338  0.36116466  1
  O  O32  1  0.37827359  0.50038057  0.36082846  1
  O  O33  1  0.13240297  0.50510111  0.85535003  1
  O  O34  1  0.38762096  0.87584338  0.85648376  1
  O  O35  1  0.50415287  0.62332790  0.86107588  1
  O  O36  1  0.02691658  0.81917133  0.41198787  1
  O  O37  1  0.79524019  0.97829695  0.41146987  1
  O  O38  1  0.17743072  0.20320485  0.41046928  1
  O  O39  1  0.01317129  0.17704215  0.90671337  1
  O  O40  1  0.14904105  0.96094472  0.90602864  1
  O  O41  1  0.80072151  0.82799447  0.90787770  1
  O  O42  1  0.98787167  0.17418701  0.58919126  1
  O  O43  1  0.19459607  0.02919327  0.58976244  1
  O  O44  1  0.84920030  0.82984984  0.59202585  1
  O  O45  1  0.97897274  0.81522605  0.09054037  1
  O  O46  1  0.83519849  0.01906158  0.09084374  1
  O  O47  1  0.18548706  0.16827029  0.08976079  1
  O  O48  1  0.69080737  0.15369931  0.74432449  1
  O  O49  1  0.45734019  0.29934224  0.74573282  1
  O  O50  1  0.84892966  0.53658792  0.74639096  1
  O  O51  1  0.68171751  0.53029763  0.24186237  1
  O  O52  1  0.84893728  0.31768050  0.24145426  1
  O  O53  1  0.46911066  0.15190516  0.24190809  1
  O  O54  1  0.63752198  0.50297152  0.92632049  1
  O  O55  1  0.85586467  0.37367894  0.92775964  1
  O  O56  1  0.50292858  0.15527575  0.92735905  1
  O  O57  1  0.63098130  0.14321025  0.42633124  1
  O  O58  1  0.50443839  0.36573327  0.42410216  1
  O  O59  1  0.86685997  0.48685144  0.42375070  1
  O  O60  1  0.35724758  0.50376482  0.07524155  1
  O  O61  1  0.14378901  0.64825076  0.07649116  1
  O  O62  1  0.50647562  0.84793124  0.07373748  1
  O  O63  1  0.34389342  0.85376472  0.57117896  1
  O  O64  1  0.49182087  0.64998497  0.57086954  1
  O  O65  1  0.13854996  0.50112943  0.57119139  1
  O  O66  1  0.30143951  0.82313237  0.25690973  1
  O  O67  1  0.52178753  0.69837864  0.25708449  1
  O  O68  1  0.17642256  0.47872316  0.25698151  1
  O  O69  1  0.29990101  0.47230593  0.75669327  1
  O  O70  1  0.17750974  0.70954632  0.75600935  1
  O  O71  1  0.52934971  0.82009627  0.75749452  1
loop_
_geom_bond_atom_site_label_1
_geom_bond_atom_site_label_2
_geom_bond_distance
_geom_bond_site_symmetry_2
Ge0 O39 1.740348 1_555
Ge0 O40 1.747488 1_545
Ge0 O3 1.913023 1_555
Ge0 O41 1.978512 1_445
Ge0 O4 1.982480 1_445
Ge0 O5 1.998789 1_455
Ge1 O44 1.754483 1_555
Ge1 O6 1.907978 1_555
Ge1 O8 1.909560 1_655
Ge1 O7 1.959698 1_665
Ge1 O42 2.019205 1_565
Ge1 O43 2.040615 1_665
Ge2 O45 1.917858 1_445
Ge2 O46 1.919136 1_455
Ge2 O47 1.941326 1_555
Ge2 O10 1.950428 1_555
Ge2 O11 1.961399 1_545
Ge2 O9 1.988917 1_445
Ge3 O56 1.726254 1_555
Ge3 O55 1.730641 1_555
Ge3 O54 1.924009 1_555
Ge3 O20 2.055217 1_556
Ge3 O19 2.099788 1_556
Ge3 O18 2.130904 1_556
Ge4 O22 1.740200 1_555
Ge4 O23 1.934418 1_555
Ge4 O21 1.943851 1_555
Ge4 O57 2.005692 1_555
Ge4 O59 2.018189 1_555
Ge4 O58 2.025810 1_555
Ge5 O26 1.750535 1_554
Ge5 O25 1.751333 1_554
Ge5 O24 1.985006 1_554
Ge5 O61 1.990928 1_555
Ge5 O60 2.005667 1_555
Ge5 O62 2.020823 1_555
Ge6 O64 1.714313 1_555
Ge6 O63 1.878829 1_555
Ge6 O65 1.887986 1_555
Ge6 O28 1.929758 1_555
Ge6 O27 1.937943 1_555
Ge6 O29 1.951038 1_555
Ge7 O68 1.902947 1_555
Ge7 O66 1.905002 1_555
Ge7 O67 1.908031 1_555
Ge7 O30 1.948225 1_555
Ge7 O32 1.951221 1_555
Ge7 O31 1.962762 1_555
Ge8 O34 1.764352 1_555
Ge8 O33 1.765156 1_555
Ge8 O70 1.938562 1_555
Ge8 O71 2.013759 1_555
Ge8 O35 2.021743 1_555
Ge8 O69 2.045397 1_555
O0 S0 1.453468 1_545
O0 Zn0 2.015036 1_445
O1 S1 1.454735 1_555
O1 Zn0 1.983085 1_555
O2 S2 1.452987 1_655
O2 Zn0 2.013235 1_545
O3 S3 1.488398 1_555
O4 S4 1.482476 1_655
O5 S5 1.484128 1_545
O6 S5 1.524553 1_555
O7 S3 1.536045 1_555
O8 S4 1.521053 1_555
O9 S1 1.526189 1_555
O10 S2 1.531671 1_555
O11 S0 1.532109 1_555
O12 S6 1.439091 1_555
O12 Zn1 2.106968 1_555
O13 S7 1.441022 1_555
O13 Zn1 2.091981 1_555
O14 Si0 1.563006 1_555
O14 Zn1 1.869584 1_555
O15 S8 1.453744 1_555
O15 Zn2 2.010632 1_555
O16 S9 1.455170 1_555
O16 Zn2 2.025422 1_555
O17 S10 1.456489 1_555
O17 Zn2 2.009554 1_555
O18 S10 1.484079 1_555
O19 S8 1.486983 1_555
O20 S9 1.487226 1_555
O21 S7 1.527199 1_555
O22 Si0 1.681307 1_555
O23 S6 1.531769 1_555
O24 S11 1.489924 1_555
O25 Si1 1.631147 1_555
O26 Si2 1.626130 1_555
O27 S12 1.480627 1_555
O28 S13 1.485595 1_555
O29 S14 1.491393 1_555
O30 S14 1.522670 1_555
O31 S12 1.522820 1_555
O32 S13 1.522898 1_555
O33 Si1 1.626749 1_555
O34 Si2 1.629913 1_555
O35 S11 1.484713 1_555
O36 S14 1.445126 1_555
O36 Zn0 2.049143 1_455
O37 S12 1.443004 1_555
O37 Zn0 2.057029 1_555
O38 S13 1.444291 1_555
O38 Zn0 2.010892 1_445
O39 Si1 1.605683 1_555
O40 Si2 1.606771 1_555
O41 S11 1.464886 1_555
O42 S6 1.478167 1_555
O43 S7 1.476676 1_555
O44 Si0 1.644198 1_555
O45 S8 1.527018 1_555
O46 S9 1.524652 1_555
O47 S10 1.528991 1_555
O48 S5 1.447492 1_545
O48 Zn1 2.094897 1_555
O49 S3 1.440440 1_555
O49 Zn1 2.047625 1_555
O50 S4 1.440527 1_655
O50 Zn1 2.046078 1_555
O51 S1 1.438633 1_555
O51 Zn2 2.039018 1_555
O52 S2 1.437419 1_655
O52 Zn2 2.046809 1_555
O53 S0 1.438548 1_545
O53 Zn2 2.040839 1_555
O54 S11 1.476208 1_555
O55 Si1 1.615760 1_655
O56 Si2 1.615821 1_545
O57 S12 1.498183 1_545
O58 S13 1.486278 1_555
O59 S14 1.490708 1_655
O60 S10 1.488263 1_555
O61 S8 1.483148 1_455
O62 S9 1.481832 1_565
O63 S7 1.493936 1_565
O64 Si0 1.635393 1_555
O65 S6 1.490555 1_455
O66 S0 1.525257 1_555
O67 S1 1.528009 1_555
O68 S2 1.524689 1_555
O69 S3 1.487486 1_555
O70 S4 1.496517 1_555
O71 S5 1.494964 1_555
