# generated using pymatgen
data_MgTi2(PS3)4
_symmetry_space_group_name_H-M   'P 1'
_cell_length_a   6.83552004
_cell_length_b   6.62525293
_cell_length_c   11.51136747
_cell_angle_alpha   101.10424957
_cell_angle_beta   102.18049595
_cell_angle_gamma   108.28659809
_symmetry_Int_Tables_number   1
_chemical_formula_structural   MgTi2(PS3)4
_chemical_formula_sum   'Mg1 Ti2 P4 S12'
_cell_volume   464.65507538
_cell_formula_units_Z   1
loop_
 _symmetry_equiv_pos_site_id
 _symmetry_equiv_pos_as_xyz
  1  'x, y, z'
loop_
 _atom_site_type_symbol
 _atom_site_label
 _atom_site_symmetry_multiplicity
 _atom_site_fract_x
 _atom_site_fract_y
 _atom_site_fract_z
 _atom_site_occupancy
  Mg  Mg0  1  0.36304600  0.33020600  0.69425300  1
  Ti  Ti0  1  0.84720500  0.84659300  0.69176500  1
  Ti  Ti1  1  0.59682100  0.09623200  0.19247500  1
  P  P0  1  0.73612200  0.86619400  0.37629100  1
  P  P1  1  0.60609200  0.98520000  0.87697400  1
  P  P2  1  0.26474800  0.89180200  0.87705700  1
  P  P3  1  0.64163700  0.50912100  0.37658700  1
  S  S0  1  0.66776000  0.69545600  0.85056000  1
  S  S1  1  0.18440200  0.16061100  0.85157800  1
  S  S2  1  0.97764000  0.02751800  0.54760900  1
  S  S3  1  0.56598300  0.52623200  0.54616200  1
  S  S4  1  0.25829100  0.82796300  0.04138200  1
  S  S5  1  0.78209300  0.21301900  0.04076100  1
  S  S6  1  0.38347900  0.33080900  0.22871000  1
  S  S7  1  0.84679500  0.89755800  0.22936100  1
  S  S8  1  0.63135100  0.09771300  0.72451300  1
  S  S9  1  0.08508200  0.62939500  0.72533000  1
  S  S10  1  0.46719400  0.93342400  0.35743800  1
  S  S11  1  0.89185300  0.42328600  0.35897100  1
loop_
_geom_bond_atom_site_label_1
_geom_bond_atom_site_label_2
_geom_bond_distance
_geom_bond_site_symmetry_2
Mg0 S1 2.624778 1_555
Mg0 S0 2.647649 1_555
Mg0 S3 2.690203 1_555
Mg0 S2 2.704728 1_455
Mg0 S8 2.750887 1_555
P0 S10 2.001853 1_555
P0 S7 2.013174 1_555
P0 S2 2.112807 1_565
P1 S5 2.021743 1_566
P1 S8 2.053447 1_565
P1 S0 2.071754 1_555
P2 S4 2.022547 1_556
P2 S9 2.041230 1_555
P2 S1 2.075181 1_565
P3 S11 2.000537 1_555
P3 S6 2.014166 1_555
P3 S3 2.113828 1_555
S0 Ti0 2.594035 1_555
S1 Ti0 2.598554 1_445
S2 Ti0 2.388583 1_545
S3 Ti0 2.391467 1_555
S4 Ti1 2.463477 1_565
S5 Ti1 2.468089 1_555
S6 Ti1 2.478951 1_555
S7 Ti1 2.480531 1_565
S8 Ti0 2.573083 1_545
S9 Ti0 2.506249 1_455
S10 Ti1 2.540440 1_565
S11 Ti1 2.542156 1_555
