# generated using pymatgen
data_Rb2Na2MgTi2O6
_symmetry_space_group_name_H-M   'P 1'
_cell_length_a   5.82311857
_cell_length_b   6.80614946
_cell_length_c   6.21379862
_cell_angle_alpha   63.78933759
_cell_angle_beta   94.54782591
_cell_angle_gamma   95.64843491
_symmetry_Int_Tables_number   1
_chemical_formula_structural   Rb2Na2MgTi2O6
_chemical_formula_sum   'Rb2 Na2 Mg1 Ti2 O6'
_cell_volume   219.69915942
_cell_formula_units_Z   1
loop_
 _symmetry_equiv_pos_site_id
 _symmetry_equiv_pos_as_xyz
  1  'x, y, z'
loop_
 _atom_site_type_symbol
 _atom_site_label
 _atom_site_symmetry_multiplicity
 _atom_site_fract_x
 _atom_site_fract_y
 _atom_site_fract_z
 _atom_site_occupancy
  Rb  Rb0  1  0.21595044  0.36711800  0.49862846  1
  Rb  Rb1  1  0.78404956  0.63288200  0.50137154  1
  Na  Na0  1  0.22358264  0.63639718  0.86454944  1
  Na  Na1  1  0.77641736  0.36360282  0.13545056  1
  Mg  Mg0  1  0.50000000  -0.00000000  0.50000000  1
  Ti  Ti0  1  0.76037498  0.02924603  0.91153027  1
  Ti  Ti1  1  0.23962502  0.97075397  0.08846973  1
  O  O0  1  0.03849662  0.21410686  0.96225408  1
  O  O1  1  0.40509272  0.96691820  0.82760686  1
  O  O2  1  0.76101394  0.17847320  0.57064776  1
  O  O3  1  0.96150338  0.78589314  0.03774592  1
  O  O4  1  0.59490728  0.03308180  0.17239314  1
  O  O5  1  0.23898606  0.82152680  0.42935224  1
loop_
_geom_bond_atom_site_label_1
_geom_bond_atom_site_label_2
_geom_bond_distance
_geom_bond_site_symmetry_2
Na0 O1 2.311863 1_555
Na0 O5 2.432050 1_555
Na0 O3 2.460888 1_456
Na0 O0 2.782740 1_555
Na1 O4 2.311863 1_555
Na1 O2 2.432050 1_555
Na1 O0 2.460888 1_654
Na1 O3 2.782740 1_555
Mg0 O2 1.995040 1_555
Mg0 O5 1.995040 1_545
Mg0 O4 2.061350 1_555
Mg0 O1 2.061350 1_545
O0 Ti1 1.954183 1_546
O0 Ti0 2.042920 1_455
O0 Rb0 2.839335 1_555
O1 Ti1 1.961270 1_556
O1 Ti0 2.140936 1_565
O1 Rb0 2.850621 1_565
O2 Ti0 1.902201 1_555
O2 Rb0 2.806719 1_655
O2 Rb1 2.918905 1_555
O3 Ti0 1.954183 1_564
O3 Ti1 2.042920 1_655
O3 Rb1 2.839335 1_555
O4 Ti0 1.961270 1_554
O4 Ti1 2.140936 1_545
O4 Rb1 2.850621 1_545
O5 Ti1 1.902201 1_555
O5 Rb1 2.806719 1_455
O5 Rb0 2.918905 1_555
