# generated using pymatgen
data_RbNiCl3
_symmetry_space_group_name_H-M   'P 1'
_cell_length_a   6.97274846
_cell_length_b   6.97274707
_cell_length_c   5.88951826
_cell_angle_alpha   90.00000000
_cell_angle_beta   90.00000000
_cell_angle_gamma   119.99999685
_symmetry_Int_Tables_number   1
_chemical_formula_structural   RbNiCl3
_chemical_formula_sum   'Rb2 Ni2 Cl6'
_cell_volume   247.98095498
_cell_formula_units_Z   2
loop_
 _symmetry_equiv_pos_site_id
 _symmetry_equiv_pos_as_xyz
  1  'x, y, z'
loop_
 _atom_site_type_symbol
 _atom_site_label
 _atom_site_symmetry_multiplicity
 _atom_site_fract_x
 _atom_site_fract_y
 _atom_site_fract_z
 _atom_site_occupancy
  Rb  Rb0  1  0.66666700  0.33333300  0.25000000  1
  Rb  Rb1  1  0.33333300  0.66666700  0.75000000  1
  Ni  Ni0  1  -0.00000000  -0.00000000  0.50000000  1
  Ni  Ni1  1  -0.00000000  -0.00000000  -0.00000000  1
  Cl  Cl0  1  0.84273594  0.68547088  0.75000000  1
  Cl  Cl1  1  0.15726406  0.84273594  0.25000000  1
  Cl  Cl2  1  0.68547088  0.84273594  0.25000000  1
  Cl  Cl3  1  0.31452912  0.15726406  0.75000000  1
  Cl  Cl4  1  0.15726406  0.31452912  0.25000000  1
  Cl  Cl5  1  0.84273594  0.15726406  0.75000000  1
loop_
_geom_bond_atom_site_label_1
_geom_bond_atom_site_label_2
_geom_bond_distance
_geom_bond_site_symmetry_2
Cl0 Ni0 2.403180 1_665
Cl0 Ni1 2.403180 1_666
Cl0 Rb1 3.488216 1_655
Cl0 Rb1 3.488230 1_555
Cl0 Rb0 3.632249 1_555
Cl0 Rb0 3.632249 1_556
Cl1 Ni0 2.403175 1_565
Cl1 Ni1 2.403175 1_565
Cl1 Rb0 3.488223 1_455
Cl1 Rb0 3.488223 1_565
Cl1 Rb1 3.632249 1_555
Cl1 Rb1 3.632249 1_554
Cl2 Ni1 2.403180 1_665
Cl2 Ni0 2.403180 1_665
Cl2 Rb0 3.488215 1_565
Cl2 Rb0 3.488229 1_555
Cl2 Rb1 3.632249 1_555
Cl2 Rb1 3.632249 1_554
Cl3 Ni0 2.403180 1_555
Cl3 Ni1 2.403180 1_556
Cl3 Rb1 3.488215 1_545
Cl3 Rb1 3.488229 1_555
Cl3 Rb0 3.632249 1_555
Cl3 Rb0 3.632249 1_556
Cl4 Ni0 2.403180 1_555
Cl4 Ni1 2.403180 1_555
Cl4 Rb0 3.488216 1_455
Cl4 Rb0 3.488230 1_555
Cl4 Rb1 3.632249 1_554
Cl4 Rb1 3.632249 1_555
Cl5 Ni1 2.403175 1_656
Cl5 Ni0 2.403175 1_655
Cl5 Rb1 3.488223 1_655
Cl5 Rb1 3.488223 1_545
Cl5 Rb0 3.632249 1_555
Cl5 Rb0 3.632249 1_556
