# generated using pymatgen
data_Na7Ca2Ga2P5SO24
_symmetry_space_group_name_H-M   'P 1'
_cell_length_a   9.12747701
_cell_length_b   9.08007023
_cell_length_c   22.29623356
_cell_angle_alpha   90.37025788
_cell_angle_beta   89.97320170
_cell_angle_gamma   119.77806629
_symmetry_Int_Tables_number   1
_chemical_formula_structural   Na7Ca2Ga2P5SO24
_chemical_formula_sum   'Na21 Ca6 Ga6 P15 S3 O72'
_cell_volume   1603.82786466
_cell_formula_units_Z   3
loop_
 _symmetry_equiv_pos_site_id
 _symmetry_equiv_pos_as_xyz
  1  'x, y, z'
loop_
 _atom_site_type_symbol
 _atom_site_label
 _atom_site_symmetry_multiplicity
 _atom_site_fract_x
 _atom_site_fract_y
 _atom_site_fract_z
 _atom_site_occupancy
  Na  Na0  1  0.63810068  0.99799583  0.25138084  1
  Na  Na1  1  0.99549854  0.62910478  0.25419184  1
  Na  Na2  1  0.63502799  0.63780058  0.74822015  1
  Na  Na3  1  0.00221464  0.36681655  0.75194190  1
  Na  Na4  1  0.36624240  0.99770072  0.75205692  1
  Na  Na5  1  0.29260212  0.33265532  0.58580988  1
  Na  Na6  1  0.04162787  0.70901004  0.58235975  1
  Na  Na7  1  0.66917799  0.95847194  0.58378803  1
  Na  Na8  1  0.29350382  0.95913230  0.07999540  1
  Na  Na9  1  0.66866210  0.70785588  0.08662913  1
  Na  Na10  1  0.04131741  0.33173491  0.08380584  1
  Na  Na11  1  0.98099845  0.66748364  0.91562388  1
  Na  Na12  1  0.32644594  0.30575642  0.91930000  1
  Na  Na13  1  0.97189974  0.31357828  0.41361199  1
  Na  Na14  1  0.69181855  0.66906805  0.41867291  1
  Na  Na15  1  0.00920620  0.99502865  0.49718045  1
  Na  Na16  1  0.99534122  0.00653352  0.99654868  1
  Na  Na17  1  0.66816253  0.31528239  0.83504702  1
  Na  Na18  1  0.65512156  0.32653007  0.33337267  1
  Na  Na19  1  0.33427494  0.64454803  0.16914070  1
  Na  Na20  1  0.33410382  0.66808513  0.66757298  1
  Ca  Ca0  1  0.00023555  0.99975990  0.64757866  1
  Ca  Ca1  1  0.00319797  0.00331540  0.14786756  1
  Ca  Ca2  1  0.33022092  0.66715355  0.01392204  1
  Ca  Ca3  1  0.33339021  0.67638001  0.51311976  1
  Ca  Ca4  1  0.33236447  0.66526850  0.32168784  1
  Ca  Ca5  1  0.33058485  0.67112351  0.82347144  1
  Ga  Ga0  1  0.97940055  0.98736733  0.34547249  1
  Ga  Ga1  1  0.00906445  0.01475544  0.84303234  1
  Ga  Ga2  1  0.66791319  0.33305630  0.68415654  1
  Ga  Ga3  1  0.67468911  0.34350785  0.18218846  1
  Ga  Ga4  1  0.66574730  0.31764539  0.98511718  1
  Ga  Ga5  1  0.67160920  0.32889736  0.48557326  1
  P  P0  1  0.70208646  0.69295819  0.24740568  1
  P  P1  1  0.98957984  0.29477699  0.24950731  1
  P  P2  1  0.30753683  0.29878857  0.74878724  1
  P  P3  1  0.99070164  0.69827387  0.74987580  1
  P  P4  1  0.70726999  0.00780626  0.74830265  1
  P  P5  1  0.95114284  0.33637285  0.58393002  1
  P  P6  1  0.39125335  0.05607127  0.58400572  1
  P  P7  1  0.66314212  0.60925029  0.58277743  1
  P  P8  1  0.94766131  0.61180723  0.08188190  1
  P  P9  1  0.66467850  0.05090060  0.08627024  1
  P  P10  1  0.39306157  0.33639553  0.08241853  1
  P  P11  1  0.01085106  0.34347510  0.91643436  1
  P  P12  1  0.33074927  0.98709524  0.91622010  1
  P  P13  1  0.65217090  0.98570742  0.41602581  1
  P  P14  1  0.01252131  0.66873473  0.41663614  1
  S  S0  1  0.29980388  0.00868444  0.25087992  1
  S  S1  1  0.65080160  0.66835932  0.91708835  1
  S  S2  1  0.33176421  0.34850062  0.41802614  1
  O  O0  1  0.20561556  0.02512417  0.30246141  1
  O  O1  1  0.82008322  0.78096377  0.30381173  1
  O  O2  1  0.96869127  0.17828498  0.30489908  1
  O  O3  1  0.21804497  0.18282920  0.80447427  1
  O  O4  1  0.96704121  0.79236756  0.80550788  1
  O  O5  1  0.83204186  0.03592515  0.80116193  1
  O  O6  1  0.77244654  0.97517723  0.68985232  1
  O  O7  1  0.20197383  0.22598571  0.69245089  1
  O  O8  1  0.02058100  0.79939389  0.69283175  1
  O  O9  1  0.78142368  0.79631921  0.19142352  1
  O  O10  1  0.01325765  0.22158216  0.19155324  1
  O  O11  1  0.20774901  0.98308345  0.19433291  1
  O  O12  1  0.86331447  0.35338165  0.64138691  1
  O  O13  1  0.49034963  0.13743389  0.64312183  1
  O  O14  1  0.64723731  0.50788517  0.64092916  1
  O  O15  1  0.86745352  0.51153585  0.14044381  1
  O  O16  1  0.64559051  0.13642990  0.14424897  1
  O  O17  1  0.50009275  0.35360804  0.13864294  1
  O  O18  1  0.47835412  0.32235412  0.02439465  1
  O  O19  1  0.83953287  0.52177717  0.02585347  1
  O  O20  1  0.68394427  0.15743977  0.03065675  1
  O  O21  1  0.48318483  0.16450105  0.52928860  1
  O  O22  1  0.67711824  0.51982449  0.52572385  1
  O  O23  1  0.84995958  0.32136967  0.52651284  1
  O  O24  1  0.57251963  0.69261936  0.97116675  1
  O  O25  1  0.12761375  0.41869883  0.97194863  1
  O  O26  1  0.29396177  0.87358972  0.97151148  1
  O  O27  1  0.58036146  0.87066842  0.47095017  1
  O  O28  1  0.29847493  0.42108599  0.47282256  1
  O  O29  1  0.11659102  0.69889020  0.47382776  1
  O  O30  1  0.08892004  0.62736090  0.36238856  1
  O  O31  1  0.54809812  0.90952871  0.35947385  1
  O  O32  1  0.36595157  0.46445872  0.36753224  1
  O  O33  1  0.08735797  0.45991062  0.86182307  1
  O  O34  1  0.36330150  0.91307526  0.85977541  1
  O  O35  1  0.54328485  0.63920434  0.86405592  1
  O  O36  1  0.99140865  0.82812731  0.40672965  1
  O  O37  1  0.83461073  0.00656435  0.40814525  1
  O  O38  1  0.17719033  0.18183054  0.40780466  1
  O  O39  1  0.00078194  0.16900166  0.90594959  1
  O  O40  1  0.16622581  0.00122807  0.90807469  1
  O  O41  1  0.82173908  0.81771402  0.91055009  1
  O  O42  1  0.96753497  0.17561199  0.58316908  1
  O  O43  1  0.21382493  0.03743851  0.58308025  1
  O  O44  1  0.82330361  0.78615933  0.58231004  1
  O  O45  1  0.96603424  0.79010784  0.08212298  1
  O  O46  1  0.82301262  0.03156728  0.08547288  1
  O  O47  1  0.21652652  0.17576067  0.08290955  1
  O  O48  1  0.69605096  0.17492247  0.74653436  1
  O  O49  1  0.48289364  0.30693679  0.74592415  1
  O  O50  1  0.82459893  0.52092101  0.74698137  1
  O  O51  1  0.69486900  0.51653866  0.24452046  1
  O  O52  1  0.81847137  0.30075077  0.24820294  1
  O  O53  1  0.47083195  0.16046783  0.24928574  1
  O  O54  1  0.66733981  0.51266342  0.92188450  1
  O  O55  1  0.83715443  0.33506268  0.92569609  1
  O  O56  1  0.48595491  0.16933700  0.92504071  1
  O  O57  1  0.67681710  0.16734709  0.42516154  1
  O  O58  1  0.48560115  0.33330134  0.42443038  1
  O  O59  1  0.83065749  0.50812621  0.42345103  1
  O  O60  1  0.37367102  0.49602897  0.08186448  1
  O  O61  1  0.12435516  0.62872784  0.08057039  1
  O  O62  1  0.50471466  0.87350511  0.08368898  1
  O  O63  1  0.37369270  0.87758887  0.58242512  1
  O  O64  1  0.50361895  0.62753931  0.58165266  1
  O  O65  1  0.12791506  0.49596403  0.58306602  1
  O  O66  1  0.31883144  0.85580721  0.25679715  1
  O  O67  1  0.53076897  0.68130879  0.25571105  1
  O  O68  1  0.13579110  0.47703605  0.25659101  1
  O  O69  1  0.33424607  0.47822569  0.75742024  1
  O  O70  1  0.14345327  0.67101934  0.75673962  1
  O  O71  1  0.53018001  0.85449752  0.75755432  1
loop_
_geom_bond_atom_site_label_1
_geom_bond_atom_site_label_2
_geom_bond_distance
_geom_bond_site_symmetry_2
Na0 O52 2.404081 1_565
Na0 O66 2.537355 1_555
Na0 O67 2.538336 1_555
Na0 O31 2.548775 1_555
Na0 O53 2.597628 1_565
Na0 O16 2.691391 1_565
Na0 O2 2.877570 1_565
Na1 O68 2.303574 1_655
Na1 O51 2.415071 1_555
Na1 O30 2.561788 1_655
Na1 O52 2.593799 1_555
Na1 O66 2.629596 1_655
Na1 O15 2.768777 1_555
Na1 O1 2.803636 1_555
Na2 O69 2.393900 1_555
Na2 O50 2.438153 1_555
Na2 O71 2.587583 1_555
Na2 O49 2.609755 1_555
Na2 O14 2.687076 1_555
Na2 O35 2.716592 1_555
Na2 O4 2.922446 1_555
Na2 O6 2.980720 1_555
Na3 O70 2.400492 1_555
Na3 O48 2.453754 1_455
Na3 O33 2.577437 1_555
Na3 O50 2.617990 1_455
Na3 O69 2.678884 1_555
Na3 O12 2.746573 1_455
Na3 O5 2.837189 1_455
Na3 O7 3.001788 1_555
Na4 O71 2.424800 1_555
Na4 O49 2.464109 1_565
Na4 O34 2.522442 1_555
Na4 O48 2.618636 1_565
Na4 O70 2.637664 1_555
Na4 O13 2.720651 1_565
Na4 O3 2.872795 1_565
Na5 O64 2.401703 1_555
Na5 O43 2.406182 1_555
Na5 O7 2.551062 1_555
Na5 O42 2.576195 1_455
Na5 O65 2.584071 1_555
Na5 O28 2.641440 1_555
Na6 O44 2.418343 1_455
Na6 O65 2.424140 1_555
Na6 O29 2.527910 1_555
Na6 O43 2.589899 1_565
Na6 O8 2.628189 1_555
Na6 O63 2.630818 1_555
Na7 O63 2.417980 1_555
Na7 O42 2.443512 1_565
Na7 O6 2.521774 1_555
Na7 O44 2.571708 1_555
Na7 O64 2.608273 1_555
Na7 O27 2.637493 1_555
Na8 O47 2.395418 1_565
Na8 O62 2.411966 1_555
Na8 O26 2.536292 1_554
Na8 O45 2.595371 1_455
Na8 O61 2.604632 1_555
Na8 O11 2.705349 1_555
Na9 O60 2.411235 1_555
Na9 O45 2.433568 1_555
Na9 O9 2.514094 1_555
Na9 O46 2.552026 1_565
Na9 O62 2.596721 1_555
Na9 O24 2.700657 1_554
Na10 O61 2.413341 1_555
Na10 O46 2.450956 1_455
Na10 O10 2.571645 1_555
Na10 O47 2.610167 1_555
Na10 O25 2.621026 1_554
Na10 O60 2.633519 1_555
Na11 O41 2.440977 1_555
Na11 O54 2.489284 1_555
Na11 O55 2.637638 1_555
Na11 O40 2.643378 1_665
Na11 O4 2.740386 1_555
Na11 O33 2.778649 1_655
Na11 O19 2.792879 1_556
Na11 O26 2.806813 1_655
Na12 O56 2.337518 1_555
Na12 O40 2.412896 1_555
Na12 O39 2.606914 1_555
Na12 O18 2.688266 1_556
Na12 O54 2.721534 1_555
Na12 O25 2.748527 1_555
Na12 O3 2.765472 1_555
Na12 O35 2.948768 1_555
Na13 O57 2.352679 1_555
Na13 O37 2.425360 1_555
Na13 O59 2.662229 1_555
Na13 O38 2.680150 1_655
Na13 O2 2.703902 1_555
Na13 O30 2.753384 1_655
Na13 O23 2.766531 1_555
Na13 O28 2.945804 1_655
Na14 O59 2.365262 1_555
Na14 O36 2.390770 1_555
Na14 O58 2.675674 1_555
Na14 O37 2.680795 1_565
Na14 O22 2.722550 1_555
Na14 O27 2.750544 1_555
Na14 O1 2.794783 1_555
Na14 O32 2.843505 1_555
Na15 O36 2.471125 1_455
Na15 O43 2.565932 1_565
Na15 O38 2.580030 1_565
Na15 O37 2.581250 1_465
Na15 O44 2.631689 1_455
Na15 O42 2.662184 1_465
Na16 O39 2.494970 1_655
Na16 O41 2.527604 1_545
Na16 O40 2.529219 1_655
Na16 O46 2.608286 1_556
Na16 O47 2.651156 1_656
Na16 O45 2.664517 1_546
Na17 O48 2.423438 1_555
Na17 O55 2.493892 1_555
Na17 O56 2.527899 1_555
Na17 O49 2.586087 1_555
Na17 O50 2.603323 1_555
Na17 O54 2.632363 1_555
Na18 O53 2.462749 1_555
Na18 O52 2.494418 1_555
Na18 O51 2.540604 1_555
Na18 O58 2.570940 1_555
Na18 O57 2.576749 1_555
Na18 O59 2.579867 1_555
Na19 O60 2.486297 1_555
Na19 O67 2.540465 1_555
Na19 O68 2.587535 1_555
Na19 O62 2.684793 1_555
Na19 O61 2.705198 1_555
Na19 O66 2.781929 1_555
Na20 O65 2.564821 1_555
Na20 O63 2.591683 1_555
Na20 O64 2.598717 1_555
Na20 O70 2.650180 1_555
Na20 O69 2.651764 1_555
Na20 O71 2.653966 1_555
Ca0 O8 2.173014 1_555
Ca0 O6 2.191106 1_455
Ca0 O7 2.197552 1_565
Ca0 O42 2.281332 1_465
Ca0 O43 2.308031 1_565
Ca0 O44 2.311283 1_455
Ca1 O10 2.163187 1_555
Ca1 O9 2.194535 1_445
Ca1 O11 2.222121 1_545
Ca1 O46 2.265348 1_455
Ca1 O45 2.307199 1_445
Ca1 O47 2.310644 1_555
Ca2 O26 2.270827 1_554
Ca2 O61 2.283333 1_555
Ca2 O25 2.283757 1_554
Ca2 O24 2.312187 1_554
Ca2 O62 2.338280 1_555
Ca2 O60 2.347238 1_555
Ca3 O29 2.265107 1_555
Ca3 O27 2.268733 1_555
Ca3 O63 2.271011 1_555
Ca3 O28 2.349876 1_555
Ca3 O65 2.368914 1_555
Ca3 O64 2.375102 1_555
Ca4 O32 2.245677 1_555
Ca4 O30 2.263155 1_555
Ca4 O31 2.268412 1_555
Ca4 O68 2.274076 1_555
Ca4 O67 2.280991 1_555
Ca4 O66 2.312270 1_555
Ca5 O34 2.212806 1_555
Ca5 O33 2.264556 1_555
Ca5 O70 2.265371 1_555
Ca5 O35 2.288194 1_555
Ca5 O69 2.294022 1_555
Ca5 O71 2.295100 1_555
Ga0 O1 1.939488 1_555
Ga0 O37 1.988339 1_565
Ga0 O2 2.005433 1_565
Ga0 O36 2.037441 1_555
Ga0 O0 2.144702 1_665
Ga0 O38 2.261151 1_665
Ga1 O3 1.957167 1_555
Ga1 O5 1.957399 1_455
Ga1 O39 2.003716 1_555
Ga1 O4 2.033177 1_445
Ga1 O40 2.086907 1_555
Ga1 O41 2.320463 1_445
Ga2 O13 1.933856 1_555
Ga2 O12 1.948871 1_555
Ga2 O14 1.949892 1_555
Ga2 O49 2.099767 1_555
Ga2 O48 2.110546 1_555
Ga2 O50 2.113072 1_555
Ga3 O17 1.907476 1_555
Ga3 O15 1.907928 1_555
Ga3 O16 1.950685 1_555
Ga3 O51 2.029387 1_555
Ga3 O52 2.134183 1_555
Ga3 O53 2.328167 1_555
Ga4 O20 1.853070 1_556
Ga4 O18 1.940377 1_556
Ga4 O19 1.958533 1_556
Ga4 O55 1.995743 1_555
Ga4 O56 2.020986 1_555
Ga4 O54 2.265000 1_555
Ga5 O23 1.897528 1_555
Ga5 O21 1.898244 1_555
Ga5 O22 1.924266 1_555
Ga5 O57 2.002990 1_555
Ga5 O59 2.086863 1_555
Ga5 O58 2.193819 1_555
O0 S0 1.486056 1_555
O1 P0 1.585433 1_555
O2 P1 1.580139 1_555
O3 P2 1.574522 1_555
O4 P3 1.576224 1_555
O5 P4 1.568353 1_555
O6 P4 1.519678 1_565
O7 P2 1.516861 1_555
O8 P3 1.516943 1_455
O9 P0 1.517376 1_555
O10 P1 1.513077 1_455
O11 S0 1.467241 1_565
O12 P5 1.557916 1_555
O13 P6 1.557564 1_555
O14 P7 1.559431 1_555
O15 P8 1.556340 1_555
O16 P9 1.557493 1_555
O17 P10 1.548308 1_555
O18 P10 1.546460 1_555
O19 P8 1.545785 1_555
O20 P9 1.533170 1_555
O21 P6 1.534853 1_555
O22 P7 1.543755 1_555
O23 P5 1.544105 1_555
O24 S1 1.471387 1_555
O25 P11 1.549728 1_555
O26 P12 1.538514 1_555
O27 P13 1.534961 1_555
O28 S2 1.485783 1_555
O29 P14 1.530220 1_555
O30 P14 1.530973 1_555
O31 P13 1.519165 1_555
O32 S2 1.470412 1_555
O33 P11 1.539653 1_555
O34 P12 1.520169 1_555
O35 S1 1.473180 1_555
O36 P14 1.569008 1_655
O37 P13 1.589526 1_545
O38 S2 1.485869 1_555
O39 P11 1.556758 1_555
O40 P12 1.580024 1_545
O41 S1 1.481674 1_555
O42 P5 1.539503 1_555
O43 P6 1.542588 1_555
O44 P7 1.544418 1_555
O45 P8 1.542552 1_555
O46 P9 1.540014 1_555
O47 P10 1.545852 1_555
O48 P4 1.571542 1_555
O49 P2 1.566429 1_555
O50 P3 1.571525 1_555
O51 P0 1.571120 1_555
O52 P1 1.589711 1_555
O53 S0 1.483638 1_555
O54 S1 1.498931 1_555
O55 P11 1.562568 1_655
O56 P12 1.565691 1_545
O57 P13 1.561877 1_545
O58 S2 1.484581 1_555
O59 P14 1.582215 1_655
O60 P10 1.545163 1_555
O61 P8 1.542523 1_455
O62 P9 1.546777 1_565
O63 P6 1.547460 1_565
O64 P7 1.545488 1_555
O65 P5 1.543220 1_455
O66 S0 1.488738 1_565
O67 P0 1.525227 1_555
O68 P1 1.532256 1_455
O69 P2 1.533806 1_555
O70 P3 1.540119 1_455
O71 P4 1.536711 1_565
