# generated using pymatgen
data_TmGeRh
_symmetry_space_group_name_H-M   'P 1'
_cell_length_a   4.25072036
_cell_length_b   6.80435269
_cell_length_c   7.48705795
_cell_angle_alpha   90.00000000
_cell_angle_beta   90.00000000
_cell_angle_gamma   90.00000000
_symmetry_Int_Tables_number   1
_chemical_formula_structural   TmGeRh
_chemical_formula_sum   'Tm4 Ge4 Rh4'
_cell_volume   216.55117577
_cell_formula_units_Z   4
loop_
 _symmetry_equiv_pos_site_id
 _symmetry_equiv_pos_as_xyz
  1  'x, y, z'
loop_
 _atom_site_type_symbol
 _atom_site_label
 _atom_site_symmetry_multiplicity
 _atom_site_fract_x
 _atom_site_fract_y
 _atom_site_fract_z
 _atom_site_occupancy
  Tm  Tm0  1  0.25000000  0.00396735  0.19645322  1
  Tm  Tm1  1  0.75000000  0.99603265  0.80354678  1
  Tm  Tm2  1  0.25000000  0.50396735  0.30354678  1
  Tm  Tm3  1  0.75000000  0.49603265  0.69645322  1
  Ge  Ge0  1  0.25000000  0.28668634  0.89204973  1
  Ge  Ge1  1  0.75000000  0.71331366  0.10795027  1
  Ge  Ge2  1  0.25000000  0.78668634  0.60795027  1
  Ge  Ge3  1  0.75000000  0.21331366  0.39204973  1
  Rh  Rh0  1  0.75000000  0.84458916  0.43447203  1
  Rh  Rh1  1  0.25000000  0.15541084  0.56552797  1
  Rh  Rh2  1  0.75000000  0.34458916  0.06552797  1
  Rh  Rh3  1  0.25000000  0.65541084  0.93447203  1
loop_
_geom_bond_atom_site_label_1
_geom_bond_atom_site_label_2
_geom_bond_distance
_geom_bond_site_symmetry_2
Ge0 Rh2 2.521780 1_456
Ge0 Rh2 2.521780 1_556
Ge0 Rh3 2.528956 1_555
Ge0 Rh1 2.602764 1_555
Ge0 Tm3 2.948025 1_555
Ge0 Tm3 2.948025 1_455
Ge0 Tm1 2.977846 1_545
Ge0 Tm1 2.977846 1_445
Ge0 Tm0 2.982437 1_556
Ge1 Rh3 2.521780 1_654
Ge1 Rh3 2.521780 1_554
Ge1 Rh2 2.528956 1_555
Ge1 Rh0 2.602764 1_555
Ge1 Tm2 2.948025 1_555
Ge1 Tm2 2.948025 1_655
Ge1 Tm0 2.977846 1_665
Ge1 Tm0 2.977846 1_565
Ge1 Tm1 2.982437 1_554
Ge2 Rh0 2.521780 1_555
Ge2 Rh0 2.521780 1_455
Ge2 Rh1 2.528956 1_565
Ge2 Rh3 2.602764 1_555
Ge2 Tm1 2.948025 1_555
Ge2 Tm1 2.948025 1_455
Ge2 Tm3 2.977846 1_555
Ge2 Tm3 2.977846 1_455
Ge2 Tm2 2.982437 1_555
Ge3 Rh1 2.521780 1_555
Ge3 Rh1 2.521780 1_655
Ge3 Rh0 2.528956 1_545
Ge3 Rh2 2.602764 1_555
Ge3 Tm0 2.948025 1_555
Ge3 Tm0 2.948025 1_655
Ge3 Tm2 2.977846 1_655
Ge3 Tm2 2.977846 1_555
Ge3 Tm3 2.982437 1_555
Rh0 Tm1 2.949172 1_555
Rh0 Tm0 2.978080 1_665
Rh0 Tm0 2.978080 1_565
Rh0 Tm3 3.077714 1_555
Rh0 Tm2 3.293906 1_555
Rh0 Tm2 3.293906 1_655
Rh1 Tm0 2.949172 1_555
Rh1 Tm1 2.978080 1_445
Rh1 Tm1 2.978080 1_545
Rh1 Tm2 3.077714 1_555
Rh1 Tm3 3.293906 1_555
Rh1 Tm3 3.293906 1_455
Rh2 Tm3 2.949172 1_554
Rh2 Tm2 2.978080 1_655
Rh2 Tm2 2.978080 1_555
Rh2 Tm1 3.077714 1_544
Rh2 Tm0 3.293906 1_555
Rh2 Tm0 3.293906 1_655
Rh3 Tm2 2.949172 1_556
Rh3 Tm3 2.978080 1_555
Rh3 Tm3 2.978080 1_455
Rh3 Tm0 3.077714 1_566
Rh3 Tm1 3.293906 1_555
Rh3 Tm1 3.293906 1_455
