# generated using pymatgen
data_K2MgTi2O5
_symmetry_space_group_name_H-M   'P 1'
_cell_length_a   3.91099056
_cell_length_b   5.82833165
_cell_length_c   9.27455961
_cell_angle_alpha   98.27813306
_cell_angle_beta   89.78404259
_cell_angle_gamma   109.57056842
_symmetry_Int_Tables_number   1
_chemical_formula_structural   K2MgTi2O5
_chemical_formula_sum   'K2 Mg1 Ti2 O5'
_cell_volume   196.89654421
_cell_formula_units_Z   1
loop_
 _symmetry_equiv_pos_site_id
 _symmetry_equiv_pos_as_xyz
  1  'x, y, z'
loop_
 _atom_site_type_symbol
 _atom_site_label
 _atom_site_symmetry_multiplicity
 _atom_site_fract_x
 _atom_site_fract_y
 _atom_site_fract_z
 _atom_site_occupancy
  K  K0  1  0.65388774  0.30046582  0.51447349  1
  K  K1  1  0.41555332  0.82797783  0.72725755  1
  Mg  Mg0  1  0.35576855  0.71869831  0.28520678  1
  Ti  Ti0  1  0.84755252  0.69799249  0.03694849  1
  Ti  Ti1  1  0.14637252  0.29289412  0.90990043  1
  O  O0  1  0.67127481  0.34352819  0.95419459  1
  O  O1  1  0.31165667  0.62625693  0.04360909  1
  O  O2  1  0.89813884  0.80281841  0.23402281  1
  O  O3  1  0.15622767  0.30894348  0.72298871  1
  O  O4  1  0.97213836  0.94500741  0.92139807  1
loop_
_geom_bond_atom_site_label_1
_geom_bond_atom_site_label_2
_geom_bond_distance
_geom_bond_site_symmetry_2
K0 O3 2.745594 1_655
K0 O3 2.745752 1_555
K1 O4 2.669632 1_555
K1 O4 2.670199 1_455
K1 O3 2.844616 1_555
Mg0 O2 2.080370 1_555
Mg0 O2 2.080948 1_455
Mg0 O1 2.221226 1_555
O0 Ti0 1.981330 1_556
O0 Ti1 2.008754 1_655
O0 Ti1 2.008926 1_555
O1 Ti0 1.997480 1_455
O1 Ti0 1.997688 1_555
O1 Ti1 2.049768 1_554
O2 Ti0 1.831221 1_555
O3 Ti1 1.749033 1_555
O4 Ti0 1.851755 1_556
O4 Ti1 1.929498 1_665
