# generated using pymatgen
data_YSc(SO4)3
_symmetry_space_group_name_H-M   'P 1'
_cell_length_a   9.06412108
_cell_length_b   9.06412077
_cell_length_c   23.45293780
_cell_angle_alpha   90.00000000
_cell_angle_beta   90.00000000
_cell_angle_gamma   120.00000113
_symmetry_Int_Tables_number   1
_chemical_formula_structural   YSc(SO4)3
_chemical_formula_sum   'Y6 Sc6 S18 O72'
_cell_volume   1668.70382016
_cell_formula_units_Z   6
loop_
 _symmetry_equiv_pos_site_id
 _symmetry_equiv_pos_as_xyz
  1  'x, y, z'
loop_
 _atom_site_type_symbol
 _atom_site_label
 _atom_site_symmetry_multiplicity
 _atom_site_fract_x
 _atom_site_fract_y
 _atom_site_fract_z
 _atom_site_occupancy
  Y  Y0  1  -0.00000000  0.00000000  0.85271767  1
  Y  Y1  1  0.66666700  0.33333300  0.98061533  1
  Y  Y2  1  0.33333300  0.66666700  0.02511330  1
  Y  Y3  1  0.33333300  0.66666700  0.52261340  1
  Y  Y4  1  0.33333300  0.66666700  0.31072060  1
  Y  Y5  1  0.33333300  0.66666700  0.80822070  1
  Sc  Sc0  1  -0.00000000  0.00000000  0.35322051  1
  Sc  Sc1  1  -0.00000000  0.00000000  0.64398069  1
  Sc  Sc2  1  -0.00000000  0.00000000  0.14650317  1
  Sc  Sc3  1  0.66666700  0.33333300  0.68682983  1
  Sc  Sc4  1  0.66666700  0.33333300  0.18935231  1
  Sc  Sc5  1  0.66666700  0.33333300  0.48011249  1
  S  S0  1  0.28682122  0.00733986  0.24861644  1
  S  S1  1  0.72051864  0.71317878  0.24861644  1
  S  S2  1  0.99266014  0.27948136  0.24861644  1
  S  S3  1  0.29308145  0.28525523  0.74581547  1
  S  S4  1  0.99217378  0.70691855  0.74581547  1
  S  S5  1  0.71474477  0.00782622  0.74581547  1
  S  S6  1  0.94614836  0.32599314  0.58471656  1
  S  S7  1  0.37984578  0.05385164  0.58471656  1
  S  S8  1  0.67400686  0.62015422  0.58471656  1
  S  S9  1  0.95192223  0.62641445  0.08751753  1
  S  S10  1  0.67449322  0.04807777  0.08751753  1
  S  S11  1  0.37358555  0.32550678  0.08751753  1
  S  S12  1  0.62400231  0.66666700  0.91666700  1
  S  S13  1  0.04266369  0.37599769  0.91666700  1
  S  S14  1  0.33333300  0.95733631  0.91666700  1
  S  S15  1  0.63292651  0.96626051  0.41666700  1
  S  S16  1  0.33333300  0.36707349  0.41666700  1
  S  S17  1  0.03373949  0.66666700  0.41666700  1
  O  O0  1  0.20630192  0.03165204  0.30037914  1
  O  O1  1  0.82535012  0.79369808  0.30037914  1
  O  O2  1  0.96834796  0.17464988  0.30037914  1
  O  O3  1  0.22032080  0.18434015  0.79854605  1
  O  O4  1  0.96401935  0.77967920  0.79854605  1
  O  O5  1  0.81565985  0.03598065  0.79854605  1
  O  O6  1  0.80255496  0.98209512  0.69667300  1
  O  O7  1  0.17954016  0.19744504  0.69667300  1
  O  O8  1  0.01790488  0.82045984  0.69667300  1
  O  O9  1  0.80261824  0.82164621  0.19810766  1
  O  O10  1  0.01902797  0.19738176  0.19810766  1
  O  O11  1  0.17835379  0.98097203  0.19810766  1
  O  O12  1  0.86404876  0.35236097  0.63522534  1
  O  O13  1  0.48831321  0.13595124  0.63522534  1
  O  O14  1  0.64763903  0.51168679  0.63522534  1
  O  O15  1  0.86411204  0.51287316  0.13666000  1
  O  O16  1  0.64876212  0.13588796  0.13666000  1
  O  O17  1  0.48712684  0.35123788  0.13666000  1
  O  O18  1  0.44634620  0.29735235  0.03478695  1
  O  O19  1  0.85100715  0.55365380  0.03478695  1
  O  O20  1  0.70264765  0.14899285  0.03478695  1
  O  O21  1  0.46036508  0.15868312  0.53295386  1
  O  O22  1  0.69831904  0.53963492  0.53295386  1
  O  O23  1  0.84131688  0.30168096  0.53295386  1
  O  O24  1  0.54253527  0.69024391  0.96798914  1
  O  O25  1  0.14770765  0.45746473  0.96798914  1
  O  O26  1  0.30975609  0.85229235  0.96798914  1
  O  O27  1  0.55448188  0.85528870  0.46723134  1
  O  O28  1  0.30080582  0.44551812  0.46723134  1
  O  O29  1  0.14471130  0.69919418  0.46723134  1
  O  O30  1  0.11218412  0.63413982  0.36610266  1
  O  O31  1  0.52195470  0.88781588  0.36610266  1
  O  O32  1  0.36586018  0.47804530  0.36610266  1
  O  O33  1  0.12413073  0.48104165  0.86534486  1
  O  O34  1  0.35690991  0.87586927  0.86534486  1
  O  O35  1  0.51895835  0.64309009  0.86534486  1
  O  O36  1  0.01446591  0.81724623  0.40538325  1
  O  O37  1  0.80278032  0.98553409  0.40538325  1
  O  O38  1  0.18275377  0.19721968  0.40538325  1
  O  O39  1  0.02467179  0.20634808  0.90959309  1
  O  O40  1  0.18167629  0.97532821  0.90959309  1
  O  O41  1  0.79365192  0.81832371  0.90959309  1
  O  O42  1  0.96495410  0.17434856  0.59389264  1
  O  O43  1  0.20939446  0.03504590  0.59389264  1
  O  O44  1  0.82565144  0.79060554  0.59389264  1
  O  O45  1  0.97220361  0.79662683  0.09717762  1
  O  O46  1  0.82442322  0.02779639  0.09717762  1
  O  O47  1  0.20337317  0.17557678  0.09717762  1
  O  O48  1  0.69446339  0.15775622  0.73615538  1
  O  O49  1  0.46329383  0.30553661  0.73615538  1
  O  O50  1  0.84224378  0.53670617  0.73615538  1
  O  O51  1  0.70171290  0.54272746  0.23944036  1
  O  O52  1  0.84101556  0.29828710  0.23944036  1
  O  O53  1  0.45727254  0.15898444  0.23944036  1
  O  O54  1  0.64199521  0.51500929  0.92373991  1
  O  O55  1  0.87301508  0.35800479  0.92373991  1
  O  O56  1  0.48499071  0.12698492  0.92373991  1
  O  O57  1  0.65220109  0.13611332  0.42794975  1
  O  O58  1  0.48391323  0.34779891  0.42794975  1
  O  O59  1  0.86388668  0.51608677  0.42794975  1
  O  O60  1  0.35648129  0.47804525  0.08046781  1
  O  O61  1  0.12156296  0.64351871  0.08046781  1
  O  O62  1  0.52195475  0.87843704  0.08046781  1
  O  O63  1  0.36070492  0.88317948  0.57704946  1
  O  O64  1  0.52247356  0.63929508  0.57704946  1
  O  O65  1  0.11682052  0.47752644  0.57704946  1
  O  O66  1  0.30596108  0.85580756  0.25628454  1
  O  O67  1  0.54984548  0.69403892  0.25628454  1
  O  O68  1  0.14419244  0.45015452  0.25628454  1
  O  O69  1  0.31018471  0.45489696  0.75286619  1
  O  O70  1  0.14471125  0.68981529  0.75286619  1
  O  O71  1  0.54510304  0.85528875  0.75286619  1
loop_
_geom_bond_atom_site_label_1
_geom_bond_atom_site_label_2
_geom_bond_distance
_geom_bond_site_symmetry_2
O0 S0 1.488564 1_555
O0 Sc0 2.139708 1_555
O1 S1 1.488564 1_555
O1 Sc0 2.139708 1_665
O2 S2 1.488564 1_555
O2 Sc0 2.139708 1_655
O3 S3 1.482491 1_555
O3 Y0 2.248836 1_555
O4 S4 1.482491 1_555
O4 Y0 2.248836 1_665
O5 S5 1.482491 1_555
O5 Y0 2.248837 1_655
O6 S5 1.483866 1_565
O6 Sc1 2.113284 1_665
O7 S3 1.483866 1_555
O7 Sc1 2.113284 1_555
O8 S4 1.483866 1_455
O8 Sc1 2.113284 1_565
O9 S1 1.480534 1_555
O9 Sc2 2.094469 1_665
O10 S2 1.480534 1_455
O10 Sc2 2.094469 1_555
O11 S0 1.480534 1_565
O11 Sc2 2.094469 1_565
O12 S6 1.480534 1_555
O12 Sc3 2.094469 1_555
O13 S7 1.480534 1_555
O13 Sc3 2.094469 1_555
O14 S8 1.480534 1_555
O14 Sc3 2.094469 1_555
O15 S9 1.483866 1_555
O15 Sc4 2.113284 1_555
O16 S10 1.483866 1_555
O16 Sc4 2.113284 1_555
O17 S11 1.483866 1_555
O17 Sc4 2.113284 1_555
O18 S11 1.482491 1_555
O18 Y1 2.248837 1_554
O19 S9 1.482491 1_555
O19 Y1 2.248836 1_554
O20 S10 1.482491 1_555
O20 Y1 2.248836 1_554
O21 S7 1.488564 1_555
O21 Sc5 2.139708 1_555
O22 S8 1.488564 1_555
O22 Sc5 2.139708 1_555
O23 S6 1.488564 1_555
O23 Sc5 2.139708 1_555
O24 S12 1.482408 1_555
O24 Y2 2.242993 1_556
O25 S13 1.482408 1_555
O25 Y2 2.242993 1_556
O26 S14 1.482408 1_555
O26 Y2 2.242993 1_556
O27 S15 1.486083 1_555
O27 Y3 2.280592 1_555
O28 S16 1.486083 1_555
O28 Y3 2.280592 1_555
O29 S17 1.486083 1_555
O29 Y3 2.280592 1_555
O30 S17 1.486083 1_555
O30 Y4 2.280592 1_555
O31 S15 1.486083 1_555
O31 Y4 2.280592 1_555
O32 S16 1.486083 1_555
O32 Y4 2.280592 1_555
O33 S13 1.482408 1_555
O33 Y5 2.242993 1_555
O34 S14 1.482408 1_555
O34 Y5 2.242993 1_555
O35 S12 1.482408 1_555
O35 Y5 2.242993 1_555
O36 S17 1.483866 1_555
O36 Sc0 2.115426 1_565
O37 S15 1.483875 1_555
O37 Sc0 2.115426 1_665
O38 S16 1.483871 1_555
O38 Sc0 2.115426 1_555
O39 S13 1.472394 1_555
O39 Y0 2.215690 1_555
O40 S14 1.472385 1_555
O40 Y0 2.215690 1_565
O41 S12 1.472390 1_555
O41 Y0 2.215690 1_665
O42 S6 1.482898 1_555
O42 Sc1 2.116662 1_655
O43 S7 1.482907 1_555
O43 Sc1 2.116662 1_555
O44 S8 1.482903 1_555
O44 Sc1 2.116662 1_665
O45 S9 1.477096 1_555
O45 Sc2 2.082164 1_665
O46 S10 1.477087 1_555
O46 Sc2 2.082164 1_655
O47 S11 1.477092 1_555
O47 Sc2 2.082164 1_555
O48 S5 1.477087 1_555
O48 Sc3 2.082164 1_555
O49 S3 1.477096 1_555
O49 Sc3 2.082164 1_555
O50 S4 1.477092 1_555
O50 Sc3 2.082164 1_555
O51 S1 1.482907 1_555
O51 Sc4 2.116662 1_555
O52 S2 1.482898 1_555
O52 Sc4 2.116662 1_555
O53 S0 1.482903 1_555
O53 Sc4 2.116662 1_555
O54 S12 1.472396 1_555
O54 Y1 2.215690 1_555
O55 S13 1.472378 1_655
O55 Y1 2.215690 1_555
O56 S14 1.472386 1_545
O56 Y1 2.215690 1_555
O57 S15 1.483858 1_545
O57 Sc5 2.115426 1_555
O58 S16 1.483876 1_555
O58 Sc5 2.115426 1_555
O59 S17 1.483865 1_655
O59 Sc5 2.115426 1_555
O60 S11 1.475597 1_555
O60 Y2 2.238567 1_555
O61 S9 1.475579 1_455
O61 Y2 2.238567 1_555
O62 S10 1.475586 1_565
O62 Y2 2.238567 1_555
O63 S7 1.478927 1_565
O63 Y3 2.248548 1_555
O64 S8 1.478945 1_555
O64 Y3 2.248548 1_555
O65 S6 1.478935 1_455
O65 Y3 2.248548 1_555
O66 S0 1.478934 1_565
O66 Y4 2.248548 1_555
O67 S1 1.478943 1_555
O67 Y4 2.248548 1_555
O68 S2 1.478939 1_455
O68 Y4 2.248548 1_555
O69 S3 1.475594 1_555
O69 Y5 2.238567 1_555
O70 S4 1.475585 1_455
O70 Y5 2.238567 1_555
O71 S5 1.475590 1_565
O71 Y5 2.238567 1_555
