# generated using pymatgen
data_Ca3Fe2(GeO4)3
_symmetry_space_group_name_H-M   'P 1'
_cell_length_a   10.80088004
_cell_length_b   10.80088004
_cell_length_c   10.80088004
_cell_angle_alpha   109.47122063
_cell_angle_beta   109.47122063
_cell_angle_gamma   109.47122063
_symmetry_Int_Tables_number   1
_chemical_formula_structural   Ca3Fe2(GeO4)3
_chemical_formula_sum   'Ca12 Fe8 Ge12 O48'
_cell_volume   969.96382481
_cell_formula_units_Z   4
loop_
 _symmetry_equiv_pos_site_id
 _symmetry_equiv_pos_as_xyz
  1  'x, y, z'
loop_
 _atom_site_type_symbol
 _atom_site_label
 _atom_site_symmetry_multiplicity
 _atom_site_fract_x
 _atom_site_fract_y
 _atom_site_fract_z
 _atom_site_occupancy
  Ca  Ca0  1  0.25000000  0.87500000  0.62500000  1
  Ca  Ca1  1  0.75000000  0.62500000  0.87500000  1
  Ca  Ca2  1  0.62500000  0.87500000  0.75000000  1
  Ca  Ca3  1  0.87500000  0.62500000  0.25000000  1
  Ca  Ca4  1  0.62500000  0.25000000  0.87500000  1
  Ca  Ca5  1  0.87500000  0.75000000  0.62500000  1
  Ca  Ca6  1  0.75000000  0.12500000  0.37500000  1
  Ca  Ca7  1  0.25000000  0.37500000  0.12500000  1
  Ca  Ca8  1  0.37500000  0.12500000  0.25000000  1
  Ca  Ca9  1  0.12500000  0.37500000  0.75000000  1
  Ca  Ca10  1  0.37500000  0.75000000  0.12500000  1
  Ca  Ca11  1  0.12500000  0.25000000  0.37500000  1
  Fe  Fe0  1  0.50000000  0.50000000  0.50000000  1
  Fe  Fe1  1  0.50000000  0.00000000  0.50000000  1
  Fe  Fe2  1  0.00000000  0.50000000  0.50000000  1
  Fe  Fe3  1  0.50000000  0.50000000  0.00000000  1
  Fe  Fe4  1  0.00000000  0.00000000  0.50000000  1
  Fe  Fe5  1  0.00000000  0.50000000  0.00000000  1
  Fe  Fe6  1  0.50000000  0.00000000  0.00000000  1
  Fe  Fe7  1  0.00000000  0.00000000  0.00000000  1
  Ge  Ge0  1  0.12500000  0.75000000  0.87500000  1
  Ge  Ge1  1  0.87500000  0.25000000  0.12500000  1
  Ge  Ge2  1  0.62500000  0.37500000  0.25000000  1
  Ge  Ge3  1  0.75000000  0.87500000  0.12500000  1
  Ge  Ge4  1  0.87500000  0.12500000  0.75000000  1
  Ge  Ge5  1  0.25000000  0.62500000  0.37500000  1
  Ge  Ge6  1  0.75000000  0.37500000  0.62500000  1
  Ge  Ge7  1  0.25000000  0.12500000  0.87500000  1
  Ge  Ge8  1  0.12500000  0.87500000  0.25000000  1
  Ge  Ge9  1  0.37500000  0.62500000  0.75000000  1
  Ge  Ge10  1  0.62500000  0.75000000  0.37500000  1
  Ge  Ge11  1  0.37500000  0.25000000  0.62500000  1
  O  O0  1  0.41536600  0.81422900  0.79667600  1
  O  O1  1  0.88131000  0.39886300  0.08463400  1
  O  O2  1  0.10113700  0.98244800  0.68577100  1
  O  O3  1  0.51755200  0.61869000  0.70332400  1
  O  O4  1  0.68577100  0.08463400  0.70332400  1
  O  O5  1  0.61869000  0.70332400  0.51755200  1
  O  O6  1  0.61869000  0.41536600  0.10113700  1
  O  O7  1  0.70332400  0.51755200  0.61869000  1
  O  O8  1  0.81422900  0.51755200  0.39886300  1
  O  O9  1  0.98244800  0.79667600  0.88131000  1
  O  O10  1  0.79667600  0.88131000  0.98244800  1
  O  O11  1  0.70332400  0.68577100  0.08463400  1
  O  O12  1  0.41536600  0.10113700  0.61869000  1
  O  O13  1  0.39886300  0.81422900  0.51755200  1
  O  O14  1  0.08463400  0.70332400  0.68577100  1
  O  O15  1  0.10113700  0.61869000  0.41536600  1
  O  O16  1  0.51755200  0.39886300  0.81422900  1
  O  O17  1  0.08463400  0.88131000  0.39886300  1
  O  O18  1  0.98244800  0.68577100  0.10113700  1
  O  O19  1  0.18577100  0.48244800  0.60113700  1
  O  O20  1  0.68577100  0.10113700  0.98244800  1
  O  O21  1  0.79667600  0.41536600  0.81422900  1
  O  O22  1  0.39886300  0.08463400  0.88131000  1
  O  O23  1  0.88131000  0.98244800  0.79667600  1
  O  O24  1  0.58463400  0.18577100  0.20332400  1
  O  O25  1  0.11869000  0.60113700  0.91536600  1
  O  O26  1  0.89886300  0.01755200  0.31422900  1
  O  O27  1  0.48244800  0.38131000  0.29667600  1
  O  O28  1  0.31422900  0.91536600  0.29667600  1
  O  O29  1  0.38131000  0.29667600  0.48244800  1
  O  O30  1  0.38131000  0.58463400  0.89886300  1
  O  O31  1  0.29667600  0.48244800  0.38131000  1
  O  O32  1  0.11869000  0.01755200  0.20332400  1
  O  O33  1  0.60113700  0.91536600  0.11869000  1
  O  O34  1  0.20332400  0.58463400  0.18577100  1
  O  O35  1  0.18577100  0.20332400  0.58463400  1
  O  O36  1  0.31422900  0.89886300  0.01755200  1
  O  O37  1  0.01755200  0.31422900  0.89886300  1
  O  O38  1  0.91536600  0.11869000  0.60113700  1
  O  O39  1  0.48244800  0.60113700  0.18577100  1
  O  O40  1  0.89886300  0.38131000  0.58463400  1
  O  O41  1  0.91536600  0.29667600  0.31422900  1
  O  O42  1  0.60113700  0.18577100  0.48244800  1
  O  O43  1  0.58463400  0.89886300  0.38131000  1
  O  O44  1  0.29667600  0.31422900  0.91536600  1
  O  O45  1  0.20332400  0.11869000  0.01755200  1
  O  O46  1  0.01755200  0.20332400  0.11869000  1
  O  O47  1  0.81422900  0.79667600  0.41536600  1
loop_
_geom_bond_atom_site_label_1
_geom_bond_atom_site_label_2
_geom_bond_distance
_geom_bond_site_symmetry_2
Ca0 O22 2.408847 1_565
Ca0 O15 2.408847 1_555
Ca0 O13 2.408853 1_555
Ca0 O2 2.408853 1_555
Ca0 O12 2.538559 1_565
Ca0 O0 2.538559 1_555
Ca0 O14 2.538559 1_555
Ca0 O17 2.538559 1_555
Ca1 O11 2.408847 1_556
Ca1 O21 2.408847 1_555
Ca1 O7 2.408847 1_555
Ca1 O10 2.408847 1_555
Ca1 O18 2.538566 1_556
Ca1 O16 2.538566 1_555
Ca1 O9 2.538567 1_555
Ca1 O3 2.538567 1_555
Ca2 O4 2.408847 1_565
Ca2 O0 2.408847 1_555
Ca2 O3 2.408847 1_555
Ca2 O23 2.408847 1_555
Ca2 O20 2.538566 1_565
Ca2 O13 2.538566 1_555
Ca2 O10 2.538567 1_555
Ca2 O5 2.538567 1_555
Ca3 O17 2.408847 1_655
Ca3 O6 2.408847 1_555
Ca3 O8 2.408853 1_555
Ca3 O18 2.408853 1_555
Ca3 O15 2.538559 1_655
Ca3 O47 2.538559 1_555
Ca3 O11 2.538559 1_555
Ca3 O1 2.538559 1_555
Ca4 O1 2.408847 1_556
Ca4 O12 2.408847 1_555
Ca4 O16 2.408853 1_555
Ca4 O20 2.408853 1_555
Ca4 O6 2.538559 1_556
Ca4 O21 2.538559 1_555
Ca4 O4 2.538559 1_555
Ca4 O22 2.538559 1_555
Ca5 O14 2.408847 1_655
Ca5 O47 2.408847 1_555
Ca5 O5 2.408847 1_555
Ca5 O9 2.408847 1_555
Ca5 O2 2.538566 1_655
Ca5 O8 2.538566 1_555
Ca5 O23 2.538567 1_555
Ca5 O7 2.538567 1_555
Ca6 O33 2.408847 1_545
Ca6 O40 2.408847 1_555
Ca6 O26 2.408853 1_555
Ca6 O42 2.408853 1_555
Ca6 O38 2.538559 1_555
Ca6 O41 2.538559 1_555
Ca6 O43 2.538559 1_545
Ca6 O24 2.538559 1_555
Ca7 O44 2.408847 1_554
Ca7 O34 2.408847 1_555
Ca7 O45 2.408847 1_555
Ca7 O31 2.408847 1_555
Ca7 O39 2.538566 1_555
Ca7 O37 2.538566 1_554
Ca7 O27 2.538567 1_555
Ca7 O46 2.538567 1_555
Ca8 O28 2.408847 1_545
Ca8 O24 2.408847 1_555
Ca8 O32 2.408847 1_555
Ca8 O27 2.408847 1_555
Ca8 O42 2.538566 1_555
Ca8 O36 2.538566 1_545
Ca8 O29 2.538567 1_555
Ca8 O45 2.538567 1_555
Ca9 O38 2.408847 1_455
Ca9 O30 2.408847 1_555
Ca9 O37 2.408853 1_555
Ca9 O19 2.408853 1_555
Ca9 O25 2.538559 1_555
Ca9 O44 2.538559 1_555
Ca9 O40 2.538559 1_455
Ca9 O35 2.538559 1_555
Ca10 O25 2.408847 1_554
Ca10 O43 2.408847 1_555
Ca10 O36 2.408853 1_555
Ca10 O39 2.408853 1_555
Ca10 O33 2.538559 1_555
Ca10 O28 2.538559 1_555
Ca10 O30 2.538559 1_554
Ca10 O34 2.538559 1_555
Ca11 O41 2.408847 1_455
Ca11 O35 2.408847 1_555
Ca11 O46 2.408847 1_555
Ca11 O29 2.408847 1_555
Ca11 O19 2.538566 1_555
Ca11 O26 2.538566 1_455
Ca11 O31 2.538567 1_555
Ca11 O32 2.538567 1_555
Fe0 O7 2.045896 1_555
Fe0 O5 2.045896 1_555
Fe0 O3 2.045896 1_555
Fe0 O31 2.045896 1_555
Fe0 O27 2.045896 1_555
Fe0 O29 2.045896 1_555
Fe1 O42 2.045884 1_555
Fe1 O13 2.045884 1_545
Fe1 O43 2.045891 1_545
Fe1 O4 2.045891 1_555
Fe1 O28 2.045891 1_545
Fe1 O12 2.045891 1_555
Fe2 O19 2.045884 1_555
Fe2 O8 2.045884 1_455
Fe2 O40 2.045891 1_455
Fe2 O14 2.045891 1_555
Fe2 O41 2.045891 1_455
Fe2 O15 2.045891 1_555
Fe3 O39 2.045884 1_555
Fe3 O16 2.045884 1_554
Fe3 O11 2.045891 1_555
Fe3 O30 2.045891 1_554
Fe3 O44 2.045891 1_554
Fe3 O6 2.045891 1_555
Fe4 O26 2.045884 1_455
Fe4 O2 2.045884 1_545
Fe4 O35 2.045891 1_555
Fe4 O38 2.045891 1_455
Fe4 O47 2.045891 1_445
Fe4 O17 2.045891 1_545
Fe5 O37 2.045884 1_554
Fe5 O18 2.045884 1_455
Fe5 O34 2.045891 1_555
Fe5 O25 2.045891 1_554
Fe5 O21 2.045891 1_454
Fe5 O1 2.045891 1_455
Fe6 O36 2.045884 1_545
Fe6 O20 2.045884 1_554
Fe6 O24 2.045891 1_555
Fe6 O33 2.045891 1_545
Fe6 O0 2.045891 1_544
Fe6 O22 2.045891 1_554
Fe7 O46 2.045896 1_555
Fe7 O32 2.045896 1_555
Fe7 O45 2.045896 1_555
Fe7 O23 2.045896 1_444
Fe7 O10 2.045896 1_444
Fe7 O9 2.045896 1_444
Ge0 O9 1.787169 1_455
Ge0 O36 1.787177 1_556
Ge0 O14 1.787179 1_555
Ge0 O25 1.787179 1_555
Ge1 O46 1.787169 1_655
Ge1 O20 1.787177 1_554
Ge1 O1 1.787179 1_555
Ge1 O41 1.787179 1_555
Ge2 O27 1.787169 1_555
Ge2 O8 1.787177 1_555
Ge2 O24 1.787179 1_555
Ge2 O6 1.787179 1_555
Ge3 O10 1.787169 1_554
Ge3 O26 1.787177 1_565
Ge3 O11 1.787179 1_555
Ge3 O33 1.787179 1_555
Ge4 O23 1.787169 1_545
Ge4 O37 1.787177 1_655
Ge4 O4 1.787179 1_555
Ge4 O38 1.787179 1_555
Ge5 O31 1.787169 1_555
Ge5 O13 1.787177 1_555
Ge5 O34 1.787179 1_555
Ge5 O15 1.787179 1_555
Ge6 O7 1.787169 1_555
Ge6 O42 1.787177 1_555
Ge6 O40 1.787179 1_555
Ge6 O21 1.787179 1_555
Ge7 O45 1.787169 1_556
Ge7 O2 1.787177 1_545
Ge7 O22 1.787179 1_555
Ge7 O44 1.787179 1_555
Ge8 O32 1.787169 1_565
Ge8 O18 1.787177 1_455
Ge8 O17 1.787179 1_555
Ge8 O28 1.787179 1_555
Ge9 O3 1.787169 1_555
Ge9 O19 1.787177 1_555
Ge9 O30 1.787179 1_555
Ge9 O0 1.787179 1_555
Ge10 O5 1.787169 1_555
Ge10 O39 1.787177 1_555
Ge10 O43 1.787179 1_555
Ge10 O47 1.787179 1_555
Ge11 O29 1.787169 1_555
Ge11 O16 1.787177 1_555
Ge11 O35 1.787179 1_555
Ge11 O12 1.787179 1_555
