# generated using pymatgen
data_Na10TaAl7(PO4)12
_symmetry_space_group_name_H-M   'P 1'
_cell_length_a   17.13344681
_cell_length_b   8.57243686
_cell_length_c   21.66064980
_cell_angle_alpha   89.99656641
_cell_angle_beta   89.97147519
_cell_angle_gamma   120.01757808
_symmetry_Int_Tables_number   1
_chemical_formula_structural   Na10TaAl7(PO4)12
_chemical_formula_sum   'Na30 Ta3 Al21 P36 O144'
_cell_volume   2754.69876314
_cell_formula_units_Z   3
loop_
 _symmetry_equiv_pos_site_id
 _symmetry_equiv_pos_as_xyz
  1  'x, y, z'
loop_
 _atom_site_type_symbol
 _atom_site_label
 _atom_site_symmetry_multiplicity
 _atom_site_fract_x
 _atom_site_fract_y
 _atom_site_fract_z
 _atom_site_occupancy
  Na  Na0  1  0.31842018  0.99916914  0.25131216  1
  Na  Na1  1  0.68193829  0.36209132  0.25139030  1
  Na  Na2  1  0.31733646  0.63449303  0.75142181  1
  Na  Na3  1  0.81734772  0.63456413  0.75129015  1
  Na  Na4  1  0.15052231  0.33375169  0.58276337  1
  Na  Na5  1  0.65062287  0.33356855  0.58241557  1
  Na  Na6  1  0.01591475  0.69807710  0.58281413  1
  Na  Na7  1  0.51611298  0.69850121  0.58294779  1
  Na  Na8  1  0.33317012  0.96858807  0.58250415  1
  Na  Na9  1  0.83302128  0.96829650  0.58268722  1
  Na  Na10  1  0.15080314  0.96806869  0.08268004  1
  Na  Na11  1  0.65105628  0.96846434  0.08356930  1
  Na  Na12  1  0.33308399  0.69763130  0.08347243  1
  Na  Na13  1  0.83326630  0.69822313  0.08282603  1
  Na  Na14  1  0.01570282  0.33376210  0.08303374  1
  Na  Na15  1  0.51572069  0.33367412  0.08333313  1
  Na  Na16  1  0.66542023  0.03305984  0.41465891  1
  Na  Na17  1  0.35049118  0.66902121  0.41447295  1
  Na  Na18  1  0.00020856  0.99916833  0.49964511  1
  Na  Na19  1  0.49965415  0.00917403  0.49647047  1
  Na  Na20  1  0.00010952  0.00004921  0.00071593  1
  Na  Na21  1  0.50009912  0.99978699  0.00085014  1
  Na  Na22  1  0.33377120  0.32555301  0.83565857  1
  Na  Na23  1  0.83375681  0.32556221  0.83563023  1
  Na  Na24  1  0.33451118  0.33458702  0.33280010  1
  Na  Na25  1  0.84040794  0.33922256  0.33282466  1
  Na  Na26  1  0.16356901  0.65730525  0.17016186  1
  Na  Na27  1  0.66563991  0.67498679  0.17013423  1
  Na  Na28  1  0.16274951  0.66730883  0.67019380  1
  Na  Na29  1  0.66295681  0.66725346  0.67020551  1
  Ta  Ta0  1  0.00006150  0.99873570  0.35424544  1
  Ta  Ta1  1  0.00050507  0.00163955  0.85682977  1
  Ta  Ta2  1  0.50053969  0.00175732  0.85682311  1
  Al  Al0  1  0.49930791  0.00531311  0.35163429  1
  Al  Al1  1  0.00057157  0.00058612  0.64976179  1
  Al  Al2  1  0.50070201  0.00058253  0.64966129  1
  Al  Al3  1  0.00013327  0.00178625  0.14948046  1
  Al  Al4  1  0.50028456  0.99841192  0.15114378  1
  Al  Al5  1  0.33380380  0.32885302  0.68694361  1
  Al  Al6  1  0.83400413  0.32953268  0.68682926  1
  Al  Al7  1  0.33443173  0.34197047  0.18711016  1
  Al  Al8  1  0.83487077  0.32912190  0.18721234  1
  Al  Al9  1  0.33323735  0.33354490  0.97871935  1
  Al  Al10  1  0.83360180  0.33346544  0.97875971  1
  Al  Al11  1  0.33311640  0.32547249  0.47878148  1
  Al  Al12  1  0.83570704  0.33941722  0.47864796  1
  Al  Al13  1  0.16626806  0.66648736  0.01752704  1
  Al  Al14  1  0.66634969  0.66677723  0.01746486  1
  Al  Al15  1  0.16685861  0.66907909  0.51651602  1
  Al  Al16  1  0.66550842  0.66282893  0.51602373  1
  Al  Al17  1  0.16486370  0.66183077  0.31350402  1
  Al  Al18  1  0.66489234  0.66920031  0.31391157  1
  Al  Al19  1  0.16409400  0.66753033  0.81493603  1
  Al  Al20  1  0.66409627  0.66751065  0.81493987  1
  P  P0  1  0.14695728  0.99989796  0.24667784  1
  P  P1  1  0.64462543  0.99633509  0.25032700  1
  P  P2  1  0.35553826  0.70750713  0.25086229  1
  P  P3  1  0.85294536  0.70602030  0.24671634  1
  P  P4  1  0.00049264  0.29620108  0.24718449  1
  P  P5  1  0.49969463  0.29189491  0.24972572  1
  P  P6  1  0.14645103  0.29330260  0.74712011  1
  P  P7  1  0.64650071  0.29335985  0.74713170  1
  P  P8  1  0.00214126  0.70613543  0.74730049  1
  P  P9  1  0.50209225  0.70611815  0.74727209  1
  P  P10  1  0.35274298  0.00280260  0.74762859  1
  P  P11  1  0.85274964  0.00289808  0.74761494  1
  P  P12  1  0.47674168  0.33323848  0.58339899  1
  P  P13  1  0.97664325  0.33347072  0.58311615  1
  P  P14  1  0.18992955  0.04680717  0.58321560  1
  P  P15  1  0.68963337  0.04569798  0.58297234  1
  P  P16  1  0.33332916  0.62121648  0.58320259  1
  P  P17  1  0.83326097  0.62094727  0.58364328  1
  P  P18  1  0.47653040  0.61986088  0.08303850  1
  P  P19  1  0.97638579  0.61958306  0.08328651  1
  P  P20  1  0.33336904  0.04652658  0.08361440  1
  P  P21  1  0.83334523  0.04675328  0.08297378  1
  P  P22  1  0.19010116  0.33331244  0.08306095  1
  P  P23  1  0.68988465  0.33330348  0.08348864  1
  P  P24  1  0.30520478  0.65530587  0.91748859  1
  P  P25  1  0.80521033  0.65512133  0.91749392  1
  P  P26  1  0.02242344  0.39002036  0.91810143  1
  P  P27  1  0.52240575  0.39005293  0.91816411  1
  P  P28  1  0.17254838  0.95504335  0.91802606  1
  P  P29  1  0.67255415  0.95515664  0.91800992  1
  P  P30  1  0.31066655  0.95850550  0.41585724  1
  P  P31  1  0.80770358  0.95376042  0.41844937  1
  P  P32  1  0.16911679  0.38450134  0.41845845  1
  P  P33  1  0.66694858  0.37964487  0.41602356  1
  P  P34  1  0.02286025  0.65714166  0.41769989  1
  P  P35  1  0.52132124  0.66179011  0.41673527  1
  O  O0  1  0.10210196  0.03146486  0.30474149  1
  O  O1  1  0.60240477  0.03598339  0.30750576  1
  O  O2  1  0.41378835  0.79590052  0.30873269  1
  O  O3  1  0.91357536  0.79585496  0.30479047  1
  O  O4  1  0.48086141  0.16584889  0.30525303  1
  O  O5  1  0.98490656  0.17180752  0.30502568  1
  O  O6  1  0.10169113  0.17149071  0.80457328  1
  O  O7  1  0.60165582  0.17151228  0.80458629  1
  O  O8  1  0.48243807  0.79534906  0.80404742  1
  O  O9  1  0.98248209  0.79539872  0.80407887  1
  O  O10  1  0.41390123  0.03178515  0.80494833  1
  O  O11  1  0.91392155  0.03191249  0.80493355  1
  O  O12  1  0.39589743  0.96348690  0.69089886  1
  O  O13  1  0.89594103  0.96360163  0.69092390  1
  O  O14  1  0.08731668  0.20623412  0.68993129  1
  O  O15  1  0.58733275  0.20633516  0.68994497  1
  O  O16  1  0.01616822  0.82427761  0.68983373  1
  O  O17  1  0.51611701  0.82427351  0.68980007  1
  O  O18  1  0.39678179  0.83022576  0.19262390  1
  O  O19  1  0.89730195  0.82589584  0.19012909  1
  O  O20  1  0.01606532  0.20753074  0.19009901  1
  O  O21  1  0.51860077  0.20893329  0.19118055  1
  O  O22  1  0.08703505  0.96887846  0.19010320  1
  O  O23  1  0.58713574  0.96782113  0.19144889  1
  O  O24  1  0.43559200  0.37306993  0.64014522  1
  O  O25  1  0.93539371  0.37282775  0.64002565  1
  O  O26  1  0.25071702  0.12906785  0.64004563  1
  O  O27  1  0.75123507  0.13129221  0.63916355  1
  O  O28  1  0.31487296  0.50213298  0.64103668  1
  O  O29  1  0.81454878  0.50347029  0.64203464  1
  O  O30  1  0.43555105  0.49836959  0.13990306  1
  O  O31  1  0.93504928  0.49806242  0.14014118  1
  O  O32  1  0.31439470  0.12602419  0.14202593  1
  O  O33  1  0.81360629  0.12833713  0.13994249  1
  O  O34  1  0.25053462  0.37180392  0.13999330  1
  O  O35  1  0.74855476  0.37131690  0.14194335  1
  O  O36  1  0.23112362  0.29398841  0.02638634  1
  O  O37  1  0.73233775  0.29516977  0.02749025  1
  O  O38  1  0.41578347  0.53798229  0.02641632  1
  O  O39  1  0.91580041  0.53777762  0.02650241  1
  O  O40  1  0.35245738  0.16930082  0.02756041  1
  O  O41  1  0.85311548  0.16825041  0.02639194  1
  O  O42  1  0.23111048  0.16878586  0.52668355  1
  O  O43  1  0.72965826  0.16386683  0.52489576  1
  O  O44  1  0.35177066  0.53852272  0.52586768  1
  O  O45  1  0.85249976  0.53603967  0.52773570  1
  O  O46  1  0.41591434  0.29387338  0.52685745  1
  O  O47  1  0.91556085  0.29375926  0.52659268  1
  O  O48  1  0.26696924  0.69543693  0.97564746  1
  O  O49  1  0.76696321  0.69529324  0.97563754  1
  O  O50  1  0.07975849  0.46356467  0.97682005  1
  O  O51  1  0.57984433  0.46373213  0.97684101  1
  O  O52  1  0.15180033  0.84004585  0.97676589  1
  O  O53  1  0.65172819  0.84012745  0.97673118  1
  O  O54  1  0.27002660  0.83690070  0.47447577  1
  O  O55  1  0.76857628  0.84069412  0.47743076  1
  O  O56  1  0.15145536  0.46289631  0.47732856  1
  O  O57  1  0.65105330  0.46117665  0.47535517  1
  O  O58  1  0.07933208  0.69655054  0.47702375  1
  O  O59  1  0.58089393  0.70237208  0.47558574  1
  O  O60  1  0.06743986  0.63411649  0.36023661  1
  O  O61  1  0.56655242  0.63381178  0.36041955  1
  O  O62  1  0.25252050  0.86982583  0.35810360  1
  O  O63  1  0.74875832  0.86759152  0.36144462  1
  O  O64  1  0.18532556  0.50250983  0.36157765  1
  O  O65  1  0.68242274  0.49622710  0.35819190  1
  O  O66  1  0.06690042  0.49937577  0.86001253  1
  O  O67  1  0.56684268  0.49941693  0.86006804  1
  O  O68  1  0.18340810  0.86665006  0.86004081  1
  O  O69  1  0.68343491  0.86675899  0.86001612  1
  O  O70  1  0.25220993  0.63509695  0.85790583  1
  O  O71  1  0.75222795  0.63500348  0.85791549  1
  O  O72  1  0.01282334  0.83027829  0.41081810  1
  O  O73  1  0.51161973  0.83379311  0.41021837  1
  O  O74  1  0.40484893  0.97295384  0.40951531  1
  O  O75  1  0.90318877  0.97410762  0.41189848  1
  O  O76  1  0.08397050  0.19326009  0.41198367  1
  O  O77  1  0.58302644  0.18701640  0.40928492  1
  O  O78  1  0.01310255  0.19631073  0.91106909  1
  O  O79  1  0.51310957  0.19638626  0.91110642  1
  O  O80  1  0.08498234  0.97357802  0.91067900  1
  O  O81  1  0.58496526  0.97362469  0.91064136  1
  O  O82  1  0.40203092  0.83019198  0.91084855  1
  O  O83  1  0.90201751  0.83007079  0.91085119  1
  O  O84  1  0.48814068  0.16456889  0.59104282  1
  O  O85  1  0.98807405  0.16444899  0.59078726  1
  O  O86  1  0.09387481  0.02321145  0.59054827  1
  O  O87  1  0.59389076  0.02366181  0.59047148  1
  O  O88  1  0.41791667  0.81287914  0.59037636  1
  O  O89  1  0.91789860  0.81284141  0.59052357  1
  O  O90  1  0.48819468  0.81198738  0.09093605  1
  O  O91  1  0.98842241  0.81214919  0.09063515  1
  O  O92  1  0.41787827  0.02304030  0.09084742  1
  O  O93  1  0.91775183  0.02324337  0.09049747  1
  O  O94  1  0.09383122  0.16461684  0.09049694  1
  O  O95  1  0.59369184  0.16415501  0.09053694  1
  O  O96  1  0.34588685  0.17222128  0.74164345  1
  O  O97  1  0.84577183  0.17220039  0.74150101  1
  O  O98  1  0.24089096  0.31393098  0.74142969  1
  O  O99  1  0.74086760  0.31362258  0.74154571  1
  O  O100  1  0.41447671  0.52256233  0.74142447  1
  O  O101  1  0.91455225  0.52253456  0.74154268  1
  O  O102  1  0.34626454  0.52146360  0.24264631  1
  O  O103  1  0.84338884  0.51826305  0.24185427  1
  O  O104  1  0.41395216  0.30563495  0.24195258  1
  O  O105  1  0.91467607  0.30822990  0.24217377  1
  O  O106  1  0.24102113  0.16830094  0.24177795  1
  O  O107  1  0.73795916  0.17021792  0.24265978  1
  O  O108  1  0.31915422  0.49382656  0.92405680  1
  O  O109  1  0.81912489  0.49362266  0.92415939  1
  O  O110  1  0.42750911  0.36116235  0.92466062  1
  O  O111  1  0.92756942  0.36138782  0.92445052  1
  O  O112  1  0.25320400  0.14462124  0.92458917  1
  O  O113  1  0.75307580  0.14484023  0.92461546  1
  O  O114  1  0.31984876  0.14438196  0.42418005  1
  O  O115  1  0.81829740  0.14241577  0.42479282  1
  O  O116  1  0.25313694  0.36404364  0.42498613  1
  O  O117  1  0.75038871  0.35479121  0.42383323  1
  O  O118  1  0.42597798  0.49785530  0.42462081  1
  O  O119  1  0.92790304  0.49460579  0.42436866  1
  O  O120  1  0.17813649  0.50159066  0.07614930  1
  O  O121  1  0.67826711  0.50194250  0.07634125  1
  O  O122  1  0.07261817  0.64347983  0.07638464  1
  O  O123  1  0.57272720  0.64395821  0.07619052  1
  O  O124  1  0.24908323  0.85429175  0.07640087  1
  O  O125  1  0.74920046  0.85436785  0.07610354  1
  O  O126  1  0.17843704  0.85507107  0.57591940  1
  O  O127  1  0.67775684  0.85378587  0.57648854  1
  O  O128  1  0.24896052  0.64440834  0.57658909  1
  O  O129  1  0.74883250  0.64329646  0.57648576  1
  O  O130  1  0.07270839  0.50189499  0.57630637  1
  O  O131  1  0.57270261  0.50172914  0.57597371  1
  O  O132  1  0.15663432  0.83228647  0.25606497  1
  O  O133  1  0.65436338  0.82872151  0.25793427  1
  O  O134  1  0.26168759  0.69369226  0.25749477  1
  O  O135  1  0.75934548  0.68646856  0.25638384  1
  O  O136  1  0.08543084  0.47911234  0.25737468  1
  O  O137  1  0.58588381  0.47742315  0.25719630  1
  O  O138  1  0.15707444  0.48137362  0.75609685  1
  O  O139  1  0.65707803  0.48138748  0.75613369  1
  O  O140  1  0.08605411  0.69083813  0.75674035  1
  O  O141  1  0.58600107  0.69076865  0.75670298  1
  O  O142  1  0.26110811  0.82926946  0.75647362  1
  O  O143  1  0.76114414  0.82935504  0.75645829  1
loop_
_geom_bond_atom_site_label_1
_geom_bond_atom_site_label_2
_geom_bond_distance
_geom_bond_site_symmetry_2
Na0 O134 2.296369 1_555
Na0 O104 2.306374 1_565
Na0 O132 2.402698 1_555
Na0 O106 2.413981 1_565
Na0 O62 2.568954 1_555
Na0 O32 2.620287 1_565
Na0 O4 2.679071 1_565
Na0 O18 2.731307 1_555
Na1 O107 2.289525 1_555
Na1 O137 2.308581 1_555
Na1 O103 2.404366 1_555
Na1 O135 2.411071 1_555
Na1 O65 2.581636 1_555
Na1 O35 2.614599 1_555
Na1 O1 2.708480 1_555
Na1 O21 2.753921 1_555
Na2 O100 2.309785 1_555
Na2 O142 2.310272 1_555
Na2 O138 2.380423 1_555
Na2 O98 2.390195 1_555
Na2 O70 2.562879 1_555
Na2 O28 2.637928 1_555
Na2 O8 2.702476 1_555
Na2 O12 2.772004 1_555
Na3 O143 2.310178 1_555
Na3 O101 2.310967 1_555
Na3 O139 2.380682 1_555
Na3 O99 2.392546 1_555
Na3 O71 2.565274 1_555
Na3 O29 2.610031 1_555
Na3 O9 2.704417 1_555
Na3 O13 2.770679 1_555
Na4 O128 2.336729 1_555
Na4 O86 2.339192 1_555
Na4 O130 2.407810 1_555
Na4 O85 2.416852 1_455
Na4 O56 2.534467 1_555
Na4 O14 2.563009 1_555
Na4 O42 2.708147 1_555
Na4 O28 2.746460 1_555
Na5 O129 2.329641 1_555
Na5 O87 2.334347 1_555
Na5 O131 2.409476 1_555
Na5 O84 2.418252 1_555
Na5 O57 2.562432 1_555
Na5 O15 2.569882 1_555
Na5 O43 2.733475 1_555
Na5 O29 2.754689 1_555
Na6 O130 2.330726 1_555
Na6 O89 2.338543 1_455
Na6 O126 2.416070 1_555
Na6 O86 2.419928 1_565
Na6 O58 2.538395 1_555
Na6 O16 2.557278 1_555
Na6 O45 2.702652 1_455
Na6 O25 2.713341 1_455
Na7 O131 2.333344 1_555
Na7 O88 2.338403 1_555
Na7 O127 2.402654 1_555
Na7 O87 2.419890 1_565
Na7 O17 2.553341 1_555
Na7 O59 2.569376 1_555
Na7 O24 2.714408 1_555
Na7 O44 2.734584 1_555
Na8 O126 2.326987 1_555
Na8 O84 2.333252 1_565
Na8 O128 2.410296 1_555
Na8 O88 2.420428 1_555
Na8 O54 2.588655 1_555
Na8 O12 2.592127 1_555
Na8 O46 2.698323 1_565
Na8 O26 2.717484 1_565
Na9 O127 2.333667 1_555
Na9 O85 2.333830 1_565
Na9 O129 2.416633 1_555
Na9 O89 2.420484 1_555
Na9 O55 2.531428 1_555
Na9 O13 2.589645 1_555
Na9 O47 2.703812 1_565
Na9 O27 2.714765 1_565
Na10 O124 2.334151 1_555
Na10 O94 2.337901 1_565
Na10 O122 2.413776 1_555
Na10 O91 2.415659 1_455
Na10 O52 2.546952 1_554
Na10 O22 2.571588 1_555
Na10 O36 2.708812 1_565
Na10 O32 2.747470 1_565
Na11 O95 2.335052 1_565
Na11 O125 2.335749 1_555
Na11 O123 2.414551 1_555
Na11 O90 2.421893 1_555
Na11 O53 2.564932 1_554
Na11 O23 2.578996 1_555
Na11 O33 2.703780 1_565
Na11 O37 2.711861 1_565
Na12 O120 2.331067 1_555
Na12 O90 2.333171 1_555
Na12 O124 2.415039 1_555
Na12 O92 2.421405 1_565
Na12 O48 2.592235 1_554
Na12 O18 2.614319 1_555
Na12 O34 2.710377 1_555
Na12 O38 2.710488 1_555
Na13 O121 2.330891 1_555
Na13 O91 2.334984 1_555
Na13 O125 2.411769 1_555
Na13 O93 2.418878 1_565
Na13 O19 2.570052 1_555
Na13 O49 2.579892 1_554
Na13 O39 2.706344 1_555
Na13 O35 2.743688 1_555
Na14 O122 2.330290 1_555
Na14 O93 2.336310 1_455
Na14 O120 2.414729 1_555
Na14 O94 2.421292 1_555
Na14 O50 2.551665 1_554
Na14 O20 2.560406 1_555
Na14 O41 2.706932 1_455
Na14 O31 2.714644 1_455
Na15 O123 2.335249 1_555
Na15 O92 2.336880 1_555
Na15 O121 2.416597 1_555
Na15 O95 2.421432 1_555
Na15 O51 2.557832 1_554
Na15 O21 2.579850 1_555
Na15 O30 2.705611 1_555
Na15 O40 2.707312 1_555
Na16 O115 2.309029 1_555
Na16 O73 2.316823 1_545
Na16 O77 2.369072 1_555
Na16 O117 2.397628 1_555
Na16 O1 2.565727 1_555
Na16 O43 2.634098 1_555
Na16 O63 2.721119 1_545
Na16 O59 2.786599 1_545
Na17 O74 2.288949 1_555
Na17 O116 2.303388 1_555
Na17 O73 2.392328 1_555
Na17 O118 2.402719 1_555
Na17 O2 2.534192 1_555
Na17 O44 2.664247 1_555
Na17 O64 2.705593 1_555
Na17 O54 2.764870 1_555
Na18 O76 2.457891 1_565
Na18 O75 2.463270 1_455
Na18 O72 2.481494 1_555
Na18 O89 2.481560 1_455
Na18 O86 2.483394 1_565
Na18 O85 2.498565 1_465
Na19 O77 2.397749 1_555
Na19 O74 2.404367 1_545
Na19 O73 2.470054 1_545
Na19 O84 2.504522 1_555
Na19 O88 2.563037 1_545
Na19 O87 2.563361 1_555
Na20 O94 2.467292 1_555
Na20 O93 2.467923 1_455
Na20 O91 2.470778 1_445
Na20 O78 2.505040 1_554
Na20 O83 2.508020 1_444
Na20 O80 2.509379 1_544
Na21 O95 2.464454 1_565
Na21 O92 2.470360 1_565
Na21 O90 2.472189 1_555
Na21 O79 2.508408 1_564
Na21 O82 2.509362 1_554
Na21 O81 2.511196 1_554
Na22 O112 2.424172 1_555
Na22 O110 2.429362 1_555
Na22 O108 2.484189 1_555
Na22 O96 2.488121 1_555
Na22 O98 2.559863 1_555
Na22 O100 2.567272 1_555
Na23 O113 2.424961 1_555
Na23 O111 2.426624 1_555
Na23 O109 2.485324 1_555
Na23 O97 2.489693 1_555
Na23 O99 2.556722 1_555
Na23 O101 2.564950 1_555
Na24 O102 2.469163 1_555
Na24 O104 2.474241 1_555
Na24 O118 2.485846 1_555
Na24 O106 2.490763 1_555
Na24 O114 2.495760 1_555
Na24 O116 2.518810 1_555
Na25 O105 2.425108 1_555
Na25 O119 2.441074 1_555
Na25 O103 2.482368 1_555
Na25 O115 2.513497 1_555
Na25 O107 2.540419 1_555
Na25 O117 2.546688 1_555
Na26 O136 2.376000 1_555
Na26 O132 2.429993 1_555
Na26 O134 2.445503 1_555
Na26 O120 2.514778 1_555
Na26 O122 2.527217 1_555
Na26 O124 2.577606 1_555
Na27 O133 2.376068 1_555
Na27 O135 2.433613 1_555
Na27 O137 2.444063 1_555
Na27 O123 2.515019 1_555
Na27 O125 2.521261 1_555
Na27 O121 2.587626 1_555
Na28 O140 2.354685 1_555
Na28 O138 2.420060 1_555
Na28 O142 2.433674 1_555
Na28 O130 2.518177 1_555
Na28 O126 2.529653 1_555
Na28 O128 2.572634 1_555
Na29 O141 2.356477 1_555
Na29 O139 2.419092 1_555
Na29 O143 2.432301 1_555
Na29 O127 2.517023 1_555
Na29 O131 2.525658 1_555
Na29 O129 2.574387 1_555
Al0 O4 1.854296 1_555
Al0 O2 1.898141 1_545
Al0 O1 1.906984 1_555
Al0 O77 1.951834 1_555
Al0 O74 1.953667 1_545
Al0 O73 2.031517 1_545
Al1 O14 1.858439 1_555
Al1 O16 1.874376 1_545
Al1 O13 1.881192 1_445
Al1 O86 1.981398 1_555
Al1 O85 1.987929 1_455
Al1 O89 1.991039 1_445
Al2 O15 1.859455 1_555
Al2 O17 1.873353 1_545
Al2 O12 1.884261 1_545
Al2 O87 1.978395 1_555
Al2 O84 1.984295 1_555
Al2 O88 1.992124 1_545
Al3 O20 1.864960 1_555
Al3 O22 1.868759 1_545
Al3 O19 1.869011 1_445
Al3 O94 1.978289 1_555
Al3 O93 1.979880 1_455
Al3 O91 1.995451 1_445
Al4 O23 1.853909 1_555
Al4 O18 1.863035 1_555
Al4 O21 1.881820 1_565
Al4 O90 1.991722 1_555
Al4 O95 2.006487 1_565
Al4 O92 2.010941 1_565
Al5 O96 1.878231 1_555
Al5 O24 1.884011 1_555
Al5 O26 1.885183 1_555
Al5 O98 1.933342 1_555
Al5 O100 1.940611 1_555
Al5 O28 1.944914 1_555
Al6 O97 1.879950 1_555
Al6 O25 1.880520 1_555
Al6 O27 1.885593 1_555
Al6 O99 1.936503 1_555
Al6 O101 1.940053 1_555
Al6 O29 1.942495 1_555
Al7 O30 1.875835 1_555
Al7 O34 1.882151 1_555
Al7 O102 1.882582 1_555
Al7 O104 1.946960 1_555
Al7 O106 1.947817 1_555
Al7 O32 1.965476 1_555
Al8 O33 1.875322 1_555
Al8 O105 1.888278 1_555
Al8 O31 1.895783 1_555
Al8 O107 1.946755 1_555
Al8 O103 1.953137 1_555
Al8 O35 1.953475 1_555
Al9 O36 1.909601 1_556
Al9 O110 1.910896 1_555
Al9 O112 1.912544 1_555
Al9 O38 1.913307 1_556
Al9 O40 1.916796 1_556
Al9 O108 1.918289 1_555
Al10 O111 1.909376 1_555
Al10 O39 1.911589 1_556
Al10 O41 1.912096 1_556
Al10 O37 1.913221 1_556
Al10 O113 1.913986 1_555
Al10 O109 1.919904 1_555
Al11 O114 1.872906 1_555
Al11 O46 1.885785 1_555
Al11 O42 1.893283 1_555
Al11 O118 1.933121 1_555
Al11 O116 1.949304 1_555
Al11 O44 1.973445 1_555
Al12 O119 1.882228 1_555
Al12 O45 1.889354 1_555
Al12 O47 1.908075 1_555
Al12 O117 1.938665 1_555
Al12 O115 1.948934 1_555
Al12 O43 1.957507 1_555
Al13 O50 1.849909 1_554
Al13 O52 1.850310 1_554
Al13 O48 1.852392 1_554
Al13 O122 1.979929 1_555
Al13 O120 1.984828 1_555
Al13 O124 1.986942 1_555
Al14 O51 1.849593 1_554
Al14 O53 1.849886 1_554
Al14 O49 1.851778 1_554
Al14 O123 1.978229 1_555
Al14 O125 1.983033 1_555
Al14 O121 1.988334 1_555
Al15 O58 1.841388 1_555
Al15 O56 1.856843 1_555
Al15 O54 1.864757 1_555
Al15 O126 1.980190 1_555
Al15 O128 2.004027 1_555
Al15 O130 2.004497 1_555
Al16 O57 1.843262 1_555
Al16 O55 1.856466 1_555
Al16 O59 1.864617 1_555
Al16 O131 1.980518 1_555
Al16 O129 2.005577 1_555
Al16 O127 2.023821 1_555
Al17 O60 1.862490 1_555
Al17 O64 1.884625 1_555
Al17 O136 1.911234 1_555
Al17 O62 1.921042 1_555
Al17 O134 1.960382 1_555
Al17 O132 1.977143 1_555
Al18 O61 1.852735 1_555
Al18 O63 1.890447 1_555
Al18 O133 1.902516 1_555
Al18 O65 1.911698 1_555
Al18 O137 1.954390 1_555
Al18 O135 1.987927 1_555
Al19 O66 1.844127 1_555
Al19 O68 1.847443 1_555
Al19 O70 1.908988 1_555
Al19 O140 1.919814 1_555
Al19 O142 1.995167 1_555
Al19 O138 1.998449 1_555
Al20 O67 1.845073 1_555
Al20 O69 1.847918 1_555
Al20 O71 1.909625 1_555
Al20 O141 1.920917 1_555
Al20 O143 1.995962 1_555
Al20 O139 1.997780 1_555
O0 P0 1.566147 1_545
O0 Ta0 1.947410 1_545
O1 P1 1.554965 1_545
O2 P2 1.544743 1_555
O3 P3 1.567018 1_555
O3 Ta0 1.947135 1_655
O4 P5 1.539119 1_555
O5 P4 1.578836 1_655
O5 Ta0 1.946997 1_645
O6 P6 1.557210 1_555
O6 Ta1 1.969540 1_555
O7 P7 1.557593 1_555
O7 Ta2 1.968438 1_555
O8 P9 1.571087 1_555
O8 Ta2 1.996341 1_565
O9 P8 1.571343 1_655
O9 Ta1 1.995261 1_665
O10 P10 1.562723 1_555
O10 Ta2 1.978953 1_555
O11 P11 1.562794 1_555
O11 Ta1 1.979512 1_655
O12 P10 1.555220 1_565
O13 P11 1.554852 1_565
O14 P6 1.537157 1_555
O15 P7 1.537302 1_555
O16 P8 1.545614 1_555
O17 P9 1.545778 1_555
O18 P2 1.566062 1_555
O19 P3 1.534111 1_555
O20 P4 1.542929 1_555
O21 P5 1.564944 1_555
O22 P0 1.534478 1_555
O23 P1 1.554621 1_555
O24 P12 1.537710 1_555
O25 P13 1.539681 1_555
O26 P14 1.537480 1_555
O27 P15 1.536336 1_555
O28 P16 1.545280 1_555
O29 P17 1.546956 1_555
O30 P18 1.536926 1_555
O31 P19 1.537598 1_555
O32 P20 1.546701 1_555
O33 P21 1.537056 1_555
O34 P22 1.536634 1_555
O35 P23 1.547066 1_555
O36 P22 1.533271 1_555
O37 P23 1.531102 1_555
O38 P18 1.533173 1_555
O39 P19 1.534665 1_555
O40 P20 1.530987 1_555
O41 P21 1.532338 1_555
O42 P14 1.533456 1_555
O43 P15 1.543658 1_555
O44 P16 1.538999 1_555
O45 P17 1.531244 1_555
O46 P12 1.532781 1_555
O47 P13 1.534608 1_555
O48 P24 1.535978 1_555
O49 P25 1.535967 1_555
O50 P26 1.536832 1_555
O51 P27 1.536960 1_555
O52 P28 1.538121 1_555
O53 P29 1.537812 1_555
O54 P30 1.567300 1_555
O55 P31 1.539464 1_555
O56 P32 1.540270 1_555
O57 P33 1.550649 1_555
O58 P34 1.541347 1_555
O59 P35 1.560084 1_555
O60 P34 1.523659 1_555
O61 P35 1.526813 1_555
O62 P30 1.542390 1_555
O63 P31 1.531399 1_555
O64 P32 1.528702 1_555
O65 P33 1.540350 1_555
O66 P26 1.525397 1_555
O67 P27 1.525421 1_555
O68 P28 1.525541 1_555
O69 P29 1.525848 1_555
O70 P24 1.537501 1_555
O71 P25 1.537451 1_555
O72 P34 1.584304 1_555
O72 Ta0 1.987660 1_555
O73 P35 1.570630 1_555
O74 P30 1.561392 1_555
O75 P31 1.562460 1_555
O75 Ta0 2.001550 1_655
O76 P32 1.562969 1_555
O76 Ta0 2.003769 1_545
O77 P33 1.562110 1_555
O78 P26 1.594021 1_555
O78 Ta1 1.962625 1_555
O79 P27 1.593886 1_555
O79 Ta2 1.963057 1_555
O80 P28 1.593812 1_555
O80 Ta1 1.965532 1_565
O81 P29 1.593921 1_555
O81 Ta2 1.964726 1_565
O82 P24 1.591147 1_555
O82 Ta2 1.973664 1_565
O83 P25 1.591195 1_555
O83 Ta1 1.973446 1_665
O84 P12 1.561652 1_555
O85 P13 1.565019 1_555
O86 P14 1.562466 1_555
O87 P15 1.562906 1_555
O88 P16 1.562643 1_555
O89 P17 1.563532 1_555
O90 P18 1.566055 1_555
O91 P19 1.565991 1_555
O92 P20 1.566363 1_555
O93 P21 1.565390 1_555
O94 P22 1.565573 1_555
O95 P23 1.565501 1_555
O96 P10 1.520052 1_555
O97 P11 1.520460 1_555
O98 P6 1.542130 1_555
O99 P7 1.541999 1_555
O100 P9 1.543483 1_555
O101 P8 1.543319 1_655
O102 P2 1.531984 1_555
O103 P3 1.537813 1_555
O104 P5 1.540695 1_555
O105 P4 1.528446 1_655
O106 P0 1.537748 1_545
O107 P1 1.556104 1_545
O108 P24 1.524664 1_555
O109 P25 1.524660 1_555
O110 P27 1.523676 1_555
O111 P26 1.523489 1_655
O112 P28 1.524534 1_545
O113 P29 1.524322 1_545
O114 P30 1.531492 1_545
O115 P31 1.540659 1_545
O116 P32 1.541382 1_555
O117 P33 1.556535 1_555
O118 P35 1.541238 1_555
O119 P34 1.529983 1_655
O120 P22 1.562460 1_555
O121 P23 1.562497 1_555
O122 P19 1.563535 1_455
O123 P18 1.562141 1_555
O124 P20 1.563560 1_565
O125 P21 1.562640 1_565
O126 P14 1.562551 1_565
O127 P15 1.559736 1_565
O128 P16 1.561196 1_555
O129 P17 1.559089 1_555
O130 P13 1.561243 1_455
O131 P12 1.561723 1_555
O132 P0 1.540031 1_555
O133 P1 1.536035 1_555
O134 P2 1.558692 1_555
O135 P3 1.540938 1_555
O136 P4 1.530507 1_555
O137 P5 1.544911 1_555
O138 P6 1.541648 1_555
O139 P7 1.541670 1_555
O140 P8 1.521499 1_555
O141 P9 1.521655 1_555
O142 P10 1.541912 1_565
O143 P11 1.541676 1_565
