# generated using pymatgen
data_TiH8N2F5
_symmetry_space_group_name_H-M   'P 1'
_cell_length_a   6.35276500
_cell_length_b   7.75244900
_cell_length_c   11.45059300
_cell_angle_alpha   90.00000000
_cell_angle_beta   90.00000000
_cell_angle_gamma   90.00000000
_symmetry_Int_Tables_number   1
_chemical_formula_structural   TiH8N2F5
_chemical_formula_sum   'Ti4 H32 N8 F20'
_cell_volume   563.93582733
_cell_formula_units_Z   4
loop_
 _symmetry_equiv_pos_site_id
 _symmetry_equiv_pos_as_xyz
  1  'x, y, z'
loop_
 _atom_site_type_symbol
 _atom_site_label
 _atom_site_symmetry_multiplicity
 _atom_site_fract_x
 _atom_site_fract_y
 _atom_site_fract_z
 _atom_site_occupancy
  Ti  Ti0  1  0.50000000  0.00000000  0.50000000  1
  Ti  Ti1  1  0.00000000  0.50000000  0.00000000  1
  Ti  Ti2  1  0.50000000  0.50000000  0.50000000  1
  Ti  Ti3  1  0.00000000  0.00000000  0.00000000  1
  H  H0  1  0.90127600  0.64300000  0.38634000  1
  H  H1  1  0.40127600  0.85700000  0.11366000  1
  H  H2  1  0.09872400  0.14300000  0.61366000  1
  H  H3  1  0.59872400  0.35700000  0.88634000  1
  H  H4  1  0.09872400  0.35700000  0.61366000  1
  H  H5  1  0.59872400  0.14300000  0.88634000  1
  H  H6  1  0.90127600  0.85700000  0.38634000  1
  H  H7  1  0.40127600  0.64300000  0.11366000  1
  H  H8  1  0.87291800  0.25000000  0.59017900  1
  H  H9  1  0.37291800  0.25000000  0.90982100  1
  H  H10  1  0.12708200  0.75000000  0.40982100  1
  H  H11  1  0.62708200  0.75000000  0.09017900  1
  H  H12  1  0.97967700  0.25000000  0.72505400  1
  H  H13  1  0.47967700  0.25000000  0.77494600  1
  H  H14  1  0.02032300  0.75000000  0.27494600  1
  H  H15  1  0.92719500  0.75000000  0.63367900  1
  H  H16  1  0.97854300  0.36109700  0.25116900  1
  H  H17  1  0.47854300  0.13890300  0.24883100  1
  H  H18  1  0.02145700  0.86109700  0.74883100  1
  H  H19  1  0.52145700  0.63890300  0.75116900  1
  H  H20  1  0.02145700  0.63890300  0.74883100  1
  H  H21  1  0.52145700  0.86109700  0.75116900  1
  H  H22  1  0.97854300  0.13890300  0.25116900  1
  H  H23  1  0.47854300  0.36109700  0.24883100  1
  H  H24  1  0.18603100  0.75000000  0.65647700  1
  H  H25  1  0.68603100  0.75000000  0.84352300  1
  H  H26  1  0.81396900  0.25000000  0.34352300  1
  H  H27  1  0.31396900  0.25000000  0.15647700  1
  H  H28  1  0.57280500  0.25000000  0.13367900  1
  H  H29  1  0.07280500  0.25000000  0.36632100  1
  H  H30  1  0.42719500  0.75000000  0.86632100  1
  H  H31  1  0.52032300  0.75000000  0.22505400  1
  N  N0  1  0.04214000  0.75000000  0.69791500  1
  N  N1  1  0.54214000  0.75000000  0.80208500  1
  N  N2  1  0.95786000  0.25000000  0.30208500  1
  N  N3  1  0.45786000  0.25000000  0.19791500  1
  N  N4  1  0.01199700  0.25000000  0.63672200  1
  N  N5  1  0.51199700  0.25000000  0.86327800  1
  N  N6  1  0.48800300  0.75000000  0.13672200  1
  N  N7  1  0.98800300  0.75000000  0.36327800  1
  F  F0  1  0.41586300  0.02783900  0.66921500  1
  F  F1  1  0.91586300  0.47216100  0.83078500  1
  F  F2  1  0.58413700  0.52783900  0.33078500  1
  F  F3  1  0.08413700  0.97216100  0.16921500  1
  F  F4  1  0.91586300  0.02783900  0.83078500  1
  F  F5  1  0.41586300  0.47216100  0.66921500  1
  F  F6  1  0.08413700  0.52783900  0.16921500  1
  F  F7  1  0.58413700  0.97216100  0.33078500  1
  F  F8  1  0.11761800  0.25000000  0.01380000  1
  F  F9  1  0.27720700  0.56433800  0.95302900  1
  F  F10  1  0.22279300  0.43566200  0.45302900  1
  F  F11  1  0.72279300  0.06433800  0.04697100  1
  F  F12  1  0.22279300  0.06433800  0.45302900  1
  F  F13  1  0.72279300  0.43566200  0.04697100  1
  F  F14  1  0.77720700  0.56433800  0.54697100  1
  F  F15  1  0.27720700  0.93566200  0.95302900  1
  F  F16  1  0.38238200  0.75000000  0.51380000  1
  F  F17  1  0.88238200  0.75000000  0.98620000  1
  F  F18  1  0.61761800  0.25000000  0.48620000  1
  F  F19  1  0.77720700  0.93566200  0.54697100  1
loop_
_geom_bond_atom_site_label_1
_geom_bond_atom_site_label_2
_geom_bond_distance
_geom_bond_site_symmetry_2
H0 N7 1.030232 1_555
H1 N6 1.030232 1_555
H2 N4 1.030232 1_555
H3 N5 1.030232 1_555
H4 N4 1.030232 1_555
H5 N5 1.030232 1_555
H6 N7 1.030232 1_555
H7 N6 1.030232 1_555
H8 N4 1.031827 1_655
H9 N5 1.031827 1_555
H10 N7 1.031827 1_455
H11 N6 1.031827 1_555
H12 N4 1.032083 1_655
H13 N5 1.032083 1_555
H14 N7 1.032083 1_455
H15 N0 1.036455 1_655
H16 N2 1.048317 1_555
H17 N3 1.048317 1_555
H18 N0 1.048317 1_555
H19 N1 1.048317 1_555
H20 N0 1.048317 1_555
H21 N1 1.048317 1_555
H22 N2 1.048317 1_555
H23 N3 1.048317 1_555
H24 N0 1.029917 1_555
H25 N1 1.029917 1_555
H26 N2 1.029917 1_555
H27 N3 1.029917 1_555
H28 N3 1.036455 1_555
H29 N2 1.036455 1_455
H30 N1 1.036455 1_555
H31 N6 1.032083 1_555
F0 Ti0 2.021537 1_555
F1 Ti1 2.021537 1_656
F2 Ti2 2.021537 1_555
F3 Ti3 2.021537 1_565
F4 Ti3 2.021537 1_656
F5 Ti2 2.021537 1_555
F6 Ti1 2.021537 1_555
F7 Ti0 2.021537 1_565
F8 Ti3 2.083160 1_555
F8 Ti1 2.083160 1_555
F9 Ti1 1.907691 1_556
F10 Ti2 1.907691 1_555
F11 Ti3 1.907691 1_655
F12 Ti0 1.907691 1_555
F13 Ti1 1.907691 1_655
F14 Ti2 1.907691 1_555
F15 Ti3 1.907691 1_566
F16 Ti2 2.083160 1_555
F16 Ti0 2.083160 1_565
F17 Ti3 2.083160 1_666
F17 Ti1 2.083160 1_656
F18 Ti2 2.083160 1_555
F18 Ti0 2.083160 1_555
F19 Ti0 1.907691 1_565
