# generated using pymatgen
data_GeSb4Te7
_symmetry_space_group_name_H-M   'P 1'
_cell_length_a   4.28929996
_cell_length_b   4.28930056
_cell_length_c   24.63777845
_cell_angle_alpha   90.00000000
_cell_angle_beta   90.00000000
_cell_angle_gamma   120.00001126
_symmetry_Int_Tables_number   1
_chemical_formula_structural   GeSb4Te7
_chemical_formula_sum   'Ge1 Sb4 Te7'
_cell_volume   392.55907834
_cell_formula_units_Z   1
loop_
 _symmetry_equiv_pos_site_id
 _symmetry_equiv_pos_as_xyz
  1  'x, y, z'
loop_
 _atom_site_type_symbol
 _atom_site_label
 _atom_site_symmetry_multiplicity
 _atom_site_fract_x
 _atom_site_fract_y
 _atom_site_fract_z
 _atom_site_occupancy
  Ge  Ge0  1  -0.00000000  -0.00000000  0.50000000  1
  Sb  Sb0  1  0.66666700  0.33333300  0.91889862  1
  Sb  Sb1  1  0.33333300  0.66666700  0.34975150  1
  Sb  Sb2  1  0.33333300  0.66666700  0.08110138  1
  Sb  Sb3  1  0.66666700  0.33333300  0.65024850  1
  Te  Te0  1  0.33333300  0.66666700  0.84973187  1
  Te  Te1  1  0.66666700  0.33333300  0.15026813  1
  Te  Te2  1  0.00000000  -0.00000000  0.71897829  1
  Te  Te3  1  0.66666700  0.33333300  0.43139430  1
  Te  Te4  1  0.33333300  0.66666700  0.56860570  1
  Te  Te5  1  -0.00000000  -0.00000000  -0.00000000  1
  Te  Te6  1  -0.00000000  0.00000000  0.28102171  1
loop_
_geom_bond_atom_site_label_1
_geom_bond_atom_site_label_2
_geom_bond_distance
_geom_bond_site_symmetry_2
Ge0 Te4 2.998295 1_545
Ge0 Te3 2.998295 1_455
Ge0 Te4 2.998298 1_445
Ge0 Te3 2.998298 1_555
Ge0 Te4 2.998298 1_555
Ge0 Te3 2.998298 1_445
Sb0 Te0 3.006109 1_655
Sb0 Te0 3.006109 1_545
Sb0 Te0 3.006116 1_555
Sb0 Te5 3.182031 1_656
Sb0 Te5 3.182034 1_556
Sb0 Te5 3.182034 1_666
Sb1 Te6 3.000020 1_565
Sb1 Te6 3.000022 1_665
Sb1 Te6 3.000023 1_555
Sb1 Te3 3.190424 1_455
Sb1 Te3 3.190424 1_565
Sb1 Te3 3.190430 1_555
Sb2 Te1 3.006109 1_455
Sb2 Te1 3.006109 1_565
Sb2 Te1 3.006116 1_555
Sb2 Te5 3.182031 1_565
Sb2 Te5 3.182034 1_665
Sb2 Te5 3.182034 1_555
Sb3 Te2 3.000020 1_655
Sb3 Te2 3.000022 1_555
Sb3 Te2 3.000023 1_665
Sb3 Te4 3.190424 1_655
Sb3 Te4 3.190424 1_545
Sb3 Te4 3.190430 1_555
