# generated using pymatgen
data_Gd2AlGe2
_symmetry_space_group_name_H-M   'P 1'
_cell_length_a   5.89754404
_cell_length_b   5.89754404
_cell_length_c   7.78628212
_cell_angle_alpha   76.71753545
_cell_angle_beta   76.71753545
_cell_angle_gamma   57.77569551
_symmetry_Int_Tables_number   1
_chemical_formula_structural   Gd2AlGe2
_chemical_formula_sum   'Gd4 Al2 Ge4'
_cell_volume   221.07237702
_cell_formula_units_Z   2
loop_
 _symmetry_equiv_pos_site_id
 _symmetry_equiv_pos_as_xyz
  1  'x, y, z'
loop_
 _atom_site_type_symbol
 _atom_site_label
 _atom_site_symmetry_multiplicity
 _atom_site_fract_x
 _atom_site_fract_y
 _atom_site_fract_z
 _atom_site_occupancy
  Gd  Gd0  1  0.22516200  0.48478700  0.64712300  1
  Gd  Gd1  1  0.77483800  0.51521300  0.35287700  1
  Gd  Gd2  1  0.48478700  0.22516200  0.14712300  1
  Gd  Gd3  1  0.51521300  0.77483800  0.85287700  1
  Al  Al0  1  0.16327400  0.83672600  0.25000000  1
  Al  Al1  1  0.83672600  0.16327400  0.75000000  1
  Ge  Ge0  1  0.73428200  0.99131700  0.49817500  1
  Ge  Ge1  1  0.26571800  0.00868300  0.50182500  1
  Ge  Ge2  1  0.99131700  0.73428200  0.99817500  1
  Ge  Ge3  1  0.00868300  0.26571800  0.00182500  1
loop_
_geom_bond_atom_site_label_1
_geom_bond_atom_site_label_2
_geom_bond_distance
_geom_bond_site_symmetry_2
Gd0 Ge0 3.062296 1_455
Gd0 Ge3 3.070183 1_556
Gd0 Ge0 3.075996 1_545
Gd0 Ge2 3.080619 1_455
Gd0 Ge1 3.136910 1_555
Gd0 Ge1 3.152929 1_565
Gd1 Ge1 3.062296 1_655
Gd1 Ge2 3.070183 1_554
Gd1 Ge1 3.075996 1_565
Gd1 Ge3 3.080619 1_655
Gd1 Ge0 3.136910 1_555
Gd1 Ge0 3.152929 1_545
Gd2 Ge2 3.062296 1_544
Gd2 Ge1 3.070183 1_555
Gd2 Ge2 3.075996 1_454
Gd2 Ge0 3.080619 1_545
Gd2 Ge3 3.136910 1_555
Gd2 Ge3 3.152929 1_655
Gd3 Ge3 3.062296 1_566
Gd3 Ge0 3.070183 1_555
Gd3 Ge3 3.075996 1_656
Gd3 Ge1 3.080619 1_565
Gd3 Ge2 3.136910 1_555
Gd3 Ge2 3.152929 1_455
Al0 Ge0 2.658808 1_455
Al0 Ge3 2.658808 1_565
Al0 Ge1 2.711017 1_565
Al0 Ge2 2.711017 1_454
Al0 Gd1 3.252945 1_555
Al0 Gd2 3.252945 1_555
Al0 Gd3 3.280854 1_554
Al0 Gd0 3.280854 1_555
Al1 Ge2 2.658808 1_545
Al1 Ge1 2.658808 1_655
Al1 Ge3 2.711017 1_656
Al1 Ge0 2.711017 1_545
Al1 Gd3 3.252945 1_555
Al1 Gd0 3.252945 1_555
Al1 Gd1 3.280854 1_555
Al1 Gd2 3.280854 1_556
Ge0 Ge1 2.703881 1_565
Ge2 Ge3 2.703881 1_656
