# generated using pymatgen
data_MgMn3SnO8
_symmetry_space_group_name_H-M   'P 1'
_cell_length_a   6.23695486
_cell_length_b   6.08837697
_cell_length_c   6.11711497
_cell_angle_alpha   60.09380971
_cell_angle_beta   58.67339955
_cell_angle_gamma   58.56177363
_symmetry_Int_Tables_number   1
_chemical_formula_structural   MgMn3SnO8
_chemical_formula_sum   'Mg1 Mn3 Sn1 O8'
_cell_volume   160.84230170
_cell_formula_units_Z   1
loop_
 _symmetry_equiv_pos_site_id
 _symmetry_equiv_pos_as_xyz
  1  'x, y, z'
loop_
 _atom_site_type_symbol
 _atom_site_label
 _atom_site_symmetry_multiplicity
 _atom_site_fract_x
 _atom_site_fract_y
 _atom_site_fract_z
 _atom_site_occupancy
  Mg  Mg0  1  0.87008800  0.88767400  0.86265400  1
  Mn  Mn0  1  0.00547300  0.49503400  0.50396800  1
  Mn  Mn1  1  0.49700600  0.00812400  0.49960000  1
  Mn  Mn2  1  0.49215600  0.49744700  0.00481300  1
  Sn  Sn0  1  0.50142800  0.50232000  0.49057200  1
  O  O0  1  0.25206500  0.23310700  0.31404300  1
  O  O1  1  0.29578000  0.23521000  0.71890600  1
  O  O2  1  0.25748200  0.69607700  0.26087300  1
  O  O3  1  0.70028900  0.24493600  0.25063300  1
  O  O4  1  0.28345800  0.74755000  0.74628900  1
  O  O5  1  0.73856900  0.29433100  0.73565400  1
  O  O6  1  0.71972100  0.75601500  0.26907700  1
  O  O7  1  0.75106900  0.75634300  0.70750000  1
loop_
_geom_bond_atom_site_label_1
_geom_bond_atom_site_label_2
_geom_bond_distance
_geom_bond_site_symmetry_2
Mg0 O5 2.008099 1_565
Mg0 O6 2.018785 1_556
Mg0 O7 2.049306 1_555
Mg0 O4 2.069855 1_655
Mn0 O0 1.920741 1_555
Mn0 O7 1.971423 1_455
Mn0 O2 1.985323 1_555
Mn0 O5 2.052975 1_455
Mn0 O1 2.218807 1_555
Mn0 O6 2.279854 1_455
Mn1 O0 1.889001 1_555
Mn1 O1 1.890777 1_555
Mn1 O3 1.927483 1_555
Mn1 O7 2.023787 1_545
Mn1 O6 2.042401 1_545
Mn1 O4 2.072447 1_545
Mn2 O2 1.927884 1_555
Mn2 O3 1.988085 1_555
Mn2 O5 2.004665 1_554
Mn2 O4 2.045841 1_554
Mn2 O0 2.223408 1_555
Mn2 O7 2.267750 1_554
O1 Sn0 2.070933 1_555
O2 Sn0 2.092521 1_555
O3 Sn0 2.126334 1_555
O4 Sn0 2.127090 1_555
O5 Sn0 2.120743 1_555
O6 Sn0 2.064913 1_555
