# generated using pymatgen
data_K2Te2As
_symmetry_space_group_name_H-M   'P 1'
_cell_length_a   8.34730833
_cell_length_b   9.11608848
_cell_length_c   20.16950696
_cell_angle_alpha   90.00000000
_cell_angle_beta   90.00000000
_cell_angle_gamma   90.00000000
_symmetry_Int_Tables_number   1
_chemical_formula_structural   K2Te2As
_chemical_formula_sum   'K16 Te16 As8'
_cell_volume   1534.79462456
_cell_formula_units_Z   8
loop_
 _symmetry_equiv_pos_site_id
 _symmetry_equiv_pos_as_xyz
  1  'x, y, z'
loop_
 _atom_site_type_symbol
 _atom_site_label
 _atom_site_symmetry_multiplicity
 _atom_site_fract_x
 _atom_site_fract_y
 _atom_site_fract_z
 _atom_site_occupancy
  K  K0  1  0.25000000  0.41994845  0.54316112  1
  K  K1  1  0.75000000  0.58005155  0.45683888  1
  K  K2  1  0.75000000  0.91994845  0.95683888  1
  K  K3  1  0.25000000  0.08005155  0.04316112  1
  K  K4  1  0.25000000  0.49876455  0.18910779  1
  K  K5  1  0.75000000  0.50123545  0.81089221  1
  K  K6  1  0.75000000  0.99876455  0.31089221  1
  K  K7  1  0.25000000  0.00123545  0.68910779  1
  K  K8  1  0.25000000  0.60394548  0.71559200  1
  K  K9  1  0.75000000  0.39605452  0.28440800  1
  K  K10  1  0.75000000  0.10394548  0.78440800  1
  K  K11  1  0.25000000  0.89605452  0.21559200  1
  K  K12  1  0.25000000  0.92359403  0.44170761  1
  K  K13  1  0.75000000  0.07640597  0.55829239  1
  K  K14  1  0.75000000  0.42359403  0.05829239  1
  K  K15  1  0.25000000  0.57640597  0.94170761  1
  Te  Te0  1  0.99814266  0.23878821  0.41813642  1
  Te  Te1  1  0.49814266  0.76121179  0.58186358  1
  Te  Te2  1  0.00185734  0.73878821  0.08186358  1
  Te  Te3  1  0.50185734  0.26121179  0.91813642  1
  Te  Te4  1  0.00185734  0.76121179  0.58186358  1
  Te  Te5  1  0.50185734  0.23878821  0.41813642  1
  Te  Te6  1  0.99814266  0.26121179  0.91813642  1
  Te  Te7  1  0.49814266  0.73878821  0.08186358  1
  Te  Te8  1  0.99124410  0.18185923  0.17894631  1
  Te  Te9  1  0.49124410  0.81814077  0.82105369  1
  Te  Te10  1  0.00875590  0.68185923  0.32105369  1
  Te  Te11  1  0.50875590  0.31814077  0.67894631  1
  Te  Te12  1  0.00875590  0.81814077  0.82105369  1
  Te  Te13  1  0.50875590  0.18185923  0.17894631  1
  Te  Te14  1  0.99124410  0.31814077  0.67894631  1
  Te  Te15  1  0.49124410  0.68185923  0.32105369  1
  As  As0  1  0.25000000  0.31372797  0.34889836  1
  As  As1  1  0.75000000  0.68627203  0.65110164  1
  As  As2  1  0.75000000  0.81372797  0.15110164  1
  As  As3  1  0.25000000  0.18627203  0.84889836  1
  As  As4  1  0.25000000  0.57404360  0.38697967  1
  As  As5  1  0.75000000  0.42595640  0.61302033  1
  As  As6  1  0.75000000  0.07404360  0.11302033  1
  As  As7  1  0.25000000  0.92595640  0.88697967  1
loop_
_geom_bond_atom_site_label_1
_geom_bond_atom_site_label_2
_geom_bond_distance
_geom_bond_site_symmetry_2
K0 Te11 3.609317 1_555
K0 Te14 3.609317 1_455
K0 Te0 3.675059 1_455
K0 Te5 3.675059 1_555
K0 Te4 3.818111 1_555
K0 Te1 3.818111 1_555
K1 Te10 3.609317 1_655
K1 Te15 3.609317 1_555
K1 Te4 3.675059 1_655
K1 Te1 3.675059 1_555
K1 Te0 3.818111 1_555
K1 Te5 3.818111 1_555
K2 Te9 3.609317 1_555
K2 Te12 3.609317 1_655
K2 Te2 3.675059 1_656
K2 Te7 3.675059 1_556
K2 Te6 3.818111 1_565
K2 Te3 3.818111 1_565
K3 Te8 3.609317 1_455
K3 Te13 3.609317 1_555
K3 Te6 3.675059 1_454
K3 Te3 3.675059 1_554
K3 Te7 3.818111 1_545
K3 Te2 3.818111 1_545
K4 Te8 3.612921 1_455
K4 Te13 3.612921 1_555
K4 Te7 3.709030 1_555
K4 Te2 3.709030 1_555
K4 Te10 3.731420 1_555
K4 Te15 3.731420 1_555
K5 Te12 3.612921 1_655
K5 Te9 3.612921 1_555
K5 Te6 3.709030 1_555
K5 Te3 3.709030 1_555
K5 Te14 3.731420 1_555
K5 Te11 3.731420 1_555
K6 Te10 3.612921 1_655
K6 Te15 3.612921 1_555
K6 Te5 3.709030 1_565
K6 Te0 3.709030 1_565
K6 Te8 3.731420 1_565
K6 Te13 3.731420 1_565
K7 Te11 3.612921 1_555
K7 Te14 3.612921 1_455
K7 Te4 3.709030 1_545
K7 Te1 3.709030 1_545
K7 Te12 3.731420 1_545
K7 Te9 3.731420 1_545
K8 Te11 3.464067 1_555
K8 Te14 3.464067 1_455
K8 Te12 3.520295 1_555
K8 Te9 3.520295 1_555
K8 Te4 3.690640 1_555
K8 Te1 3.690640 1_555
K9 Te15 3.464067 1_555
K9 Te10 3.464067 1_655
K9 Te13 3.520295 1_555
K9 Te8 3.520295 1_555
K9 Te0 3.690640 1_555
K9 Te5 3.690640 1_555
K10 Te9 3.464067 1_545
K10 Te12 3.464067 1_645
K10 Te14 3.520295 1_555
K10 Te11 3.520295 1_555
K10 Te6 3.690640 1_555
K10 Te3 3.690640 1_555
K11 Te13 3.464067 1_565
K11 Te8 3.464067 1_465
K11 Te15 3.520295 1_555
K11 Te10 3.520295 1_555
K11 Te7 3.690640 1_555
K11 Te2 3.690640 1_555
K12 Te0 3.591920 1_465
K12 Te5 3.591920 1_565
K12 Te4 3.804323 1_555
K12 Te1 3.804323 1_555
K12 Te15 3.851415 1_555
K12 Te10 3.851415 1_555
K13 Te4 3.591920 1_645
K13 Te1 3.591920 1_545
K13 Te0 3.804323 1_555
K13 Te5 3.804323 1_555
K13 Te11 3.851415 1_555
K13 Te14 3.851415 1_555
K14 Te2 3.591920 1_655
K14 Te7 3.591920 1_555
K14 Te3 3.804323 1_554
K14 Te6 3.804323 1_554
K14 Te13 3.851415 1_555
K14 Te8 3.851415 1_555
K15 Te6 3.591920 1_455
K15 Te3 3.591920 1_555
K15 Te7 3.804323 1_556
K15 Te2 3.804323 1_556
K15 Te12 3.851415 1_555
K15 Te9 3.851415 1_555
As0 As4 2.494266 1_555
As0 Te0 2.614709 1_455
As0 Te5 2.614709 1_555
As0 K4 3.637636 1_555
As1 As5 2.494266 1_555
As1 Te4 2.614709 1_655
As1 Te1 2.614709 1_555
As1 K5 3.637636 1_555
As2 As6 2.494266 1_565
As2 Te2 2.614709 1_655
As2 Te7 2.614709 1_555
As2 K6 3.637636 1_555
As3 As7 2.494266 1_545
As3 Te6 2.614709 1_455
As3 Te3 2.614709 1_555
As3 K7 3.637636 1_555
As4 Te10 2.605617 1_555
As4 Te15 2.605617 1_555
As4 K12 3.372305 1_555
As4 K0 3.449124 1_555
As5 Te11 2.605617 1_555
As5 Te14 2.605617 1_555
As5 K13 3.372305 1_555
As5 K1 3.449124 1_555
As6 Te13 2.605617 1_555
As6 Te8 2.605617 1_555
As6 K14 3.372305 1_555
As6 K2 3.449124 1_544
As7 Te12 2.605617 1_555
As7 Te9 2.605617 1_555
As7 K15 3.372305 1_555
As7 K3 3.449124 1_566
