# generated using pymatgen
data_Tb5Si3
_symmetry_space_group_name_H-M   'P 1'
_cell_length_a   8.47189374
_cell_length_b   8.47189227
_cell_length_c   6.41416758
_cell_angle_alpha   90.00000000
_cell_angle_beta   90.00000000
_cell_angle_gamma   120.00000170
_symmetry_Int_Tables_number   1
_chemical_formula_structural   Tb5Si3
_chemical_formula_sum   'Tb10 Si6'
_cell_volume   398.68679444
_cell_formula_units_Z   2
loop_
 _symmetry_equiv_pos_site_id
 _symmetry_equiv_pos_as_xyz
  1  'x, y, z'
loop_
 _atom_site_type_symbol
 _atom_site_label
 _atom_site_symmetry_multiplicity
 _atom_site_fract_x
 _atom_site_fract_y
 _atom_site_fract_z
 _atom_site_occupancy
  Tb  Tb0  1  -0.00000000  0.75701589  0.75000000  1
  Tb  Tb1  1  0.00000000  0.24298411  0.25000000  1
  Tb  Tb2  1  0.75701589  0.75701589  0.25000000  1
  Tb  Tb3  1  0.75701589  0.00000000  0.75000000  1
  Tb  Tb4  1  0.24298411  0.24298411  0.75000000  1
  Tb  Tb5  1  0.24298411  -0.00000000  0.25000000  1
  Tb  Tb6  1  0.33333300  0.66666700  0.50000000  1
  Tb  Tb7  1  0.66666700  0.33333300  0.00000000  1
  Tb  Tb8  1  0.66666700  0.33333300  0.50000000  1
  Tb  Tb9  1  0.33333300  0.66666700  0.00000000  1
  Si  Si0  1  0.39390151  -0.00000000  0.75000000  1
  Si  Si1  1  0.39390151  0.39390151  0.25000000  1
  Si  Si2  1  -0.00000000  0.60609849  0.25000000  1
  Si  Si3  1  0.00000000  0.39390151  0.75000000  1
  Si  Si4  1  0.60609849  0.60609849  0.75000000  1
  Si  Si5  1  0.60609849  0.00000000  0.25000000  1
loop_
_geom_bond_atom_site_label_1
_geom_bond_atom_site_label_2
_geom_bond_distance
_geom_bond_site_symmetry_2
Si0 Tb4 2.916201 1_555
Si0 Tb0 2.916201 1_545
Si0 Tb9 3.059468 1_546
Si0 Tb6 3.059468 1_545
Si0 Tb8 3.059471 1_555
Si0 Tb7 3.059471 1_556
Si0 Tb3 3.076266 1_555
Si0 Tb5 3.452549 1_555
Si0 Tb5 3.452549 1_556
Si1 Tb5 2.916200 1_555
Si1 Tb1 2.916201 1_555
Si1 Tb9 3.059476 1_555
Si1 Tb6 3.059476 1_555
Si1 Tb7 3.059476 1_555
Si1 Tb8 3.059476 1_555
Si1 Tb2 3.076266 1_555
Si1 Tb4 3.452549 1_555
Si1 Tb4 3.452549 1_554
Si2 Tb5 2.916200 1_565
Si2 Tb2 2.916201 1_455
Si2 Tb9 3.059469 1_555
Si2 Tb6 3.059469 1_555
Si2 Tb8 3.059471 1_455
Si2 Tb7 3.059471 1_455
Si2 Tb1 3.076266 1_555
Si2 Tb0 3.452549 1_555
Si2 Tb0 3.452549 1_554
Si3 Tb3 2.916200 1_455
Si3 Tb4 2.916201 1_555
Si3 Tb8 3.059469 1_455
Si3 Tb7 3.059469 1_456
Si3 Tb6 3.059471 1_555
Si3 Tb9 3.059471 1_556
Si3 Tb0 3.076266 1_555
Si3 Tb1 3.452549 1_555
Si3 Tb1 3.452549 1_556
Si4 Tb3 2.916200 1_565
Si4 Tb0 2.916201 1_655
Si4 Tb7 3.059476 1_556
Si4 Tb8 3.059476 1_555
Si4 Tb9 3.059476 1_556
Si4 Tb6 3.059476 1_555
Si4 Tb4 3.076266 1_555
Si4 Tb2 3.452549 1_555
Si4 Tb2 3.452549 1_556
Si5 Tb2 2.916201 1_545
Si5 Tb1 2.916201 1_655
Si5 Tb8 3.059468 1_555
Si5 Tb7 3.059468 1_555
Si5 Tb6 3.059471 1_545
Si5 Tb9 3.059471 1_545
Si5 Tb5 3.076266 1_555
Si5 Tb3 3.452549 1_555
Si5 Tb3 3.452549 1_554
