# generated using pymatgen
data_Cs2Ni3S4
_symmetry_space_group_name_H-M   'P 1'
_cell_length_a   5.84909551
_cell_length_b   5.84909378
_cell_length_c   15.21693818
_cell_angle_alpha   90.00000000
_cell_angle_beta   90.00000000
_cell_angle_gamma   119.99999812
_symmetry_Int_Tables_number   1
_chemical_formula_structural   Cs2Ni3S4
_chemical_formula_sum   'Cs4 Ni6 S8'
_cell_volume   450.85325916
_cell_formula_units_Z   2
loop_
 _symmetry_equiv_pos_site_id
 _symmetry_equiv_pos_as_xyz
  1  'x, y, z'
loop_
 _atom_site_type_symbol
 _atom_site_label
 _atom_site_symmetry_multiplicity
 _atom_site_fract_x
 _atom_site_fract_y
 _atom_site_fract_z
 _atom_site_occupancy
  Cs  Cs0  1  0.33333300  0.66666700  0.91085366  1
  Cs  Cs1  1  0.66666700  0.33333300  0.41085366  1
  Cs  Cs2  1  0.66666700  0.33333300  0.08914634  1
  Cs  Cs3  1  0.33333300  0.66666700  0.58914634  1
  Ni  Ni0  1  0.16643192  0.83356808  0.25000000  1
  Ni  Ni1  1  0.83356808  0.66713517  0.75000000  1
  Ni  Ni2  1  0.83356808  0.16643192  0.75000000  1
  Ni  Ni3  1  0.16643192  0.33286483  0.25000000  1
  Ni  Ni4  1  0.33286483  0.16643192  0.75000000  1
  Ni  Ni5  1  0.66713517  0.83356808  0.25000000  1
  S  S0  1  0.33333300  0.66666700  0.34328831  1
  S  S1  1  0.66666700  0.33333300  0.84328831  1
  S  S2  1  0.66666700  0.33333300  0.65671169  1
  S  S3  1  0.33333300  0.66666700  0.15671169  1
  S  S4  1  -0.00000000  0.00000000  0.65689312  1
  S  S5  1  -0.00000000  0.00000000  0.15689312  1
  S  S6  1  -0.00000000  0.00000000  0.84310688  1
  S  S7  1  -0.00000000  0.00000000  0.34310688  1
loop_
_geom_bond_atom_site_label_1
_geom_bond_atom_site_label_2
_geom_bond_distance
_geom_bond_site_symmetry_2
Cs0 S1 3.530016 1_565
Cs0 S1 3.530017 1_455
Cs0 S1 3.530026 1_555
Cs0 S6 3.530821 1_565
Cs0 S6 3.530826 1_555
Cs0 S6 3.530827 1_665
Cs0 S3 3.741206 1_556
Cs1 S0 3.530016 1_545
Cs1 S0 3.530017 1_655
Cs1 S0 3.530026 1_555
Cs1 S7 3.530821 1_655
Cs1 S7 3.530826 1_665
Cs1 S7 3.530827 1_555
Cs1 S2 3.741206 1_555
Cs2 S3 3.530016 1_545
Cs2 S3 3.530017 1_655
Cs2 S3 3.530026 1_555
Cs2 S5 3.530821 1_655
Cs2 S5 3.530826 1_665
Cs2 S5 3.530827 1_555
Cs2 S1 3.741206 1_554
Cs3 S2 3.530016 1_565
Cs3 S2 3.530017 1_455
Cs3 S2 3.530026 1_555
Cs3 S4 3.530821 1_565
Cs3 S4 3.530826 1_555
Cs3 S4 3.530827 1_665
Cs3 S0 3.741206 1_555
Ni0 S5 2.202338 1_565
Ni0 S7 2.202338 1_565
Ni0 S0 2.207753 1_555
Ni0 S3 2.207753 1_555
Ni1 S6 2.202342 1_665
Ni1 S4 2.202342 1_665
Ni1 S2 2.207753 1_555
Ni1 S1 2.207753 1_555
Ni2 S4 2.202338 1_655
Ni2 S6 2.202338 1_655
Ni2 S1 2.207753 1_555
Ni2 S2 2.207753 1_555
Ni3 S7 2.202342 1_555
Ni3 S5 2.202342 1_555
Ni3 S3 2.207753 1_555
Ni3 S0 2.207753 1_555
Ni4 S6 2.202342 1_555
Ni4 S4 2.202342 1_555
Ni4 S2 2.207754 1_555
Ni4 S1 2.207754 1_555
Ni5 S5 2.202342 1_665
Ni5 S7 2.202342 1_665
Ni5 S0 2.207754 1_555
Ni5 S3 2.207754 1_555
