# generated using pymatgen
data_K2(CuTe)5
_symmetry_space_group_name_H-M   'P 1'
_cell_length_a   8.29193966
_cell_length_b   8.29193966
_cell_length_c   18.73898942
_cell_angle_alpha   90.00000000
_cell_angle_beta   90.00000000
_cell_angle_gamma   151.31748071
_symmetry_Int_Tables_number   1
_chemical_formula_structural   K2(CuTe)5
_chemical_formula_sum   'K4 Cu10 Te10'
_cell_volume   618.38611856
_cell_formula_units_Z   2
loop_
 _symmetry_equiv_pos_site_id
 _symmetry_equiv_pos_as_xyz
  1  'x, y, z'
loop_
 _atom_site_type_symbol
 _atom_site_label
 _atom_site_symmetry_multiplicity
 _atom_site_fract_x
 _atom_site_fract_y
 _atom_site_fract_z
 _atom_site_occupancy
  K  K0  1  0.51748927  0.48251073  0.11797698  1
  K  K1  1  0.48251073  0.51748927  0.88202302  1
  K  K2  1  0.48251073  0.51748927  0.61797698  1
  K  K3  1  0.51748927  0.48251073  0.38202302  1
  Cu  Cu0  1  0.67576737  0.32423263  0.75000000  1
  Cu  Cu1  1  0.32423263  0.67576737  0.25000000  1
  Cu  Cu2  1  0.72539125  0.27460875  0.95753669  1
  Cu  Cu3  1  0.27460875  0.72539125  0.04246331  1
  Cu  Cu4  1  0.27460875  0.72539125  0.45753669  1
  Cu  Cu5  1  0.72539125  0.27460875  0.54246331  1
  Cu  Cu6  1  0.79881388  0.20118612  0.35173294  1
  Cu  Cu7  1  0.20118612  0.79881388  0.64826706  1
  Cu  Cu8  1  0.20118612  0.79881388  0.85173294  1
  Cu  Cu9  1  0.79881388  0.20118612  0.14826706  1
  Te  Te0  1  0.08146120  0.91853880  0.75000000  1
  Te  Te1  1  0.91853880  0.08146120  0.25000000  1
  Te  Te2  1  0.19620081  0.80379919  0.16671768  1
  Te  Te3  1  0.80379919  0.19620081  0.83328232  1
  Te  Te4  1  0.80379919  0.19620081  0.66671768  1
  Te  Te5  1  0.19620081  0.80379919  0.33328232  1
  Te  Te6  1  0.87043471  0.12956529  0.02227280  1
  Te  Te7  1  0.12956529  0.87043471  0.97772720  1
  Te  Te8  1  0.12956529  0.87043471  0.52227280  1
  Te  Te9  1  0.87043471  0.12956529  0.47772720  1
loop_
_geom_bond_atom_site_label_1
_geom_bond_atom_site_label_2
_geom_bond_distance
_geom_bond_site_symmetry_2
K0 Te1 3.587008 1_565
K0 Te1 3.587008 1_455
K0 Te6 3.607945 1_455
K0 Te6 3.607945 1_565
K0 Te2 3.646567 1_545
K0 Te2 3.646567 1_655
K0 Te7 3.790542 1_654
K0 Te7 3.790542 1_544
K1 Te0 3.587008 1_655
K1 Te0 3.587008 1_545
K1 Te7 3.607945 1_655
K1 Te7 3.607945 1_545
K1 Te3 3.646567 1_455
K1 Te3 3.646567 1_565
K1 Te6 3.790542 1_456
K1 Te6 3.790542 1_566
K2 Te0 3.587008 1_655
K2 Te0 3.587008 1_545
K2 Te8 3.607945 1_545
K2 Te8 3.607945 1_655
K2 Te4 3.646567 1_455
K2 Te4 3.646567 1_565
K2 Te9 3.790542 1_455
K2 Te9 3.790542 1_565
K3 Te1 3.587008 1_565
K3 Te1 3.587008 1_455
K3 Te9 3.607945 1_565
K3 Te9 3.607945 1_455
K3 Te5 3.646567 1_545
K3 Te5 3.646567 1_655
K3 Te8 3.790542 1_545
K3 Te8 3.790542 1_655
Cu0 Te0 2.552324 1_545
Cu0 Te0 2.552324 1_655
Cu0 Te3 2.582094 1_555
Cu0 Te4 2.582094 1_555
Cu1 Te1 2.552324 1_455
Cu1 Te1 2.552324 1_565
Cu1 Te2 2.582094 1_555
Cu1 Te5 2.582094 1_555
Cu2 Te7 2.594629 1_655
Cu2 Te7 2.594629 1_545
Cu2 Te6 2.627255 1_556
Cu2 Te3 2.647360 1_555
Cu3 Te6 2.594629 1_455
Cu3 Te6 2.594629 1_565
Cu3 Te7 2.627255 1_554
Cu3 Te2 2.647360 1_555
Cu4 Te9 2.594629 1_455
Cu4 Te9 2.594629 1_565
Cu4 Te8 2.627255 1_555
Cu4 Te5 2.647360 1_555
Cu5 Te8 2.594629 1_545
Cu5 Te8 2.594629 1_655
Cu5 Te9 2.627255 1_555
Cu5 Te4 2.647360 1_555
Cu6 Te9 2.626508 1_555
Cu6 Te5 2.656347 1_655
Cu6 Te5 2.656347 1_545
Cu6 Te1 2.708249 1_555
Cu7 Te8 2.626508 1_555
Cu7 Te4 2.656347 1_565
Cu7 Te4 2.656347 1_455
Cu7 Te0 2.708249 1_555
Cu8 Te7 2.626508 1_555
Cu8 Te3 2.656347 1_565
Cu8 Te3 2.656347 1_455
Cu8 Te0 2.708249 1_555
Cu9 Te6 2.626508 1_555
Cu9 Te2 2.656347 1_545
Cu9 Te2 2.656347 1_655
Cu9 Te1 2.708249 1_555
