# generated using pymatgen
data_MgV2Cr2O8
_symmetry_space_group_name_H-M   'P 1'
_cell_length_a   5.97811600
_cell_length_b   5.90225912
_cell_length_c   6.00518878
_cell_angle_alpha   58.21315276
_cell_angle_beta   60.14901937
_cell_angle_gamma   59.57393487
_symmetry_Int_Tables_number   1
_chemical_formula_structural   MgV2Cr2O8
_chemical_formula_sum   'Mg1 V2 Cr2 O8'
_cell_volume   147.39152830
_cell_formula_units_Z   1
loop_
 _symmetry_equiv_pos_site_id
 _symmetry_equiv_pos_as_xyz
  1  'x, y, z'
loop_
 _atom_site_type_symbol
 _atom_site_label
 _atom_site_symmetry_multiplicity
 _atom_site_fract_x
 _atom_site_fract_y
 _atom_site_fract_z
 _atom_site_occupancy
  Mg  Mg0  1  0.50000000  0.50000000  0.00000000  1
  V  V0  1  0.11848000  0.13847900  0.12456100  1
  V  V1  1  0.88152000  0.86152100  0.87543900  1
  Cr  Cr0  1  0.00000000  0.50000000  0.50000000  1
  Cr  Cr1  1  0.50000000  0.50000000  0.50000000  1
  O  O0  1  0.22289000  0.27442800  0.25277000  1
  O  O1  1  0.24479600  0.26610000  0.74430600  1
  O  O2  1  0.25511900  0.73257400  0.25718700  1
  O  O3  1  0.25008700  0.72557200  0.74723000  1
  O  O4  1  0.74991300  0.27442800  0.25277000  1
  O  O5  1  0.74488000  0.26742600  0.74281300  1
  O  O6  1  0.75520400  0.73390000  0.25569400  1
  O  O7  1  0.77711000  0.72557200  0.74723000  1
loop_
_geom_bond_atom_site_label_1
_geom_bond_atom_site_label_2
_geom_bond_distance
_geom_bond_site_symmetry_2
Mg0 O2 2.088103 1_555
Mg0 O5 2.088103 1_554
Mg0 O0 2.102985 1_555
Mg0 O7 2.102985 1_554
Mg0 O4 2.102989 1_555
Mg0 O3 2.102989 1_554
Cr0 O0 2.017066 1_555
Cr0 O7 2.017066 1_455
Cr0 O2 2.033333 1_555
Cr0 O5 2.033338 1_455
Cr0 O1 2.038901 1_555
Cr0 O6 2.038901 1_455
Cr1 O4 2.017066 1_555
Cr1 O3 2.017066 1_555
Cr1 O5 2.033333 1_555
Cr1 O2 2.033338 1_555
Cr1 O6 2.038910 1_555
Cr1 O1 2.038910 1_555
O0 V0 1.806310 1_555
O1 V0 1.843754 1_556
O2 V0 1.922635 1_565
O3 V1 1.806305 1_455
O4 V0 1.806305 1_655
O5 V1 1.922635 1_545
O6 V1 1.843754 1_554
O7 V1 1.806310 1_555
