# generated using pymatgen
data_VP2O7
_symmetry_space_group_name_H-M   'P 1'
_cell_length_a   8.12115700
_cell_length_b   6.85711200
_cell_length_c   9.37914167
_cell_angle_alpha   72.55189028
_cell_angle_beta   90.00000000
_cell_angle_gamma   90.00000000
_symmetry_Int_Tables_number   1
_chemical_formula_structural   VP2O7
_chemical_formula_sum   'V4 P8 O28'
_cell_volume   498.27094641
_cell_formula_units_Z   4
loop_
 _symmetry_equiv_pos_site_id
 _symmetry_equiv_pos_as_xyz
  1  'x, y, z'
loop_
 _atom_site_type_symbol
 _atom_site_label
 _atom_site_symmetry_multiplicity
 _atom_site_fract_x
 _atom_site_fract_y
 _atom_site_fract_z
 _atom_site_occupancy
  V  V0  1  0.22998000  0.72002700  0.99504500  1
  V  V1  1  0.27002000  0.72002700  0.49504500  1
  V  V2  1  0.72998000  0.27997300  0.50495500  1
  V  V3  1  0.77002000  0.27997300  0.00495500  1
  P  P0  1  0.46962400  0.93051700  0.70675700  1
  P  P1  1  0.03037600  0.93051700  0.20675700  1
  P  P2  1  0.58464700  0.53063000  0.70570200  1
  P  P3  1  0.08464700  0.46937000  0.79429800  1
  P  P4  1  0.91535300  0.53063000  0.20570200  1
  P  P5  1  0.41535300  0.46937000  0.29429800  1
  P  P6  1  0.96962400  0.06948300  0.79324300  1
  P  P7  1  0.53037600  0.06948300  0.29324300  1
  O  O0  1  0.39845500  0.88202900  0.86390400  1
  O  O1  1  0.05326600  0.86391800  0.84482900  1
  O  O2  1  0.33256700  0.90641200  0.59618300  1
  O  O3  1  0.61209200  0.76397600  0.70589700  1
  O  O4  1  0.10154500  0.88202900  0.36390400  1
  O  O5  1  0.44673400  0.86391800  0.34482900  1
  O  O6  1  0.16743300  0.90641200  0.09618300  1
  O  O7  1  0.22409800  0.52188500  0.88962400  1
  O  O8  1  0.09477600  0.60359100  0.63084600  1
  O  O9  1  0.91626700  0.47504700  0.86277400  1
  O  O10  1  0.88790800  0.76397600  0.20589700  1
  O  O11  1  0.41626700  0.52495300  0.63722600  1
  O  O12  1  0.59477600  0.39640900  0.86915400  1
  O  O13  1  0.72409800  0.47811500  0.61037600  1
  O  O14  1  0.27590200  0.52188500  0.38962400  1
  O  O15  1  0.40522400  0.60359100  0.13084600  1
  O  O16  1  0.58373300  0.47504700  0.36277400  1
  O  O17  1  0.11209200  0.23602400  0.79410300  1
  O  O18  1  0.08373300  0.52495300  0.13722600  1
  O  O19  1  0.90522400  0.39640900  0.36915400  1
  O  O20  1  0.77590200  0.47811500  0.11037600  1
  O  O21  1  0.83256700  0.09358800  0.90381700  1
  O  O22  1  0.55326600  0.13608200  0.65517100  1
  O  O23  1  0.89845500  0.11797100  0.63609600  1
  O  O24  1  0.38790800  0.23602400  0.29410300  1
  O  O25  1  0.66743300  0.09358800  0.40381700  1
  O  O26  1  0.94673400  0.13608200  0.15517100  1
  O  O27  1  0.60154500  0.11797100  0.13609600  1
loop_
_geom_bond_atom_site_label_1
_geom_bond_atom_site_label_2
_geom_bond_distance
_geom_bond_site_symmetry_2
O0 P0 1.524178 1_555
O0 V0 1.949236 1_555
O1 P6 1.507792 1_465
O1 V0 2.045596 1_555
O2 P0 1.563515 1_555
O2 V1 1.875716 1_555
O3 P2 1.616073 1_555
O3 P0 1.627388 1_555
O4 P1 1.524178 1_555
O4 V1 1.949236 1_555
O5 P7 1.507792 1_565
O5 V1 2.045596 1_555
O6 P1 1.563515 1_555
O6 V0 1.875716 1_554
O7 P3 1.550704 1_555
O7 V0 1.905666 1_555
O8 P3 1.535553 1_555
O8 V1 1.917128 1_555
O9 P3 1.516206 1_655
O9 V3 1.976996 1_556
O10 P4 1.616073 1_555
O10 P1 1.627388 1_655
O11 P2 1.516206 1_555
O11 V1 1.976996 1_555
O12 P2 1.535553 1_555
O12 V3 1.917128 1_556
O13 P2 1.550704 1_555
O13 V2 1.905666 1_555
O14 P5 1.550704 1_555
O14 V1 1.905666 1_555
O15 P5 1.535553 1_555
O15 V0 1.917128 1_554
O16 P5 1.516206 1_555
O16 V2 1.976996 1_555
O17 P3 1.616073 1_555
O17 P6 1.627388 1_455
O18 P4 1.516206 1_455
O18 V0 1.976996 1_554
O19 P4 1.535553 1_555
O19 V2 1.917128 1_555
O20 P4 1.550704 1_555
O20 V3 1.905666 1_555
O21 P6 1.563515 1_555
O21 V3 1.875716 1_556
O22 P0 1.507792 1_545
O22 V2 2.045596 1_555
O23 P6 1.524178 1_555
O23 V2 1.949236 1_555
O24 P5 1.616073 1_555
O24 P7 1.627388 1_555
O25 P7 1.563515 1_555
O25 V2 1.875716 1_555
O26 P1 1.507792 1_645
O26 V3 2.045596 1_555
O27 P7 1.524178 1_555
O27 V3 1.949236 1_555
