# generated using pymatgen
data_MgMn12O17F7
_symmetry_space_group_name_H-M   'P 1'
_cell_length_a   4.62869325
_cell_length_b   5.75216010
_cell_length_c   15.44284374
_cell_angle_alpha   85.84387885
_cell_angle_beta   89.29751097
_cell_angle_gamma   89.81109603
_symmetry_Int_Tables_number   1
_chemical_formula_structural   MgMn12O17F7
_chemical_formula_sum   'Mg1 Mn12 O17 F7'
_cell_volume   410.05220602
_cell_formula_units_Z   1
loop_
 _symmetry_equiv_pos_site_id
 _symmetry_equiv_pos_as_xyz
  1  'x, y, z'
loop_
 _atom_site_type_symbol
 _atom_site_label
 _atom_site_symmetry_multiplicity
 _atom_site_fract_x
 _atom_site_fract_y
 _atom_site_fract_z
 _atom_site_occupancy
  Mg  Mg0  1  0.62345400  0.97377300  0.78090300  1
  Mn  Mn0  1  0.03716300  0.14225200  0.40792600  1
  Mn  Mn1  1  0.03711800  0.84064200  0.24830800  1
  Mn  Mn2  1  0.01365000  0.21320100  0.08904600  1
  Mn  Mn3  1  0.12962900  0.21203000  0.71852700  1
  Mn  Mn4  1  0.04062900  0.77861900  0.56985300  1
  Mn  Mn5  1  0.03548000  0.91452100  0.92110500  1
  Mn  Mn6  1  0.47751200  0.41052300  0.92942800  1
  Mn  Mn7  1  0.51116200  0.29863100  0.57610000  1
  Mn  Mn8  1  0.50322400  0.37112500  0.25828900  1
  Mn  Mn9  1  0.51188000  0.67262900  0.10000700  1
  Mn  Mn10  1  0.51148000  0.60947600  0.41862200  1
  Mn  Mn11  1  0.51850800  0.55062300  0.74569600  1
  O  O0  1  0.24357500  0.11631400  0.30191200  1
  O  O1  1  0.25553900  0.04182500  0.61946900  1
  O  O2  1  0.21377000  0.18688800  0.98299700  1
  O  O3  1  0.23806200  0.91116100  0.14357700  1
  O  O4  1  0.24472900  0.85051500  0.46106800  1
  O  O5  1  0.18101100  0.94191000  0.79237400  1
  O  O6  1  0.29202100  0.36495000  0.47456300  1
  O  O7  1  0.28696900  0.42881100  0.15370500  1
  O  O8  1  0.29012200  0.59610000  0.31478400  1
  O  O9  1  0.26350900  0.49629800  0.64301700  1
  O  O10  1  0.24345000  0.39489000  0.81471500  1
  O  O11  1  0.72328500  0.44579100  0.03415500  1
  O  O12  1  0.73908200  0.62733000  0.19932900  1
  O  O13  1  0.74061900  0.37218400  0.36044300  1
  O  O14  1  0.72948500  0.57060700  0.52598800  1
  O  O15  1  0.67186500  0.65717600  0.85122500  1
  O  O16  1  0.70078900  0.25365600  0.69395400  1
  F  F0  1  0.26541900  0.67661600  0.99448400  1
  F  F1  1  0.76463300  0.14790100  0.19716000  1
  F  F2  1  0.77730200  0.08776700  0.51688900  1
  F  F3  1  0.77481000  0.85384100  0.35651000  1
  F  F4  1  0.74931000  0.91845200  0.03831500  1
  F  F5  1  0.71788900  0.14738400  0.87670100  1
  F  F6  1  0.76131500  0.78072900  0.68052500  1
loop_
_geom_bond_atom_site_label_1
_geom_bond_atom_site_label_2
_geom_bond_distance
_geom_bond_site_symmetry_2
Mg0 O16 2.049791 1_565
Mg0 O5 2.061037 1_555
Mg0 O15 2.064613 1_555
Mn0 O0 1.900389 1_555
Mn0 O13 2.010763 1_455
Mn0 O4 2.054680 1_545
Mn0 O6 2.079020 1_555
Mn1 O3 1.875087 1_555
Mn1 O12 2.037641 1_455
Mn1 O8 2.052618 1_555
Mn1 O0 2.081490 1_565
Mn2 O2 1.887006 1_554
Mn2 O11 2.041218 1_455
Mn2 O7 2.087228 1_555
Mn2 O3 2.145717 1_545
Mn3 O5 1.875814 1_545
Mn3 O1 1.956974 1_555
Mn3 O10 1.959517 1_555
Mn3 O9 2.032263 1_555
Mn3 O16 2.035584 1_455
Mn4 O4 1.936157 1_555
Mn4 O1 2.016330 1_565
Mn4 O14 2.029149 1_455
Mn4 O9 2.174783 1_555
Mn5 O2 2.072204 1_565
Mn5 O5 2.086404 1_555
Mn5 O15 2.545786 1_455
Mn6 O2 1.913318 1_555
Mn6 O15 2.003531 1_555
Mn6 O11 2.011244 1_556
Mn6 O10 2.095431 1_555
Mn7 O6 1.892838 1_555
Mn7 O9 1.951252 1_555
Mn7 O1 1.969593 1_555
Mn7 O14 1.970622 1_555
Mn7 O16 2.029571 1_555
Mn8 O8 1.882264 1_555
Mn8 O7 1.918410 1_555
Mn8 O13 1.933924 1_555
Mn8 O0 1.973623 1_555
Mn8 O12 1.996119 1_555
Mn9 O12 1.872501 1_555
Mn9 O7 1.886335 1_555
Mn9 O11 1.963092 1_555
Mn9 O3 2.010746 1_555
Mn10 O6 1.889004 1_555
Mn10 O8 1.919843 1_555
Mn10 O14 1.950158 1_555
Mn10 O13 1.984949 1_555
Mn10 O4 1.994276 1_555
Mn11 O10 1.842628 1_555
Mn11 O15 1.926491 1_555
Mn11 O9 2.031067 1_555
Mn11 O16 2.107155 1_555
F0 Mn9 1.999361 1_556
F0 Mn5 2.021081 1_555
F0 Mn6 2.122415 1_555
F1 Mn2 2.030250 1_655
F1 Mn8 2.035032 1_555
F1 Mn1 2.268422 1_645
F2 Mn7 1.986983 1_555
F2 Mn0 2.062251 1_655
F2 Mn4 2.261896 1_645
F3 Mn10 2.041734 1_555
F3 Mn1 2.059127 1_655
F3 Mn0 2.255038 1_665
F4 Mn9 1.975895 1_555
F4 Mn5 2.231211 1_654
F4 Mn2 2.283655 1_665
F5 Mg0 1.899955 1_545
F5 Mn5 2.074602 1_645
F5 Mn6 2.082624 1_555
F6 Mn11 1.953693 1_555
F6 Mg0 2.064866 1_555
F6 Mn4 2.131043 1_655
