# generated using pymatgen
data_K4MgV2O7
_symmetry_space_group_name_H-M   'P 1'
_cell_length_a   6.83037653
_cell_length_b   6.83037749
_cell_length_c   7.30178596
_cell_angle_alpha   76.98726283
_cell_angle_beta   76.98725959
_cell_angle_gamma   52.81587519
_symmetry_Int_Tables_number   1
_chemical_formula_structural   K4MgV2O7
_chemical_formula_sum   'K4 Mg1 V2 O7'
_cell_volume   262.68463976
_cell_formula_units_Z   1
loop_
 _symmetry_equiv_pos_site_id
 _symmetry_equiv_pos_as_xyz
  1  'x, y, z'
loop_
 _atom_site_type_symbol
 _atom_site_label
 _atom_site_symmetry_multiplicity
 _atom_site_fract_x
 _atom_site_fract_y
 _atom_site_fract_z
 _atom_site_occupancy
  K  K0  1  0.71862455  0.71862455  0.25143484  1
  K  K1  1  0.30222708  0.30222708  0.81123186  1
  K  K2  1  0.92328930  0.92328930  0.59203429  1
  K  K3  1  0.03591820  0.03591820  0.05925301  1
  Mg  Mg0  1  0.18414220  0.18414220  0.46104141  1
  V  V0  1  0.62364312  0.62364312  0.75784222  1
  V  V1  1  0.39292948  0.39292948  0.19629986  1
  O  O0  1  0.73341679  0.73341679  0.87351036  1
  O  O1  1  0.87537554  0.37927410  0.61156489  1
  O  O2  1  0.23673179  0.23673179  0.18741750  1
  O  O3  1  0.64792875  0.16046102  0.31762781  1
  O  O4  1  0.37927410  0.87537554  0.61156489  1
  O  O5  1  0.48395507  0.48395507  0.94262026  1
  O  O6  1  0.16046102  0.64792875  0.31762781  1
loop_
_geom_bond_atom_site_label_1
_geom_bond_atom_site_label_2
_geom_bond_distance
_geom_bond_site_symmetry_2
K0 O0 2.719671 1_554
K0 O6 2.892201 1_655
K0 O3 2.892201 1_565
K0 O4 2.992822 1_555
K0 O1 2.992822 1_555
K0 O2 3.073140 1_655
K0 O2 3.073140 1_565
K1 O5 2.633789 1_555
K1 O2 2.660915 1_556
K1 O0 3.154644 1_455
K1 O0 3.154645 1_545
K2 O6 2.594005 1_655
K2 O3 2.594005 1_565
K2 O0 2.687082 1_555
K2 O4 2.962225 1_655
K2 O1 2.962225 1_565
K3 O3 2.655596 1_455
K3 O6 2.655597 1_545
K3 O2 2.840558 1_555
K3 O5 3.260430 1_454
K3 O5 3.260430 1_544
Mg0 O1 1.910598 1_455
Mg0 O4 1.910598 1_545
Mg0 O2 1.938921 1_555
O0 V0 1.757165 1_555
O1 V0 1.841189 1_555
O2 V1 1.928446 1_555
O3 V1 1.748770 1_555
O4 V0 1.841189 1_555
O5 V0 1.892620 1_555
O5 V1 1.906353 1_556
O6 V1 1.748770 1_555
