# generated using pymatgen
data_KP(HO2)2
_symmetry_space_group_name_H-M   'P 1'
_cell_length_a   4.55953500
_cell_length_b   6.20085800
_cell_length_c   14.48586031
_cell_angle_alpha   87.96818862
_cell_angle_beta   90.00000000
_cell_angle_gamma   90.00000000
_symmetry_Int_Tables_number   1
_chemical_formula_structural   KP(HO2)2
_chemical_formula_sum   'K4 P4 H8 O16'
_cell_volume   409.30165857
_cell_formula_units_Z   4
loop_
 _symmetry_equiv_pos_site_id
 _symmetry_equiv_pos_as_xyz
  1  'x, y, z'
loop_
 _atom_site_type_symbol
 _atom_site_label
 _atom_site_symmetry_multiplicity
 _atom_site_fract_x
 _atom_site_fract_y
 _atom_site_fract_z
 _atom_site_occupancy
  K  K0  1  0.98828400  0.76699500  0.86575100  1
  K  K1  1  0.48828400  0.23300500  0.63424900  1
  K  K2  1  0.01171600  0.23300500  0.13424900  1
  K  K3  1  0.51171600  0.76699500  0.36575100  1
  P  P0  1  0.96270200  0.73908600  0.62463400  1
  P  P1  1  0.46270200  0.26091400  0.87536600  1
  P  P2  1  0.03729800  0.26091400  0.37536600  1
  P  P3  1  0.53729800  0.73908600  0.12463400  1
  H  H0  1  0.00000000  0.00000000  0.50000000  1
  H  H1  1  0.50000000  0.00000000  0.00000000  1
  H  H2  1  0.49398500  0.73926700  0.68395600  1
  H  H3  1  0.99398500  0.26073300  0.81604400  1
  H  H4  1  0.50601500  0.26073300  0.31604400  1
  H  H5  1  0.00601500  0.73926700  0.18395600  1
  H  H6  1  0.00000000  0.50000000  0.50000000  1
  H  H7  1  0.50000000  0.50000000  0.00000000  1
  O  O0  1  0.79877900  0.66408900  0.19030700  1
  O  O1  1  0.29877900  0.33591100  0.30969300  1
  O  O2  1  0.20122100  0.33591100  0.80969300  1
  O  O3  1  0.70122100  0.66408900  0.69030700  1
  O  O4  1  0.66725800  0.90436200  0.05194900  1
  O  O5  1  0.16725800  0.09563800  0.44805100  1
  O  O6  1  0.33274200  0.09563800  0.94805100  1
  O  O7  1  0.83274200  0.90436200  0.55194900  1
  O  O8  1  0.29475400  0.83655600  0.18310600  1
  O  O9  1  0.79475400  0.16344400  0.31689400  1
  O  O10  1  0.70524600  0.16344400  0.81689400  1
  O  O11  1  0.20524600  0.83655600  0.68310600  1
  O  O12  1  0.42213800  0.53377600  0.07746500  1
  O  O13  1  0.92213800  0.46622400  0.42253500  1
  O  O14  1  0.57786200  0.46622400  0.92253500  1
  O  O15  1  0.07786200  0.53377600  0.57746500  1
loop_
_geom_bond_atom_site_label_1
_geom_bond_atom_site_label_2
_geom_bond_distance
_geom_bond_site_symmetry_2
K0 O14 2.747378 1_555
K0 O11 2.843209 1_655
K0 O10 2.843646 1_565
K0 O6 2.865864 1_665
K0 O3 2.948615 1_555
K0 O2 2.983520 1_655
K0 O4 3.210305 1_556
K1 O15 2.747378 1_555
K1 O10 2.843209 1_555
K1 O11 2.843646 1_545
K1 O7 2.865864 1_545
K1 O2 2.948615 1_555
K1 O3 2.983520 1_555
K1 O5 3.210305 1_555
K2 O12 2.747378 1_555
K2 O9 2.843209 1_455
K2 O8 2.843646 1_545
K2 O4 2.865864 1_445
K2 O1 2.948615 1_555
K2 O0 2.983520 1_455
K2 O6 3.210305 1_554
K3 O13 2.747378 1_555
K3 O8 2.843209 1_555
K3 O9 2.843646 1_565
K3 O5 2.865864 1_565
K3 O0 2.948615 1_555
K3 O1 2.983520 1_555
K3 O7 3.210305 1_555
H0 O7 1.211582 1_445
H0 O5 1.211582 1_555
H1 O4 1.211582 1_545
H1 O6 1.211582 1_554
H2 O3 1.056206 1_555
H2 O11 1.448026 1_555
H3 O2 1.056206 1_655
H3 O10 1.448026 1_555
H4 O1 1.056206 1_555
H4 O9 1.448026 1_555
H5 O0 1.056206 1_455
H5 O8 1.448026 1_555
H6 O15 1.202406 1_555
H6 O13 1.202406 1_455
H7 O12 1.202406 1_555
H7 O14 1.202406 1_554
O0 P3 1.584721 1_555
O1 P2 1.584721 1_555
O2 P1 1.584721 1_555
O3 P0 1.584721 1_555
O4 P3 1.559981 1_555
O5 P2 1.559981 1_555
O6 P1 1.559981 1_555
O7 P0 1.559981 1_555
O8 P3 1.530367 1_555
O9 P2 1.530367 1_655
O10 P1 1.530367 1_555
O11 P0 1.530367 1_455
O12 P3 1.557255 1_555
O13 P2 1.557255 1_655
O14 P1 1.557255 1_555
O15 P0 1.557255 1_455
