# generated using pymatgen
data_Ba3GaSb3
_symmetry_space_group_name_H-M   'P 1'
_cell_length_a   7.21728704
_cell_length_b   14.26406290
_cell_length_c   21.39082020
_cell_angle_alpha   90.00000000
_cell_angle_beta   90.00000000
_cell_angle_gamma   90.00000000
_symmetry_Int_Tables_number   1
_chemical_formula_structural   Ba3GaSb3
_chemical_formula_sum   'Ba24 Ga8 Sb24'
_cell_volume   2202.13865640
_cell_formula_units_Z   8
loop_
 _symmetry_equiv_pos_site_id
 _symmetry_equiv_pos_as_xyz
  1  'x, y, z'
loop_
 _atom_site_type_symbol
 _atom_site_label
 _atom_site_symmetry_multiplicity
 _atom_site_fract_x
 _atom_site_fract_y
 _atom_site_fract_z
 _atom_site_occupancy
  Ba  Ba0  1  0.82419863  0.98367364  0.75000000  1
  Ba  Ba1  1  0.32419863  0.51632636  0.25000000  1
  Ba  Ba2  1  0.67580137  0.48367364  0.75000000  1
  Ba  Ba3  1  0.17580137  0.01632636  0.25000000  1
  Ba  Ba4  1  0.19900995  0.26533430  0.75000000  1
  Ba  Ba5  1  0.69900995  0.23466570  0.25000000  1
  Ba  Ba6  1  0.30099005  0.76533430  0.75000000  1
  Ba  Ba7  1  0.80099005  0.73466570  0.25000000  1
  Ba  Ba8  1  0.19530077  0.73782162  0.07642412  1
  Ba  Ba9  1  0.69530077  0.76217838  0.92357588  1
  Ba  Ba10  1  0.30469923  0.23782162  0.42357588  1
  Ba  Ba11  1  0.80469923  0.26217838  0.57642412  1
  Ba  Ba12  1  0.80469923  0.26217838  0.92357588  1
  Ba  Ba13  1  0.30469923  0.23782162  0.07642412  1
  Ba  Ba14  1  0.69530077  0.76217838  0.57642412  1
  Ba  Ba15  1  0.19530077  0.73782162  0.42357588  1
  Ba  Ba16  1  0.77033594  0.00913955  0.07650963  1
  Ba  Ba17  1  0.27033594  0.49086045  0.92349037  1
  Ba  Ba18  1  0.72966406  0.50913955  0.42349037  1
  Ba  Ba19  1  0.22966406  0.99086045  0.57650963  1
  Ba  Ba20  1  0.22966406  0.99086045  0.92349037  1
  Ba  Ba21  1  0.72966406  0.50913955  0.07650963  1
  Ba  Ba22  1  0.27033594  0.49086045  0.57650963  1
  Ba  Ba23  1  0.77033594  0.00913955  0.42349037  1
  Ga  Ga0  1  0.51518613  0.12662009  0.83674829  1
  Ga  Ga1  1  0.01518613  0.37337991  0.16325171  1
  Ga  Ga2  1  0.48481387  0.87337991  0.33674829  1
  Ga  Ga3  1  0.51518613  0.12662009  0.66325171  1
  Ga  Ga4  1  0.01518613  0.37337991  0.33674829  1
  Ga  Ga5  1  0.98481387  0.62662009  0.83674829  1
  Ga  Ga6  1  0.48481387  0.87337991  0.16325171  1
  Ga  Ga7  1  0.98481387  0.62662009  0.66325171  1
  Sb  Sb0  1  0.80224542  0.25895072  0.09013729  1
  Sb  Sb1  1  0.27003435  0.98712697  0.40986317  1
  Sb  Sb2  1  0.72996565  0.01287303  0.90986317  1
  Sb  Sb3  1  0.22996565  0.48712697  0.09013683  1
  Sb  Sb4  1  0.22996565  0.48712697  0.40986317  1
  Sb  Sb5  1  0.72996565  0.01287303  0.59013683  1
  Sb  Sb6  1  0.27003435  0.98712697  0.09013683  1
  Sb  Sb7  1  0.77003435  0.51287303  0.59013683  1
  Sb  Sb8  1  0.32122194  0.01978002  0.75000000  1
  Sb  Sb9  1  0.82122194  0.48021998  0.25000000  1
  Sb  Sb10  1  0.17877806  0.51978002  0.75000000  1
  Sb  Sb11  1  0.67877806  0.98021998  0.25000000  1
  Sb  Sb12  1  0.70707091  0.23128925  0.75000000  1
  Sb  Sb13  1  0.20707091  0.26871075  0.25000000  1
  Sb  Sb14  1  0.79292909  0.73128925  0.75000000  1
  Sb  Sb15  1  0.29292909  0.76871075  0.25000000  1
  Sb  Sb16  1  0.30224542  0.24104928  0.90986271  1
  Sb  Sb17  1  0.69775458  0.75895072  0.40986271  1
  Sb  Sb18  1  0.19775458  0.74104928  0.59013729  1
  Sb  Sb19  1  0.19775458  0.74104928  0.90986271  1
  Sb  Sb20  1  0.80224542  0.25895072  0.40986271  1
  Sb  Sb21  1  0.30224542  0.24104928  0.59013729  1
  Sb  Sb22  1  0.77003435  0.51287303  0.90986317  1
  Sb  Sb23  1  0.69775458  0.75895072  0.09013729  1
loop_
_geom_bond_atom_site_label_1
_geom_bond_atom_site_label_2
_geom_bond_distance
_geom_bond_site_symmetry_2
Ba0 Sb5 3.511369 1_565
Ba0 Sb2 3.511369 1_565
Ba0 Ga3 3.546091 1_565
Ba0 Ga0 3.546091 1_565
Ba0 Sb14 3.607094 1_555
Ba0 Sb8 3.623943 1_665
Ba0 Sb12 3.631758 1_565
Ba0 Sb8 3.666480 1_565
Ba1 Sb3 3.511369 1_555
Ba1 Sb4 3.511369 1_555
Ba1 Ga1 3.546091 1_555
Ba1 Ga4 3.546091 1_555
Ba1 Sb15 3.607094 1_555
Ba1 Sb9 3.623943 1_555
Ba1 Sb13 3.631758 1_555
Ba1 Sb9 3.666480 1_455
Ba2 Sb7 3.511369 1_555
Ba2 Sb22 3.511369 1_555
Ba2 Ga7 3.546091 1_555
Ba2 Ga5 3.546091 1_555
Ba2 Sb12 3.607094 1_555
Ba2 Sb10 3.623943 1_555
Ba2 Sb14 3.631758 1_555
Ba2 Sb10 3.666480 1_655
Ba3 Sb6 3.511369 1_545
Ba3 Sb1 3.511369 1_545
Ba3 Ga6 3.546091 1_545
Ba3 Ga2 3.546091 1_545
Ba3 Sb13 3.607094 1_555
Ba3 Sb11 3.623943 1_445
Ba3 Sb15 3.631758 1_545
Ba3 Sb11 3.666480 1_545
Ba4 Sb21 3.516926 1_555
Ba4 Sb16 3.516926 1_555
Ba4 Ga3 3.544786 1_555
Ba4 Ga0 3.544786 1_555
Ba4 Sb12 3.583522 1_455
Ba4 Sb8 3.611954 1_555
Ba4 Sb10 3.632366 1_555
Ba4 Sb12 3.698839 1_555
Ba5 Sb0 3.516926 1_555
Ba5 Sb20 3.516926 1_555
Ba5 Ga1 3.544786 1_655
Ba5 Ga4 3.544786 1_655
Ba5 Sb13 3.583522 1_555
Ba5 Sb9 3.611954 1_555
Ba5 Sb11 3.632366 1_545
Ba5 Sb13 3.698839 1_655
Ba6 Sb18 3.516926 1_555
Ba6 Sb19 3.516926 1_555
Ba6 Ga7 3.544786 1_455
Ba6 Ga5 3.544786 1_455
Ba6 Sb14 3.583522 1_555
Ba6 Sb10 3.611954 1_555
Ba6 Sb8 3.632366 1_565
Ba6 Sb14 3.698839 1_455
Ba7 Sb23 3.516926 1_555
Ba7 Sb17 3.516926 1_555
Ba7 Ga2 3.544786 1_555
Ba7 Ga6 3.544786 1_555
Ba7 Sb15 3.583522 1_655
Ba7 Sb11 3.611954 1_555
Ba7 Sb9 3.632366 1_555
Ba7 Sb15 3.698839 1_555
Ba8 Ga6 3.399187 1_555
Ba8 Sb19 3.563227 1_554
Ba8 Sb3 3.596647 1_555
Ba8 Sb6 3.608720 1_555
Ba8 Sb23 3.615478 1_455
Ba8 Sb23 3.650660 1_555
Ba8 Sb15 3.804795 1_555
Ba9 Ga5 3.399187 1_555
Ba9 Sb23 3.563227 1_556
Ba9 Sb2 3.596647 1_565
Ba9 Sb22 3.608720 1_555
Ba9 Sb19 3.615478 1_555
Ba9 Sb19 3.650660 1_655
Ba9 Sb14 3.804795 1_555
Ba10 Ga4 3.399187 1_555
Ba10 Sb21 3.563227 1_555
Ba10 Sb1 3.596647 1_545
Ba10 Sb4 3.608720 1_555
Ba10 Sb20 3.615478 1_555
Ba10 Sb20 3.650660 1_455
Ba10 Sb13 3.804795 1_555
Ba11 Ga3 3.399187 1_555
Ba11 Sb20 3.563227 1_555
Ba11 Sb7 3.596647 1_555
Ba11 Sb5 3.608720 1_555
Ba11 Sb21 3.615478 1_655
Ba11 Sb21 3.650660 1_555
Ba11 Sb12 3.804795 1_555
Ba12 Ga0 3.399187 1_555
Ba12 Sb0 3.563227 1_556
Ba12 Sb22 3.596647 1_555
Ba12 Sb2 3.608720 1_555
Ba12 Sb16 3.615478 1_655
Ba12 Sb16 3.650660 1_555
Ba12 Sb12 3.804795 1_555
Ba13 Ga1 3.399187 1_555
Ba13 Sb16 3.563227 1_554
Ba13 Sb6 3.596647 1_545
Ba13 Sb3 3.608720 1_555
Ba13 Sb0 3.615478 1_555
Ba13 Sb0 3.650660 1_455
Ba13 Sb13 3.804795 1_555
Ba14 Ga7 3.399187 1_555
Ba14 Sb17 3.563227 1_555
Ba14 Sb5 3.596647 1_565
Ba14 Sb7 3.608720 1_555
Ba14 Sb18 3.615478 1_555
Ba14 Sb18 3.650660 1_655
Ba14 Sb14 3.804795 1_555
Ba15 Ga2 3.399187 1_555
Ba15 Sb18 3.563227 1_555
Ba15 Sb4 3.596647 1_555
Ba15 Sb1 3.608720 1_555
Ba15 Sb17 3.615478 1_455
Ba15 Sb17 3.650660 1_555
Ba15 Sb15 3.804795 1_555
Ba16 Ga6 3.382197 1_545
Ba16 Sb2 3.576989 1_554
Ba16 Sb0 3.582636 1_555
Ba16 Sb23 3.618711 1_545
Ba16 Sb6 3.631826 1_645
Ba16 Sb6 3.636149 1_545
Ba16 Sb11 3.791978 1_545
Ba17 Ga5 3.382197 1_455
Ba17 Sb3 3.576989 1_556
Ba17 Sb16 3.582636 1_555
Ba17 Sb19 3.618711 1_555
Ba17 Sb22 3.631826 1_555
Ba17 Sb22 3.636149 1_455
Ba17 Sb10 3.791978 1_555
Ba18 Ga4 3.382197 1_655
Ba18 Sb7 3.576989 1_555
Ba18 Sb17 3.582636 1_555
Ba18 Sb20 3.618711 1_555
Ba18 Sb4 3.631826 1_555
Ba18 Sb4 3.636149 1_655
Ba18 Sb9 3.791978 1_555
Ba19 Ga3 3.382197 1_565
Ba19 Sb1 3.576989 1_555
Ba19 Sb18 3.582636 1_555
Ba19 Sb21 3.618711 1_565
Ba19 Sb5 3.631826 1_465
Ba19 Sb5 3.636149 1_565
Ba19 Sb8 3.791978 1_565
Ba20 Ga0 3.382197 1_565
Ba20 Sb6 3.576989 1_556
Ba20 Sb19 3.582636 1_555
Ba20 Sb16 3.618711 1_565
Ba20 Sb2 3.631826 1_465
Ba20 Sb2 3.636149 1_565
Ba20 Sb8 3.791978 1_565
Ba21 Ga1 3.382197 1_655
Ba21 Sb22 3.576989 1_554
Ba21 Sb23 3.582636 1_555
Ba21 Sb0 3.618711 1_555
Ba21 Sb3 3.631826 1_555
Ba21 Sb3 3.636149 1_655
Ba21 Sb9 3.791978 1_555
Ba22 Ga7 3.382197 1_455
Ba22 Sb4 3.576989 1_555
Ba22 Sb21 3.582636 1_555
Ba22 Sb18 3.618711 1_555
Ba22 Sb7 3.631826 1_555
Ba22 Sb7 3.636149 1_455
Ba22 Sb10 3.791978 1_555
Ba23 Ga2 3.382197 1_545
Ba23 Sb5 3.576989 1_555
Ba23 Sb20 3.582636 1_555
Ba23 Sb17 3.618711 1_545
Ba23 Sb1 3.631826 1_645
Ba23 Sb1 3.636149 1_545
Ba23 Sb11 3.791978 1_545
Ga0 Sb16 2.733515 1_555
Ga0 Sb2 2.735221 1_555
Ga0 Sb12 2.755050 1_555
Ga0 Sb8 2.779481 1_555
Ga1 Sb0 2.733515 1_455
Ga1 Sb3 2.735221 1_555
Ga1 Sb13 2.755050 1_555
Ga1 Sb9 2.779481 1_455
Ga2 Sb17 2.733515 1_555
Ga2 Sb1 2.735221 1_555
Ga2 Sb15 2.755050 1_555
Ga2 Sb11 2.779481 1_555
Ga3 Sb21 2.733515 1_555
Ga3 Sb5 2.735221 1_555
Ga3 Sb12 2.755050 1_555
Ga3 Sb8 2.779481 1_555
Ga4 Sb20 2.733515 1_455
Ga4 Sb4 2.735221 1_555
Ga4 Sb13 2.755050 1_555
Ga4 Sb9 2.779481 1_455
Ga5 Sb19 2.733515 1_655
Ga5 Sb22 2.735221 1_555
Ga5 Sb14 2.755050 1_555
Ga5 Sb10 2.779481 1_655
Ga6 Sb23 2.733515 1_555
Ga6 Sb6 2.735221 1_555
Ga6 Sb15 2.755050 1_555
Ga6 Sb11 2.779481 1_555
Ga7 Sb18 2.733515 1_655
Ga7 Sb7 2.735221 1_555
Ga7 Sb14 2.755050 1_555
Ga7 Sb10 2.779481 1_655
