# generated using pymatgen
data_Ge3Ru2
_symmetry_space_group_name_H-M   'P 1'
_cell_length_a   5.72816865
_cell_length_b   9.25283982
_cell_length_c   11.46508853
_cell_angle_alpha   90.00000000
_cell_angle_beta   90.00000000
_cell_angle_gamma   90.00000000
_symmetry_Int_Tables_number   1
_chemical_formula_structural   Ge3Ru2
_chemical_formula_sum   'Ge24 Ru16'
_cell_volume   607.67063858
_cell_formula_units_Z   8
loop_
 _symmetry_equiv_pos_site_id
 _symmetry_equiv_pos_as_xyz
  1  'x, y, z'
loop_
 _atom_site_type_symbol
 _atom_site_label
 _atom_site_symmetry_multiplicity
 _atom_site_fract_x
 _atom_site_fract_y
 _atom_site_fract_z
 _atom_site_occupancy
  Ge  Ge0  1  0.59806776  0.10200165  0.63367669  1
  Ge  Ge1  1  0.09806776  0.39799835  0.86632331  1
  Ge  Ge2  1  0.90193224  0.10200165  0.36632331  1
  Ge  Ge3  1  0.40193224  0.39799835  0.13367669  1
  Ge  Ge4  1  0.40193224  0.89799835  0.36632331  1
  Ge  Ge5  1  0.90193224  0.60200165  0.13367669  1
  Ge  Ge6  1  0.09806776  0.89799835  0.63367669  1
  Ge  Ge7  1  0.59806776  0.60200165  0.86632331  1
  Ge  Ge8  1  0.91304199  0.06612180  0.82451363  1
  Ge  Ge9  1  0.41304199  0.43387820  0.67548637  1
  Ge  Ge10  1  0.58695801  0.06612180  0.17548637  1
  Ge  Ge11  1  0.08695801  0.43387820  0.32451363  1
  Ge  Ge12  1  0.08695801  0.93387820  0.17548637  1
  Ge  Ge13  1  0.58695801  0.56612180  0.32451363  1
  Ge  Ge14  1  0.41304199  0.93387820  0.82451363  1
  Ge  Ge15  1  0.91304199  0.56612180  0.67548637  1
  Ge  Ge16  1  0.54246347  0.71488343  0.57414450  1
  Ge  Ge17  1  0.04246347  0.78511657  0.92585550  1
  Ge  Ge18  1  0.95753653  0.71488343  0.42585550  1
  Ge  Ge19  1  0.45753653  0.78511657  0.07414450  1
  Ge  Ge20  1  0.45753653  0.28511657  0.42585550  1
  Ge  Ge21  1  0.95753653  0.21488343  0.07414450  1
  Ge  Ge22  1  0.04246347  0.28511657  0.57414450  1
  Ge  Ge23  1  0.54246347  0.21488343  0.92585550  1
  Ru  Ru0  1  0.75000000  0.92580924  0.50000000  1
  Ru  Ru1  1  0.25000000  0.57419076  0.00000000  1
  Ru  Ru2  1  0.25000000  0.07419076  0.50000000  1
  Ru  Ru3  1  0.75000000  0.42580924  0.00000000  1
  Ru  Ru4  1  0.75000000  0.45716249  0.50000000  1
  Ru  Ru5  1  0.25000000  0.04283751  0.00000000  1
  Ru  Ru6  1  0.25000000  0.54283751  0.50000000  1
  Ru  Ru7  1  0.75000000  0.95716249  0.00000000  1
  Ru  Ru8  1  0.75943274  0.31233878  0.74609989  1
  Ru  Ru9  1  0.25943274  0.18766122  0.75390011  1
  Ru  Ru10  1  0.74056726  0.31233878  0.25390011  1
  Ru  Ru11  1  0.24056726  0.18766122  0.24609989  1
  Ru  Ru12  1  0.24056726  0.68766122  0.25390011  1
  Ru  Ru13  1  0.74056726  0.81233878  0.24609989  1
  Ru  Ru14  1  0.25943274  0.68766122  0.74609989  1
  Ru  Ru15  1  0.75943274  0.81233878  0.75390011  1
loop_
_geom_bond_atom_site_label_1
_geom_bond_atom_site_label_2
_geom_bond_distance
_geom_bond_site_symmetry_2
Ge0 Ru0 2.400861 1_545
Ge0 Ru9 2.508142 1_555
Ge0 Ru8 2.510678 1_555
Ge0 Ru2 2.527910 1_555
Ge1 Ru1 2.400861 1_556
Ge1 Ru8 2.508142 1_455
Ge1 Ru9 2.510678 1_555
Ge1 Ru3 2.527910 1_456
Ge2 Ru0 2.400861 1_545
Ge2 Ru11 2.508142 1_655
Ge2 Ru10 2.510678 1_555
Ge2 Ru2 2.527910 1_655
Ge3 Ru1 2.400861 1_555
Ge3 Ru10 2.508142 1_555
Ge3 Ru11 2.510678 1_555
Ge3 Ru3 2.527910 1_555
Ge4 Ru2 2.400861 1_565
Ge4 Ru13 2.508142 1_555
Ge4 Ru12 2.510678 1_555
Ge4 Ru0 2.527910 1_555
Ge5 Ru3 2.400861 1_555
Ge5 Ru12 2.508142 1_655
Ge5 Ru13 2.510678 1_555
Ge5 Ru1 2.527910 1_655
Ge6 Ru2 2.400861 1_565
Ge6 Ru15 2.508142 1_455
Ge6 Ru14 2.510678 1_555
Ge6 Ru0 2.527910 1_455
Ge7 Ru3 2.400861 1_556
Ge7 Ru14 2.508142 1_555
Ge7 Ru15 2.510678 1_555
Ge7 Ru1 2.527910 1_556
Ge8 Ru9 2.420148 1_655
Ge8 Ru7 2.436529 1_546
Ge8 Ru8 2.602438 1_555
Ge8 Ru15 2.635103 1_545
Ge8 Ru5 2.796411 1_656
Ge9 Ru8 2.420148 1_555
Ge9 Ru6 2.436529 1_555
Ge9 Ru9 2.602438 1_555
Ge9 Ru14 2.635103 1_555
Ge9 Ru4 2.796411 1_555
Ge10 Ru11 2.420148 1_555
Ge10 Ru7 2.436529 1_545
Ge10 Ru10 2.602438 1_555
Ge10 Ru13 2.635103 1_545
Ge10 Ru5 2.796411 1_555
Ge11 Ru10 2.420148 1_455
Ge11 Ru6 2.436529 1_555
Ge11 Ru11 2.602438 1_555
Ge11 Ru12 2.635103 1_555
Ge11 Ru4 2.796411 1_455
Ge12 Ru13 2.420148 1_455
Ge12 Ru5 2.436529 1_565
Ge12 Ru12 2.602438 1_555
Ge12 Ru11 2.635103 1_565
Ge12 Ru7 2.796411 1_455
Ge13 Ru12 2.420148 1_555
Ge13 Ru4 2.436529 1_555
Ge13 Ru13 2.602438 1_555
Ge13 Ru10 2.635103 1_555
Ge13 Ru6 2.796411 1_555
Ge14 Ru15 2.420148 1_555
Ge14 Ru5 2.436529 1_566
Ge14 Ru14 2.602438 1_555
Ge14 Ru9 2.635103 1_565
Ge14 Ru7 2.796411 1_556
Ge15 Ru14 2.420148 1_655
Ge15 Ru4 2.436529 1_555
Ge15 Ru15 2.602438 1_555
Ge15 Ru8 2.635103 1_555
Ge15 Ru6 2.796411 1_655
Ge16 Ru0 2.438210 1_555
Ge16 Ru6 2.462392 1_555
Ge16 Ru14 2.564885 1_555
Ge16 Ru15 2.570047 1_555
Ge16 Ru4 2.796862 1_555
Ge17 Ru1 2.438210 1_556
Ge17 Ru7 2.462392 1_456
Ge17 Ru15 2.564885 1_455
Ge17 Ru14 2.570047 1_555
Ge17 Ru5 2.796862 1_566
Ge18 Ru0 2.438210 1_555
Ge18 Ru6 2.462392 1_655
Ge18 Ru12 2.564885 1_655
Ge18 Ru13 2.570047 1_555
Ge18 Ru4 2.796862 1_555
Ge19 Ru1 2.438210 1_555
Ge19 Ru7 2.462392 1_555
Ge19 Ru13 2.564885 1_555
Ge19 Ru12 2.570047 1_555
Ge19 Ru5 2.796862 1_565
Ge20 Ru2 2.438210 1_555
Ge20 Ru4 2.462392 1_555
Ge20 Ru10 2.564885 1_555
Ge20 Ru11 2.570047 1_555
Ge20 Ru6 2.796862 1_555
Ge21 Ru3 2.438210 1_555
Ge21 Ru5 2.462392 1_655
Ge21 Ru11 2.564885 1_655
Ge21 Ru10 2.570047 1_555
Ge21 Ru7 2.796862 1_545
Ge22 Ru2 2.438210 1_555
Ge22 Ru4 2.462392 1_455
Ge22 Ru8 2.564885 1_455
Ge22 Ru9 2.570047 1_555
Ge22 Ru6 2.796862 1_555
Ge23 Ru3 2.438210 1_556
Ge23 Ru5 2.462392 1_556
Ge23 Ru9 2.564885 1_555
Ge23 Ru8 2.570047 1_555
Ge23 Ru7 2.796862 1_546
