# generated using pymatgen
data_As2Pt
_symmetry_space_group_name_H-M   'P 1'
_cell_length_a   6.00835033
_cell_length_b   6.00835033
_cell_length_c   6.00835033
_cell_angle_alpha   90.00000000
_cell_angle_beta   90.00000000
_cell_angle_gamma   90.00000000
_symmetry_Int_Tables_number   1
_chemical_formula_structural   As2Pt
_chemical_formula_sum   'As8 Pt4'
_cell_volume   216.90309133
_cell_formula_units_Z   4
loop_
 _symmetry_equiv_pos_site_id
 _symmetry_equiv_pos_as_xyz
  1  'x, y, z'
loop_
 _atom_site_type_symbol
 _atom_site_label
 _atom_site_symmetry_multiplicity
 _atom_site_fract_x
 _atom_site_fract_y
 _atom_site_fract_z
 _atom_site_occupancy
  As  As0  1  0.38408976  0.38408976  0.38408976  1
  As  As1  1  0.11591024  0.61591024  0.88408976  1
  As  As2  1  0.88408976  0.11591024  0.61591024  1
  As  As3  1  0.61591024  0.88408976  0.11591024  1
  As  As4  1  0.61591024  0.61591024  0.61591024  1
  As  As5  1  0.88408976  0.38408976  0.11591024  1
  As  As6  1  0.11591024  0.88408976  0.38408976  1
  As  As7  1  0.38408976  0.11591024  0.88408976  1
  Pt  Pt0  1  0.00000000  -0.00000000  -0.00000000  1
  Pt  Pt1  1  0.50000000  -0.00000000  0.50000000  1
  Pt  Pt2  1  0.50000000  0.50000000  0.00000000  1
  Pt  Pt3  1  0.00000000  0.50000000  0.50000000  1
loop_
_geom_bond_atom_site_label_1
_geom_bond_atom_site_label_2
_geom_bond_distance
_geom_bond_site_symmetry_2
As0 As4 2.412502 1_555
As0 Pt1 2.509127 1_555
As0 Pt2 2.509127 1_555
As0 Pt3 2.509127 1_555
As1 As5 2.412502 1_456
As1 Pt0 2.509127 1_566
As1 Pt3 2.509127 1_555
As1 Pt2 2.509127 1_556
As2 As6 2.412502 1_645
As2 Pt1 2.509127 1_555
As2 Pt3 2.509127 1_655
As2 Pt0 2.509127 1_656
As3 As7 2.412502 1_564
As3 Pt0 2.509127 1_665
As3 Pt2 2.509127 1_555
As3 Pt1 2.509127 1_565
As4 Pt3 2.509127 1_655
As4 Pt1 2.509127 1_565
As4 Pt2 2.509127 1_556
As5 Pt2 2.509127 1_555
As5 Pt3 2.509127 1_655
As5 Pt0 2.509127 1_655
As6 Pt3 2.509127 1_555
As6 Pt0 2.509127 1_565
As6 Pt1 2.509127 1_565
As7 Pt1 2.509127 1_555
As7 Pt0 2.509127 1_556
As7 Pt2 2.509127 1_556
