# generated using pymatgen
data_Na14Zr2Zn6Si5S7O48
_symmetry_space_group_name_H-M   'P 1'
_cell_length_a   18.40173552
_cell_length_b   9.20368174
_cell_length_c   22.39455979
_cell_angle_alpha   90.11923393
_cell_angle_beta   89.94943483
_cell_angle_gamma   120.16560462
_symmetry_Int_Tables_number   1
_chemical_formula_structural   Na14Zr2Zn6Si5S7O48
_chemical_formula_sum   'Na42 Zr6 Zn18 Si15 S21 O144'
_cell_volume   3279.18141096
_cell_formula_units_Z   3
loop_
 _symmetry_equiv_pos_site_id
 _symmetry_equiv_pos_as_xyz
  1  'x, y, z'
loop_
 _atom_site_type_symbol
 _atom_site_label
 _atom_site_symmetry_multiplicity
 _atom_site_fract_x
 _atom_site_fract_y
 _atom_site_fract_z
 _atom_site_occupancy
  Na  Na0  1  0.81128303  0.00469141  0.25078067  1
  Na  Na1  1  0.68901345  0.35804769  0.24619434  1
  Na  Na2  1  0.50359850  0.64063422  0.24762140  1
  Na  Na3  1  0.30917746  0.61715198  0.75149527  1
  Na  Na4  1  0.00302964  0.37476112  0.74672087  1
  Na  Na5  1  0.17966516  0.00182957  0.74554422  1
  Na  Na6  1  0.15279765  0.33117949  0.57686962  1
  Na  Na7  1  0.66506614  0.35929028  0.58169303  1
  Na  Na8  1  0.01622734  0.69678414  0.57553970  1
  Na  Na9  1  0.52418250  0.68827841  0.58541323  1
  Na  Na10  1  0.32460824  0.97994260  0.58262882  1
  Na  Na11  1  0.82485739  0.95533399  0.58585092  1
  Na  Na12  1  0.16014296  0.96339159  0.07706863  1
  Na  Na13  1  0.65736335  0.97894567  0.07196611  1
  Na  Na14  1  0.32101850  0.69244935  0.08144821  1
  Na  Na15  1  0.82665477  0.67212044  0.07850091  1
  Na  Na16  1  0.02412922  0.36099199  0.08199712  1
  Na  Na17  1  0.51614902  0.33557769  0.06913503  1
  Na  Na18  1  0.48609731  0.66617801  0.91865323  1
  Na  Na19  1  0.98082043  0.66306258  0.91377738  1
  Na  Na20  1  0.35398340  0.04539557  0.92179631  1
  Na  Na21  1  0.84806807  0.04214687  0.91321945  1
  Na  Na22  1  0.16763849  0.29470011  0.91490223  1
  Na  Na23  1  0.66305998  0.28902828  0.92466829  1
  Na  Na24  1  0.48082494  0.30448268  0.42612684  1
  Na  Na25  1  0.98697187  0.30818072  0.42235151  1
  Na  Na26  1  0.16124470  0.03428017  0.42832444  1
  Na  Na27  1  0.67148973  0.04522435  0.42106262  1
  Na  Na28  1  0.34465691  0.65140208  0.41846933  1
  Na  Na29  1  0.85524603  0.66142570  0.42505718  1
  Na  Na30  1  0.00418069  0.98918221  0.49805575  1
  Na  Na31  1  0.50617854  0.01310285  0.50021191  1
  Na  Na32  1  0.00559287  0.99915172  0.99418984  1
  Na  Na33  1  0.50391025  0.01788371  0.99170957  1
  Na  Na34  1  0.33649344  0.33175102  0.83076189  1
  Na  Na35  1  0.82991727  0.33465776  0.82605868  1
  Na  Na36  1  0.32056916  0.32464390  0.33307875  1
  Na  Na37  1  0.83945258  0.34323127  0.33275884  1
  Na  Na38  1  0.16727620  0.67019390  0.15629064  1
  Na  Na39  1  0.66773357  0.66236202  0.16364872  1
  Na  Na40  1  0.16048322  0.67177218  0.66945065  1
  Na  Na41  1  0.67016483  0.66739485  0.65807343  1
  Zr  Zr0  1  0.00450681  0.99023076  0.65164095  1
  Zr  Zr1  1  0.50586029  0.01585088  0.64645827  1
  Zr  Zr2  1  0.00568767  0.99617125  0.14628590  1
  Zr  Zr3  1  0.50383403  0.00678554  0.14867738  1
  Zr  Zr4  1  0.16149678  0.65215100  0.31711126  1
  Zr  Zr5  1  0.66241692  0.67150869  0.81754618  1
  Zn  Zn0  1  0.00948776  0.00375235  0.35654356  1
  Zn  Zn1  1  0.50660500  0.00497434  0.33931988  1
  Zn  Zn2  1  0.00893051  0.99207246  0.82802444  1
  Zn  Zn3  1  0.50833240  0.01365529  0.85566435  1
  Zn  Zn4  1  0.32742583  0.31089417  0.67808989  1
  Zn  Zn5  1  0.82968086  0.34934282  0.67933793  1
  Zn  Zn6  1  0.31472435  0.30466248  0.16881992  1
  Zn  Zn7  1  0.82895427  0.34357979  0.17638069  1
  Zn  Zn8  1  0.33175913  0.31133543  0.98885096  1
  Zn  Zn9  1  0.82439585  0.33427950  0.98874651  1
  Zn  Zn10  1  0.32469078  0.31717465  0.49206395  1
  Zn  Zn11  1  0.83371051  0.35123172  0.49431226  1
  Zn  Zn12  1  0.16597264  0.66799321  0.02366633  1
  Zn  Zn13  1  0.65846728  0.64919758  0.00723153  1
  Zn  Zn14  1  0.15536272  0.66370204  0.51040117  1
  Zn  Zn15  1  0.66654200  0.66795182  0.52635749  1
  Zn  Zn16  1  0.66610551  0.68103352  0.31796574  1
  Zn  Zn17  1  0.15698793  0.65103720  0.81154389  1
  Si  Si0  1  0.65320792  0.00111436  0.25230782  1
  Si  Si1  1  0.15460278  0.30383383  0.75136941  1
  Si  Si2  1  0.99458292  0.68451437  0.75464797  1
  Si  Si3  1  0.47544600  0.33627060  0.58142588  1
  Si  Si4  1  0.18384707  0.02416678  0.58236561  1
  Si  Si5  1  0.69257513  0.04865202  0.58181846  1
  Si  Si6  1  0.83445857  0.63551330  0.58169976  1
  Si  Si7  1  0.97552815  0.61411348  0.08145906  1
  Si  Si8  1  0.33474041  0.03624917  0.08317524  1
  Si  Si9  1  0.18944924  0.33917176  0.08003610  1
  Si  Si10  1  0.68498385  0.34502754  0.08427746  1
  Si  Si11  1  0.51212456  0.36354559  0.91851173  1
  Si  Si12  1  0.66953631  0.96849069  0.92256274  1
  Si  Si13  1  0.16959905  0.37168927  0.42193536  1
  Si  Si14  1  0.01190352  0.66076306  0.41807828  1
  S  S0  1  0.15103129  0.00235531  0.25256582  1
  S  S1  1  0.35223264  0.70210679  0.25194789  1
  S  S2  1  0.85335428  0.70897941  0.25346264  1
  S  S3  1  0.99912268  0.28952264  0.25158886  1
  S  S4  1  0.49856424  0.29808173  0.25341242  1
  S  S5  1  0.64976437  0.29913527  0.75294254  1
  S  S6  1  0.49957674  0.70915578  0.75156665  1
  S  S7  1  0.35550473  0.00050873  0.75341093  1
  S  S8  1  0.85108517  0.99781324  0.75201686  1
  S  S9  1  0.98120327  0.33084070  0.58409819  1
  S  S10  1  0.33457036  0.63276453  0.58427835  1
  S  S11  1  0.48057944  0.62852982  0.08645087  1
  S  S12  1  0.83440853  0.03601228  0.08545684  1
  S  S13  1  0.31218796  0.66706951  0.91566356  1
  S  S14  1  0.81595545  0.67397263  0.91708771  1
  S  S15  1  0.01836867  0.36714067  0.91793359  1
  S  S16  1  0.16557811  0.95649566  0.91625355  1
  S  S17  1  0.31862241  0.96104267  0.41418824  1
  S  S18  1  0.81335729  0.95985817  0.41529132  1
  S  S19  1  0.66262411  0.37345086  0.41281149  1
  S  S20  1  0.51859334  0.66942544  0.41543048  1
  O  O0  1  0.10734679  0.01577732  0.30529950  1
  O  O1  1  0.61119416  0.03569844  0.31125287  1
  O  O2  1  0.40238911  0.78861112  0.30657843  1
  O  O3  1  0.90302343  0.79939962  0.30610818  1
  O  O4  1  0.48592780  0.19476775  0.30742109  1
  O  O5  1  0.99160389  0.18879376  0.30484435  1
  O  O6  1  0.11260942  0.19182226  0.81207265  1
  O  O7  1  0.60507610  0.19829617  0.80608579  1
  O  O8  1  0.49207565  0.79505947  0.80518132  1
  O  O9  1  0.97951240  0.76536398  0.81531617  1
  O  O10  1  0.40619757  0.01260955  0.80618733  1
  O  O11  1  0.90195975  0.01585659  0.80669698  1
  O  O12  1  0.39811262  0.98079032  0.69812069  1
  O  O13  1  0.89340304  0.97849891  0.69789652  1
  O  O14  1  0.08946268  0.20728959  0.69449248  1
  O  O15  1  0.59613315  0.21491850  0.69768895  1
  O  O16  1  0.01001707  0.81562262  0.69781743  1
  O  O17  1  0.50928795  0.81185779  0.69656597  1
  O  O18  1  0.39475189  0.80683194  0.19796534  1
  O  O19  1  0.89501163  0.81366390  0.19811138  1
  O  O20  1  0.00855302  0.20598354  0.19643728  1
  O  O21  1  0.50779584  0.20760142  0.19995477  1
  O  O22  1  0.09873594  0.98175739  0.19702371  1
  O  O23  1  0.58779948  0.96890106  0.19541034  1
  O  O24  1  0.43253370  0.37653282  0.63696775  1
  O  O25  1  0.94136525  0.35238951  0.63755754  1
  O  O26  1  0.24004972  0.10234369  0.64236398  1
  O  O27  1  0.75413390  0.13487034  0.63766897  1
  O  O28  1  0.32301934  0.53119317  0.63796267  1
  O  O29  1  0.81277719  0.50943966  0.63670940  1
  O  O30  1  0.44078332  0.52927104  0.14089722  1
  O  O31  1  0.93483039  0.49108771  0.13826753  1
  O  O32  1  0.31954307  0.11950267  0.14193174  1
  O  O33  1  0.82232284  0.11302015  0.13958313  1
  O  O34  1  0.24871095  0.38854907  0.13879283  1
  O  O35  1  0.73864260  0.37509439  0.14538990  1
  O  O36  1  0.22484779  0.28906831  0.02117810  1
  O  O37  1  0.71866688  0.29036111  0.02585092  1
  O  O38  1  0.43067033  0.55288608  0.03169748  1
  O  O39  1  0.91830979  0.54911818  0.02069966  1
  O  O40  1  0.36218443  0.15354616  0.02330022  1
  O  O41  1  0.85183086  0.13994180  0.03135510  1
  O  O42  1  0.21880291  0.14338713  0.52300168  1
  O  O43  1  0.72361823  0.15794842  0.51935912  1
  O  O44  1  0.35283895  0.56445437  0.52968186  1
  O  O45  1  0.86080290  0.57370138  0.52059519  1
  O  O46  1  0.42035612  0.29062920  0.51935462  1
  O  O47  1  0.93196751  0.30777986  0.52849554  1
  O  O48  1  0.27386306  0.69238923  0.97022531  1
  O  O49  1  0.77718444  0.69182100  0.97289161  1
  O  O50  1  0.07121224  0.44845442  0.97153431  1
  O  O51  1  0.57027542  0.43510883  0.97797425  1
  O  O52  1  0.15775095  0.85880063  0.97105718  1
  O  O53  1  0.65479964  0.85156963  0.98139961  1
  O  O54  1  0.28298543  0.86536077  0.46990776  1
  O  O55  1  0.77198357  0.85303523  0.46798366  1
  O  O56  1  0.15673029  0.46217601  0.48042117  1
  O  O57  1  0.65406954  0.45535420  0.46724966  1
  O  O58  1  0.07129058  0.70722397  0.47673602  1
  O  O59  1  0.57198775  0.69453186  0.46826343  1
  O  O60  1  0.06802042  0.63966524  0.36185242  1
  O  O61  1  0.55752475  0.64656525  0.35995668  1
  O  O62  1  0.26183481  0.86812506  0.36240169  1
  O  O63  1  0.76254697  0.88127753  0.35959154  1
  O  O64  1  0.18362071  0.50001512  0.36367275  1
  O  O65  1  0.67083334  0.47419509  0.35809378  1
  O  O66  1  0.05847751  0.46814258  0.86327210  1
  O  O67  1  0.56872945  0.49717021  0.86332210  1
  O  O68  1  0.17408382  0.87291419  0.86212187  1
  O  O69  1  0.68311398  0.86646218  0.86498512  1
  O  O70  1  0.26057878  0.64662069  0.86164752  1
  O  O71  1  0.75999261  0.65424367  0.86487003  1
  O  O72  1  0.00076724  0.82548036  0.40973044  1
  O  O73  1  0.50826604  0.82167261  0.41150220  1
  O  O74  1  0.40362613  0.97751278  0.40665284  1
  O  O75  1  0.89847439  0.97869828  0.41016619  1
  O  O76  1  0.08302199  0.18967791  0.41329165  1
  O  O77  1  0.58344001  0.20182470  0.41077218  1
  O  O78  1  0.00737178  0.19452330  0.91386927  1
  O  O79  1  0.50086189  0.17641278  0.91013830  1
  O  O80  1  0.08861812  0.97382360  0.91487295  1
  O  O81  1  0.58306224  0.97761179  0.91356805  1
  O  O82  1  0.39870866  0.81869111  0.91106126  1
  O  O83  1  0.89940446  0.82879273  0.91207568  1
  O  O84  1  0.48351040  0.15989294  0.59147624  1
  O  O85  1  0.98850351  0.17483051  0.58815167  1
  O  O86  1  0.08971938  0.01045841  0.58869539  1
  O  O87  1  0.59363976  0.02539936  0.59135179  1
  O  O88  1  0.41301565  0.80765763  0.59127082  1
  O  O89  1  0.91641981  0.82925225  0.59048636  1
  O  O90  1  0.48733583  0.80072389  0.09042531  1
  O  O91  1  0.98420815  0.80744983  0.09253938  1
  O  O92  1  0.41647244  0.00584156  0.09265435  1
  O  O93  1  0.91228029  0.01726127  0.09253526  1
  O  O94  1  0.09272307  0.16309287  0.09107416  1
  O  O95  1  0.58910978  0.17161888  0.09190064  1
  O  O96  1  0.34648588  0.15021997  0.74951159  1
  O  O97  1  0.84302077  0.14709432  0.74766201  1
  O  O98  1  0.24783973  0.31982563  0.74405863  1
  O  O99  1  0.73085374  0.31152905  0.74814525  1
  O  O100  1  0.42400659  0.54308412  0.74690969  1
  O  O101  1  0.91764387  0.49279083  0.74530822  1
  O  O102  1  0.34845850  0.53870029  0.24805935  1
  O  O103  1  0.84445318  0.54091194  0.24958114  1
  O  O104  1  0.42835094  0.32947688  0.24700955  1
  O  O105  1  0.92375653  0.30484965  0.24704482  1
  O  O106  1  0.23405637  0.15424837  0.24777271  1
  O  O107  1  0.74711657  0.16786894  0.24470628  1
  O  O108  1  0.32094601  0.51456301  0.91964561  1
  O  O109  1  0.82299198  0.52038234  0.91634699  1
  O  O110  1  0.42236300  0.36225659  0.91834315  1
  O  O111  1  0.93385618  0.35203832  0.92208288  1
  O  O112  1  0.24221367  0.12841884  0.91775444  1
  O  O113  1  0.75551772  0.15491442  0.92192960  1
  O  O114  1  0.32629896  0.12929228  0.41402834  1
  O  O115  1  0.82168425  0.12868258  0.41949418  1
  O  O116  1  0.25540643  0.35668518  0.42092283  1
  O  O117  1  0.73753692  0.35260045  0.41417737  1
  O  O118  1  0.43392124  0.51649855  0.41952818  1
  O  O119  1  0.92222361  0.48251944  0.41802178  1
  O  O120  1  0.17044860  0.49341801  0.07518334  1
  O  O121  1  0.67474685  0.51189599  0.07824807  1
  O  O122  1  0.07288532  0.65688742  0.07687040  1
  O  O123  1  0.56703637  0.65629676  0.08313710  1
  O  O124  1  0.25119158  0.85019109  0.07771743  1
  O  O125  1  0.76092011  0.86484237  0.07975611  1
  O  O126  1  0.17431075  0.83650808  0.57682798  1
  O  O127  1  0.67178904  0.85359317  0.57735404  1
  O  O128  1  0.26165536  0.65670750  0.57829223  1
  O  O129  1  0.75144077  0.65719291  0.57648063  1
  O  O130  1  0.06774147  0.47980292  0.58079605  1
  O  O131  1  0.57274901  0.48989319  0.57679529  1
  O  O132  1  0.15780818  0.84705846  0.25446669  1
  O  O133  1  0.65678578  0.82406956  0.25381766  1
  O  O134  1  0.26756326  0.68601827  0.25433680  1
  O  O135  1  0.76737481  0.69116270  0.25407858  1
  O  O136  1  0.07776750  0.46035761  0.25333617  1
  O  O137  1  0.58009379  0.46178910  0.25509351  1
  O  O138  1  0.16297496  0.49043883  0.75270476  1
  O  O139  1  0.65610364  0.46808774  0.75511166  1
  O  O140  1  0.08652182  0.69178912  0.75409633  1
  O  O141  1  0.57798325  0.69583499  0.75376976  1
  O  O142  1  0.27125206  0.84533066  0.75414701  1
  O  O143  1  0.76638549  0.83988609  0.75491646  1
loop_
_geom_bond_atom_site_label_1
_geom_bond_atom_site_label_2
_geom_bond_distance
_geom_bond_site_symmetry_2
Na0 O107 2.334860 1_555
Na0 O133 2.470060 1_545
Na0 O105 2.485316 1_555
Na0 O135 2.577337 1_545
Na0 O63 2.648817 1_545
Na0 O33 2.653752 1_555
Na1 O35 2.410119 1_555
Na1 O107 2.467493 1_555
Na1 O103 2.486303 1_555
Na1 O137 2.624962 1_555
Na1 O135 2.658057 1_555
Na1 O65 2.807340 1_555
Na2 O133 2.456136 1_555
Na2 O104 2.476577 1_555
Na2 O102 2.517670 1_555
Na2 O30 2.627347 1_555
Na2 O137 2.655010 1_555
Na2 O61 2.695524 1_555
Na2 O23 2.864045 1_555
Na3 O138 2.333597 1_555
Na3 O98 2.384199 1_555
Na3 O142 2.524541 1_555
Na3 O100 2.527302 1_555
Na3 O70 2.682457 1_555
Na3 O28 2.710748 1_555
Na4 O101 2.316356 1_455
Na4 O140 2.528751 1_555
Na4 O138 2.581695 1_555
Na4 O97 2.619213 1_455
Na4 O25 2.659772 1_455
Na4 O66 2.776056 1_555
Na4 O14 2.954080 1_555
Na5 O140 2.490647 1_545
Na5 O26 2.530025 1_555
Na5 O98 2.539885 1_555
Na5 O96 2.661433 1_555
Na5 O142 2.719118 1_545
Na5 O68 2.850272 1_545
Na5 O16 2.906298 1_545
Na5 O6 2.992402 1_555
Na6 O56 2.459057 1_555
Na6 O130 2.545502 1_555
Na6 O86 2.586492 1_555
Na6 O85 2.627311 1_455
Na6 O128 2.637829 1_555
Na6 O42 2.831326 1_555
Na6 O14 2.875507 1_555
Na7 O129 2.383002 1_555
Na7 O131 2.529011 1_555
Na7 O29 2.653255 1_555
Na7 O87 2.675969 1_555
Na7 O57 2.753418 1_555
Na7 O84 2.901079 1_555
Na7 O15 2.904683 1_555
Na7 O43 2.921762 1_555
Na8 O58 2.414724 1_555
Na8 O86 2.514682 1_565
Na8 O126 2.521362 1_555
Na8 O130 2.608506 1_555
Na8 O89 2.686879 1_455
Na8 O45 2.778779 1_455
Na8 O16 2.969940 1_555
Na9 O127 2.360562 1_555
Na9 O131 2.409973 1_555
Na9 O87 2.700260 1_565
Na9 O24 2.748968 1_555
Na9 O59 2.757844 1_555
Na9 O88 2.768925 1_555
Na9 O17 2.804511 1_555
Na10 O126 2.395712 1_555
Na10 O84 2.542647 1_565
Na10 O128 2.595614 1_555
Na10 O26 2.689164 1_565
Na10 O54 2.692884 1_555
Na10 O88 2.791552 1_555
Na10 O46 2.870171 1_565
Na10 O12 2.917963 1_555
Na11 O129 2.381422 1_555
Na11 O89 2.482345 1_555
Na11 O127 2.489262 1_555
Na11 O85 2.652930 1_565
Na11 O13 2.768703 1_555
Na11 O55 2.806080 1_555
Na11 O27 2.814492 1_565
Na12 O124 2.376395 1_555
Na12 O122 2.446185 1_555
Na12 O52 2.552043 1_554
Na12 O94 2.702660 1_565
Na12 O91 2.826949 1_455
Na12 O36 2.897420 1_565
Na12 O32 2.922593 1_565
Na12 O22 2.950696 1_555
Na13 O53 2.329131 1_554
Na13 O123 2.585619 1_555
Na13 O125 2.603322 1_555
Na13 O95 2.674975 1_565
Na13 O37 2.704595 1_565
Na13 O90 2.737438 1_555
Na14 O124 2.375138 1_555
Na14 O120 2.439469 1_555
Na14 O92 2.524652 1_565
Na14 O48 2.638243 1_554
Na14 O90 2.708397 1_555
Na14 O34 2.741265 1_555
Na14 O18 2.883960 1_555
Na15 O121 2.417829 1_555
Na15 O91 2.535088 1_555
Na15 O49 2.574226 1_554
Na15 O125 2.601200 1_555
Na15 O93 2.763793 1_565
Na15 O39 2.776828 1_555
Na15 O35 2.811281 1_555
Na15 O19 2.966300 1_555
Na16 O120 2.336761 1_555
Na16 O122 2.404203 1_555
Na16 O50 2.611848 1_554
Na16 O94 2.695299 1_555
Na16 O31 2.772978 1_455
Na16 O93 2.785421 1_455
Na16 O20 2.878988 1_555
Na17 O51 2.255255 1_554
Na17 O95 2.525912 1_555
Na17 O121 2.536238 1_555
Na17 O123 2.628124 1_555
Na17 O40 2.667418 1_555
Na17 O92 2.694875 1_555
Na18 O110 2.429563 1_555
Na18 O81 2.504718 1_555
Na18 O82 2.618254 1_555
Na18 O108 2.630905 1_555
Na18 O38 2.733864 1_556
Na18 O8 2.785229 1_555
Na18 O67 2.938171 1_555
Na18 O53 3.032744 1_555
Na19 O9 2.404290 1_555
Na19 O109 2.515922 1_555
Na19 O80 2.532549 1_655
Na19 O111 2.547829 1_555
Na19 O83 2.621007 1_555
Na19 O39 2.636235 1_556
Na20 O79 2.356276 1_555
Na20 O40 2.453758 1_556
Na20 O112 2.530298 1_555
Na20 O110 2.531181 1_555
Na20 O82 2.610002 1_545
Na20 O10 2.828600 1_555
Na21 O113 2.406397 1_555
Na21 O111 2.477780 1_555
Na21 O78 2.535500 1_655
Na21 O83 2.571577 1_545
Na21 O11 2.639569 1_555
Na21 O41 2.782424 1_556
Na21 O69 2.839198 1_545
Na22 O6 2.501276 1_555
Na22 O108 2.515387 1_555
Na22 O112 2.518075 1_555
Na22 O80 2.553481 1_545
Na22 O78 2.610671 1_555
Na22 O36 2.614413 1_556
Na23 O37 2.484566 1_556
Na23 O81 2.490206 1_545
Na23 O113 2.555808 1_555
Na23 O109 2.633024 1_555
Na23 O79 2.641967 1_555
Na23 O7 2.826368 1_555
Na23 O51 2.905970 1_555
Na24 O46 2.338319 1_555
Na24 O114 2.480054 1_555
Na24 O118 2.503703 1_555
Na24 O77 2.523322 1_555
Na24 O74 2.638853 1_545
Na24 O4 2.859904 1_555
Na24 O57 2.913853 1_555
Na25 O119 2.434306 1_555
Na25 O76 2.508096 1_655
Na25 O47 2.582036 1_555
Na25 O115 2.633343 1_555
Na25 O75 2.637524 1_545
Na25 O5 2.867268 1_555
Na25 O60 2.967919 1_655
Na25 O56 3.001374 1_655
Na26 O42 2.356245 1_555
Na26 O76 2.510527 1_555
Na26 O116 2.582450 1_555
Na26 O72 2.623449 1_545
Na26 O114 2.724419 1_555
Na26 O58 2.824727 1_545
Na26 O0 2.904538 1_555
Na27 O43 2.415847 1_555
Na27 O117 2.459696 1_555
Na27 O115 2.469091 1_555
Na27 O73 2.662562 1_545
Na27 O77 2.665471 1_555
Na27 O1 2.681847 1_555
Na28 O116 2.362462 1_555
Na28 O118 2.508034 1_555
Na28 O73 2.608246 1_555
Na28 O74 2.643033 1_555
Na28 O44 2.644989 1_555
Na28 O2 2.768087 1_555
Na28 O64 2.842253 1_555
Na28 O54 2.954127 1_555
Na29 O45 2.308782 1_555
Na29 O72 2.346378 1_655
Na29 O119 2.508652 1_555
Na29 O117 2.576937 1_555
Na29 O75 2.634378 1_555
Na29 O3 2.892979 1_555
Na29 O55 3.014555 1_555
Na30 O72 2.465600 1_555
Na30 O86 2.516039 1_565
Na30 O76 2.536238 1_565
Na30 O89 2.584013 1_455
Na30 O75 2.735758 1_455
Na30 O85 2.748392 1_465
Na31 O77 2.564720 1_555
Na31 O87 2.567239 1_555
Na31 O84 2.594189 1_555
Na31 O73 2.665631 1_545
Na31 O88 2.724857 1_545
Na31 O74 2.727893 1_545
Na32 O80 2.427979 1_555
Na32 O78 2.534571 1_565
Na32 O83 2.563886 1_455
Na32 O94 2.667600 1_566
Na32 O91 2.726844 1_456
Na32 O93 2.847150 1_466
Na33 O79 2.358502 1_555
Na33 O81 2.420030 1_545
Na33 O82 2.606948 1_545
Na33 O95 2.694063 1_556
Na33 O92 2.743531 1_556
Na33 O90 2.894726 1_546
Na34 O110 2.445379 1_555
Na34 O98 2.503664 1_555
Na34 O96 2.536051 1_555
Na34 O100 2.600909 1_555
Na34 O112 2.655870 1_555
Na34 O108 2.709941 1_555
Na35 O101 2.374659 1_555
Na35 O99 2.454987 1_555
Na35 O97 2.554501 1_555
Na35 O113 2.637051 1_555
Na35 O109 2.688969 1_555
Na35 O111 2.829574 1_555
Na36 O116 2.396585 1_555
Na36 O106 2.475323 1_555
Na36 O114 2.595098 1_555
Na36 O102 2.601454 1_555
Na36 O118 2.740110 1_555
Na36 O104 2.748795 1_555
Na37 O119 2.375257 1_555
Na37 O107 2.572347 1_555
Na37 O103 2.575645 1_555
Na37 O105 2.599751 1_555
Na37 O117 2.646702 1_555
Na37 O115 2.673011 1_555
Na38 O124 2.379408 1_555
Na38 O122 2.446656 1_555
Na38 O120 2.456144 1_555
Na38 O132 2.789883 1_555
Na38 O136 2.824924 1_555
Na38 O134 2.825548 1_555
Na39 O121 2.400061 1_555
Na39 O123 2.566934 1_555
Na39 O133 2.573186 1_555
Na39 O125 2.596213 1_555
Na39 O135 2.655049 1_555
Na39 O137 2.687060 1_555
Na40 O140 2.392824 1_555
Na40 O126 2.508079 1_555
Na40 O138 2.520632 1_555
Na40 O130 2.633807 1_555
Na40 O142 2.650657 1_555
Na40 O128 2.811472 1_555
Na41 O129 2.391668 1_555
Na41 O127 2.483286 1_555
Na41 O131 2.499126 1_555
Na41 O143 2.743424 1_555
Na41 O139 2.773607 1_555
Na41 O141 2.824219 1_555
O0 S0 1.467523 1_555
O0 Zn0 2.090116 1_555
O1 Si0 1.638699 1_555
O1 Zn1 1.905480 1_555
O2 S1 1.497312 1_555
O2 Zn1 2.083084 1_565
O3 S2 1.466735 1_555
O3 Zn0 2.223334 1_665
O4 S4 1.484315 1_555
O4 Zn1 2.092854 1_555
O5 S3 1.475259 1_555
O5 Zn0 2.218407 1_655
O6 Si1 1.646608 1_555
O6 Zn2 1.903659 1_545
O7 S5 1.479807 1_555
O7 Zn3 2.062482 1_555
O8 S6 1.480274 1_555
O8 Zn3 2.191249 1_565
O9 Si2 1.636774 1_555
O9 Zn2 1.894824 1_655
O10 S7 1.475287 1_555
O10 Zn3 2.178441 1_555
O11 S8 1.499478 1_545
O11 Zn2 2.141488 1_645
O12 S7 1.523542 1_565
O12 Zr1 2.174500 1_565
O13 S8 1.497836 1_555
O13 Zr0 2.244893 1_655
O14 Si1 1.666237 1_555
O14 Zr0 2.052268 1_545
O15 S5 1.528157 1_555
O15 Zr1 2.090079 1_555
O16 Si2 1.678635 1_455
O16 Zr0 1.957827 1_555
O17 S6 1.509048 1_555
O17 Zr1 2.217215 1_565
O18 S1 1.499316 1_555
O18 Zr3 2.219536 1_565
O19 S2 1.521011 1_555
O19 Zr2 2.209576 1_655
O20 S3 1.508805 1_455
O20 Zr2 2.209493 1_545
O21 S4 1.514329 1_555
O21 Zr3 2.143804 1_555
O22 S0 1.525429 1_565
O22 Zr2 2.114902 1_555
O23 Si0 1.674124 1_565
O23 Zr3 2.037167 1_565
O24 Si3 1.611966 1_555
O24 Zn4 1.943940 1_555
O25 S9 1.467522 1_555
O25 Zn5 2.244732 1_555
O26 Si4 1.625808 1_555
O26 Zn4 1.950338 1_555
O27 Si5 1.603820 1_555
O27 Zn5 1.984085 1_555
O28 S10 1.472749 1_555
O28 Zn4 2.257889 1_555
O29 Si6 1.600941 1_555
O29 Zn5 1.909518 1_555
O30 S11 1.479277 1_555
O30 Zn6 2.286690 1_555
O31 Si7 1.616642 1_555
O31 Zn7 1.926429 1_555
O32 Si8 1.614695 1_555
O32 Zn6 1.849887 1_555
O33 S12 1.474933 1_555
O33 Zn7 2.220249 1_555
O34 Si9 1.621464 1_555
O34 Zn6 1.862815 1_555
O35 Si10 1.628125 1_555
O35 Zn7 1.953203 1_555
O36 Si9 1.634682 1_555
O36 Zn8 2.007358 1_554
O37 Si10 1.630514 1_555
O37 Zn9 1.961471 1_554
O38 S11 1.479030 1_555
O38 Zn8 2.259100 1_554
O39 Si7 1.638311 1_555
O39 Zn9 1.992600 1_554
O40 Si8 1.635650 1_555
O40 Zn8 1.959647 1_554
O41 S12 1.477030 1_555
O41 Zn9 2.297826 1_554
O42 Si4 1.637180 1_555
O42 Zn10 1.924868 1_555
O43 Si5 1.649744 1_555
O43 Zn11 1.990887 1_555
O44 S10 1.487171 1_555
O44 Zn10 2.228382 1_555
O45 Si6 1.644373 1_555
O45 Zn11 1.938302 1_555
O46 Si3 1.645749 1_555
O46 Zn10 1.991737 1_555
O47 S9 1.491332 1_555
O47 Zn11 2.178440 1_555
O48 S13 1.485646 1_555
O48 Zn12 2.230096 1_556
O49 S14 1.487655 1_555
O49 Zn13 2.157494 1_556
O50 S15 1.487779 1_555
O50 Zn12 2.222418 1_556
O51 Si11 1.625630 1_555
O51 Zn13 1.930883 1_556
O52 S16 1.486480 1_555
O52 Zn12 2.184236 1_556
O53 Si12 1.636970 1_555
O53 Zn13 1.984757 1_556
O54 S17 1.478287 1_555
O54 Zn14 2.324888 1_555
O55 S18 1.479758 1_555
O55 Zn15 2.249110 1_555
O56 Si13 1.630414 1_555
O56 Zn14 1.983257 1_555
O57 S19 1.481337 1_555
O57 Zn15 2.274173 1_555
O58 Si14 1.622731 1_555
O58 Zn14 1.936076 1_555
O59 S20 1.480348 1_555
O59 Zn15 2.283199 1_555
O60 Si14 1.699336 1_555
O60 Zr4 1.942870 1_555
O61 S20 1.499889 1_555
O61 Zn16 2.082817 1_555
O62 S17 1.506060 1_555
O62 Zr4 2.166897 1_555
O63 S18 1.507290 1_555
O63 Zn16 2.030708 1_555
O64 Si13 1.692178 1_555
O64 Zr4 1.947649 1_555
O65 S19 1.499246 1_555
O65 Zn16 2.147749 1_555
O66 S15 1.490289 1_555
O66 Zn17 2.097450 1_555
O67 Si11 1.685725 1_555
O67 Zr5 1.954822 1_555
O68 S16 1.484119 1_555
O68 Zn17 2.213004 1_555
O69 Si12 1.684347 1_555
O69 Zr5 1.949142 1_555
O70 S13 1.490667 1_555
O70 Zn17 2.230757 1_555
O71 S14 1.508071 1_555
O71 Zr5 2.159460 1_555
O72 Si14 1.639722 1_555
O72 Zn0 1.969704 1_565
O73 S20 1.508469 1_555
O73 Zn1 2.350187 1_565
O74 S17 1.503186 1_555
O74 Zn1 2.333195 1_565
O75 S18 1.491092 1_555
O75 Zn0 2.278557 1_665
O76 Si13 1.642825 1_555
O76 Zn0 2.010267 1_555
O77 S19 1.518898 1_555
O77 Zn1 2.293356 1_555
O78 S15 1.499859 1_555
O79 Si11 1.638431 1_555
O79 Zn3 1.987477 1_555
O80 S16 1.503027 1_555
O80 Zn2 2.493029 1_555
O81 Si12 1.647622 1_555
O81 Zn3 2.036177 1_565
O82 S13 1.503421 1_555
O82 Zn3 2.279307 1_565
O83 S14 1.484040 1_555
O84 Si3 1.718006 1_555
O84 Zr1 1.999606 1_555
O85 S9 1.510769 1_555
O85 Zr0 2.347020 1_645
O86 Si4 1.678165 1_555
O86 Zr0 2.045570 1_545
O87 Si5 1.736040 1_555
O87 Zr1 1.998533 1_555
O88 S10 1.537349 1_555
O88 Zr1 2.195858 1_565
O89 Si6 1.670099 1_555
O89 Zr0 2.068838 1_655
O90 S11 1.528542 1_555
O90 Zr3 2.191466 1_565
O91 Si7 1.722197 1_555
O91 Zr2 1.980922 1_655
O92 Si8 1.676087 1_555
O92 Zr3 2.036663 1_555
O93 S12 1.535377 1_555
O93 Zr2 2.186557 1_645
O94 Si9 1.719729 1_555
O94 Zr2 1.996419 1_545
O95 Si10 1.691068 1_555
O95 Zr3 1.998157 1_555
O96 S7 1.471092 1_555
O96 Zn4 2.323836 1_555
O97 S8 1.457644 1_545
O97 Zn5 2.517557 1_555
O98 Si1 1.654686 1_555
O98 Zn4 2.109688 1_555
O99 S5 1.442177 1_555
O99 Zn5 2.272443 1_555
O100 S6 1.464365 1_555
O100 Zn4 2.504957 1_555
O101 Si2 1.627929 1_555
O101 Zn5 2.096225 1_555
O102 S1 1.472664 1_555
O103 S2 1.473747 1_555
O103 Zn7 2.352657 1_555
O104 S4 1.465995 1_555
O105 S3 1.466487 1_555
O105 Zn7 2.511354 1_555
O106 S0 1.467605 1_555
O106 Zn6 2.277390 1_555
O107 Si0 1.644944 1_555
O107 Zn7 2.187031 1_555
O108 S13 1.493978 1_555
O108 Zn8 2.515303 1_555
O109 S14 1.482953 1_555
O109 Zn9 2.370518 1_555
O110 Si11 1.645847 1_555
O110 Zn8 2.169281 1_555
O111 S15 1.493011 1_655
O111 Zn9 2.444904 1_555
O112 S16 1.500296 1_545
O112 Zn8 2.299992 1_555
O113 Si12 1.649016 1_545
O113 Zn9 2.112095 1_555
O114 S17 1.482583 1_545
O114 Zn10 2.466539 1_555
O115 S18 1.485526 1_545
O115 Zn11 2.565651 1_555
O116 Si13 1.652847 1_555
O116 Zn10 2.183549 1_555
O117 S19 1.484607 1_555
O117 Zn11 2.526036 1_555
O118 S20 1.487768 1_555
O118 Zn10 2.518953 1_555
O119 Si14 1.641282 1_655
O119 Zn11 2.248931 1_555
O120 Si9 1.627569 1_555
O120 Zn12 2.015016 1_555
O121 Si10 1.644409 1_555
O121 Zn13 2.146070 1_555
O122 Si7 1.632846 1_455
O122 Zn12 2.045795 1_555
O123 S11 1.480952 1_555
O123 Zn13 2.414450 1_555
O124 Si8 1.632359 1_565
O124 Zn12 2.021984 1_555
O125 S12 1.478276 1_565
O125 Zn13 2.522471 1_555
O126 Si4 1.650384 1_565
O126 Zn14 2.073115 1_555
O127 Si5 1.639652 1_565
O127 Zn15 2.014727 1_555
O128 S10 1.471208 1_555
O128 Zn14 2.504745 1_555
O129 Si6 1.641344 1_555
O129 Zn15 1.967116 1_555
O130 S9 1.492333 1_455
O130 Zn14 2.283345 1_555
O131 Si3 1.634588 1_555
O131 Zn15 2.025349 1_555
O132 S0 1.496552 1_565
O132 Zr4 2.307314 1_555
O133 Si0 1.663936 1_565
O133 Zn16 2.015294 1_555
O134 S1 1.490092 1_555
O134 Zr4 2.295333 1_555
O135 S2 1.506511 1_555
O135 Zn16 2.312934 1_555
O136 S3 1.510330 1_455
O136 Zr4 2.188544 1_555
O137 S4 1.500170 1_555
O137 Zn16 2.311208 1_555
O138 Si1 1.645646 1_555
O138 Zn17 2.021998 1_555
O139 S5 1.500446 1_555
O139 Zr5 2.290077 1_555
O140 Si2 1.659237 1_455
O140 Zn17 1.992725 1_555
O141 S6 1.509009 1_555
O141 Zr5 2.204298 1_555
O142 S7 1.489452 1_565
O142 Zn17 2.344582 1_555
O143 S8 1.506526 1_555
O143 Zr5 2.248040 1_555
