# generated using pymatgen
data_Na18Mg20Ta4Si3(S11O48)3
_symmetry_space_group_name_H-M   'P 1'
_cell_length_a   17.51071597
_cell_length_b   8.74613447
_cell_length_c   22.59044564
_cell_angle_alpha   89.91188819
_cell_angle_beta   89.98892476
_cell_angle_gamma   119.86380686
_symmetry_Int_Tables_number   1
_chemical_formula_structural   Na18Mg20Ta4Si3(S11O48)3
_chemical_formula_sum   'Na18 Mg20 Ta4 Si3 S33 O144'
_cell_volume   3000.33041286
_cell_formula_units_Z   1
loop_
 _symmetry_equiv_pos_site_id
 _symmetry_equiv_pos_as_xyz
  1  'x, y, z'
loop_
 _atom_site_type_symbol
 _atom_site_label
 _atom_site_symmetry_multiplicity
 _atom_site_fract_x
 _atom_site_fract_y
 _atom_site_fract_z
 _atom_site_occupancy
  Na  Na0  1  0.31863003  0.99909760  0.25474036  1
  Na  Na1  1  0.81865853  0.99973885  0.24943298  1
  Na  Na2  1  0.18039655  0.36402943  0.26161985  1
  Na  Na3  1  0.68253853  0.36691156  0.25820926  1
  Na  Na4  1  0.68067065  0.99835233  0.75103006  1
  Na  Na5  1  0.98430187  0.67739637  0.92545382  1
  Na  Na6  1  0.00937869  0.02391370  0.49451024  1
  Na  Na7  1  0.50910733  0.02375016  0.49484080  1
  Na  Na8  1  0.99632796  0.99757218  0.00078419  1
  Na  Na9  1  0.51265597  0.01216393  0.00059465  1
  Na  Na10  1  0.33587520  0.33729766  0.82511710  1
  Na  Na11  1  0.82627841  0.32601336  0.83512516  1
  Na  Na12  1  0.33651711  0.35270022  0.33474144  1
  Na  Na13  1  0.83663568  0.35245136  0.33262472  1
  Na  Na14  1  0.15288847  0.66173199  0.16540913  1
  Na  Na15  1  0.66486820  0.66689796  0.16164625  1
  Na  Na16  1  0.16605443  0.66134259  0.65597001  1
  Na  Na17  1  0.66481486  0.64896929  0.66430066  1
  Mg  Mg0  1  0.00261492  0.00325948  0.35407862  1
  Mg  Mg1  1  0.50350801  0.00368861  0.35437017  1
  Mg  Mg2  1  0.99877712  0.00323703  0.85119480  1
  Mg  Mg3  1  0.50433477  0.00086872  0.85067068  1
  Mg  Mg4  1  0.99951167  0.00513338  0.64626622  1
  Mg  Mg5  1  0.50054660  0.00159337  0.64627398  1
  Mg  Mg6  1  0.99842369  0.99290783  0.14678857  1
  Mg  Mg7  1  0.50419700  0.00217068  0.14791509  1
  Mg  Mg8  1  0.33412583  0.33572326  0.68403035  1
  Mg  Mg9  1  0.83518478  0.33556269  0.68395860  1
  Mg  Mg10  1  0.33683918  0.34213136  0.18380201  1
  Mg  Mg11  1  0.83446434  0.33810401  0.17920383  1
  Mg  Mg12  1  0.82606222  0.32399306  0.98542167  1
  Mg  Mg13  1  0.16200612  0.66738404  0.02007191  1
  Mg  Mg14  1  0.67206595  0.67383203  0.01798946  1
  Mg  Mg15  1  0.16440309  0.65633981  0.51583335  1
  Mg  Mg16  1  0.66422350  0.65555646  0.51673060  1
  Mg  Mg17  1  0.16414294  0.65622387  0.32248501  1
  Mg  Mg18  1  0.66529297  0.65762674  0.32221785  1
  Mg  Mg19  1  0.66738058  0.66293399  0.81663107  1
  Ta  Ta0  1  0.33241896  0.32819352  0.97951792  1
  Ta  Ta1  1  0.33089734  0.33405275  0.47992577  1
  Ta  Ta2  1  0.83080696  0.33467762  0.47959908  1
  Ta  Ta3  1  0.16814689  0.67559546  0.81344857  1
  Si  Si0  1  0.16238868  0.95807899  0.91951940  1
  Si  Si1  1  0.15927613  0.36764868  0.41515218  1
  Si  Si2  1  0.65897227  0.36816091  0.41514916  1
  S  S0  1  0.14627434  0.99675787  0.24838004  1
  S  S1  1  0.64629268  0.99474896  0.24913574  1
  S  S2  1  0.35532905  0.71078700  0.24843827  1
  S  S3  1  0.85462254  0.70792847  0.24983619  1
  S  S4  1  0.99910974  0.29374197  0.24799645  1
  S  S5  1  0.49865384  0.29348582  0.24873639  1
  S  S6  1  0.14706659  0.29062972  0.75042025  1
  S  S7  1  0.64658735  0.29541509  0.74910035  1
  S  S8  1  0.99780761  0.70580525  0.75074879  1
  S  S9  1  0.49856782  0.70466899  0.75006971  1
  S  S10  1  0.35651717  0.00330740  0.75075559  1
  S  S11  1  0.85344962  0.99967073  0.74951511  1
  S  S12  1  0.48002361  0.33418769  0.58565264  1
  S  S13  1  0.98045115  0.33573301  0.58512771  1
  S  S14  1  0.18737769  0.03867777  0.58518436  1
  S  S15  1  0.68669089  0.03630384  0.58508197  1
  S  S16  1  0.33389642  0.62821786  0.58512346  1
  S  S17  1  0.83421949  0.62817662  0.58535526  1
  S  S18  1  0.48061728  0.62771625  0.08322149  1
  S  S19  1  0.98143437  0.62859328  0.08222745  1
  S  S20  1  0.33351271  0.03868358  0.08551507  1
  S  S21  1  0.83405460  0.03805835  0.08435380  1
  S  S22  1  0.18766935  0.33616810  0.08438024  1
  S  S23  1  0.68335706  0.33380783  0.08494581  1
  S  S24  1  0.31300651  0.67098273  0.91854091  1
  S  S25  1  0.81188990  0.66313236  0.91647515  1
  S  S26  1  0.02140676  0.37377170  0.91748512  1
  S  S27  1  0.52336851  0.37445746  0.91829159  1
  S  S28  1  0.66644158  0.96089557  0.91583213  1
  S  S29  1  0.31276220  0.95743992  0.41699670  1
  S  S30  1  0.81256486  0.95714662  0.41739163  1
  S  S31  1  0.02110477  0.66926313  0.41855407  1
  S  S32  1  0.52117507  0.66878942  0.41848155  1
  O  O0  1  0.10537378  0.02455294  0.30089568  1
  O  O1  1  0.60431706  0.02272359  0.30102978  1
  O  O2  1  0.40594748  0.79175009  0.30224223  1
  O  O3  1  0.90553046  0.78975419  0.30368407  1
  O  O4  1  0.48309167  0.18139461  0.30140080  1
  O  O5  1  0.98451922  0.18315734  0.30098675  1
  O  O6  1  0.10522567  0.18761785  0.80354583  1
  O  O7  1  0.60644492  0.18437969  0.80257520  1
  O  O8  1  0.48599674  0.78617572  0.80381279  1
  O  O9  1  0.98955194  0.78423655  0.80581309  1
  O  O10  1  0.40616512  0.02046520  0.80469771  1
  O  O11  1  0.90557515  0.02224363  0.80314274  1
  O  O12  1  0.39294229  0.97241125  0.69723376  1
  O  O13  1  0.89548273  0.97748164  0.69633942  1
  O  O14  1  0.09461621  0.22047355  0.69664021  1
  O  O15  1  0.59321058  0.21044266  0.69605407  1
  O  O16  1  0.01654844  0.81678662  0.69855856  1
  O  O17  1  0.51280620  0.81700573  0.69740725  1
  O  O18  1  0.39854558  0.81792564  0.19520198  1
  O  O19  1  0.89720409  0.81585884  0.19683050  1
  O  O20  1  0.01488397  0.21182424  0.19530768  1
  O  O21  1  0.51211783  0.21047442  0.19556872  1
  O  O22  1  0.09589768  0.97671821  0.19411251  1
  O  O23  1  0.59540733  0.97152618  0.19460431  1
  O  O24  1  0.43520334  0.34983342  0.63831902  1
  O  O25  1  0.93614303  0.35216272  0.63789439  1
  O  O26  1  0.24074033  0.12379450  0.63771658  1
  O  O27  1  0.73743738  0.11772532  0.63948658  1
  O  O28  1  0.32183387  0.51929081  0.63745807  1
  O  O29  1  0.82281256  0.51897371  0.63758502  1
  O  O30  1  0.43816360  0.51987652  0.13553189  1
  O  O31  1  0.93528087  0.52163558  0.13430539  1
  O  O32  1  0.32279927  0.12361891  0.13832494  1
  O  O33  1  0.82311995  0.11686732  0.13989170  1
  O  O34  1  0.23951381  0.35638732  0.13760243  1
  O  O35  1  0.73336902  0.35365555  0.14032729  1
  O  O36  1  0.23814275  0.31864647  0.03066916  1
  O  O37  1  0.72769120  0.31263941  0.03276367  1
  O  O38  1  0.42274961  0.53080132  0.02908758  1
  O  O39  1  0.93258467  0.54763561  0.02638939  1
  O  O40  1  0.34171814  0.15694996  0.03129429  1
  O  O41  1  0.84479576  0.14909773  0.03228779  1
  O  O42  1  0.23531075  0.15380409  0.53104666  1
  O  O43  1  0.73722358  0.15596536  0.53257046  1
  O  O44  1  0.34238950  0.53096280  0.53106286  1
  O  O45  1  0.84281632  0.53101118  0.53111771  1
  O  O46  1  0.42468089  0.31646866  0.53149813  1
  O  O47  1  0.92557905  0.31800882  0.53119001  1
  O  O48  1  0.26994153  0.68718307  0.97059127  1
  O  O49  1  0.77112425  0.68338784  0.97031348  1
  O  O50  1  0.07501572  0.45192735  0.96986975  1
  O  O51  1  0.57508593  0.45646036  0.97110783  1
  O  O52  1  0.14838634  0.83297363  0.97319802  1
  O  O53  1  0.65528009  0.84904036  0.96744067  1
  O  O54  1  0.26780417  0.85486316  0.46894153  1
  O  O55  1  0.76782531  0.85472887  0.46930527  1
  O  O56  1  0.15320712  0.46641178  0.47207622  1
  O  O57  1  0.65338511  0.46697419  0.47213658  1
  O  O58  1  0.07376659  0.69768742  0.47131559  1
  O  O59  1  0.57367641  0.69743303  0.47131360  1
  O  O60  1  0.05675643  0.63434736  0.36463328  1
  O  O61  1  0.55673552  0.63379701  0.36458314  1
  O  O62  1  0.26066579  0.89497523  0.36149522  1
  O  O63  1  0.76077186  0.89565160  0.36194588  1
  O  O64  1  0.18595305  0.47428654  0.35257839  1
  O  O65  1  0.68519596  0.47332422  0.35242037  1
  O  O66  1  0.07138378  0.49530567  0.86357700  1
  O  O67  1  0.55670024  0.47823675  0.86423680  1
  O  O68  1  0.18240497  0.86386074  0.85929604  1
  O  O69  1  0.67634439  0.88243957  0.85981653  1
  O  O70  1  0.25674274  0.63603306  0.86361030  1
  O  O71  1  0.75842502  0.63692749  0.86324892  1
  O  O72  1  0.00002162  0.80985706  0.41094748  1
  O  O73  1  0.49958572  0.80882015  0.41076012  1
  O  O74  1  0.40014601  0.97724387  0.41040048  1
  O  O75  1  0.90038486  0.97801248  0.41082427  1
  O  O76  1  0.08131878  0.16749076  0.41137334  1
  O  O77  1  0.58096019  0.16755494  0.41185508  1
  O  O78  1  0.00930357  0.19970081  0.90694345  1
  O  O79  1  0.50492742  0.19181086  0.91233096  1
  O  O80  1  0.07885487  0.97931855  0.90786439  1
  O  O81  1  0.58663710  0.98144107  0.91221011  1
  O  O82  1  0.40022166  0.82321602  0.90935998  1
  O  O83  1  0.90119553  0.82311166  0.91058414  1
  O  O84  1  0.48677993  0.17232661  0.58736463  1
  O  O85  1  0.98787042  0.17462943  0.58695617  1
  O  O86  1  0.10111184  0.02919114  0.58711637  1
  O  O87  1  0.60064189  0.02792006  0.58582119  1
  O  O88  1  0.41604140  0.79895628  0.58654384  1
  O  O89  1  0.91687754  0.79870597  0.58673359  1
  O  O90  1  0.48424258  0.79942532  0.08465575  1
  O  O91  1  0.99217372  0.80786015  0.08650244  1
  O  O92  1  0.41541602  0.03264739  0.08518555  1
  O  O93  1  0.91397078  0.01953349  0.08822609  1
  O  O94  1  0.10217817  0.17456157  0.08463664  1
  O  O95  1  0.59456567  0.17273604  0.08856678  1
  O  O96  1  0.33787291  0.14903564  0.74592065  1
  O  O97  1  0.84105496  0.15766282  0.74453434  1
  O  O98  1  0.23706217  0.31852809  0.74494428  1
  O  O99  1  0.73545904  0.30905708  0.74355823  1
  O  O100  1  0.42064809  0.52607063  0.74399945  1
  O  O101  1  0.92312082  0.52703209  0.74457006  1
  O  O102  1  0.34025868  0.52689424  0.24313559  1
  O  O103  1  0.84025877  0.52506653  0.24422873  1
  O  O104  1  0.41711186  0.30813082  0.24237228  1
  O  O105  1  0.91816395  0.30847246  0.24111478  1
  O  O106  1  0.23720108  0.16034347  0.24350555  1
  O  O107  1  0.73664208  0.15843189  0.24403395  1
  O  O108  1  0.32216663  0.50656198  0.92349679  1
  O  O109  1  0.82653641  0.50792344  0.92167692  1
  O  O110  1  0.43084076  0.35897437  0.92752797  1
  O  O111  1  0.93726888  0.37424771  0.91855300  1
  O  O112  1  0.25507428  0.15430965  0.92582878  1
  O  O113  1  0.74647230  0.13841523  0.92175355  1
  O  O114  1  0.32647042  0.14498588  0.42568261  1
  O  O115  1  0.82643917  0.14520128  0.42635373  1
  O  O116  1  0.25434090  0.35092143  0.42892806  1
  O  O117  1  0.75409728  0.35093438  0.42900000  1
  O  O118  1  0.43064409  0.49780073  0.42720017  1
  O  O119  1  0.93079695  0.49852815  0.42714391  1
  O  O120  1  0.18141168  0.49498888  0.07529276  1
  O  O121  1  0.67345662  0.49218097  0.07912289  1
  O  O122  1  0.06977726  0.64182596  0.08105528  1
  O  O123  1  0.56739279  0.64472507  0.07482900  1
  O  O124  1  0.25554071  0.86608737  0.07730578  1
  O  O125  1  0.75407888  0.86085154  0.07883534  1
  O  O126  1  0.17957747  0.86553286  0.57656214  1
  O  O127  1  0.67946825  0.86429507  0.57619089  1
  O  O128  1  0.25648199  0.64928672  0.57790893  1
  O  O129  1  0.75683894  0.64875388  0.57834891  1
  O  O130  1  0.06720941  0.49623483  0.57985352  1
  O  O131  1  0.56654305  0.49442643  0.58026797  1
  O  O132  1  0.16057560  0.84300858  0.25469205  1
  O  O133  1  0.66048557  0.84129253  0.25599028  1
  O  O134  1  0.26571183  0.69585028  0.25126603  1
  O  O135  1  0.76511843  0.69384598  0.25293843  1
  O  O136  1  0.07801918  0.47273313  0.25405217  1
  O  O137  1  0.57731221  0.47147960  0.25429998  1
  O  O138  1  0.15786743  0.47612318  0.75926684  1
  O  O139  1  0.65691423  0.47270142  0.75556959  1
  O  O140  1  0.08128794  0.68264364  0.75784931  1
  O  O141  1  0.58027121  0.69090627  0.75598861  1
  O  O142  1  0.26445094  0.83134117  0.75787015  1
  O  O143  1  0.76245184  0.84294094  0.75457802  1
loop_
_geom_bond_atom_site_label_1
_geom_bond_atom_site_label_2
_geom_bond_distance
_geom_bond_site_symmetry_2
Na0 O134 2.335023 1_555
Na0 O104 2.390182 1_565
Na0 O132 2.400171 1_555
Na0 O106 2.467402 1_565
Na0 O62 2.597561 1_555
Na0 O4 2.716674 1_565
Na0 O32 2.831891 1_565
Na0 O18 2.914134 1_555
Na1 O135 2.354634 1_555
Na1 O105 2.382293 1_565
Na1 O133 2.406343 1_555
Na1 O107 2.447146 1_565
Na1 O33 2.662996 1_565
Na1 O63 2.718355 1_555
Na1 O5 2.780665 1_565
Na1 O19 2.845752 1_555
Na2 O64 2.252620 1_555
Na2 O136 2.417414 1_555
Na2 O102 2.462963 1_555
Na2 O106 2.469263 1_555
Na2 O134 2.527655 1_555
Na2 O0 2.726836 1_555
Na2 O20 2.929427 1_555
Na2 O34 2.998908 1_555
Na3 O65 2.315363 1_555
Na3 O103 2.415459 1_555
Na3 O137 2.432571 1_555
Na3 O107 2.459040 1_555
Na3 O135 2.482447 1_555
Na3 O1 2.785336 1_555
Na3 O35 2.828442 1_555
Na3 O21 2.953174 1_555
Na4 O141 2.371702 1_555
Na4 O99 2.394933 1_565
Na4 O143 2.417217 1_555
Na4 O97 2.439775 1_565
Na4 O69 2.643627 1_555
Na4 O27 2.717538 1_565
Na4 O7 2.793505 1_565
Na4 O17 2.826236 1_555
Na5 O80 2.348334 1_655
Na5 O111 2.357772 1_555
Na5 O83 2.387609 1_555
Na5 O109 2.399736 1_555
Na5 O39 2.505005 1_556
Na5 O52 2.717075 1_655
Na5 O9 2.844820 1_555
Na6 O76 2.259981 1_555
Na6 O75 2.572635 1_445
Na6 O85 2.596809 1_455
Na6 O72 2.607843 1_545
Na6 O86 2.624243 1_555
Na6 O89 2.766320 1_445
Na7 O77 2.257272 1_555
Na7 O74 2.583702 1_545
Na7 O84 2.593110 1_555
Na7 O87 2.595748 1_555
Na7 O73 2.620733 1_545
Na7 O88 2.758287 1_545
Na8 O93 2.508900 1_565
Na8 O91 2.525460 1_555
Na8 O94 2.563782 1_665
Na8 O83 2.595154 1_554
Na8 O80 2.598009 1_654
Na8 O78 2.694283 1_664
Na9 O95 2.445949 1_555
Na9 O81 2.466645 1_544
Na9 O90 2.526358 1_545
Na9 O79 2.581659 1_554
Na9 O92 2.624257 1_555
Na9 O82 2.761682 1_544
Na10 O100 2.415853 1_555
Na10 O96 2.445325 1_555
Na10 O98 2.453634 1_555
Na10 O112 2.733482 1_555
Na10 O108 2.748143 1_555
Na10 O110 2.800431 1_555
Na11 O113 2.486031 1_555
Na11 O109 2.521254 1_555
Na11 O99 2.568516 1_555
Na11 O111 2.587388 1_555
Na11 O97 2.609894 1_555
Na11 O101 2.677683 1_555
Na12 O102 2.549265 1_555
Na12 O116 2.564072 1_555
Na12 O118 2.572194 1_555
Na12 O104 2.654622 1_555
Na12 O106 2.683487 1_555
Na12 O114 2.687378 1_555
Na13 O103 2.483181 1_555
Na13 O117 2.609351 1_555
Na13 O119 2.611897 1_555
Na13 O107 2.646398 1_555
Na13 O105 2.647214 1_555
Na13 O115 2.732503 1_555
Na14 O122 2.351458 1_555
Na14 O136 2.508339 1_555
Na14 O132 2.529286 1_555
Na14 O134 2.677706 1_555
Na14 O124 2.678622 1_555
Na14 O120 2.693465 1_555
Na15 O121 2.463860 1_555
Na15 O125 2.483469 1_555
Na15 O123 2.543674 1_555
Na15 O135 2.642202 1_555
Na15 O133 2.645978 1_555
Na15 O137 2.651597 1_555
Na16 O130 2.357429 1_555
Na16 O128 2.407053 1_555
Na16 O126 2.456051 1_555
Na16 O140 2.794675 1_555
Na16 O138 2.801266 1_555
Na16 O142 2.817668 1_555
Na17 O131 2.466704 1_555
Na17 O129 2.523612 1_555
Na17 O139 2.534683 1_555
Na17 O127 2.661094 1_555
Na17 O143 2.661539 1_555
Na17 O141 2.675491 1_555
Mg0 O76 1.916449 1_555
Mg0 O0 2.092995 1_555
Mg0 O72 2.104886 1_545
Mg0 O75 2.121597 1_445
Mg0 O5 2.122585 1_455
Mg0 O3 2.125776 1_445
Mg1 O77 1.910625 1_555
Mg1 O1 2.074044 1_555
Mg1 O73 2.099757 1_545
Mg1 O74 2.124342 1_545
Mg1 O4 2.126766 1_555
Mg1 O2 2.143607 1_545
Mg2 O80 1.985162 1_645
Mg2 O11 2.034656 1_555
Mg2 O6 2.057675 1_655
Mg2 O78 2.064923 1_655
Mg2 O9 2.108048 1_545
Mg2 O83 2.124471 1_545
Mg3 O7 2.022245 1_555
Mg3 O8 2.038448 1_545
Mg3 O81 2.069404 1_545
Mg3 O10 2.087236 1_555
Mg3 O82 2.160418 1_545
Mg3 O79 2.172370 1_555
Mg4 O13 2.053285 1_545
Mg4 O85 2.080692 1_555
Mg4 O14 2.121150 1_655
Mg4 O89 2.137426 1_545
Mg4 O86 2.149499 1_655
Mg4 O16 2.163715 1_645
Mg5 O15 2.071082 1_555
Mg5 O17 2.079972 1_545
Mg5 O84 2.100339 1_555
Mg5 O12 2.111885 1_545
Mg5 O88 2.132545 1_545
Mg5 O87 2.141570 1_555
Mg6 O19 2.019369 1_555
Mg6 O91 2.077631 1_555
Mg6 O22 2.077784 1_655
Mg6 O93 2.081860 1_565
Mg6 O20 2.099380 1_665
Mg6 O94 2.216726 1_665
Mg7 O23 2.039925 1_545
Mg7 O95 2.041835 1_555
Mg7 O18 2.045843 1_545
Mg7 O21 2.061968 1_555
Mg7 O90 2.167858 1_545
Mg7 O92 2.215491 1_555
Mg8 O24 1.998908 1_555
Mg8 O28 2.017402 1_555
Mg8 O26 2.047543 1_555
Mg8 O100 2.097170 1_555
Mg8 O98 2.132819 1_555
Mg8 O96 2.173660 1_555
Mg9 O25 1.993104 1_555
Mg9 O29 2.014616 1_555
Mg9 O27 2.080344 1_555
Mg9 O97 2.111136 1_555
Mg9 O101 2.118984 1_555
Mg9 O99 2.123892 1_555
Mg10 O30 2.000242 1_555
Mg10 O34 2.054536 1_555
Mg10 O104 2.056863 1_555
Mg10 O32 2.075225 1_555
Mg10 O102 2.078904 1_555
Mg10 O106 2.149647 1_555
Mg11 O31 1.973359 1_555
Mg11 O35 2.040494 1_555
Mg11 O33 2.048120 1_555
Mg11 O105 2.132906 1_555
Mg11 O103 2.164296 1_555
Mg11 O107 2.204477 1_555
Mg12 O37 1.987316 1_556
Mg12 O41 2.015747 1_556
Mg12 O113 2.097772 1_555
Mg12 O39 2.129441 1_556
Mg12 O109 2.154333 1_555
Mg12 O111 2.326269 1_555
Mg13 O52 1.901314 1_554
Mg13 O122 2.048107 1_555
Mg13 O50 2.075118 1_554
Mg13 O120 2.109429 1_555
Mg13 O48 2.127038 1_554
Mg13 O124 2.132501 1_555
Mg14 O49 2.007576 1_554
Mg14 O53 2.044976 1_554
Mg14 O125 2.072577 1_555
Mg14 O51 2.100372 1_554
Mg14 O121 2.112757 1_555
Mg14 O123 2.146269 1_555
Mg15 O56 1.858959 1_555
Mg15 O58 2.057222 1_555
Mg15 O54 2.068338 1_555
Mg15 O130 2.137395 1_555
Mg15 O128 2.160945 1_555
Mg15 O126 2.196347 1_555
Mg16 O57 1.861377 1_555
Mg16 O59 2.068466 1_555
Mg16 O55 2.078403 1_555
Mg16 O131 2.136388 1_555
Mg16 O129 2.160552 1_555
Mg16 O127 2.175062 1_555
Mg17 O64 1.934443 1_555
Mg17 O60 2.029679 1_555
Mg17 O62 2.117813 1_555
Mg17 O136 2.199543 1_555
Mg17 O132 2.260990 1_555
Mg17 O134 2.292402 1_555
Mg18 O65 1.934294 1_555
Mg18 O61 2.043772 1_555
Mg18 O63 2.115349 1_555
Mg18 O137 2.211075 1_555
Mg18 O133 2.225572 1_555
Mg18 O135 2.247501 1_555
Mg19 O71 2.015807 1_555
Mg19 O69 2.089938 1_555
Mg19 O67 2.097192 1_555
Mg19 O139 2.099539 1_555
Mg19 O143 2.144129 1_555
Mg19 O141 2.152833 1_555
O0 S0 1.467452 1_545
O1 S1 1.467678 1_545
O2 S2 1.463695 1_555
O3 S3 1.467763 1_555
O4 S5 1.476829 1_555
O5 S4 1.477818 1_555
O6 S6 1.458694 1_555
O7 S7 1.487533 1_555
O8 S9 1.479684 1_555
O9 S8 1.462915 1_555
O10 S10 1.460925 1_555
O11 S11 1.470193 1_545
O12 S10 1.453987 1_565
O13 S11 1.471415 1_555
O14 S6 1.462036 1_555
O15 S7 1.474226 1_555
O16 S8 1.455685 1_455
O17 S9 1.481600 1_555
O18 S2 1.478867 1_555
O19 S3 1.475159 1_555
O20 S4 1.485235 1_455
O21 S5 1.482679 1_555
O22 S0 1.469312 1_555
O23 S1 1.474353 1_555
O24 S12 1.468777 1_555
O25 S13 1.467902 1_555
O26 S14 1.464938 1_555
O27 S15 1.476539 1_555
O28 S16 1.464929 1_555
O29 S17 1.466534 1_555
O30 S18 1.461726 1_555
O31 S19 1.468216 1_555
O32 S20 1.466867 1_555
O33 S21 1.489915 1_555
O34 S22 1.463621 1_555
O35 S23 1.487277 1_555
O36 S22 1.553033 1_555
O36 Ta0 1.982220 1_554
O37 S23 1.473099 1_555
O38 S18 1.545661 1_555
O38 Ta0 2.027664 1_554
O39 S19 1.491371 1_555
O40 S20 1.561701 1_555
O40 Ta0 1.968584 1_554
O41 S21 1.475284 1_555
O42 S14 1.538907 1_555
O42 Ta1 1.996585 1_555
O43 S15 1.535913 1_555
O43 Ta2 2.000777 1_555
O44 S16 1.538250 1_555
O44 Ta1 2.000513 1_555
O45 S17 1.541633 1_555
O45 Ta2 1.998495 1_555
O46 S12 1.520288 1_555
O46 Ta1 2.080760 1_555
O47 S13 1.511505 1_555
O47 Ta2 2.091591 1_555
O48 S24 1.441499 1_555
O49 S25 1.465071 1_555
O50 S26 1.453537 1_555
O51 S27 1.454070 1_555
O52 Si0 1.567306 1_555
O53 S28 1.469860 1_555
O54 S29 1.447299 1_555
O55 S30 1.445348 1_555
O56 Si1 1.582991 1_555
O57 Si2 1.581573 1_555
O58 S31 1.451148 1_555
O59 S32 1.450641 1_555
O60 S31 1.468827 1_555
O61 S32 1.467846 1_555
O62 S29 1.486238 1_555
O63 S30 1.482364 1_555
O64 Si1 1.627289 1_555
O65 Si2 1.624825 1_555
O66 S26 1.564608 1_555
O66 Ta3 1.993178 1_555
O67 S27 1.457528 1_555
O68 Si0 1.715718 1_555
O68 Ta3 1.855329 1_555
O69 S28 1.491069 1_555
O70 S24 1.518442 1_555
O70 Ta3 2.084383 1_555
O71 S25 1.470506 1_555
O72 S31 1.459225 1_555
O73 S32 1.460741 1_555
O74 S29 1.459268 1_555
O75 S30 1.463032 1_555
O76 Si1 1.598749 1_555
O77 Si2 1.601105 1_555
O78 S26 1.448888 1_555
O79 S27 1.470108 1_555
O80 Si0 1.585570 1_555
O81 S28 1.497291 1_555
O82 S24 1.456754 1_555
O83 S25 1.497079 1_555
O84 S12 1.478584 1_555
O85 S13 1.478542 1_555
O86 S14 1.471658 1_555
O87 S15 1.471732 1_555
O88 S16 1.470050 1_555
O89 S17 1.473338 1_555
O90 S18 1.471619 1_555
O91 S19 1.486545 1_555
O92 S20 1.461209 1_555
O93 S21 1.489293 1_555
O94 S22 1.460011 1_555
O95 S23 1.492305 1_555
O96 S10 1.468672 1_555
O97 S11 1.505788 1_545
O98 S6 1.474841 1_555
O99 S7 1.505542 1_555
O100 S9 1.482791 1_555
O101 S8 1.462509 1_555
O102 S2 1.499567 1_555
O103 S3 1.495731 1_555
O104 S5 1.502669 1_555
O105 S4 1.493896 1_555
O106 S0 1.524808 1_545
O107 S1 1.519731 1_545
O108 S24 1.528222 1_555
O108 Ta0 2.083378 1_555
O109 S25 1.506178 1_555
O110 S27 1.571079 1_555
O110 Ta0 1.989544 1_555
O111 S26 1.475585 1_655
O112 Si0 1.681311 1_545
O112 Ta0 1.890307 1_555
O113 S28 1.492065 1_545
O114 S29 1.547774 1_545
O114 Ta1 2.029921 1_555
O115 S30 1.551876 1_545
O115 Ta2 2.019621 1_555
O116 Si1 1.769721 1_555
O116 Ta1 1.828427 1_555
O117 Si2 1.773463 1_555
O117 Ta2 1.822467 1_555
O118 S32 1.557670 1_555
O118 Ta1 2.005822 1_555
O119 S31 1.554195 1_655
O119 Ta2 2.004660 1_555
O120 S22 1.460950 1_555
O121 S23 1.484790 1_555
O122 S19 1.492923 1_455
O123 S18 1.463437 1_555
O124 S20 1.457976 1_565
O125 S21 1.489286 1_565
O126 S14 1.464505 1_565
O127 S15 1.459811 1_565
O128 S16 1.465223 1_555
O129 S17 1.461604 1_555
O130 S13 1.472525 1_455
O131 S12 1.469385 1_555
O132 S0 1.492006 1_555
O133 S1 1.489522 1_555
O134 S2 1.509802 1_555
O135 S3 1.511337 1_555
O136 S4 1.491721 1_455
O137 S5 1.483814 1_555
O138 S6 1.550217 1_555
O138 Ta3 2.065946 1_555
O139 S7 1.476413 1_555
O140 S8 1.580671 1_455
O140 Ta3 1.997139 1_555
O141 S9 1.500251 1_555
O142 S10 1.572067 1_565
O142 Ta3 1.995486 1_555
O143 S11 1.501784 1_555
