# generated using pymatgen
data_La(CuGe)2
_symmetry_space_group_name_H-M   'P 1'
_cell_length_a   4.22078808
_cell_length_b   4.22078661
_cell_length_c   5.87993509
_cell_angle_alpha   111.03353734
_cell_angle_beta   111.03353626
_cell_angle_gamma   89.99999143
_symmetry_Int_Tables_number   1
_chemical_formula_structural   La(CuGe)2
_chemical_formula_sum   'La1 Cu2 Ge2'
_cell_volume   90.25412489
_cell_formula_units_Z   1
loop_
 _symmetry_equiv_pos_site_id
 _symmetry_equiv_pos_as_xyz
  1  'x, y, z'
loop_
 _atom_site_type_symbol
 _atom_site_label
 _atom_site_symmetry_multiplicity
 _atom_site_fract_x
 _atom_site_fract_y
 _atom_site_fract_z
 _atom_site_occupancy
  La  La0  1  0.00000000  0.00000000  0.00000000  1
  Cu  Cu0  1  0.75000000  0.25000000  0.50000000  1
  Cu  Cu1  1  0.25000000  0.75000000  0.50000000  1
  Ge  Ge0  1  0.62606419  0.62606419  0.25212739  1
  Ge  Ge1  1  0.37393581  0.37393581  0.74787261  1
loop_
_geom_bond_atom_site_label_1
_geom_bond_atom_site_label_2
_geom_bond_distance
_geom_bond_site_symmetry_2
Cu0 Ge0 2.455748 1_545
Cu0 Ge1 2.455749 1_655
Cu0 Ge0 2.455752 1_555
Cu0 Ge1 2.455752 1_555
Cu0 La0 3.297012 1_656
Cu0 La0 3.297012 1_655
Cu0 La0 3.297012 1_666
Cu0 La0 3.297013 1_555
Cu1 Ge1 2.455748 1_565
Cu1 Ge0 2.455749 1_455
Cu1 Ge1 2.455752 1_555
Cu1 Ge0 2.455752 1_555
Cu1 La0 3.297012 1_565
Cu1 La0 3.297012 1_566
Cu1 La0 3.297012 1_555
Cu1 La0 3.297013 1_666
Ge0 Ge1 2.554643 1_554
Ge0 La0 3.246391 1_665
Ge0 La0 3.246393 1_655
Ge0 La0 3.246394 1_565
Ge0 La0 3.246397 1_555
Ge1 La0 3.246391 1_556
Ge1 La0 3.246393 1_566
Ge1 La0 3.246394 1_656
Ge1 La0 3.246397 1_666
