# generated using pymatgen
data_Na7CaIn3(PO4)6
_symmetry_space_group_name_H-M   'P 1'
_cell_length_a   9.21332795
_cell_length_b   9.21488606
_cell_length_c   22.84815649
_cell_angle_alpha   89.91589297
_cell_angle_beta   90.01442998
_cell_angle_gamma   119.98473089
_symmetry_Int_Tables_number   1
_chemical_formula_structural   Na7CaIn3(PO4)6
_chemical_formula_sum   'Na21 Ca3 In9 P18 O72'
_cell_volume   1680.17516871
_cell_formula_units_Z   3
loop_
 _symmetry_equiv_pos_site_id
 _symmetry_equiv_pos_as_xyz
  1  'x, y, z'
loop_
 _atom_site_type_symbol
 _atom_site_label
 _atom_site_symmetry_multiplicity
 _atom_site_fract_x
 _atom_site_fract_y
 _atom_site_fract_z
 _atom_site_occupancy
  Na  Na0  1  0.63755383  0.00510221  0.24637272  1
  Na  Na1  1  0.36699581  0.36156479  0.24645506  1
  Na  Na2  1  0.99433322  0.63217821  0.24535751  1
  Na  Na3  1  0.63418360  0.62939683  0.74823068  1
  Na  Na4  1  0.99527389  0.36568785  0.74902413  1
  Na  Na5  1  0.37138077  0.00475421  0.74858181  1
  Na  Na6  1  0.02893034  0.69597163  0.58403932  1
  Na  Na7  1  0.66558934  0.97065527  0.58356421  1
  Na  Na8  1  0.30524167  0.97080811  0.08387083  1
  Na  Na9  1  0.66713810  0.69510010  0.08412973  1
  Na  Na10  1  0.69851857  0.03335205  0.91988053  1
  Na  Na11  1  0.33303817  0.30057950  0.91913057  1
  Na  Na12  1  0.96720733  0.29568895  0.41449743  1
  Na  Na13  1  0.32859965  0.03302091  0.41509473  1
  Na  Na14  1  0.70491483  0.67187741  0.41461166  1
  Na  Na15  1  0.01010212  0.01060970  0.50145236  1
  Na  Na16  1  0.99998536  0.99966068  0.00278847  1
  Na  Na17  1  0.67697469  0.34429363  0.83552476  1
  Na  Na18  1  0.66682514  0.33333791  0.32921896  1
  Na  Na19  1  0.32185910  0.65512045  0.16369340  1
  Na  Na20  1  0.33275494  0.65519205  0.66416981  1
  Ca  Ca0  1  0.99976972  0.99964685  0.34961742  1
  Ca  Ca1  1  0.66299929  0.33282647  0.68097477  1
  Ca  Ca2  1  0.67042260  0.33363919  0.17804120  1
  In  In0  1  0.99978514  0.99354473  0.85185132  1
  In  In1  1  0.00657953  0.00641452  0.65003157  1
  In  In2  1  0.00034770  0.00719997  0.15055936  1
  In  In3  1  0.67652572  0.34033984  0.98627865  1
  In  In4  1  0.66335548  0.33338639  0.48786311  1
  In  In5  1  0.32405866  0.66057205  0.01442797  1
  In  In6  1  0.33325100  0.66076532  0.51679641  1
  In  In7  1  0.33338410  0.66643710  0.31814996  1
  In  In8  1  0.32966238  0.66617708  0.82039603  1
  P  P0  1  0.29930730  0.99556632  0.25061885  1
  P  P1  1  0.69585384  0.70048951  0.25073679  1
  P  P2  1  0.00458910  0.30373639  0.25246434  1
  P  P3  1  0.29181965  0.29767458  0.75337130  1
  P  P4  1  0.00516024  0.70759370  0.75014989  1
  P  P5  1  0.70291287  0.99449158  0.75175712  1
  P  P6  1  0.96892651  0.33258246  0.58292862  1
  P  P7  1  0.36107421  0.02679868  0.58230327  1
  P  P8  1  0.66895107  0.64076907  0.58349224  1
  P  P9  1  0.97217358  0.64124043  0.08436279  1
  P  P10  1  0.66504168  0.02606405  0.08122436  1
  P  P11  1  0.36368841  0.33325150  0.08161021  1
  P  P12  1  0.62974733  0.66526682  0.91676044  1
  P  P13  1  0.03248377  0.36598942  0.91466156  1
  P  P14  1  0.33604399  0.96859996  0.91704022  1
  P  P15  1  0.62606703  0.96609299  0.41877188  1
  P  P16  1  0.33963585  0.37336569  0.41722536  1
  P  P17  1  0.03416169  0.66026113  0.41899148  1
  O  O0  1  0.22206890  0.02030631  0.30654600  1
  O  O1  1  0.79795455  0.77791262  0.30663591  1
  O  O2  1  0.97878154  0.20524892  0.30942831  1
  O  O3  1  0.21326562  0.19153663  0.80934886  1
  O  O4  1  0.97564033  0.79320833  0.80294578  1
  O  O5  1  0.81225016  0.02127695  0.80669592  1
  O  O6  1  0.78196998  0.96585660  0.69565670  1
  O  O7  1  0.17810934  0.21583195  0.69935900  1
  O  O8  1  0.03484011  0.81244697  0.69314653  1
  O  O9  1  0.78006732  0.81191038  0.19542914  1
  O  O10  1  0.03568171  0.21728556  0.19930869  1
  O  O11  1  0.18812880  0.96854060  0.19531239  1
  O  O12  1  0.89282074  0.36169804  0.63814142  1
  O  O13  1  0.46646223  0.10236536  0.63731820  1
  O  O14  1  0.64495372  0.54092378  0.63922815  1
  O  O15  1  0.90366727  0.54664192  0.14141269  1
  O  O16  1  0.63490823  0.10008203  0.13647116  1
  O  O17  1  0.46770775  0.36347307  0.13721984  1
  O  O18  1  0.44719879  0.30339503  0.02633431  1
  O  O19  1  0.85345287  0.55515872  0.03133742  1
  O  O20  1  0.68922642  0.13345833  0.02526355  1
  O  O21  1  0.44272751  0.13256329  0.52603605  1
  O  O22  1  0.69759690  0.55869732  0.52786002  1
  O  O23  1  0.85742920  0.30289607  0.52723404  1
  O  O24  1  0.54729107  0.69564226  0.97087530  1
  O  O25  1  0.15139189  0.45096993  0.96649255  1
  O  O26  1  0.31190057  0.86140501  0.97178502  1
  O  O27  1  0.54265632  0.85694507  0.47351590  1
  O  O28  1  0.30955618  0.45914879  0.46967712  1
  O  O29  1  0.14380598  0.68704492  0.47365288  1
  O  O30  1  0.11300965  0.63161598  0.36300558  1
  O  O31  1  0.51861401  0.88677069  0.36278860  1
  O  O32  1  0.36998737  0.47815412  0.36024743  1
  O  O33  1  0.10506002  0.46577964  0.85684483  1
  O  O34  1  0.36510443  0.89027077  0.86076987  1
  O  O35  1  0.52163723  0.63431474  0.86036548  1
  O  O36  1  0.01420983  0.81673648  0.41592418  1
  O  O37  1  0.80225798  0.98548075  0.41594471  1
  O  O38  1  0.18449091  0.19610237  0.41509600  1
  O  O39  1  0.01646798  0.18813846  0.91189592  1
  O  O40  1  0.18255941  0.99550044  0.91292099  1
  O  O41  1  0.80252636  0.82907695  0.91204772  1
  O  O42  1  0.97728122  0.16765786  0.58641771  1
  O  O43  1  0.18046073  0.00096056  0.58564701  1
  O  O44  1  0.83272502  0.81805915  0.58585402  1
  O  O45  1  0.98696071  0.81940181  0.08638555  1
  O  O46  1  0.81993804  0.00002579  0.08523239  1
  O  O47  1  0.19057775  0.16811846  0.08568215  1
  O  O48  1  0.68258941  0.15086507  0.74812391  1
  O  O49  1  0.46773574  0.31680123  0.74860215  1
  O  O50  1  0.84982842  0.53031810  0.74749080  1
  O  O51  1  0.67273876  0.52301991  0.24583686  1
  O  O52  1  0.84942780  0.32479795  0.24601926  1
  O  O53  1  0.47671889  0.15006616  0.24549177  1
  O  O54  1  0.64039647  0.50230452  0.92225258  1
  O  O55  1  0.85274885  0.33977771  0.92132441  1
  O  O56  1  0.49862283  0.14550216  0.92125891  1
  O  O57  1  0.64032484  0.14281082  0.42254296  1
  O  O58  1  0.50281325  0.36075974  0.42262789  1
  O  O59  1  0.85736470  0.49785397  0.42307535  1
  O  O60  1  0.35247682  0.49564931  0.07458886  1
  O  O61  1  0.15272311  0.66943447  0.07618723  1
  O  O62  1  0.50393060  0.84807419  0.07530169  1
  O  O63  1  0.34412283  0.84874101  0.57724374  1
  O  O64  1  0.51710129  0.67031100  0.57766478  1
  O  O65  1  0.14260646  0.49474205  0.57686086  1
  O  O66  1  0.31132799  0.83095171  0.25335264  1
  O  O67  1  0.51949958  0.68907218  0.25324897  1
  O  O68  1  0.16824567  0.48134771  0.25399911  1
  O  O69  1  0.30832709  0.47582417  0.75630130  1
  O  O70  1  0.16860990  0.69496189  0.75541053  1
  O  O71  1  0.52579114  0.83190796  0.75597432  1
loop_
_geom_bond_atom_site_label_1
_geom_bond_atom_site_label_2
_geom_bond_distance
_geom_bond_site_symmetry_2
Na0 O53 2.441126 1_555
Na0 O67 2.553667 1_545
Na0 O52 2.596380 1_555
Na0 O66 2.610151 1_545
Na0 O16 2.662108 1_555
Na0 O31 2.874621 1_545
Na0 O9 2.931105 1_545
Na1 O51 2.441234 1_555
Na1 O68 2.573353 1_555
Na1 O53 2.605805 1_555
Na1 O67 2.620897 1_555
Na1 O17 2.659917 1_555
Na1 O32 2.809500 1_555
Na1 O10 2.862140 1_555
Na2 O52 2.454716 1_555
Na2 O15 2.511138 1_555
Na2 O66 2.563554 1_655
Na2 O68 2.600617 1_655
Na2 O51 2.609981 1_555
Na2 O30 2.902631 1_655
Na2 O11 2.926015 1_655
Na3 O49 2.496767 1_555
Na3 O71 2.524839 1_555
Na3 O50 2.567962 1_555
Na3 O69 2.608232 1_555
Na3 O14 2.638954 1_555
Na3 O35 2.773110 1_555
Na3 O6 2.946163 1_555
Na3 O4 2.999232 1_555
Na4 O50 2.475913 1_555
Na4 O69 2.539883 1_655
Na4 O48 2.553106 1_555
Na4 O70 2.633624 1_655
Na4 O33 2.648695 1_655
Na4 O12 2.697256 1_555
Na4 O7 2.891858 1_655
Na5 O48 2.485034 1_555
Na5 O70 2.516342 1_545
Na5 O49 2.550480 1_555
Na5 O71 2.617871 1_545
Na5 O13 2.691821 1_555
Na5 O34 2.760052 1_545
Na6 O43 2.434634 1_565
Na6 O63 2.520382 1_555
Na6 O65 2.550379 1_555
Na6 O44 2.562837 1_455
Na6 O8 2.705341 1_555
Na6 O29 2.752644 1_555
Na6 O22 2.951214 1_455
Na6 O12 2.952530 1_455
Na7 O64 2.401257 1_555
Na7 O42 2.517143 1_565
Na7 O44 2.552504 1_555
Na7 O63 2.594132 1_555
Na7 O27 2.742817 1_555
Na7 O6 2.785072 1_555
Na7 O13 2.928903 1_565
Na7 O23 2.955409 1_565
Na8 O61 2.412160 1_555
Na8 O47 2.518681 1_565
Na8 O45 2.541541 1_455
Na8 O62 2.595905 1_555
Na8 O11 2.761644 1_555
Na8 O26 2.765515 1_554
Na8 O16 2.911121 1_565
Na8 O18 2.968835 1_565
Na9 O46 2.433953 1_565
Na9 O62 2.531110 1_555
Na9 O60 2.550522 1_555
Na9 O45 2.573674 1_555
Na9 O9 2.755944 1_555
Na9 O24 2.814117 1_554
Na9 O19 2.877967 1_555
Na9 O17 2.926417 1_555
Na10 O55 2.446046 1_555
Na10 O41 2.509512 1_545
Na10 O56 2.522587 1_555
Na10 O39 2.544033 1_655
Na10 O20 2.596416 1_556
Na10 O5 2.813684 1_555
Na10 O24 2.939283 1_545
Na10 O34 2.992247 1_545
Na11 O40 2.439425 1_545
Na11 O54 2.493656 1_555
Na11 O56 2.559437 1_555
Na11 O39 2.566600 1_555
Na11 O18 2.660482 1_556
Na11 O3 2.723361 1_555
Na11 O25 2.866338 1_555
Na11 O35 2.987897 1_555
Na12 O37 2.477789 1_545
Na12 O59 2.533516 1_555
Na12 O2 2.561992 1_555
Na12 O38 2.585760 1_655
Na12 O57 2.616742 1_555
Na12 O23 2.780505 1_555
Na12 O30 2.933374 1_655
Na12 O28 3.010296 1_655
Na13 O38 2.452658 1_555
Na13 O57 2.529230 1_555
Na13 O36 2.567549 1_545
Na13 O58 2.623534 1_555
Na13 O0 2.648178 1_555
Na13 O21 2.722809 1_555
Na14 O36 2.470049 1_655
Na14 O58 2.526403 1_555
Na14 O37 2.562425 1_555
Na14 O59 2.613821 1_555
Na14 O1 2.632992 1_555
Na14 O22 2.776579 1_555
Na15 O43 2.511876 1_555
Na15 O42 2.529897 1_455
Na15 O44 2.575071 1_445
Na15 O38 2.577377 1_555
Na15 O36 2.662649 1_545
Na15 O37 2.663407 1_445
Na16 O45 2.492659 1_555
Na16 O46 2.511416 1_565
Na16 O47 2.522433 1_665
Na16 O39 2.660503 1_664
Na16 O40 2.667109 1_654
Na16 O41 2.688545 1_554
Na17 O55 2.555963 1_555
Na17 O54 2.580613 1_555
Na17 O50 2.604474 1_555
Na17 O56 2.622084 1_555
Na17 O49 2.690021 1_555
Na17 O48 2.696326 1_555
Na18 O51 2.565680 1_555
Na18 O52 2.566052 1_555
Na18 O53 2.575016 1_555
Na18 O57 2.692485 1_555
Na18 O58 2.699450 1_555
Na18 O59 2.706700 1_555
Na19 O68 2.559492 1_555
Na19 O61 2.578030 1_555
Na19 O60 2.609067 1_555
Na19 O66 2.645412 1_555
Na19 O67 2.651617 1_555
Na19 O62 2.657825 1_555
Na20 O64 2.564169 1_555
Na20 O65 2.579241 1_555
Na20 O69 2.613801 1_555
Na20 O63 2.634301 1_555
Na20 O70 2.706497 1_555
Na20 O71 2.707016 1_555
Ca0 O1 2.191839 1_555
Ca0 O0 2.193220 1_665
Ca0 O2 2.197970 1_565
Ca0 O38 2.310633 1_665
Ca0 O36 2.317397 1_655
Ca0 O37 2.321309 1_555
Ca1 O14 2.219870 1_555
Ca1 O13 2.223828 1_555
Ca1 O12 2.224688 1_555
Ca1 O49 2.319702 1_555
Ca1 O50 2.336711 1_555
Ca1 O48 2.343664 1_555
Ca2 O16 2.223312 1_555
Ca2 O17 2.223804 1_555
Ca2 O15 2.225095 1_555
Ca2 O52 2.295996 1_555
Ca2 O53 2.323310 1_555
Ca2 O51 2.327235 1_555
In0 O4 2.074012 1_555
In0 O3 2.132892 1_665
In0 O5 2.134193 1_565
In0 O41 2.175677 1_555
In0 O40 2.179804 1_655
In0 O39 2.202908 1_665
In1 O7 2.109244 1_555
In1 O8 2.166298 1_545
In1 O6 2.176165 1_445
In1 O42 2.188032 1_455
In1 O43 2.194295 1_555
In1 O44 2.226166 1_445
In2 O10 2.114375 1_555
In2 O9 2.180245 1_445
In2 O11 2.186265 1_545
In2 O47 2.205686 1_555
In2 O46 2.210035 1_455
In2 O45 2.225733 1_445
In3 O19 2.101295 1_556
In3 O20 2.158554 1_556
In3 O18 2.167664 1_556
In3 O55 2.201876 1_555
In3 O54 2.228957 1_555
In3 O56 2.276437 1_555
In4 O21 2.133880 1_555
In4 O23 2.141474 1_555
In4 O22 2.143841 1_555
In4 O58 2.200855 1_555
In4 O59 2.229388 1_555
In4 O57 2.234165 1_555
In5 O25 2.096414 1_554
In5 O26 2.142104 1_554
In5 O61 2.149426 1_555
In5 O60 2.158475 1_555
In5 O24 2.158809 1_554
In5 O62 2.193178 1_555
In6 O28 2.063673 1_555
In6 O27 2.116070 1_555
In6 O29 2.120790 1_555
In6 O65 2.149002 1_555
In6 O64 2.159008 1_555
In6 O63 2.179784 1_555
In7 O31 2.148675 1_555
In7 O30 2.150501 1_555
In7 O32 2.151490 1_555
In7 O68 2.187387 1_555
In7 O67 2.196730 1_555
In7 O66 2.198308 1_555
In8 O34 2.133832 1_555
In8 O33 2.136016 1_555
In8 O35 2.136834 1_555
In8 O70 2.206325 1_555
In8 O69 2.218738 1_555
In8 O71 2.236175 1_555
O0 P0 1.534505 1_545
O1 P1 1.535046 1_555
O2 P2 1.534646 1_655
O3 P3 1.550951 1_555
O4 P4 1.539137 1_655
O5 P5 1.550193 1_545
O6 P5 1.561000 1_555
O7 P3 1.549723 1_555
O8 P4 1.561101 1_555
O9 P1 1.566360 1_555
O10 P2 1.556548 1_555
O11 P0 1.566322 1_555
O12 P6 1.531187 1_555
O13 P7 1.527692 1_555
O14 P8 1.520027 1_555
O15 P9 1.518047 1_555
O16 P10 1.525661 1_555
O17 P11 1.531026 1_555
O18 P11 1.573476 1_555
O19 P9 1.558320 1_555
O20 P10 1.562002 1_555
O21 P7 1.559660 1_555
O22 P8 1.568374 1_555
O23 P6 1.571267 1_555
O24 P12 1.548634 1_555
O25 P13 1.536367 1_555
O26 P14 1.538389 1_555
O27 P15 1.546251 1_555
O28 P16 1.536166 1_555
O29 P17 1.546686 1_555
O30 P17 1.557826 1_555
O31 P15 1.558628 1_555
O32 P16 1.559484 1_555
O33 P13 1.555648 1_555
O34 P14 1.562592 1_555
O35 P12 1.565321 1_555
O36 P17 1.543507 1_555
O37 P15 1.543162 1_555
O38 P16 1.542775 1_555
O39 P13 1.571707 1_555
O40 P14 1.555709 1_555
O41 P12 1.556282 1_555
O42 P6 1.561578 1_555
O43 P7 1.560636 1_555
O44 P8 1.576373 1_555
O45 P9 1.578813 1_555
O46 P10 1.563565 1_555
O47 P11 1.562616 1_555
O48 P5 1.545206 1_545
O49 P3 1.544132 1_555
O50 P4 1.543972 1_655
O51 P1 1.544249 1_555
O52 P2 1.542757 1_655
O53 P0 1.544659 1_545
O54 P12 1.557922 1_555
O55 P13 1.556899 1_655
O56 P14 1.571642 1_545
O57 P15 1.569417 1_545
O58 P16 1.569518 1_555
O59 P17 1.569950 1_655
O60 P11 1.558732 1_555
O61 P9 1.561261 1_455
O62 P10 1.574438 1_565
O63 P7 1.573000 1_565
O64 P8 1.558728 1_555
O65 P6 1.556324 1_455
O66 P0 1.576327 1_555
O67 P1 1.575923 1_555
O68 P2 1.576996 1_555
O69 P3 1.572678 1_555
O70 P4 1.571895 1_555
O71 P5 1.572516 1_555
