# generated using pymatgen
data_Nd2O3
_symmetry_space_group_name_H-M   'P 1'
_cell_length_a   3.84716219
_cell_length_b   3.84716246
_cell_length_c   6.02041543
_cell_angle_alpha   90.00000000
_cell_angle_beta   90.00000000
_cell_angle_gamma   119.99999775
_symmetry_Int_Tables_number   1
_chemical_formula_structural   Nd2O3
_chemical_formula_sum   'Nd2 O3'
_cell_volume   77.16815627
_cell_formula_units_Z   1
loop_
 _symmetry_equiv_pos_site_id
 _symmetry_equiv_pos_as_xyz
  1  'x, y, z'
loop_
 _atom_site_type_symbol
 _atom_site_label
 _atom_site_symmetry_multiplicity
 _atom_site_fract_x
 _atom_site_fract_y
 _atom_site_fract_z
 _atom_site_occupancy
  Nd  Nd0  1  0.66666700  0.33333300  0.75213994  1
  Nd  Nd1  1  0.33333300  0.66666700  0.24786006  1
  O  O0  1  0.66666700  0.33333300  0.35483716  1
  O  O1  1  0.33333300  0.66666700  0.64516284  1
  O  O2  1  -0.00000000  0.00000000  -0.00000000  1
loop_
_geom_bond_atom_site_label_1
_geom_bond_atom_site_label_2
_geom_bond_distance
_geom_bond_site_symmetry_2
Nd0 O1 2.312648 1_655
Nd0 O1 2.312648 1_545
Nd0 O1 2.312654 1_555
Nd0 O0 2.391928 1_555
Nd0 O2 2.675867 1_656
Nd0 O2 2.675870 1_556
Nd0 O2 2.675870 1_666
Nd1 O0 2.312648 1_455
Nd1 O0 2.312648 1_565
Nd1 O0 2.312654 1_555
Nd1 O1 2.391928 1_555
Nd1 O2 2.675867 1_565
Nd1 O2 2.675870 1_665
Nd1 O2 2.675870 1_555
