# generated using pymatgen
data_Sc2V3Ge4
_symmetry_space_group_name_H-M   'P 1'
_cell_length_a   6.62059328
_cell_length_b   6.79020060
_cell_length_c   12.79300531
_cell_angle_alpha   90.00000000
_cell_angle_beta   90.00000000
_cell_angle_gamma   90.00000000
_symmetry_Int_Tables_number   1
_chemical_formula_structural   Sc2V3Ge4
_chemical_formula_sum   'Sc8 V12 Ge16'
_cell_volume   575.11155533
_cell_formula_units_Z   4
loop_
 _symmetry_equiv_pos_site_id
 _symmetry_equiv_pos_as_xyz
  1  'x, y, z'
loop_
 _atom_site_type_symbol
 _atom_site_label
 _atom_site_symmetry_multiplicity
 _atom_site_fract_x
 _atom_site_fract_y
 _atom_site_fract_z
 _atom_site_occupancy
  Sc  Sc0  1  0.00781409  0.17515701  0.09395397  1
  Sc  Sc1  1  0.50781409  0.32484299  0.40604603  1
  Sc  Sc2  1  0.49218591  0.67515701  0.90604603  1
  Sc  Sc3  1  0.99218591  0.82484299  0.59395397  1
  Sc  Sc4  1  0.99218591  0.82484299  0.90604603  1
  Sc  Sc5  1  0.49218591  0.67515701  0.59395397  1
  Sc  Sc6  1  0.50781409  0.32484299  0.09395397  1
  Sc  Sc7  1  0.00781409  0.17515701  0.40604603  1
  V  V0  1  0.66455306  0.98536983  0.25000000  1
  V  V1  1  0.16455306  0.51463017  0.25000000  1
  V  V2  1  0.83544694  0.48536983  0.75000000  1
  V  V3  1  0.33544694  0.01463017  0.75000000  1
  V  V4  1  0.84114637  0.66679655  0.12665422  1
  V  V5  1  0.34114637  0.83320345  0.37334578  1
  V  V6  1  0.65885363  0.16679655  0.87334578  1
  V  V7  1  0.15885363  0.33320345  0.62665422  1
  V  V8  1  0.15885363  0.33320345  0.87334578  1
  V  V9  1  0.65885363  0.16679655  0.62665422  1
  V  V10  1  0.34114637  0.83320345  0.12665422  1
  V  V11  1  0.84114637  0.66679655  0.37334578  1
  Ge  Ge0  1  0.80885371  0.35648249  0.25000000  1
  Ge  Ge1  1  0.30885371  0.14351751  0.25000000  1
  Ge  Ge2  1  0.69114629  0.85648249  0.75000000  1
  Ge  Ge3  1  0.19114629  0.64351751  0.75000000  1
  Ge  Ge4  1  0.03743476  0.87808452  0.25000000  1
  Ge  Ge5  1  0.53743476  0.62191548  0.25000000  1
  Ge  Ge6  1  0.46256524  0.37808452  0.75000000  1
  Ge  Ge7  1  0.96256524  0.12191548  0.75000000  1
  Ge  Ge8  1  0.82285436  0.45836915  0.95727045  1
  Ge  Ge9  1  0.32285436  0.04163085  0.54272955  1
  Ge  Ge10  1  0.67714564  0.95836915  0.04272955  1
  Ge  Ge11  1  0.17714564  0.54163085  0.45727045  1
  Ge  Ge12  1  0.17714564  0.54163085  0.04272955  1
  Ge  Ge13  1  0.67714564  0.95836915  0.45727045  1
  Ge  Ge14  1  0.32285436  0.04163085  0.95727045  1
  Ge  Ge15  1  0.82285436  0.45836915  0.54272955  1
loop_
_geom_bond_atom_site_label_1
_geom_bond_atom_site_label_2
_geom_bond_distance
_geom_bond_site_symmetry_2
Ge0 Ge5 2.545091 1_555
Ge0 V1 2.588225 1_655
Ge0 V4 2.641122 1_555
Ge0 V11 2.641122 1_555
Ge0 Sc7 2.690029 1_655
Ge0 Sc0 2.690029 1_655
Ge0 V0 2.694949 1_545
Ge0 Sc1 2.829073 1_555
Ge0 Sc6 2.829073 1_555
Ge1 Ge4 2.545091 1_545
Ge1 V0 2.588225 1_545
Ge1 V10 2.641122 1_545
Ge1 V5 2.641122 1_545
Ge1 Sc1 2.690029 1_555
Ge1 Sc6 2.690029 1_555
Ge1 V1 2.694949 1_555
Ge1 Sc0 2.829073 1_555
Ge1 Sc7 2.829073 1_555
Ge2 Ge7 2.545091 1_565
Ge2 V3 2.588225 1_565
Ge2 V6 2.641122 1_565
Ge2 V9 2.641122 1_565
Ge2 Sc5 2.690029 1_555
Ge2 Sc2 2.690029 1_555
Ge2 V2 2.694949 1_555
Ge2 Sc4 2.829073 1_555
Ge2 Sc3 2.829073 1_555
Ge3 Ge6 2.545091 1_555
Ge3 V2 2.588225 1_455
Ge3 V8 2.641122 1_555
Ge3 V7 2.641122 1_555
Ge3 Sc3 2.690029 1_455
Ge3 Sc4 2.690029 1_455
Ge3 V3 2.694949 1_565
Ge3 Sc5 2.829073 1_555
Ge3 Sc2 2.829073 1_555
Ge4 V11 2.497422 1_455
Ge4 V4 2.497422 1_455
Ge4 V0 2.573940 1_455
Ge4 V10 2.574094 1_555
Ge4 V5 2.574094 1_555
Ge4 V1 2.607481 1_555
Ge4 Sc7 2.844764 1_565
Ge4 Sc0 2.844764 1_565
Ge5 V5 2.497422 1_555
Ge5 V10 2.497422 1_555
Ge5 V1 2.573940 1_555
Ge5 V11 2.574094 1_555
Ge5 V4 2.574094 1_555
Ge5 V0 2.607481 1_555
Ge5 Sc6 2.844764 1_555
Ge5 Sc1 2.844764 1_555
Ge6 V9 2.497422 1_555
Ge6 V6 2.497422 1_555
Ge6 V2 2.573940 1_555
Ge6 V8 2.574094 1_555
Ge6 V7 2.574094 1_555
Ge6 V3 2.607481 1_555
Ge6 Sc2 2.844764 1_555
Ge6 Sc5 2.844764 1_555
Ge7 V7 2.497422 1_655
Ge7 V8 2.497422 1_655
Ge7 V3 2.573940 1_655
Ge7 V9 2.574094 1_555
Ge7 V6 2.574094 1_555
Ge7 V2 2.607481 1_555
Ge7 Sc4 2.844764 1_545
Ge7 Sc3 2.844764 1_545
Ge8 V6 2.500279 1_555
Ge8 V4 2.590987 1_556
Ge8 V8 2.612186 1_655
Ge8 V2 2.659250 1_555
Ge8 Sc2 2.718273 1_555
Ge8 Sc4 2.806873 1_555
Ge8 Sc6 2.868797 1_556
Ge8 Sc0 2.873199 1_656
Ge9 V7 2.500279 1_555
Ge9 V5 2.590987 1_545
Ge9 V9 2.612186 1_555
Ge9 V3 2.659250 1_555
Ge9 Sc3 2.718273 1_445
Ge9 Sc5 2.806873 1_545
Ge9 Sc7 2.868797 1_555
Ge9 Sc1 2.873199 1_555
Ge10 V4 2.500279 1_555
Ge10 V6 2.590987 1_564
Ge10 V10 2.612186 1_555
Ge10 Ge14 2.648928 1_564
Ge10 V0 2.659250 1_555
Ge10 Sc0 2.718273 1_665
Ge10 Sc6 2.806873 1_565
Ge10 Sc4 2.868797 1_554
Ge10 Sc2 2.873199 1_554
Ge11 V5 2.500279 1_555
Ge11 V7 2.590987 1_555
Ge11 V11 2.612186 1_455
Ge11 Ge15 2.648928 1_455
Ge11 V1 2.659250 1_555
Ge11 Sc1 2.718273 1_555
Ge11 Sc7 2.806873 1_555
Ge11 Sc5 2.868797 1_555
Ge11 Sc3 2.873199 1_455
Ge12 V10 2.500279 1_555
Ge12 V8 2.590987 1_554
Ge12 V4 2.612186 1_455
Ge12 Ge8 2.648928 1_454
Ge12 V1 2.659250 1_555
Ge12 Sc6 2.718273 1_555
Ge12 Sc0 2.806873 1_555
Ge12 Sc2 2.868797 1_554
Ge12 Sc4 2.873199 1_454
Ge13 V11 2.500279 1_555
Ge13 V9 2.590987 1_565
Ge13 V5 2.612186 1_555
Ge13 Ge9 2.648928 1_565
Ge13 V0 2.659250 1_555
Ge13 Sc7 2.718273 1_665
Ge13 Sc1 2.806873 1_565
Ge13 Sc3 2.868797 1_555
Ge13 Sc5 2.873199 1_555
Ge14 V8 2.500279 1_555
Ge14 V10 2.590987 1_546
Ge14 V6 2.612186 1_555
Ge14 V3 2.659250 1_555
Ge14 Sc4 2.718273 1_445
Ge14 Sc2 2.806873 1_545
Ge14 Sc0 2.868797 1_556
Ge14 Sc6 2.873199 1_556
Ge15 V9 2.500279 1_555
Ge15 V11 2.590987 1_555
Ge15 V7 2.612186 1_655
Ge15 V2 2.659250 1_555
Ge15 Sc5 2.718273 1_555
Ge15 Sc3 2.806873 1_555
Ge15 Sc1 2.868797 1_555
Ge15 Sc7 2.873199 1_655
