# generated using pymatgen
data_NaMgMn4O8
_symmetry_space_group_name_H-M   'P 1'
_cell_length_a   6.13095497
_cell_length_b   6.13087171
_cell_length_c   6.19226134
_cell_angle_alpha   88.50993338
_cell_angle_beta   119.99311953
_cell_angle_gamma   121.41131625
_symmetry_Int_Tables_number   1
_chemical_formula_structural   NaMgMn4O8
_chemical_formula_sum   'Na1 Mg1 Mn4 O8'
_cell_volume   163.15314988
_cell_formula_units_Z   1
loop_
 _symmetry_equiv_pos_site_id
 _symmetry_equiv_pos_as_xyz
  1  'x, y, z'
loop_
 _atom_site_type_symbol
 _atom_site_label
 _atom_site_symmetry_multiplicity
 _atom_site_fract_x
 _atom_site_fract_y
 _atom_site_fract_z
 _atom_site_occupancy
  Na  Na0  1  0.50002800  0.99997900  0.50002300  1
  Mg  Mg0  1  0.00001000  0.49996900  0.50000400  1
  Mn  Mn0  1  0.99999900  0.99998800  0.99995700  1
  Mn  Mn1  1  0.99996700  0.49997300  0.99999300  1
  Mn  Mn2  1  0.50000600  0.00003900  0.00000500  1
  Mn  Mn3  1  0.50003200  0.50002300  0.00005700  1
  O  O0  1  0.04255000  0.74633100  0.78878600  1
  O  O1  1  0.03967800  0.30089000  0.79532700  1
  O  O2  1  0.54801500  0.24952500  0.79743500  1
  O  O3  1  0.49454500  0.75574300  0.79534300  1
  O  O4  1  0.45195100  0.75047200  0.20254700  1
  O  O5  1  0.50545800  0.24426800  0.20466100  1
  O  O6  1  0.95740300  0.25366600  0.21117100  1
  O  O7  1  0.96035700  0.69913900  0.20470700  1
loop_
_geom_bond_atom_site_label_1
_geom_bond_atom_site_label_2
_geom_bond_distance
_geom_bond_site_symmetry_2
Na0 O4 2.225692 1_555
Na0 O2 2.225889 1_565
Na0 O3 2.335380 1_555
Na0 O5 2.335757 1_565
Na0 O1 2.336276 1_665
Na0 O7 2.336331 1_455
Mg0 O1 2.154464 1_555
Mg0 O7 2.154677 1_455
Mg0 O3 2.155441 1_555
Mg0 O5 2.155500 1_455
Mg0 O6 2.193062 1_455
Mg0 O0 2.193318 1_555
Mn0 O5 2.187887 1_666
Mn0 O1 2.187890 1_665
Mn0 O3 2.187933 1_555
Mn0 O7 2.188104 1_556
Mn0 O0 2.250801 1_655
Mn0 O6 2.251286 1_566
Mn1 O2 1.949184 1_555
Mn1 O4 1.949340 1_656
Mn1 O1 1.963130 1_655
Mn1 O7 1.963225 1_556
Mn1 O6 1.971332 1_556
Mn1 O0 1.971680 1_655
Mn2 O2 1.949285 1_554
Mn2 O4 1.949525 1_545
Mn2 O5 1.962984 1_555
Mn2 O3 1.963286 1_544
Mn2 O6 1.971318 1_555
Mn2 O0 1.971587 1_544
Mn3 O5 1.993449 1_555
Mn3 O7 1.993666 1_555
Mn3 O3 1.993736 1_554
Mn3 O1 1.993765 1_554
Mn3 O4 2.226709 1_555
Mn3 O2 2.227006 1_554
