# generated using pymatgen
data_Mn2NiO6
_symmetry_space_group_name_H-M   'P 1'
_cell_length_a   5.01128075
_cell_length_b   5.01128075
_cell_length_c   10.01321300
_cell_angle_alpha   90.00000000
_cell_angle_beta   90.00000000
_cell_angle_gamma   120.04774300
_symmetry_Int_Tables_number   1
_chemical_formula_structural   Mn2NiO6
_chemical_formula_sum   'Mn4 Ni2 O12'
_cell_volume   217.66691343
_cell_formula_units_Z   2
loop_
 _symmetry_equiv_pos_site_id
 _symmetry_equiv_pos_as_xyz
  1  'x, y, z'
loop_
 _atom_site_type_symbol
 _atom_site_label
 _atom_site_symmetry_multiplicity
 _atom_site_fract_x
 _atom_site_fract_y
 _atom_site_fract_z
 _atom_site_occupancy
  Mn  Mn0  1  0.33338600  0.66661400  0.00000000  1
  Mn  Mn1  1  0.16661400  0.83338600  0.50000000  1
  Mn  Mn2  1  0.66661400  0.33338600  0.00000000  1
  Mn  Mn3  1  0.83338600  0.16661400  0.50000000  1
  Ni  Ni0  1  0.00000000  0.00000000  0.00000000  1
  Ni  Ni1  1  0.50000000  0.50000000  0.50000000  1
  O  O0  1  0.50018200  0.17255800  0.59554600  1
  O  O1  1  0.49981800  0.82744200  0.40445400  1
  O  O2  1  0.99981800  0.32744200  0.09554600  1
  O  O3  1  0.67255800  0.00018200  0.90445400  1
  O  O4  1  0.32756100  0.32756100  0.90454200  1
  O  O5  1  0.17243900  0.17243900  0.40454200  1
  O  O6  1  0.17255800  0.50018200  0.59554600  1
  O  O7  1  0.82744200  0.49981800  0.40445400  1
  O  O8  1  0.32744200  0.99981800  0.09554600  1
  O  O9  1  0.67243900  0.67243900  0.09545800  1
  O  O10  1  0.82756100  0.82756100  0.59545800  1
  O  O11  1  0.00018200  0.67255800  0.90445400  1
loop_
_geom_bond_atom_site_label_1
_geom_bond_atom_site_label_2
_geom_bond_distance
_geom_bond_site_symmetry_2
Mn0 O4 1.936936 1_554
Mn0 O9 1.936936 1_555
Mn0 O2 1.937320 1_455
Mn0 O3 1.937320 1_564
Mn0 O8 1.937570 1_555
Mn0 O11 1.937570 1_554
Mn1 O10 1.936936 1_455
Mn1 O5 1.936936 1_565
Mn1 O7 1.937320 1_455
Mn1 O0 1.937320 1_565
Mn1 O6 1.937570 1_555
Mn1 O1 1.937570 1_555
Mn2 O4 1.936936 1_554
Mn2 O9 1.936936 1_555
Mn2 O8 1.937320 1_545
Mn2 O11 1.937320 1_654
Mn2 O2 1.937570 1_555
Mn2 O3 1.937570 1_554
Mn3 O10 1.936936 1_545
Mn3 O5 1.936936 1_655
Mn3 O1 1.937320 1_545
Mn3 O6 1.937320 1_655
Mn3 O0 1.937570 1_555
Mn3 O7 1.937570 1_555
Ni0 O9 1.898491 1_445
Ni0 O4 1.898491 1_554
Ni0 O8 1.899838 1_545
Ni0 O2 1.899838 1_455
Ni0 O11 1.899838 1_544
Ni0 O3 1.899838 1_454
Ni1 O10 1.898491 1_555
Ni1 O5 1.898491 1_555
Ni1 O6 1.899838 1_555
Ni1 O1 1.899838 1_555
Ni1 O0 1.899838 1_555
Ni1 O7 1.899838 1_555
