# generated using pymatgen
data_Nb2(PO4)3
_symmetry_space_group_name_H-M   'P 1'
_cell_length_a   8.91578300
_cell_length_b   8.88587600
_cell_length_c   15.24692225
_cell_angle_alpha   54.51645308
_cell_angle_beta   90.00000000
_cell_angle_gamma   90.00000000
_symmetry_Int_Tables_number   1
_chemical_formula_structural   Nb2(PO4)3
_chemical_formula_sum   'Nb8 P12 O48'
_cell_volume   983.59630009
_cell_formula_units_Z   4
loop_
 _symmetry_equiv_pos_site_id
 _symmetry_equiv_pos_as_xyz
  1  'x, y, z'
loop_
 _atom_site_type_symbol
 _atom_site_label
 _atom_site_symmetry_multiplicity
 _atom_site_fract_x
 _atom_site_fract_y
 _atom_site_fract_z
 _atom_site_occupancy
  Nb  Nb0  1  0.53161700  0.36782600  0.88268200  1
  Nb  Nb1  1  0.46660900  0.86672300  0.38252800  1
  Nb  Nb2  1  0.03161700  0.63217400  0.61731800  1
  Nb  Nb3  1  0.96660900  0.13327700  0.11747200  1
  Nb  Nb4  1  0.03339100  0.86672300  0.88252800  1
  Nb  Nb5  1  0.96838300  0.36782600  0.38268200  1
  Nb  Nb6  1  0.53339100  0.13327700  0.61747200  1
  Nb  Nb7  1  0.46838300  0.63217400  0.11731800  1
  P  P0  1  0.61152000  0.25189600  0.35589400  1
  P  P1  1  0.75052300  0.53345700  0.99757200  1
  P  P2  1  0.24947700  0.46654300  0.00242800  1
  P  P3  1  0.89100600  0.96593000  0.64360000  1
  P  P4  1  0.38848000  0.74810400  0.64410600  1
  P  P5  1  0.10899400  0.03407000  0.35640000  1
  P  P6  1  0.60899400  0.96593000  0.14360000  1
  P  P7  1  0.88848000  0.25189600  0.85589400  1
  P  P8  1  0.25052300  0.46654300  0.50242800  1
  P  P9  1  0.11152000  0.74810400  0.14410600  1
  P  P10  1  0.74947700  0.53345700  0.49757200  1
  P  P11  1  0.39100600  0.03407000  0.85640000  1
  O  O0  1  0.85676900  0.55928600  0.56693900  1
  O  O1  1  0.40687700  0.20489300  0.85808500  1
  O  O2  1  0.34571200  0.64026300  0.42584400  1
  O  O3  1  0.16430800  0.48676900  0.58260600  1
  O  O4  1  0.08584000  0.91294400  0.15044300  1
  O  O5  1  0.72016600  0.30273200  0.83663900  1
  O  O6  1  0.65048700  0.70698000  0.43268100  1
  O  O7  1  0.93619900  0.20163600  0.96668900  1
  O  O8  1  0.59312300  0.79510700  0.14191500  1
  O  O9  1  0.65428800  0.35973700  0.57415600  1
  O  O10  1  0.83569200  0.51323100  0.41739400  1
  O  O11  1  0.91416000  0.08705600  0.84955700  1
  O  O12  1  0.14323100  0.44071400  0.43306100  1
  O  O13  1  0.27983400  0.69726800  0.16336100  1
  O  O14  1  0.34951300  0.29302000  0.56731900  1
  O  O15  1  0.06380100  0.79836400  0.03331100  1
  O  O16  1  0.49324500  0.05941500  0.76686300  1
  O  O17  1  0.41416000  0.91294400  0.65044300  1
  O  O18  1  0.43998800  0.85801200  0.96429500  1
  O  O19  1  0.01470400  0.58394500  0.23129600  1
  O  O20  1  0.51470400  0.41605500  0.26870400  1
  O  O21  1  0.93998800  0.14198800  0.53570500  1
  O  O22  1  0.72542200  0.98355300  0.66600500  1
  O  O23  1  0.99324500  0.94058500  0.73313700  1
  O  O24  1  0.56380100  0.20163600  0.46668900  1
  O  O25  1  0.84951300  0.70698000  0.93268100  1
  O  O26  1  0.77983400  0.30273200  0.33663900  1
  O  O27  1  0.64323100  0.55928600  0.06693900  1
  O  O28  1  0.33569200  0.48676900  0.08260600  1
  O  O29  1  0.50675500  0.94058500  0.23313700  1
  O  O30  1  0.09312300  0.20489300  0.35808500  1
  O  O31  1  0.15428800  0.64026300  0.92584400  1
  O  O32  1  0.84571200  0.35973700  0.07415600  1
  O  O33  1  0.90687700  0.79510700  0.64191500  1
  O  O34  1  0.58584000  0.08705600  0.34955700  1
  O  O35  1  0.66430800  0.51323100  0.91739400  1
  O  O36  1  0.35676900  0.44071400  0.93306100  1
  O  O37  1  0.22016600  0.69726800  0.66336100  1
  O  O38  1  0.15048700  0.29302000  0.06731900  1
  O  O39  1  0.43619900  0.79836400  0.53331100  1
  O  O40  1  0.00675500  0.05941500  0.26686300  1
  O  O41  1  0.27457800  0.01644700  0.33399500  1
  O  O42  1  0.06001200  0.85801200  0.46429500  1
  O  O43  1  0.48529600  0.58394500  0.73129600  1
  O  O44  1  0.98529600  0.41605500  0.76870400  1
  O  O45  1  0.56001200  0.14198800  0.03570500  1
  O  O46  1  0.77457800  0.98355300  0.16600500  1
  O  O47  1  0.22542200  0.01644700  0.83399500  1
loop_
_geom_bond_atom_site_label_1
_geom_bond_atom_site_label_2
_geom_bond_distance
_geom_bond_site_symmetry_2
Nb0 O36 2.004307 1_555
Nb0 O43 2.010017 1_555
Nb0 O45 2.024632 1_556
Nb0 O1 2.025838 1_555
Nb0 O5 2.030952 1_555
Nb0 O35 2.035428 1_555
Nb1 O29 2.002871 1_555
Nb1 O6 2.006779 1_555
Nb1 O34 2.018247 1_565
Nb1 O2 2.025952 1_555
Nb1 O41 2.026324 1_565
Nb1 O39 2.026466 1_555
Nb2 O0 2.004307 1_455
Nb2 O44 2.010017 1_455
Nb2 O42 2.024632 1_555
Nb2 O33 2.025838 1_455
Nb2 O37 2.030952 1_555
Nb2 O3 2.035428 1_555
Nb3 O40 2.002871 1_655
Nb3 O38 2.006779 1_655
Nb3 O4 2.018247 1_645
Nb3 O32 2.025952 1_555
Nb3 O46 2.026324 1_545
Nb3 O7 2.026466 1_554
Nb4 O23 2.002871 1_455
Nb4 O25 2.006779 1_455
Nb4 O11 2.018247 1_465
Nb4 O31 2.025952 1_555
Nb4 O47 2.026324 1_565
Nb4 O15 2.026466 1_556
Nb5 O12 2.004307 1_655
Nb5 O19 2.010017 1_655
Nb5 O21 2.024632 1_555
Nb5 O30 2.025838 1_655
Nb5 O26 2.030952 1_555
Nb5 O10 2.035428 1_555
Nb6 O16 2.002871 1_555
Nb6 O14 2.006779 1_555
Nb6 O17 2.018247 1_545
Nb6 O9 2.025952 1_555
Nb6 O22 2.026324 1_545
Nb6 O24 2.026466 1_555
Nb7 O27 2.004307 1_555
Nb7 O20 2.010017 1_555
Nb7 O18 2.024632 1_554
Nb7 O8 2.025838 1_555
Nb7 O13 2.030952 1_555
Nb7 O28 2.035428 1_555
O0 P10 1.538876 1_555
O1 P11 1.539485 1_555
O2 P8 1.540786 1_555
O3 P8 1.540343 1_555
O4 P9 1.539982 1_555
O5 P7 1.545392 1_555
O6 P10 1.537606 1_555
O7 P7 1.535670 1_555
O8 P6 1.539485 1_555
O9 P10 1.540786 1_555
O10 P10 1.540343 1_555
O11 P7 1.539982 1_555
O12 P8 1.538876 1_555
O13 P9 1.545392 1_555
O14 P8 1.537606 1_555
O15 P9 1.535670 1_555
O16 P11 1.545434 1_555
O17 P4 1.539982 1_555
O18 P11 1.535129 1_565
O19 P9 1.545605 1_555
O20 P0 1.545605 1_555
O21 P3 1.535129 1_545
O22 P3 1.543637 1_555
O23 P3 1.545434 1_555
O24 P0 1.535670 1_555
O25 P1 1.537606 1_555
O26 P0 1.545392 1_555
O27 P1 1.538876 1_554
O28 P2 1.540343 1_555
O29 P6 1.545434 1_555
O30 P5 1.539485 1_555
O31 P2 1.540786 1_556
O32 P1 1.540786 1_554
O33 P3 1.539485 1_555
O34 P0 1.539982 1_555
O35 P1 1.540343 1_555
O36 P2 1.538876 1_556
O37 P4 1.545392 1_555
O38 P2 1.537606 1_555
O39 P4 1.535670 1_555
O40 P5 1.545434 1_555
O41 P5 1.543637 1_555
O42 P5 1.535129 1_565
O43 P4 1.545605 1_555
O44 P7 1.545605 1_555
O45 P6 1.535129 1_545
O46 P6 1.543637 1_555
O47 P11 1.543637 1_555
