# generated using pymatgen
data_K2HgH2Cl4O
_symmetry_space_group_name_H-M   'P 1'
_cell_length_a   8.48214600
_cell_length_b   9.04082500
_cell_length_c   11.92697600
_cell_angle_alpha   90.00000000
_cell_angle_beta   90.00000000
_cell_angle_gamma   90.00000000
_symmetry_Int_Tables_number   1
_chemical_formula_structural   K2HgH2Cl4O
_chemical_formula_sum   'K8 Hg4 H8 Cl16 O4'
_cell_volume   914.62728225
_cell_formula_units_Z   4
loop_
 _symmetry_equiv_pos_site_id
 _symmetry_equiv_pos_as_xyz
  1  'x, y, z'
loop_
 _atom_site_type_symbol
 _atom_site_label
 _atom_site_symmetry_multiplicity
 _atom_site_fract_x
 _atom_site_fract_y
 _atom_site_fract_z
 _atom_site_occupancy
  K  K0  1  0.60719100  0.50000000  0.19691100  1
  K  K1  1  0.10719100  0.50000000  0.30308900  1
  K  K2  1  0.39280900  0.50000000  0.80308900  1
  K  K3  1  0.89280900  0.50000000  0.69691100  1
  K  K4  1  0.57989000  0.00000000  0.15509300  1
  K  K5  1  0.07989000  0.00000000  0.34490700  1
  K  K6  1  0.42011000  0.00000000  0.84490700  1
  K  K7  1  0.92011000  0.00000000  0.65509300  1
  Hg  Hg0  1  0.50000000  0.22484200  0.50000000  1
  Hg  Hg1  1  0.00000000  0.77515800  0.00000000  1
  Hg  Hg2  1  0.50000000  0.77515800  0.50000000  1
  Hg  Hg3  1  0.00000000  0.22484200  0.00000000  1
  H  H0  1  0.58631400  0.29973700  0.97735000  1
  H  H1  1  0.08631400  0.70026300  0.52265000  1
  H  H2  1  0.41368600  0.29973700  0.02265000  1
  H  H3  1  0.91368600  0.70026300  0.47735000  1
  H  H4  1  0.41368600  0.70026300  0.02265000  1
  H  H5  1  0.91368600  0.29973700  0.47735000  1
  H  H6  1  0.58631400  0.70026300  0.97735000  1
  H  H7  1  0.08631400  0.29973700  0.52265000  1
  Cl  Cl0  1  0.79846100  0.00000000  0.92408400  1
  Cl  Cl1  1  0.29846100  0.00000000  0.57591600  1
  Cl  Cl2  1  0.20153900  0.00000000  0.07591600  1
  Cl  Cl3  1  0.70153900  0.00000000  0.42408400  1
  Cl  Cl4  1  0.73771700  0.50000000  0.94028600  1
  Cl  Cl5  1  0.23771700  0.50000000  0.55971400  1
  Cl  Cl6  1  0.26228300  0.50000000  0.05971400  1
  Cl  Cl7  1  0.76228300  0.50000000  0.44028600  1
  Cl  Cl8  1  0.11532700  0.25431700  0.81412500  1
  Cl  Cl9  1  0.61532700  0.74568300  0.68587500  1
  Cl  Cl10  1  0.88467300  0.25431700  0.18587500  1
  Cl  Cl11  1  0.38467300  0.74568300  0.31412500  1
  Cl  Cl12  1  0.88467300  0.74568300  0.18587500  1
  Cl  Cl13  1  0.38467300  0.25431700  0.31412500  1
  Cl  Cl14  1  0.11532700  0.74568300  0.81412500  1
  Cl  Cl15  1  0.61532700  0.25431700  0.68587500  1
  O  O0  1  0.50000000  0.23280400  0.00000000  1
  O  O1  1  0.00000000  0.76719600  0.50000000  1
  O  O2  1  0.50000000  0.76719600  0.00000000  1
  O  O3  1  0.00000000  0.23280400  0.50000000  1
loop_
_geom_bond_atom_site_label_1
_geom_bond_atom_site_label_2
_geom_bond_distance
_geom_bond_site_symmetry_2
K4 O2 2.882855 1_545
K4 O0 2.882855 1_555
K5 O3 2.882855 1_555
K5 O1 2.882855 1_545
K6 O0 2.882855 1_556
K6 O2 2.882855 1_546
K7 O3 2.882855 1_655
K7 O1 2.882855 1_645
H0 O0 0.987508 1_556
H1 O1 0.987508 1_555
H2 O0 0.987508 1_555
H3 O1 0.987508 1_655
H4 O2 0.987508 1_555
H5 O3 0.987508 1_655
H6 O2 0.987508 1_556
H7 O3 0.987508 1_555
Cl0 Hg1 2.806113 1_646
Cl0 Hg3 2.806113 1_656
Cl0 K4 3.320915 1_556
Cl0 K6 3.345285 1_555
Cl0 K7 3.370099 1_555
Cl1 Hg2 2.806113 1_545
Cl1 Hg0 2.806113 1_555
Cl1 K5 3.320915 1_555
Cl1 K7 3.345285 1_455
Cl1 K6 3.370099 1_555
Cl2 Hg3 2.806113 1_555
Cl2 Hg1 2.806113 1_545
Cl2 K6 3.320915 1_554
Cl2 K4 3.345285 1_555
Cl2 K5 3.370099 1_555
Cl3 Hg2 2.806113 1_545
Cl3 Hg0 2.806113 1_555
Cl3 K7 3.320915 1_555
Cl3 K5 3.345285 1_655
Cl3 K4 3.370099 1_555
Cl4 K3 3.186911 1_555
Cl4 K0 3.254845 1_556
Cl4 K2 3.352093 1_555
Cl5 K2 3.186911 1_555
Cl5 K1 3.254845 1_555
Cl5 K3 3.352093 1_455
Cl6 K1 3.186911 1_555
Cl6 K2 3.254845 1_554
Cl6 K0 3.352093 1_555
Cl7 K0 3.186911 1_555
Cl7 K3 3.254845 1_555
Cl7 K1 3.352093 1_655
Cl8 Hg3 2.437763 1_556
Cl8 K3 3.232715 1_455
Cl8 K2 3.238918 1_555
Cl8 K7 3.409706 1_455
Cl8 K6 3.479167 1_555
Cl9 Hg2 2.437763 1_555
Cl9 K2 3.232715 1_555
Cl9 K3 3.238918 1_555
Cl9 K6 3.409706 1_565
Cl9 K7 3.479167 1_565
Cl10 Hg3 2.437763 1_655
Cl10 K1 3.232715 1_655
Cl10 K0 3.238918 1_555
Cl10 K5 3.409706 1_655
Cl10 K4 3.479167 1_555
Cl11 Hg2 2.437763 1_555
Cl11 K0 3.232715 1_555
Cl11 K1 3.238918 1_555
Cl11 K4 3.409706 1_565
Cl11 K5 3.479167 1_565
Cl12 Hg1 2.437763 1_655
Cl12 K1 3.232715 1_655
Cl12 K0 3.238918 1_555
Cl12 K5 3.409706 1_665
Cl12 K4 3.479167 1_565
Cl13 Hg0 2.437763 1_555
Cl13 K0 3.232715 1_555
Cl13 K1 3.238918 1_555
Cl13 K4 3.409706 1_555
Cl13 K5 3.479167 1_555
Cl14 Hg1 2.437763 1_556
Cl14 K3 3.232715 1_455
Cl14 K2 3.238918 1_555
Cl14 K7 3.409706 1_465
Cl14 K6 3.479167 1_565
Cl15 Hg0 2.437763 1_555
Cl15 K2 3.232715 1_555
Cl15 K3 3.238918 1_555
Cl15 K6 3.409706 1_555
Cl15 K7 3.479167 1_555
