# generated using pymatgen
data_Na9Nb4Zn8P9(SO8)9
_symmetry_space_group_name_H-M   'P 1'
_cell_length_a   8.81947247
_cell_length_b   8.79918607
_cell_length_c   22.59926060
_cell_angle_alpha   90.35042428
_cell_angle_beta   89.88428366
_cell_angle_gamma   120.02023422
_symmetry_Int_Tables_number   1
_chemical_formula_structural   Na9Nb4Zn8P9(SO8)9
_chemical_formula_sum   'Na9 Nb4 Zn8 P9 S9 O72'
_cell_volume   1518.49354477
_cell_formula_units_Z   1
loop_
 _symmetry_equiv_pos_site_id
 _symmetry_equiv_pos_as_xyz
  1  'x, y, z'
loop_
 _atom_site_type_symbol
 _atom_site_label
 _atom_site_symmetry_multiplicity
 _atom_site_fract_x
 _atom_site_fract_y
 _atom_site_fract_z
 _atom_site_occupancy
  Na  Na0  1  0.66101945  0.96458142  0.58316398  1
  Na  Na1  1  0.29850369  0.95998396  0.08273946  1
  Na  Na2  1  0.03434060  0.33859671  0.08288904  1
  Na  Na3  1  0.01416034  0.00095440  0.49613221  1
  Na  Na4  1  0.98569685  0.98655329  0.99505175  1
  Na  Na5  1  0.66511398  0.33369537  0.82909790  1
  Na  Na6  1  0.66833831  0.33527910  0.32850875  1
  Na  Na7  1  0.34474396  0.67337557  0.16275556  1
  Na  Na8  1  0.32211963  0.66198553  0.66200973  1
  Nb  Nb0  1  0.67749495  0.33741223  0.97744330  1
  Nb  Nb1  1  0.65667304  0.32767477  0.47720391  1
  Nb  Nb2  1  0.33088563  0.66630356  0.31683681  1
  Nb  Nb3  1  0.33593841  0.66860709  0.81665883  1
  Zn  Zn0  1  0.00006778  0.99858505  0.35404801  1
  Zn  Zn1  1  0.99985578  0.99822785  0.85378589  1
  Zn  Zn2  1  0.01996280  0.00199678  0.64905376  1
  Zn  Zn3  1  0.97914917  0.98235167  0.14851838  1
  Zn  Zn4  1  0.66107470  0.32928118  0.68284651  1
  Zn  Zn5  1  0.67252762  0.33370539  0.18212984  1
  Zn  Zn6  1  0.33966073  0.67466283  0.01369847  1
  Zn  Zn7  1  0.32661995  0.66930408  0.51413489  1
  P  P0  1  0.37114871  0.03800166  0.58536678  1
  P  P1  1  0.96010093  0.62799484  0.08539038  1
  P  P2  1  0.66458549  0.03875922  0.08502853  1
  P  P3  1  0.62765253  0.67064165  0.91897012  1
  P  P4  1  0.04764213  0.37231175  0.91922162  1
  P  P5  1  0.32836769  0.95961254  0.91947298  1
  P  P6  1  0.62954401  0.95494038  0.41967148  1
  P  P7  1  0.32590444  0.37433675  0.41930353  1
  P  P8  1  0.04077907  0.67036484  0.41922960  1
  S  S0  1  0.29435222  0.00307865  0.24986795  1
  S  S1  1  0.70600342  0.70434283  0.25120767  1
  S  S2  1  0.99879325  0.29090301  0.25024174  1
  S  S3  1  0.29298030  0.29190219  0.75080893  1
  S  S4  1  0.99720038  0.70466357  0.75040424  1
  S  S5  1  0.70992769  0.00225407  0.74955761  1
  S  S6  1  0.95911618  0.33622977  0.58432864  1
  S  S7  1  0.66660649  0.62487776  0.58457630  1
  S  S8  1  0.37822943  0.33643309  0.08444821  1
  O  O0  1  0.20917663  0.02278990  0.30222105  1
  O  O1  1  0.81087540  0.78663588  0.30385357  1
  O  O2  1  0.97929031  0.18617419  0.30216622  1
  O  O3  1  0.21231912  0.18840946  0.80356936  1
  O  O4  1  0.97424724  0.78558372  0.80357353  1
  O  O5  1  0.81427485  0.02205994  0.80183136  1
  O  O6  1  0.77776836  0.96803357  0.69405759  1
  O  O7  1  0.18739435  0.22291998  0.69659399  1
  O  O8  1  0.03352903  0.81002181  0.69650073  1
  O  O9  1  0.77351458  0.80932430  0.19702252  1
  O  O10  1  0.03268024  0.22288167  0.19451308  1
  O  O11  1  0.19245356  0.96846865  0.19448649  1
  O  O12  1  0.87948446  0.36199399  0.63768328  1
  O  O13  1  0.49176872  0.12368251  0.63817547  1
  O  O14  1  0.64550026  0.52116122  0.63727897  1
  O  O15  1  0.87594874  0.51154627  0.13842715  1
  O  O16  1  0.62832085  0.12115760  0.13863669  1
  O  O17  1  0.48124312  0.36073747  0.13756325  1
  O  O18  1  0.46499577  0.30977437  0.03037095  1
  O  O19  1  0.83981295  0.52949873  0.02840812  1
  O  O20  1  0.68922366  0.16410454  0.02878362  1
  O  O21  1  0.47516818  0.16184501  0.52856868  1
  O  O22  1  0.68857185  0.53473368  0.53008381  1
  O  O23  1  0.84292694  0.31175968  0.53048762  1
  O  O24  1  0.54424055  0.69372370  0.97315646  1
  O  O25  1  0.14518138  0.45148995  0.97598828  1
  O  O26  1  0.30347070  0.85782056  0.97543693  1
  O  O27  1  0.55184989  0.85590195  0.47592519  1
  O  O28  1  0.30695034  0.45914764  0.47392387  1
  O  O29  1  0.14856541  0.69667909  0.47302741  1
  O  O30  1  0.13268077  0.63621737  0.36273529  1
  O  O31  1  0.50250994  0.86437750  0.36431249  1
  O  O32  1  0.36127195  0.49670693  0.36278229  1
  O  O33  1  0.13840838  0.49752874  0.86401732  1
  O  O34  1  0.36212929  0.86522739  0.86405193  1
  O  O35  1  0.50380360  0.63819808  0.86242928  1
  O  O36  1  0.01427569  0.82316515  0.40774231  1
  O  O37  1  0.80974300  0.98515481  0.40823376  1
  O  O38  1  0.17685771  0.19236297  0.40835746  1
  O  O39  1  0.01642893  0.19075918  0.90841304  1
  O  O40  1  0.17512215  0.98491612  0.90798482  1
  O  O41  1  0.80757321  0.82304937  0.90799106  1
  O  O42  1  0.96109959  0.16774346  0.58631075  1
  O  O43  1  0.19492798  0.03083029  0.58566951  1
  O  O44  1  0.82540668  0.80213005  0.58646724  1
  O  O45  1  0.98095733  0.81189856  0.08619667  1
  O  O46  1  0.84007201  0.04086413  0.08605663  1
  O  O47  1  0.20313935  0.17222443  0.08666568  1
  O  O48  1  0.68291272  0.15474124  0.74548230  1
  O  O49  1  0.47279819  0.32084019  0.74514623  1
  O  O50  1  0.84512871  0.52508631  0.74412817  1
  O  O51  1  0.67824472  0.52489233  0.24505803  1
  O  O52  1  0.84737719  0.31885314  0.24627392  1
  O  O53  1  0.47311799  0.15546797  0.24549213  1
  O  O54  1  0.63477865  0.49412566  0.92306811  1
  O  O55  1  0.86233440  0.36491591  0.92197680  1
  O  O56  1  0.50435354  0.14250774  0.92326725  1
  O  O57  1  0.63764918  0.14073412  0.42342315  1
  O  O58  1  0.50371836  0.36609303  0.42352232  1
  O  O59  1  0.85751790  0.49458092  0.42407874  1
  O  O60  1  0.35198665  0.48812979  0.07812501  1
  O  O61  1  0.14096177  0.64191696  0.07782532  1
  O  O62  1  0.50145506  0.85856968  0.07704643  1
  O  O63  1  0.36161446  0.85959973  0.57720072  1
  O  O64  1  0.51031593  0.64399985  0.57835606  1
  O  O65  1  0.13418033  0.48801162  0.57740475  1
  O  O66  1  0.31247497  0.83752085  0.25778439  1
  O  O67  1  0.52401123  0.68747870  0.25888603  1
  O  O68  1  0.16409365  0.47429526  0.25775416  1
  O  O69  1  0.31105176  0.47515340  0.75840879  1
  O  O70  1  0.16186338  0.68652219  0.75836152  1
  O  O71  1  0.52602353  0.83718044  0.75739261  1
loop_
_geom_bond_atom_site_label_1
_geom_bond_atom_site_label_2
_geom_bond_distance
_geom_bond_site_symmetry_2
Na0 O63 2.324518 1_555
Na0 O42 2.338843 1_565
Na0 O64 2.445584 1_555
Na0 O44 2.495244 1_555
Na0 O27 2.602830 1_555
Na0 O6 2.705537 1_555
Na0 O13 2.792106 1_565
Na0 O23 2.907936 1_565
Na1 O62 2.369092 1_555
Na1 O47 2.402568 1_565
Na1 O61 2.425190 1_555
Na1 O45 2.428205 1_455
Na1 O26 2.588971 1_554
Na1 O11 2.704818 1_555
Na1 O16 2.816625 1_565
Na1 O18 2.923246 1_565
Na2 O46 2.305315 1_455
Na2 O61 2.347928 1_555
Na2 O60 2.429660 1_555
Na2 O47 2.559189 1_555
Na2 O25 2.612855 1_554
Na2 O10 2.723400 1_555
Na2 O15 2.817694 1_455
Na2 O20 2.903928 1_455
Na3 O43 2.508473 1_555
Na3 O36 2.530000 1_545
Na3 O38 2.538036 1_555
Na3 O37 2.641183 1_445
Na3 O44 2.667490 1_445
Na3 O42 2.678238 1_455
Na4 O41 2.474912 1_555
Na4 O45 2.565242 1_556
Na4 O40 2.583276 1_655
Na4 O39 2.586376 1_665
Na4 O46 2.588268 1_566
Na4 O47 2.733692 1_666
Na5 O48 2.506927 1_555
Na5 O49 2.511488 1_555
Na5 O50 2.529030 1_555
Na5 O54 2.629299 1_555
Na5 O56 2.648461 1_555
Na5 O55 2.652594 1_555
Na6 O52 2.486216 1_555
Na6 O53 2.497694 1_555
Na6 O51 2.498001 1_555
Na6 O59 2.655326 1_555
Na6 O58 2.676980 1_555
Na6 O57 2.680225 1_555
Na7 O62 2.468137 1_555
Na7 O60 2.526770 1_555
Na7 O61 2.549572 1_555
Na7 O67 2.654997 1_555
Na7 O66 2.673972 1_555
Na7 O68 2.730517 1_555
Na8 O65 2.486899 1_555
Na8 O63 2.500072 1_555
Na8 O64 2.569142 1_555
Na8 O70 2.659477 1_555
Na8 O69 2.709357 1_555
Na8 O71 2.730938 1_555
Nb0 O19 1.947938 1_556
Nb0 O20 1.965294 1_556
Nb0 O55 1.971811 1_555
Nb0 O54 2.023832 1_555
Nb0 O56 2.033087 1_555
Nb0 O18 2.130887 1_556
Nb1 O21 1.927462 1_555
Nb1 O58 1.968176 1_555
Nb1 O57 1.977714 1_555
Nb1 O59 2.036148 1_555
Nb1 O22 2.070900 1_555
Nb1 O23 2.099574 1_555
Nb2 O30 1.932542 1_555
Nb2 O32 1.948641 1_555
Nb2 O31 1.955474 1_555
Nb2 O68 2.072364 1_555
Nb2 O67 2.080246 1_555
Nb2 O66 2.085035 1_555
Nb3 O35 1.933731 1_555
Nb3 O34 1.942214 1_555
Nb3 O33 1.958210 1_555
Nb3 O69 2.068482 1_555
Nb3 O71 2.081256 1_555
Nb3 O70 2.090564 1_555
O0 S0 1.455501 1_555
O0 Zn0 2.102301 1_545
O1 S1 1.455708 1_555
O1 Zn0 2.101682 1_655
O2 S2 1.452448 1_555
O2 Zn0 2.111894 1_645
O3 S3 1.455570 1_555
O3 Zn1 2.115772 1_445
O4 S4 1.457587 1_555
O4 Zn1 2.095687 1_555
O5 S5 1.454055 1_555
O5 Zn1 2.110841 1_545
O6 S5 1.481365 1_565
O6 Zn2 2.245556 1_665
O7 S3 1.471965 1_555
O7 Zn2 2.054819 1_555
O8 S4 1.470066 1_455
O8 Zn2 2.059722 1_565
O9 S1 1.472373 1_555
O9 Zn3 2.014492 1_555
O10 S2 1.483902 1_455
O10 Zn3 2.181289 1_445
O11 S0 1.480835 1_565
O11 Zn3 2.207386 1_455
O12 S6 1.466655 1_555
O12 Zn4 2.067828 1_555
O13 P0 1.521834 1_555
O13 Zn4 1.949970 1_555
O14 S7 1.458946 1_555
O14 Zn4 2.045456 1_555
O15 P1 1.512565 1_555
O15 Zn5 1.960988 1_555
O16 P2 1.521658 1_555
O16 Zn5 1.966060 1_555
O17 S8 1.455634 1_555
O17 Zn5 2.080470 1_555
O18 S8 1.518710 1_555
O19 P1 1.614552 1_555
O20 P2 1.629598 1_555
O21 P0 1.639744 1_555
O22 S7 1.524498 1_555
O23 S6 1.535580 1_555
O24 P3 1.491586 1_555
O24 Zn6 1.953315 1_556
O25 P4 1.505002 1_555
O25 Zn6 2.034611 1_556
O26 P5 1.505320 1_555
O26 Zn6 1.994944 1_556
O27 P6 1.502557 1_555
O27 Zn7 2.033287 1_555
O28 P7 1.490394 1_555
O28 Zn7 1.983571 1_555
O29 P8 1.488763 1_555
O29 Zn7 1.942723 1_555
O30 P8 1.616195 1_555
O31 P6 1.598610 1_555
O32 P7 1.602323 1_555
O33 P4 1.594201 1_555
O34 P5 1.606337 1_555
O35 P3 1.611355 1_555
O36 P8 1.499581 1_555
O36 Zn0 2.021826 1_555
O37 P6 1.496544 1_555
O37 Zn0 2.031272 1_655
O38 P7 1.497799 1_555
O38 Zn0 2.041262 1_545
O39 P4 1.497652 1_555
O39 Zn1 2.035399 1_445
O40 P5 1.498960 1_555
O40 Zn1 2.023346 1_455
O41 P3 1.500379 1_555
O41 Zn1 2.037539 1_555
O42 S6 1.492317 1_555
O42 Zn2 2.278812 1_655
O43 P0 1.523586 1_555
O43 Zn2 2.025137 1_555
O44 S7 1.486480 1_555
O44 Zn2 2.235526 1_665
O45 P1 1.534458 1_555
O45 Zn3 2.057052 1_555
O46 P2 1.538737 1_555
O46 Zn3 2.099994 1_545
O47 S8 1.497599 1_555
O47 Zn3 2.315742 1_445
O48 S5 1.478871 1_555
O48 Zn4 2.173288 1_555
O49 S3 1.480474 1_555
O49 Zn4 2.147898 1_555
O50 S4 1.480947 1_555
O50 Zn4 2.168611 1_555
O51 S1 1.477564 1_555
O51 Zn5 2.177440 1_555
O52 S2 1.476898 1_555
O52 Zn5 2.170129 1_555
O53 S0 1.476189 1_555
O53 Zn5 2.204660 1_555
O54 P3 1.588838 1_555
O55 P4 1.603845 1_655
O56 P5 1.582970 1_545
O57 P6 1.601991 1_545
O58 P7 1.608787 1_555
O59 P8 1.586392 1_655
O60 S8 1.472173 1_555
O60 Zn6 2.243687 1_555
O61 P1 1.546674 1_455
O61 Zn6 2.178036 1_555
O62 P2 1.526883 1_565
O62 Zn6 2.091349 1_555
O63 P0 1.539420 1_565
O63 Zn7 2.094235 1_555
O64 S7 1.476889 1_555
O64 Zn7 2.270489 1_555
O65 S6 1.459557 1_455
O65 Zn7 2.186038 1_555
O66 S0 1.554359 1_565
O67 S1 1.545724 1_555
O68 S2 1.549799 1_455
O69 S3 1.547418 1_555
O70 S4 1.549255 1_455
O71 S5 1.554506 1_565
