# generated using pymatgen
data_Ca(Ni2B)6
_symmetry_space_group_name_H-M   'P 1'
_cell_length_a   5.97684018
_cell_length_b   5.97684018
_cell_length_c   5.97684125
_cell_angle_alpha   104.45538378
_cell_angle_beta   104.45538378
_cell_angle_gamma   104.45539686
_symmetry_Int_Tables_number   1
_chemical_formula_structural   Ca(Ni2B)6
_chemical_formula_sum   'Ca1 Ni12 B6'
_cell_volume   188.80114144
_cell_formula_units_Z   1
loop_
 _symmetry_equiv_pos_site_id
 _symmetry_equiv_pos_as_xyz
  1  'x, y, z'
loop_
 _atom_site_type_symbol
 _atom_site_label
 _atom_site_symmetry_multiplicity
 _atom_site_fract_x
 _atom_site_fract_y
 _atom_site_fract_z
 _atom_site_occupancy
  Ca  Ca0  1  -0.00000000  -0.00000000  0.00000000  1
  Ni  Ni0  1  0.50000000  0.86905790  0.13094210  1
  Ni  Ni1  1  0.45625468  0.45625468  0.18703868  1
  Ni  Ni2  1  0.18703868  0.45625468  0.45625468  1
  Ni  Ni3  1  0.54374532  0.81296132  0.54374532  1
  Ni  Ni4  1  0.81296132  0.54374532  0.54374532  1
  Ni  Ni5  1  0.54374532  0.54374532  0.81296132  1
  Ni  Ni6  1  0.13094210  0.50000000  0.86905790  1
  Ni  Ni7  1  0.86905790  0.13094210  0.50000000  1
  Ni  Ni8  1  0.50000000  0.13094210  0.86905790  1
  Ni  Ni9  1  0.86905790  0.50000000  0.13094210  1
  Ni  Ni10  1  0.13094210  0.86905790  0.50000000  1
  Ni  Ni11  1  0.45625468  0.18703868  0.45625468  1
  B  B0  1  0.76483098  0.76483098  0.33435114  1
  B  B1  1  0.33435114  0.76483098  0.76483098  1
  B  B2  1  0.76483098  0.33435114  0.76483098  1
  B  B3  1  0.66564886  0.23516902  0.23516902  1
  B  B4  1  0.23516902  0.23516902  0.66564886  1
  B  B5  1  0.23516902  0.66564886  0.23516902  1
loop_
_geom_bond_atom_site_label_1
_geom_bond_atom_site_label_2
_geom_bond_distance
_geom_bond_site_symmetry_2
Ca0 Ni1 3.060364 1_555
Ca0 Ni5 3.060364 1_444
Ca0 Ni2 3.060364 1_555
Ca0 Ni11 3.060364 1_555
Ca0 Ni3 3.060364 1_444
Ca0 Ni4 3.060364 1_444
Ca0 Ni6 3.234414 1_554
Ca0 Ni8 3.234414 1_554
Ca0 Ni0 3.234414 1_445
Ca0 Ni9 3.234414 1_445
Ca0 Ni9 3.234414 1_455
Ca0 Ni0 3.234414 1_545
Ca0 Ni8 3.234414 1_454
Ca0 Ni6 3.234414 1_544
Ca0 Ni10 3.234414 1_545
Ca0 Ni7 3.234414 1_455
Ca0 Ni7 3.234414 1_454
Ca0 Ni10 3.234414 1_544
B0 Ni7 2.021481 1_565
B0 Ni10 2.021481 1_655
B0 Ni3 2.056890 1_555
B0 Ni4 2.056890 1_555
B0 Ni1 2.063629 1_555
B0 Ni9 2.069099 1_555
B0 Ni0 2.069099 1_555
B0 Ca0 3.124580 1_665
B1 Ni8 2.021481 1_565
B1 Ni0 2.021482 1_556
B1 Ni3 2.056890 1_555
B1 Ni5 2.056890 1_555
B1 Ni2 2.063629 1_555
B1 Ni6 2.069099 1_555
B1 Ni10 2.069099 1_555
B1 Ca0 3.124580 1_566
B2 Ni6 2.021481 1_655
B2 Ni9 2.021482 1_556
B2 Ni4 2.056890 1_555
B2 Ni5 2.056890 1_555
B2 Ni11 2.063629 1_555
B2 Ni8 2.069099 1_555
B2 Ni7 2.069099 1_555
B2 Ca0 3.124580 1_656
B3 Ni0 2.021481 1_545
B3 Ni8 2.021482 1_554
B3 Ni11 2.056890 1_555
B3 Ni1 2.056890 1_555
B3 Ni4 2.063629 1_555
B3 Ni9 2.069099 1_555
B3 Ni7 2.069099 1_555
B3 Ca0 3.124580 1_655
B4 Ni10 2.021481 1_545
B4 Ni7 2.021481 1_455
B4 Ni2 2.056890 1_555
B4 Ni11 2.056890 1_555
B4 Ni5 2.063629 1_555
B4 Ni8 2.069099 1_555
B4 Ni6 2.069099 1_555
B4 Ca0 3.124580 1_556
B5 Ni9 2.021481 1_455
B5 Ni6 2.021482 1_554
B5 Ni2 2.056890 1_555
B5 Ni1 2.056890 1_555
B5 Ni3 2.063629 1_555
B5 Ni0 2.069099 1_555
B5 Ni10 2.069099 1_555
B5 Ca0 3.124580 1_565
