# generated using pymatgen
data_Na5ZrTa3(SiO4)6
_symmetry_space_group_name_H-M   'P 1'
_cell_length_a   9.05190027
_cell_length_b   9.03926146
_cell_length_c   22.76757759
_cell_angle_alpha   90.18486453
_cell_angle_beta   89.81760772
_cell_angle_gamma   120.18026198
_symmetry_Int_Tables_number   1
_chemical_formula_structural   Na5ZrTa3(SiO4)6
_chemical_formula_sum   'Na15 Zr3 Ta9 Si18 O72'
_cell_volume   1610.36920846
_cell_formula_units_Z   3
loop_
 _symmetry_equiv_pos_site_id
 _symmetry_equiv_pos_as_xyz
  1  'x, y, z'
loop_
 _atom_site_type_symbol
 _atom_site_label
 _atom_site_symmetry_multiplicity
 _atom_site_fract_x
 _atom_site_fract_y
 _atom_site_fract_z
 _atom_site_occupancy
  Na  Na0  1  0.36675768  0.36257260  0.24871005  1
  Na  Na1  1  0.99382607  0.63201322  0.24862885  1
  Na  Na2  1  0.63571946  0.63051869  0.74918915  1
  Na  Na3  1  0.99780471  0.36728292  0.74943943  1
  Na  Na4  1  0.03084769  0.69623098  0.58405197  1
  Na  Na5  1  0.30441874  0.96991035  0.08380241  1
  Na  Na6  1  0.69911407  0.03295566  0.91756264  1
  Na  Na7  1  0.96874440  0.29719248  0.41543363  1
  Na  Na8  1  0.33078493  0.03376449  0.41572141  1
  Na  Na9  1  0.99338516  0.99898274  0.49948891  1
  Na  Na10  1  0.00021545  0.00000484  0.00085988  1
  Na  Na11  1  0.65999642  0.33245077  0.83355686  1
  Na  Na12  1  0.66686879  0.33298446  0.33049712  1
  Na  Na13  1  0.33965980  0.66722679  0.16491673  1
  Na  Na14  1  0.34002274  0.67329423  0.66561864  1
  Zr  Zr0  1  0.99429069  0.99437807  0.35323563  1
  Zr  Zr1  1  0.66012209  0.32621271  0.68584405  1
  Zr  Zr2  1  0.66671547  0.32826163  0.18376815  1
  Ta  Ta0  1  0.00469358  0.00003709  0.85540775  1
  Ta  Ta1  1  0.00032625  0.00369686  0.64528396  1
  Ta  Ta2  1  0.99475734  0.99976998  0.14514032  1
  Ta  Ta3  1  0.66760307  0.33822715  0.97979626  1
  Ta  Ta4  1  0.66679921  0.33688901  0.48059820  1
  Ta  Ta5  1  0.33216771  0.66202375  0.01994182  1
  Ta  Ta6  1  0.33750126  0.66645739  0.52091900  1
  Ta  Ta7  1  0.33689355  0.66997652  0.31255092  1
  Ta  Ta8  1  0.33325311  0.66995305  0.81394535  1
  Si  Si0  1  0.29071175  0.99925282  0.24992920  1
  Si  Si1  1  0.70686740  0.71019434  0.24912549  1
  Si  Si2  1  0.99823802  0.28980903  0.25075962  1
  Si  Si3  1  0.28797420  0.28741924  0.75104172  1
  Si  Si4  1  0.00554629  0.71656375  0.74996251  1
  Si  Si5  1  0.71203239  0.99829758  0.75144809  1
  Si  Si6  1  0.95708284  0.33060682  0.58287421  1
  Si  Si7  1  0.37419690  0.04145364  0.58213247  1
  Si  Si8  1  0.66418929  0.62535991  0.58421664  1
  Si  Si9  1  0.95893144  0.62533247  0.08307857  1
  Si  Si10  1  0.66893541  0.04125594  0.08078392  1
  Si  Si11  1  0.37559679  0.33591899  0.08332154  1
  Si  Si12  1  0.62045509  0.66291238  0.91620129  1
  Si  Si13  1  0.04384176  0.37841327  0.91642816  1
  Si  Si14  1  0.33130743  0.95577267  0.91802109  1
  Si  Si15  1  0.62207830  0.95539710  0.41787610  1
  Si  Si16  1  0.33915599  0.38222758  0.41690580  1
  Si  Si17  1  0.04423162  0.66485232  0.41777835  1
  O  O0  1  0.20813869  0.03160869  0.30874525  1
  O  O1  1  0.82858644  0.79285584  0.30577548  1
  O  O2  1  0.97345640  0.18121743  0.30997721  1
  O  O3  1  0.18842244  0.16633603  0.80733730  1
  O  O4  1  0.97313688  0.81119838  0.80596239  1
  O  O5  1  0.83200858  0.02598531  0.80890768  1
  O  O6  1  0.80512902  0.96476145  0.69441726  1
  O  O7  1  0.16136106  0.19552770  0.69421546  1
  O  O8  1  0.03092329  0.83263760  0.69128033  1
  O  O9  1  0.80470702  0.83520194  0.19251867  1
  O  O10  1  0.03484441  0.19562121  0.19451079  1
  O  O11  1  0.16554610  0.96461667  0.19233728  1
  O  O12  1  0.88112003  0.37403634  0.64096562  1
  O  O13  1  0.49234403  0.12386145  0.63911579  1
  O  O14  1  0.63436170  0.51382293  0.64293820  1
  O  O15  1  0.88281997  0.51535585  0.14227449  1
  O  O16  1  0.62364050  0.11946016  0.13738517  1
  O  O17  1  0.48545640  0.36734315  0.14245938  1
  O  O18  1  0.47194788  0.30059033  0.02747602  1
  O  O19  1  0.83268674  0.52641291  0.02686540  1
  O  O20  1  0.69499563  0.16185386  0.02317599  1
  O  O21  1  0.46760472  0.16258087  0.52419577  1
  O  O22  1  0.69860593  0.52870592  0.52796589  1
  O  O23  1  0.83598999  0.30530946  0.52501390  1
  O  O24  1  0.52824607  0.70018666  0.97138579  1
  O  O25  1  0.16756692  0.47356977  0.97208498  1
  O  O26  1  0.30516079  0.83769444  0.97506779  1
  O  O27  1  0.52226929  0.83384558  0.47359131  1
  O  O28  1  0.30637785  0.47694615  0.47224133  1
  O  O29  1  0.16500333  0.69174608  0.47454695  1
  O  O30  1  0.13377974  0.63133944  0.35941595  1
  O  O31  1  0.49477827  0.86264627  0.36100174  1
  O  O32  1  0.36404820  0.49958866  0.35834418  1
  O  O33  1  0.13607140  0.49682607  0.85802884  1
  O  O34  1  0.36475907  0.86082796  0.86121429  1
  O  O35  1  0.50261008  0.63827304  0.85769476  1
  O  O36  1  0.03470998  0.83791759  0.41394189  1
  O  O37  1  0.81307922  0.98655102  0.41462012  1
  O  O38  1  0.16978955  0.19375494  0.41367208  1
  O  O39  1  0.01681581  0.18543600  0.90915060  1
  O  O40  1  0.16326982  0.97512409  0.90881965  1
  O  O41  1  0.80644916  0.83890175  0.90855527  1
  O  O42  1  0.97626499  0.16134273  0.59029110  1
  O  O43  1  0.18192622  0.01620706  0.58980280  1
  O  O44  1  0.84175777  0.81106940  0.58965631  1
  O  O45  1  0.98533407  0.81896856  0.08920620  1
  O  O46  1  0.83877798  0.02350024  0.08964108  1
  O  O47  1  0.18944035  0.15837347  0.08970453  1
  O  O48  1  0.70251713  0.17156854  0.74647824  1
  O  O49  1  0.47968455  0.31927654  0.74737552  1
  O  O50  1  0.83596341  0.52742269  0.74633988  1
  O  O51  1  0.68372957  0.52092494  0.24386320  1
  O  O52  1  0.84083663  0.32496607  0.24525501  1
  O  O53  1  0.47541018  0.17038703  0.24485096  1
  O  O54  1  0.64088116  0.49517479  0.92445168  1
  O  O55  1  0.85147951  0.35135176  0.92389234  1
  O  O56  1  0.50738988  0.14149033  0.92394768  1
  O  O57  1  0.63506409  0.14379647  0.42430034  1
  O  O58  1  0.50603659  0.35777284  0.42458531  1
  O  O59  1  0.85825418  0.48801875  0.42440806  1
  O  O60  1  0.35311737  0.50195917  0.07286520  1
  O  O61  1  0.15200133  0.65475914  0.07323917  1
  O  O62  1  0.49539455  0.85393096  0.07240621  1
  O  O63  1  0.34349604  0.84764377  0.57398255  1
  O  O64  1  0.49830101  0.64697060  0.57414203  1
  O  O65  1  0.14358004  0.50401056  0.57333516  1
  O  O66  1  0.29831918  0.82119035  0.25727353  1
  O  O67  1  0.51602696  0.68855501  0.25663481  1
  O  O68  1  0.17593384  0.47995261  0.25655050  1
  O  O69  1  0.30166137  0.47645863  0.75756892  1
  O  O70  1  0.17197911  0.69060973  0.75797655  1
  O  O71  1  0.52549324  0.82192899  0.75765404  1
loop_
_geom_bond_atom_site_label_1
_geom_bond_atom_site_label_2
_geom_bond_distance
_geom_bond_site_symmetry_2
Na0 O53 2.389408 1_555
Na0 O68 2.445568 1_555
Na0 O51 2.482550 1_555
Na0 O67 2.556548 1_555
Na0 O17 2.635478 1_555
Na0 O32 2.788419 1_555
Na0 O10 2.877445 1_555
Na0 O0 2.928305 1_555
Na1 O52 2.400364 1_555
Na1 O66 2.412917 1_655
Na1 O51 2.463007 1_555
Na1 O15 2.630326 1_555
Na1 O68 2.630727 1_655
Na1 O30 2.827615 1_655
Na1 O1 2.864570 1_555
Na1 O11 2.900198 1_655
Na2 O71 2.399714 1_555
Na2 O50 2.419788 1_555
Na2 O49 2.432311 1_555
Na2 O69 2.623653 1_555
Na2 O14 2.633527 1_555
Na2 O35 2.761241 1_555
Na2 O6 2.896330 1_555
Na2 O4 2.943266 1_555
Na3 O48 2.350472 1_555
Na3 O69 2.417898 1_655
Na3 O50 2.525863 1_555
Na3 O70 2.535867 1_655
Na3 O12 2.702051 1_555
Na3 O33 2.752718 1_655
Na3 O7 2.910273 1_655
Na3 O5 2.993662 1_555
Na4 O44 2.409912 1_455
Na4 O65 2.428627 1_555
Na4 O63 2.457326 1_555
Na4 O43 2.504944 1_565
Na4 O8 2.731329 1_555
Na4 O29 2.778805 1_555
Na4 O12 2.835927 1_455
Na4 O22 2.898500 1_455
Na5 O47 2.404937 1_565
Na5 O62 2.443838 1_555
Na5 O61 2.474388 1_555
Na5 O45 2.501134 1_455
Na5 O26 2.746994 1_554
Na5 O11 2.758481 1_555
Na5 O16 2.783817 1_565
Na5 O18 2.886832 1_565
Na6 O56 2.388483 1_555
Na6 O41 2.402680 1_545
Na6 O55 2.492744 1_555
Na6 O39 2.493900 1_655
Na6 O20 2.676917 1_556
Na6 O5 2.761710 1_555
Na6 O24 2.876779 1_545
Na6 O34 2.916142 1_545
Na7 O59 2.397586 1_555
Na7 O37 2.427381 1_545
Na7 O38 2.428530 1_655
Na7 O57 2.621728 1_555
Na7 O2 2.625570 1_555
Na7 O23 2.782483 1_555
Na7 O30 2.908151 1_655
Na7 O28 2.944847 1_655
Na8 O36 2.355452 1_545
Na8 O57 2.421031 1_555
Na8 O38 2.517405 1_555
Na8 O58 2.542030 1_555
Na8 O0 2.675842 1_555
Na8 O21 2.745916 1_555
Na8 O31 2.903902 1_545
Na8 O29 2.992145 1_545
Na9 O37 2.498861 1_555
Na9 O36 2.564716 1_655
Na9 O38 2.577337 1_665
Na9 O44 2.577581 1_555
Na9 O42 2.580481 1_565
Na9 O43 2.630228 1_665
Na10 O45 2.557303 1_445
Na10 O46 2.560626 1_455
Na10 O47 2.571534 1_555
Na10 O40 2.632735 1_544
Na10 O39 2.638025 1_554
Na10 O41 2.655025 1_444
Na11 O49 2.520237 1_555
Na11 O54 2.590389 1_555
Na11 O56 2.594309 1_555
Na11 O48 2.594784 1_555
Na11 O50 2.601195 1_555
Na11 O55 2.643152 1_555
Na12 O52 2.519124 1_555
Na12 O53 2.531403 1_555
Na12 O51 2.561037 1_555
Na12 O58 2.657734 1_555
Na12 O57 2.663293 1_555
Na12 O59 2.664573 1_555
Na13 O67 2.579843 1_555
Na13 O60 2.607690 1_555
Na13 O62 2.623680 1_555
Na13 O68 2.625881 1_555
Na13 O66 2.645405 1_555
Na13 O61 2.661478 1_555
Na14 O71 2.598233 1_555
Na14 O64 2.601445 1_555
Na14 O63 2.609310 1_555
Na14 O70 2.641364 1_555
Na14 O69 2.658420 1_555
Na14 O65 2.680520 1_555
O0 Si0 1.627358 1_545
O0 Zr0 2.054526 1_445
O1 Si1 1.615821 1_555
O1 Zr0 1.996526 1_555
O2 Si2 1.617657 1_555
O2 Zr0 2.046969 1_545
O3 Si3 1.631810 1_555
O3 Ta0 1.925822 1_555
O4 Si4 1.638993 1_655
O4 Ta0 1.939596 1_665
O5 Si5 1.639250 1_545
O5 Ta0 1.999996 1_655
O6 Si5 1.653894 1_555
O6 Ta1 1.965173 1_665
O7 Si3 1.650068 1_555
O7 Ta1 1.956834 1_555
O8 Si4 1.644211 1_555
O8 Ta1 2.001788 1_565
O9 Si1 1.648677 1_555
O9 Ta2 1.939445 1_555
O10 Si2 1.657901 1_455
O10 Ta2 1.968033 1_445
O11 Si0 1.658662 1_555
O11 Ta2 2.037732 1_455
O12 Si6 1.624331 1_555
O12 Zr1 2.086397 1_555
O13 Si7 1.607299 1_555
O13 Zr1 1.997171 1_555
O14 Si8 1.615402 1_555
O14 Zr1 2.072270 1_555
O15 Si9 1.610417 1_555
O15 Zr2 2.061906 1_555
O16 Si10 1.615758 1_555
O16 Zr2 2.019747 1_555
O17 Si11 1.613847 1_555
O17 Zr2 2.072706 1_555
O18 Si11 1.658201 1_555
O18 Ta3 1.953234 1_554
O19 Si9 1.648621 1_555
O19 Ta3 1.928133 1_554
O20 Si10 1.647113 1_555
O20 Ta3 1.996963 1_554
O21 Si7 1.650787 1_555
O21 Ta4 1.965001 1_555
O22 Si8 1.662664 1_555
O22 Ta4 1.933981 1_555
O23 Si6 1.656619 1_555
O23 Ta4 1.975057 1_555
O24 Si12 1.631602 1_555
O24 Ta5 1.966140 1_556
O25 Si13 1.622743 1_555
O25 Ta5 1.937895 1_556
O26 Si14 1.623315 1_555
O26 Ta5 2.006857 1_556
O27 Si15 1.623633 1_555
O27 Ta6 1.924157 1_555
O28 Si16 1.629233 1_555
O28 Ta6 1.935627 1_555
O29 Si17 1.632326 1_555
O29 Ta6 1.993972 1_555
O30 Si17 1.658877 1_555
O30 Ta7 1.996270 1_555
O31 Si15 1.654875 1_555
O31 Ta7 1.946165 1_555
O32 Si16 1.649477 1_555
O32 Ta7 1.977935 1_555
O33 Si13 1.647477 1_555
O33 Ta8 1.957669 1_555
O34 Si14 1.659109 1_555
O34 Ta8 1.926570 1_555
O35 Si12 1.652307 1_555
O35 Ta8 1.969061 1_555
O36 Si17 1.612094 1_555
O36 Zr0 2.140202 1_455
O37 Si15 1.607407 1_555
O37 Zr0 2.125604 1_555
O38 Si16 1.622360 1_555
O38 Zr0 2.187308 1_445
O39 Si13 1.643006 1_555
O39 Ta0 2.029899 1_555
O40 Si14 1.630304 1_555
O40 Ta0 1.981874 1_565
O41 Si12 1.643943 1_555
O41 Ta0 2.043398 1_665
O42 Si6 1.633585 1_555
O42 Ta1 1.992740 1_655
O43 Si7 1.646390 1_555
O43 Ta1 2.027647 1_555
O44 Si8 1.644340 1_555
O44 Ta1 2.044644 1_665
O45 Si9 1.648717 1_555
O45 Ta2 2.036445 1_555
O46 Si10 1.637160 1_555
O46 Ta2 1.988406 1_545
O47 Si11 1.648365 1_555
O47 Ta2 2.052119 1_445
O48 Si5 1.615604 1_545
O48 Zr1 2.135944 1_555
O49 Si3 1.611862 1_555
O49 Zr1 2.125377 1_555
O50 Si4 1.627076 1_655
O50 Zr1 2.196734 1_555
O51 Si1 1.619818 1_555
O51 Zr2 2.155220 1_555
O52 Si2 1.613489 1_555
O52 Zr2 2.122811 1_555
O53 Si0 1.612788 1_545
O53 Zr2 2.117096 1_555
O54 Si12 1.628598 1_555
O54 Ta3 2.004358 1_555
O55 Si13 1.640359 1_655
O55 Ta3 2.047771 1_555
O56 Si14 1.639048 1_545
O56 Ta3 2.070413 1_555
O57 Si15 1.653064 1_545
O57 Ta4 2.062934 1_555
O58 Si16 1.642856 1_555
O58 Ta4 2.017218 1_555
O59 Si17 1.645053 1_655
O59 Ta4 2.030529 1_555
O60 Si11 1.631073 1_555
O60 Ta5 1.967188 1_555
O61 Si9 1.644905 1_455
O61 Ta5 2.004166 1_555
O62 Si10 1.642144 1_565
O62 Ta5 2.009949 1_555
O63 Si7 1.639979 1_565
O63 Ta6 2.010764 1_555
O64 Si8 1.625730 1_555
O64 Ta6 1.971899 1_555
O65 Si6 1.641121 1_455
O65 Ta6 2.016934 1_555
O66 Si0 1.654271 1_555
O66 Ta7 2.016904 1_555
O67 Si1 1.646279 1_555
O67 Ta7 1.998155 1_555
O68 Si2 1.667026 1_455
O68 Ta7 2.044572 1_555
O69 Si3 1.656191 1_555
O69 Ta8 2.067224 1_555
O70 Si4 1.647836 1_555
O70 Ta8 2.019209 1_555
O71 Si5 1.645012 1_555
O71 Ta8 2.037510 1_555
