# generated using pymatgen
data_KFeO2
_symmetry_space_group_name_H-M   'P 1'
_cell_length_a   6.41293858
_cell_length_b   6.81658185
_cell_length_c   6.84762030
_cell_angle_alpha   83.00368588
_cell_angle_beta   76.48047811
_cell_angle_gamma   103.24997919
_symmetry_Int_Tables_number   1
_chemical_formula_structural   KFeO2
_chemical_formula_sum   'K4 Fe4 O8'
_cell_volume   278.38954663
_cell_formula_units_Z   4
loop_
 _symmetry_equiv_pos_site_id
 _symmetry_equiv_pos_as_xyz
  1  'x, y, z'
loop_
 _atom_site_type_symbol
 _atom_site_label
 _atom_site_symmetry_multiplicity
 _atom_site_fract_x
 _atom_site_fract_y
 _atom_site_fract_z
 _atom_site_occupancy
  K  K0  1  0.75115736  0.66703702  0.67067381  1
  K  K1  1  0.25115524  0.66703052  0.67067882  1
  K  K2  1  0.24884294  0.33296828  0.32932282  1
  K  K3  1  0.74884363  0.33296335  0.32932686  1
  Fe  Fe0  1  0.92291212  0.84582614  0.15920798  1
  Fe  Fe1  1  0.57709031  0.15418011  0.84078992  1
  Fe  Fe2  1  0.42291048  0.84582420  0.15921013  1
  Fe  Fe3  1  0.07708820  0.15417319  0.84079090  1
  O  O0  1  0.00104320  0.13749713  0.13004645  1
  O  O1  1  0.50104317  0.13749834  0.13004793  1
  O  O2  1  0.99895632  0.86249969  0.86995303  1
  O  O3  1  0.49895795  0.86250524  0.86995218  1
  O  O4  1  0.88930208  0.27856463  0.71318390  1
  O  O5  1  0.38930297  0.27856560  0.71318469  1
  O  O6  1  0.11069823  0.72143376  0.28681461  1
  O  O7  1  0.61069681  0.72143480  0.28681496  1
loop_
_geom_bond_atom_site_label_1
_geom_bond_atom_site_label_2
_geom_bond_distance
_geom_bond_site_symmetry_2
K0 O2 2.578544 1_555
K0 O3 2.579171 1_555
K0 O7 2.980046 1_555
K0 O4 2.981600 1_555
K0 O6 2.983274 1_655
K0 O5 3.026779 1_555
K1 O3 2.578565 1_555
K1 O2 2.579161 1_455
K1 O6 2.980072 1_555
K1 O5 2.981561 1_555
K1 O7 2.983290 1_555
K1 O4 3.026756 1_455
K2 O0 2.578558 1_555
K2 O1 2.579172 1_555
K2 O5 2.980067 1_555
K2 O6 2.981555 1_555
K2 O4 2.983275 1_455
K2 O7 3.026758 1_555
K3 O1 2.578555 1_555
K3 O0 2.579168 1_655
K3 O4 2.980028 1_555
K3 O7 2.981602 1_555
K3 O5 2.983266 1_555
K3 O6 3.026773 1_655
Fe0 O2 1.908421 1_554
Fe0 O0 1.908851 1_665
Fe0 O6 1.926746 1_655
Fe0 O7 1.927341 1_555
Fe1 O1 1.908434 1_556
Fe1 O3 1.908876 1_545
Fe1 O5 1.926722 1_555
Fe1 O4 1.927314 1_555
Fe2 O3 1.908434 1_554
Fe2 O1 1.908871 1_565
Fe2 O7 1.926729 1_555
Fe2 O6 1.927321 1_555
Fe3 O0 1.908423 1_556
Fe3 O2 1.908867 1_445
Fe3 O4 1.926744 1_455
Fe3 O5 1.927338 1_555
