# generated using pymatgen
data_MnNiGe
_symmetry_space_group_name_H-M   'P 1'
_cell_length_a   4.03651992
_cell_length_b   4.03652056
_cell_length_c   5.39041060
_cell_angle_alpha   90.00000000
_cell_angle_beta   90.00000000
_cell_angle_gamma   119.99999477
_symmetry_Int_Tables_number   1
_chemical_formula_structural   MnNiGe
_chemical_formula_sum   'Mn2 Ni2 Ge2'
_cell_volume   76.06183015
_cell_formula_units_Z   2
loop_
 _symmetry_equiv_pos_site_id
 _symmetry_equiv_pos_as_xyz
  1  'x, y, z'
loop_
 _atom_site_type_symbol
 _atom_site_label
 _atom_site_symmetry_multiplicity
 _atom_site_fract_x
 _atom_site_fract_y
 _atom_site_fract_z
 _atom_site_occupancy
  Mn  Mn0  1  -0.00000000  0.00000000  0.49997926  1
  Mn  Mn1  1  -0.00000000  0.00000000  0.00002105  1
  Ni  Ni0  1  0.33333300  0.66666700  0.74999728  1
  Ni  Ni1  1  0.66666700  0.33333300  0.25000237  1
  Ge  Ge0  1  0.66666700  0.33333300  0.74999764  1
  Ge  Ge1  1  0.33333300  0.66666700  0.25000240  1
loop_
_geom_bond_atom_site_label_1
_geom_bond_atom_site_label_2
_geom_bond_distance
_geom_bond_site_symmetry_2
Mn0 Ni1 2.691998 1_455
Mn0 Ni1 2.692001 1_555
Mn0 Ni1 2.692001 1_445
Mn0 Ni0 2.692109 1_545
Mn0 Ni0 2.692112 1_445
Mn0 Ni0 2.692112 1_555
Mn0 Mn1 2.694980 1_555
Mn0 Mn1 2.695431 1_556
Mn1 Ni1 2.692010 1_455
Mn1 Ni1 2.692013 1_555
Mn1 Ni1 2.692013 1_445
Mn1 Ni0 2.692124 1_544
Mn1 Ni0 2.692127 1_444
Mn1 Ni0 2.692127 1_554
Ge0 Ni0 2.330484 1_655
Ge0 Ni0 2.330484 1_545
Ge0 Ni0 2.330491 1_555
Ge0 Mn0 2.692110 1_655
Ge0 Mn0 2.692113 1_555
Ge0 Mn0 2.692113 1_665
Ge0 Mn1 2.692123 1_656
Ge0 Mn1 2.692126 1_556
Ge0 Mn1 2.692127 1_666
Ge0 Ni1 2.695180 1_555
Ge0 Ni1 2.695231 1_556
Ge1 Ni1 2.330484 1_455
Ge1 Ni1 2.330484 1_565
Ge1 Ni1 2.330491 1_555
Ge1 Mn0 2.691998 1_565
Ge1 Mn0 2.692001 1_665
Ge1 Mn0 2.692001 1_555
Ge1 Mn1 2.692010 1_565
Ge1 Mn1 2.692013 1_665
Ge1 Mn1 2.692013 1_555
Ge1 Ni0 2.695178 1_555
Ge1 Ni0 2.695233 1_554
