# generated using pymatgen
data_TiO2
_symmetry_space_group_name_H-M   'P 1'
_cell_length_a   5.15920119
_cell_length_b   5.95800445
_cell_length_c   10.25198159
_cell_angle_alpha   90.00000000
_cell_angle_beta   90.00000000
_cell_angle_gamma   90.00000000
_symmetry_Int_Tables_number   1
_chemical_formula_structural   TiO2
_chemical_formula_sum   'Ti8 O16'
_cell_volume   315.13098359
_cell_formula_units_Z   8
loop_
 _symmetry_equiv_pos_site_id
 _symmetry_equiv_pos_as_xyz
  1  'x, y, z'
loop_
 _atom_site_type_symbol
 _atom_site_label
 _atom_site_symmetry_multiplicity
 _atom_site_fract_x
 _atom_site_fract_y
 _atom_site_fract_z
 _atom_site_occupancy
  Ti  Ti0  1  0.49602405  0.50000000  0.24186676  1
  Ti  Ti1  1  0.49602405  0.50000000  0.75813324  1
  Ti  Ti2  1  0.50397595  0.00000000  0.25813324  1
  Ti  Ti3  1  0.50397595  0.00000000  0.74186676  1
  Ti  Ti4  1  -0.00000000  0.25000000  0.25000000  1
  Ti  Ti5  1  -0.00000000  0.75000000  0.75000000  1
  Ti  Ti6  1  -0.00000000  0.75000000  0.25000000  1
  Ti  Ti7  1  -0.00000000  0.25000000  0.75000000  1
  O  O0  1  0.83321998  0.50000000  0.15524827  1
  O  O1  1  0.83321998  0.50000000  0.84475173  1
  O  O2  1  0.16678002  0.00000000  0.34475173  1
  O  O3  1  0.16678002  0.00000000  0.65524827  1
  O  O4  1  0.16672158  0.50000000  0.34215309  1
  O  O5  1  0.16672158  0.50000000  0.65784691  1
  O  O6  1  0.83327842  0.00000000  0.15784691  1
  O  O7  1  0.83327842  0.00000000  0.84215309  1
  O  O8  1  0.66671271  0.25069871  0.34367080  1
  O  O9  1  0.66671271  0.74930129  0.65632920  1
  O  O10  1  0.33328729  0.75069871  0.15632920  1
  O  O11  1  0.33328729  0.24930129  0.84367080  1
  O  O12  1  0.33328729  0.24930129  0.15632920  1
  O  O13  1  0.33328729  0.75069871  0.84367080  1
  O  O14  1  0.66671271  0.74930129  0.34367080  1
  O  O15  1  0.66671271  0.25069871  0.65632920  1
loop_
_geom_bond_atom_site_label_1
_geom_bond_atom_site_label_2
_geom_bond_distance
_geom_bond_site_symmetry_2
O0 Ti0 1.953199 1_555
O0 Ti4 1.975499 1_655
O0 Ti6 1.975499 1_655
O1 Ti1 1.953199 1_555
O1 Ti5 1.975499 1_655
O1 Ti7 1.975499 1_655
O2 Ti2 1.953199 1_555
O2 Ti4 1.975499 1_555
O2 Ti6 1.975499 1_545
O3 Ti3 1.953199 1_555
O3 Ti5 1.975499 1_545
O3 Ti7 1.975499 1_555
O4 Ti4 1.962404 1_555
O4 Ti6 1.962404 1_555
O4 Ti0 1.985812 1_555
O5 Ti5 1.962404 1_555
O5 Ti7 1.962404 1_555
O5 Ti1 1.985812 1_555
O6 Ti4 1.962404 1_655
O6 Ti6 1.962404 1_645
O6 Ti2 1.985812 1_555
O7 Ti5 1.962404 1_645
O7 Ti7 1.962404 1_655
O7 Ti3 1.985812 1_555
O8 Ti2 1.924825 1_555
O8 Ti4 1.969488 1_655
O8 Ti0 2.017675 1_555
O9 Ti3 1.924825 1_565
O9 Ti5 1.969488 1_655
O9 Ti1 2.017675 1_555
O10 Ti0 1.924825 1_555
O10 Ti6 1.969488 1_555
O10 Ti2 2.017675 1_565
O11 Ti1 1.924825 1_555
O11 Ti7 1.969488 1_555
O11 Ti3 2.017675 1_555
O12 Ti0 1.924825 1_555
O12 Ti4 1.969488 1_555
O12 Ti2 2.017675 1_555
O13 Ti1 1.924825 1_555
O13 Ti5 1.969488 1_555
O13 Ti3 2.017675 1_565
O14 Ti2 1.924825 1_565
O14 Ti6 1.969488 1_655
O14 Ti0 2.017675 1_555
O15 Ti3 1.924825 1_555
O15 Ti7 1.969488 1_655
O15 Ti1 2.017675 1_555
