# generated using pymatgen
data_Na5Zn2Sn2P5SO24
_symmetry_space_group_name_H-M   'P 1'
_cell_length_a   8.92559153
_cell_length_b   8.92669761
_cell_length_c   22.40504472
_cell_angle_alpha   90.48690738
_cell_angle_beta   89.72812186
_cell_angle_gamma   120.14023866
_symmetry_Int_Tables_number   1
_chemical_formula_structural   Na5Zn2Sn2P5SO24
_chemical_formula_sum   'Na15 Zn6 Sn6 P15 S3 O72'
_cell_volume   1543.73615585
_cell_formula_units_Z   3
loop_
 _symmetry_equiv_pos_site_id
 _symmetry_equiv_pos_as_xyz
  1  'x, y, z'
loop_
 _atom_site_type_symbol
 _atom_site_label
 _atom_site_symmetry_multiplicity
 _atom_site_fract_x
 _atom_site_fract_y
 _atom_site_fract_z
 _atom_site_occupancy
  Na  Na0  1  0.63696569  0.99974106  0.25199155  1
  Na  Na1  1  0.37080708  0.37578919  0.24684234  1
  Na  Na2  1  0.99322907  0.62108023  0.25271709  1
  Na  Na3  1  0.64178662  0.62999945  0.74678829  1
  Na  Na4  1  0.98773606  0.35901673  0.74822291  1
  Na  Na5  1  0.37147209  0.01295112  0.74828668  1
  Na  Na6  1  0.30476911  0.96273924  0.07516029  1
  Na  Na7  1  0.03950496  0.34590141  0.07673528  1
  Na  Na8  1  0.70893316  0.67933289  0.41616855  1
  Na  Na9  1  0.00468846  0.00412936  0.49896837  1
  Na  Na10  1  0.99859223  0.99848333  0.98875876  1
  Na  Na11  1  0.66754897  0.32897283  0.83317629  1
  Na  Na12  1  0.67876019  0.32856957  0.33407219  1
  Na  Na13  1  0.34509306  0.66268106  0.16107754  1
  Na  Na14  1  0.33352508  0.66674660  0.66296771  1
  Zn  Zn0  1  0.98540766  0.99689648  0.35295197  1
  Zn  Zn1  1  0.01141458  0.01059047  0.85200208  1
  Zn  Zn2  1  0.66845559  0.33553205  0.67801296  1
  Zn  Zn3  1  0.67238951  0.34069858  0.17675266  1
  Zn  Zn4  1  0.33140504  0.66654812  0.01418378  1
  Zn  Zn5  1  0.32891168  0.66519853  0.32253002  1
  Sn  Sn0  1  0.99932181  0.99897216  0.64779119  1
  Sn  Sn1  1  0.99033632  0.99719677  0.14766244  1
  Sn  Sn2  1  0.66745092  0.33068822  0.98168942  1
  Sn  Sn3  1  0.67418299  0.32848985  0.48625611  1
  Sn  Sn4  1  0.33114348  0.67292288  0.51930898  1
  Sn  Sn5  1  0.32907066  0.66816824  0.82026690  1
  P  P0  1  0.70242925  0.70138715  0.25243929  1
  P  P1  1  0.00109677  0.29415812  0.25129812  1
  P  P2  1  0.29440499  0.29503753  0.75131815  1
  P  P3  1  0.99932183  0.70909382  0.75175121  1
  P  P4  1  0.70759839  0.99791817  0.75255013  1
  P  P5  1  0.96717964  0.33264078  0.58568393  1
  P  P6  1  0.37075173  0.04084322  0.58525620  1
  P  P7  1  0.66508360  0.62957636  0.58331875  1
  P  P8  1  0.96082080  0.62940694  0.08493330  1
  P  P9  1  0.66365667  0.03693762  0.08570738  1
  P  P10  1  0.37347308  0.33471526  0.08634997  1
  P  P11  1  0.03428107  0.36690189  0.91924564  1
  P  P12  1  0.33176690  0.96563000  0.91946475  1
  P  P13  1  0.62514432  0.96284359  0.41542390  1
  P  P14  1  0.03667257  0.66660600  0.41555788  1
  S  S0  1  0.29203473  0.00039324  0.25059308  1
  S  S1  1  0.62884515  0.66509181  0.91789574  1
  S  S2  1  0.33398567  0.36952485  0.41680666  1
  O  O0  1  0.20631166  0.02710802  0.30199631  1
  O  O1  1  0.81830481  0.78092980  0.30735558  1
  O  O2  1  0.97243830  0.17348100  0.30307286  1
  O  O3  1  0.21450896  0.18036417  0.80461266  1
  O  O4  1  0.96642306  0.79173483  0.80541974  1
  O  O5  1  0.82258944  0.02931593  0.80568402  1
  O  O6  1  0.77946888  0.95341367  0.69455125  1
  O  O7  1  0.17486289  0.22144589  0.69460136  1
  O  O8  1  0.04422827  0.82624082  0.69461763  1
  O  O9  1  0.78648038  0.82203123  0.19617400  1
  O  O10  1  0.03917757  0.21878874  0.19160063  1
  O  O11  1  0.18565056  0.96996439  0.19376238  1
  O  O12  1  0.89244773  0.36366797  0.64259527  1
  O  O13  1  0.47377296  0.11585690  0.64246854  1
  O  O14  1  0.63773025  0.52546592  0.63979832  1
  O  O15  1  0.88800375  0.52641116  0.14255431  1
  O  O16  1  0.63474345  0.11319577  0.14354304  1
  O  O17  1  0.47076648  0.35439856  0.14450502  1
  O  O18  1  0.45663171  0.29404241  0.03160270  1
  O  O19  1  0.84207842  0.54516510  0.03011155  1
  O  O20  1  0.70689310  0.16208310  0.03180336  1
  O  O21  1  0.45428582  0.15240153  0.52850803  1
  O  O22  1  0.69211803  0.54705347  0.52488988  1
  O  O23  1  0.85559200  0.30023743  0.52871719  1
  O  O24  1  0.54074692  0.68449149  0.96974902  1
  O  O25  1  0.14122064  0.45415075  0.97499043  1
  O  O26  1  0.31719883  0.86211969  0.97510062  1
  O  O27  1  0.53709749  0.83891887  0.46946943  1
  O  O28  1  0.30961570  0.45535232  0.47037359  1
  O  O29  1  0.14847545  0.68744630  0.47105071  1
  O  O30  1  0.10741471  0.63129990  0.35782522  1
  O  O31  1  0.52272003  0.88856306  0.35730520  1
  O  O32  1  0.36848645  0.47541647  0.36224321  1
  O  O33  1  0.11369166  0.47735909  0.85987369  1
  O  O34  1  0.36969290  0.88936106  0.86008836  1
  O  O35  1  0.52441183  0.63352975  0.86024834  1
  O  O36  1  0.01340278  0.82558440  0.41365736  1
  O  O37  1  0.80493873  0.97903707  0.41466753  1
  O  O38  1  0.18316121  0.19638646  0.41217851  1
  O  O39  1  0.01150559  0.18757419  0.91275982  1
  O  O40  1  0.17011486  0.97894617  0.91287026  1
  O  O41  1  0.80033144  0.81768005  0.91158221  1
  O  O42  1  0.98439380  0.16814165  0.58817273  1
  O  O43  1  0.18725062  0.02031687  0.58728089  1
  O  O44  1  0.83086676  0.81217437  0.58611721  1
  O  O45  1  0.98561526  0.81703204  0.08855281  1
  O  O46  1  0.83755766  0.03115701  0.08765697  1
  O  O47  1  0.18851747  0.16034535  0.08836029  1
  O  O48  1  0.68066047  0.15398035  0.74477026  1
  O  O49  1  0.47764244  0.32216243  0.74320073  1
  O  O50  1  0.84295327  0.52509711  0.74365420  1
  O  O51  1  0.68201820  0.51958451  0.24511290  1
  O  O52  1  0.83578078  0.30816717  0.24574021  1
  O  O53  1  0.46628639  0.15623240  0.24511223  1
  O  O54  1  0.64066696  0.50289325  0.92110478  1
  O  O55  1  0.85413508  0.36080846  0.92119582  1
  O  O56  1  0.50180272  0.14988330  0.92110701  1
  O  O57  1  0.63773193  0.14348003  0.42349266  1
  O  O58  1  0.49968473  0.36304621  0.42366829  1
  O  O59  1  0.84717844  0.50125201  0.42281147  1
  O  O60  1  0.34320084  0.48692926  0.07888078  1
  O  O61  1  0.14268585  0.65164751  0.07829827  1
  O  O62  1  0.50374194  0.85863548  0.07715541  1
  O  O63  1  0.35278563  0.85801621  0.57831825  1
  O  O64  1  0.50046629  0.64660693  0.57562739  1
  O  O65  1  0.14952309  0.49692678  0.57702672  1
  O  O66  1  0.30812774  0.84316513  0.25330470  1
  O  O67  1  0.52285084  0.68825723  0.25572715  1
  O  O68  1  0.16519363  0.47635360  0.25462689  1
  O  O69  1  0.31141552  0.48141777  0.75705866  1
  O  O70  1  0.16914446  0.69249641  0.75572424  1
  O  O71  1  0.52090327  0.82706852  0.75695758  1
loop_
_geom_bond_atom_site_label_1
_geom_bond_atom_site_label_2
_geom_bond_distance
_geom_bond_site_symmetry_2
Na0 O52 2.417986 1_565
Na0 O67 2.436145 1_555
Na0 O53 2.537529 1_565
Na0 O66 2.539534 1_555
Na0 O31 2.567673 1_555
Na0 O16 2.644326 1_565
Na0 O9 2.817421 1_555
Na0 O2 2.831915 1_565
Na1 O51 2.405035 1_555
Na1 O68 2.419321 1_555
Na1 O67 2.419361 1_555
Na1 O17 2.496792 1_555
Na1 O53 2.498954 1_555
Na1 O32 2.730457 1_555
Na1 O10 2.845507 1_555
Na1 O0 2.971472 1_555
Na2 O52 2.419577 1_555
Na2 O68 2.453512 1_655
Na2 O51 2.457694 1_555
Na2 O66 2.496884 1_655
Na2 O30 2.553154 1_655
Na2 O15 2.622549 1_555
Na2 O1 2.856900 1_555
Na3 O49 2.378774 1_555
Na3 O50 2.406651 1_555
Na3 O71 2.491531 1_555
Na3 O14 2.558730 1_555
Na3 O69 2.564843 1_555
Na3 O35 2.750858 1_555
Na3 O6 2.774121 1_555
Na3 O4 2.829980 1_555
Na4 O50 2.409607 1_555
Na4 O48 2.414528 1_555
Na4 O12 2.526277 1_555
Na4 O69 2.532047 1_655
Na4 O70 2.581729 1_655
Na4 O33 2.725196 1_655
Na4 O7 2.785099 1_655
Na4 O5 2.860422 1_555
Na5 O48 2.391160 1_555
Na5 O49 2.430523 1_555
Na5 O70 2.507884 1_545
Na5 O13 2.544151 1_555
Na5 O71 2.607766 1_545
Na5 O34 2.742452 1_545
Na5 O3 2.800444 1_555
Na5 O8 2.804568 1_545
Na6 O62 2.382949 1_555
Na6 O61 2.403653 1_555
Na6 O26 2.430722 1_554
Na6 O47 2.470222 1_565
Na6 O45 2.484793 1_455
Na6 O18 2.747174 1_565
Na6 O11 2.869645 1_555
Na6 O16 2.976740 1_565
Na7 O60 2.346942 1_555
Na7 O61 2.402697 1_555
Na7 O25 2.468066 1_554
Na7 O46 2.474790 1_455
Na7 O47 2.608349 1_555
Na7 O20 2.761836 1_455
Na7 O10 2.820816 1_555
Na7 O15 2.954412 1_455
Na8 O36 2.351524 1_655
Na8 O37 2.364745 1_555
Na8 O59 2.459143 1_555
Na8 O58 2.489490 1_555
Na8 O1 2.616302 1_555
Na8 O22 2.686622 1_555
Na8 O27 2.820598 1_555
Na8 O32 2.906815 1_555
Na9 O36 2.504206 1_545
Na9 O43 2.525943 1_555
Na9 O42 2.526666 1_455
Na9 O37 2.533773 1_445
Na9 O44 2.552279 1_445
Na9 O38 2.558521 1_555
Na10 O40 2.345965 1_655
Na10 O39 2.369279 1_665
Na10 O41 2.416557 1_555
Na10 O46 2.727751 1_566
Na10 O47 2.731791 1_666
Na10 O45 2.739878 1_556
Na11 O56 2.505275 1_555
Na11 O55 2.507938 1_555
Na11 O48 2.550686 1_555
Na11 O54 2.581980 1_555
Na11 O50 2.610845 1_555
Na11 O49 2.620602 1_555
Na12 O52 2.477504 1_555
Na12 O59 2.497619 1_555
Na12 O57 2.513875 1_555
Na12 O51 2.624564 1_555
Na12 O53 2.643816 1_555
Na12 O58 2.670613 1_555
Na13 O60 2.403712 1_555
Na13 O62 2.478623 1_555
Na13 O61 2.561900 1_555
Na13 O67 2.593531 1_555
Na13 O68 2.661427 1_555
Na13 O66 2.728585 1_555
Na14 O65 2.486579 1_555
Na14 O63 2.509773 1_555
Na14 O64 2.513414 1_555
Na14 O70 2.612679 1_555
Na14 O71 2.618859 1_555
Na14 O69 2.635812 1_555
O0 S0 1.462495 1_555
O0 Zn0 2.171082 1_445
O1 P0 1.532153 1_555
O1 Zn0 2.019474 1_555
O2 P1 1.520931 1_655
O2 Zn0 1.990350 1_545
O3 P2 1.503933 1_555
O3 Zn1 1.990065 1_555
O4 P3 1.508453 1_555
O4 Zn1 2.061254 1_665
O5 P4 1.505400 1_545
O5 Zn1 2.061028 1_655
O6 P4 1.580251 1_555
O6 Sn0 2.073639 1_555
O7 P2 1.574666 1_555
O7 Sn0 2.086686 1_445
O8 P3 1.577904 1_455
O8 Sn0 2.071477 1_455
O9 P0 1.585735 1_555
O9 Sn1 2.022379 1_555
O10 P1 1.602248 1_555
O10 Sn1 2.043766 1_445
O11 S0 1.530774 1_565
O11 Sn1 2.147541 1_455
O12 P5 1.522818 1_555
O12 Zn2 2.043012 1_555
O13 P6 1.521612 1_555
O13 Zn2 2.015872 1_555
O14 P7 1.521126 1_555
O14 Zn2 2.043720 1_555
O15 P8 1.531842 1_555
O15 Zn3 1.960280 1_555
O16 P9 1.538628 1_555
O16 Zn3 2.020467 1_555
O17 P10 1.528506 1_555
O17 Zn3 2.002601 1_555
O18 P10 1.562609 1_555
O18 Sn2 2.065541 1_554
O19 P8 1.547170 1_555
O19 Sn2 2.062993 1_554
O20 P9 1.562395 1_555
O20 Sn2 2.052922 1_554
O21 P6 1.559190 1_555
O21 Sn3 2.031908 1_555
O22 P7 1.572817 1_555
O22 Sn3 2.059232 1_555
O23 P5 1.556014 1_555
O23 Sn3 2.004793 1_555
O24 S1 1.456943 1_555
O24 Zn4 2.047583 1_556
O25 P11 1.525059 1_555
O25 Zn4 2.000303 1_556
O26 P12 1.523777 1_555
O26 Zn4 2.019912 1_556
O27 P13 1.564707 1_555
O27 Sn4 2.023616 1_555
O28 S2 1.491297 1_555
O28 Sn4 2.145260 1_555
O29 P14 1.548445 1_555
O29 Sn4 2.018792 1_555
O30 P14 1.535034 1_555
O30 Zn5 2.003463 1_555
O31 P13 1.535871 1_555
O31 Zn5 2.024284 1_555
O32 S2 1.485462 1_555
O32 Zn5 2.101449 1_555
O33 P11 1.598635 1_555
O33 Sn5 2.026199 1_555
O34 P12 1.599899 1_555
O34 Sn5 2.020000 1_555
O35 S1 1.535566 1_555
O35 Sn5 2.121058 1_555
O36 P14 1.534945 1_555
O36 Zn0 2.161770 1_455
O37 P13 1.537302 1_555
O37 Zn0 2.063191 1_555
O38 S2 1.456332 1_555
O38 Zn0 2.207502 1_445
O39 P11 1.514775 1_555
O39 Zn1 2.076361 1_555
O40 P12 1.514036 1_555
O40 Zn1 2.091119 1_565
O41 S1 1.457964 1_555
O41 Zn1 2.248124 1_665
O42 P5 1.552760 1_555
O42 Sn0 2.078583 1_545
O43 P6 1.554433 1_555
O43 Sn0 2.085609 1_445
O44 P7 1.558002 1_555
O44 Sn0 2.100802 1_555
O45 P8 1.576827 1_555
O45 Sn1 2.058765 1_555
O46 P9 1.579530 1_555
O46 Sn1 2.048991 1_545
O47 P10 1.603162 1_555
O47 Sn1 2.106858 1_445
O48 P4 1.539441 1_545
O48 Zn2 2.257334 1_555
O49 P2 1.538444 1_555
O49 Zn2 2.196192 1_555
O50 P3 1.540725 1_555
O50 Zn2 2.187450 1_555
O51 P0 1.546859 1_555
O51 Zn3 2.173719 1_555
O52 P1 1.547800 1_655
O52 Zn3 2.248237 1_555
O53 S0 1.482423 1_555
O53 Zn3 2.327126 1_555
O54 S1 1.505980 1_555
O54 Sn2 2.161096 1_555
O55 P11 1.581703 1_655
O55 Sn2 2.054407 1_555
O56 P12 1.581980 1_545
O56 Sn2 2.053962 1_555
O57 P13 1.568032 1_545
O57 Sn3 2.058182 1_555
O58 S2 1.517403 1_555
O58 Sn3 2.235604 1_555
O59 P14 1.600059 1_655
O59 Sn3 2.099579 1_555
O60 P10 1.523236 1_555
O60 Zn4 2.212155 1_555
O61 P8 1.539818 1_455
O61 Zn4 2.161893 1_555
O62 P9 1.524243 1_565
O62 Zn4 2.151190 1_555
O63 P6 1.564143 1_565
O63 Sn4 2.039622 1_555
O64 P7 1.561678 1_555
O64 Sn4 2.076314 1_555
O65 P5 1.562716 1_455
O65 Sn4 2.055586 1_555
O66 S0 1.482633 1_565
O66 Zn5 2.303127 1_555
O67 P0 1.548754 1_555
O67 Zn5 2.214003 1_555
O68 P1 1.550077 1_555
O68 Zn5 2.189843 1_555
O69 P2 1.597048 1_555
O69 Sn5 2.123133 1_555
O70 P3 1.598267 1_455
O70 Sn5 2.124176 1_555
O71 P4 1.600420 1_555
O71 Sn5 2.127876 1_555
