# generated using pymatgen
data_FeSbS
_symmetry_space_group_name_H-M   'P 1'
_cell_length_a   5.90214957
_cell_length_b   6.01299425
_cell_length_c   5.99506482
_cell_angle_alpha   112.21903929
_cell_angle_beta   90.00000000
_cell_angle_gamma   90.00000000
_symmetry_Int_Tables_number   1
_chemical_formula_structural   FeSbS
_chemical_formula_sum   'Fe4 Sb4 S4'
_cell_volume   196.96372428
_cell_formula_units_Z   4
loop_
 _symmetry_equiv_pos_site_id
 _symmetry_equiv_pos_as_xyz
  1  'x, y, z'
loop_
 _atom_site_type_symbol
 _atom_site_label
 _atom_site_symmetry_multiplicity
 _atom_site_fract_x
 _atom_site_fract_y
 _atom_site_fract_z
 _atom_site_occupancy
  Fe  Fe0  1  0.98293414  0.69879184  0.69739746  1
  Fe  Fe1  1  0.51706586  0.69879184  0.19739646  1
  Fe  Fe2  1  0.01706586  0.30120816  0.30260254  1
  Fe  Fe3  1  0.48293414  0.30120816  0.80260254  1
  Sb  Sb0  1  0.36796299  0.85246023  0.63040666  1
  Sb  Sb1  1  0.63203701  0.14753977  0.36959334  1
  Sb  Sb2  1  0.13203701  0.85246023  0.13040666  1
  Sb  Sb3  1  0.86796299  0.14753977  0.86959334  1
  S  S0  1  0.36267873  0.35833276  0.17082874  1
  S  S1  1  0.63732127  0.64166724  0.82917126  1
  S  S2  1  0.86267873  0.64166724  0.32917126  1
  S  S3  1  0.13732127  0.35833276  0.67082874  1
loop_
_geom_bond_atom_site_label_1
_geom_bond_atom_site_label_2
_geom_bond_distance
_geom_bond_site_symmetry_2
Fe0 S3 2.190893 1_655
Fe0 S2 2.218448 1_555
Fe0 S1 2.260160 1_555
Fe0 Sb0 2.541650 1_655
Fe0 Sb2 2.559871 1_656
Fe0 Sb3 2.588511 1_565
Fe1 S0 2.190895 1_555
Fe1 S1 2.218442 1_554
Fe1 S2 2.260162 1_555
Fe1 Sb2 2.541649 1_555
Fe1 Sb0 2.559876 1_555
Fe1 Sb1 2.588511 1_565
Fe2 S2 2.190893 1_455
Fe2 S3 2.218448 1_555
Fe2 S0 2.260160 1_555
Fe2 Sb1 2.541650 1_455
Fe2 Sb3 2.559871 1_454
Fe2 Sb2 2.588511 1_545
Fe3 S1 2.190893 1_555
Fe3 S0 2.218448 1_556
Fe3 S3 2.260160 1_555
Fe3 Sb3 2.541650 1_555
Fe3 Sb1 2.559871 1_555
Fe3 Sb0 2.588511 1_545
S0 Sb1 2.587701 1_555
S1 Sb0 2.587701 1_555
S2 Sb2 2.587701 1_655
S3 Sb3 2.587701 1_455
