# generated using pymatgen
data_Na10Mg8SiS11O48
_symmetry_space_group_name_H-M   'P 1'
_cell_length_a   17.76269417
_cell_length_b   8.85676482
_cell_length_c   22.16761061
_cell_angle_alpha   90.01633880
_cell_angle_beta   90.02804755
_cell_angle_gamma   120.02628530
_symmetry_Int_Tables_number   1
_chemical_formula_structural   Na10Mg8SiS11O48
_chemical_formula_sum   'Na30 Mg24 Si3 S33 O144'
_cell_volume   3019.38325201
_cell_formula_units_Z   3
loop_
 _symmetry_equiv_pos_site_id
 _symmetry_equiv_pos_as_xyz
  1  'x, y, z'
loop_
 _atom_site_type_symbol
 _atom_site_label
 _atom_site_symmetry_multiplicity
 _atom_site_fract_x
 _atom_site_fract_y
 _atom_site_fract_z
 _atom_site_occupancy
  Na  Na0  1  0.82078798  0.98668477  0.24653432  1
  Na  Na1  1  0.68547682  0.37414927  0.24996254  1
  Na  Na2  1  0.99430860  0.64447466  0.25366350  1
  Na  Na3  1  0.49808624  0.63238853  0.25008785  1
  Na  Na4  1  0.32048160  0.65635810  0.74616901  1
  Na  Na5  1  0.81975143  0.65529925  0.74621867  1
  Na  Na6  1  0.99218381  0.34417837  0.75368630  1
  Na  Na7  1  0.49205898  0.34400841  0.75376982  1
  Na  Na8  1  0.18729850  0.00029582  0.74995027  1
  Na  Na9  1  0.68694717  0.99953692  0.75007071  1
  Na  Na10  1  0.33550549  0.97078397  0.59047408  1
  Na  Na11  1  0.83421077  0.97019490  0.59223900  1
  Na  Na12  1  0.15441075  0.97432164  0.08330982  1
  Na  Na13  1  0.83512015  0.70082594  0.09234358  1
  Na  Na14  1  0.35052633  0.03047003  0.90967327  1
  Na  Na15  1  0.84912074  0.02916040  0.90761484  1
  Na  Na16  1  0.16787715  0.03122480  0.41631797  1
  Na  Na17  1  0.84930619  0.67068099  0.40783779  1
  Na  Na18  1  0.00691540  0.01990865  0.50182121  1
  Na  Na19  1  0.50771317  0.99736001  0.49831133  1
  Na  Na20  1  0.00812728  0.01912906  0.99826275  1
  Na  Na21  1  0.50667088  0.99519405  0.00166116  1
  Na  Na22  1  0.33473428  0.33453653  0.83457504  1
  Na  Na23  1  0.83343138  0.33232656  0.83411504  1
  Na  Na24  1  0.33438328  0.33818561  0.33408598  1
  Na  Na25  1  0.83328493  0.33350703  0.33354141  1
  Na  Na26  1  0.17794282  0.65460115  0.16713076  1
  Na  Na27  1  0.66450153  0.66337176  0.16543739  1
  Na  Na28  1  0.16781822  0.66667691  0.66571727  1
  Na  Na29  1  0.66612125  0.66598391  0.66551030  1
  Mg  Mg0  1  0.99910159  0.00206334  0.34761310  1
  Mg  Mg1  1  0.49706356  0.99756552  0.35292866  1
  Mg  Mg2  1  0.99945967  0.00347141  0.85029103  1
  Mg  Mg3  1  0.49938159  0.00369511  0.85048638  1
  Mg  Mg4  1  0.99766397  0.99658230  0.64970249  1
  Mg  Mg5  1  0.49744895  0.99644636  0.64948415  1
  Mg  Mg6  1  0.99852469  0.00663021  0.15244003  1
  Mg  Mg7  1  0.49626513  0.99698439  0.14694665  1
  Mg  Mg8  1  0.33476731  0.33207636  0.68152732  1
  Mg  Mg9  1  0.83387694  0.32997532  0.68159279  1
  Mg  Mg10  1  0.33163913  0.33220482  0.18252844  1
  Mg  Mg11  1  0.83410285  0.33764312  0.18254286  1
  Mg  Mg12  1  0.33582504  0.34281463  0.98424032  1
  Mg  Mg13  1  0.83163968  0.33491727  0.98293228  1
  Mg  Mg14  1  0.33835912  0.34371056  0.48192413  1
  Mg  Mg15  1  0.83108531  0.32708991  0.48382525  1
  Mg  Mg16  1  0.16798364  0.65994125  0.01662349  1
  Mg  Mg17  1  0.66079233  0.66512987  0.01791961  1
  Mg  Mg18  1  0.16626791  0.65698826  0.51690497  1
  Mg  Mg19  1  0.66126483  0.66114056  0.51579735  1
  Mg  Mg20  1  0.17139262  0.66580534  0.31670021  1
  Mg  Mg21  1  0.66726857  0.66517987  0.31809581  1
  Mg  Mg22  1  0.16895311  0.66823447  0.81846135  1
  Mg  Mg23  1  0.66796992  0.66847458  0.81842348  1
  Si  Si0  1  0.84926511  0.69927326  0.25017638  1
  Si  Si1  1  0.34937565  0.99995846  0.74999997  1
  Si  Si2  1  0.84944805  0.99956607  0.75004162  1
  S  S0  1  0.15111964  0.00266597  0.25023236  1
  S  S1  1  0.64403626  0.99850343  0.24976317  1
  S  S2  1  0.35280568  0.70600238  0.24981035  1
  S  S3  1  0.00346661  0.30039659  0.24976727  1
  S  S4  1  0.49606050  0.28717421  0.25025482  1
  S  S5  1  0.14607811  0.29177728  0.74965923  1
  S  S6  1  0.64630087  0.29230683  0.74962695  1
  S  S7  1  0.00004065  0.70815615  0.75030954  1
  S  S8  1  0.50015300  0.70810588  0.75032222  1
  S  S9  1  0.48334739  0.33671481  0.58343094  1
  S  S10  1  0.98334939  0.33765826  0.58333387  1
  S  S11  1  0.18311234  0.03575631  0.58153140  1
  S  S12  1  0.68294809  0.03528484  0.58334846  1
  S  S13  1  0.33366811  0.62824756  0.58337486  1
  S  S14  1  0.83375035  0.62925045  0.58159429  1
  S  S15  1  0.48213878  0.63101972  0.08545466  1
  S  S16  1  0.98359919  0.62874408  0.08315736  1
  S  S17  1  0.33368269  0.03797793  0.08129569  1
  S  S18  1  0.83399856  0.03921434  0.08196230  1
  S  S19  1  0.18568590  0.33317385  0.08375523  1
  S  S20  1  0.68364223  0.33101988  0.08321521  1
  S  S21  1  0.31537224  0.66305516  0.91641603  1
  S  S22  1  0.81491952  0.66355361  0.91849460  1
  S  S23  1  0.01910967  0.37197460  0.91683559  1
  S  S24  1  0.51934889  0.37135332  0.91669151  1
  S  S25  1  0.16524095  0.96437385  0.91832041  1
  S  S26  1  0.66538061  0.96398432  0.91669604  1
  S  S27  1  0.31470030  0.96179506  0.41870640  1
  S  S28  1  0.81522489  0.96738222  0.41799275  1
  S  S29  1  0.16651150  0.36910389  0.41622932  1
  S  S30  1  0.66573264  0.36713491  0.41695196  1
  S  S31  1  0.01976277  0.66491097  0.41663448  1
  S  S32  1  0.51828951  0.66737300  0.41465728  1
  O  O0  1  0.11051518  0.02478532  0.30565873  1
  O  O1  1  0.60627249  0.03395227  0.30343080  1
  O  O2  1  0.40808866  0.78879508  0.30336860  1
  O  O3  1  0.90976138  0.78554070  0.31029178  1
  O  O4  1  0.48695464  0.18635253  0.30491868  1
  O  O5  1  0.99111510  0.19365433  0.30374692  1
  O  O6  1  0.10995232  0.17965049  0.80335244  1
  O  O7  1  0.61040875  0.18003503  0.80329132  1
  O  O8  1  0.48889161  0.79049552  0.80451487  1
  O  O9  1  0.98854330  0.79016008  0.80452762  1
  O  O10  1  0.41014898  0.03588785  0.80984836  1
  O  O11  1  0.91015980  0.03511205  0.80992185  1
  O  O12  1  0.39212122  0.96382158  0.69015817  1
  O  O13  1  0.89234763  0.96376874  0.69014910  1
  O  O14  1  0.09341387  0.20960758  0.69547066  1
  O  O15  1  0.59369838  0.21030768  0.69548456  1
  O  O16  1  0.02003454  0.82033545  0.69657616  1
  O  O17  1  0.51976451  0.81991470  0.69661173  1
  O  O18  1  0.39340099  0.80900934  0.19514884  1
  O  O19  1  0.89316533  0.82044052  0.19014480  1
  O  O20  1  0.01803673  0.22459283  0.19514090  1
  O  O21  1  0.51100699  0.20786577  0.19637215  1
  O  O22  1  0.09647546  0.97791329  0.19591010  1
  O  O23  1  0.59085264  0.97419099  0.19577568  1
  O  O24  1  0.44478097  0.35677250  0.64043659  1
  O  O25  1  0.94443737  0.35645643  0.64026131  1
  O  O26  1  0.23748367  0.12131222  0.63588661  1
  O  O27  1  0.73567656  0.11521458  0.63903708  1
  O  O28  1  0.32495549  0.53243740  0.64038614  1
  O  O29  1  0.82562655  0.52929200  0.63722367  1
  O  O30  1  0.44236929  0.53206445  0.14213905  1
  O  O31  1  0.94462343  0.53260634  0.13972975  1
  O  O32  1  0.31966997  0.12563794  0.13341352  1
  O  O33  1  0.82570468  0.12257712  0.13764190  1
  O  O34  1  0.23705422  0.35494758  0.13849933  1
  O  O35  1  0.73613948  0.35586886  0.13893633  1
  O  O36  1  0.22677342  0.30382050  0.03019861  1
  O  O37  1  0.72798306  0.31139337  0.03030988  1
  O  O38  1  0.42787040  0.54046713  0.03271809  1
  O  O39  1  0.92649887  0.54022294  0.03130581  1
  O  O40  1  0.34243784  0.13525139  0.02476309  1
  O  O41  1  0.84018579  0.14012973  0.02740935  1
  O  O42  1  0.22507138  0.13810190  0.52630747  1
  O  O43  1  0.72723350  0.14339503  0.53042418  1
  O  O44  1  0.33888488  0.53462651  0.53081578  1
  O  O45  1  0.83979760  0.54076380  0.52696292  1
  O  O46  1  0.42489673  0.31050729  0.53211408  1
  O  O47  1  0.92533586  0.31207450  0.53174546  1
  O  O48  1  0.27028887  0.69011728  0.96777331  1
  O  O49  1  0.77159629  0.68739654  0.97205175  1
  O  O50  1  0.07143336  0.46484317  0.96941849  1
  O  O51  1  0.57215538  0.46433552  0.96911632  1
  O  O52  1  0.15599415  0.86202038  0.97364170  1
  O  O53  1  0.65679293  0.85735292  0.96981336  1
  O  O54  1  0.27480002  0.86263357  0.47494765  1
  O  O55  1  0.77232984  0.85691329  0.47180926  1
  O  O56  1  0.15615868  0.45053533  0.47098786  1
  O  O57  1  0.65714856  0.45723312  0.46993398  1
  O  O58  1  0.07559223  0.68469856  0.46849633  1
  O  O59  1  0.57271086  0.68697802  0.46746390  1
  O  O60  1  0.05800444  0.64685072  0.35961300  1
  O  O61  1  0.55835113  0.64783384  0.35814509  1
  O  O62  1  0.25676972  0.87445111  0.36650481  1
  O  O63  1  0.76456074  0.88435588  0.36239211  1
  O  O64  1  0.17590731  0.47218294  0.36208941  1
  O  O65  1  0.67828377  0.47140814  0.36106080  1
  O  O66  1  0.05833118  0.46744689  0.85985139  1
  O  O67  1  0.55843492  0.46734916  0.85967528  1
  O  O68  1  0.17643618  0.87786108  0.86412180  1
  O  O69  1  0.67761674  0.88368640  0.86095299  1
  O  O70  1  0.26639355  0.64264944  0.85957483  1
  O  O71  1  0.76469509  0.64505094  0.86265171  1
  O  O72  1  0.01382757  0.82922340  0.41515306  1
  O  O73  1  0.50920660  0.82505960  0.41081415  1
  O  O74  1  0.40194788  0.98212873  0.41204716  1
  O  O75  1  0.90264022  0.98076143  0.41428552  1
  O  O76  1  0.08885241  0.18810550  0.41158358  1
  O  O77  1  0.58868811  0.19108400  0.41228783  1
  O  O78  1  0.00991570  0.19447316  0.91546335  1
  O  O79  1  0.50993096  0.19401267  0.91526701  1
  O  O80  1  0.08814621  0.98570039  0.91265932  1
  O  O81  1  0.58858675  0.98612973  0.91181844  1
  O  O82  1  0.40291017  0.82368630  0.91326991  1
  O  O83  1  0.90243069  0.82533817  0.91485713  1
  O  O84  1  0.49072817  0.17593448  0.58651312  1
  O  O85  1  0.99021722  0.17577162  0.58627427  1
  O  O86  1  0.09540678  0.01474106  0.58730235  1
  O  O87  1  0.59518485  0.01300047  0.58848631  1
  O  O88  1  0.41282872  0.80530526  0.58456414  1
  O  O89  1  0.91317251  0.80633617  0.58355763  1
  O  O90  1  0.49147940  0.80740892  0.08864257  1
  O  O91  1  0.99372370  0.80845541  0.08608439  1
  O  O92  1  0.41084452  0.01803819  0.08786291  1
  O  O93  1  0.91335347  0.02101423  0.08391085  1
  O  O94  1  0.09806411  0.16995815  0.08891518  1
  O  O95  1  0.59565363  0.17740815  0.08827588  1
  O  O96  1  0.33839735  0.17479869  0.74488122  1
  O  O97  1  0.83915674  0.17525487  0.74519553  1
  O  O98  1  0.23700702  0.32660985  0.74281246  1
  O  O99  1  0.73757369  0.32808505  0.74273458  1
  O  O100  1  0.41827853  0.53619475  0.74335906  1
  O  O101  1  0.91806333  0.53667701  0.74295007  1
  O  O102  1  0.34597357  0.52976650  0.24500288  1
  O  O103  1  0.83845859  0.50291102  0.24533781  1
  O  O104  1  0.41923328  0.31243752  0.24452004  1
  O  O105  1  0.92094921  0.30832333  0.24393362  1
  O  O106  1  0.23904898  0.15605343  0.24443202  1
  O  O107  1  0.73492312  0.14784763  0.24328481  1
  O  O108  1  0.32431163  0.50652757  0.92301066  1
  O  O109  1  0.82485245  0.50758666  0.92333216  1
  O  O110  1  0.42917715  0.34607492  0.92066332  1
  O  O111  1  0.92880128  0.34545172  0.92088064  1
  O  O112  1  0.24727741  0.13780068  0.92200226  1
  O  O113  1  0.74757477  0.13813880  0.92135264  1
  O  O114  1  0.32088770  0.13721043  0.42266942  1
  O  O115  1  0.82510917  0.14308281  0.42290942  1
  O  O116  1  0.24423129  0.34475666  0.42058609  1
  O  O117  1  0.74760639  0.35687557  0.42178439  1
  O  O118  1  0.43060947  0.50884192  0.41991462  1
  O  O119  1  0.92949188  0.51405834  0.42217175  1
  O  O120  1  0.17464558  0.48750208  0.07735082  1
  O  O121  1  0.67921091  0.49568113  0.07803747  1
  O  O122  1  0.07258698  0.65360157  0.07736190  1
  O  O123  1  0.57001806  0.64889916  0.08040119  1
  O  O124  1  0.25221132  0.86170583  0.07776685  1
  O  O125  1  0.75659203  0.85860246  0.07884321  1
  O  O126  1  0.17806563  0.86168705  0.57775297  1
  O  O127  1  0.67840942  0.86149396  0.57801981  1
  O  O128  1  0.25621861  0.65417769  0.57977322  1
  O  O129  1  0.75632745  0.65456253  0.57859851  1
  O  O130  1  0.07064160  0.49323495  0.57717663  1
  O  O131  1  0.57066486  0.49323722  0.57720975  1
  O  O132  1  0.15518551  0.83797539  0.25529970  1
  O  O133  1  0.65020496  0.83660925  0.25630540  1
  O  O134  1  0.26456413  0.68383423  0.25589836  1
  O  O135  1  0.75182475  0.68043624  0.25491894  1
  O  O136  1  0.07663729  0.48316444  0.25587011  1
  O  O137  1  0.57487918  0.46739439  0.25515690  1
  O  O138  1  0.14994176  0.46359955  0.75683168  1
  O  O139  1  0.65049154  0.46433195  0.75696455  1
  O  O140  1  0.07358281  0.67300291  0.75715663  1
  O  O141  1  0.57375434  0.67296120  0.75688001  1
  O  O142  1  0.25104547  0.82505718  0.75508892  1
  O  O143  1  0.75158680  0.82396500  0.75508132  1
loop_
_geom_bond_atom_site_label_1
_geom_bond_atom_site_label_2
_geom_bond_distance
_geom_bond_site_symmetry_2
Na0 O135 2.359524 1_555
Na0 O105 2.492306 1_565
Na0 O107 2.558813 1_565
Na0 O133 2.639089 1_555
Na0 O33 2.679498 1_565
Na0 O19 2.697821 1_555
Na0 O63 2.740976 1_555
Na0 O5 2.926897 1_565
Na1 O135 2.357958 1_555
Na1 O103 2.365185 1_555
Na1 O137 2.485647 1_555
Na1 O107 2.563645 1_555
Na1 O65 2.633036 1_555
Na1 O35 2.653533 1_555
Na1 O1 2.867736 1_555
Na1 O21 2.934629 1_555
Na2 O103 2.407353 1_555
Na2 O132 2.490571 1_655
Na2 O136 2.504596 1_655
Na2 O105 2.593275 1_555
Na2 O60 2.601964 1_655
Na2 O31 2.694565 1_555
Na2 O3 2.696461 1_555
Na2 O22 2.880029 1_655
Na3 O102 2.383515 1_555
Na3 O133 2.387440 1_555
Na3 O137 2.450210 1_555
Na3 O104 2.456521 1_555
Na3 O30 2.571317 1_555
Na3 O61 2.598685 1_555
Na3 O2 2.843697 1_555
Na3 O23 2.888052 1_555
Na4 O142 2.374253 1_555
Na4 O100 2.450402 1_555
Na4 O98 2.529698 1_555
Na4 O28 2.606859 1_555
Na4 O138 2.640461 1_555
Na4 O12 2.666810 1_555
Na4 O70 2.672724 1_555
Na4 O8 2.910577 1_555
Na5 O143 2.355071 1_555
Na5 O101 2.448416 1_555
Na5 O99 2.510287 1_555
Na5 O139 2.620754 1_555
Na5 O13 2.673850 1_555
Na5 O29 2.685046 1_555
Na5 O71 2.745937 1_555
Na5 O9 2.915122 1_555
Na6 O97 2.364669 1_555
Na6 O138 2.451424 1_655
Na6 O140 2.522629 1_655
Na6 O66 2.612109 1_655
Na6 O101 2.634981 1_555
Na6 O25 2.672730 1_555
Na6 O11 2.679945 1_555
Na6 O14 2.909530 1_655
Na7 O96 2.374914 1_555
Na7 O139 2.461444 1_555
Na7 O141 2.523369 1_555
Na7 O67 2.608030 1_555
Na7 O100 2.626884 1_555
Na7 O24 2.668879 1_555
Na7 O10 2.671981 1_555
Na7 O15 2.910672 1_555
Na8 O96 2.335326 1_555
Na8 O142 2.337253 1_545
Na8 O98 2.569786 1_555
Na8 O140 2.578571 1_545
Na8 O26 2.717422 1_555
Na8 O68 2.722362 1_545
Na8 O6 2.827882 1_555
Na8 O16 2.832623 1_545
Na9 O97 2.352196 1_565
Na9 O143 2.352757 1_555
Na9 O141 2.571336 1_555
Na9 O99 2.585358 1_565
Na9 O69 2.636979 1_555
Na9 O27 2.640669 1_565
Na9 O7 2.823367 1_565
Na9 O17 2.832189 1_555
Na10 O84 2.428526 1_565
Na10 O128 2.439207 1_555
Na10 O12 2.440927 1_555
Na10 O88 2.462968 1_555
Na10 O126 2.475610 1_555
Na10 O54 2.756969 1_555
Na10 O26 2.854194 1_565
Na10 O46 2.910488 1_565
Na11 O13 2.416013 1_555
Na11 O129 2.438998 1_555
Na11 O85 2.441842 1_565
Na11 O127 2.453066 1_555
Na11 O89 2.479439 1_555
Na11 O27 2.835494 1_565
Na11 O55 2.869442 1_555
Na11 O47 2.947223 1_565
Na12 O94 2.398966 1_565
Na12 O124 2.400421 1_555
Na12 O122 2.462988 1_555
Na12 O91 2.472332 1_455
Na12 O52 2.631902 1_554
Na12 O22 2.706598 1_555
Na12 O32 2.775852 1_565
Na12 O36 2.793590 1_565
Na13 O19 2.406040 1_555
Na13 O125 2.436900 1_555
Na13 O121 2.456474 1_555
Na13 O93 2.462647 1_565
Na13 O91 2.485459 1_555
Na13 O35 2.849553 1_555
Na13 O49 2.874118 1_554
Na13 O39 2.966528 1_555
Na14 O110 2.432190 1_555
Na14 O82 2.435523 1_545
Na14 O10 2.443817 1_555
Na14 O79 2.454709 1_555
Na14 O112 2.467171 1_555
Na14 O40 2.742859 1_556
Na14 O68 2.867421 1_545
Na14 O48 2.912245 1_545
Na15 O11 2.411096 1_555
Na15 O83 2.427342 1_545
Na15 O111 2.442990 1_555
Na15 O113 2.453669 1_555
Na15 O78 2.479076 1_655
Na15 O69 2.842250 1_545
Na15 O41 2.863243 1_556
Na16 O114 2.394600 1_555
Na16 O72 2.406137 1_545
Na16 O116 2.406244 1_555
Na16 O76 2.421530 1_555
Na16 O42 2.628079 1_555
Na16 O0 2.645409 1_555
Na16 O62 2.799185 1_545
Na16 O58 2.900563 1_545
Na17 O3 2.402931 1_555
Na17 O75 2.419912 1_555
Na17 O119 2.455813 1_555
Na17 O117 2.461655 1_555
Na17 O72 2.535894 1_655
Na17 O65 2.837009 1_555
Na17 O45 2.851944 1_555
Na17 O55 2.976358 1_555
Na18 O85 2.430489 1_455
Na18 O86 2.476412 1_555
Na18 O76 2.484658 1_555
Na18 O89 2.546832 1_445
Na18 O75 2.582568 1_445
Na18 O72 2.600829 1_545
Na19 O73 2.475963 1_555
Na19 O77 2.486727 1_565
Na19 O87 2.492094 1_565
Na19 O88 2.554532 1_555
Na19 O84 2.625207 1_565
Na19 O74 2.635736 1_555
Na20 O78 2.394578 1_555
Na20 O80 2.476358 1_545
Na20 O94 2.496886 1_556
Na20 O93 2.543662 1_456
Na20 O83 2.580507 1_445
Na20 O91 2.619505 1_446
Na21 O90 2.471836 1_555
Na21 O81 2.491931 1_554
Na21 O95 2.496332 1_565
Na21 O79 2.582997 1_564
Na21 O82 2.595482 1_554
Na21 O92 2.633877 1_565
Na22 O96 2.459625 1_555
Na22 O110 2.508329 1_555
Na22 O108 2.545339 1_555
Na22 O112 2.549767 1_555
Na22 O100 2.614042 1_555
Na22 O98 2.651522 1_555
Na23 O97 2.443608 1_555
Na23 O111 2.526312 1_555
Na23 O113 2.530478 1_555
Na23 O109 2.565024 1_555
Na23 O101 2.627119 1_555
Na23 O99 2.633731 1_555
Na24 O118 2.497125 1_555
Na24 O116 2.518076 1_555
Na24 O102 2.544376 1_555
Na24 O104 2.571431 1_555
Na24 O114 2.580174 1_555
Na24 O106 2.584683 1_555
Na25 O103 2.438539 1_555
Na25 O117 2.550166 1_555
Na25 O115 2.558758 1_555
Na25 O119 2.568586 1_555
Na25 O105 2.602036 1_555
Na25 O107 2.622791 1_555
Na26 O134 2.429933 1_555
Na26 O120 2.462942 1_555
Na26 O124 2.571400 1_555
Na26 O136 2.585323 1_555
Na26 O132 2.697621 1_555
Na26 O122 2.727992 1_555
Na27 O135 2.474991 1_555
Na27 O123 2.483534 1_555
Na27 O121 2.532783 1_555
Na27 O125 2.554346 1_555
Na27 O137 2.596594 1_555
Na27 O133 2.620082 1_555
Na28 O142 2.449146 1_555
Na28 O128 2.506858 1_555
Na28 O126 2.550723 1_555
Na28 O130 2.555940 1_555
Na28 O138 2.616580 1_555
Na28 O140 2.647793 1_555
Na29 O143 2.464660 1_555
Na29 O127 2.536059 1_555
Na29 O131 2.538904 1_555
Na29 O129 2.540596 1_555
Na29 O139 2.623592 1_555
Na29 O141 2.627310 1_555
Mg0 O3 1.957675 1_545
Mg0 O5 2.021586 1_555
Mg0 O0 2.103627 1_655
Mg0 O76 2.152905 1_655
Mg0 O75 2.198838 1_545
Mg0 O72 2.248342 1_645
Mg1 O2 2.048467 1_555
Mg1 O4 2.064445 1_565
Mg1 O73 2.087593 1_555
Mg1 O74 2.088465 1_555
Mg1 O1 2.108897 1_565
Mg1 O77 2.126684 1_565
Mg2 O11 1.959342 1_555
Mg2 O9 2.065935 1_545
Mg2 O6 2.075441 1_655
Mg2 O80 2.159624 1_645
Mg2 O78 2.160395 1_655
Mg2 O83 2.188718 1_545
Mg3 O10 1.963699 1_555
Mg3 O8 2.070111 1_545
Mg3 O7 2.084110 1_555
Mg3 O79 2.149602 1_555
Mg3 O81 2.151303 1_545
Mg3 O82 2.164401 1_545
Mg4 O13 1.961015 1_555
Mg4 O14 2.065787 1_665
Mg4 O16 2.072562 1_655
Mg4 O86 2.162549 1_665
Mg4 O89 2.169584 1_555
Mg4 O85 2.173557 1_565
Mg5 O12 1.964055 1_555
Mg5 O15 2.075272 1_565
Mg5 O17 2.076975 1_555
Mg5 O87 2.147425 1_565
Mg5 O88 2.155487 1_555
Mg5 O84 2.163553 1_565
Mg6 O19 1.958076 1_545
Mg6 O20 2.017865 1_655
Mg6 O22 2.112292 1_645
Mg6 O94 2.155366 1_655
Mg6 O93 2.191690 1_555
Mg6 O91 2.258372 1_545
Mg7 O18 2.051956 1_555
Mg7 O21 2.065551 1_565
Mg7 O92 2.081766 1_565
Mg7 O90 2.086294 1_555
Mg7 O23 2.091176 1_555
Mg7 O95 2.131158 1_565
Mg8 O96 2.001948 1_555
Mg8 O26 2.064747 1_555
Mg8 O24 2.066471 1_555
Mg8 O28 2.078808 1_555
Mg8 O100 2.158738 1_555
Mg8 O98 2.186683 1_555
Mg9 O97 2.001011 1_555
Mg9 O27 2.056055 1_555
Mg9 O25 2.071739 1_555
Mg9 O29 2.089236 1_555
Mg9 O101 2.166668 1_555
Mg9 O99 2.176486 1_555
Mg10 O34 2.037905 1_555
Mg10 O32 2.046237 1_555
Mg10 O30 2.078887 1_555
Mg10 O106 2.111277 1_555
Mg10 O102 2.144027 1_555
Mg10 O104 2.147231 1_555
Mg11 O103 1.992891 1_555
Mg11 O35 2.065902 1_555
Mg11 O31 2.084831 1_555
Mg11 O33 2.087006 1_555
Mg11 O105 2.167531 1_555
Mg11 O107 2.186829 1_555
Mg12 O38 2.006305 1_556
Mg12 O36 2.059607 1_556
Mg12 O108 2.069819 1_555
Mg12 O40 2.101704 1_556
Mg12 O110 2.165888 1_555
Mg12 O112 2.193760 1_555
Mg13 O37 2.038290 1_556
Mg13 O39 2.055769 1_556
Mg13 O41 2.057749 1_556
Mg13 O109 2.069863 1_555
Mg13 O113 2.126669 1_555
Mg13 O111 2.172698 1_555
Mg14 O44 2.004248 1_555
Mg14 O46 2.034219 1_555
Mg14 O118 2.078102 1_555
Mg14 O114 2.144024 1_555
Mg14 O116 2.158163 1_555
Mg14 O42 2.160806 1_555
Mg15 O43 2.028821 1_555
Mg15 O47 2.042066 1_555
Mg15 O45 2.055604 1_555
Mg15 O115 2.077535 1_555
Mg15 O117 2.132946 1_555
Mg15 O119 2.184540 1_555
Mg16 O50 2.013312 1_554
Mg16 O48 2.015538 1_554
Mg16 O120 2.083409 1_555
Mg16 O52 2.130421 1_554
Mg16 O124 2.142371 1_555
Mg16 O122 2.143457 1_555
Mg17 O51 2.001740 1_554
Mg17 O53 2.040264 1_554
Mg17 O123 2.075868 1_555
Mg17 O49 2.135433 1_554
Mg17 O121 2.151150 1_555
Mg17 O125 2.175788 1_555
Mg18 O56 2.020371 1_555
Mg18 O58 2.049396 1_555
Mg18 O130 2.076439 1_555
Mg18 O54 2.094657 1_555
Mg18 O128 2.129167 1_555
Mg18 O126 2.183640 1_555
Mg19 O59 2.008299 1_555
Mg19 O57 2.041374 1_555
Mg19 O131 2.064658 1_555
Mg19 O55 2.104455 1_555
Mg19 O127 2.145096 1_555
Mg19 O129 2.211095 1_555
Mg20 O64 2.024381 1_555
Mg20 O62 2.031293 1_555
Mg20 O134 2.078204 1_555
Mg20 O136 2.130636 1_555
Mg20 O60 2.157128 1_555
Mg20 O132 2.168141 1_555
Mg21 O135 2.008607 1_555
Mg21 O65 2.056094 1_555
Mg21 O61 2.063740 1_555
Mg21 O63 2.087794 1_555
Mg21 O133 2.175930 1_555
Mg21 O137 2.197197 1_555
Mg22 O142 2.001284 1_555
Mg22 O68 2.059373 1_555
Mg22 O70 2.066095 1_555
Mg22 O66 2.090670 1_555
Mg22 O138 2.156597 1_555
Mg22 O140 2.188090 1_555
Mg23 O143 2.007547 1_555
Mg23 O69 2.055062 1_555
Mg23 O71 2.076376 1_555
Mg23 O67 2.080612 1_555
Mg23 O139 2.158226 1_555
Mg23 O141 2.174360 1_555
O0 S0 1.486722 1_555
O1 S1 1.474859 1_545
O2 S2 1.479622 1_555
O3 Si0 1.640331 1_555
O4 S4 1.465664 1_555
O5 S3 1.472098 1_655
O6 S5 1.475919 1_555
O7 S6 1.475588 1_555
O8 S8 1.470195 1_555
O9 S7 1.470346 1_655
O10 Si1 1.637458 1_545
O11 Si2 1.637879 1_545
O12 Si1 1.637870 1_555
O13 Si2 1.639036 1_555
O14 S5 1.471307 1_555
O15 S6 1.469780 1_555
O16 S7 1.476493 1_555
O17 S8 1.474932 1_555
O18 S2 1.470929 1_555
O19 Si0 1.641636 1_555
O20 S3 1.468955 1_555
O21 S4 1.475483 1_555
O22 S0 1.491982 1_565
O23 S1 1.471811 1_555
O24 S9 1.490047 1_555
O25 S10 1.487904 1_555
O26 S11 1.491543 1_555
O27 S12 1.495702 1_555
O28 S13 1.486806 1_555
O29 S14 1.482649 1_555
O30 S15 1.492636 1_555
O31 S16 1.479361 1_555
O32 S17 1.480769 1_555
O33 S18 1.482835 1_555
O34 S19 1.471432 1_555
O35 S20 1.495673 1_555
O36 S19 1.483337 1_555
O37 S20 1.470979 1_555
O38 S15 1.470963 1_555
O39 S16 1.472104 1_555
O40 S17 1.484462 1_555
O41 S18 1.475058 1_555
O42 S11 1.483632 1_555
O43 S12 1.469611 1_555
O44 S13 1.459471 1_555
O45 S14 1.475196 1_555
O46 S9 1.477634 1_555
O47 S10 1.478528 1_555
O48 S21 1.479077 1_555
O49 S22 1.486503 1_555
O50 S23 1.460266 1_555
O51 S24 1.460780 1_555
O52 S25 1.484752 1_555
O53 S26 1.469109 1_555
O54 S27 1.485437 1_555
O55 S28 1.488792 1_555
O56 S29 1.469659 1_555
O57 S30 1.469981 1_555
O58 S31 1.469926 1_555
O59 S32 1.471628 1_555
O60 S31 1.481296 1_555
O61 S32 1.493210 1_555
O62 S27 1.482574 1_555
O63 S28 1.485213 1_555
O64 S29 1.466297 1_555
O65 S30 1.494162 1_555
O66 S23 1.485918 1_555
O67 S24 1.487642 1_555
O68 S25 1.490749 1_555
O69 S26 1.494792 1_555
O70 S21 1.489522 1_555
O71 S22 1.485810 1_555
O72 S31 1.511156 1_555
O73 S32 1.486377 1_555
O74 S27 1.475424 1_555
O75 S28 1.499254 1_555
O76 S29 1.506632 1_555
O77 S30 1.476140 1_555
O78 S23 1.497359 1_555
O79 S24 1.494314 1_555
O80 S25 1.478317 1_555
O81 S26 1.475961 1_555
O82 S21 1.494283 1_555
O83 S22 1.499008 1_555
O84 S9 1.495493 1_555
O85 S10 1.499995 1_555
O86 S11 1.479201 1_555
O87 S12 1.474583 1_555
O88 S13 1.493366 1_555
O89 S14 1.495836 1_555
O90 S15 1.487827 1_555
O91 S16 1.511091 1_555
O92 S17 1.474108 1_555
O93 S18 1.497343 1_555
O94 S19 1.507887 1_555
O95 S20 1.475966 1_555
O96 Si1 1.658644 1_545
O97 Si2 1.658598 1_545
O98 S5 1.492812 1_555
O99 S6 1.496106 1_555
O100 S8 1.496888 1_555
O101 S7 1.496635 1_655
O102 S2 1.507564 1_555
O103 Si0 1.654906 1_555
O104 S4 1.494641 1_555
O105 S3 1.507589 1_655
O106 S0 1.475909 1_555
O107 S1 1.496568 1_545
O108 S21 1.479490 1_555
O109 S22 1.481477 1_555
O110 S24 1.504848 1_555
O111 S23 1.503149 1_655
O112 S25 1.499716 1_545
O113 S26 1.505783 1_545
O114 S27 1.504173 1_545
O115 S28 1.480110 1_545
O116 S29 1.503147 1_555
O117 S30 1.505595 1_555
O118 S32 1.490767 1_555
O119 S31 1.492471 1_655
O120 S19 1.481632 1_555
O121 S20 1.503719 1_555
O122 S16 1.488427 1_455
O123 S15 1.492334 1_555
O124 S17 1.508789 1_565
O125 S18 1.500927 1_565
O126 S11 1.501156 1_565
O127 S12 1.505112 1_565
O128 S13 1.505920 1_555
O129 S14 1.501473 1_555
O130 S10 1.477686 1_455
O131 S9 1.481511 1_555
O132 S0 1.500312 1_565
O133 S1 1.498776 1_555
O134 S2 1.485182 1_555
O135 Si0 1.657036 1_555
O136 S3 1.490634 1_555
O137 S4 1.510940 1_555
O138 S5 1.497051 1_555
O139 S6 1.496548 1_555
O140 S7 1.494416 1_555
O141 S8 1.494760 1_555
O142 Si1 1.659969 1_555
O143 Si2 1.657586 1_555
