# generated using pymatgen
data_Na4MgTi2(GeO5)2
_symmetry_space_group_name_H-M   'P 1'
_cell_length_a   5.83870140
_cell_length_b   6.63496181
_cell_length_c   6.63496181
_cell_angle_alpha   90.00000000
_cell_angle_beta   90.00000000
_cell_angle_gamma   90.00000000
_symmetry_Int_Tables_number   1
_chemical_formula_structural   Na4MgTi2(GeO5)2
_chemical_formula_sum   'Na4 Mg1 Ti2 Ge2 O10'
_cell_volume   257.03550650
_cell_formula_units_Z   1
loop_
 _symmetry_equiv_pos_site_id
 _symmetry_equiv_pos_as_xyz
  1  'x, y, z'
loop_
 _atom_site_type_symbol
 _atom_site_label
 _atom_site_symmetry_multiplicity
 _atom_site_fract_x
 _atom_site_fract_y
 _atom_site_fract_z
 _atom_site_occupancy
  Na  Na0  1  0.98772003  0.97652153  0.97652153  1
  Na  Na1  1  0.98772003  0.52347847  0.97652153  1
  Na  Na2  1  0.98772003  0.52347847  0.52347847  1
  Na  Na3  1  0.98772003  0.97652153  0.52347847  1
  Mg  Mg0  1  0.16877865  0.25000000  0.25000000  1
  Ti  Ti0  1  0.53552865  0.75000000  0.75000000  1
  Ti  Ti1  1  0.55790479  0.25000000  0.25000000  1
  Ge  Ge0  1  0.47670998  0.25000000  0.75000000  1
  Ge  Ge1  1  0.47670998  0.75000000  0.25000000  1
  O  O0  1  0.66135243  0.75000000  0.46589352  1
  O  O1  1  0.66135243  0.75000000  0.03410648  1
  O  O2  1  0.66135243  0.46589352  0.75000000  1
  O  O3  1  0.66135243  0.03410648  0.75000000  1
  O  O4  1  0.29851898  0.96716046  0.25000000  1
  O  O5  1  0.29851898  0.25000000  0.96716046  1
  O  O6  1  0.29851898  0.25000000  0.53283954  1
  O  O7  1  0.29851898  0.53283954  0.25000000  1
  O  O8  1  0.86106539  0.25000000  0.25000000  1
  O  O9  1  0.23293683  0.75000000  0.75000000  1
loop_
_geom_bond_atom_site_label_1
_geom_bond_atom_site_label_2
_geom_bond_distance
_geom_bond_site_symmetry_2
Na0 O3 2.456836 1_565
Na0 O1 2.456836 1_556
Na0 O9 2.562750 1_655
Na0 O4 2.566970 1_656
Na0 O5 2.566970 1_665
Na0 O8 2.670546 1_566
Na1 O1 2.456836 1_556
Na1 O2 2.456836 1_555
Na1 O9 2.562750 1_655
Na1 O7 2.566970 1_656
Na1 O5 2.566970 1_655
Na1 O8 2.670546 1_556
Na2 O2 2.456836 1_555
Na2 O0 2.456836 1_555
Na2 O9 2.562750 1_655
Na2 O6 2.566970 1_655
Na2 O7 2.566970 1_655
Na2 O8 2.670546 1_555
Na3 O0 2.456836 1_555
Na3 O3 2.456836 1_565
Na3 O9 2.562750 1_655
Na3 O6 2.566970 1_665
Na3 O4 2.566970 1_655
Na3 O8 2.670546 1_565
Mg0 O8 1.796646 1_455
Mg0 O5 2.023751 1_554
Mg0 O4 2.023751 1_545
Mg0 O6 2.023751 1_555
Mg0 O7 2.023751 1_555
Ge0 O6 1.777215 1_555
Ge0 O5 1.777215 1_555
Ge0 O3 1.792802 1_555
Ge0 O2 1.792802 1_555
Ge1 O7 1.777215 1_555
Ge1 O4 1.777215 1_555
Ge1 O0 1.792802 1_555
Ge1 O1 1.792802 1_555
O0 Ti0 2.023133 1_555
O1 Ti0 2.023133 1_554
O2 Ti0 2.023133 1_555
O3 Ti0 2.023133 1_545
O4 Ti1 2.411509 1_565
O5 Ti1 2.411509 1_556
O6 Ti1 2.411509 1_555
O7 Ti1 2.411509 1_555
O8 Ti1 1.770064 1_555
O9 Ti0 1.766743 1_555
