# generated using pymatgen
data_TiRh
_symmetry_space_group_name_H-M   'P 1'
_cell_length_a   3.41097137
_cell_length_b   4.15864880
_cell_length_c   4.15864880
_cell_angle_alpha   90.00000000
_cell_angle_beta   90.00000000
_cell_angle_gamma   90.00000000
_symmetry_Int_Tables_number   1
_chemical_formula_structural   TiRh
_chemical_formula_sum   'Ti2 Rh2'
_cell_volume   58.99056628
_cell_formula_units_Z   2
loop_
 _symmetry_equiv_pos_site_id
 _symmetry_equiv_pos_as_xyz
  1  'x, y, z'
loop_
 _atom_site_type_symbol
 _atom_site_label
 _atom_site_symmetry_multiplicity
 _atom_site_fract_x
 _atom_site_fract_y
 _atom_site_fract_z
 _atom_site_occupancy
  Ti  Ti0  1  0.50000000  0.50000000  -0.00000000  1
  Ti  Ti1  1  0.50000000  -0.00000000  0.50000000  1
  Rh  Rh0  1  0.00000000  0.50000000  0.50000000  1
  Rh  Rh1  1  0.00000000  0.00000000  0.00000000  1
loop_
_geom_bond_atom_site_label_1
_geom_bond_atom_site_label_2
_geom_bond_distance
_geom_bond_site_symmetry_2
Rh0 Ti1 2.689288 1_555
Rh0 Ti1 2.689288 1_455
Rh0 Ti1 2.689288 1_565
Rh0 Ti0 2.689288 1_456
Rh0 Ti1 2.689288 1_465
Rh0 Ti0 2.689288 1_455
Rh0 Ti0 2.689288 1_556
Rh0 Ti0 2.689288 1_555
Rh1 Ti0 2.689288 1_545
Rh1 Ti1 2.689288 1_555
Rh1 Ti1 2.689288 1_454
Rh1 Ti0 2.689288 1_445
Rh1 Ti1 2.689288 1_455
Rh1 Ti0 2.689288 1_455
Rh1 Ti1 2.689288 1_554
Rh1 Ti0 2.689288 1_555
