# generated using pymatgen
data_K4MgNb4(Si2O7)4
_symmetry_space_group_name_H-M   'P 1'
_cell_length_a   8.04670442
_cell_length_b   8.98948665
_cell_length_c   8.98948665
_cell_angle_alpha   90.40637318
_cell_angle_beta   89.97728524
_cell_angle_gamma   90.02271476
_symmetry_Int_Tables_number   1
_chemical_formula_structural   K4MgNb4(Si2O7)4
_chemical_formula_sum   'K4 Mg1 Nb4 Si8 O28'
_cell_volume   650.24473001
_cell_formula_units_Z   1
loop_
 _symmetry_equiv_pos_site_id
 _symmetry_equiv_pos_as_xyz
  1  'x, y, z'
loop_
 _atom_site_type_symbol
 _atom_site_label
 _atom_site_symmetry_multiplicity
 _atom_site_fract_x
 _atom_site_fract_y
 _atom_site_fract_z
 _atom_site_occupancy
  K  K0  1  0.99544800  0.66867200  0.21659500  1
  K  K1  1  0.99678100  0.87210800  0.62789200  1
  K  K2  1  0.99544800  0.28340500  0.83132800  1
  K  K3  1  0.99471000  0.18381700  0.31618300  1
  Mg  Mg0  1  0.99297900  0.66186400  0.83813600  1
  Nb  Nb0  1  0.74460500  0.49941400  0.50235100  1
  Nb  Nb1  1  0.24161600  0.49917800  0.50307700  1
  Nb  Nb2  1  0.74460500  0.99764900  0.00058600  1
  Nb  Nb3  1  0.24161600  0.99692300  0.00082200  1
  Si  Si0  1  0.69221500  0.37363900  0.12636100  1
  Si  Si1  1  0.29531300  0.61557800  0.88442200  1
  Si  Si2  1  0.29755800  0.87876300  0.37498200  1
  Si  Si3  1  0.29755800  0.12501800  0.62123700  1
  Si  Si4  1  0.69496000  0.12524000  0.62096800  1
  Si  Si5  1  0.69496000  0.87903200  0.37476000  1
  Si  Si6  1  0.69131000  0.61643800  0.88356200  1
  Si  Si7  1  0.29756200  0.37281000  0.12719000  1
  O  O0  1  0.76221700  0.72062100  0.43661300  1
  O  O1  1  0.19654000  0.76920000  0.92676500  1
  O  O2  1  0.75734600  0.21108800  0.07722900  1
  O  O3  1  0.75734600  0.42277100  0.28891200  1
  O  O4  1  0.22563500  0.28960300  0.58702600  1
  O  O5  1  0.76221700  0.06338700  0.77937900  1
  O  O6  1  0.23302200  0.42169200  0.28998800  1
  O  O7  1  0.49620200  0.12071900  0.61181800  1
  O  O8  1  0.22987600  0.06232700  0.77931500  1
  O  O9  1  0.49481400  0.39221800  0.10778200  1
  O  O10  1  0.76882300  0.49596400  0.00403600  1
  O  O11  1  0.21976200  0.49469000  0.00531000  1
  O  O12  1  0.49620200  0.88818200  0.37928100  1
  O  O13  1  0.76815100  0.01237800  0.48762200  1
  O  O14  1  0.49324000  0.62364800  0.87635200  1
  O  O15  1  0.78970400  0.77036100  0.92574100  1
  O  O16  1  0.23302200  0.21001200  0.07830800  1
  O  O17  1  0.22987600  0.72068500  0.43767300  1
  O  O18  1  0.22563500  0.91297400  0.21039700  1
  O  O19  1  0.22463200  0.01288500  0.48711500  1
  O  O20  1  0.49644200  0.50302300  0.51342400  1
  O  O21  1  0.99564500  0.50346600  0.49534300  1
  O  O22  1  0.19654000  0.57323500  0.73080000  1
  O  O23  1  0.76684000  0.91448900  0.21037500  1
  O  O24  1  0.49644200  0.98657600  0.99697700  1
  O  O25  1  0.78970400  0.57425900  0.72963900  1
  O  O26  1  0.99564500  0.00465700  0.99653400  1
  O  O27  1  0.76684000  0.28962500  0.58551100  1
loop_
_geom_bond_atom_site_label_1
_geom_bond_atom_site_label_2
_geom_bond_distance
_geom_bond_site_symmetry_2
K0 O0 2.763472 1_555
K0 O17 2.777730 1_655
K0 O18 2.873225 1_655
K0 O23 2.876660 1_555
K0 O21 2.921885 1_555
K0 O3 2.999314 1_555
K0 O6 3.007387 1_655
K0 O11 3.044503 1_655
K0 O10 3.057036 1_555
K0 O1 3.201894 1_654
K0 O15 3.232853 1_554
K1 O19 2.565857 1_665
K1 O13 2.567258 1_565
K1 Mg0 2.682462 1_555
K1 O17 2.874269 1_655
K1 O8 2.874269 1_665
K1 O5 2.888080 1_565
K1 O0 2.888080 1_555
K2 O5 2.763472 1_555
K2 O8 2.777730 1_655
K2 O4 2.873225 1_655
K2 O27 2.876660 1_555
K2 O26 2.921885 1_555
K2 O2 2.999314 1_556
K2 O16 3.007387 1_656
K2 O11 3.044503 1_656
K2 O10 3.057036 1_556
K2 O22 3.201894 1_655
K2 O25 3.232853 1_555
K3 O13 2.846583 1_555
K3 O19 2.860620 1_655
K3 O6 2.882519 1_655
K3 O16 2.882519 1_655
K3 O3 2.886781 1_555
K3 O2 2.886781 1_555
K3 O23 3.177078 1_545
K3 O27 3.177078 1_555
K3 O18 3.202262 1_645
K3 O4 3.202262 1_655
K3 O26 3.284080 1_554
K3 O21 3.284080 1_555
Mg0 O15 2.058230 1_555
Mg0 O25 2.058230 1_555
Mg0 O1 2.058569 1_655
Mg0 O22 2.058569 1_655
Nb0 O20 1.999599 1_555
Nb0 O21 2.021324 1_555
Nb0 O3 2.036613 1_555
Nb0 O27 2.041529 1_555
Nb0 O0 2.083259 1_555
Nb0 O25 2.177143 1_555
Nb1 O21 1.980904 1_455
Nb1 O6 2.034819 1_555
Nb1 O4 2.038454 1_555
Nb1 O20 2.052921 1_555
Nb1 O17 2.082408 1_555
Nb1 O22 2.178464 1_555
Nb2 O24 1.999599 1_554
Nb2 O26 2.021324 1_564
Nb2 O2 2.036613 1_565
Nb2 O23 2.041529 1_555
Nb2 O5 2.083259 1_564
Nb2 O15 2.177143 1_554
Nb3 O26 1.980904 1_464
Nb3 O16 2.034819 1_565
Nb3 O18 2.038454 1_555
Nb3 O24 2.052921 1_554
Nb3 O8 2.082408 1_564
Nb3 O1 2.178464 1_554
O0 Si5 1.625427 1_555
O1 Si1 1.636117 1_555
O2 Si0 1.611293 1_555
O3 Si0 1.611293 1_555
O4 Si3 1.620439 1_555
O5 Si4 1.625427 1_555
O6 Si7 1.610901 1_555
O7 Si3 1.601104 1_555
O7 Si4 1.601978 1_555
O8 Si3 1.626058 1_555
O9 Si0 1.606147 1_555
O9 Si7 1.606289 1_555
O10 Si6 1.659071 1_554
O10 Si0 1.677644 1_555
O11 Si1 1.657473 1_554
O11 Si7 1.676568 1_555
O12 Si2 1.601104 1_555
O12 Si5 1.601978 1_555
O13 Si4 1.672060 1_555
O13 Si5 1.672060 1_545
O14 Si1 1.595927 1_555
O14 Si6 1.596514 1_555
O15 Si6 1.636201 1_555
O16 Si7 1.610901 1_555
O17 Si2 1.626058 1_555
O18 Si2 1.620439 1_555
O19 Si2 1.672419 1_545
O19 Si3 1.672419 1_555
O22 Si1 1.636117 1_555
O23 Si5 1.620402 1_555
O25 Si6 1.636201 1_555
O27 Si4 1.620402 1_555
