# generated using pymatgen
data_Na2Al4Ga4SiS11O48
_symmetry_space_group_name_H-M   'P 1'
_cell_length_a   16.80511457
_cell_length_b   8.39925883
_cell_length_c   21.87849813
_cell_angle_alpha   89.96897014
_cell_angle_beta   89.96060630
_cell_angle_gamma   120.01727098
_symmetry_Int_Tables_number   1
_chemical_formula_structural   Na2Al4Ga4SiS11O48
_chemical_formula_sum   'Na6 Al12 Ga12 Si3 S33 O144'
_cell_volume   2673.95837350
_cell_formula_units_Z   3
loop_
 _symmetry_equiv_pos_site_id
 _symmetry_equiv_pos_as_xyz
  1  'x, y, z'
loop_
 _atom_site_type_symbol
 _atom_site_label
 _atom_site_symmetry_multiplicity
 _atom_site_fract_x
 _atom_site_fract_y
 _atom_site_fract_z
 _atom_site_occupancy
  Na  Na0  1  0.00118606  0.99297395  0.50002910  1
  Na  Na1  1  0.50123303  0.01063097  0.99573945  1
  Na  Na2  1  0.33799305  0.33357710  0.83513760  1
  Na  Na3  1  0.83819764  0.34545676  0.82964209  1
  Na  Na4  1  0.33141631  0.33067564  0.33416272  1
  Na  Na5  1  0.84019812  0.34403000  0.33671093  1
  Al  Al0  1  0.99716045  0.98661329  0.85131328  1
  Al  Al1  1  0.50138462  0.01228162  0.85346040  1
  Al  Al2  1  0.00001570  0.99388941  0.65185971  1
  Al  Al3  1  0.50120808  0.00022912  0.64669516  1
  Al  Al4  1  0.33185945  0.33333564  0.68640522  1
  Al  Al5  1  0.83818852  0.34159523  0.68884154  1
  Al  Al6  1  0.33672421  0.33317718  0.97645522  1
  Al  Al7  1  0.83901564  0.34211482  0.48184782  1
  Al  Al8  1  0.66405037  0.65662812  0.01678526  1
  Al  Al9  1  0.16166986  0.66947426  0.52239445  1
  Al  Al10  1  0.16257436  0.66806799  0.80808178  1
  Al  Al11  1  0.66209471  0.65709221  0.81284104  1
  Ga  Ga0  1  0.00230643  0.99142757  0.35487039  1
  Ga  Ga1  1  0.49852952  0.99963049  0.35506511  1
  Ga  Ga2  1  0.00032300  0.00203045  0.14476218  1
  Ga  Ga3  1  0.49950760  0.99839812  0.14720540  1
  Ga  Ga4  1  0.33242563  0.33415827  0.18252833  1
  Ga  Ga5  1  0.83456009  0.33149925  0.18327452  1
  Ga  Ga6  1  0.83380981  0.33457696  0.97944511  1
  Ga  Ga7  1  0.33254995  0.33235078  0.48490479  1
  Ga  Ga8  1  0.16534868  0.66492805  0.01732542  1
  Ga  Ga9  1  0.66714857  0.66818324  0.52405635  1
  Ga  Ga10  1  0.15986467  0.66350296  0.31622127  1
  Ga  Ga11  1  0.66783368  0.66618198  0.31407059  1
  Si  Si0  1  0.99959172  0.71011591  0.74990943  1
  Si  Si1  1  0.52284308  0.37823109  0.91624334  1
  Si  Si2  1  0.02052080  0.66267968  0.41872627  1
  S  S0  1  0.14675069  0.00104629  0.24849338  1
  S  S1  1  0.64549163  0.99942504  0.25040377  1
  S  S2  1  0.35290024  0.70900995  0.25060431  1
  S  S3  1  0.85338649  0.70785439  0.24904234  1
  S  S4  1  0.00087593  0.28868141  0.24993403  1
  S  S5  1  0.50023041  0.29200362  0.25000020  1
  S  S6  1  0.14507197  0.29011305  0.75026692  1
  S  S7  1  0.64313535  0.28672706  0.74890808  1
  S  S8  1  0.50084042  0.71508550  0.74986338  1
  S  S9  1  0.35659045  -0.00034646  0.74911666  1
  S  S10  1  0.85324470  0.99534673  0.75085800  1
  S  S11  1  0.47755910  0.32999919  0.58522525  1
  S  S12  1  0.97819623  0.32985273  0.58427340  1
  S  S13  1  0.18774886  0.04230975  0.58485844  1
  S  S14  1  0.69054764  0.05166380  0.58420981  1
  S  S15  1  0.33317327  0.62670715  0.58426800  1
  S  S16  1  0.83351110  0.62182100  0.58394787  1
  S  S17  1  0.47972090  0.62298236  0.08224445  1
  S  S18  1  0.97993390  0.62585677  0.08298548  1
  S  S19  1  0.33194169  0.04192345  0.08259923  1
  S  S20  1  0.83095593  0.03654469  0.08203049  1
  S  S21  1  0.18938150  0.33430467  0.08116812  1
  S  S22  1  0.68833007  0.33789980  0.08333116  1
  S  S23  1  0.30954725  0.66595169  0.91490785  1
  S  S24  1  0.81202503  0.67286964  0.91660331  1
  S  S25  1  0.02267907  0.37157081  0.91503527  1
  S  S26  1  0.16469132  0.95567245  0.91626090  1
  S  S27  1  0.66687410  0.95196580  0.91572228  1
  S  S28  1  0.31179501  0.95560436  0.41795053  1
  S  S29  1  0.80988511  0.95825587  0.41761916  1
  S  S30  1  0.16907686  0.38280832  0.41798545  1
  S  S31  1  0.66596011  0.37454079  0.41765697  1
  S  S32  1  0.52146880  0.66630873  0.41693555  1
  O  O0  1  0.10866391  0.04222782  0.30371535  1
  O  O1  1  0.60572737  0.03679692  0.30549248  1
  O  O2  1  0.41281793  0.78775102  0.30530659  1
  O  O3  1  0.91005858  0.78608252  0.30444778  1
  O  O4  1  0.48151399  0.17594015  0.30532047  1
  O  O5  1  0.98225234  0.17254492  0.30536410  1
  O  O6  1  0.10505936  0.17454906  0.80529874  1
  O  O7  1  0.60278432  0.16873606  0.80395440  1
  O  O8  1  0.48224137  0.79552891  0.80475706  1
  O  O9  1  0.97876859  0.79717482  0.81006747  1
  O  O10  1  0.41553852  0.03818427  0.80384463  1
  O  O11  1  0.91315770  0.03949763  0.80543487  1
  O  O12  1  0.39818769  0.97015697  0.69380408  1
  O  O13  1  0.89480141  0.96737538  0.69489222  1
  O  O14  1  0.08853407  0.21324371  0.69457383  1
  O  O15  1  0.58418400  0.20394238  0.69437455  1
  O  O16  1  0.01756277  0.83616941  0.68956156  1
  O  O17  1  0.51421428  0.82750972  0.69438504  1
  O  O18  1  0.39358317  0.82209939  0.19484633  1
  O  O19  1  0.89324075  0.81969051  0.19373629  1
  O  O20  1  0.01417053  0.20587492  0.19401491  1
  O  O21  1  0.51671923  0.21188138  0.19462883  1
  O  O22  1  0.08968366  0.96888282  0.19365978  1
  O  O23  1  0.58917099  0.96623545  0.19483968  1
  O  O24  1  0.43373903  0.36496113  0.63830237  1
  O  O25  1  0.93583880  0.36259472  0.63784992  1
  O  O26  1  0.24740627  0.13197998  0.63818265  1
  O  O27  1  0.74890815  0.13446034  0.63817781  1
  O  O28  1  0.31569278  0.50448462  0.63779112  1
  O  O29  1  0.81703005  0.50560680  0.63774503  1
  O  O30  1  0.44165211  0.51365854  0.13951487  1
  O  O31  1  0.94055301  0.51047382  0.13895632  1
  O  O32  1  0.31673301  0.11825353  0.13988126  1
  O  O33  1  0.81230760  0.11422190  0.13843225  1
  O  O34  1  0.24477916  0.37118791  0.13844193  1
  O  O35  1  0.74346991  0.36610775  0.13953135  1
  O  O36  1  0.23383544  0.30235675  0.02824136  1
  O  O37  1  0.72703214  0.29583952  0.02878745  1
  O  O38  1  0.41779367  0.53800250  0.02959068  1
  O  O39  1  0.92101862  0.54565797  0.02862451  1
  O  O40  1  0.34847679  0.16082706  0.02918719  1
  O  O41  1  0.85144120  0.15935116  0.02846825  1
  O  O42  1  0.22588355  0.15584169  0.52782354  1
  O  O43  1  0.73133998  0.16434260  0.52814349  1
  O  O44  1  0.35456260  0.55162211  0.52831726  1
  O  O45  1  0.84919176  0.54025355  0.52801128  1
  O  O46  1  0.42216945  0.29317940  0.52828781  1
  O  O47  1  0.91953318  0.29286520  0.52867794  1
  O  O48  1  0.27442231  0.70690744  0.97207678  1
  O  O49  1  0.77124819  0.70044057  0.97292749  1
  O  O50  1  0.07590257  0.44639641  0.97278758  1
  O  O51  1  0.58399630  0.46385385  0.97763145  1
  O  O52  1  0.14721492  0.84350353  0.97299163  1
  O  O53  1  0.65334025  0.84607571  0.97272093  1
  O  O54  1  0.27144396  0.84235292  0.47235477  1
  O  O55  1  0.77056064  0.83848642  0.47175862  1
  O  O56  1  0.15646051  0.46678750  0.47299511  1
  O  O57  1  0.64803227  0.45698296  0.47152641  1
  O  O58  1  0.08652182  0.70247418  0.47687010  1
  O  O59  1  0.57808909  0.69923000  0.47163232  1
  O  O60  1  0.05767115  0.62092407  0.35525628  1
  O  O61  1  0.55993035  0.62919735  0.36073561  1
  O  O62  1  0.25827916  0.88290493  0.36053722  1
  O  O63  1  0.75444532  0.88082886  0.36095525  1
  O  O64  1  0.18900106  0.49117190  0.36073191  1
  O  O65  1  0.68566799  0.48921796  0.36106546  1
  O  O66  1  0.06617430  0.49473278  0.86271145  1
  O  O67  1  0.56724306  0.50537177  0.85624892  1
  O  O68  1  0.18624485  0.87404528  0.86352586  1
  O  O69  1  0.68592450  0.87609943  0.86092039  1
  O  O70  1  0.25149077  0.63496095  0.86135062  1
  O  O71  1  0.75442894  0.63671996  0.86171262  1
  O  O72  1  0.01104662  0.84740219  0.41270590  1
  O  O73  1  0.51278974  0.83132733  0.40929535  1
  O  O74  1  0.40420973  0.97557892  0.41092602  1
  O  O75  1  0.90254752  0.98207905  0.41028196  1
  O  O76  1  0.08409518  0.20136939  0.41165619  1
  O  O77  1  0.58255993  0.19342444  0.40919905  1
  O  O78  1  0.01180584  0.18916698  0.90592300  1
  O  O79  1  0.51098016  0.17349210  0.90847488  1
  O  O80  1  0.08450667  0.97799057  0.90806183  1
  O  O81  1  0.58293312  0.96693233  0.90838956  1
  O  O82  1  0.40338088  0.82553900  0.90685639  1
  O  O83  1  0.90268734  0.83742803  0.91055671  1
  O  O84  1  0.48732270  0.16701877  0.59432087  1
  O  O85  1  0.98747254  0.16304581  0.59212661  1
  O  O86  1  0.09675548  0.02850850  0.59049239  1
  O  O87  1  0.59780036  0.02951267  0.59265356  1
  O  O88  1  0.41541860  0.80850748  0.59424744  1
  O  O89  1  0.91513997  0.80904617  0.58939161  1
  O  O90  1  0.48664135  0.80816311  0.08877318  1
  O  O91  1  0.98787984  0.80741291  0.09085048  1
  O  O92  1  0.41692830  0.02673253  0.08859820  1
  O  O93  1  0.91440313  0.02247223  0.09035684  1
  O  O94  1  0.09834599  0.16794847  0.08873072  1
  O  O95  1  0.59537324  0.16873220  0.08986865  1
  O  O96  1  0.34683302  0.16734804  0.74088355  1
  O  O97  1  0.84082256  0.15732627  0.74162568  1
  O  O98  1  0.23820055  0.30555825  0.74145787  1
  O  O99  1  0.73342136  0.29908724  0.74042619  1
  O  O100  1  0.41683246  0.52766643  0.74161035  1
  O  O101  1  0.90824789  0.50677836  0.74183246  1
  O  O102  1  0.34570292  0.52486936  0.24392398  1
  O  O103  1  0.84386634  0.52160572  0.24302606  1
  O  O104  1  0.41666647  0.30970367  0.24371356  1
  O  O105  1  0.91636081  0.30628106  0.24415144  1
  O  O106  1  0.23950425  0.17086803  0.24271315  1
  O  O107  1  0.73787865  0.16668492  0.24409919  1
  O  O108  1  0.31523309  0.49624434  0.92436160  1
  O  O109  1  0.82053763  0.50237713  0.92298256  1
  O  O110  1  0.42098633  0.35670171  0.92476859  1
  O  O111  1  0.92999142  0.35724495  0.92188109  1
  O  O112  1  0.24773511  0.14086529  0.92547767  1
  O  O113  1  0.74938730  0.14142445  0.92220996  1
  O  O114  1  0.32230739  0.14348765  0.42373448  1
  O  O115  1  0.81501910  0.13716928  0.42588761  1
  O  O116  1  0.25108261  0.35704577  0.42356964  1
  O  O117  1  0.74682794  0.35231274  0.42558297  1
  O  O118  1  0.42872299  0.49937790  0.42284124  1
  O  O119  1  0.91882421  0.48294597  0.42606040  1
  O  O120  1  0.17983564  0.49868966  0.07436628  1
  O  O121  1  0.68169482  0.50361613  0.07674559  1
  O  O122  1  0.07087499  0.64234886  0.07606904  1
  O  O123  1  0.57148829  0.64766149  0.07485876  1
  O  O124  1  0.25085613  0.85846697  0.07596010  1
  O  O125  1  0.74916438  0.85588467  0.07262224  1
  O  O126  1  0.18299557  0.86363362  0.57773365  1
  O  O127  1  0.67993217  0.86570611  0.57648115  1
  O  O128  1  0.25076053  0.64212050  0.57394064  1
  O  O129  1  0.75013555  0.63860364  0.57682083  1
  O  O130  1  0.07014686  0.49217983  0.57548261  1
  O  O131  1  0.56854499  0.49693288  0.57769920  1
  O  O132  1  0.15798760  0.83989188  0.25475362  1
  O  O133  1  0.65405601  0.83444913  0.25758171  1
  O  O134  1  0.26263587  0.69141900  0.25843582  1
  O  O135  1  0.76167220  0.68937341  0.25615449  1
  O  O136  1  0.08420464  0.46912326  0.25438193  1
  O  O137  1  0.58260302  0.47405483  0.25720989  1
  O  O138  1  0.15911197  0.47452050  0.75973213  1
  O  O139  1  0.65467444  0.47096878  0.75697416  1
  O  O140  1  0.08904047  0.69006743  0.76015952  1
  O  O141  1  0.58354911  0.69982268  0.75646689  1
  O  O142  1  0.26704875  0.83652591  0.75875342  1
  O  O143  1  0.76268779  0.82949310  0.76075490  1
loop_
_geom_bond_atom_site_label_1
_geom_bond_atom_site_label_2
_geom_bond_distance
_geom_bond_site_symmetry_2
Na0 O72 2.318893 1_555
Na0 O89 2.461263 1_455
Na0 O86 2.472072 1_565
Na0 O76 2.509169 1_565
Na0 O75 2.542534 1_455
Na0 O85 2.546676 1_465
Na1 O79 2.305577 1_555
Na1 O81 2.484629 1_545
Na1 O92 2.518125 1_556
Na1 O82 2.520405 1_545
Na1 O95 2.532371 1_556
Na1 O90 2.583302 1_546
Na2 O110 2.358298 1_555
Na2 O108 2.519601 1_555
Na2 O112 2.522541 1_555
Na2 O100 2.536078 1_555
Na2 O96 2.536548 1_555
Na2 O98 2.584360 1_555
Na3 O101 2.304500 1_555
Na3 O97 2.505984 1_555
Na3 O111 2.512696 1_555
Na3 O99 2.526143 1_555
Na3 O109 2.527659 1_555
Na3 O113 2.588242 1_555
Na4 O116 2.448244 1_555
Na4 O114 2.468042 1_555
Na4 O106 2.474547 1_555
Na4 O118 2.476908 1_555
Na4 O102 2.493981 1_555
Na4 O104 2.499693 1_555
Na5 O119 2.322105 1_555
Na5 O105 2.498553 1_555
Na5 O115 2.502817 1_555
Na5 O103 2.516767 1_555
Na5 O117 2.520459 1_555
Na5 O107 2.593529 1_555
Al0 O9 1.717987 1_555
Al0 O83 1.943121 1_555
Al0 O80 1.951959 1_655
Al0 O11 1.956142 1_565
Al0 O6 1.981196 1_665
Al0 O78 1.991523 1_665
Al1 O79 1.758340 1_555
Al1 O7 1.886588 1_555
Al1 O10 1.903382 1_555
Al1 O82 1.987005 1_545
Al1 O8 1.992469 1_545
Al1 O81 1.997862 1_545
Al2 O16 1.706532 1_555
Al2 O13 1.914633 1_455
Al2 O14 1.934502 1_565
Al2 O86 2.013399 1_565
Al2 O85 2.017175 1_465
Al2 O89 2.025366 1_455
Al3 O17 1.885979 1_545
Al3 O15 1.891300 1_555
Al3 O84 1.911992 1_555
Al3 O88 1.915673 1_545
Al3 O12 1.919147 1_545
Al3 O87 1.921185 1_555
Al4 O26 1.894757 1_555
Al4 O98 1.900572 1_555
Al4 O24 1.910921 1_555
Al4 O28 1.913384 1_555
Al4 O96 1.943524 1_555
Al4 O100 1.958214 1_555
Al5 O101 1.739107 1_555
Al5 O25 1.917382 1_555
Al5 O29 1.939804 1_555
Al5 O97 1.948778 1_555
Al5 O99 1.966951 1_555
Al5 O27 1.974663 1_555
Al6 O110 1.743726 1_555
Al6 O112 1.917514 1_555
Al6 O40 1.936535 1_556
Al6 O108 1.949138 1_555
Al6 O38 1.956160 1_556
Al6 O36 1.972183 1_556
Al7 O119 1.759721 1_555
Al7 O45 1.880492 1_555
Al7 O47 1.900849 1_555
Al7 O43 1.955070 1_555
Al7 O115 1.983231 1_555
Al7 O117 2.014460 1_555
Al8 O51 1.728883 1_554
Al8 O49 1.906674 1_554
Al8 O53 1.943942 1_554
Al8 O121 1.959731 1_555
Al8 O123 1.979797 1_555
Al8 O125 1.987150 1_555
Al9 O58 1.736475 1_555
Al9 O130 1.906910 1_555
Al9 O126 1.916194 1_555
Al9 O128 1.977968 1_555
Al9 O56 1.981665 1_555
Al9 O54 2.006389 1_555
Al10 O140 1.700154 1_555
Al10 O138 1.916358 1_555
Al10 O142 1.938943 1_555
Al10 O66 1.951475 1_555
Al10 O68 1.984229 1_555
Al10 O70 2.021420 1_555
Al11 O67 1.740960 1_555
Al11 O139 1.939244 1_555
Al11 O143 1.949244 1_555
Al11 O71 1.961636 1_555
Al11 O141 1.966750 1_555
Al11 O69 1.978956 1_555
Ga0 O72 1.806227 1_555
Ga0 O0 1.965446 1_565
Ga0 O3 1.980964 1_455
Ga0 O5 2.027955 1_465
Ga0 O76 2.030245 1_565
Ga0 O75 2.037598 1_455
Ga1 O74 1.929654 1_555
Ga1 O77 1.936743 1_565
Ga1 O73 1.949615 1_555
Ga1 O2 1.966343 1_555
Ga1 O4 1.970172 1_565
Ga1 O1 1.988301 1_565
Ga2 O20 1.936610 1_555
Ga2 O91 1.940993 1_445
Ga2 O93 1.944562 1_455
Ga2 O94 1.963917 1_555
Ga2 O22 1.974173 1_545
Ga2 O19 1.992498 1_445
Ga3 O18 1.950970 1_555
Ga3 O23 1.959251 1_555
Ga3 O21 1.964410 1_565
Ga3 O90 1.972583 1_555
Ga3 O95 1.976132 1_565
Ga3 O92 1.989772 1_565
Ga4 O34 1.912202 1_555
Ga4 O32 1.937108 1_555
Ga4 O30 1.937832 1_555
Ga4 O106 1.976297 1_555
Ga4 O102 2.016210 1_555
Ga4 O104 2.032617 1_555
Ga5 O31 1.920859 1_555
Ga5 O33 1.937138 1_555
Ga5 O35 1.946953 1_555
Ga5 O105 2.000517 1_555
Ga5 O103 2.008914 1_555
Ga5 O107 2.017851 1_555
Ga6 O41 1.959412 1_556
Ga6 O39 1.963004 1_556
Ga6 O109 1.968543 1_555
Ga6 O37 1.975850 1_556
Ga6 O113 1.978537 1_555
Ga6 O111 1.980903 1_555
Ga7 O42 1.905289 1_555
Ga7 O44 1.936907 1_555
Ga7 O46 1.942878 1_555
Ga7 O116 2.001116 1_555
Ga7 O114 2.016561 1_555
Ga7 O118 2.037248 1_555
Ga8 O52 1.933788 1_554
Ga8 O48 1.953131 1_554
Ga8 O50 1.954867 1_554
Ga8 O122 1.975866 1_555
Ga8 O120 1.976090 1_555
Ga8 O124 2.005176 1_555
Ga9 O129 1.920385 1_555
Ga9 O127 1.939056 1_555
Ga9 O131 1.950107 1_555
Ga9 O55 1.970724 1_555
Ga9 O57 2.000848 1_555
Ga9 O59 2.004000 1_555
Ga10 O60 1.785996 1_555
Ga10 O64 1.997858 1_555
Ga10 O62 2.006509 1_555
Ga10 O136 2.010091 1_555
Ga10 O132 2.012248 1_555
Ga10 O134 2.056125 1_555
Ga11 O63 1.949271 1_555
Ga11 O65 1.949547 1_555
Ga11 O135 1.954482 1_555
Ga11 O61 1.964825 1_555
Ga11 O137 1.973649 1_555
Ga11 O133 1.975959 1_555
O0 S0 1.486570 1_555
O1 S1 1.485563 1_545
O2 S2 1.489920 1_555
O3 S3 1.478008 1_555
O4 S5 1.485113 1_555
O5 S4 1.487591 1_655
O6 S6 1.479377 1_555
O7 S7 1.489161 1_555
O8 S8 1.486020 1_555
O9 Si0 1.626615 1_555
O10 S9 1.483595 1_555
O11 S10 1.485126 1_545
O12 S9 1.478839 1_565
O13 S10 1.485084 1_555
O14 S6 1.480869 1_555
O15 S7 1.483835 1_555
O16 Si0 1.622787 1_455
O17 S8 1.483743 1_555
O18 S2 1.485153 1_555
O19 S3 1.470803 1_555
O20 S4 1.478662 1_555
O21 S5 1.477923 1_555
O22 S0 1.474666 1_565
O23 S1 1.479634 1_555
O24 S11 1.480733 1_555
O25 S12 1.466756 1_555
O26 S13 1.476660 1_555
O27 S14 1.469601 1_555
O28 S15 1.485904 1_555
O29 S16 1.463781 1_555
O30 S17 1.494099 1_555
O31 S18 1.494199 1_555
O32 S19 1.487061 1_555
O33 S20 1.500503 1_555
O34 S21 1.498768 1_555
O35 S22 1.486224 1_555
O36 S21 1.473322 1_555
O37 S22 1.483623 1_555
O38 S17 1.476115 1_555
O39 S18 1.477748 1_555
O40 S19 1.469972 1_555
O41 S20 1.482763 1_555
O42 S13 1.504427 1_555
O43 S14 1.489553 1_555
O44 S15 1.500813 1_555
O45 S16 1.489165 1_555
O46 S11 1.492602 1_555
O47 S12 1.497838 1_555
O48 S23 1.494591 1_555
O49 S24 1.483126 1_555
O50 S25 1.493819 1_555
O51 Si1 1.625018 1_555
O52 S26 1.495259 1_555
O53 S27 1.481181 1_555
O54 S28 1.460729 1_555
O55 S29 1.477908 1_555
O56 S30 1.463273 1_555
O57 S31 1.472564 1_555
O58 Si2 1.609863 1_555
O59 S32 1.467162 1_555
O60 Si2 1.630787 1_555
O61 S32 1.492540 1_555
O62 S28 1.487428 1_555
O63 S29 1.491342 1_555
O64 S30 1.484205 1_555
O65 S31 1.499802 1_555
O66 S25 1.468308 1_555
O67 Si1 1.618618 1_555
O68 S26 1.476878 1_555
O69 S27 1.466463 1_555
O70 S23 1.463029 1_555
O71 S24 1.476217 1_555
O72 Si2 1.642228 1_555
O73 S32 1.473889 1_555
O74 S28 1.484133 1_555
O75 S29 1.475993 1_555
O76 S30 1.484628 1_555
O77 S31 1.476555 1_555
O78 S25 1.463086 1_555
O79 Si1 1.638049 1_555
O80 S26 1.461552 1_555
O81 S27 1.486321 1_555
O82 S23 1.482865 1_555
O83 S24 1.463484 1_555
O84 S11 1.471369 1_555
O85 S12 1.495017 1_555
O86 S13 1.479634 1_555
O87 S14 1.485764 1_555
O88 S15 1.476089 1_555
O89 S16 1.486942 1_555
O90 S17 1.507454 1_555
O91 S18 1.472907 1_555
O92 S19 1.501950 1_555
O93 S20 1.476442 1_555
O94 S21 1.476777 1_555
O95 S22 1.502784 1_555
O96 S9 1.508005 1_555
O97 S10 1.489726 1_545
O98 S6 1.516488 1_555
O99 S7 1.479630 1_555
O100 S8 1.510249 1_555
O101 Si0 1.637715 1_555
O102 S2 1.497064 1_555
O103 S3 1.496650 1_555
O104 S5 1.490708 1_555
O105 S4 1.505111 1_655
O106 S0 1.501741 1_555
O107 S1 1.490084 1_545
O108 S23 1.489866 1_555
O109 S24 1.515049 1_555
O110 Si1 1.639295 1_555
O111 S25 1.508393 1_655
O112 S26 1.495527 1_545
O113 S27 1.505982 1_545
O114 S28 1.502956 1_545
O115 S29 1.472750 1_545
O116 S30 1.503169 1_555
O117 S31 1.471711 1_555
O118 S32 1.491605 1_555
O119 Si2 1.625888 1_655
O120 S21 1.475013 1_555
O121 S22 1.457962 1_555
O122 S18 1.471585 1_455
O123 S17 1.458467 1_555
O124 S19 1.466969 1_565
O125 S20 1.465651 1_565
O126 S13 1.470799 1_565
O127 S14 1.490475 1_565
O128 S15 1.471633 1_555
O129 S16 1.485009 1_555
O130 S12 1.474814 1_455
O131 S11 1.478304 1_555
O132 S0 1.463614 1_565
O133 S1 1.471328 1_555
O134 S2 1.458615 1_555
O135 S3 1.477867 1_555
O136 S4 1.464351 1_555
O137 S5 1.470376 1_555
O138 S6 1.460265 1_555
O139 S7 1.470913 1_555
O140 Si0 1.609947 1_455
O141 S8 1.465518 1_555
O142 S9 1.456878 1_565
O143 S10 1.477006 1_555
