# generated using pymatgen
data_MgHg2(BiO3)4
_symmetry_space_group_name_H-M   'P 1'
_cell_length_a   5.35396538
_cell_length_b   5.26666047
_cell_length_c   10.36735000
_cell_angle_alpha   90.00000000
_cell_angle_beta   90.00000000
_cell_angle_gamma   89.85202111
_symmetry_Int_Tables_number   1
_chemical_formula_structural   MgHg2(BiO3)4
_chemical_formula_sum   'Mg1 Hg2 Bi4 O12'
_cell_volume   292.33256170
_cell_formula_units_Z   1
loop_
 _symmetry_equiv_pos_site_id
 _symmetry_equiv_pos_as_xyz
  1  'x, y, z'
loop_
 _atom_site_type_symbol
 _atom_site_label
 _atom_site_symmetry_multiplicity
 _atom_site_fract_x
 _atom_site_fract_y
 _atom_site_fract_z
 _atom_site_occupancy
  Mg  Mg0  1  0.50000000  0.00000000  0.43676000  1
  Hg  Hg0  1  0.00000000  0.00000000  0.99432100  1
  Hg  Hg1  1  0.50000000  0.50000000  0.51435200  1
  Bi  Bi0  1  0.00000000  0.00000000  0.31591400  1
  Bi  Bi1  1  0.00000000  0.00000000  0.67424900  1
  Bi  Bi2  1  0.50000000  0.50000000  0.16322500  1
  Bi  Bi3  1  0.50000000  0.50000000  0.83375700  1
  O  O0  1  0.19531600  0.78527400  0.82214800  1
  O  O1  1  0.18964600  0.77729200  0.17282600  1
  O  O2  1  0.19212100  0.83562300  0.49477200  1
  O  O3  1  0.32466500  0.30770300  0.99900700  1
  O  O4  1  0.32885600  0.26508100  0.32821900  1
  O  O5  1  0.30989800  0.28106300  0.67611400  1
  O  O6  1  0.67114400  0.73491900  0.32821900  1
  O  O7  1  0.69010200  0.71893700  0.67611400  1
  O  O8  1  0.67533500  0.69229700  0.99900700  1
  O  O9  1  0.80787900  0.16437700  0.49477200  1
  O  O10  1  0.81035400  0.22270800  0.17282600  1
  O  O11  1  0.80468400  0.21472600  0.82214800  1
loop_
_geom_bond_atom_site_label_1
_geom_bond_atom_site_label_2
_geom_bond_distance
_geom_bond_site_symmetry_2
Mg0 O2 1.958492 1_545
Mg0 O9 1.958492 1_555
Mg0 O6 2.012046 1_545
Mg0 O4 2.012046 1_555
Hg0 O0 2.356367 1_545
Hg0 O11 2.356367 1_455
Hg0 O3 2.380052 1_555
Hg0 O8 2.380052 1_445
Hg0 O1 2.413580 1_546
Hg0 O10 2.413580 1_456
Hg1 O7 2.276843 1_555
Hg1 O5 2.276843 1_555
Hg1 O2 2.422343 1_555
Hg1 O9 2.422343 1_555
Hg1 O6 2.469815 1_555
Hg1 O4 2.469815 1_555
Bi0 O10 2.145032 1_455
Bi0 O1 2.145032 1_545
Bi0 O4 2.253453 1_555
Bi0 O6 2.253453 1_445
Bi0 O9 2.289382 1_455
Bi0 O2 2.289382 1_545
Bi1 O0 2.171956 1_545
Bi1 O11 2.171956 1_455
Bi1 O7 2.226461 1_445
Bi1 O5 2.226461 1_555
Bi1 O9 2.294583 1_455
Bi1 O2 2.294583 1_545
Bi2 O3 2.193252 1_554
Bi2 O8 2.193252 1_554
Bi2 O1 2.211593 1_555
Bi2 O10 2.211593 1_555
Bi2 O6 2.302651 1_555
Bi2 O4 2.302651 1_555
Bi3 O8 2.201567 1_555
Bi3 O3 2.201567 1_555
Bi3 O11 2.218150 1_555
Bi3 O0 2.218150 1_555
Bi3 O5 2.245575 1_555
Bi3 O7 2.245575 1_555
