# generated using pymatgen
data_Na3In2(PO4)3
_symmetry_space_group_name_H-M   'P 1'
_cell_length_a   9.10724850
_cell_length_b   9.10724819
_cell_length_c   22.79590967
_cell_angle_alpha   89.91470620
_cell_angle_beta   90.08529380
_cell_angle_gamma   119.98239966
_symmetry_Int_Tables_number   1
_chemical_formula_structural   Na3In2(PO4)3
_chemical_formula_sum   'Na18 In12 P18 O72'
_cell_volume   1637.71479349
_cell_formula_units_Z   6
loop_
 _symmetry_equiv_pos_site_id
 _symmetry_equiv_pos_as_xyz
  1  'x, y, z'
loop_
 _atom_site_type_symbol
 _atom_site_label
 _atom_site_symmetry_multiplicity
 _atom_site_fract_x
 _atom_site_fract_y
 _atom_site_fract_z
 _atom_site_occupancy
  Na  Na0  1  0.00017307  0.99987121  0.50001197  1
  Na  Na1  1  0.00012879  0.99982693  0.00001197  1
  Na  Na2  1  0.64289265  0.32076853  0.83337175  1
  Na  Na3  1  0.67923147  0.35710735  0.33337175  1
  Na  Na4  1  0.33366387  0.66654558  0.16665098  1
  Na  Na5  1  0.33345442  0.66633613  0.66665098  1
  Na  Na6  1  0.63498679  0.99955767  0.24975759  1
  Na  Na7  1  0.36499521  0.36399599  0.24996118  1
  Na  Na8  1  0.63600401  0.63500479  0.74996118  1
  Na  Na9  1  0.00044233  0.36501321  0.74975759  1
  Na  Na10  1  0.03071308  0.69815233  0.58323208  1
  Na  Na11  1  0.66557679  0.96843960  0.58310496  1
  Na  Na12  1  0.30184767  0.96928692  0.08323208  1
  Na  Na13  1  0.03156040  0.33442321  0.08310496  1
  Na  Na14  1  0.96722975  0.66462506  0.91752803  1
  Na  Na15  1  0.69806809  0.03045132  0.91658634  1
  Na  Na16  1  0.96954868  0.30193191  0.41658634  1
  Na  Na17  1  0.33537494  0.03277025  0.41752803  1
  In  In0  1  0.99335385  0.98982883  0.34919342  1
  In  In1  1  0.01017117  0.00664615  0.84919342  1
  In  In2  1  0.01024099  0.00728347  0.65087395  1
  In  In3  1  0.99271653  0.98975901  0.15087395  1
  In  In4  1  0.65771183  0.32746290  0.68243704  1
  In  In5  1  0.67253710  0.34228817  0.18243704  1
  In  In6  1  0.66064156  0.33697590  0.98424628  1
  In  In7  1  0.66302410  0.33935844  0.48424628  1
  In  In8  1  0.34071268  0.66442709  0.01579836  1
  In  In9  1  0.33557291  0.65928732  0.51579836  1
  In  In10  1  0.32955639  0.66592686  0.31746574  1
  In  In11  1  0.33407314  0.67044361  0.81746574  1
  P  P0  1  0.29945142  0.00047355  0.24984157  1
  P  P1  1  0.69965643  0.70050946  0.25056655  1
  P  P2  1  0.99996451  0.29647143  0.24974507  1
  P  P3  1  0.29949054  0.30034357  0.75056655  1
  P  P4  1  0.99952645  0.70054858  0.74984157  1
  P  P5  1  0.70352857  0.00003549  0.74974507  1
  P  P6  1  0.96310198  0.33350276  0.58339191  1
  P  P7  1  0.36730213  0.03289469  0.58096814  1
  P  P8  1  0.66767044  0.63394884  0.58565212  1
  P  P9  1  0.96710531  0.63269787  0.08096814  1
  P  P10  1  0.66649724  0.03689802  0.08339191  1
  P  P11  1  0.36605116  0.33232956  0.08565212  1
  P  P12  1  0.63345253  0.66767197  0.91414613  1
  P  P13  1  0.03355347  0.36703205  0.91715896  1
  P  P14  1  0.33398776  0.96373576  0.91867348  1
  P  P15  1  0.63296795  0.96644653  0.41715896  1
  P  P16  1  0.33232803  0.36654747  0.41414613  1
  P  P17  1  0.03626424  0.66601224  0.41867348  1
  O  O0  1  0.21888172  0.02957938  0.30475461  1
  O  O1  1  0.80622413  0.77857716  0.30595564  1
  O  O2  1  0.97000106  0.18650724  0.30527819  1
  O  O3  1  0.22142284  0.19377587  0.80595564  1
  O  O4  1  0.97042062  0.78111828  0.80475461  1
  O  O5  1  0.81349276  0.02999894  0.80527819  1
  O  O6  1  0.78463768  0.97061176  0.69449980  1
  O  O7  1  0.18625108  0.22276901  0.69616787  1
  O  O8  1  0.02386706  0.80482773  0.69328904  1
  O  O9  1  0.77723099  0.81374892  0.19616787  1
  O  O10  1  0.02938824  0.21536232  0.19449980  1
  O  O11  1  0.19517227  0.97613294  0.19328904  1
  O  O12  1  0.88276257  0.36378032  0.63881665  1
  O  O13  1  0.48423128  0.11624067  0.63422162  1
  O  O14  1  0.64257710  0.53258260  0.64272105  1
  O  O15  1  0.88375933  0.51576872  0.13422162  1
  O  O16  1  0.63621968  0.11723743  0.13881665  1
  O  O17  1  0.46741740  0.35742290  0.14272105  1
  O  O18  1  0.44923974  0.29878639  0.03235430  1
  O  O19  1  0.86592627  0.55696345  0.02383783  1
  O  O20  1  0.69701427  0.14802008  0.02794112  1
  O  O21  1  0.44303655  0.13407373  0.52383783  1
  O  O22  1  0.70121361  0.55076026  0.53235430  1
  O  O23  1  0.85197992  0.30298573  0.52794112  1
  O  O24  1  0.55143493  0.70205998  0.96758454  1
  O  O25  1  0.13796709  0.44808492  0.97340954  1
  O  O26  1  0.30293705  0.85607194  0.97487144  1
  O  O27  1  0.55191508  0.86203291  0.47340954  1
  O  O28  1  0.29794002  0.44856507  0.46758454  1
  O  O29  1  0.14392806  0.69706295  0.47487144  1
  O  O30  1  0.11920997  0.63208501  0.36499872  1
  O  O31  1  0.52304106  0.88602146  0.36193107  1
  O  O32  1  0.35787580  0.46811029  0.35718318  1
  O  O33  1  0.11397854  0.47695894  0.86193107  1
  O  O34  1  0.36791499  0.88079003  0.86499872  1
  O  O35  1  0.53188971  0.64212420  0.85718318  1
  O  O36  1  0.02759890  0.83077682  0.41231749  1
  O  O37  1  0.81482126  0.99461133  0.41287413  1
  O  O38  1  0.16988191  0.18715979  0.41091848  1
  O  O39  1  0.00538867  0.18517874  0.91287413  1
  O  O40  1  0.16922318  0.97240110  0.91231749  1
  O  O41  1  0.81284021  0.83011809  0.91091848  1
  O  O42  1  0.97338802  0.16893344  0.58833493  1
  O  O43  1  0.18666294  0.00633226  0.58688503  1
  O  O44  1  0.83034966  0.81319660  0.58874662  1
  O  O45  1  0.99366774  0.81333706  0.08688503  1
  O  O46  1  0.83106656  0.02661198  0.08833493  1
  O  O47  1  0.18680340  0.16965034  0.08874662  1
  O  O48  1  0.69234750  0.16422538  0.74470315  1
  O  O49  1  0.48047249  0.32763873  0.74541117  1
  O  O50  1  0.83645675  0.52190265  0.74581659  1
  O  O51  1  0.67236127  0.51952751  0.24541117  1
  O  O52  1  0.83577462  0.30765250  0.24470315  1
  O  O53  1  0.47809735  0.16354325  0.24581659  1
  O  O54  1  0.65898716  0.51275623  0.92028040  1
  O  O55  1  0.85467777  0.35192364  0.92097100  1
  O  O56  1  0.49642315  0.13930214  0.92277224  1
  O  O57  1  0.64807636  0.14532223  0.42097100  1
  O  O58  1  0.48724377  0.34101284  0.42028040  1
  O  O59  1  0.86069786  0.50357685  0.42277224  1
  O  O60  1  0.33998888  0.48668147  0.07953699  1
  O  O61  1  0.14619220  0.64855986  0.07806345  1
  O  O62  1  0.50351279  0.86223527  0.07847463  1
  O  O63  1  0.35144014  0.85380780  0.57806345  1
  O  O64  1  0.51331853  0.66001112  0.57953699  1
  O  O65  1  0.13776473  0.49648721  0.57847463  1
  O  O66  1  0.32735782  0.84602210  0.25440775  1
  O  O67  1  0.52109575  0.68533852  0.25490970  1
  O  O68  1  0.16323060  0.47165421  0.25439642  1
  O  O69  1  0.31466148  0.47890425  0.75490970  1
  O  O70  1  0.15397790  0.67264218  0.75440775  1
  O  O71  1  0.52834579  0.83676940  0.75439642  1
loop_
_geom_bond_atom_site_label_1
_geom_bond_atom_site_label_2
_geom_bond_distance
_geom_bond_site_symmetry_2
Na0 O43 2.588492 1_565
Na0 O37 2.589788 1_455
Na0 O44 2.597133 1_455
Na0 O38 2.605219 1_565
Na0 O36 2.612535 1_555
Na0 O42 2.621074 1_465
Na1 O45 2.588492 1_455
Na1 O39 2.589788 1_564
Na1 O47 2.597133 1_565
Na1 O41 2.605219 1_454
Na1 O40 2.612535 1_554
Na1 O46 2.621074 1_465
Na2 O49 2.509151 1_555
Na2 O56 2.541391 1_555
Na2 O54 2.599417 1_555
Na2 O48 2.640845 1_555
Na2 O50 2.686783 1_555
Na2 O55 2.689158 1_555
Na3 O51 2.509151 1_555
Na3 O59 2.541391 1_555
Na3 O58 2.599417 1_555
Na3 O52 2.640845 1_555
Na3 O53 2.686783 1_555
Na3 O57 2.689158 1_555
Na4 O67 2.586464 1_555
Na4 O61 2.594454 1_555
Na4 O60 2.595089 1_555
Na4 O66 2.604015 1_555
Na4 O68 2.608774 1_555
Na4 O62 2.617744 1_555
Na5 O69 2.586464 1_555
Na5 O63 2.594454 1_555
Na5 O64 2.595089 1_555
Na5 O70 2.604015 1_555
Na5 O71 2.608774 1_555
Na5 O65 2.617744 1_555
Na6 O66 2.429139 1_555
Na6 O52 2.470154 1_565
Na6 O67 2.512276 1_555
Na6 O53 2.532198 1_565
Na6 O16 2.743096 1_565
Na6 O31 2.755646 1_555
Na6 O9 2.869844 1_555
Na6 O2 2.934724 1_565
Na7 O51 2.427028 1_555
Na7 O68 2.479828 1_555
Na7 O53 2.506567 1_555
Na7 O67 2.537850 1_555
Na7 O17 2.629249 1_555
Na7 O32 2.635588 1_555
Na7 O0 2.923984 1_555
Na7 O10 2.937882 1_555
Na8 O49 2.427028 1_555
Na8 O71 2.479828 1_555
Na8 O50 2.506567 1_555
Na8 O69 2.537850 1_555
Na8 O14 2.629249 1_555
Na8 O35 2.635588 1_555
Na8 O4 2.923984 1_555
Na8 O6 2.937882 1_555
Na9 O70 2.429139 1_555
Na9 O48 2.470154 1_455
Na9 O69 2.512276 1_555
Na9 O50 2.532198 1_455
Na9 O12 2.743096 1_455
Na9 O33 2.755646 1_555
Na9 O7 2.869844 1_555
Na9 O5 2.934724 1_455
Na10 O43 2.432640 1_565
Na10 O65 2.475073 1_555
Na10 O44 2.520958 1_455
Na10 O63 2.533254 1_555
Na10 O29 2.680090 1_555
Na10 O8 2.703761 1_555
Na10 O22 2.849615 1_455
Na10 O12 2.930356 1_455
Na11 O64 2.434530 1_555
Na11 O42 2.467901 1_565
Na11 O63 2.510417 1_555
Na11 O44 2.527203 1_555
Na11 O27 2.694545 1_555
Na11 O6 2.755890 1_555
Na11 O13 2.851254 1_565
Na11 O23 2.927730 1_565
Na12 O45 2.432640 1_455
Na12 O62 2.475073 1_555
Na12 O47 2.520958 1_565
Na12 O61 2.533254 1_555
Na12 O26 2.680090 1_554
Na12 O11 2.703761 1_555
Na12 O18 2.849615 1_565
Na12 O16 2.930356 1_565
Na13 O60 2.434530 1_555
Na13 O46 2.467901 1_455
Na13 O61 2.510417 1_555
Na13 O47 2.527203 1_555
Na13 O25 2.694545 1_554
Na13 O10 2.755890 1_555
Na13 O15 2.851254 1_455
Na13 O20 2.927730 1_455
Na14 O54 2.432518 1_555
Na14 O40 2.470026 1_655
Na14 O55 2.499816 1_555
Na14 O41 2.527468 1_555
Na14 O19 2.604041 1_556
Na14 O4 2.774272 1_555
Na14 O33 2.933941 1_655
Na14 O26 2.960284 1_655
Na15 O39 2.425872 1_655
Na15 O56 2.489142 1_555
Na15 O41 2.518958 1_545
Na15 O55 2.538260 1_555
Na15 O5 2.748744 1_555
Na15 O20 2.758375 1_556
Na15 O24 2.842869 1_545
Na15 O34 2.860009 1_545
Na16 O37 2.425872 1_545
Na16 O59 2.489142 1_555
Na16 O38 2.518958 1_655
Na16 O57 2.538260 1_555
Na16 O2 2.748744 1_555
Na16 O23 2.758375 1_555
Na16 O28 2.842869 1_655
Na16 O30 2.860009 1_655
Na17 O58 2.432518 1_555
Na17 O36 2.470026 1_545
Na17 O57 2.499817 1_555
Na17 O38 2.527468 1_555
Na17 O21 2.604041 1_555
Na17 O0 2.774272 1_555
Na17 O31 2.933941 1_545
Na17 O29 2.960284 1_545
In0 O1 2.073876 1_555
In0 O2 2.151878 1_565
In0 O0 2.153572 1_665
In0 O36 2.170280 1_655
In0 O37 2.197929 1_555
In0 O38 2.215250 1_665
In1 O3 2.073876 1_555
In1 O5 2.151878 1_455
In1 O4 2.153572 1_445
In1 O40 2.170280 1_545
In1 O39 2.197929 1_555
In1 O41 2.215250 1_445
In2 O7 2.084205 1_555
In2 O8 2.138446 1_545
In2 O6 2.154367 1_445
In2 O43 2.174928 1_555
In2 O42 2.190567 1_455
In2 O44 2.218207 1_445
In3 O9 2.084205 1_555
In3 O11 2.138446 1_655
In3 O10 2.154367 1_665
In3 O45 2.174928 1_555
In3 O46 2.190567 1_565
In3 O47 2.218207 1_665
In4 O13 2.090019 1_555
In4 O14 2.140171 1_555
In4 O12 2.150938 1_555
In4 O49 2.162365 1_555
In4 O48 2.187560 1_555
In4 O50 2.234428 1_555
In5 O15 2.090019 1_555
In5 O17 2.140171 1_555
In5 O16 2.150938 1_555
In5 O51 2.162365 1_555
In5 O52 2.187560 1_555
In5 O53 2.234428 1_555
In6 O18 2.089562 1_556
In6 O19 2.140210 1_556
In6 O20 2.151027 1_556
In6 O54 2.169413 1_555
In6 O56 2.179856 1_555
In6 O55 2.233481 1_555
In7 O22 2.089562 1_555
In7 O21 2.140211 1_555
In7 O23 2.151027 1_555
In7 O58 2.169413 1_555
In7 O59 2.179856 1_555
In7 O57 2.233481 1_555
In8 O24 2.087140 1_554
In8 O25 2.142284 1_554
In8 O26 2.151602 1_554
In8 O60 2.171171 1_555
In8 O62 2.194718 1_555
In8 O61 2.219220 1_555
In9 O28 2.087140 1_555
In9 O27 2.142284 1_555
In9 O29 2.151602 1_555
In9 O64 2.171171 1_555
In9 O65 2.194718 1_555
In9 O63 2.219220 1_555
In10 O30 2.086620 1_555
In10 O32 2.142601 1_555
In10 O31 2.149619 1_555
In10 O66 2.186913 1_555
In10 O67 2.192292 1_555
In10 O68 2.194176 1_555
In11 O34 2.086620 1_555
In11 O35 2.142601 1_555
In11 O33 2.149619 1_555
In11 O70 2.186913 1_555
In11 O69 2.192292 1_555
In11 O71 2.194176 1_555
O0 P0 1.540710 1_555
O1 P1 1.533319 1_555
O2 P2 1.550515 1_555
O3 P3 1.533319 1_555
O4 P4 1.540710 1_555
O5 P5 1.550515 1_555
O6 P5 1.550830 1_565
O7 P3 1.539825 1_555
O8 P4 1.549131 1_455
O9 P1 1.539825 1_555
O10 P2 1.550830 1_455
O11 P0 1.549131 1_565
O12 P6 1.553428 1_555
O13 P7 1.541067 1_555
O14 P8 1.543812 1_555
O15 P9 1.541067 1_555
O16 P10 1.553428 1_555
O17 P11 1.543812 1_555
O18 P11 1.542281 1_555
O19 P9 1.544275 1_555
O20 P10 1.554145 1_555
O21 P7 1.544275 1_555
O22 P8 1.542281 1_555
O23 P6 1.554145 1_555
O24 P12 1.541957 1_555
O25 P13 1.546291 1_555
O26 P14 1.550088 1_555
O27 P15 1.546291 1_555
O28 P16 1.541957 1_555
O29 P17 1.550088 1_555
O30 P17 1.549317 1_555
O31 P15 1.545916 1_555
O32 P16 1.542099 1_555
O33 P13 1.545916 1_555
O34 P14 1.549317 1_555
O35 P12 1.542099 1_555
O36 P17 1.548080 1_555
O37 P15 1.547286 1_555
O38 P16 1.564461 1_555
O39 P13 1.547286 1_555
O40 P14 1.548080 1_555
O41 P12 1.564461 1_555
O42 P6 1.551640 1_555
O43 P7 1.544654 1_555
O44 P8 1.564494 1_555
O45 P9 1.544654 1_555
O46 P10 1.551640 1_555
O47 P11 1.564494 1_555
O48 P5 1.552802 1_555
O49 P3 1.543796 1_555
O50 P4 1.564005 1_555
O51 P1 1.543796 1_555
O52 P2 1.552802 1_555
O53 P0 1.564005 1_555
O54 P12 1.546410 1_555
O55 P13 1.567383 1_655
O56 P14 1.545858 1_545
O57 P15 1.567383 1_545
O58 P16 1.546410 1_555
O59 P17 1.545858 1_655
O60 P11 1.544221 1_555
O61 P9 1.565307 1_455
O62 P10 1.544767 1_565
O63 P7 1.565307 1_565
O64 P8 1.544221 1_555
O65 P6 1.544767 1_455
O66 P0 1.552681 1_565
O67 P1 1.565018 1_555
O68 P2 1.548087 1_455
O69 P3 1.565018 1_555
O70 P4 1.552681 1_455
O71 P5 1.548087 1_565
