# generated using pymatgen
data_LiHSeO3
_symmetry_space_group_name_H-M   'P 1'
_cell_length_a   5.15510200
_cell_length_b   5.37071900
_cell_length_c   11.39260800
_cell_angle_alpha   90.00000000
_cell_angle_beta   90.00000000
_cell_angle_gamma   90.00000000
_symmetry_Int_Tables_number   1
_chemical_formula_structural   LiHSeO3
_chemical_formula_sum   'Li4 H4 Se4 O12'
_cell_volume   315.42262917
_cell_formula_units_Z   4
loop_
 _symmetry_equiv_pos_site_id
 _symmetry_equiv_pos_as_xyz
  1  'x, y, z'
loop_
 _atom_site_type_symbol
 _atom_site_label
 _atom_site_symmetry_multiplicity
 _atom_site_fract_x
 _atom_site_fract_y
 _atom_site_fract_z
 _atom_site_occupancy
  Li  Li0  1  0.99393000  0.93819000  0.66802700  1
  Li  Li1  1  0.49393000  0.56181000  0.33197300  1
  Li  Li2  1  0.00607000  0.43819000  0.83197300  1
  Li  Li3  1  0.50607000  0.06181000  0.16802700  1
  H  H0  1  0.98131700  0.92867200  0.08380500  1
  H  H1  1  0.48131700  0.57132800  0.91619500  1
  H  H2  1  0.01868300  0.42867200  0.41619500  1
  H  H3  1  0.51868300  0.07132800  0.58380500  1
  Se  Se0  1  0.87410600  0.51282700  0.10014300  1
  Se  Se1  1  0.37410600  0.98717300  0.89985700  1
  Se  Se2  1  0.12589400  0.01282700  0.39985700  1
  Se  Se3  1  0.62589400  0.48717300  0.60014300  1
  O  O0  1  0.75321900  0.46535900  0.96291300  1
  O  O1  1  0.86037300  0.59274700  0.69095100  1
  O  O2  1  0.13962700  0.09274700  0.80904900  1
  O  O3  1  0.63962700  0.40725300  0.19095100  1
  O  O4  1  0.68189500  0.15030800  0.61917400  1
  O  O5  1  0.18189500  0.34969200  0.38082600  1
  O  O6  1  0.31810500  0.65030800  0.88082600  1
  O  O7  1  0.81810500  0.84969200  0.11917400  1
  O  O8  1  0.24678100  0.96535900  0.53708700  1
  O  O9  1  0.74678100  0.53464100  0.46291300  1
  O  O10  1  0.36037300  0.90725300  0.30904900  1
  O  O11  1  0.25321900  0.03464100  0.03708700  1
loop_
_geom_bond_atom_site_label_1
_geom_bond_atom_site_label_2
_geom_bond_distance
_geom_bond_site_symmetry_2
Li0 O2 1.958150 1_665
Li0 O8 1.986365 1_655
Li0 O1 1.996069 1_555
Li0 O4 2.048195 1_565
Li1 O3 1.958150 1_555
Li1 O9 1.986365 1_555
Li1 O10 1.996069 1_555
Li1 O5 2.048195 1_555
Li2 O1 1.958150 1_455
Li2 O0 1.986365 1_455
Li2 O2 1.996069 1_555
Li2 O6 2.048195 1_555
Li3 O10 1.958150 1_545
Li3 O11 1.986365 1_555
Li3 O3 1.996069 1_555
Li3 O7 2.048195 1_545
H0 O7 1.024795 1_555
H0 O11 1.603715 1_665
H1 O6 1.024795 1_555
H1 O0 1.603715 1_555
H2 O5 1.024795 1_555
H2 O9 1.603715 1_455
H3 O4 1.024795 1_555
H3 O8 1.603715 1_545
O0 Se0 1.702233 1_556
O1 Se3 1.689047 1_555
O2 Se1 1.689047 1_545
O3 Se0 1.689047 1_555
O4 Se3 1.844880 1_555
O5 Se2 1.844880 1_555
O6 Se1 1.844880 1_555
O7 Se0 1.844880 1_555
O8 Se2 1.702233 1_565
O9 Se3 1.702233 1_555
O10 Se2 1.689047 1_565
O11 Se1 1.702233 1_544
