# generated using pymatgen
data_MgTi2Mn4O12
_symmetry_space_group_name_H-M   'P 1'
_cell_length_a   5.13830650
_cell_length_b   5.13052398
_cell_length_c   10.44511318
_cell_angle_alpha   81.13697496
_cell_angle_beta   96.92211354
_cell_angle_gamma   117.70166815
_symmetry_Int_Tables_number   1
_chemical_formula_structural   MgTi2Mn4O12
_chemical_formula_sum   'Mg1 Ti2 Mn4 O12'
_cell_volume   240.50730377
_cell_formula_units_Z   1
loop_
 _symmetry_equiv_pos_site_id
 _symmetry_equiv_pos_as_xyz
  1  'x, y, z'
loop_
 _atom_site_type_symbol
 _atom_site_label
 _atom_site_symmetry_multiplicity
 _atom_site_fract_x
 _atom_site_fract_y
 _atom_site_fract_z
 _atom_site_occupancy
  Mg  Mg0  1  0.38477835  0.92360327  0.24530640  1
  Ti  Ti0  1  0.00724838  0.97683462  0.97981529  1
  Ti  Ti1  1  0.48368756  0.51199047  0.51785515  1
  Mn  Mn0  1  0.15202013  0.84120015  0.49970656  1
  Mn  Mn1  1  0.33747304  0.64566137  0.00449973  1
  Mn  Mn2  1  0.67093795  0.31407470  0.00096680  1
  Mn  Mn3  1  0.82154074  0.17548444  0.49638467  1
  O  O0  1  0.06934867  0.67521462  0.10798503  1
  O  O1  1  0.00301354  0.34623713  0.91510664  1
  O  O2  1  0.19128585  0.58927808  0.39184606  1
  O  O3  1  0.46306976  0.78595938  0.60408457  1
  O  O4  1  0.16677868  0.15177896  0.59007296  1
  O  O5  1  0.35377783  0.28123185  0.09864560  1
  O  O6  1  0.65525817  0.67019698  0.91085078  1
  O  O7  1  0.29503357  0.96507034  0.89637763  1
  O  O8  1  0.80838036  0.86866558  0.40408904  1
  O  O9  1  0.46400985  0.17363346  0.39943291  1
  O  O10  1  0.83966849  0.49137493  0.58638033  1
  O  O11  1  0.65768911  0.95000966  0.10059385  1
loop_
_geom_bond_atom_site_label_1
_geom_bond_atom_site_label_2
_geom_bond_distance
_geom_bond_site_symmetry_2
Mg0 O2 2.060506 1_555
Mg0 O0 2.095424 1_555
Mg0 O9 2.096614 1_565
Mg0 O11 2.130898 1_555
Mg0 O5 2.255089 1_565
Mg0 O8 2.669056 1_555
Mn0 O2 1.930401 1_555
Mn0 O3 1.931147 1_555
Mn0 O4 1.941535 1_565
Mn0 O10 1.946312 1_455
Mn0 O9 1.971809 1_565
Mn0 O8 1.974338 1_455
Mn1 O0 1.921747 1_555
Mn1 O7 1.926403 1_554
Mn1 O1 1.945727 1_554
Mn1 O6 1.948053 1_554
Mn1 O11 1.961903 1_555
Mn1 O5 2.007256 1_555
Mn2 O1 1.950505 1_654
Mn2 O5 1.953878 1_555
Mn2 O6 1.954326 1_554
Mn2 O11 1.968824 1_545
Mn2 O7 2.238076 1_544
Mn2 O0 2.330980 1_655
Mn3 O8 1.940310 1_545
Mn3 O10 1.956249 1_555
Mn3 O4 1.965899 1_655
Mn3 O9 1.984656 1_555
Mn3 O3 2.244186 1_545
Mn3 O2 2.311829 1_655
O0 Ti0 2.001616 1_554
O1 Ti0 1.920746 1_545
O2 Ti1 2.015773 1_555
O3 Ti1 1.830224 1_555
O4 Ti1 1.924730 1_555
O5 Ti0 2.151559 1_544
O6 Ti0 1.911747 1_655
O7 Ti0 1.832934 1_555
O8 Ti1 2.124496 1_555
O9 Ti1 2.240999 1_555
O10 Ti1 1.926191 1_555
O11 Ti0 2.258189 1_654
