# generated using pymatgen
data_Na2Nb2In2Si3(SO8)3
_symmetry_space_group_name_H-M   'P 1'
_cell_length_a   8.92650801
_cell_length_b   8.94637656
_cell_length_c   23.09041691
_cell_angle_alpha   90.33174393
_cell_angle_beta   90.43351987
_cell_angle_gamma   119.63649498
_symmetry_Int_Tables_number   1
_chemical_formula_structural   Na2Nb2In2Si3(SO8)3
_chemical_formula_sum   'Na6 Nb6 In6 Si9 S9 O72'
_cell_volume   1602.62454834
_cell_formula_units_Z   3
loop_
 _symmetry_equiv_pos_site_id
 _symmetry_equiv_pos_as_xyz
  1  'x, y, z'
loop_
 _atom_site_type_symbol
 _atom_site_label
 _atom_site_symmetry_multiplicity
 _atom_site_fract_x
 _atom_site_fract_y
 _atom_site_fract_z
 _atom_site_occupancy
  Na  Na0  1  0.98144236  0.98062106  0.49110655  1
  Na  Na1  1  0.01377570  0.99001286  0.99774124  1
  Na  Na2  1  0.64508079  0.31334616  0.82374858  1
  Na  Na3  1  0.66955939  0.31370164  0.32638102  1
  Na  Na4  1  0.30883536  0.65837033  0.16877429  1
  Na  Na5  1  0.34834511  0.66136683  0.65871490  1
  Nb  Nb0  1  0.99086739  0.00518624  0.64539870  1
  Nb  Nb1  1  0.00505181  0.99375993  0.15104239  1
  Nb  Nb2  1  0.66624782  0.33486953  0.97882530  1
  Nb  Nb3  1  0.67539463  0.34594238  0.47401250  1
  Nb  Nb4  1  0.31932622  0.67680019  0.31276084  1
  Nb  Nb5  1  0.34689104  0.68429430  0.80696306  1
  In  In0  1  0.00209554  0.00155075  0.35336104  1
  In  In1  1  0.01095845  0.00939099  0.85014627  1
  In  In2  1  0.65416955  0.33151406  0.68564153  1
  In  In3  1  0.67978529  0.33254800  0.18798329  1
  In  In4  1  0.31958435  0.67195999  0.01940999  1
  In  In5  1  0.34964853  0.67985061  0.51657129  1
  Si  Si0  1  0.29987307  0.00874911  0.25285654  1
  Si  Si1  1  0.00761938  0.29529965  0.25279952  1
  Si  Si2  1  0.29299572  0.29233020  0.75175698  1
  Si  Si3  1  0.71931615  0.01224808  0.75192791  1
  Si  Si4  1  0.66325846  0.62304756  0.58468746  1
  Si  Si5  1  0.95821702  0.62818154  0.08520469  1
  Si  Si6  1  0.32704642  0.95900728  0.91721439  1
  Si  Si7  1  0.63086549  0.95871286  0.41809202  1
  Si  Si8  1  0.04748889  0.67426372  0.42008930  1
  S  S0  1  0.70345052  0.70991047  0.24911957  1
  S  S1  1  0.00287276  0.71119966  0.74956206  1
  S  S2  1  0.95570592  0.33287374  0.58336058  1
  S  S3  1  0.36953514  0.04077913  0.58359746  1
  S  S4  1  0.67152427  0.04270442  0.08109115  1
  S  S5  1  0.37393707  0.33104597  0.08199305  1
  S  S6  1  0.61854868  0.66272405  0.91785722  1
  S  S7  1  0.03812797  0.37527558  0.91777472  1
  S  S8  1  0.33654369  0.37932090  0.41750325  1
  O  O0  1  0.21303660  0.02738916  0.30890513  1
  O  O1  1  0.80637649  0.78301183  0.30162879  1
  O  O2  1  0.97618770  0.17858359  0.30705167  1
  O  O3  1  0.21993706  0.18583466  0.80907710  1
  O  O4  1  0.97509957  0.77997681  0.80332189  1
  O  O5  1  0.81298205  0.01848161  0.81100694  1
  O  O6  1  0.80766481  0.97354163  0.69358936  1
  O  O7  1  0.16554087  0.19117607  0.69392483  1
  O  O8  1  0.02979819  0.82073362  0.69838094  1
  O  O9  1  0.79834278  0.82148229  0.19596576  1
  O  O10  1  0.02330525  0.18750639  0.19198455  1
  O  O11  1  0.16873935  0.96959830  0.19276883  1
  O  O12  1  0.87730823  0.35061682  0.63634135  1
  O  O13  1  0.47088749  0.11209837  0.63720591  1
  O  O14  1  0.65240246  0.52306870  0.64231528  1
  O  O15  1  0.86186388  0.51592637  0.13915192  1
  O  O16  1  0.63682550  0.11295024  0.13312743  1
  O  O17  1  0.47421324  0.35357196  0.13440315  1
  O  O18  1  0.46107579  0.30545662  0.02873086  1
  O  O19  1  0.83193745  0.52083382  0.02587469  1
  O  O20  1  0.68462980  0.15193789  0.02867662  1
  O  O21  1  0.45431037  0.14541843  0.53226635  1
  O  O22  1  0.68731315  0.52102531  0.52719627  1
  O  O23  1  0.84681924  0.30486781  0.53070335  1
  O  O24  1  0.53789121  0.68033518  0.97025037  1
  O  O25  1  0.13939405  0.44789524  0.97127986  1
  O  O26  1  0.31147177  0.85637198  0.97450639  1
  O  O27  1  0.55916363  0.85356749  0.47542262  1
  O  O28  1  0.31631052  0.45236786  0.47149911  1
  O  O29  1  0.14783883  0.68199452  0.47767937  1
  O  O30  1  0.13399770  0.63852671  0.36009488  1
  O  O31  1  0.49873824  0.85540051  0.36034843  1
  O  O32  1  0.36163642  0.48462294  0.36598470  1
  O  O33  1  0.11784446  0.48030753  0.86630304  1
  O  O34  1  0.35520203  0.85752594  0.86000746  1
  O  O35  1  0.51043266  0.63633217  0.86444288  1
  O  O36  1  0.01279597  0.83059750  0.41307178  1
  O  O37  1  0.82427686  0.00300234  0.41080361  1
  O  O38  1  0.19381663  0.20309361  0.41322567  1
  O  O39  1  0.00220343  0.19689724  0.91396210  1
  O  O40  1  0.16008265  0.98285712  0.91335937  1
  O  O41  1  0.79318411  0.80918630  0.91261127  1
  O  O42  1  0.96683155  0.16650266  0.58750535  1
  O  O43  1  0.19679309  0.03317300  0.58955795  1
  O  O44  1  0.84692405  0.81739062  0.59225031  1
  O  O45  1  0.96805820  0.82000268  0.08824593  1
  O  O46  1  0.83721043  0.04176499  0.08414529  1
  O  O47  1  0.20017619  0.17190098  0.08443189  1
  O  O48  1  0.68951587  0.17128122  0.74294489  1
  O  O49  1  0.48840136  0.33648501  0.74655198  1
  O  O50  1  0.86447169  0.53427779  0.74233961  1
  O  O51  1  0.67636305  0.53714674  0.24066866  1
  O  O52  1  0.85186016  0.33392639  0.24662741  1
  O  O53  1  0.48386828  0.17082740  0.24065550  1
  O  O54  1  0.63052491  0.49832751  0.92232586  1
  O  O55  1  0.86172310  0.36517410  0.92428223  1
  O  O56  1  0.50853495  0.15246989  0.92571436  1
  O  O57  1  0.62817319  0.14660288  0.42690643  1
  O  O58  1  0.50184712  0.36659847  0.42215033  1
  O  O59  1  0.85415982  0.48971463  0.42481269  1
  O  O60  1  0.35571194  0.48431216  0.07327305  1
  O  O61  1  0.14899059  0.65001528  0.08207911  1
  O  O62  1  0.52930136  0.86490596  0.07381670  1
  O  O63  1  0.33582421  0.86246018  0.57988601  1
  O  O64  1  0.49812641  0.65051677  0.58067568  1
  O  O65  1  0.13036341  0.47686289  0.57836419  1
  O  O66  1  0.30823187  0.82581801  0.25512414  1
  O  O67  1  0.53773873  0.70798208  0.25023479  1
  O  O68  1  0.19405784  0.48033143  0.25699725  1
  O  O69  1  0.29594052  0.48264318  0.76140966  1
  O  O70  1  0.17014350  0.70351829  0.75510741  1
  O  O71  1  0.52326820  0.82833658  0.75739282  1
loop_
_geom_bond_atom_site_label_1
_geom_bond_atom_site_label_2
_geom_bond_distance
_geom_bond_site_symmetry_2
Na0 O36 2.340419 1_655
Na0 O37 2.385214 1_565
Na0 O38 2.674057 1_665
Na0 O44 2.715963 1_555
Na0 O42 2.813020 1_565
Na0 O43 2.848135 1_665
Na1 O40 2.371882 1_555
Na1 O45 2.506586 1_456
Na1 O47 2.580213 1_566
Na1 O41 2.666941 1_455
Na1 O39 2.721429 1_565
Na1 O46 2.727182 1_466
Na2 O49 2.330049 1_555
Na2 O48 2.395032 1_555
Na2 O56 2.729136 1_555
Na2 O50 2.747006 1_555
Na2 O54 2.847837 1_555
Na2 O55 2.894189 1_555
Na3 O52 2.414573 1_555
Na3 O53 2.474912 1_555
Na3 O57 2.695571 1_555
Na3 O59 2.774232 1_555
Na3 O51 2.800771 1_555
Na3 O58 2.844987 1_555
Na4 O61 2.428659 1_555
Na4 O68 2.488321 1_555
Na4 O66 2.488613 1_555
Na4 O67 2.635403 1_555
Na4 O60 2.842764 1_555
Na4 O62 2.934381 1_555
Na5 O64 2.281862 1_555
Na5 O65 2.585825 1_555
Na5 O63 2.606895 1_555
Na5 O71 2.731500 1_555
Na5 O69 2.778356 1_555
Na5 O70 2.874655 1_555
Nb0 O6 1.888398 1_545
Nb0 O44 1.948596 1_545
Nb0 O7 1.959959 1_655
Nb0 O42 2.059145 1_555
Nb0 O43 2.165318 1_655
Nb0 O8 2.219151 1_645
Nb1 O11 1.844851 1_555
Nb1 O10 1.903702 1_565
Nb1 O45 2.021626 1_455
Nb1 O9 2.022639 1_455
Nb1 O47 2.294112 1_565
Nb1 O46 2.328998 1_465
Nb2 O19 1.912293 1_556
Nb2 O56 1.956379 1_555
Nb2 O55 2.067295 1_555
Nb2 O18 2.076110 1_556
Nb2 O20 2.077221 1_556
Nb2 O54 2.102171 1_555
Nb3 O59 1.872394 1_555
Nb3 O57 1.941214 1_555
Nb3 O22 1.945200 1_555
Nb3 O58 2.031197 1_555
Nb3 O23 2.172905 1_555
Nb3 O21 2.342870 1_555
Nb4 O30 1.876196 1_555
Nb4 O66 1.925474 1_555
Nb4 O31 1.935866 1_555
Nb4 O68 2.001487 1_555
Nb4 O32 2.295341 1_555
Nb4 O67 2.339398 1_555
Nb5 O71 1.867447 1_555
Nb5 O69 1.930580 1_555
Nb5 O34 1.941772 1_555
Nb5 O70 2.048093 1_555
Nb5 O35 2.161857 1_555
Nb5 O33 2.401942 1_555
In0 O2 2.020752 1_455
In0 O0 2.062580 1_555
In0 O37 2.081106 1_455
In0 O36 2.101444 1_545
In0 O1 2.205657 1_445
In0 O38 2.230304 1_555
In1 O3 2.000699 1_555
In1 O5 2.016265 1_455
In1 O40 2.060568 1_545
In1 O4 2.191625 1_445
In1 O39 2.257033 1_555
In1 O41 2.386680 1_445
In2 O14 1.996065 1_555
In2 O49 2.065315 1_555
In2 O48 2.090023 1_555
In2 O13 2.133422 1_555
In2 O12 2.234377 1_555
In2 O50 2.257458 1_555
In3 O15 2.004132 1_555
In3 O52 2.035378 1_555
In3 O53 2.044777 1_555
In3 O16 2.197693 1_555
In3 O51 2.204853 1_555
In3 O17 2.289776 1_555
In4 O26 1.984697 1_554
In4 O61 2.047539 1_555
In4 O25 2.144508 1_554
In4 O62 2.192221 1_555
In4 O24 2.231963 1_554
In4 O60 2.241126 1_555
In5 O27 1.996317 1_555
In5 O29 2.015431 1_555
In5 O64 2.082142 1_555
In5 O28 2.164561 1_555
In5 O63 2.235168 1_555
In5 O65 2.392065 1_555
O0 Si0 1.563362 1_555
O1 S0 1.456574 1_555
O2 Si1 1.571316 1_655
O3 Si2 1.580498 1_555
O4 S1 1.458650 1_655
O5 Si3 1.580780 1_555
O6 Si3 1.684402 1_565
O7 Si2 1.685627 1_555
O8 S1 1.483053 1_555
O9 S0 1.553684 1_555
O10 Si1 1.744227 1_555
O11 Si0 1.726914 1_565
O12 S2 1.460169 1_555
O13 S3 1.469995 1_555
O14 Si4 1.584320 1_555
O15 Si5 1.573674 1_555
O16 S4 1.457387 1_555
O17 S5 1.452150 1_555
O18 S5 1.535351 1_555
O19 Si5 1.720610 1_555
O20 S4 1.528472 1_555
O21 S3 1.476367 1_555
O22 Si4 1.680933 1_555
O23 S2 1.491179 1_555
O24 S6 1.459431 1_555
O25 S7 1.469203 1_555
O26 Si6 1.582118 1_555
O27 Si7 1.574398 1_555
O28 S8 1.457694 1_555
O29 Si8 1.579603 1_555
O30 Si8 1.694941 1_555
O31 Si7 1.704967 1_555
O32 S8 1.470068 1_555
O33 S7 1.471833 1_555
O34 Si6 1.687927 1_555
O35 S6 1.503859 1_555
O36 Si8 1.583835 1_555
O37 Si7 1.579460 1_545
O38 S8 1.458890 1_555
O39 S7 1.465986 1_555
O40 Si6 1.608562 1_555
O41 S6 1.465013 1_555
O42 S2 1.543408 1_555
O43 S3 1.516849 1_555
O44 Si4 1.707159 1_555
O45 Si5 1.675434 1_555
O46 S4 1.484319 1_555
O47 S5 1.501439 1_555
O48 Si3 1.585860 1_555
O49 Si2 1.592264 1_555
O50 S1 1.455780 1_655
O51 S0 1.453147 1_555
O52 Si1 1.595512 1_655
O53 Si0 1.592451 1_555
O54 S6 1.530452 1_555
O55 S7 1.540571 1_655
O56 Si6 1.696139 1_545
O57 Si7 1.703998 1_545
O58 S8 1.538070 1_555
O59 Si8 1.703841 1_655
O60 S5 1.473246 1_555
O61 Si5 1.617535 1_455
O62 S4 1.471953 1_565
O63 S3 1.471787 1_565
O64 Si4 1.611913 1_555
O65 S2 1.456581 1_455
O66 Si0 1.675820 1_565
O67 S0 1.471196 1_555
O68 Si1 1.670459 1_555
O69 Si2 1.703088 1_555
O70 S1 1.532738 1_555
O71 Si3 1.715725 1_565
