# generated using pymatgen
data_Li4H5Rh
_symmetry_space_group_name_H-M   'P 1'
_cell_length_a   5.02711789
_cell_length_b   5.02711789
_cell_length_c   9.29236900
_cell_angle_alpha   90.00000000
_cell_angle_beta   90.00000000
_cell_angle_gamma   134.42990630
_symmetry_Int_Tables_number   1
_chemical_formula_structural   Li4H5Rh
_chemical_formula_sum   'Li8 H10 Rh2'
_cell_volume   167.69808795
_cell_formula_units_Z   2
loop_
 _symmetry_equiv_pos_site_id
 _symmetry_equiv_pos_as_xyz
  1  'x, y, z'
loop_
 _atom_site_type_symbol
 _atom_site_label
 _atom_site_symmetry_multiplicity
 _atom_site_fract_x
 _atom_site_fract_y
 _atom_site_fract_z
 _atom_site_occupancy
  Li  Li0  1  0.57929700  0.42070300  0.38541100  1
  Li  Li1  1  0.86952700  0.13047300  0.40813700  1
  Li  Li2  1  0.86952700  0.13047300  0.09186300  1
  Li  Li3  1  0.13047300  0.86952700  0.90813700  1
  Li  Li4  1  0.42070300  0.57929700  0.61458900  1
  Li  Li5  1  0.42070300  0.57929700  0.88541100  1
  Li  Li6  1  0.57929700  0.42070300  0.11458900  1
  Li  Li7  1  0.13047300  0.86952700  0.59186300  1
  H  H0  1  0.73331600  0.26668400  0.25000000  1
  H  H1  1  0.26668400  0.73331600  0.75000000  1
  H  H2  1  0.63571600  0.36428400  0.60909400  1
  H  H3  1  0.36428400  0.63571600  0.39090600  1
  H  H4  1  0.36428400  0.63571600  0.10909400  1
  H  H5  1  0.63571600  0.36428400  0.89090600  1
  H  H6  1  0.90417100  0.09582900  0.62009300  1
  H  H7  1  0.09582900  0.90417100  0.37990700  1
  H  H8  1  0.90417100  0.09582900  0.87990700  1
  H  H9  1  0.09582900  0.90417100  0.12009300  1
  Rh  Rh0  1  0.23211500  0.76788500  0.25000000  1
  Rh  Rh1  1  0.76788500  0.23211500  0.75000000  1
loop_
_geom_bond_atom_site_label_1
_geom_bond_atom_site_label_2
_geom_bond_distance
_geom_bond_site_symmetry_2
H0 Li6 1.903056 1_555
H0 Li0 1.903056 1_555
H0 Li1 1.937411 1_555
H0 Li2 1.937411 1_555
H0 Rh0 1.946909 1_655
H0 Rh0 1.946909 1_545
H1 Li5 1.903056 1_555
H1 Li4 1.903056 1_555
H1 Li3 1.937411 1_555
H1 Li7 1.937411 1_555
H1 Rh1 1.946909 1_565
H1 Rh1 1.946909 1_455
H2 Rh1 1.793158 1_555
H2 Li7 1.954055 1_655
H2 Li7 1.954055 1_545
H2 Li4 1.993748 1_555
H2 Li0 2.143330 1_555
H3 Rh0 1.793158 1_555
H3 Li1 1.954055 1_565
H3 Li1 1.954055 1_455
H3 Li0 1.993748 1_555
H3 Li4 2.143330 1_555
H4 Rh0 1.793158 1_555
H4 Li2 1.954055 1_565
H4 Li2 1.954055 1_455
H4 Li6 1.993748 1_555
H4 Li5 2.143330 1_554
H5 Rh1 1.793158 1_555
H5 Li3 1.954055 1_655
H5 Li3 1.954055 1_545
H5 Li5 1.993748 1_555
H5 Li6 2.143330 1_556
H6 Rh1 1.747335 1_555
H6 Li4 1.953569 1_655
H6 Li4 1.953569 1_545
H6 Li1 1.995582 1_555
H6 Li7 2.114078 1_645
H7 Rh0 1.747335 1_555
H7 Li0 1.953569 1_455
H7 Li0 1.953569 1_565
H7 Li7 1.995582 1_555
H7 Li1 2.114078 1_465
H8 Rh1 1.747335 1_555
H8 Li5 1.953569 1_545
H8 Li5 1.953569 1_655
H8 Li2 1.995582 1_556
H8 Li3 2.114078 1_645
H9 Rh0 1.747335 1_555
H9 Li6 1.953569 1_455
H9 Li6 1.953569 1_565
H9 Li3 1.995582 1_554
H9 Li2 2.114078 1_465
