# generated using pymatgen
data_Na2PrO3
_symmetry_space_group_name_H-M   'P 1'
_cell_length_a   6.08337925
_cell_length_b   6.08337925
_cell_length_c   11.32230794
_cell_angle_alpha   79.89280961
_cell_angle_beta   79.89280961
_cell_angle_gamma   109.81595503
_symmetry_Int_Tables_number   1
_chemical_formula_structural   Na2PrO3
_chemical_formula_sum   'Na8 Pr4 O12'
_cell_volume   375.38396158
_cell_formula_units_Z   4
loop_
 _symmetry_equiv_pos_site_id
 _symmetry_equiv_pos_as_xyz
  1  'x, y, z'
loop_
 _atom_site_type_symbol
 _atom_site_label
 _atom_site_symmetry_multiplicity
 _atom_site_fract_x
 _atom_site_fract_y
 _atom_site_fract_z
 _atom_site_occupancy
  Na  Na0  1  0.69489500  0.45635900  0.09542500  1
  Na  Na1  1  0.62379300  0.87520600  0.25875600  1
  Na  Na2  1  0.87520600  0.62379300  0.75875600  1
  Na  Na3  1  0.37620700  0.12479400  0.74124400  1
  Na  Na4  1  0.30510500  0.54364100  0.90457500  1
  Na  Na5  1  0.45635900  0.69489500  0.59542500  1
  Na  Na6  1  0.54364100  0.30510500  0.40457500  1
  Na  Na7  1  0.12479400  0.37620700  0.24124400  1
  Pr  Pr0  1  0.20631100  0.95328200  0.08596200  1
  Pr  Pr1  1  0.04671800  0.79368900  0.41403800  1
  Pr  Pr2  1  0.79368900  0.04671800  0.91403800  1
  Pr  Pr3  1  0.95328200  0.20631100  0.58596200  1
  O  O0  1  0.54674300  0.26694500  0.92946200  1
  O  O1  1  0.73305500  0.45325700  0.57053800  1
  O  O2  1  0.45325700  0.73305500  0.07053800  1
  O  O3  1  0.26694500  0.54674300  0.42946200  1
  O  O4  1  0.35409600  0.10413200  0.24973500  1
  O  O5  1  0.89586800  0.64590400  0.25026500  1
  O  O6  1  0.64590400  0.89586800  0.75026500  1
  O  O7  1  0.10413200  0.35409600  0.74973500  1
  O  O8  1  0.80360500  0.01931100  0.42850600  1
  O  O9  1  0.01931100  0.80360500  0.92850600  1
  O  O10  1  0.19639500  0.98068900  0.57149400  1
  O  O11  1  0.98068900  0.19639500  0.07149400  1
loop_
_geom_bond_atom_site_label_1
_geom_bond_atom_site_label_2
_geom_bond_distance
_geom_bond_site_symmetry_2
Na0 O0 2.514205 1_554
Na0 O4 2.518896 1_555
Na0 O9 2.528263 1_654
Na0 O5 2.530579 1_555
Na0 O2 2.594234 1_555
Na0 O11 2.728803 1_555
Na1 O4 2.489923 1_565
Na1 O5 2.500227 1_555
Na1 O8 2.517554 1_565
Na1 O3 2.582981 1_555
Na1 O11 2.661032 1_565
Na1 O2 2.679555 1_555
Na2 O7 2.489923 1_655
Na2 O6 2.500227 1_555
Na2 O9 2.517554 1_655
Na2 O0 2.582981 1_555
Na2 O10 2.661032 1_655
Na2 O1 2.679555 1_555
Na3 O6 2.489923 1_545
Na3 O7 2.500227 1_555
Na3 O10 2.517554 1_545
Na3 O1 2.582981 1_555
Na3 O9 2.661032 1_545
Na3 O0 2.679555 1_555
Na4 O2 2.514205 1_556
Na4 O6 2.518896 1_555
Na4 O11 2.528263 1_456
Na4 O7 2.530579 1_555
Na4 O0 2.594234 1_555
Na4 O9 2.728803 1_555
Na5 O3 2.514205 1_555
Na5 O7 2.518896 1_555
Na5 O8 2.528263 1_565
Na5 O6 2.530579 1_555
Na5 O1 2.594234 1_555
Na5 O10 2.728803 1_555
Na6 O1 2.514205 1_555
Na6 O5 2.518896 1_555
Na6 O10 2.528263 1_545
Na6 O4 2.530579 1_555
Na6 O3 2.594234 1_555
Na6 O8 2.728803 1_555
Na7 O5 2.489923 1_455
Na7 O4 2.500227 1_555
Na7 O11 2.517554 1_455
Na7 O2 2.582981 1_555
Na7 O8 2.661032 1_455
Na7 O3 2.679555 1_555
O0 Pr2 2.331686 1_555
O0 Pr0 2.432234 1_546
O1 Pr3 2.331686 1_555
O1 Pr1 2.432234 1_655
O2 Pr0 2.331686 1_555
O2 Pr2 2.432234 1_564
O3 Pr1 2.331686 1_555
O3 Pr3 2.432234 1_455
O4 Pr1 2.382337 1_545
O4 Pr0 2.389929 1_545
O5 Pr0 2.382337 1_655
O5 Pr1 2.389929 1_655
O6 Pr3 2.382337 1_565
O6 Pr2 2.389929 1_565
O7 Pr2 2.382337 1_455
O7 Pr3 2.389929 1_455
O8 Pr1 2.338412 1_645
O8 Pr3 2.425019 1_555
O9 Pr2 2.338412 1_465
O9 Pr0 2.425019 1_556
O10 Pr3 2.338412 1_465
O10 Pr1 2.425019 1_555
O11 Pr0 2.338412 1_645
O11 Pr2 2.425019 1_554
