# generated using pymatgen
data_Rb5Zr4F21
_symmetry_space_group_name_H-M   'P 1'
_cell_length_a   11.15902668
_cell_length_b   7.79533816
_cell_length_c   11.53456337
_cell_angle_alpha   81.59445621
_cell_angle_beta   90.00000000
_cell_angle_gamma   90.00000000
_symmetry_Int_Tables_number   1
_chemical_formula_structural   Rb5Zr4F21
_chemical_formula_sum   'Rb10 Zr8 F42'
_cell_volume   992.59501821
_cell_formula_units_Z   2
loop_
 _symmetry_equiv_pos_site_id
 _symmetry_equiv_pos_as_xyz
  1  'x, y, z'
loop_
 _atom_site_type_symbol
 _atom_site_label
 _atom_site_symmetry_multiplicity
 _atom_site_fract_x
 _atom_site_fract_y
 _atom_site_fract_z
 _atom_site_occupancy
  Rb  Rb0  1  0.52304322  0.68568763  0.11363378  1
  Rb  Rb1  1  0.02304322  0.31431237  0.88636622  1
  Rb  Rb2  1  0.48779229  0.97401966  0.74396074  1
  Rb  Rb3  1  0.98779229  0.02598034  0.25603926  1
  Rb  Rb4  1  0.82350971  0.83828785  0.90009501  1
  Rb  Rb5  1  0.32350971  0.16171215  0.09990499  1
  Rb  Rb6  1  0.63979527  0.80948675  0.45623786  1
  Rb  Rb7  1  0.13979527  0.19051325  0.54376214  1
  Rb  Rb8  1  0.97920045  0.71948692  0.61047597  1
  Rb  Rb9  1  0.47920045  0.28051308  0.38952403  1
  Zr  Zr0  1  0.84023800  0.53520399  0.27630524  1
  Zr  Zr1  1  0.34023800  0.46479601  0.72369476  1
  Zr  Zr2  1  0.69517096  0.17121663  0.09045005  1
  Zr  Zr3  1  0.19517096  0.82878337  0.90954995  1
  Zr  Zr4  1  0.66053002  0.50311553  0.76986927  1
  Zr  Zr5  1  0.16053002  0.49688447  0.23013073  1
  Zr  Zr6  1  0.80206565  0.21315780  0.59204811  1
  Zr  Zr7  1  0.30206565  0.78684220  0.40795189  1
  F  F0  1  0.90722914  0.06277693  0.70951805  1
  F  F1  1  0.40722914  0.93722307  0.29048195  1
  F  F2  1  0.93552508  0.38183403  0.59225454  1
  F  F3  1  0.43552508  0.61816597  0.40774546  1
  F  F4  1  0.87201650  0.04087097  0.49613066  1
  F  F5  1  0.37201650  0.95912903  0.50386934  1
  F  F6  1  0.83585282  0.52000137  0.80406035  1
  F  F7  1  0.33585282  0.47999863  0.19593965  1
  F  F8  1  0.63984956  0.11268263  0.56146528  1
  F  F9  1  0.13984956  0.88731737  0.43853472  1
  F  F10  1  0.66445181  0.56657288  0.30206300  1
  F  F11  1  0.16445181  0.43342712  0.69793700  1
  F  F12  1  0.69498103  0.45609400  0.59624526  1
  F  F13  1  0.19498103  0.54390600  0.40375474  1
  F  F14  1  0.79122284  0.67166449  0.12375340  1
  F  F15  1  0.59314739  0.65657663  0.88080865  1
  F  F16  1  0.86918149  0.70457752  0.38513059  1
  F  F17  1  0.36918149  0.29542248  0.61486941  1
  F  F18  1  0.99769305  0.38691061  0.32578788  1
  F  F19  1  0.49769305  0.61308939  0.67421212  1
  F  F20  1  0.10878505  0.98861351  0.99786276  1
  F  F21  1  0.60878505  0.01138649  0.00213724  1
  F  F22  1  0.20489212  0.00196797  0.76632147  1
  F  F23  1  0.70489212  -0.00196797  0.23367853  1
  F  F24  1  0.00417603  0.65737893  0.19966810  1
  F  F25  1  0.50417603  0.34262107  0.80033190  1
  F  F26  1  0.35500519  0.89833639  0.96671026  1
  F  F27  1  0.85500519  0.10166361  0.03328974  1
  F  F28  1  0.22288258  0.76837842  0.24116982  1
  F  F29  1  0.72288258  0.23162158  0.75883018  1
  F  F30  1  0.05422550  0.71356237  0.84732830  1
  F  F31  1  0.55422550  0.28643763  0.15267170  1
  F  F32  1  0.30764812  0.67333890  0.81970012  1
  F  F33  1  0.80764812  0.32666110  0.18029988  1
  F  F34  1  0.28940368  0.66072426  0.58475414  1
  F  F35  1  0.78940368  0.33927574  0.41524586  1
  F  F36  1  0.20786806  0.25352766  0.31062723  1
  F  F37  1  0.70786806  0.74647234  0.68937277  1
  F  F38  1  0.18561339  0.63517086  0.04986753  1
  F  F39  1  0.68561339  0.36482914  0.95013247  1
  F  F40  1  0.29122284  0.32833551  0.87624660  1
  F  F41  1  0.09314739  0.34342337  0.11919135  1
loop_
_geom_bond_atom_site_label_1
_geom_bond_atom_site_label_2
_geom_bond_distance
_geom_bond_site_symmetry_2
F0 Zr6 2.030498 1_555
F0 Rb4 2.764544 1_545
F0 Rb8 3.163100 1_545
F0 Rb7 3.290212 1_655
F0 Rb1 3.293235 1_655
F1 Zr7 2.030498 1_555
F1 Rb5 2.764544 1_565
F1 Rb9 3.163100 1_565
F1 Rb6 3.290212 1_555
F1 Rb0 3.293235 1_555
F2 Zr6 1.986907 1_555
F2 Rb8 2.715049 1_555
F2 Rb7 2.824353 1_655
F3 Zr7 1.986907 1_555
F3 Rb9 2.715049 1_555
F3 Rb6 2.824353 1_555
F4 Zr6 2.017798 1_555
F4 Rb8 2.912150 1_545
F4 Rb3 3.073414 1_555
F4 Rb6 3.228459 1_545
F4 Rb7 3.283141 1_655
F5 Zr7 2.017798 1_555
F5 Rb9 2.912150 1_565
F5 Rb2 3.073414 1_555
F5 Rb7 3.228459 1_565
F5 Rb6 3.283141 1_555
F6 Zr4 2.003912 1_555
F6 Rb1 2.718555 1_655
F6 Rb4 2.864549 1_555
F6 Rb8 2.991275 1_555
F7 Zr5 2.003912 1_555
F7 Rb0 2.718555 1_555
F7 Rb5 2.864549 1_555
F7 Rb9 2.991275 1_555
F8 Zr6 2.023711 1_555
F8 Rb2 2.795246 1_545
F8 Rb6 2.810354 1_545
F8 Rb9 2.846074 1_555
F9 Zr7 2.023711 1_555
F9 Rb3 2.795246 1_465
F9 Rb7 2.810354 1_565
F9 Rb8 2.846074 1_455
F10 Zr0 2.004293 1_555
F10 Rb0 2.736070 1_555
F10 Rb6 2.794352 1_555
F10 Rb9 3.099364 1_555
F11 Zr1 2.004293 1_555
F11 Rb1 2.736070 1_555
F11 Rb7 2.794352 1_555
F11 Rb8 3.099364 1_455
F12 Zr4 2.123083 1_555
F12 Zr6 2.245761 1_555
F12 Rb6 3.045584 1_555
F13 Zr5 2.123083 1_555
F13 Zr7 2.245761 1_555
F13 Rb7 3.045584 1_555
F14 Zr0 1.994935 1_555
F14 Rb4 2.737269 1_554
F14 Rb0 2.996271 1_555
F15 Zr4 2.020271 1_555
F15 Rb0 2.837914 1_556
F15 Rb4 2.959083 1_555
F15 Rb2 2.975792 1_555
F16 Zr0 1.976807 1_555
F16 Rb6 2.844260 1_555
F16 Rb8 2.892273 1_555
F16 Rb3 3.025821 1_565
F17 Zr1 1.976807 1_555
F17 Rb7 2.844260 1_555
F17 Rb9 2.892273 1_555
F17 Rb2 3.025821 1_545
F18 Zr0 2.134574 1_555
F18 Zr5 2.231068 1_655
F18 Rb3 3.039314 1_555
F18 Rb7 3.170877 1_655
F19 Zr1 2.134574 1_555
F19 Zr4 2.231068 1_555
F19 Rb2 3.039314 1_555
F19 Rb6 3.170877 1_555
F20 Zr3 1.972385 1_555
F20 Rb1 2.839187 1_565
F20 Rb5 3.067873 1_566
F20 Rb3 3.321083 1_466
F21 Zr2 1.972385 1_555
F21 Rb0 2.839187 1_545
F21 Rb4 3.067873 1_544
F21 Rb2 3.321083 1_544
F22 Zr3 1.977790 1_545
F22 Rb7 2.859188 1_555
F22 Rb2 3.177479 1_545
F23 Zr2 1.977790 1_555
F23 Rb6 2.859188 1_545
F23 Rb3 3.177479 1_555
F24 Zr5 2.145785 1_555
F24 Zr0 2.188378 1_455
F24 Rb3 3.042810 1_465
F25 Zr4 2.145785 1_555
F25 Zr1 2.188378 1_555
F25 Rb2 3.042810 1_545
F26 Zr3 2.003595 1_555
F26 Rb5 2.760667 1_566
F26 Rb0 2.883525 1_556
F26 Rb2 2.949908 1_555
F27 Zr2 2.003595 1_555
F27 Rb4 2.760667 1_544
F27 Rb1 2.883525 1_654
F27 Rb3 2.949908 1_555
F28 Zr7 2.140858 1_555
F28 Zr5 2.249049 1_555
F28 Rb3 3.323352 1_465
F29 Zr6 2.140858 1_555
F29 Zr4 2.249049 1_555
F29 Rb2 3.323352 1_545
F30 Zr3 1.996006 1_555
F30 Rb4 2.849062 1_455
F30 Rb8 2.851301 1_455
F30 Rb1 3.098461 1_555
F31 Zr2 1.996006 1_555
F31 Rb5 2.849062 1_555
F31 Rb9 2.851301 1_555
F31 Rb0 3.098461 1_555
F32 Zr3 2.117762 1_555
F32 Zr1 2.127824 1_555
F32 Rb2 3.114402 1_555
F33 Zr2 2.117762 1_555
F33 Zr0 2.127824 1_555
F33 Rb3 3.114402 1_555
F34 Zr1 2.123038 1_555
F34 Zr7 2.135240 1_555
F35 Zr0 2.123038 1_555
F35 Zr6 2.135240 1_555
F36 Zr5 2.055475 1_555
F36 Rb7 2.768294 1_555
F36 Rb5 2.931534 1_555
F36 Rb3 3.146504 1_455
F36 Rb9 3.177420 1_555
F37 Zr4 2.055475 1_555
F37 Rb6 2.768294 1_555
F37 Rb4 2.931534 1_555
F37 Rb2 3.146504 1_555
F37 Rb8 3.177420 1_555
F38 Zr3 2.048090 1_554
F38 Zr5 2.215496 1_555
F39 Zr2 2.048090 1_556
F39 Zr4 2.215496 1_555
F40 Zr1 1.994935 1_555
F40 Rb5 2.737269 1_556
F40 Rb1 2.996271 1_555
F41 Zr5 2.020271 1_555
F41 Rb1 2.837914 1_554
F41 Rb5 2.959083 1_555
F41 Rb3 2.975792 1_455
