# generated using pymatgen
data_MgV2In2O8
_symmetry_space_group_name_H-M   'P 1'
_cell_length_a   5.19260114
_cell_length_b   5.15952040
_cell_length_c   6.36555421
_cell_angle_alpha   87.05012653
_cell_angle_beta   93.32824080
_cell_angle_gamma   104.27954207
_symmetry_Int_Tables_number   1
_chemical_formula_structural   MgV2In2O8
_chemical_formula_sum   'Mg1 V2 In2 O8'
_cell_volume   164.87219545
_cell_formula_units_Z   1
loop_
 _symmetry_equiv_pos_site_id
 _symmetry_equiv_pos_as_xyz
  1  'x, y, z'
loop_
 _atom_site_type_symbol
 _atom_site_label
 _atom_site_symmetry_multiplicity
 _atom_site_fract_x
 _atom_site_fract_y
 _atom_site_fract_z
 _atom_site_occupancy
  Mg  Mg0  1  0.32545155  0.57764745  0.64462528  1
  V  V0  1  0.00747261  0.25704304  0.15723178  1
  V  V1  1  0.98619817  0.77434816  0.88636529  1
  In  In0  1  0.62553844  0.17115346  0.62938516  1
  In  In1  1  0.49955824  0.74652923  0.16670255  1
  O  O0  1  0.75819426  0.01835218  0.92208028  1
  O  O1  1  0.21406666  0.50449513  0.93414248  1
  O  O2  1  0.19159266  0.99406094  0.11351925  1
  O  O3  1  0.80650355  0.53064337  0.10562799  1
  O  O4  1  0.74380268  0.05613105  0.35236226  1
  O  O5  1  0.26061172  0.44116102  0.36525469  1
  O  O6  1  0.23172097  0.92765343  0.68081670  1
  O  O7  1  0.71039949  0.57578153  0.67730329  1
loop_
_geom_bond_atom_site_label_1
_geom_bond_atom_site_label_2
_geom_bond_distance
_geom_bond_site_symmetry_2
Mg0 O5 1.927225 1_555
Mg0 O1 1.953939 1_555
Mg0 O7 1.999974 1_555
Mg0 O6 2.010103 1_555
In0 O7 2.059557 1_555
In0 O4 2.062072 1_555
In0 O0 2.129580 1_555
In0 O6 2.152993 1_545
In1 O4 2.139569 1_565
In1 O5 2.152219 1_555
In1 O3 2.219118 1_555
In1 O1 2.229534 1_554
In1 O2 2.281031 1_555
In1 O0 2.298739 1_564
O0 V1 1.958140 1_545
O0 V0 2.147359 1_656
O1 V0 2.027842 1_556
O1 V1 2.039211 1_455
O2 V0 1.882084 1_565
O2 V1 1.976510 1_454
O3 V1 1.947194 1_554
O3 V0 1.956738 1_655
O4 V0 1.963859 1_655
O5 V0 1.922251 1_555
O6 V1 1.884867 1_455
O7 V1 2.016639 1_555
