# generated using pymatgen
data_Na7MgTa3(SiO4)6
_symmetry_space_group_name_H-M   'P 1'
_cell_length_a   9.09829212
_cell_length_b   9.09829180
_cell_length_c   22.40981244
_cell_angle_alpha   90.00000000
_cell_angle_beta   90.00000000
_cell_angle_gamma   120.00000116
_symmetry_Int_Tables_number   1
_chemical_formula_structural   Na7MgTa3(SiO4)6
_chemical_formula_sum   'Na21 Mg3 Ta9 Si18 O72'
_cell_volume   1606.52906268
_cell_formula_units_Z   3
loop_
 _symmetry_equiv_pos_site_id
 _symmetry_equiv_pos_as_xyz
  1  'x, y, z'
loop_
 _atom_site_type_symbol
 _atom_site_label
 _atom_site_symmetry_multiplicity
 _atom_site_fract_x
 _atom_site_fract_y
 _atom_site_fract_z
 _atom_site_occupancy
  Na  Na0  1  0.64225213  0.02355664  0.24404974  1
  Na  Na1  1  0.38130451  0.35774787  0.24404974  1
  Na  Na2  1  0.97644336  0.61869549  0.24404974  1
  Na  Na3  1  0.63279645  0.61257288  0.74592121  1
  Na  Na4  1  0.97977643  0.36720355  0.74592121  1
  Na  Na5  1  0.38742712  0.02022357  0.74592121  1
  Na  Na6  1  0.31119533  0.33553488  0.58638295  1
  Na  Na7  1  0.02434056  0.68880467  0.58638295  1
  Na  Na8  1  0.66446512  0.97565944  0.58638295  1
  Na  Na9  1  0.31358084  0.97813922  0.08712020  1
  Na  Na10  1  0.66455938  0.68641916  0.08712020  1
  Na  Na11  1  0.02186078  0.33544062  0.08712020  1
  Na  Na12  1  0.96547763  0.28001883  0.40568246  1
  Na  Na13  1  0.31454020  0.03452237  0.40568246  1
  Na  Na14  1  0.71998117  0.68545980  0.40568246  1
  Na  Na15  1  -0.00000000  0.00000000  0.49090143  1
  Na  Na16  1  -0.00000000  -0.00000000  0.99804731  1
  Na  Na17  1  0.66666700  0.33333300  0.83129355  1
  Na  Na18  1  0.66666700  0.33333300  0.31931142  1
  Na  Na19  1  0.33333300  0.66666700  0.16601124  1
  Na  Na20  1  0.33333300  0.66666700  0.66874123  1
  Mg  Mg0  1  -0.00000000  0.00000000  0.35209614  1
  Mg  Mg1  1  0.66666700  0.33333300  0.68704987  1
  Mg  Mg2  1  0.66666700  0.33333300  0.18398521  1
  Ta  Ta0  1  -0.00000000  -0.00000000  0.85746876  1
  Ta  Ta1  1  -0.00000000  -0.00000000  0.64659396  1
  Ta  Ta2  1  -0.00000000  -0.00000000  0.14873439  1
  Ta  Ta3  1  0.66666700  0.33333300  0.97780189  1
  Ta  Ta4  1  0.66666700  0.33333300  0.47930171  1
  Ta  Ta5  1  0.33333300  0.66666700  0.01771762  1
  Ta  Ta6  1  0.33333300  0.66666700  0.51917628  1
  Ta  Ta7  1  0.33333300  0.66666700  0.31033544  1
  Ta  Ta8  1  0.33333300  0.66666700  0.81408079  1
  Si  Si0  1  0.29160831  0.00151340  0.25423290  1
  Si  Si1  1  0.70990509  0.70839169  0.25423290  1
  Si  Si2  1  0.99848660  0.29009491  0.25423290  1
  Si  Si3  1  0.28897730  0.29074361  0.75154331  1
  Si  Si4  1  0.00176632  0.71102270  0.75154331  1
  Si  Si5  1  0.70925639  0.99823368  0.75154331  1
  Si  Si6  1  0.95767220  0.33458887  0.58580491  1
  Si  Si7  1  0.37691767  0.04232780  0.58580491  1
  Si  Si8  1  0.66541113  0.62308233  0.58580491  1
  Si  Si9  1  0.95785222  0.62384295  0.08455107  1
  Si  Si10  1  0.66599172  0.04214778  0.08455107  1
  Si  Si11  1  0.37615705  0.33400828  0.08455107  1
  Si  Si12  1  0.62485075  0.66423413  0.91619728  1
  Si  Si13  1  0.03938238  0.37514925  0.91619728  1
  Si  Si14  1  0.33576587  0.96061762  0.91619728  1
  Si  Si15  1  0.62352784  0.95925813  0.41654833  1
  Si  Si16  1  0.33572930  0.37647216  0.41654833  1
  Si  Si17  1  0.04074187  0.66427070  0.41654833  1
  O  O0  1  0.20933767  0.02887157  0.31266223  1
  O  O1  1  0.81953390  0.79066233  0.31266223  1
  O  O2  1  0.97112843  0.18046610  0.31266223  1
  O  O3  1  0.18369762  0.16521786  0.80668068  1
  O  O4  1  0.98152023  0.81630238  0.80668068  1
  O  O5  1  0.83478214  0.01847977  0.80668068  1
  O  O6  1  0.80096469  0.96723357  0.69063838  1
  O  O7  1  0.16626887  0.19903531  0.69063838  1
  O  O8  1  0.03276643  0.83373113  0.69063838  1
  O  O9  1  0.80362678  0.83399485  0.19344383  1
  O  O10  1  0.03036807  0.19637322  0.19344383  1
  O  O11  1  0.16600515  0.96963193  0.19344383  1
  O  O12  1  0.88757443  0.37987262  0.64378721  1
  O  O13  1  0.49229919  0.11242557  0.64378721  1
  O  O14  1  0.62012738  0.50770081  0.64378721  1
  O  O15  1  0.89141302  0.51139053  0.14364770  1
  O  O16  1  0.61997851  0.10858698  0.14364770  1
  O  O17  1  0.48860947  0.38002149  0.14364770  1
  O  O18  1  0.47203940  0.30079408  0.02753629  1
  O  O19  1  0.82875567  0.52796060  0.02753629  1
  O  O20  1  0.69920592  0.17124433  0.02753629  1
  O  O21  1  0.46948261  0.16702038  0.52682365  1
  O  O22  1  0.69753877  0.53051739  0.52682365  1
  O  O23  1  0.83297962  0.30246123  0.52682365  1
  O  O24  1  0.52839935  0.68778132  0.97412403  1
  O  O25  1  0.15938097  0.47160065  0.97412403  1
  O  O26  1  0.31221868  0.84061903  0.97412403  1
  O  O27  1  0.52029951  0.84058724  0.47524958  1
  O  O28  1  0.32028672  0.47970049  0.47524958  1
  O  O29  1  0.15941276  0.67971328  0.47524958  1
  O  O30  1  0.13444851  0.63104973  0.35909685  1
  O  O31  1  0.49660022  0.86555149  0.35909685  1
  O  O32  1  0.36895027  0.50339978  0.35909685  1
  O  O33  1  0.13788761  0.49588204  0.85739523  1
  O  O34  1  0.35799343  0.86211239  0.85739523  1
  O  O35  1  0.50411796  0.64200657  0.85739523  1
  O  O36  1  0.02235197  0.82887894  0.41751591  1
  O  O37  1  0.80652698  0.97764803  0.41751591  1
  O  O38  1  0.17112106  0.19347302  0.41751591  1
  O  O39  1  0.02414520  0.18859183  0.91030706  1
  O  O40  1  0.16444664  0.97585480  0.91030706  1
  O  O41  1  0.81140817  0.83555336  0.91030706  1
  O  O42  1  0.97516091  0.16115195  0.58854427  1
  O  O43  1  0.18599104  0.02483909  0.58854427  1
  O  O44  1  0.83884805  0.81400896  0.58854427  1
  O  O45  1  0.97693875  0.81562377  0.08852567  1
  O  O46  1  0.83868503  0.02306125  0.08852567  1
  O  O47  1  0.18437623  0.16131497  0.08852567  1
  O  O48  1  0.69048769  0.16363005  0.74877133  1
  O  O49  1  0.47314336  0.30951231  0.74877133  1
  O  O50  1  0.83636995  0.52685664  0.74877133  1
  O  O51  1  0.67962182  0.51946288  0.24553654  1
  O  O52  1  0.83984206  0.32037818  0.24553654  1
  O  O53  1  0.48053712  0.16015794  0.24553654  1
  O  O54  1  0.63970816  0.49401335  0.92279511  1
  O  O55  1  0.85430618  0.36029184  0.92279511  1
  O  O56  1  0.50598665  0.14569382  0.92279511  1
  O  O57  1  0.63137419  0.14486760  0.42356552  1
  O  O58  1  0.51349441  0.36862581  0.42356552  1
  O  O59  1  0.85513240  0.48650559  0.42356552  1
  O  O60  1  0.34466687  0.49774115  0.07349416  1
  O  O61  1  0.15307328  0.65533313  0.07349416  1
  O  O62  1  0.50225885  0.84692672  0.07349416  1
  O  O63  1  0.34375569  0.84720794  0.57534067  1
  O  O64  1  0.50345125  0.65624431  0.57534067  1
  O  O65  1  0.15279206  0.49654875  0.57534067  1
  O  O66  1  0.29735354  0.81881029  0.25547679  1
  O  O67  1  0.52145574  0.70264646  0.25547679  1
  O  O68  1  0.18118971  0.47854426  0.25547679  1
  O  O69  1  0.29734978  0.47700292  0.75479054  1
  O  O70  1  0.17965214  0.70265022  0.75479054  1
  O  O71  1  0.52299708  0.82034786  0.75479054  1
loop_
_geom_bond_atom_site_label_1
_geom_bond_atom_site_label_2
_geom_bond_distance
_geom_bond_site_symmetry_2
Na0 O53 2.353550 1_555
Na0 O52 2.381412 1_555
Na0 O16 2.420498 1_555
Na0 O67 2.566984 1_545
Na0 O66 2.745387 1_545
Na1 O51 2.353557 1_555
Na1 O53 2.381419 1_555
Na1 O17 2.420501 1_555
Na1 O68 2.566993 1_555
Na1 O67 2.745388 1_555
Na2 O52 2.353558 1_555
Na2 O51 2.381410 1_555
Na2 O15 2.420500 1_555
Na2 O66 2.566986 1_655
Na2 O68 2.745380 1_655
Na3 O50 2.342493 1_555
Na3 O49 2.389918 1_555
Na3 O14 2.460151 1_555
Na3 O71 2.549424 1_555
Na3 O69 2.666660 1_555
Na3 O35 2.827803 1_555
Na4 O48 2.342486 1_555
Na4 O50 2.389910 1_555
Na4 O12 2.460147 1_555
Na4 O69 2.549416 1_655
Na4 O70 2.666659 1_655
Na4 O33 2.827800 1_655
Na5 O49 2.342484 1_555
Na5 O48 2.389918 1_555
Na5 O13 2.460149 1_555
Na5 O70 2.549417 1_545
Na5 O71 2.666652 1_545
Na5 O34 2.827798 1_545
Na6 O43 2.463872 1_555
Na6 O65 2.528964 1_555
Na6 O64 2.555605 1_555
Na6 O42 2.648810 1_455
Na6 O7 2.664948 1_555
Na6 O14 2.757909 1_555
Na6 O28 2.796655 1_555
Na6 O21 2.900720 1_555
Na7 O44 2.463880 1_455
Na7 O63 2.528948 1_555
Na7 O65 2.555591 1_555
Na7 O43 2.648810 1_565
Na7 O8 2.664950 1_555
Na7 O12 2.757909 1_455
Na7 O29 2.796647 1_555
Na7 O22 2.900720 1_455
Na8 O42 2.463873 1_565
Na8 O64 2.528948 1_555
Na8 O63 2.555607 1_555
Na8 O44 2.648802 1_555
Na8 O6 2.664946 1_555
Na8 O13 2.757909 1_565
Na8 O27 2.796652 1_555
Na8 O23 2.900720 1_565
Na9 O47 2.473771 1_565
Na9 O62 2.552382 1_555
Na9 O61 2.561780 1_555
Na9 O45 2.653234 1_455
Na9 O11 2.717001 1_555
Na9 O16 2.734226 1_565
Na9 O26 2.821755 1_554
Na9 O18 2.871752 1_565
Na10 O45 2.473762 1_555
Na10 O60 2.552397 1_555
Na10 O62 2.561795 1_555
Na10 O46 2.653234 1_565
Na10 O9 2.716999 1_555
Na10 O17 2.734226 1_555
Na10 O24 2.821763 1_554
Na10 O19 2.871752 1_555
Na11 O46 2.473763 1_455
Na11 O61 2.552398 1_555
Na11 O60 2.561780 1_555
Na11 O47 2.653226 1_555
Na11 O10 2.716997 1_555
Na11 O15 2.734226 1_455
Na11 O25 2.821759 1_554
Na11 O20 2.871752 1_455
Na12 O2 2.283643 1_555
Na12 O38 2.379973 1_655
Na12 O37 2.398240 1_545
Na12 O59 2.565942 1_555
Na12 O57 2.678619 1_555
Na12 O30 2.956959 1_655
Na12 O23 3.018437 1_555
Na13 O0 2.283640 1_555
Na13 O36 2.379966 1_545
Na13 O38 2.398232 1_555
Na13 O57 2.565959 1_555
Na13 O58 2.678621 1_555
Na13 O31 2.956960 1_545
Na13 O21 3.018442 1_555
Na14 O1 2.283641 1_555
Na14 O37 2.379964 1_555
Na14 O36 2.398240 1_655
Na14 O58 2.565956 1_555
Na14 O59 2.678635 1_555
Na14 O32 2.956960 1_555
Na14 O22 3.018445 1_555
Na15 O38 2.342330 1_555
Na15 O37 2.342330 1_445
Na15 O36 2.342330 1_545
Na15 O44 2.705591 1_445
Na15 O42 2.705591 1_455
Na15 O43 2.705591 1_555
Na16 O39 2.545902 1_555
Na16 O41 2.545902 1_445
Na16 O40 2.545902 1_545
Na16 O46 2.572404 1_456
Na16 O47 2.572404 1_556
Na16 O45 2.572404 1_446
Na17 O50 2.487066 1_555
Na17 O48 2.487066 1_555
Na17 O49 2.487066 1_555
Na17 O56 2.600120 1_555
Na17 O55 2.600120 1_555
Na17 O54 2.600120 1_555
Na18 O51 2.327112 1_555
Na18 O53 2.327112 1_555
Na18 O52 2.327112 1_555
Na18 O57 2.819772 1_555
Na18 O59 2.819772 1_555
Na18 O58 2.819772 1_555
Na19 O68 2.548740 1_555
Na19 O67 2.548740 1_555
Na19 O66 2.548740 1_555
Na19 O62 2.613394 1_555
Na19 O60 2.613394 1_555
Na19 O61 2.613394 1_555
Na20 O69 2.497705 1_555
Na20 O71 2.497705 1_555
Na20 O70 2.497705 1_555
Na20 O63 2.632951 1_555
Na20 O65 2.632951 1_555
Na20 O64 2.632951 1_555
Mg0 O1 1.994289 1_445
Mg0 O2 1.994289 1_455
Mg0 O0 1.994289 1_555
Mg0 O38 2.220638 1_555
Mg0 O37 2.220638 1_445
Mg0 O36 2.220638 1_545
Mg1 O13 2.075527 1_555
Mg1 O14 2.075527 1_555
Mg1 O12 2.075527 1_555
Mg1 O50 2.163032 1_555
Mg1 O48 2.163032 1_555
Mg1 O49 2.163032 1_555
Mg2 O16 2.076103 1_555
Mg2 O15 2.076103 1_555
Mg2 O17 2.076103 1_555
Mg2 O51 2.141197 1_555
Mg2 O53 2.141197 1_555
Mg2 O52 2.141197 1_555
O0 Si0 1.588415 1_555
O1 Si1 1.588415 1_555
O2 Si2 1.588415 1_555
O3 Si3 1.629304 1_555
O3 Ta0 1.958573 1_555
O4 Si4 1.629304 1_655
O4 Ta0 1.958573 1_665
O5 Si5 1.629304 1_545
O5 Ta0 1.958573 1_655
O6 Si5 1.695275 1_555
O6 Ta1 1.950008 1_665
O7 Si3 1.695275 1_555
O7 Ta1 1.950008 1_555
O8 Si4 1.695275 1_555
O8 Ta1 1.950008 1_565
O9 Si1 1.707154 1_555
O9 Ta2 1.943891 1_665
O10 Si2 1.707154 1_455
O10 Ta2 1.943891 1_555
O11 Si0 1.707154 1_565
O11 Ta2 1.943891 1_565
O12 Si6 1.589853 1_555
O13 Si7 1.589853 1_555
O14 Si8 1.589853 1_555
O15 Si9 1.596124 1_555
O16 Si10 1.596124 1_555
O17 Si11 1.596124 1_555
O18 Si11 1.657847 1_555
O18 Ta3 1.985261 1_554
O19 Si9 1.657847 1_555
O19 Ta3 1.985261 1_554
O20 Si10 1.657847 1_555
O20 Ta3 1.985261 1_554
O21 Si7 1.669712 1_555
O21 Ta4 1.981843 1_555
O22 Si8 1.669712 1_555
O22 Ta4 1.981843 1_555
O23 Si6 1.669712 1_555
O23 Ta4 1.981843 1_555
O24 Si12 1.639854 1_555
O24 Ta5 1.949399 1_556
O25 Si13 1.639854 1_555
O25 Ta5 1.949398 1_556
O26 Si14 1.639853 1_555
O26 Ta5 1.949399 1_556
O27 Si15 1.662617 1_555
O27 Ta6 1.916991 1_555
O28 Si16 1.662618 1_555
O28 Ta6 1.916991 1_555
O29 Si17 1.662617 1_555
O29 Ta6 1.916991 1_555
O30 Si17 1.653337 1_555
O30 Ta7 1.996753 1_555
O31 Si15 1.653337 1_555
O31 Ta7 1.996753 1_555
O32 Si16 1.653337 1_555
O32 Ta7 1.996753 1_555
O33 Si13 1.661872 1_555
O33 Ta8 1.937944 1_555
O34 Si14 1.661872 1_555
O34 Ta8 1.937944 1_555
O35 Si12 1.661872 1_555
O35 Ta8 1.937944 1_555
O36 Si17 1.588085 1_555
O37 Si15 1.588094 1_555
O38 Si16 1.588090 1_555
O39 Si13 1.637786 1_555
O39 Ta0 2.004393 1_555
O40 Si14 1.637777 1_555
O40 Ta0 2.004393 1_565
O41 Si12 1.637783 1_555
O41 Ta0 2.004393 1_665
O42 Si6 1.664389 1_555
O42 Ta1 2.055355 1_655
O43 Si7 1.664398 1_555
O43 Ta1 2.055355 1_555
O44 Si8 1.664394 1_555
O44 Ta1 2.055355 1_665
O45 Si9 1.667238 1_555
O45 Ta2 2.080050 1_665
O46 Si10 1.667229 1_555
O46 Ta2 2.080050 1_655
O47 Si11 1.667234 1_555
O47 Ta2 2.080050 1_555
O48 Si5 1.598275 1_545
O49 Si3 1.598284 1_555
O50 Si4 1.598281 1_655
O51 Si1 1.610901 1_555
O52 Si2 1.610892 1_555
O53 Si0 1.610898 1_555
O54 Si12 1.627272 1_555
O54 Ta3 2.018779 1_555
O55 Si13 1.627254 1_655
O55 Ta3 2.018779 1_555
O56 Si14 1.627262 1_545
O56 Ta3 2.018779 1_555
O57 Si15 1.661648 1_545
O57 Ta4 2.013167 1_555
O58 Si16 1.661666 1_555
O58 Ta4 2.013167 1_555
O59 Si17 1.661657 1_655
O59 Ta4 2.013167 1_555
O60 Si11 1.670169 1_555
O60 Ta5 2.023277 1_555
O61 Si9 1.670151 1_455
O61 Ta5 2.023277 1_555
O62 Si10 1.670158 1_565
O62 Ta5 2.023277 1_555
O63 Si7 1.661908 1_565
O63 Ta6 2.033609 1_555
O64 Si8 1.661926 1_555
O64 Ta6 2.033609 1_555
O65 Si6 1.661914 1_455
O65 Ta6 2.033609 1_555
O66 Si0 1.689259 1_565
O66 Ta7 1.996943 1_555
O67 Si1 1.689268 1_555
O67 Ta7 1.996943 1_555
O68 Si2 1.689264 1_455
O68 Ta7 1.996943 1_555
O69 Si3 1.659463 1_555
O69 Ta8 2.070121 1_555
O70 Si4 1.659454 1_555
O70 Ta8 2.070121 1_555
O71 Si5 1.659459 1_555
O71 Ta8 2.070121 1_555
