# generated using pymatgen
data_Cs3IO5
_symmetry_space_group_name_H-M   'P 1'
_cell_length_a   8.78496869
_cell_length_b   9.32867348
_cell_length_c   9.68225275
_cell_angle_alpha   90.00000000
_cell_angle_beta   90.00000000
_cell_angle_gamma   90.00000000
_symmetry_Int_Tables_number   1
_chemical_formula_structural   Cs3IO5
_chemical_formula_sum   'Cs12 I4 O20'
_cell_volume   793.48098859
_cell_formula_units_Z   4
loop_
 _symmetry_equiv_pos_site_id
 _symmetry_equiv_pos_as_xyz
  1  'x, y, z'
loop_
 _atom_site_type_symbol
 _atom_site_label
 _atom_site_symmetry_multiplicity
 _atom_site_fract_x
 _atom_site_fract_y
 _atom_site_fract_z
 _atom_site_occupancy
  Cs  Cs0  1  0.25000000  0.00000000  0.47858102  1
  Cs  Cs1  1  0.75000000  0.00000000  0.52141898  1
  Cs  Cs2  1  0.25000000  0.50000000  0.02141898  1
  Cs  Cs3  1  0.75000000  0.50000000  0.97858102  1
  Cs  Cs4  1  0.25000000  0.00000000  0.02145160  1
  Cs  Cs5  1  0.75000000  0.00000000  0.97854840  1
  Cs  Cs6  1  0.25000000  0.50000000  0.47854840  1
  Cs  Cs7  1  0.75000000  0.50000000  0.52145160  1
  Cs  Cs8  1  0.55119321  0.25000000  0.25000000  1
  Cs  Cs9  1  0.44880679  0.75000000  0.75000000  1
  Cs  Cs10  1  0.94880679  0.75000000  0.25000000  1
  Cs  Cs11  1  0.05119321  0.25000000  0.75000000  1
  I  I0  1  0.00870287  0.25000000  0.25000000  1
  I  I1  1  0.99129713  0.75000000  0.75000000  1
  I  I2  1  0.49129713  0.75000000  0.25000000  1
  I  I3  1  0.50870287  0.25000000  0.75000000  1
  O  O0  1  0.21674443  0.25000000  0.25000000  1
  O  O1  1  0.78325557  0.75000000  0.75000000  1
  O  O2  1  0.28325557  0.75000000  0.25000000  1
  O  O3  1  0.71674443  0.25000000  0.75000000  1
  O  O4  1  0.57981837  0.57164068  0.25007345  1
  O  O5  1  0.42018163  0.42835932  0.74992655  1
  O  O6  1  0.92018163  0.42835932  0.25007345  1
  O  O7  1  0.92018163  0.07164068  0.24992655  1
  O  O8  1  0.07981837  0.57164068  0.74992655  1
  O  O9  1  0.07981837  0.92835932  0.75007345  1
  O  O10  1  0.57981837  0.92835932  0.24992655  1
  O  O11  1  0.42018163  0.07164068  0.75007345  1
  O  O12  1  0.50116017  0.24992405  0.55797795  1
  O  O13  1  0.49883983  0.75007595  0.44202205  1
  O  O14  1  0.99883983  0.75007595  0.55797795  1
  O  O15  1  0.99883983  0.74992405  0.94202205  1
  O  O16  1  0.00116017  0.24992405  0.44202205  1
  O  O17  1  0.00116017  0.25007595  0.05797795  1
  O  O18  1  0.50116017  0.25007595  0.94202205  1
  O  O19  1  0.49883983  0.74992405  0.05797795  1
loop_
_geom_bond_atom_site_label_1
_geom_bond_atom_site_label_2
_geom_bond_distance
_geom_bond_site_symmetry_2
Cs0 O11 3.097036 1_555
Cs0 O9 3.097036 1_545
Cs0 O13 3.215559 1_545
Cs0 O16 3.215559 1_555
Cs0 O0 3.228393 1_555
Cs0 O2 3.228393 1_545
Cs0 O14 3.300761 1_445
Cs0 O12 3.300761 1_555
Cs1 O10 3.097036 1_545
Cs1 O7 3.097036 1_555
Cs1 O14 3.215559 1_545
Cs1 O12 3.215559 1_555
Cs1 O1 3.228393 1_545
Cs1 O3 3.228393 1_555
Cs1 O13 3.300761 1_545
Cs1 O16 3.300761 1_655
Cs2 O8 3.097036 1_554
Cs2 O5 3.097036 1_554
Cs2 O17 3.215559 1_555
Cs2 O19 3.215559 1_555
Cs2 O0 3.228393 1_555
Cs2 O2 3.228393 1_555
Cs2 O18 3.300761 1_554
Cs2 O15 3.300761 1_454
Cs3 O4 3.097036 1_556
Cs3 O6 3.097036 1_556
Cs3 O18 3.215559 1_555
Cs3 O15 3.215559 1_555
Cs3 O3 3.228393 1_555
Cs3 O1 3.228393 1_555
Cs3 O17 3.300761 1_656
Cs3 O19 3.300761 1_556
Cs4 O11 3.096097 1_554
Cs4 O9 3.096097 1_544
Cs4 O19 3.216551 1_545
Cs4 O17 3.216551 1_555
Cs4 O0 3.228177 1_555
Cs4 O2 3.228177 1_545
Cs4 O15 3.301835 1_444
Cs4 O18 3.301835 1_554
Cs5 O7 3.096097 1_556
Cs5 O10 3.096097 1_546
Cs5 O15 3.216551 1_545
Cs5 O18 3.216551 1_555
Cs5 O3 3.228177 1_555
Cs5 O1 3.228177 1_545
Cs5 O17 3.301835 1_656
Cs5 O19 3.301835 1_546
Cs6 O5 3.096097 1_555
Cs6 O8 3.096097 1_555
Cs6 O16 3.216551 1_555
Cs6 O13 3.216551 1_555
Cs6 O2 3.228177 1_555
Cs6 O0 3.228177 1_555
Cs6 O12 3.301835 1_555
Cs6 O14 3.301835 1_455
Cs7 O4 3.096097 1_555
Cs7 O6 3.096097 1_555
Cs7 O12 3.216551 1_555
Cs7 O14 3.216551 1_555
Cs7 O3 3.228177 1_555
Cs7 O1 3.228177 1_555
Cs7 O16 3.301835 1_655
Cs7 O13 3.301835 1_555
Cs8 O0 2.938122 1_555
Cs8 O10 3.011000 1_545
Cs8 O4 3.011000 1_555
Cs8 O18 3.014141 1_554
Cs8 O12 3.014141 1_555
Cs9 O1 2.938122 1_555
Cs9 O11 3.011000 1_565
Cs9 O5 3.011000 1_555
Cs9 O13 3.014141 1_555
Cs9 O19 3.014141 1_556
Cs10 O2 2.938122 1_655
Cs10 O6 3.011000 1_555
Cs10 O7 3.011000 1_565
Cs10 O15 3.014141 1_554
Cs10 O14 3.014141 1_555
Cs11 O3 2.938122 1_455
Cs11 O8 3.011000 1_555
Cs11 O9 3.011000 1_545
Cs11 O16 3.014141 1_555
Cs11 O17 3.014141 1_556
I0 O0 1.827639 1_555
I0 O6 1.836618 1_455
I0 O7 1.836618 1_455
I0 O16 1.860387 1_555
I0 O17 1.860387 1_555
I1 O1 1.827639 1_555
I1 O9 1.836618 1_655
I1 O8 1.836618 1_655
I1 O14 1.860387 1_555
I1 O15 1.860387 1_555
I2 O2 1.827639 1_555
I2 O10 1.836618 1_555
I2 O4 1.836618 1_555
I2 O19 1.860387 1_555
I2 O13 1.860387 1_555
I3 O3 1.827639 1_555
I3 O11 1.836618 1_555
I3 O5 1.836618 1_555
I3 O12 1.860387 1_555
I3 O18 1.860387 1_555
