# generated using pymatgen
data_Li3Cr(PO4)2
_symmetry_space_group_name_H-M   'P 1'
_cell_length_a   5.14530312
_cell_length_b   5.14530312
_cell_length_c   13.12562740
_cell_angle_alpha   83.03205517
_cell_angle_beta   83.03205517
_cell_angle_gamma   54.69989753
_symmetry_Int_Tables_number   1
_chemical_formula_structural   Li3Cr(PO4)2
_chemical_formula_sum   'Li6 Cr2 P4 O16'
_cell_volume   280.94143670
_cell_formula_units_Z   2
loop_
 _symmetry_equiv_pos_site_id
 _symmetry_equiv_pos_as_xyz
  1  'x, y, z'
loop_
 _atom_site_type_symbol
 _atom_site_label
 _atom_site_symmetry_multiplicity
 _atom_site_fract_x
 _atom_site_fract_y
 _atom_site_fract_z
 _atom_site_occupancy
  Li  Li0  1  0.62922000  0.70359600  0.35076500  1
  Li  Li1  1  0.05645100  0.94354900  0.75000000  1
  Li  Li2  1  0.94354900  0.05645100  0.25000000  1
  Li  Li3  1  0.70359600  0.62922000  0.85076500  1
  Li  Li4  1  0.29640400  0.37078000  0.14923500  1
  Li  Li5  1  0.37078000  0.29640400  0.64923500  1
  Cr  Cr0  1  0.00000000  0.00000000  0.00000000  1
  Cr  Cr1  1  0.00000000  0.00000000  0.50000000  1
  P  P0  1  0.68232500  0.63815900  0.61230600  1
  P  P1  1  0.31767500  0.36184100  0.38769400  1
  P  P2  1  0.63815900  0.68232500  0.11230600  1
  P  P3  1  0.36184100  0.31767500  0.88769400  1
  O  O0  1  0.50574400  0.81324900  0.71098100  1
  O  O1  1  0.73094500  0.17197900  0.87098400  1
  O  O2  1  0.26905500  0.82802100  0.12901600  1
  O  O3  1  0.77654700  0.45092400  0.02555500  1
  O  O4  1  0.82802100  0.26905500  0.62901600  1
  O  O5  1  0.45092400  0.77654700  0.52555500  1
  O  O6  1  0.17197900  0.73094500  0.37098400  1
  O  O7  1  0.03258400  0.33071400  0.41617000  1
  O  O8  1  0.81324900  0.50574400  0.21098100  1
  O  O9  1  0.33071400  0.03258400  0.91617000  1
  O  O10  1  0.66928600  0.96741600  0.08383000  1
  O  O11  1  0.49425600  0.18675100  0.28901900  1
  O  O12  1  0.96741600  0.66928600  0.58383000  1
  O  O13  1  0.18675100  0.49425600  0.78901900  1
  O  O14  1  0.54907600  0.22345300  0.47444500  1
  O  O15  1  0.22345300  0.54907600  0.97444500  1
loop_
_geom_bond_atom_site_label_1
_geom_bond_atom_site_label_2
_geom_bond_distance
_geom_bond_site_symmetry_2
Li0 O7 2.038653 1_655
Li0 O8 2.053502 1_555
Li0 O11 2.229733 1_565
Li0 O6 2.258345 1_555
Li0 O5 2.355056 1_555
Li1 O13 2.015140 1_555
Li1 O0 2.015140 1_555
Li1 O1 2.059300 1_465
Li1 O4 2.059300 1_465
Li2 O11 2.015140 1_555
Li2 O8 2.015140 1_555
Li2 O6 2.059300 1_645
Li2 O2 2.059300 1_645
Li3 O9 2.038653 1_565
Li3 O0 2.053502 1_555
Li3 O13 2.229733 1_655
Li3 O1 2.258345 1_555
Li3 O3 2.355056 1_556
Li4 O10 2.038653 1_545
Li4 O11 2.053502 1_555
Li4 O8 2.229733 1_455
Li4 O2 2.258345 1_555
Li4 O15 2.355056 1_554
Li5 O12 2.038653 1_455
Li5 O13 2.053502 1_555
Li5 O0 2.229733 1_545
Li5 O4 2.258345 1_555
Li5 O14 2.355056 1_555
Cr0 O3 1.956981 1_455
Cr0 O15 1.956981 1_544
Cr0 O9 1.991233 1_554
Cr0 O10 1.991233 1_445
Cr0 O2 2.087251 1_545
Cr0 O1 2.087251 1_454
Cr1 O5 1.956981 1_545
Cr1 O14 1.956981 1_455
Cr1 O7 1.991233 1_555
Cr1 O12 1.991233 1_445
Cr1 O4 2.087251 1_455
Cr1 O6 2.087251 1_545
O0 P0 1.538238 1_555
O1 P3 1.584390 1_555
O2 P2 1.584390 1_555
O3 P2 1.540641 1_555
O4 P0 1.584390 1_555
O5 P0 1.540641 1_555
O6 P1 1.584390 1_555
O7 P1 1.562387 1_555
O8 P2 1.538238 1_555
O9 P3 1.562387 1_555
O10 P2 1.562387 1_555
O11 P1 1.538238 1_555
O12 P0 1.562387 1_555
O13 P3 1.538238 1_555
O14 P1 1.540641 1_555
O15 P3 1.540641 1_555
