# generated using pymatgen
data_MgCo2(BiO3)4
_symmetry_space_group_name_H-M   'P 1'
_cell_length_a   5.16878021
_cell_length_b   5.02750135
_cell_length_c   9.92089100
_cell_angle_alpha   90.00001708
_cell_angle_beta   90.00003947
_cell_angle_gamma   90.56872577
_symmetry_Int_Tables_number   1
_chemical_formula_structural   MgCo2(BiO3)4
_chemical_formula_sum   'Mg1 Co2 Bi4 O12'
_cell_volume   257.79206389
_cell_formula_units_Z   1
loop_
 _symmetry_equiv_pos_site_id
 _symmetry_equiv_pos_as_xyz
  1  'x, y, z'
loop_
 _atom_site_type_symbol
 _atom_site_label
 _atom_site_symmetry_multiplicity
 _atom_site_fract_x
 _atom_site_fract_y
 _atom_site_fract_z
 _atom_site_occupancy
  Mg  Mg0  1  0.50000000  0.00000000  0.50344300  1
  Co  Co0  1  0.00000000  0.00000000  0.00404400  1
  Co  Co1  1  0.50000000  0.50000000  0.50394700  1
  Bi  Bi0  1  0.99999900  0.00000000  0.32655000  1
  Bi  Bi1  1  0.00000000  0.00000000  0.68130300  1
  Bi  Bi2  1  0.50000100  0.50000200  0.16987500  1
  Bi  Bi3  1  0.49999800  0.49999800  0.83798300  1
  O  O0  1  0.18046400  0.78500700  0.50395200  1
  O  O1  1  0.16918500  0.78843300  0.16333500  1
  O  O2  1  0.16899300  0.78969000  0.84504200  1
  O  O3  1  0.34716900  0.26464500  0.35445000  1
  O  O4  1  0.34661700  0.26285800  0.65267700  1
  O  O5  1  0.30491500  0.28135000  0.00447100  1
  O  O6  1  0.69508400  0.71865000  0.00447100  1
  O  O7  1  0.65283200  0.73535400  0.35445200  1
  O  O8  1  0.65338300  0.73714300  0.65267900  1
  O  O9  1  0.83081300  0.21156400  0.16333500  1
  O  O10  1  0.83101000  0.21031300  0.84504200  1
  O  O11  1  0.81953700  0.21499300  0.50395200  1
loop_
_geom_bond_atom_site_label_1
_geom_bond_atom_site_label_2
_geom_bond_distance
_geom_bond_site_symmetry_2
Mg0 O0 1.964867 1_545
Mg0 O11 1.964871 1_555
Mg0 O4 2.141899 1_555
Mg0 O8 2.141909 1_545
Mg0 O7 2.144760 1_545
Mg0 O3 2.144768 1_555
Co0 O2 2.094658 1_544
Co0 O10 2.094659 1_454
Co0 O9 2.100453 1_455
Co0 O1 2.100456 1_545
Co0 O5 2.107234 1_555
Co0 O6 2.107238 1_445
Co1 O7 2.050657 1_555
Co1 O3 2.050671 1_555
Co1 O4 2.051437 1_555
Co1 O8 2.051453 1_555
Co1 O0 2.197254 1_555
Co1 O11 2.197258 1_555
Bi0 O9 2.129894 1_555
Bi0 O1 2.129902 1_645
Bi0 O7 2.240415 1_545
Bi0 O3 2.240422 1_655
Bi0 O11 2.270665 1_555
Bi0 O0 2.270671 1_645
Bi1 O2 2.130273 1_545
Bi1 O10 2.130275 1_455
Bi1 O8 2.233791 1_445
Bi1 O4 2.233797 1_555
Bi1 O11 2.270275 1_455
Bi1 O0 2.270277 1_545
Bi2 O6 2.212655 1_555
Bi2 O5 2.212670 1_555
Bi2 O1 2.253885 1_555
Bi2 O9 2.253892 1_555
Bi2 O7 2.314882 1_555
Bi2 O3 2.314882 1_555
Bi3 O5 2.220642 1_556
Bi3 O6 2.220658 1_556
Bi3 O2 2.258916 1_555
Bi3 O10 2.258921 1_555
Bi3 O4 2.326126 1_555
Bi3 O8 2.326132 1_555
