# generated using pymatgen
data_Na5(W7O22)2
_symmetry_space_group_name_H-M   'P 1'
_cell_length_a   7.45016500
_cell_length_b   7.46503656
_cell_length_c   18.72063318
_cell_angle_alpha   96.30109466
_cell_angle_beta   90.43646883
_cell_angle_gamma   119.85030608
_symmetry_Int_Tables_number   1
_chemical_formula_structural   Na5(W7O22)2
_chemical_formula_sum   'Na5 W14 O44'
_cell_volume   895.23180051
_cell_formula_units_Z   1
loop_
 _symmetry_equiv_pos_site_id
 _symmetry_equiv_pos_as_xyz
  1  'x, y, z'
loop_
 _atom_site_type_symbol
 _atom_site_label
 _atom_site_symmetry_multiplicity
 _atom_site_fract_x
 _atom_site_fract_y
 _atom_site_fract_z
 _atom_site_occupancy
  Na  Na0  1  0.28856300  0.04846400  0.61157300  1
  Na  Na1  1  0.71143700  0.95153600  0.38842700  1
  Na  Na2  1  0.81040300  0.64825000  0.83550300  1
  Na  Na3  1  0.18959700  0.35175000  0.16449700  1
  Na  Na4  1  0.00000000  0.00000000  0.00000000  1
  W  W0  1  0.77521300  0.54778800  0.62238000  1
  W  W1  1  0.22664200  0.95966000  0.39983000  1
  W  W2  1  0.27193800  0.54165500  0.59804800  1
  W  W3  1  0.72806200  0.45834500  0.40195200  1
  W  W4  1  0.77335800  0.04034000  0.60017000  1
  W  W5  1  0.22478700  0.45221200  0.37762000  1
  W  W6  1  0.30851200  0.62559700  0.81501800  1
  W  W7  1  0.69148800  0.37440300  0.18498200  1
  W  W8  1  0.80896700  0.12688500  0.81769700  1
  W  W9  1  0.19103300  0.87311500  0.18230300  1
  W  W10  1  0.29834700  0.12507600  0.82007700  1
  W  W11  1  0.70165300  0.87492400  0.17992300  1
  W  W12  1  0.65577100  0.31278300  0.97215400  1
  W  W13  1  0.34422900  0.68721700  0.02784600  1
  O  O0  1  0.74529700  0.00658100  0.50593000  1
  O  O1  1  0.25470300  0.99341900  0.49407000  1
  O  O2  1  0.48434100  0.83342200  0.61343700  1
  O  O3  1  0.51565900  0.16657800  0.38656300  1
  O  O4  1  0.06365400  0.25794600  0.60901900  1
  O  O5  1  0.93634600  0.74205400  0.39098100  1
  O  O6  1  0.25533900  0.51008600  0.50102400  1
  O  O7  1  0.74466100  0.48991400  0.49897600  1
  O  O8  1  0.79591800  0.59159000  0.71667100  1
  O  O9  1  0.20408200  0.40841000  0.28332900  1
  O  O10  1  0.06068000  0.61972900  0.60871900  1
  O  O11  1  0.93932000  0.38027100  0.39128100  1
  O  O12  1  0.69586800  0.25544100  0.61477300  1
  O  O13  1  0.30413200  0.74455900  0.38522700  1
  O  O14  1  0.48335800  0.46600000  0.60890800  1
  O  O15  1  0.51664200  0.53400000  0.39109200  1
  O  O16  1  0.70996500  0.41771700  0.28265800  1
  O  O17  1  0.15092700  0.17027200  0.39205400  1
  O  O18  1  0.29003500  0.58228300  0.71734200  1
  O  O19  1  0.33408200  0.68285100  0.93110200  1
  O  O20  1  0.66591800  0.31714900  0.06889800  1
  O  O21  1  0.21666900  0.42444100  0.04756600  1
  O  O22  1  0.78333100  0.57555900  0.95243400  1
  O  O23  1  0.61998200  0.82511400  0.06087400  1
  O  O24  1  0.38001800  0.17488600  0.93912600  1
  O  O25  1  0.20547500  0.82088000  0.06489400  1
  O  O26  1  0.79452500  0.17912000  0.93510600  1
  O  O27  1  0.61265400  0.58103100  0.16705300  1
  O  O28  1  0.38734600  0.41896900  0.83294700  1
  O  O29  1  0.98190700  0.94657000  0.15261000  1
  O  O30  1  0.01809300  0.05343000  0.84739000  1
  O  O31  1  0.77034000  0.15883800  0.17327500  1
  O  O32  1  0.22966000  0.84116200  0.82672500  1
  O  O33  1  0.40181700  0.79074400  0.17838900  1
  O  O34  1  0.59818300  0.20925600  0.82161100  1
  O  O35  1  0.74978800  0.90994700  0.27353900  1
  O  O36  1  0.25021200  0.09005300  0.72646100  1
  O  O37  1  0.98008600  0.58517600  0.17248900  1
  O  O38  1  0.01991400  0.41482400  0.82751100  1
  O  O39  1  0.39676700  0.15778200  0.17347400  1
  O  O40  1  0.60323300  0.84221800  0.82652600  1
  O  O41  1  0.19102500  0.91679500  0.27892300  1
  O  O42  1  0.80897500  0.08320500  0.72107700  1
  O  O43  1  0.84907300  0.82972800  0.60794600  1
loop_
_geom_bond_atom_site_label_1
_geom_bond_atom_site_label_2
_geom_bond_distance
_geom_bond_site_symmetry_2
Na0 O36 2.180586 1_555
Na0 O1 2.182028 1_545
Na0 O12 2.628422 1_555
Na0 O2 2.654809 1_545
Na0 O14 2.712214 1_555
Na0 O10 2.771382 1_545
Na0 O4 2.806959 1_555
Na0 O43 2.835800 1_445
Na1 O35 2.180586 1_555
Na1 O0 2.182028 1_565
Na1 O13 2.628422 1_555
Na1 O3 2.654809 1_565
Na1 O15 2.712214 1_555
Na1 O11 2.771382 1_565
Na1 O5 2.806959 1_555
Na1 O17 2.835800 1_665
Na2 O8 2.209932 1_555
Na2 O22 2.299016 1_555
Na2 O30 2.603935 1_665
Na2 O40 2.604102 1_555
Na2 O32 2.727507 1_655
Na2 O28 2.734126 1_555
Na2 O34 2.820573 1_555
Na2 O38 2.854665 1_655
Na3 O9 2.209932 1_555
Na3 O21 2.299016 1_555
Na3 O29 2.603935 1_445
Na3 O39 2.604102 1_555
Na3 O31 2.727507 1_455
Na3 O27 2.734126 1_555
Na3 O33 2.820573 1_555
Na3 O37 2.854665 1_455
Na4 O22 2.775817 1_444
Na4 O21 2.775817 1_555
Na4 O24 2.777595 1_554
Na4 O23 2.777595 1_445
Na4 O25 2.823672 1_545
Na4 O26 2.823672 1_454
Na4 O29 2.922658 1_445
Na4 O30 2.922658 1_554
O0 W4 1.750449 1_555
O1 W1 1.750449 1_555
O2 W2 1.937862 1_555
O2 W4 1.966074 1_565
O3 W3 1.937862 1_555
O3 W1 1.966074 1_545
O4 W2 1.940200 1_555
O4 W4 1.944702 1_455
O5 W3 1.940200 1_555
O5 W1 1.944702 1_655
O6 W2 1.800991 1_555
O6 W5 2.291397 1_555
O7 W3 1.800991 1_555
O7 W0 2.291397 1_555
O8 W0 1.750869 1_555
O9 W5 1.750869 1_555
O10 W2 1.936277 1_555
O10 W0 1.943820 1_455
O11 W3 1.936277 1_555
O11 W5 1.943820 1_655
O12 W0 1.943905 1_555
O12 W4 1.953274 1_555
O13 W5 1.943905 1_555
O13 W1 1.953274 1_555
O14 W2 1.935755 1_555
O14 W0 1.949500 1_555
O15 W3 1.935755 1_555
O15 W5 1.949500 1_555
O16 W7 1.813613 1_555
O16 W3 2.214416 1_555
O17 W1 1.934717 1_545
O17 W5 1.944156 1_555
O18 W6 1.813613 1_555
O18 W2 2.214416 1_555
O19 W13 1.808147 1_556
O19 W6 2.156472 1_555
O20 W12 1.808147 1_554
O20 W7 2.156472 1_555
O21 W13 1.787727 1_555
O22 W12 1.787727 1_555
O23 W13 1.843435 1_555
O23 W11 2.246705 1_555
O24 W12 1.843435 1_555
O24 W10 2.246705 1_555
O25 W13 1.852312 1_555
O25 W9 2.202712 1_555
O26 W12 1.852312 1_555
O26 W8 2.202712 1_555
O27 W11 1.935050 1_555
O27 W7 1.961976 1_555
O28 W10 1.935050 1_555
O28 W6 1.961976 1_555
O29 W11 1.967644 1_555
O29 W9 1.985268 1_655
O30 W10 1.967644 1_555
O30 W8 1.985268 1_455
O31 W11 1.936115 1_545
O31 W7 1.961702 1_555
O32 W10 1.936115 1_565
O32 W6 1.961702 1_555
O33 W9 1.950044 1_555
O33 W11 1.995839 1_555
O34 W8 1.950044 1_555
O34 W10 1.995839 1_555
O35 W11 1.750687 1_555
O36 W10 1.750687 1_555
O37 W9 1.915728 1_655
O37 W7 1.968259 1_555
O38 W8 1.915728 1_455
O38 W6 1.968259 1_555
O39 W9 1.931585 1_545
O39 W7 1.965782 1_555
O40 W8 1.931585 1_565
O40 W6 1.965782 1_555
O41 W9 1.802385 1_555
O41 W1 2.245746 1_555
O42 W8 1.802385 1_555
O42 W4 2.245746 1_555
O43 W4 1.934717 1_565
O43 W0 1.944156 1_555
