# generated using pymatgen
data_Na6Zn4Si3Sn4(S3O16)3
_symmetry_space_group_name_H-M   'P 1'
_cell_length_a   17.81394929
_cell_length_b   8.87332560
_cell_length_c   22.74953606
_cell_angle_alpha   90.44175953
_cell_angle_beta   89.83415933
_cell_angle_gamma   120.06438390
_symmetry_Int_Tables_number   1
_chemical_formula_structural   Na6Zn4Si3Sn4(S3O16)3
_chemical_formula_sum   'Na18 Zn12 Si9 Sn12 S27 O144'
_cell_volume   3112.10685501
_cell_formula_units_Z   3
loop_
 _symmetry_equiv_pos_site_id
 _symmetry_equiv_pos_as_xyz
  1  'x, y, z'
loop_
 _atom_site_type_symbol
 _atom_site_label
 _atom_site_symmetry_multiplicity
 _atom_site_fract_x
 _atom_site_fract_y
 _atom_site_fract_z
 _atom_site_occupancy
  Na  Na0  1  0.00082053  0.63466386  0.25212861  1
  Na  Na1  1  0.49860193  0.61952784  0.24270444  1
  Na  Na2  1  0.00378680  0.37242945  0.74131089  1
  Na  Na3  1  0.50163454  0.37232002  0.75136708  1
  Na  Na4  1  0.67080809  0.31487499  0.90920076  1
  Na  Na5  1  0.16944225  0.02928262  0.41444219  1
  Na  Na6  1  0.99166943  0.01122181  0.50042299  1
  Na  Na7  1  0.50595383  0.01358355  0.50084888  1
  Na  Na8  1  0.00696602  0.99962297  0.99552960  1
  Na  Na9  1  0.49083991  0.96839406  0.99557137  1
  Na  Na10  1  0.30748662  0.30574234  0.83056497  1
  Na  Na11  1  0.83601121  0.35479140  0.83468448  1
  Na  Na12  1  0.33015431  0.31130074  0.33850060  1
  Na  Na13  1  0.82017733  0.32628953  0.33716774  1
  Na  Na14  1  0.17626557  0.65518412  0.16547251  1
  Na  Na15  1  0.66771871  0.66340317  0.16455947  1
  Na  Na16  1  0.16513226  0.65202601  0.67288265  1
  Na  Na17  1  0.67844653  0.70247580  0.66844524  1
  Zn  Zn0  1  0.99685246  0.00364121  0.34862331  1
  Zn  Zn1  1  0.49611318  0.98942283  0.84806412  1
  Zn  Zn2  1  0.31674031  0.32838866  0.68719984  1
  Zn  Zn3  1  0.83447554  0.30927612  0.67108639  1
  Zn  Zn4  1  0.33177313  0.35810816  0.16607289  1
  Zn  Zn5  1  0.83032418  0.32975856  0.17939264  1
  Zn  Zn6  1  0.83981203  0.35293048  0.98079945  1
  Zn  Zn7  1  0.33893736  0.32673393  0.48477905  1
  Zn  Zn8  1  0.17458448  0.67543484  0.32316682  1
  Zn  Zn9  1  0.67498143  0.65729142  0.32414079  1
  Zn  Zn10  1  0.17265117  0.67583096  0.81509766  1
  Zn  Zn11  1  0.67965821  0.68022147  0.81979083  1
  Si  Si0  1  0.14915276  0.30440395  0.75445170  1
  Si  Si1  1  0.98256056  0.33771012  0.58306930  1
  Si  Si2  1  0.68207349  0.02881868  0.58454792  1
  Si  Si3  1  0.48399732  0.62415330  0.08417116  1
  Si  Si4  1  0.18213309  0.33852927  0.08428894  1
  Si  Si5  1  0.81373831  0.66550965  0.91631023  1
  Si  Si6  1  0.17270489  0.95736330  0.91645265  1
  Si  Si7  1  0.31137882  0.96306880  0.41725780  1
  Si  Si8  1  0.67374004  0.37817155  0.41677208  1
  Sn  Sn0  1  0.50109266  0.01635178  0.35936900  1
  Sn  Sn1  1  0.00774742  0.99228646  0.85710005  1
  Sn  Sn2  1  0.00273731  0.02204704  0.64858001  1
  Sn  Sn3  1  0.50416335  0.99418339  0.64837753  1
  Sn  Sn4  1  0.00378988  0.01231345  0.14787267  1
  Sn  Sn5  1  0.49930543  0.99018509  0.14560494  1
  Sn  Sn6  1  0.32624727  0.33210175  0.98325873  1
  Sn  Sn7  1  0.82630580  0.32107251  0.48693910  1
  Sn  Sn8  1  0.16612600  0.66316473  0.01528818  1
  Sn  Sn9  1  0.66885878  0.67559550  0.01547915  1
  Sn  Sn10  1  0.16803847  0.66222197  0.51779001  1
  Sn  Sn11  1  0.66449315  0.66242573  0.51825680  1
  S  S0  1  0.14828871  -0.00073723  0.25176715  1
  S  S1  1  0.64715819  0.00060834  0.25174394  1
  S  S2  1  0.35477774  0.71096620  0.25256233  1
  S  S3  1  0.85388432  0.71029309  0.24715387  1
  S  S4  1  0.99904441  0.29997279  0.25166692  1
  S  S5  1  0.49902790  0.28990548  0.24794942  1
  S  S6  1  0.64832588  0.29780848  0.75226695  1
  S  S7  1  0.99399723  0.70373410  0.74626882  1
  S  S8  1  0.50317480  0.70292140  0.75158108  1
  S  S9  1  0.35736151  0.00115549  0.74685999  1
  S  S10  1  0.85237083  0.99755761  0.75199772  1
  S  S11  1  0.47956249  0.33158891  0.58782045  1
  S  S12  1  0.18404414  0.03509596  0.58222686  1
  S  S13  1  0.33442733  0.62539975  0.58287204  1
  S  S14  1  0.83549548  0.63264153  0.58589049  1
  S  S15  1  0.98085353  0.62917375  0.08780468  1
  S  S16  1  0.33472942  0.03968361  0.08544572  1
  S  S17  1  0.83298116  0.04144394  0.08482510  1
  S  S18  1  0.68524915  0.33336262  0.08437590  1
  S  S19  1  0.31944054  0.67176436  0.91546770  1
  S  S20  1  0.01526229  0.36593029  0.91506621  1
  S  S21  1  0.51676984  0.36794417  0.91454460  1
  S  S22  1  0.66347173  0.96386682  0.91535031  1
  S  S23  1  0.81679322  0.96463377  0.41444933  1
  S  S24  1  0.16383895  0.36477395  0.41419528  1
  S  S25  1  0.01635218  0.66512662  0.41378527  1
  S  S26  1  0.51853747  0.66520348  0.41203732  1
  O  O0  1  0.10631656  0.01747354  0.30598944  1
  O  O1  1  0.60400606  0.02554433  0.30421238  1
  O  O2  1  0.41479423  0.80682883  0.30288517  1
  O  O3  1  0.90953956  0.79255704  0.29900172  1
  O  O4  1  0.49178380  0.18585201  0.30116494  1
  O  O5  1  0.98759462  0.19161124  0.30303099  1
  O  O6  1  0.09939569  0.17605364  0.81017287  1
  O  O7  1  0.60649847  0.19617086  0.80630995  1
  O  O8  1  0.49153781  0.78791631  0.80350403  1
  O  O9  1  0.98198977  0.78453199  0.80071240  1
  O  O10  1  0.41278048  0.02856847  0.79872613  1
  O  O11  1  0.90696415  0.01123251  0.80284200  1
  O  O12  1  0.39964886  0.97335549  0.69218274  1
  O  O13  1  0.88921932  0.96858654  0.69563437  1
  O  O14  1  0.08679244  0.22520627  0.69397215  1
  O  O15  1  0.58791204  0.20628018  0.69976267  1
  O  O16  1  0.00140611  0.81106920  0.69319952  1
  O  O17  1  0.51502720  0.80700094  0.69624330  1
  O  O18  1  0.39389090  0.81489699  0.19681864  1
  O  O19  1  0.89717909  0.81720431  0.19253263  1
  O  O20  1  0.00999852  0.21916043  0.19591877  1
  O  O21  1  0.51078516  0.20338581  0.19388505  1
  O  O22  1  0.08721461  0.96829226  0.19943510  1
  O  O23  1  0.59082543  0.96935482  0.19765213  1
  O  O24  1  0.43973770  0.35158535  0.64177117  1
  O  O25  1  0.94916369  0.36797124  0.64532973  1
  O  O26  1  0.23673180  0.12141747  0.63398248  1
  O  O27  1  0.73475485  0.10422040  0.64416043  1
  O  O28  1  0.32909586  0.53075510  0.63642355  1
  O  O29  1  0.82268590  0.52727400  0.63739283  1
  O  O30  1  0.45096511  0.53085247  0.14740231  1
  O  O31  1  0.94372814  0.53492196  0.14382541  1
  O  O32  1  0.32506188  0.11937286  0.13925548  1
  O  O33  1  0.82454028  0.12036588  0.14011086  1
  O  O34  1  0.23363028  0.37413552  0.14535122  1
  O  O35  1  0.73467296  0.35056720  0.13816096  1
  O  O36  1  0.22255610  0.30036851  0.02575002  1
  O  O37  1  0.72162094  0.30436241  0.03047467  1
  O  O38  1  0.42064960  0.52467288  0.02872845  1
  O  O39  1  0.92861791  0.54082583  0.03655254  1
  O  O40  1  0.34658439  0.14167347  0.03192301  1
  O  O41  1  0.84257808  0.14252456  0.03222619  1
  O  O42  1  0.21903504  0.13245881  0.52698786  1
  O  O43  1  0.71947650  0.14174797  0.52446146  1
  O  O44  1  0.34354901  0.54479936  0.52851414  1
  O  O45  1  0.84794837  0.55698670  0.53036504  1
  O  O46  1  0.43112387  0.31527693  0.53406951  1
  O  O47  1  0.92282638  0.31430444  0.52512497  1
  O  O48  1  0.27930271  0.68855846  0.97198510  1
  O  O49  1  0.77326395  0.70482333  0.97780076  1
  O  O50  1  0.06965234  0.44719171  0.96990850  1
  O  O51  1  0.57615115  0.45422282  0.96694500  1
  O  O52  1  0.15813230  0.84933288  0.97898992  1
  O  O53  1  0.64570671  0.85530749  0.97033149  1
  O  O54  1  0.26763955  0.84010146  0.47581829  1
  O  O55  1  0.77415786  0.86248818  0.46856847  1
  O  O56  1  0.14760582  0.44155666  0.46841340  1
  O  O57  1  0.65517354  0.46445513  0.47557181  1
  O  O58  1  0.07620313  0.69682397  0.46467484  1
  O  O59  1  0.57424918  0.69352317  0.46469107  1
  O  O60  1  0.05150668  0.63693308  0.35827206  1
  O  O61  1  0.55858612  0.64690711  0.35719473  1
  O  O62  1  0.24838759  0.88866521  0.36049589  1
  O  O63  1  0.76459873  0.88827119  0.36087376  1
  O  O64  1  0.16990964  0.46271996  0.36099591  1
  O  O65  1  0.68649002  0.47649487  0.35572220  1
  O  O66  1  0.05552115  0.46632060  0.86223712  1
  O  O67  1  0.55307565  0.46771656  0.86038926  1
  O  O68  1  0.18209368  0.86515071  0.85913518  1
  O  O69  1  0.66920727  0.87412116  0.86295726  1
  O  O70  1  0.26747519  0.64812659  0.86396277  1
  O  O71  1  0.74442950  0.60614032  0.86317322  1
  O  O72  1  0.01035598  0.82675876  0.41068784  1
  O  O73  1  0.51130006  0.82701867  0.40994747  1
  O  O74  1  0.40573864  0.96922471  0.41366498  1
  O  O75  1  0.90307116  0.97788993  0.41094953  1
  O  O76  1  0.08765391  0.18230175  0.41141084  1
  O  O77  1  0.58803175  0.17869304  0.41606169  1
  O  O78  1  0.00605238  0.18917190  0.91353381  1
  O  O79  1  0.50983229  0.19377414  0.91135529  1
  O  O80  1  0.08719005  0.98279110  0.91705194  1
  O  O81  1  0.58844357  0.99569046  0.91212069  1
  O  O82  1  0.40665696  0.83065602  0.91293171  1
  O  O83  1  0.90752583  0.84512396  0.90965533  1
  O  O84  1  0.48809920  0.17028584  0.59043296  1
  O  O85  1  0.98804726  0.15600090  0.58322764  1
  O  O86  1  0.09309114  0.00579336  0.58805551  1
  O  O87  1  0.58301051  0.00331287  0.58665421  1
  O  O88  1  0.41175591  0.80803126  0.58645766  1
  O  O89  1  0.91489573  0.81048859  0.58981490  1
  O  O90  1  0.49279860  0.82177953  0.08558905  1
  O  O91  1  0.98715666  0.80603431  0.09054404  1
  O  O92  1  0.41548367  0.02163619  0.08784350  1
  O  O93  1  0.91029953  0.01520986  0.08912932  1
  O  O94  1  0.08290006  0.16387237  0.08703269  1
  O  O95  1  0.59388770  0.17764226  0.08966887  1
  O  O96  1  0.35508401  0.16483793  0.73979021  1
  O  O97  1  0.85062612  0.16236065  0.74916043  1
  O  O98  1  0.24222012  0.31626178  0.74911565  1
  O  O99  1  0.73373143  0.31695967  0.74445921  1
  O  O100  1  0.42676004  0.52667996  0.74507499  1
  O  O101  1  0.91664463  0.52802037  0.74310255  1
  O  O102  1  0.35153376  0.54178151  0.24931433  1
  O  O103  1  0.84730584  0.53650722  0.24044978  1
  O  O104  1  0.41943122  0.29993751  0.24538047  1
  O  O105  1  0.92102675  0.32028525  0.24606659  1
  O  O106  1  0.23365521  0.15237903  0.24384061  1
  O  O107  1  0.73258000  0.15743832  0.24502626  1
  O  O108  1  0.33157849  0.51533968  0.91960185  1
  O  O109  1  0.82310411  0.49312562  0.92412847  1
  O  O110  1  0.43085395  0.34989475  0.92503587  1
  O  O111  1  0.92840656  0.34549792  0.92265886  1
  O  O112  1  0.26227545  0.15191142  0.92233203  1
  O  O113  1  0.74347454  0.13454063  0.92213688  1
  O  O114  1  0.32254880  0.15585806  0.42509549  1
  O  O115  1  0.82892551  0.14423507  0.41938004  1
  O  O116  1  0.24350428  0.35366570  0.42044045  1
  O  O117  1  0.76226693  0.36587840  0.42469979  1
  O  O118  1  0.43167224  0.51360816  0.41914470  1
  O  O119  1  0.92994594  0.51120050  0.42327268  1
  O  O120  1  0.17129786  0.51289361  0.07588115  1
  O  O121  1  0.67647161  0.49185939  0.08080626  1
  O  O122  1  0.07029789  0.65586765  0.08348267  1
  O  O123  1  0.58236086  0.65086293  0.07543400  1
  O  O124  1  0.25903133  0.86025309  0.07997347  1
  O  O125  1  0.75329897  0.86318714  0.08196606  1
  O  O126  1  0.17612241  0.85850051  0.57870602  1
  O  O127  1  0.67101947  0.83161034  0.57627776  1
  O  O128  1  0.25457674  0.64304151  0.58063079  1
  O  O129  1  0.75879005  0.65906538  0.57943183  1
  O  O130  1  0.08137971  0.50808808  0.57472932  1
  O  O131  1  0.57010323  0.48721924  0.58380875  1
  O  O132  1  0.15049073  0.83392466  0.25228342  1
  O  O133  1  0.65183273  0.83966389  0.25612783  1
  O  O134  1  0.26925260  0.69356398  0.25801148  1
  O  O135  1  0.76834113  0.69671156  0.25011832  1
  O  O136  1  0.07753197  0.47536948  0.25526873  1
  O  O137  1  0.57655267  0.46586695  0.25092045  1
  O  O138  1  0.15348449  0.49226408  0.75911222  1
  O  O139  1  0.65025525  0.46762108  0.75311701  1
  O  O140  1  0.07337105  0.69202860  0.74869096  1
  O  O141  1  0.58234681  0.68715312  0.75522569  1
  O  O142  1  0.27155883  0.84823015  0.74895171  1
  O  O143  1  0.76375157  0.84590256  0.75537540  1
loop_
_geom_bond_atom_site_label_1
_geom_bond_atom_site_label_2
_geom_bond_distance
_geom_bond_site_symmetry_2
Na0 O132 2.347671 1_555
Na0 O136 2.409949 1_555
Na0 O105 2.417343 1_455
Na0 O103 2.433502 1_455
Na0 O60 2.576853 1_555
Na0 O31 2.639550 1_455
Na0 O3 2.827306 1_455
Na0 O22 2.837004 1_555
Na1 O30 2.314118 1_555
Na1 O102 2.355984 1_555
Na1 O137 2.392640 1_555
Na1 O133 2.452159 1_555
Na1 O104 2.455523 1_555
Na1 O61 2.780473 1_555
Na1 O23 2.883540 1_555
Na2 O138 2.358920 1_555
Na2 O25 2.385076 1_455
Na2 O97 2.420171 1_455
Na2 O140 2.465524 1_555
Na2 O101 2.542369 1_455
Na2 O14 2.637669 1_555
Na2 O66 2.884711 1_555
Na3 O96 2.335620 1_555
Na3 O139 2.341570 1_555
Na3 O100 2.347374 1_555
Na3 O141 2.419037 1_555
Na3 O67 2.628928 1_555
Na3 O24 2.696580 1_555
Na3 O15 2.853561 1_555
Na3 O10 2.858917 1_555
Na4 O109 2.382223 1_555
Na4 O81 2.453042 1_545
Na4 O71 2.476628 1_555
Na4 O79 2.508559 1_555
Na4 O113 2.531339 1_555
Na4 O7 2.582501 1_555
Na4 O51 2.854652 1_555
Na4 O37 2.922797 1_556
Na5 O114 2.385256 1_555
Na5 O76 2.440339 1_555
Na5 O72 2.482812 1_545
Na5 O116 2.496854 1_555
Na5 O62 2.601023 1_545
Na5 O0 2.693855 1_555
Na5 O42 2.709366 1_555
Na5 O58 2.810498 1_545
Na6 O85 2.290886 1_555
Na6 O75 2.502647 1_545
Na6 O76 2.599100 1_655
Na6 O89 2.603393 1_545
Na6 O86 2.711186 1_655
Na6 O72 2.729072 1_645
Na7 O87 2.417972 1_555
Na7 O77 2.426057 1_555
Na7 O74 2.565195 1_545
Na7 O84 2.565866 1_555
Na7 O88 2.627699 1_545
Na7 O73 2.670226 1_545
Na8 O80 2.333888 1_555
Na8 O94 2.506270 1_566
Na8 O83 2.525756 1_455
Na8 O78 2.526801 1_565
Na8 O91 2.681976 1_456
Na8 O93 2.780548 1_466
Na9 O82 2.328430 1_555
Na9 O90 2.444263 1_556
Na9 O81 2.500393 1_555
Na9 O92 2.652443 1_566
Na9 O79 2.676179 1_565
Na9 O95 2.818888 1_566
Na10 O98 2.217593 1_555
Na10 O112 2.408919 1_555
Na10 O108 2.625488 1_555
Na10 O96 2.749356 1_555
Na10 O100 2.828720 1_555
Na10 O110 2.958684 1_555
Na11 O109 2.437538 1_555
Na11 O101 2.566431 1_555
Na11 O111 2.622783 1_555
Na11 O99 2.653996 1_555
Na11 O97 2.675832 1_555
Na11 O113 2.703340 1_555
Na12 O114 2.377982 1_555
Na12 O116 2.559828 1_555
Na12 O118 2.564077 1_555
Na12 O106 2.669613 1_555
Na12 O104 2.676773 1_555
Na12 O102 2.779089 1_555
Na13 O117 2.343794 1_555
Na13 O115 2.536218 1_555
Na13 O107 2.588776 1_555
Na13 O119 2.666616 1_555
Na13 O105 2.756498 1_555
Na13 O103 2.776365 1_555
Na14 O120 2.367590 1_555
Na14 O124 2.572564 1_555
Na14 O134 2.595326 1_555
Na14 O136 2.651434 1_555
Na14 O122 2.659807 1_555
Na14 O132 2.702340 1_555
Na15 O121 2.482539 1_555
Na15 O123 2.506060 1_555
Na15 O125 2.514802 1_555
Na15 O135 2.563090 1_555
Na15 O137 2.598502 1_555
Na15 O133 2.693606 1_555
Na16 O138 2.376280 1_555
Na16 O142 2.507100 1_555
Na16 O140 2.515523 1_555
Na16 O130 2.628555 1_555
Na16 O128 2.656120 1_555
Na16 O126 2.771983 1_555
Na17 O143 2.425030 1_555
Na17 O127 2.432585 1_555
Na17 O141 2.568663 1_555
Na17 O129 2.611716 1_555
Na17 O139 2.704283 1_555
Na17 O131 2.711415 1_555
O0 S0 1.489763 1_555
O0 Zn0 2.123513 1_455
O1 S1 1.491867 1_555
O1 Sn0 2.186445 1_555
O2 S2 1.502693 1_555
O2 Sn0 2.140543 1_565
O3 S3 1.474930 1_555
O3 Zn0 2.064072 1_565
O4 S5 1.493891 1_555
O4 Sn0 2.079607 1_555
O5 S4 1.466627 1_555
O5 Zn0 2.046514 1_555
O6 Si0 1.641320 1_555
O6 Sn1 1.952812 1_545
O7 S6 1.489497 1_555
O7 Zn1 2.129825 1_545
O8 S8 1.465794 1_555
O8 Zn1 2.014410 1_555
O9 S7 1.494068 1_555
O9 Sn1 2.091391 1_655
O10 S9 1.479101 1_555
O10 Zn1 2.028907 1_545
O11 S10 1.478023 1_545
O11 Sn1 2.256897 1_645
O12 S9 1.533490 1_565
O12 Sn3 2.034936 1_555
O13 S10 1.516650 1_555
O13 Sn2 2.119997 1_665
O14 Si0 1.683067 1_555
O14 Sn2 1.958028 1_555
O15 S6 1.536641 1_555
O15 Sn3 2.072964 1_545
O16 S7 1.507635 1_455
O16 Sn2 2.126096 1_565
O17 S8 1.517682 1_555
O17 Sn3 2.081603 1_555
O18 S2 1.520935 1_555
O18 Sn5 2.095660 1_555
O19 S3 1.522632 1_555
O19 Sn4 2.087567 1_665
O20 S4 1.511774 1_455
O20 Sn4 2.083766 1_555
O21 S5 1.513625 1_555
O21 Sn5 2.099698 1_545
O22 S0 1.542546 1_565
O22 Sn4 2.082285 1_565
O23 S1 1.523573 1_565
O23 Sn5 2.100142 1_555
O24 S11 1.469322 1_555
O24 Zn2 2.334424 1_555
O25 Si1 1.606716 1_555
O25 Zn3 1.928804 1_555
O26 S12 1.458118 1_555
O26 Zn2 2.054994 1_555
O27 Si2 1.591158 1_555
O27 Zn3 1.895295 1_555
O28 S13 1.460713 1_555
O28 Zn2 2.059541 1_555
O29 S14 1.449337 1_555
O29 Zn3 2.191863 1_555
O30 Si3 1.620566 1_555
O30 Zn4 1.944773 1_555
O31 S15 1.489434 1_555
O31 Zn5 2.092454 1_555
O32 S16 1.461384 1_555
O32 Zn4 2.144937 1_555
O33 S17 1.478422 1_555
O33 Zn5 2.011102 1_555
O34 Si4 1.606642 1_555
O34 Zn4 1.885198 1_555
O35 S18 1.471161 1_555
O35 Zn5 2.035793 1_555
O36 Si4 1.624349 1_555
O36 Sn6 1.974437 1_554
O37 S18 1.465349 1_555
O37 Zn6 2.231670 1_554
O38 Si3 1.623737 1_555
O38 Sn6 1.980286 1_554
O39 S15 1.449550 1_555
O39 Zn6 2.056076 1_554
O40 S16 1.473162 1_555
O40 Sn6 2.203773 1_554
O41 S17 1.458519 1_555
O41 Zn6 2.232276 1_554
O42 S12 1.478770 1_555
O42 Zn7 2.186412 1_555
O43 Si2 1.632016 1_555
O43 Sn7 1.964613 1_555
O44 S13 1.472673 1_555
O44 Zn7 2.133609 1_555
O45 S14 1.493318 1_555
O45 Sn7 2.160646 1_555
O46 S11 1.462539 1_555
O46 Zn7 2.035745 1_555
O47 Si1 1.641823 1_555
O47 Sn7 1.956414 1_555
O48 S19 1.511645 1_555
O48 Sn8 2.150059 1_556
O49 Si5 1.684357 1_555
O49 Sn9 1.942167 1_556
O50 S20 1.519350 1_555
O50 Sn8 2.090873 1_556
O51 S21 1.519197 1_555
O51 Sn9 2.128802 1_556
O52 Si6 1.667304 1_555
O52 Sn8 1.920535 1_556
O53 S22 1.517697 1_555
O53 Sn9 2.110583 1_556
O54 Si7 1.654408 1_555
O54 Sn10 1.938706 1_555
O55 S23 1.495405 1_555
O55 Sn11 2.188377 1_555
O56 S24 1.500522 1_555
O56 Sn10 2.117202 1_555
O57 Si8 1.649328 1_555
O57 Sn11 1.933597 1_555
O58 S25 1.502604 1_555
O58 Sn10 2.179710 1_555
O59 S26 1.495092 1_555
O59 Sn11 2.146273 1_555
O60 S25 1.482295 1_555
O60 Zn8 2.192067 1_555
O61 S26 1.483145 1_555
O61 Zn9 2.161895 1_555
O62 Si7 1.617243 1_555
O62 Zn8 1.875868 1_555
O63 S23 1.473683 1_555
O63 Zn9 2.037298 1_555
O64 S24 1.467332 1_555
O64 Zn8 2.043847 1_555
O65 Si8 1.600000 1_555
O65 Zn9 1.865490 1_555
O66 S20 1.457287 1_555
O66 Zn10 2.256334 1_555
O67 S21 1.469158 1_555
O67 Zn11 2.290831 1_555
O68 Si6 1.586554 1_555
O68 Zn10 1.883060 1_555
O69 S22 1.459948 1_555
O69 Zn11 2.062301 1_555
O70 S19 1.442841 1_555
O70 Zn10 2.140263 1_555
O71 Si5 1.615656 1_555
O71 Zn11 1.874567 1_555
O72 S25 1.492797 1_555
O72 Zn0 2.220204 1_465
O73 S26 1.505683 1_555
O73 Sn0 2.125223 1_565
O74 Si7 1.656031 1_555
O74 Sn0 1.967250 1_565
O75 S23 1.483473 1_555
O75 Zn0 2.112438 1_565
O76 S24 1.504894 1_555
O76 Zn0 2.139881 1_455
O77 Si8 1.660231 1_555
O77 Sn0 1.970951 1_555
O78 S20 1.493146 1_555
O78 Sn1 2.172398 1_545
O79 S21 1.488611 1_555
O79 Zn1 2.222299 1_545
O80 Si6 1.648007 1_555
O80 Sn1 2.000607 1_555
O81 S22 1.500179 1_555
O81 Zn1 2.180122 1_555
O82 S19 1.486938 1_555
O82 Zn1 2.114459 1_555
O83 Si5 1.639720 1_555
O83 Sn1 1.999485 1_655
O84 S11 1.514830 1_555
O84 Sn3 2.177917 1_545
O85 Si1 1.663514 1_555
O85 Sn2 2.008190 1_655
O86 S12 1.512458 1_555
O86 Sn2 2.173486 1_555
O87 Si2 1.663492 1_555
O87 Sn3 1.956387 1_545
O88 S13 1.514045 1_555
O88 Sn3 2.162326 1_555
O89 S14 1.503689 1_555
O89 Sn2 2.188617 1_665
O90 Si3 1.680602 1_555
O90 Sn5 1.976478 1_555
O91 S15 1.517004 1_555
O91 Sn4 2.135662 1_665
O92 S16 1.526257 1_555
O92 Sn5 2.113948 1_545
O93 S17 1.511038 1_555
O93 Sn4 2.148615 1_655
O94 Si4 1.669290 1_555
O94 Sn4 1.956727 1_555
O95 S18 1.523407 1_555
O95 Sn5 2.106449 1_545
O96 S9 1.483133 1_555
O96 Zn2 2.242487 1_555
O97 S10 1.480070 1_545
O97 Zn3 2.313305 1_555
O98 Si0 1.612043 1_555
O98 Zn2 1.899013 1_555
O99 S6 1.454295 1_555
O99 Zn3 2.472880 1_555
O100 S8 1.478240 1_555
O100 Zn2 2.279168 1_555
O101 S7 1.476871 1_555
O101 Zn3 2.390051 1_555
O102 S2 1.474410 1_555
O102 Zn4 2.397435 1_555
O103 S3 1.493436 1_555
O103 Zn5 2.189418 1_555
O104 S5 1.465911 1_555
O104 Zn4 2.607346 1_555
O105 S4 1.494200 1_555
O105 Zn5 2.251823 1_555
O106 S0 1.457076 1_555
O106 Zn4 2.520407 1_555
O107 S1 1.468229 1_555
O107 Zn5 2.225273 1_555
O108 S19 1.511621 1_555
O108 Sn6 2.151893 1_555
O109 Si5 1.630728 1_555
O109 Zn6 1.922545 1_555
O110 S21 1.475779 1_555
O110 Sn6 2.223954 1_555
O111 S20 1.474632 1_655
O111 Zn6 2.082172 1_555
O112 Si6 1.667861 1_545
O112 Sn6 1.981313 1_555
O113 S22 1.477705 1_545
O113 Zn6 2.263339 1_555
O114 Si7 1.628577 1_545
O114 Zn7 1.937727 1_555
O115 S23 1.500444 1_545
O115 Sn7 2.205064 1_555
O116 S24 1.478322 1_555
O116 Zn7 2.348710 1_555
O117 Si8 1.644902 1_555
O117 Sn7 1.984122 1_555
O118 S26 1.465065 1_555
O118 Zn7 2.233250 1_555
O119 S25 1.475645 1_655
O119 Sn7 2.292164 1_555
O120 Si4 1.664824 1_555
O120 Sn8 1.959280 1_555
O121 S18 1.493706 1_555
O121 Sn9 2.268296 1_555
O122 S15 1.491935 1_455
O122 Sn8 2.280481 1_555
O123 Si3 1.657905 1_555
O123 Sn9 1.984041 1_555
O124 S16 1.488485 1_565
O124 Sn8 2.244417 1_555
O125 S17 1.506764 1_565
O125 Sn9 2.187885 1_555
O126 S12 1.502782 1_565
O126 Sn10 2.164988 1_555
O127 Si2 1.669188 1_565
O127 Sn11 1.950625 1_555
O128 S13 1.508022 1_555
O128 Sn10 2.174535 1_555
O129 S14 1.505452 1_555
O129 Sn11 2.196318 1_555
O130 Si1 1.660249 1_455
O130 Sn10 1.957518 1_555
O131 S11 1.512022 1_555
O131 Sn11 2.206860 1_555
O132 S0 1.487275 1_565
O132 Zn8 2.325103 1_555
O133 S1 1.475732 1_565
O133 Zn9 2.427700 1_555
O134 S2 1.457351 1_555
O134 Zn8 2.187312 1_555
O135 S3 1.468589 1_555
O135 Zn9 2.265845 1_555
O136 S4 1.483997 1_455
O136 Zn8 2.329055 1_555
O137 S5 1.479218 1_555
O137 Zn9 2.392368 1_555
O138 Si0 1.632281 1_555
O138 Zn10 1.950690 1_555
O139 S6 1.489857 1_555
O139 Zn11 2.259260 1_555
O140 S7 1.469966 1_455
O140 Zn10 2.388364 1_555
O141 S8 1.488005 1_555
O141 Zn11 2.299831 1_555
O142 S9 1.449935 1_565
O142 Zn10 2.242439 1_555
O143 S10 1.476928 1_555
O143 Zn11 2.089686 1_555
