# generated using pymatgen
data_Na7ZnIn3Si3(SO8)3
_symmetry_space_group_name_H-M   'P 1'
_cell_length_a   9.25342086
_cell_length_b   9.19935149
_cell_length_c   22.47022025
_cell_angle_alpha   90.30180079
_cell_angle_beta   90.02894014
_cell_angle_gamma   119.53005394
_symmetry_Int_Tables_number   1
_chemical_formula_structural   Na7ZnIn3Si3(SO8)3
_chemical_formula_sum   'Na21 Zn3 In9 Si9 S9 O72'
_cell_volume   1664.27804624
_cell_formula_units_Z   3
loop_
 _symmetry_equiv_pos_site_id
 _symmetry_equiv_pos_as_xyz
  1  'x, y, z'
loop_
 _atom_site_type_symbol
 _atom_site_label
 _atom_site_symmetry_multiplicity
 _atom_site_fract_x
 _atom_site_fract_y
 _atom_site_fract_z
 _atom_site_occupancy
  Na  Na0  1  0.63763868  0.99993718  0.23908853  1
  Na  Na1  1  0.38734795  0.37507865  0.23702796  1
  Na  Na2  1  0.97793174  0.62743326  0.25521988  1
  Na  Na3  1  0.62596428  0.62839057  0.73597583  1
  Na  Na4  1  0.99174586  0.34640809  0.74663113  1
  Na  Na5  1  0.38875350  0.02167292  0.75777624  1
  Na  Na6  1  0.01706146  0.69509668  0.57380098  1
  Na  Na7  1  0.66947654  0.95488548  0.58524887  1
  Na  Na8  1  0.31685211  0.98427344  0.07954772  1
  Na  Na9  1  0.65357690  0.69573396  0.09517194  1
  Na  Na10  1  0.68930312  0.03565795  0.91709923  1
  Na  Na11  1  0.33383166  0.28605730  0.91853354  1
  Na  Na12  1  0.96241363  0.30020865  0.40831077  1
  Na  Na13  1  0.33198196  0.01888916  0.41257676  1
  Na  Na14  1  0.72300376  0.68467565  0.41718512  1
  Na  Na15  1  0.98512505  0.98372157  0.49485076  1
  Na  Na16  1  0.01256765  0.01367538  0.00582560  1
  Na  Na17  1  0.65110718  0.31611584  0.82854181  1
  Na  Na18  1  0.68135932  0.34918906  0.32954708  1
  Na  Na19  1  0.34609716  0.65717500  0.16164587  1
  Na  Na20  1  0.35576300  0.64670569  0.66732555  1
  Zn  Zn0  1  0.96857459  0.96235161  0.35358682  1
  Zn  Zn1  1  0.64160673  0.33129840  0.68538523  1
  Zn  Zn2  1  0.65191538  0.33833616  0.17130248  1
  In  In0  1  0.00787384  0.00616011  0.84789510  1
  In  In1  1  0.99557656  0.00314149  0.65284181  1
  In  In2  1  0.98711839  0.00520425  0.14892594  1
  In  In3  1  0.64848151  0.31362250  0.98922222  1
  In  In4  1  0.67642555  0.34728792  0.48382378  1
  In  In5  1  0.33361279  0.67637610  0.01935400  1
  In  In6  1  0.35041013  0.67141392  0.51501134  1
  In  In7  1  0.34892535  0.68195544  0.31999431  1
  In  In8  1  0.34138839  0.67348999  0.81656670  1
  Si  Si0  1  0.69655669  0.69012803  0.25033778  1
  Si  Si1  1  0.29820660  0.30100476  0.75251960  1
  Si  Si2  1  0.69942086  0.00314368  0.74976658  1
  Si  Si3  1  0.66987381  0.63518577  0.58601123  1
  Si  Si4  1  0.66882641  0.03755383  0.08468894  1
  Si  Si5  1  0.35584534  0.33381420  0.08309399  1
  Si  Si6  1  0.32632464  0.96545466  0.91694809  1
  Si  Si7  1  0.64150230  0.97822904  0.41810943  1
  Si  Si8  1  0.04309922  0.66763480  0.41752207  1
  S  S0  1  0.28930487  0.99763336  0.25203962  1
  S  S1  1  0.00892715  0.30276927  0.25521100  1
  S  S2  1  0.00016635  0.69873798  0.74845412  1
  S  S3  1  0.96867829  0.33532701  0.58407598  1
  S  S4  1  0.36620439  0.03406955  0.58408235  1
  S  S5  1  0.95866389  0.62432517  0.08521798  1
  S  S6  1  0.63814871  0.66466552  0.91714911  1
  S  S7  1  0.03297502  0.37313704  0.91572711  1
  S  S8  1  0.33019763  0.36333172  0.41493205  1
  O  O0  1  0.20808115  0.01442586  0.30586150  1
  O  O1  1  0.80542926  0.76549021  0.31122362  1
  O  O2  1  0.99798675  0.20713135  0.30905061  1
  O  O3  1  0.22804667  0.19115157  0.81319838  1
  O  O4  1  0.97238581  0.78148337  0.80035326  1
  O  O5  1  0.81314745  0.02863422  0.80995035  1
  O  O6  1  0.77368678  0.95801725  0.69064151  1
  O  O7  1  0.17266227  0.20972202  0.69648074  1
  O  O8  1  0.02935684  0.79936049  0.69348133  1
  O  O9  1  0.78120358  0.81437432  0.19301358  1
  O  O10  1  0.03664099  0.22420097  0.20134248  1
  O  O11  1  0.19372104  0.98545239  0.19712994  1
  O  O12  1  0.88397188  0.34902866  0.63731014  1
  O  O13  1  0.46775092  0.11663782  0.63725183  1
  O  O14  1  0.65991195  0.53001291  0.64485051  1
  O  O15  1  0.88424041  0.53526380  0.14074244  1
  O  O16  1  0.65531760  0.13803053  0.14340129  1
  O  O17  1  0.47698361  0.37843796  0.14123478  1
  O  O18  1  0.43570886  0.30406025  0.02187511  1
  O  O19  1  0.85477840  0.54042124  0.03225967  1
  O  O20  1  0.69493302  0.13433843  0.02138204  1
  O  O21  1  0.44414171  0.12589870  0.52864755  1
  O  O22  1  0.69632403  0.55601236  0.52375566  1
  O  O23  1  0.86838479  0.31245496  0.52898824  1
  O  O24  1  0.55444396  0.68716705  0.96993975  1
  O  O25  1  0.14458552  0.46036812  0.96642762  1
  O  O26  1  0.31197155  0.86197809  0.97751000  1
  O  O27  1  0.56548484  0.85460768  0.47554631  1
  O  O28  1  0.30169144  0.44239584  0.46776581  1
  O  O29  1  0.15095351  0.68453434  0.47818523  1
  O  O30  1  0.12564631  0.62977834  0.35892709  1
  O  O31  1  0.52622726  0.90335486  0.35795251  1
  O  O32  1  0.36182609  0.46738117  0.36090937  1
  O  O33  1  0.10938125  0.45749625  0.85881409  1
  O  O34  1  0.35446195  0.87935018  0.85730286  1
  O  O35  1  0.53305041  0.63096562  0.86268268  1
  O  O36  1  0.03493893  0.84230588  0.41555178  1
  O  O37  1  0.83195554  0.00982516  0.41257273  1
  O  O38  1  0.18343004  0.19605909  0.40854249  1
  O  O39  1  0.01104961  0.19950327  0.91642989  1
  O  O40  1  0.16264783  0.99281953  0.91545980  1
  O  O41  1  0.79890100  0.82269227  0.91160603  1
  O  O42  1  0.98796141  0.18312173  0.58457501  1
  O  O43  1  0.19475221  0.01107750  0.58716651  1
  O  O44  1  0.84337820  0.82445939  0.58580096  1
  O  O45  1  0.97851345  0.79668911  0.08636547  1
  O  O46  1  0.81761118  0.98851063  0.08461025  1
  O  O47  1  0.18334636  0.15316031  0.09042895  1
  O  O48  1  0.68810677  0.17601390  0.74365709  1
  O  O49  1  0.48680753  0.32933898  0.74790094  1
  O  O50  1  0.85448288  0.52996663  0.74405335  1
  O  O51  1  0.67980878  0.50343032  0.24239621  1
  O  O52  1  0.85508714  0.31526191  0.25040298  1
  O  O53  1  0.46086227  0.14218684  0.24950939  1
  O  O54  1  0.66269176  0.51822408  0.92318501  1
  O  O55  1  0.86732812  0.35970357  0.92019922  1
  O  O56  1  0.50012278  0.15278830  0.91682713  1
  O  O57  1  0.64448388  0.15844995  0.42541921  1
  O  O58  1  0.48148706  0.34530259  0.42141412  1
  O  O59  1  0.85209296  0.50608802  0.41799801  1
  O  O60  1  0.33945612  0.50312031  0.07663394  1
  O  O61  1  0.12847009  0.64485999  0.08100029  1
  O  O62  1  0.49035225  0.85527412  0.08531614  1
  O  O63  1  0.34916759  0.86252027  0.58260183  1
  O  O64  1  0.50513508  0.66185745  0.58295309  1
  O  O65  1  0.13333077  0.49099837  0.58020957  1
  O  O66  1  0.29830829  0.83736842  0.25169084  1
  O  O67  1  0.50714147  0.67322642  0.25311442  1
  O  O68  1  0.15718153  0.47588659  0.25576213  1
  O  O69  1  0.30727721  0.48584860  0.75548894  1
  O  O70  1  0.15187522  0.68260220  0.75487290  1
  O  O71  1  0.51083590  0.83894139  0.75283253  1
loop_
_geom_bond_atom_site_label_1
_geom_bond_atom_site_label_2
_geom_bond_distance
_geom_bond_site_symmetry_2
Na0 O16 2.467358 1_565
Na0 O53 2.559365 1_565
Na0 O52 2.601141 1_565
Na0 O67 2.650174 1_555
Na0 O66 2.748182 1_555
Na0 O9 2.822940 1_555
Na0 O31 2.847947 1_555
Na1 O17 2.302040 1_555
Na1 O51 2.362379 1_555
Na1 O67 2.423693 1_555
Na1 O53 2.564045 1_555
Na1 O68 2.741748 1_555
Na1 O10 2.940494 1_555
Na1 O32 2.949388 1_555
Na2 O51 2.426549 1_555
Na2 O52 2.515871 1_555
Na2 O66 2.623508 1_655
Na2 O68 2.640944 1_655
Na2 O30 2.695622 1_655
Na2 O15 2.708800 1_555
Na2 O1 2.779960 1_555
Na3 O14 2.317711 1_555
Na3 O49 2.411310 1_555
Na3 O69 2.608355 1_555
Na3 O71 2.656477 1_555
Na3 O50 2.685684 1_555
Na3 O6 2.837130 1_555
Na3 O35 2.977879 1_555
Na4 O48 2.452175 1_555
Na4 O69 2.552395 1_655
Na4 O50 2.565793 1_555
Na4 O12 2.655414 1_555
Na4 O70 2.696541 1_655
Na4 O33 2.730767 1_655
Na4 O7 2.777704 1_655
Na4 O5 2.930041 1_555
Na5 O48 2.432767 1_555
Na5 O71 2.446311 1_545
Na5 O49 2.521624 1_555
Na5 O34 2.537388 1_545
Na5 O70 2.792196 1_545
Na5 O13 2.833614 1_555
Na5 O3 2.908609 1_555
Na6 O44 2.440152 1_455
Na6 O29 2.505934 1_555
Na6 O43 2.553855 1_565
Na6 O65 2.587960 1_555
Na6 O63 2.680623 1_555
Na6 O22 2.819278 1_455
Na6 O8 2.833709 1_555
Na7 O64 2.353582 1_555
Na7 O44 2.435700 1_555
Na7 O6 2.551205 1_555
Na7 O27 2.636663 1_555
Na7 O42 2.644739 1_565
Na7 O63 2.650892 1_555
Na8 O62 2.425309 1_555
Na8 O47 2.426543 1_565
Na8 O26 2.539166 1_554
Na8 O61 2.724845 1_555
Na8 O45 2.735094 1_455
Na8 O11 2.879916 1_555
Na8 O18 2.897509 1_565
Na9 O46 2.364650 1_555
Na9 O9 2.474050 1_555
Na9 O62 2.583141 1_555
Na9 O60 2.583794 1_555
Na9 O45 2.681831 1_555
Na9 O17 2.755599 1_555
Na9 O24 2.947888 1_554
Na10 O56 2.466789 1_555
Na10 O20 2.499703 1_556
Na10 O39 2.590907 1_655
Na10 O55 2.600363 1_555
Na10 O41 2.614988 1_545
Na10 O5 2.681122 1_555
Na11 O40 2.361494 1_545
Na11 O56 2.394057 1_555
Na11 O18 2.479547 1_556
Na11 O3 2.540889 1_555
Na11 O39 2.685614 1_555
Na11 O54 2.724583 1_555
Na12 O37 2.329475 1_555
Na12 O2 2.464682 1_555
Na12 O59 2.564831 1_555
Na12 O57 2.593827 1_555
Na12 O38 2.651847 1_655
Na12 O23 2.866807 1_555
Na12 O30 2.868398 1_655
Na13 O36 2.407967 1_545
Na13 O57 2.535573 1_555
Na13 O38 2.600793 1_555
Na13 O58 2.620785 1_555
Na13 O0 2.648762 1_555
Na13 O31 2.781838 1_545
Na13 O21 2.794939 1_555
Na14 O59 2.461930 1_555
Na14 O1 2.503003 1_555
Na14 O36 2.512058 1_655
Na14 O22 2.634146 1_555
Na14 O37 2.646681 1_565
Na14 O58 2.806424 1_555
Na14 O27 2.917976 1_555
Na15 O36 2.376442 1_655
Na15 O37 2.412912 1_565
Na15 O44 2.486656 1_555
Na15 O42 2.709948 1_565
Na15 O38 2.730224 1_665
Na15 O43 2.763732 1_665
Na16 O47 2.393786 1_555
Na16 O46 2.457217 1_445
Na16 O40 2.519908 1_544
Na16 O45 2.603384 1_445
Na16 O39 2.649044 1_554
Na16 O41 2.830283 1_444
Na17 O49 2.406547 1_555
Na17 O48 2.413749 1_555
Na17 O56 2.471803 1_555
Na17 O50 2.722030 1_555
Na17 O55 2.757173 1_555
Na17 O54 2.784359 1_555
Na18 O51 2.428536 1_555
Na18 O59 2.499650 1_555
Na18 O52 2.517142 1_555
Na18 O53 2.674686 1_555
Na18 O57 2.699360 1_555
Na18 O58 2.760907 1_555
Na19 O60 2.355156 1_555
Na19 O62 2.383675 1_555
Na19 O67 2.498732 1_555
Na19 O61 2.668568 1_555
Na19 O68 2.734355 1_555
Na19 O66 2.779466 1_555
Na20 O64 2.310788 1_555
Na20 O69 2.385985 1_555
Na20 O71 2.517545 1_555
Na20 O65 2.679589 1_555
Na20 O63 2.780072 1_555
Na20 O70 2.854732 1_555
In0 O3 2.062174 1_555
In0 O5 2.093811 1_455
In0 O40 2.131705 1_545
In0 O4 2.197353 1_445
In0 O41 2.334175 1_445
In0 O39 2.335711 1_555
In1 O7 2.041381 1_655
In1 O6 2.067564 1_545
In1 O44 2.155100 1_545
In1 O8 2.245287 1_645
In1 O42 2.289330 1_555
In1 O43 2.334788 1_655
In2 O46 2.080946 1_545
In2 O9 2.101599 1_545
In2 O47 2.112439 1_655
In2 O10 2.172638 1_655
In2 O11 2.281132 1_645
In2 O45 2.341557 1_545
In3 O20 2.034261 1_556
In3 O18 2.062513 1_556
In3 O56 2.165678 1_555
In3 O19 2.232292 1_556
In3 O54 2.355312 1_555
In3 O55 2.418677 1_555
In4 O22 2.039381 1_555
In4 O57 2.072901 1_555
In4 O59 2.156056 1_555
In4 O23 2.202379 1_555
In4 O58 2.277171 1_555
In4 O21 2.343266 1_555
In5 O26 2.047733 1_554
In5 O60 2.075176 1_555
In5 O62 2.151304 1_555
In5 O25 2.229189 1_554
In5 O61 2.251811 1_555
In5 O24 2.285144 1_554
In6 O27 2.073313 1_555
In6 O29 2.079630 1_555
In6 O64 2.124049 1_555
In6 O28 2.192861 1_555
In6 O63 2.321503 1_555
In6 O65 2.382867 1_555
In7 O31 2.062474 1_555
In7 O30 2.071985 1_555
In7 O67 2.127235 1_555
In7 O32 2.237687 1_555
In7 O66 2.302501 1_555
In7 O68 2.340489 1_555
In8 O34 2.048095 1_555
In8 O69 2.097712 1_555
In8 O71 2.121041 1_555
In8 O35 2.249124 1_555
In8 O70 2.268861 1_555
In8 O33 2.296787 1_555
O0 S0 1.471322 1_545
O0 Zn0 2.291844 1_445
O1 Si0 1.633233 1_555
O1 Zn0 1.936553 1_555
O2 S1 1.473578 1_655
O2 Zn0 2.359259 1_545
O3 Si1 1.634154 1_555
O4 S2 1.479644 1_655
O5 Si2 1.656273 1_555
O6 Si2 1.638899 1_565
O7 Si1 1.632813 1_555
O8 S2 1.490492 1_555
O9 Si0 1.647152 1_555
O10 S1 1.492362 1_555
O11 S0 1.488939 1_555
O12 S3 1.468970 1_555
O12 Zn1 2.422190 1_555
O13 S4 1.474114 1_555
O13 Zn1 2.121695 1_555
O14 Si3 1.618119 1_555
O14 Zn1 1.978004 1_555
O15 S5 1.468875 1_555
O15 Zn2 2.133206 1_555
O16 Si4 1.646727 1_555
O16 Zn2 1.958204 1_555
O17 Si5 1.634342 1_555
O17 Zn2 1.950126 1_555
O18 Si5 1.646146 1_555
O19 S5 1.481105 1_555
O20 Si4 1.635946 1_555
O21 S4 1.482153 1_555
O22 Si3 1.647010 1_555
O23 S3 1.497131 1_555
O24 S6 1.485358 1_555
O25 S7 1.476717 1_555
O26 Si6 1.632443 1_555
O27 Si7 1.637566 1_555
O28 S8 1.479310 1_555
O29 Si8 1.649770 1_555
O30 Si8 1.642161 1_555
O31 Si7 1.644363 1_555
O32 S8 1.487235 1_555
O33 S7 1.485962 1_555
O34 Si6 1.638273 1_555
O35 S6 1.495782 1_555
O36 Si8 1.646213 1_555
O36 Zn0 2.054075 1_455
O37 Si7 1.643614 1_545
O37 Zn0 2.021264 1_545
O38 S8 1.473210 1_555
O38 Zn0 2.419902 1_445
O39 S7 1.507862 1_555
O40 Si6 1.653572 1_555
O41 S6 1.487279 1_555
O42 S3 1.496310 1_555
O43 S4 1.495346 1_555
O44 Si3 1.689331 1_555
O45 S5 1.503700 1_555
O46 Si4 1.646616 1_565
O47 Si5 1.650799 1_555
O48 Si2 1.650833 1_555
O48 Zn1 2.136665 1_555
O49 Si1 1.636000 1_555
O49 Zn1 2.000576 1_555
O50 S2 1.473993 1_655
O50 Zn1 2.319799 1_555
O51 Si0 1.655302 1_555
O51 Zn2 2.124342 1_555
O52 S1 1.487484 1_655
O53 S0 1.487156 1_545
O54 S6 1.479296 1_555
O55 S7 1.479327 1_655
O56 Si6 1.680570 1_545
O57 Si7 1.651805 1_545
O58 S8 1.495828 1_555
O59 Si8 1.656359 1_655
O60 Si5 1.644718 1_555
O61 S5 1.490420 1_455
O62 Si4 1.676267 1_565
O63 S4 1.506879 1_565
O64 Si3 1.660568 1_555
O65 S3 1.493435 1_455
O66 S0 1.517110 1_555
O67 Si0 1.682775 1_555
O68 S1 1.504836 1_555
O69 Si1 1.661659 1_555
O70 S2 1.489631 1_555
O71 Si2 1.653630 1_565
