# generated using pymatgen
data_LiCu4(PO4)3
_symmetry_space_group_name_H-M   'P 1'
_cell_length_a   5.91715958
_cell_length_b   10.05713430
_cell_length_c   14.23777378
_cell_angle_alpha   90.02425470
_cell_angle_beta   90.00870965
_cell_angle_gamma   89.99851347
_symmetry_Int_Tables_number   1
_chemical_formula_structural   LiCu4(PO4)3
_chemical_formula_sum   'Li4 Cu16 P12 O48'
_cell_volume   847.28511302
_cell_formula_units_Z   4
loop_
 _symmetry_equiv_pos_site_id
 _symmetry_equiv_pos_as_xyz
  1  'x, y, z'
loop_
 _atom_site_type_symbol
 _atom_site_label
 _atom_site_symmetry_multiplicity
 _atom_site_fract_x
 _atom_site_fract_y
 _atom_site_fract_z
 _atom_site_occupancy
  Li  Li0  1  0.06514241  0.73164249  0.25003134  1
  Li  Li1  1  0.43482646  0.23167204  0.74997733  1
  Li  Li2  1  0.56535572  0.76856562  0.24975307  1
  Li  Li3  1  0.93390313  0.26873262  0.75006118  1
  Cu  Cu0  1  0.05378533  0.84548573  0.63400000  1
  Cu  Cu1  1  0.05409254  0.84699732  0.86598351  1
  Cu  Cu2  1  0.14448149  0.44335677  0.58416980  1
  Cu  Cu3  1  0.14422277  0.44394345  0.91318161  1
  Cu  Cu4  1  0.35657111  0.94425088  0.08726526  1
  Cu  Cu5  1  0.35476399  0.94001475  0.41662989  1
  Cu  Cu6  1  0.44650887  0.34757515  0.13410547  1
  Cu  Cu7  1  0.44553465  0.34473238  0.36575436  1
  Cu  Cu8  1  0.55396040  0.65309739  0.63421611  1
  Cu  Cu9  1  0.55403251  0.65491529  0.86615562  1
  Cu  Cu10  1  0.64401517  0.05606965  0.58670413  1
  Cu  Cu11  1  0.64463335  0.05682209  0.91605257  1
  Cu  Cu12  1  0.85527115  0.55800550  0.08351357  1
  Cu  Cu13  1  0.85592739  0.55609637  0.41288054  1
  Cu  Cu14  1  0.94582969  0.15492679  0.13432922  1
  Cu  Cu15  1  0.94624667  0.15260022  0.36594114  1
  P  P0  1  0.01817710  0.40497438  0.25079414  1
  P  P1  1  0.13170511  0.13526342  0.57314335  1
  P  P2  1  0.13223006  0.13542625  0.92746682  1
  P  P3  1  0.36752582  0.63528935  0.07297384  1
  P  P4  1  0.36892712  0.63501344  0.42671333  1
  P  P5  1  0.48138909  0.90517689  0.74956831  1
  P  P6  1  0.51827390  0.09498036  0.24904538  1
  P  P7  1  0.63229869  0.36479475  0.57266130  1
  P  P8  1  0.63151948  0.36484388  0.92673979  1
  P  P9  1  0.86908453  0.86483746  0.07336064  1
  P  P10  1  0.86748840  0.86440342  0.42711867  1
  P  P11  1  0.98147532  0.59512739  0.75044881  1
  O  O0  1  0.04345632  0.96732585  0.11525653  1
  O  O1  1  0.04401761  0.96640885  0.38629033  1
  O  O2  1  0.03312103  0.20383773  0.01251601  1
  O  O3  1  0.03273899  0.20289164  0.48781771  1
  O  O4  1  0.03787496  0.44883941  0.75166508  1
  O  O5  1  0.08044226  0.65685274  0.66058776  1
  O  O6  1  0.08073132  0.65873775  0.83960880  1
  O  O7  1  0.16416120  0.54505695  0.04716163  1
  O  O8  1  0.16399295  0.54572040  0.45159970  1
  O  O9  1  0.18713277  0.24128466  0.64569172  1
  O  O10  1  0.18815836  0.24018553  0.85428951  1
  O  O11  1  0.21732638  0.88581258  0.74982799  1
  O  O12  1  0.28235688  0.38575117  0.25024945  1
  O  O13  1  0.31082384  0.73899944  0.14663308  1
  O  O14  1  0.31410834  0.74231619  0.35477652  1
  O  O15  1  0.33621479  0.04559302  0.54793101  1
  O  O16  1  0.33592075  0.04531677  0.95306814  1
  O  O17  1  0.41978193  0.16009282  0.16035956  1
  O  O18  1  0.41887929  0.15529992  0.33930462  1
  O  O19  1  0.46196940  0.94870968  0.24520994  1
  O  O20  1  0.46799208  0.70223209  0.51218907  1
  O  O21  1  0.46621520  0.70427178  0.98804253  1
  O  O22  1  0.45604815  0.46686539  0.61391088  1
  O  O23  1  0.45679455  0.46756927  0.88525224  1
  O  O24  1  0.54445121  0.53332423  0.11368393  1
  O  O25  1  0.54312116  0.53261695  0.38464904  1
  O  O26  1  0.53276924  0.29732530  0.01209930  1
  O  O27  1  0.53326215  0.29629313  0.48759855  1
  O  O28  1  0.53783208  0.05143102  0.74777297  1
  O  O29  1  0.58050049  0.84120020  0.66050834  1
  O  O30  1  0.58042665  0.84378866  0.83956486  1
  O  O31  1  0.66430790  0.95423333  0.04821454  1
  O  O32  1  0.66366295  0.95423771  0.45277786  1
  O  O33  1  0.68868179  0.26016601  0.64582538  1
  O  O34  1  0.68679541  0.25867609  0.85424232  1
  O  O35  1  0.71736530  0.61450979  0.75037610  1
  O  O36  1  0.78249065  0.11400507  0.24986878  1
  O  O37  1  0.81378354  0.75807557  0.14545890  1
  O  O38  1  0.81111792  0.76024980  0.35361388  1
  O  O39  1  0.83578404  0.45505380  0.54705104  1
  O  O40  1  0.83628089  0.45441808  0.95181617  1
  O  O41  1  0.91865357  0.34405401  0.16074587  1
  O  O42  1  0.91950562  0.34043064  0.33966310  1
  O  O43  1  0.96202926  0.55128025  0.25362591  1
  O  O44  1  0.96648453  0.79570055  0.51209848  1
  O  O45  1  0.96835111  0.79743745  0.98797083  1
  O  O46  1  0.95676091  0.03263875  0.61457876  1
  O  O47  1  0.95612286  0.03324847  0.88621515  1
loop_
_geom_bond_atom_site_label_1
_geom_bond_atom_site_label_2
_geom_bond_distance
_geom_bond_site_symmetry_2
Li0 O43 1.914514 1_455
Li0 O13 2.070466 1_555
Li0 O14 2.098821 1_555
Li0 O37 2.121138 1_455
Li0 O38 2.125412 1_455
Li1 O28 1.912665 1_555
Li1 O10 2.084220 1_555
Li1 O9 2.088426 1_555
Li1 O34 2.121182 1_555
Li1 O33 2.130366 1_555
Li2 O19 1.913330 1_555
Li2 O38 2.075541 1_555
Li2 O37 2.092246 1_555
Li2 O13 2.123997 1_555
Li2 O14 2.125285 1_555
Li3 O4 1.913126 1_655
Li3 O33 2.077166 1_555
Li3 O34 2.085469 1_555
Li3 O9 2.128351 1_655
Li3 O10 2.132536 1_655
Cu0 O44 1.878531 1_455
Cu0 O5 1.941075 1_555
Cu0 O11 1.954364 1_555
Cu0 O46 1.987250 1_465
Cu1 O45 1.877077 1_455
Cu1 O6 1.936502 1_555
Cu1 O11 1.954842 1_555
Cu1 O47 1.981734 1_465
Cu2 O39 1.905098 1_455
Cu2 O22 1.906234 1_555
Cu2 O8 2.153498 1_555
Cu2 O9 2.227661 1_555
Cu2 O5 2.436344 1_555
Cu2 O4 2.467465 1_555
Cu3 O40 1.906337 1_455
Cu3 O23 1.906751 1_555
Cu3 O7 2.164527 1_556
Cu3 O10 2.229023 1_555
Cu3 O4 2.384616 1_555
Cu3 O6 2.430372 1_555
Cu4 O31 1.906660 1_555
Cu4 O0 1.909317 1_555
Cu4 O16 2.168015 1_564
Cu4 O13 2.247313 1_555
Cu4 O19 2.333980 1_555
Cu4 O17 2.435801 1_565
Cu5 O32 1.904174 1_555
Cu5 O1 1.907312 1_555
Cu5 O15 2.152362 1_565
Cu5 O14 2.187502 1_555
Cu5 O18 2.458875 1_565
Cu5 O19 2.523375 1_555
Cu6 O26 1.879612 1_555
Cu6 O17 1.928888 1_555
Cu6 O12 1.955835 1_555
Cu6 O24 1.977570 1_555
Cu7 O27 1.875290 1_555
Cu7 O18 1.948248 1_555
Cu7 O12 1.951160 1_555
Cu7 O25 1.993965 1_555
Cu8 O20 1.876681 1_555
Cu8 O29 1.934685 1_555
Cu8 O35 1.954681 1_555
Cu8 O22 1.981607 1_555
Cu9 O21 1.878178 1_555
Cu9 O30 1.943338 1_555
Cu9 O35 1.953573 1_555
Cu9 O23 1.988867 1_555
Cu10 O15 1.905953 1_555
Cu10 O46 1.907215 1_555
Cu10 O32 2.167190 1_545
Cu10 O33 2.233869 1_555
Cu10 O28 2.378344 1_555
Cu10 O29 2.432555 1_545
Cu11 O16 1.904818 1_555
Cu11 O47 1.906292 1_555
Cu11 O31 2.149511 1_546
Cu11 O34 2.226996 1_555
Cu11 O30 2.432810 1_545
Cu11 O28 2.478348 1_555
Cu12 O7 1.904136 1_655
Cu12 O24 1.905004 1_555
Cu12 O40 2.147595 1_554
Cu12 O37 2.210280 1_555
Cu12 O41 2.445737 1_555
Cu12 O43 2.503894 1_555
Cu13 O8 1.907195 1_655
Cu13 O25 1.908655 1_555
Cu13 O39 2.167439 1_555
Cu13 O38 2.235920 1_555
Cu13 O43 2.353315 1_555
Cu13 O42 2.435338 1_555
Cu14 O2 1.875562 1_655
Cu14 O41 1.945409 1_555
Cu14 O36 1.952100 1_555
Cu14 O0 1.991669 1_645
Cu15 O3 1.878256 1_655
Cu15 O42 1.932366 1_555
Cu15 O36 1.954402 1_555
Cu15 O1 1.981271 1_645
O0 P9 1.575491 1_455
O1 P10 1.575494 1_455
O2 P2 1.510989 1_554
O3 P1 1.510576 1_555
O4 P11 1.508711 1_455
O5 P11 1.538225 1_455
O6 P11 1.537786 1_455
O7 P3 1.551209 1_555
O8 P4 1.550140 1_555
O9 P1 1.520007 1_555
O10 P2 1.518590 1_555
O11 P5 1.574601 1_555
O12 P0 1.575119 1_555
O13 P3 1.516410 1_555
O14 P4 1.523037 1_555
O15 P1 1.551236 1_555
O16 P2 1.551421 1_555
O17 P6 1.537305 1_555
O18 P6 1.537831 1_555
O19 P6 1.509291 1_565
O20 P4 1.510225 1_555
O21 P3 1.511791 1_556
O22 P7 1.576696 1_555
O23 P8 1.576525 1_555
O24 P3 1.576013 1_555
O25 P4 1.575191 1_555
O26 P8 1.510130 1_554
O27 P7 1.511261 1_555
O28 P5 1.508574 1_545
O29 P5 1.537955 1_555
O30 P5 1.538464 1_555
O31 P9 1.550739 1_555
O32 P10 1.550526 1_555
O33 P7 1.518058 1_555
O34 P8 1.520411 1_555
O35 P11 1.574887 1_555
O36 P6 1.575123 1_555
O37 P9 1.521428 1_555
O38 P10 1.517474 1_555
O39 P7 1.551510 1_555
O40 P8 1.551342 1_555
O41 P0 1.537873 1_655
O42 P0 1.537584 1_655
O43 P0 1.508975 1_655
O44 P10 1.511601 1_555
O45 P9 1.510651 1_556
O46 P1 1.576588 1_655
O47 P2 1.576765 1_655
