# generated using pymatgen
data_MgCo6(O3F)3
_symmetry_space_group_name_H-M   'P 1'
_cell_length_a   4.91605287
_cell_length_b   4.91027974
_cell_length_c   8.58703160
_cell_angle_alpha   90.18964159
_cell_angle_beta   90.03102571
_cell_angle_gamma   101.49467053
_symmetry_Int_Tables_number   1
_chemical_formula_structural   MgCo6(O3F)3
_chemical_formula_sum   'Mg1 Co6 O9 F3'
_cell_volume   203.12531837
_cell_formula_units_Z   1
loop_
 _symmetry_equiv_pos_site_id
 _symmetry_equiv_pos_as_xyz
  1  'x, y, z'
loop_
 _atom_site_type_symbol
 _atom_site_label
 _atom_site_symmetry_multiplicity
 _atom_site_fract_x
 _atom_site_fract_y
 _atom_site_fract_z
 _atom_site_occupancy
  Mg  Mg0  1  0.94873968  0.48745204  0.67118511  1
  Co  Co0  1  0.01779569  0.98448968  0.00029419  1
  Co  Co1  1  0.00576720  0.99491614  0.33075881  1
  Co  Co2  1  0.01332565  0.99477861  0.66653457  1
  Co  Co3  1  0.58310396  0.41474259  0.16973628  1
  Co  Co4  1  0.45481740  0.54773538  0.84482921  1
  Co  Co5  1  0.43169010  0.58386751  0.48879811  1
  O  O0  1  0.15542049  0.80008125  0.82137118  1
  O  O1  1  0.15594052  0.80429808  0.50580314  1
  O  O2  1  0.31750664  0.29879353  0.33343388  1
  O  O3  1  0.32071715  0.29264398  0.00293573  1
  O  O4  1  0.29597998  0.32853734  0.66772610  1
  O  O5  1  0.67316952  0.71965780  0.66598219  1
  O  O6  1  0.70242966  0.67689582  0.00327496  1
  O  O7  1  0.70001318  0.68953762  0.33024947  1
  O  O8  1  0.82963227  0.17125492  0.16895384  1
  F  F0  1  0.19155099  0.80757288  0.16105695  1
  F  F1  1  0.83409330  0.18458647  0.82407760  1
  F  F2  1  0.83011262  0.19385137  0.51621568  1
loop_
_geom_bond_atom_site_label_1
_geom_bond_atom_site_label_2
_geom_bond_distance
_geom_bond_site_symmetry_2
Mg0 O5 1.937316 1_555
Mg0 O4 2.013601 1_655
Mg0 O0 2.101411 1_655
Mg0 O1 2.204420 1_655
Co0 O3 1.899837 1_565
Co0 F0 1.921566 1_555
Co0 O6 1.937143 1_455
Co0 O0 1.968333 1_554
Co0 O8 2.031002 1_465
Co0 F1 2.105386 1_464
Co1 O7 1.899861 1_455
Co1 O2 1.914146 1_565
Co1 O8 1.932738 1_465
Co1 O1 1.990969 1_555
Co1 F0 2.032571 1_555
Co1 F2 2.136208 1_465
Co2 O0 1.855616 1_555
Co2 O1 1.877545 1_555
Co2 O4 1.925884 1_565
Co2 O5 1.928975 1_455
Co2 F2 1.947018 1_465
Co2 F1 1.948175 1_465
Co3 O8 1.864338 1_555
Co3 O2 1.927670 1_555
Co3 O7 1.930941 1_555
Co3 O6 1.938159 1_555
Co3 O3 1.938800 1_555
Co4 O6 1.849315 1_556
Co4 O3 1.878806 1_556
Co4 O4 1.932335 1_555
Co4 O5 1.967914 1_555
Co4 O0 2.114346 1_555
Co5 O7 1.896481 1_555
Co5 O1 1.901174 1_555
Co5 O2 1.930815 1_555
Co5 O5 1.960771 1_555
Co5 O4 2.014491 1_555
F1 Mg0 1.983088 1_555
F2 Mg0 1.959770 1_555
