# generated using pymatgen
data_Na3HfScSi2SO12
_symmetry_space_group_name_H-M   'P 1'
_cell_length_a   9.14334346
_cell_length_b   9.14334313
_cell_length_c   22.71714379
_cell_angle_alpha   89.68675206
_cell_angle_beta   90.31324801
_cell_angle_gamma   120.08314214
_symmetry_Int_Tables_number   1
_chemical_formula_structural   Na3HfScSi2SO12
_chemical_formula_sum   'Na18 Hf6 Sc6 Si12 S6 O72'
_cell_volume   1643.31683135
_cell_formula_units_Z   6
loop_
 _symmetry_equiv_pos_site_id
 _symmetry_equiv_pos_as_xyz
  1  'x, y, z'
loop_
 _atom_site_type_symbol
 _atom_site_label
 _atom_site_symmetry_multiplicity
 _atom_site_fract_x
 _atom_site_fract_y
 _atom_site_fract_z
 _atom_site_occupancy
  Na  Na0  1  0.62919032  0.99887254  0.24245063  1
  Na  Na1  1  0.99578645  0.64547166  0.24418476  1
  Na  Na2  1  0.00112746  0.37080968  0.74245063  1
  Na  Na3  1  0.35452834  0.00421355  0.74418476  1
  Na  Na4  1  0.29585732  0.33220554  0.57578363  1
  Na  Na5  1  0.66245345  0.97880466  0.57751776  1
  Na  Na6  1  0.66779446  0.70414268  0.07578363  1
  Na  Na7  1  0.02119534  0.33754655  0.07751776  1
  Na  Na8  1  0.96252332  0.66553954  0.90911763  1
  Na  Na9  1  0.32911945  0.31213866  0.91085176  1
  Na  Na10  1  0.33446046  0.03747668  0.40911763  1
  Na  Na11  1  0.68786134  0.67088055  0.41085176  1
  Na  Na12  1  0.00420949  0.03029142  0.49462844  1
  Na  Na13  1  0.96970858  0.99579051  0.99462844  1
  Na  Na14  1  0.67087649  0.36362442  0.82796144  1
  Na  Na15  1  0.63637558  0.32912351  0.32796144  1
  Na  Na16  1  0.33754249  0.69695842  0.16129544  1
  Na  Na17  1  0.30304158  0.66245751  0.66129544  1
  Hf  Hf0  1  0.01636192  0.00378831  0.64717857  1
  Hf  Hf1  1  0.99621169  0.98363808  0.14717857  1
  Hf  Hf2  1  0.68302892  0.33712131  0.98051157  1
  Hf  Hf3  1  0.66287869  0.31697108  0.48051157  1
  Hf  Hf4  1  0.34969492  0.67045531  0.31384557  1
  Hf  Hf5  1  0.32954469  0.65030508  0.81384557  1
  Sc  Sc0  1  0.00580732  0.00611227  0.35222151  1
  Sc  Sc1  1  0.99388773  0.99419268  0.85222151  1
  Sc  Sc2  1  0.67247432  0.33944527  0.68555451  1
  Sc  Sc3  1  0.66055473  0.32752568  0.18555451  1
  Sc  Sc4  1  0.33914032  0.67277927  0.01888851  1
  Sc  Sc5  1  0.32722073  0.66085968  0.51888851  1
  Si  Si0  1  0.29551440  0.00031918  0.25373302  1
  Si  Si1  1  0.70795744  0.70207054  0.25216181  1
  Si  Si2  1  0.29792946  0.29204256  0.75216181  1
  Si  Si3  1  -0.00031918  0.70448560  0.75373302  1
  Si  Si4  1  0.96218140  0.33365218  0.58706602  1
  Si  Si5  1  0.37462444  0.03540354  0.58549481  1
  Si  Si6  1  0.96459646  0.62537556  0.08549481  1
  Si  Si7  1  0.66634782  0.03781860  0.08706602  1
  Si  Si8  1  0.62884740  0.66698618  0.92040002  1
  Si  Si9  1  0.04129044  0.36873754  0.91882881  1
  Si  Si10  1  0.63126246  0.95870956  0.41882881  1
  Si  Si11  1  0.33301382  0.37115260  0.42040002  1
  S  S0  1  0.00383615  0.29406822  0.24922828  1
  S  S1  1  0.70593178  0.99616385  0.74922828  1
  S  S2  1  0.67050315  0.62740122  0.58256128  1
  S  S3  1  0.37259878  0.32949685  0.08256128  1
  S  S4  1  0.33716915  0.96073522  0.91589528  1
  S  S5  1  0.03926478  0.66283085  0.41589528  1
  O  O0  1  0.21008706  0.01888378  0.31356488  1
  O  O1  1  0.82318811  0.79667763  0.30964259  1
  O  O2  1  0.98323640  0.18728111  0.30041858  1
  O  O3  1  0.20332237  0.17681189  0.80964259  1
  O  O4  1  0.98111622  0.78991294  0.81356488  1
  O  O5  1  0.81271889  0.01676360  0.80041858  1
  O  O6  1  0.77959914  0.97316084  0.69421082  1
  O  O7  1  0.17439917  0.20385509  0.69346599  1
  O  O8  1  0.02153932  0.82968426  0.69755446  1
  O  O9  1  0.79614491  0.82560083  0.19346599  1
  O  O10  1  0.02683916  0.22040086  0.19421082  1
  O  O11  1  0.17031574  0.97846068  0.19755446  1
  O  O12  1  0.87675406  0.35221678  0.64689788  1
  O  O13  1  0.48985511  0.13001063  0.64297559  1
  O  O14  1  0.64990340  0.52061411  0.63375158  1
  O  O15  1  0.86998937  0.51014489  0.14297559  1
  O  O16  1  0.64778322  0.12324594  0.14689788  1
  O  O17  1  0.47938589  0.35009660  0.13375158  1
  O  O18  1  0.44626614  0.30649384  0.02754382  1
  O  O19  1  0.84106617  0.53718809  0.02679899  1
  O  O20  1  0.68820632  0.16301726  0.03088746  1
  O  O21  1  0.46281191  0.15893383  0.52679899  1
  O  O22  1  0.69350616  0.55373386  0.52754382  1
  O  O23  1  0.83698274  0.31179368  0.53088746  1
  O  O24  1  0.54342006  0.68555078  0.98023188  1
  O  O25  1  0.15652111  0.46334463  0.97630959  1
  O  O26  1  0.31656940  0.85394811  0.96708558  1
  O  O27  1  0.53665537  0.84347889  0.47630959  1
  O  O28  1  0.31444922  0.45657994  0.48023188  1
  O  O29  1  0.14605189  0.68343060  0.46708558  1
  O  O30  1  0.11293214  0.63982784  0.36087782  1
  O  O31  1  0.50773217  0.87052209  0.36013299  1
  O  O32  1  0.35487232  0.49635126  0.36422146  1
  O  O33  1  0.12947791  0.49226783  0.86013299  1
  O  O34  1  0.36017216  0.88706786  0.86087782  1
  O  O35  1  0.50364874  0.64512768  0.86422146  1
  O  O36  1  0.02368965  0.81762799  0.41305412  1
  O  O37  1  0.81426621  0.97210995  0.41195270  1
  O  O38  1  0.17776317  0.17751196  0.41396405  1
  O  O39  1  0.02789005  0.18573379  0.91195270  1
  O  O40  1  0.18237201  0.97631035  0.91305412  1
  O  O41  1  0.82248804  0.82223683  0.91396405  1
  O  O42  1  0.96386224  0.15110085  0.58876428  1
  O  O43  1  0.18881707  0.02646873  0.58867512  1
  O  O44  1  0.81844584  0.80220053  0.58894539  1
  O  O45  1  0.97353127  0.81118293  0.08867512  1
  O  O46  1  0.84889915  0.03613776  0.08876428  1
  O  O47  1  0.19779947  0.18155416  0.08894539  1
  O  O48  1  0.69035665  0.15096099  0.74638712  1
  O  O49  1  0.48093321  0.30544295  0.74528570  1
  O  O50  1  0.84443017  0.51084496  0.74729705  1
  O  O51  1  0.69455705  0.51906679  0.24528570  1
  O  O52  1  0.84903901  0.30964335  0.24638712  1
  O  O53  1  0.48915504  0.15556983  0.24729705  1
  O  O54  1  0.63052924  0.48443385  0.92209728  1
  O  O55  1  0.85548407  0.35980173  0.92200812  1
  O  O56  1  0.48511284  0.13553353  0.92227839  1
  O  O57  1  0.64019827  0.14451593  0.42200812  1
  O  O58  1  0.51556615  0.36947076  0.42209728  1
  O  O59  1  0.86446647  0.51488716  0.42227839  1
  O  O60  1  0.35702265  0.48429499  0.07972112  1
  O  O61  1  0.14759921  0.63877695  0.07861970  1
  O  O62  1  0.51109617  0.84417896  0.08063105  1
  O  O63  1  0.36122305  0.85240079  0.57861970  1
  O  O64  1  0.51570501  0.64297735  0.57972112  1
  O  O65  1  0.15582104  0.48890383  0.58063105  1
  O  O66  1  0.29719524  0.81776785  0.25543128  1
  O  O67  1  0.52215007  0.69313573  0.25534212  1
  O  O68  1  0.15177884  0.46886753  0.25561239  1
  O  O69  1  0.30686427  0.47784993  0.75534212  1
  O  O70  1  0.18223215  0.70280476  0.75543128  1
  O  O71  1  0.53113247  0.84822116  0.75561239  1
loop_
_geom_bond_atom_site_label_1
_geom_bond_atom_site_label_2
_geom_bond_distance
_geom_bond_site_symmetry_2
Na0 O53 2.355121 1_565
Na0 O16 2.411889 1_565
Na0 O67 2.471758 1_555
Na0 O52 2.529306 1_565
Na0 O66 2.647406 1_555
Na0 O31 2.906756 1_555
Na0 O9 2.922482 1_555
Na1 O51 2.394047 1_555
Na1 O66 2.405456 1_655
Na1 O15 2.591456 1_555
Na1 O68 2.647525 1_655
Na1 O52 2.664596 1_555
Na1 O11 2.837408 1_655
Na1 O30 2.863606 1_655
Na1 O1 2.974643 1_555
Na2 O50 2.355121 1_455
Na2 O12 2.411889 1_455
Na2 O69 2.471758 1_555
Na2 O48 2.529306 1_455
Na2 O70 2.647405 1_555
Na2 O33 2.906756 1_555
Na2 O7 2.922482 1_555
Na3 O49 2.394047 1_555
Na3 O70 2.405456 1_545
Na3 O13 2.591456 1_555
Na3 O71 2.647525 1_545
Na3 O48 2.664596 1_555
Na3 O8 2.837408 1_545
Na3 O34 2.863606 1_545
Na3 O3 2.974643 1_555
Na4 O65 2.355138 1_555
Na4 O28 2.411874 1_555
Na4 O43 2.471758 1_555
Na4 O64 2.529311 1_555
Na4 O42 2.647406 1_455
Na4 O7 2.906756 1_555
Na4 O21 2.922482 1_555
Na5 O63 2.394056 1_555
Na5 O42 2.405456 1_565
Na5 O27 2.591436 1_555
Na5 O44 2.647525 1_555
Na5 O64 2.664587 1_555
Na5 O23 2.837408 1_565
Na5 O6 2.863606 1_555
Na5 O13 2.974643 1_565
Na6 O62 2.355138 1_555
Na6 O24 2.411874 1_554
Na6 O45 2.471758 1_555
Na6 O60 2.529311 1_555
Na6 O46 2.647405 1_565
Na6 O9 2.906756 1_555
Na6 O19 2.922482 1_555
Na7 O61 2.394056 1_555
Na7 O46 2.405456 1_455
Na7 O25 2.591436 1_554
Na7 O47 2.647525 1_555
Na7 O60 2.664587 1_555
Na7 O20 2.837408 1_455
Na7 O10 2.863606 1_555
Na7 O15 2.974643 1_455
Na8 O41 2.355121 1_555
Na8 O4 2.411889 1_555
Na8 O55 2.471765 1_555
Na8 O40 2.529306 1_655
Na8 O54 2.647396 1_555
Na8 O19 2.906735 1_556
Na8 O33 2.922482 1_655
Na9 O39 2.394047 1_555
Na9 O54 2.405460 1_555
Na9 O3 2.591456 1_555
Na9 O56 2.647539 1_555
Na9 O40 2.664596 1_545
Na9 O35 2.837408 1_555
Na9 O18 2.863590 1_556
Na9 O25 2.974643 1_555
Na10 O38 2.355121 1_555
Na10 O0 2.411889 1_555
Na10 O57 2.471766 1_555
Na10 O36 2.529306 1_545
Na10 O58 2.647396 1_555
Na10 O21 2.906735 1_555
Na10 O31 2.922482 1_545
Na11 O37 2.394047 1_555
Na11 O58 2.405460 1_555
Na11 O1 2.591456 1_555
Na11 O59 2.647539 1_555
Na11 O36 2.664596 1_655
Na11 O32 2.837408 1_555
Na11 O22 2.863590 1_555
Na11 O27 2.974643 1_555
Na12 O38 2.356143 1_555
Na12 O37 2.423985 1_445
Na12 O42 2.524359 1_455
Na12 O43 2.726489 1_555
Na12 O36 2.763504 1_545
Na12 O44 2.874864 1_445
Na13 O41 2.356143 1_555
Na13 O39 2.423985 1_665
Na13 O46 2.524359 1_566
Na13 O45 2.726489 1_556
Na13 O40 2.763504 1_655
Na13 O47 2.874864 1_666
Na14 O50 2.356143 1_555
Na14 O49 2.423985 1_555
Na14 O54 2.524359 1_555
Na14 O55 2.726489 1_555
Na14 O48 2.763504 1_555
Na14 O56 2.874864 1_555
Na15 O53 2.356143 1_555
Na15 O51 2.423985 1_555
Na15 O58 2.524359 1_555
Na15 O57 2.726489 1_555
Na15 O52 2.763504 1_555
Na15 O59 2.874864 1_555
Na16 O62 2.356143 1_555
Na16 O61 2.423985 1_555
Na16 O66 2.524359 1_555
Na16 O67 2.726489 1_555
Na16 O60 2.763504 1_555
Na16 O68 2.874864 1_555
Na17 O65 2.356143 1_555
Na17 O63 2.423985 1_555
Na17 O70 2.524359 1_555
Na17 O69 2.726489 1_555
Na17 O64 2.763504 1_555
Na17 O71 2.874864 1_555
Hf0 O7 1.973432 1_555
Hf0 O8 1.975106 1_545
Hf0 O43 1.996939 1_555
Hf0 O42 2.104105 1_455
Hf0 O44 2.253604 1_445
Hf0 O6 2.306648 1_445
Hf1 O9 1.973432 1_555
Hf1 O11 1.975106 1_655
Hf1 O45 1.996939 1_555
Hf1 O46 2.104105 1_565
Hf1 O47 2.253604 1_665
Hf1 O10 2.306648 1_665
Hf2 O19 1.973432 1_556
Hf2 O20 1.975106 1_556
Hf2 O55 1.996939 1_555
Hf2 O54 2.104105 1_555
Hf2 O56 2.253604 1_555
Hf2 O18 2.306648 1_556
Hf3 O21 1.973432 1_555
Hf3 O23 1.975106 1_555
Hf3 O57 1.996939 1_555
Hf3 O58 2.104105 1_555
Hf3 O59 2.253604 1_555
Hf3 O22 2.306648 1_555
Hf4 O31 1.973432 1_555
Hf4 O32 1.975106 1_555
Hf4 O67 1.996939 1_555
Hf4 O66 2.104105 1_555
Hf4 O68 2.253604 1_555
Hf4 O30 2.306648 1_555
Hf5 O33 1.973432 1_555
Hf5 O35 1.975106 1_555
Hf5 O69 1.996939 1_555
Hf5 O70 2.104105 1_555
Hf5 O71 2.253604 1_555
Hf5 O34 2.306648 1_555
O0 Si0 1.622780 1_555
O0 Sc0 2.017832 1_555
O1 Si1 1.626983 1_555
O1 Sc0 2.046399 1_665
O2 S0 1.465183 1_655
O2 Sc0 2.119005 1_655
O3 Si2 1.626983 1_555
O3 Sc1 2.046399 1_445
O4 Si3 1.622780 1_655
O4 Sc1 2.017832 1_555
O5 S1 1.465183 1_545
O5 Sc1 2.119005 1_545
O6 S1 1.487995 1_555
O7 Si2 1.669167 1_555
O8 Si3 1.654250 1_555
O9 Si1 1.669167 1_555
O10 S0 1.487995 1_555
O11 Si0 1.654250 1_565
O12 Si4 1.622780 1_555
O12 Sc2 2.017832 1_555
O13 Si5 1.626983 1_555
O13 Sc2 2.046399 1_555
O14 S2 1.465183 1_555
O14 Sc2 2.119005 1_555
O15 Si6 1.626983 1_555
O15 Sc3 2.046399 1_555
O16 Si7 1.622780 1_555
O16 Sc3 2.017832 1_555
O17 S3 1.465183 1_555
O17 Sc3 2.119005 1_555
O18 S3 1.487995 1_555
O19 Si6 1.669167 1_555
O20 Si7 1.654250 1_555
O21 Si5 1.669167 1_555
O22 S2 1.487995 1_555
O23 Si4 1.654250 1_555
O24 Si8 1.622780 1_555
O24 Sc4 2.017832 1_556
O25 Si9 1.626983 1_555
O25 Sc4 2.046399 1_556
O26 S4 1.465183 1_555
O26 Sc4 2.119005 1_556
O27 Si10 1.626983 1_555
O27 Sc5 2.046399 1_555
O28 Si11 1.622780 1_555
O28 Sc5 2.017832 1_555
O29 S5 1.465183 1_555
O29 Sc5 2.119005 1_555
O30 S5 1.487995 1_555
O31 Si10 1.669167 1_555
O32 Si11 1.654250 1_555
O33 Si9 1.669167 1_555
O34 S4 1.487995 1_555
O35 Si8 1.654250 1_555
O36 S5 1.492872 1_555
O36 Sc0 2.271674 1_565
O37 Si10 1.623684 1_555
O37 Sc0 2.116734 1_665
O38 Si11 1.628529 1_555
O38 Sc0 2.103583 1_555
O39 Si9 1.623684 1_555
O39 Sc1 2.116734 1_445
O40 S4 1.492872 1_555
O40 Sc1 2.271674 1_455
O41 Si8 1.628530 1_555
O41 Sc1 2.103583 1_555
O42 Si4 1.677118 1_555
O43 Si5 1.661414 1_555
O44 S2 1.496071 1_555
O45 Si6 1.661414 1_555
O46 Si7 1.677118 1_555
O47 S3 1.496071 1_555
O48 S1 1.492872 1_545
O48 Sc2 2.271674 1_555
O49 Si2 1.623684 1_555
O49 Sc2 2.116734 1_555
O50 Si3 1.628529 1_655
O50 Sc2 2.103583 1_555
O51 Si1 1.623684 1_555
O51 Sc3 2.116734 1_555
O52 S0 1.492872 1_655
O52 Sc3 2.271674 1_555
O53 Si0 1.628530 1_555
O53 Sc3 2.103583 1_555
O54 Si8 1.677131 1_555
O55 Si9 1.661399 1_655
O56 S4 1.496067 1_545
O57 Si10 1.661399 1_545
O58 Si11 1.677131 1_555
O59 S5 1.496067 1_655
O60 S3 1.492885 1_555
O60 Sc4 2.271674 1_555
O61 Si6 1.623669 1_455
O61 Sc4 2.116734 1_555
O62 Si7 1.628524 1_565
O62 Sc4 2.103583 1_555
O63 Si5 1.623669 1_565
O63 Sc5 2.116734 1_555
O64 S2 1.492885 1_555
O64 Sc5 2.271674 1_555
O65 Si4 1.628524 1_455
O65 Sc5 2.103583 1_555
O66 Si0 1.677118 1_565
O67 Si1 1.661414 1_555
O68 S0 1.496071 1_555
O69 Si2 1.661414 1_555
O70 Si3 1.677118 1_555
O71 S1 1.496071 1_555
