# generated using pymatgen
data_Na2Y3NbP4(SO12)2
_symmetry_space_group_name_H-M   'P 1'
_cell_length_a   9.09046036
_cell_length_b   9.09313917
_cell_length_c   23.95787337
_cell_angle_alpha   90.33762621
_cell_angle_beta   89.82350618
_cell_angle_gamma   120.08136087
_symmetry_Int_Tables_number   1
_chemical_formula_structural   Na2Y3NbP4(SO12)2
_chemical_formula_sum   'Na6 Y9 Nb3 P12 S6 O72'
_cell_volume   1713.61962898
_cell_formula_units_Z   3
loop_
 _symmetry_equiv_pos_site_id
 _symmetry_equiv_pos_as_xyz
  1  'x, y, z'
loop_
 _atom_site_type_symbol
 _atom_site_label
 _atom_site_symmetry_multiplicity
 _atom_site_fract_x
 _atom_site_fract_y
 _atom_site_fract_z
 _atom_site_occupancy
  Na  Na0  1  0.99466069  0.99338200  0.49908056  1
  Na  Na1  1  0.00469141  0.00007658  0.99817127  1
  Na  Na2  1  0.66704175  0.33163619  0.83164866  1
  Na  Na3  1  0.67837426  0.33894862  0.33144321  1
  Na  Na4  1  0.32978398  0.65704079  0.16209050  1
  Na  Na5  1  0.33381298  0.66644710  0.67076966  1
  Y  Y0  1  0.98982056  0.99508658  0.35131231  1
  Y  Y1  1  0.00111169  0.00129633  0.85195187  1
  Y  Y2  1  0.99958310  0.99920277  0.65639703  1
  Y  Y3  1  0.99679535  0.00131659  0.14577197  1
  Y  Y4  1  0.66648815  0.33307400  0.68934545  1
  Y  Y5  1  0.67359719  0.34354432  0.18522473  1
  Y  Y6  1  0.67337507  0.33267241  0.47701625  1
  Y  Y7  1  0.32954006  0.66308158  0.01815034  1
  Y  Y8  1  0.33413792  0.67177439  0.51776893  1
  Nb  Nb0  1  0.66410288  0.34462697  0.97740462  1
  Nb  Nb1  1  0.33180845  0.66872101  0.31381774  1
  Nb  Nb2  1  0.33100255  0.66699426  0.81608174  1
  P  P0  1  0.69878487  0.70423852  0.25172270  1
  P  P1  1  0.00368266  0.29802021  0.25227417  1
  P  P2  1  0.29543817  0.30277962  0.75247655  1
  P  P3  1  0.00676772  0.70503911  0.75235847  1
  P  P4  1  0.69736449  0.99284202  0.75261224  1
  P  P5  1  0.95448535  0.62249863  0.08116447  1
  P  P6  1  0.37824474  0.33238049  0.08201263  1
  P  P7  1  0.62033271  0.66571173  0.91671712  1
  P  P8  1  0.03829882  0.37865075  0.91694879  1
  P  P9  1  0.33977872  0.96031785  0.91768733  1
  P  P10  1  0.61978665  0.95393710  0.41517909  1
  P  P11  1  0.04624777  0.66854106  0.41501342  1
  S  S0  1  0.29522229  0.99509745  0.25195455  1
  S  S1  1  0.96166808  0.33088386  0.58332144  1
  S  S2  1  0.37083956  0.04072887  0.58303713  1
  S  S3  1  0.66782771  0.62823013  0.58301172  1
  S  S4  1  0.66636312  0.04806259  0.08108342  1
  S  S5  1  0.33365867  0.37976025  0.41463331  1
  O  O0  1  0.21670378  0.01927501  0.30184814  1
  O  O1  1  0.80746585  0.78626808  0.30318251  1
  O  O2  1  0.98444244  0.19365860  0.30394213  1
  O  O3  1  0.21308417  0.19245996  0.80302737  1
  O  O4  1  0.97911178  0.78720147  0.80327257  1
  O  O5  1  0.80834786  0.02152779  0.80313023  1
  O  O6  1  0.76721844  0.95686283  0.69860296  1
  O  O7  1  0.18952445  0.23226368  0.69866589  1
  O  O8  1  0.04319251  0.81067669  0.69867052  1
  O  O9  1  0.77050625  0.81202572  0.19907667  1
  O  O10  1  0.04224694  0.22859625  0.19914207  1
  O  O11  1  0.19170226  0.96236299  0.20131489  1
  O  O12  1  0.88075619  0.35386403  0.63307164  1
  O  O13  1  0.47352515  0.12182121  0.63297549  1
  O  O14  1  0.64685108  0.52637410  0.63291016  1
  O  O15  1  0.87482778  0.51880252  0.13368461  1
  O  O16  1  0.64560741  0.12282752  0.13296172  1
  O  O17  1  0.48088790  0.35046257  0.13420541  1
  O  O18  1  0.48254502  0.31918048  0.02832530  1
  O  O19  1  0.83581784  0.51724260  0.02841854  1
  O  O20  1  0.68469750  0.15404475  0.03095805  1
  O  O21  1  0.45448953  0.14170144  0.53226199  1
  O  O22  1  0.68625372  0.54449082  0.53202221  1
  O  O23  1  0.85913612  0.31120730  0.53245698  1
  O  O24  1  0.54204315  0.68605125  0.96932415  1
  O  O25  1  0.14345783  0.45819869  0.96850612  1
  O  O26  1  0.31662991  0.85622774  0.96902329  1
  O  O27  1  0.53987855  0.85074928  0.46769750  1
  O  O28  1  0.31125681  0.45526227  0.46586300  1
  O  O29  1  0.14745909  0.68624170  0.46760444  1
  O  O30  1  0.14793561  0.65183893  0.36282451  1
  O  O31  1  0.50329901  0.85057375  0.36323443  1
  O  O32  1  0.35248454  0.48719129  0.36453841  1
  O  O33  1  0.13241868  0.49637412  0.86445493  1
  O  O34  1  0.36360406  0.86668797  0.86473356  1
  O  O35  1  0.50384588  0.63634348  0.86431698  1
  O  O36  1  0.03193162  0.82753781  0.40852159  1
  O  O37  1  0.79717467  0.97592813  0.40991353  1
  O  O38  1  0.18380167  0.20947679  0.40869565  1
  O  O39  1  0.01075148  0.20139100  0.90853703  1
  O  O40  1  0.19036211  0.98802883  0.90905042  1
  O  O41  1  0.80001506  0.81071592  0.90909785  1
  O  O42  1  0.97836971  0.17737026  0.58744575  1
  O  O43  1  0.19954468  0.02185558  0.58743012  1
  O  O44  1  0.82123839  0.79958603  0.58735283  1
  O  O45  1  0.96237281  0.79545921  0.08311183  1
  O  O46  1  0.82263705  0.03401205  0.08444681  1
  O  O47  1  0.20361434  0.16802903  0.08273958  1
  O  O48  1  0.66985936  0.14510249  0.74502372  1
  O  O49  1  0.47538551  0.33066779  0.74493963  1
  O  O50  1  0.85511115  0.52476633  0.74480056  1
  O  O51  1  0.66695743  0.52265192  0.24677198  1
  O  O52  1  0.85151447  0.32548840  0.24703448  1
  O  O53  1  0.46785662  0.14060719  0.24599016  1
  O  O54  1  0.63422889  0.49528954  0.92517327  1
  O  O55  1  0.85771615  0.36565361  0.92540385  1
  O  O56  1  0.50768338  0.14227479  0.92615080  1
  O  O57  1  0.62807557  0.12749755  0.41646383  1
  O  O58  1  0.48985437  0.36727848  0.41804655  1
  O  O59  1  0.87058698  0.50469479  0.41623234  1
  O  O60  1  0.36303704  0.49125902  0.07614828  1
  O  O61  1  0.13070359  0.64251637  0.07576433  1
  O  O62  1  0.51642046  0.87676532  0.07630913  1
  O  O63  1  0.35331399  0.86902839  0.57862489  1
  O  O64  1  0.51349155  0.64479461  0.57830481  1
  O  O65  1  0.13299992  0.48425337  0.57805293  1
  O  O66  1  0.31187929  0.83657980  0.26026394  1
  O  O67  1  0.51573036  0.68637108  0.26475721  1
  O  O68  1  0.16872163  0.48327692  0.26506552  1
  O  O69  1  0.31309665  0.48444809  0.76398559  1
  O  O70  1  0.17078243  0.68700745  0.76347012  1
  O  O71  1  0.51540441  0.82875443  0.76397434  1
loop_
_geom_bond_atom_site_label_1
_geom_bond_atom_site_label_2
_geom_bond_distance
_geom_bond_site_symmetry_2
Na0 O44 2.702147 1_555
Na0 O42 2.739987 1_565
Na0 O37 2.746935 1_555
Na0 O43 2.747836 1_665
Na0 O36 2.750502 1_655
Na0 O38 2.854270 1_665
Na1 O47 2.631535 1_556
Na1 O45 2.659577 1_446
Na1 O40 2.753185 1_545
Na1 O46 2.754970 1_456
Na1 O41 2.783929 1_445
Na1 O39 2.812488 1_555
Na2 O48 2.680762 1_555
Na2 O50 2.710650 1_555
Na2 O49 2.712496 1_555
Na2 O55 2.761104 1_555
Na2 O56 2.777532 1_555
Na2 O54 2.779489 1_555
Na3 O52 2.598522 1_555
Na3 O59 2.607084 1_555
Na3 O51 2.670421 1_555
Na3 O57 2.685920 1_555
Na3 O53 2.761711 1_555
Na3 O58 2.778942 1_555
Na4 O60 2.649473 1_555
Na4 O61 2.711130 1_555
Na4 O62 2.778994 1_555
Na4 O68 2.903661 1_555
Na4 O66 2.905612 1_555
Na4 O67 2.923069 1_555
Na5 O70 2.723298 1_555
Na5 O71 2.725986 1_555
Na5 O69 2.736836 1_555
Na5 O64 2.812288 1_555
Na5 O65 2.821545 1_555
Na5 O63 2.831321 1_555
Nb0 O18 1.968217 1_556
Nb0 O54 1.977822 1_555
Nb0 O19 1.981680 1_556
Nb0 O56 2.068014 1_555
Nb0 O55 2.082863 1_555
Nb0 O20 2.244412 1_556
Nb1 O68 1.971546 1_555
Nb1 O67 1.980853 1_555
Nb1 O30 1.982109 1_555
Nb1 O31 1.992599 1_555
Nb1 O66 2.076175 1_555
Nb1 O32 2.138394 1_555
Nb2 O70 2.005722 1_555
Nb2 O69 2.011365 1_555
Nb2 O71 2.017179 1_555
Nb2 O34 2.044857 1_555
Nb2 O33 2.051741 1_555
Nb2 O35 2.082271 1_555
O0 S0 1.461370 1_545
O0 Y0 2.289059 1_445
O1 P0 1.519978 1_555
O1 Y0 2.124531 1_555
O2 P1 1.519721 1_655
O2 Y0 2.159559 1_545
O3 P2 1.513076 1_555
O3 Y1 2.181941 1_555
O4 P3 1.511602 1_655
O4 Y1 2.185070 1_665
O5 P4 1.513514 1_545
O5 Y1 2.193371 1_655
O6 P4 1.543625 1_555
O6 Y2 2.192872 1_555
O7 P2 1.542459 1_555
O7 Y2 2.194389 1_445
O8 P3 1.542684 1_555
O8 Y2 2.196791 1_455
O9 P0 1.531495 1_555
O9 Y3 2.299006 1_565
O10 P1 1.533428 1_555
O10 Y3 2.278797 1_455
O11 S0 1.472428 1_555
O11 Y3 2.384254 1_465
O12 S1 1.466646 1_555
O12 Y4 2.294556 1_555
O13 S2 1.467299 1_555
O13 Y4 2.279696 1_555
O14 S3 1.468984 1_555
O14 Y4 2.300765 1_555
O15 P5 1.523352 1_555
O15 Y5 2.120747 1_555
O16 S4 1.469613 1_555
O16 Y5 2.262970 1_555
O17 P6 1.520592 1_555
O17 Y5 2.165974 1_555
O18 P6 1.634785 1_555
O19 P5 1.623503 1_555
O20 S4 1.500021 1_555
O21 S2 1.486135 1_555
O21 Y6 2.296438 1_555
O22 S3 1.488559 1_555
O22 Y6 2.281490 1_555
O23 S1 1.490973 1_555
O23 Y6 2.236327 1_555
O24 P7 1.500957 1_555
O24 Y7 2.174429 1_556
O25 P8 1.505440 1_555
O25 Y7 2.138686 1_556
O26 P9 1.505081 1_555
O26 Y7 2.171520 1_556
O27 P10 1.521918 1_555
O27 Y8 2.131547 1_555
O28 S5 1.465573 1_555
O28 Y8 2.242320 1_555
O29 P11 1.521918 1_555
O29 Y8 2.140031 1_555
O30 P11 1.603832 1_555
O31 P10 1.596896 1_555
O32 S5 1.506305 1_555
O33 P8 1.597095 1_555
O34 P9 1.597403 1_555
O35 P7 1.577784 1_555
O36 P11 1.524072 1_555
O36 Y0 2.226839 1_455
O37 P10 1.527082 1_555
O37 Y0 2.179495 1_555
O38 S5 1.468894 1_555
O38 Y0 2.310244 1_445
O39 P8 1.514341 1_555
O39 Y1 2.228870 1_555
O40 P9 1.515467 1_555
O40 Y1 2.251679 1_565
O41 P7 1.510583 1_555
O41 Y1 2.248600 1_665
O42 S1 1.481750 1_555
O42 Y2 2.395301 1_545
O43 S2 1.482078 1_555
O43 Y2 2.384717 1_445
O44 S3 1.484652 1_555
O44 Y2 2.385476 1_555
O45 P5 1.538501 1_555
O45 Y3 2.288688 1_565
O46 S4 1.491208 1_555
O46 Y3 2.290148 1_555
O47 P6 1.541326 1_555
O47 Y3 2.294697 1_455
O48 P4 1.537127 1_545
O48 Y4 2.186661 1_555
O49 P2 1.534811 1_555
O49 Y4 2.177240 1_555
O50 P3 1.533982 1_655
O50 Y4 2.175812 1_555
O51 P0 1.530754 1_555
O51 Y5 2.213619 1_555
O52 P1 1.529509 1_655
O52 Y5 2.262621 1_555
O53 S0 1.467380 1_545
O53 Y5 2.361714 1_555
O54 P7 1.630516 1_555
O55 P8 1.597977 1_655
O56 P9 1.604589 1_545
O57 P10 1.541947 1_545
O57 Y6 2.226324 1_555
O58 S5 1.482577 1_555
O58 Y6 2.328991 1_555
O59 P11 1.544591 1_655
O59 Y6 2.231820 1_555
O60 P6 1.526024 1_555
O60 Y7 2.229279 1_555
O61 P5 1.524030 1_455
O61 Y7 2.203670 1_555
O62 S4 1.472315 1_565
O62 Y7 2.297081 1_555
O63 S2 1.490976 1_565
O63 Y8 2.242902 1_555
O64 S3 1.488890 1_555
O64 Y8 2.289443 1_555
O65 S1 1.486630 1_455
O65 Y8 2.285605 1_555
O66 S0 1.537083 1_555
O67 P0 1.618440 1_555
O68 P1 1.626570 1_555
O69 P2 1.599928 1_555
O70 P3 1.602738 1_555
O71 P4 1.601354 1_555
