# generated using pymatgen
data_Na2Gd2Ti3O10
_symmetry_space_group_name_H-M   'P 1'
_cell_length_a   14.56176322
_cell_length_b   14.56176322
_cell_length_c   14.56176322
_cell_angle_alpha   164.88020675
_cell_angle_beta   164.88020675
_cell_angle_gamma   21.44559472
_symmetry_Int_Tables_number   1
_chemical_formula_structural   Na2Gd2Ti3O10
_chemical_formula_sum   'Na2 Gd2 Ti3 O10'
_cell_volume   210.04691895
_cell_formula_units_Z   1
loop_
 _symmetry_equiv_pos_site_id
 _symmetry_equiv_pos_as_xyz
  1  'x, y, z'
loop_
 _atom_site_type_symbol
 _atom_site_label
 _atom_site_symmetry_multiplicity
 _atom_site_fract_x
 _atom_site_fract_y
 _atom_site_fract_z
 _atom_site_occupancy
  Na  Na0  1  0.71206500  0.71206500  0.00000000  1
  Na  Na1  1  0.28793500  0.28793500  0.00000000  1
  Gd  Gd0  1  0.57582800  0.57582800  0.00000000  1
  Gd  Gd1  1  0.42417200  0.42417200  0.00000000  1
  Ti  Ti0  1  0.85404300  0.85404300  0.00000000  1
  Ti  Ti1  1  0.14595700  0.14595700  0.00000000  1
  Ti  Ti2  1  0.00000000  0.00000000  0.00000000  1
  O  O0  1  0.36928500  0.86928500  0.50000000  1
  O  O1  1  0.86928500  0.36928500  0.50000000  1
  O  O2  1  0.63071500  0.13071500  0.50000000  1
  O  O3  1  0.13071500  0.63071500  0.50000000  1
  O  O4  1  0.79231200  0.79231200  0.00000000  1
  O  O5  1  0.20768800  0.20768800  0.00000000  1
  O  O6  1  0.50000000  0.00000000  0.50000000  1
  O  O7  1  0.06759200  0.06759200  0.00000000  1
  O  O8  1  0.93240800  0.93240800  0.00000000  1
  O  O9  1  0.00000000  0.50000000  0.50000000  1
loop_
_geom_bond_atom_site_label_1
_geom_bond_atom_site_label_2
_geom_bond_distance
_geom_bond_site_symmetry_2
Na0 O4 2.296268 1_555
Na0 O5 2.712220 1_565
Na0 O5 2.712220 1_666
Na0 O5 2.712220 1_554
Na0 O5 2.712220 1_655
Na1 O5 2.296268 1_555
Na1 O4 2.712220 1_455
Na1 O4 2.712220 1_556
Na1 O4 2.712220 1_444
Na1 O4 2.712220 1_545
Gd0 O3 2.477293 1_655
Gd0 O2 2.477293 1_565
Gd0 O3 2.477293 1_554
Gd0 O2 2.477293 1_554
Gd0 O7 2.719557 1_554
Gd0 O7 2.719557 1_666
Gd0 O7 2.719557 1_565
Gd0 O7 2.719557 1_655
Gd0 O6 2.894535 1_565
Gd0 O9 2.894535 1_655
Gd0 O9 2.894535 1_554
Gd0 O6 2.894535 1_554
Gd1 O1 2.477293 1_555
Gd1 O0 2.477293 1_544
Gd1 O0 2.477293 1_555
Gd1 O1 2.477293 1_454
Gd1 O8 2.719557 1_444
Gd1 O8 2.719557 1_545
Gd1 O8 2.719557 1_455
Gd1 O8 2.719557 1_556
Gd1 O9 2.894535 1_554
Gd1 O6 2.894535 1_554
Gd1 O6 2.894535 1_565
Gd1 O9 2.894535 1_655
O0 Ti0 1.964803 1_455
O0 Ti0 1.964803 1_556
O1 Ti0 1.964803 1_556
O1 Ti0 1.964803 1_545
O2 Ti1 1.964803 1_555
O2 Ti1 1.964803 1_656
O3 Ti1 1.964803 1_555
O3 Ti1 1.964803 1_566
O4 Ti0 1.766432 1_555
O5 Ti1 1.766432 1_555
O6 Ti2 1.915783 1_656
O6 Ti2 1.915783 1_555
O7 Ti2 1.934145 1_555
O7 Ti1 2.242414 1_555
O8 Ti2 1.934145 1_665
O8 Ti0 2.242414 1_555
O9 Ti2 1.915783 1_566
O9 Ti2 1.915783 1_555
