# generated using pymatgen
data_Te4P2O13
_symmetry_space_group_name_H-M   'P 1'
_cell_length_a   4.66932846
_cell_length_b   11.26896916
_cell_length_c   22.50659289
_cell_angle_alpha   63.06714955
_cell_angle_beta   90.00000000
_cell_angle_gamma   90.00000000
_symmetry_Int_Tables_number   1
_chemical_formula_structural   Te4P2O13
_chemical_formula_sum   'Te16 P8 O52'
_cell_volume   1055.81595359
_cell_formula_units_Z   4
loop_
 _symmetry_equiv_pos_site_id
 _symmetry_equiv_pos_as_xyz
  1  'x, y, z'
loop_
 _atom_site_type_symbol
 _atom_site_label
 _atom_site_symmetry_multiplicity
 _atom_site_fract_x
 _atom_site_fract_y
 _atom_site_fract_z
 _atom_site_occupancy
  Te  Te0  1  0.73389623  0.18405301  0.93911867  1
  Te  Te1  1  0.23389623  0.81594699  0.56088133  1
  Te  Te2  1  0.26610377  0.81594699  0.06088133  1
  Te  Te3  1  0.76610377  0.18405301  0.43911867  1
  Te  Te4  1  0.19190619  0.47767520  0.65069175  1
  Te  Te5  1  0.69190619  0.52232480  0.84930825  1
  Te  Te6  1  0.80809381  0.52232480  0.34930825  1
  Te  Te7  1  0.30809381  0.47767520  0.15069175  1
  Te  Te8  1  0.30611052  0.65292439  0.42454781  1
  Te  Te9  1  0.80611052  0.34707561  0.07545219  1
  Te  Te10  1  0.69388948  0.34707561  0.57545219  1
  Te  Te11  1  0.19388948  0.65292439  0.92454781  1
  Te  Te12  1  0.81621494  0.01019679  0.18898275  1
  Te  Te13  1  0.31621494  0.98980321  0.31101725  1
  Te  Te14  1  0.18378506  0.98980321  0.81101725  1
  Te  Te15  1  0.68378506  0.01019679  0.68898275  1
  P  P0  1  0.27757986  0.30352389  0.82228808  1
  P  P1  1  0.77757986  0.69647611  0.67771192  1
  P  P2  1  0.72242014  0.69647611  0.17771192  1
  P  P3  1  0.22242014  0.30352389  0.32228808  1
  P  P4  1  0.24890120  0.13679727  0.05747688  1
  P  P5  1  0.74890120  0.86320273  0.44252312  1
  P  P6  1  0.75109880  0.86320273  0.94252312  1
  P  P7  1  0.25109880  0.13679727  0.55747688  1
  O  O0  1  0.34032021  0.59418421  0.85669096  1
  O  O1  1  0.84032021  0.40581579  0.64330904  1
  O  O2  1  0.65967979  0.40581579  0.14330904  1
  O  O3  1  0.15967979  0.59418421  0.35669096  1
  O  O4  1  0.09613689  0.64893512  0.57181971  1
  O  O5  1  0.59613689  0.35106488  0.92818029  1
  O  O6  1  0.90386311  0.35106488  0.42818029  1
  O  O7  1  0.40386311  0.64893512  0.07181971  1
  O  O8  1  0.43905591  0.80597628  0.34656443  1
  O  O9  1  0.93905591  0.19402372  0.15343557  1
  O  O10  1  0.56094409  0.19402372  0.65343557  1
  O  O11  1  0.06094409  0.80597628  0.84656443  1
  O  O12  1  0.17160581  0.96118433  0.23438739  1
  O  O13  1  0.67160581  0.03881567  0.26561261  1
  O  O14  1  0.82839419  0.03881567  0.76561261  1
  O  O15  1  0.32839419  0.96118433  0.73438739  1
  O  O16  1  0.15920894  0.43221038  0.07669932  1
  O  O17  1  0.65920894  0.56778962  0.42330068  1
  O  O18  1  0.43978367  0.43457736  0.79821014  1
  O  O19  1  0.84079106  0.56778962  0.92330068  1
  O  O20  1  0.48139517  0.18479688  0.87052544  1
  O  O21  1  0.98139517  0.81520312  0.62947456  1
  O  O22  1  0.51860483  0.81520312  0.12947456  1
  O  O23  1  0.01860483  0.18479688  0.37052544  1
  O  O24  1  0.42576929  0.01266674  0.60220580  1
  O  O25  1  0.92576929  0.98733326  0.89779420  1
  O  O26  1  0.57423071  0.98733326  0.39779420  1
  O  O27  1  0.07423071  0.01266674  0.10220580  1
  O  O28  1  0.45530591  0.25689852  0.52218578  1
  O  O29  1  0.95530591  0.74310148  0.97781422  1
  O  O30  1  0.54469409  0.74310148  0.47781422  1
  O  O31  1  0.04469409  0.25689852  0.02218578  1
  O  O32  1  0.01402510  0.16539626  0.59526052  1
  O  O33  1  0.51402510  0.83460374  0.90473948  1
  O  O34  1  0.98597490  0.83460374  0.40473948  1
  O  O35  1  0.48597490  0.16539626  0.09526052  1
  O  O36  1  0.12689817  0.10779702  0.50131452  1
  O  O37  1  0.62689817  0.89220298  0.99868548  1
  O  O38  1  0.87310183  0.89220298  0.49868548  1
  O  O39  1  0.37310183  0.10779702  0.00131452  1
  O  O40  1  0.47905223  0.30652862  0.36570343  1
  O  O41  1  0.97905223  0.69347138  0.13429657  1
  O  O42  1  0.52094777  0.69347138  0.63429657  1
  O  O43  1  0.02094777  0.30652862  0.86570343  1
  O  O44  1  0.31235278  0.27163137  0.26744219  1
  O  O45  1  0.81235278  0.72836863  0.23255781  1
  O  O46  1  0.68764722  0.72836863  0.73255781  1
  O  O47  1  0.18764722  0.27163137  0.76744219  1
  O  O48  1  0.06021633  0.43457736  0.29821014  1
  O  O49  1  0.56021633  0.56542264  0.20178986  1
  O  O50  1  0.93978367  0.56542264  0.70178986  1
  O  O51  1  0.34079106  0.43221038  0.57669932  1
loop_
_geom_bond_atom_site_label_1
_geom_bond_atom_site_label_2
_geom_bond_distance
_geom_bond_site_symmetry_2
O0 Te5 1.870916 1_555
O0 Te11 2.038106 1_555
O1 Te4 1.870916 1_655
O1 Te10 2.038106 1_555
O2 Te7 1.870916 1_555
O2 Te9 2.038106 1_555
O3 Te6 1.870916 1_455
O3 Te8 2.038106 1_555
O4 Te1 1.896512 1_555
O4 Te4 1.993041 1_555
O5 Te0 1.896512 1_555
O5 Te5 1.993041 1_555
O6 Te3 1.896512 1_555
O6 Te6 1.993041 1_555
O7 Te2 1.896512 1_555
O7 Te7 1.993041 1_555
O8 Te8 1.923099 1_555
O8 Te13 1.938812 1_555
O9 Te9 1.923099 1_555
O9 Te12 1.938812 1_555
O10 Te10 1.923099 1_555
O10 Te15 1.938812 1_555
O11 Te11 1.923099 1_555
O11 Te14 1.938812 1_555
O12 Te12 1.895197 1_465
O12 Te13 2.009559 1_555
O13 Te13 1.895197 1_545
O13 Te12 2.009559 1_555
O14 Te14 1.895197 1_645
O14 Te15 2.009559 1_555
O15 Te15 1.895197 1_565
O15 Te14 2.009559 1_555
O16 Te9 1.914135 1_455
O16 Te7 2.071711 1_555
O17 Te8 1.914135 1_555
O17 Te6 2.071711 1_555
O18 P0 1.524253 1_555
O18 Te5 2.171738 1_555
O19 Te11 1.914135 1_655
O19 Te5 2.071711 1_555
O20 P0 1.599553 1_555
O20 Te0 1.939518 1_555
O21 P1 1.599553 1_555
O21 Te1 1.939518 1_655
O22 P2 1.599553 1_555
O22 Te2 1.939518 1_555
O23 P3 1.599553 1_555
O23 Te3 1.939518 1_455
O24 P7 1.536121 1_555
O24 Te15 2.284162 1_555
O25 P6 1.536121 1_555
O25 Te14 2.284162 1_655
O26 P5 1.536121 1_555
O26 Te13 2.284162 1_555
O27 P4 1.536121 1_555
O27 Te12 2.284162 1_455
O28 P7 1.548540 1_555
O28 Te10 2.194213 1_555
O29 P6 1.548540 1_555
O29 Te11 2.194213 1_655
O30 P5 1.548540 1_555
O30 Te8 2.194213 1_555
O31 P4 1.548540 1_555
O31 Te9 2.194213 1_455
O32 P7 1.516798 1_555
O32 Te10 2.407901 1_455
O32 Te15 2.558125 1_455
O33 P6 1.516798 1_555
O33 Te11 2.407901 1_555
O33 Te14 2.558125 1_555
O34 P5 1.516798 1_555
O34 Te8 2.407901 1_655
O34 Te13 2.558125 1_655
O35 P4 1.516798 1_555
O35 Te9 2.407901 1_555
O35 Te12 2.558125 1_555
O36 P7 1.554056 1_555
O36 Te3 2.108634 1_455
O37 P6 1.554056 1_555
O37 Te2 2.108634 1_556
O38 P5 1.554056 1_555
O38 Te1 2.108634 1_655
O39 P4 1.554056 1_555
O39 Te0 2.108634 1_554
O40 P3 1.556222 1_555
O40 Te3 2.089422 1_555
O41 P2 1.556222 1_555
O41 Te2 2.089422 1_655
O42 P1 1.556222 1_555
O42 Te1 2.089422 1_555
O43 P0 1.556222 1_555
O43 Te0 2.089422 1_455
O44 P3 1.493693 1_555
O44 Te7 2.601769 1_555
O45 P2 1.493693 1_555
O45 Te6 2.601769 1_555
O46 P1 1.493693 1_555
O46 Te5 2.601769 1_555
O47 P0 1.493693 1_555
O47 Te4 2.601769 1_555
O48 P3 1.524253 1_555
O48 Te6 2.171738 1_455
O49 P2 1.524253 1_555
O49 Te7 2.171738 1_555
O50 P1 1.524253 1_555
O50 Te4 2.171738 1_655
O51 Te10 1.914135 1_555
O51 Te4 2.071711 1_555
