# generated using pymatgen
data_Na6Ta2Al6Si5S7O48
_symmetry_space_group_name_H-M   'P 1'
_cell_length_a   17.18843196
_cell_length_b   8.64493584
_cell_length_c   22.13255401
_cell_angle_alpha   89.99640137
_cell_angle_beta   90.31849158
_cell_angle_gamma   120.23517007
_symmetry_Int_Tables_number   1
_chemical_formula_structural   Na6Ta2Al6Si5S7O48
_chemical_formula_sum   'Na18 Ta6 Al18 Si15 S21 O144'
_cell_volume   2841.30113106
_cell_formula_units_Z   3
loop_
 _symmetry_equiv_pos_site_id
 _symmetry_equiv_pos_as_xyz
  1  'x, y, z'
loop_
 _atom_site_type_symbol
 _atom_site_label
 _atom_site_symmetry_multiplicity
 _atom_site_fract_x
 _atom_site_fract_y
 _atom_site_fract_z
 _atom_site_occupancy
  Na  Na0  1  0.98882344  0.67461944  0.91143180  1
  Na  Na1  1  0.34757040  0.03095132  0.91508896  1
  Na  Na2  1  0.16892474  0.30432933  0.91319068  1
  Na  Na3  1  0.48853984  0.30460836  0.41948237  1
  Na  Na4  1  0.66828717  0.03184162  0.41653922  1
  Na  Na5  1  0.84590142  0.66280512  0.41799505  1
  Na  Na6  1  0.99943493  0.00369849  0.49500568  1
  Na  Na7  1  0.49628227  0.99375546  0.49864150  1
  Na  Na8  1  0.99697119  0.00443642  0.99627736  1
  Na  Na9  1  0.49916603  0.99499003  0.99320107  1
  Na  Na10  1  0.33739133  0.34261876  0.83501203  1
  Na  Na11  1  0.82999728  0.32544388  0.82453340  1
  Na  Na12  1  0.33128385  0.33667751  0.32768347  1
  Na  Na13  1  0.83587714  0.32957534  0.33930551  1
  Na  Na14  1  0.17233497  0.67472742  0.16553072  1
  Na  Na15  1  0.66476504  0.66703120  0.16823575  1
  Na  Na16  1  0.16725848  0.66409462  0.66723656  1
  Na  Na17  1  0.66428287  0.66025778  0.66092917  1
  Ta  Ta0  1  0.99789706  0.98863471  0.64925160  1
  Ta  Ta1  1  0.49841597  0.01221986  0.63933572  1
  Ta  Ta2  1  0.99829967  0.99497209  0.14343484  1
  Ta  Ta3  1  0.49721145  0.00640254  0.14929290  1
  Ta  Ta4  1  0.16484767  0.67236623  0.31158761  1
  Ta  Ta5  1  0.66264334  0.65495297  0.80891511  1
  Al  Al0  1  0.00530989  0.99448125  0.36117310  1
  Al  Al1  1  0.49825255  0.00945114  0.34928457  1
  Al  Al2  1  0.00094698  0.98894872  0.84626039  1
  Al  Al3  1  0.50328158  0.01448783  0.85777750  1
  Al  Al4  1  0.33818971  0.34887594  0.67769665  1
  Al  Al5  1  0.83413295  0.33392319  0.69533081  1
  Al  Al6  1  0.33545426  0.33494363  0.19684377  1
  Al  Al7  1  0.82762828  0.31596324  0.18286408  1
  Al  Al8  1  0.33816612  0.34664004  0.97110715  1
  Al  Al9  1  0.83065554  0.31597415  0.98236435  1
  Al  Al10  1  0.33690716  0.34620485  0.48759913  1
  Al  Al11  1  0.83623914  0.32611487  0.47270091  1
  Al  Al12  1  0.17320964  0.68435727  0.00973602  1
  Al  Al13  1  0.66601447  0.67111873  0.02026204  1
  Al  Al14  1  0.16585153  0.66286425  0.52162274  1
  Al  Al15  1  0.66592739  0.64854593  0.51524534  1
  Al  Al16  1  0.66809749  0.65395123  0.31904790  1
  Al  Al17  1  0.17338096  0.68923399  0.81527383  1
  Si  Si0  1  0.14342621  0.01168133  0.25333200  1
  Si  Si1  1  0.35857756  0.70692676  0.25463122  1
  Si  Si2  1  0.50499641  0.30825671  0.25523078  1
  Si  Si3  1  0.64353511  0.27167126  0.75296125  1
  Si  Si4  1  0.00444595  0.69998914  0.75444930  1
  Si  Si5  1  0.85970117  0.01138108  0.75460104  1
  Si  Si6  1  0.48055590  0.35702628  0.57999260  1
  Si  Si7  1  0.32384989  0.60925529  0.58232663  1
  Si  Si8  1  0.82472654  0.03979366  0.08160091  1
  Si  Si9  1  0.31194726  0.67062913  0.91366321  1
  Si  Si10  1  0.52512576  0.37921777  0.92270087  1
  Si  Si11  1  0.16375352  0.95715121  0.91780772  1
  Si  Si12  1  0.80937714  0.94741308  0.41544377  1
  Si  Si13  1  0.66418017  0.36959138  0.41666194  1
  Si  Si14  1  0.02400262  0.66781313  0.42299809  1
  S  S0  1  0.64905292  0.00449258  0.25096338  1
  S  S1  1  0.85370929  0.70075898  0.25012700  1
  S  S2  1  0.99399686  0.28272692  0.25085653  1
  S  S3  1  0.14970927  0.29420541  0.75140126  1
  S  S4  1  0.49362735  0.70888520  0.75094699  1
  S  S5  1  0.35424231  0.00459917  0.75060057  1
  S  S6  1  0.97521038  0.33726360  0.58269709  1
  S  S7  1  0.19264386  0.04764994  0.58245868  1
  S  S8  1  0.69580131  0.04917293  0.58292672  1
  S  S9  1  0.83087852  0.61116454  0.58258561  1
  S  S10  1  0.47511672  0.61294185  0.08265608  1
  S  S11  1  0.97689748  0.61022619  0.08257192  1
  S  S12  1  0.32888548  0.04649082  0.08226659  1
  S  S13  1  0.19379211  0.34432923  0.08253490  1
  S  S14  1  0.69332954  0.33849242  0.08228918  1
  S  S15  1  0.81077836  0.66277024  0.92052803  1
  S  S16  1  0.01970418  0.37772801  0.91829637  1
  S  S17  1  0.66844860  0.95989685  0.91861765  1
  S  S18  1  0.31097494  0.95867425  0.42001461  1
  S  S19  1  0.16922742  0.37658722  0.41887063  1
  S  S20  1  0.51933859  0.66449433  0.41630237  1
  O  O0  1  0.09208872  0.03511788  0.30891228  1
  O  O1  1  0.60828661  0.03289234  0.30483153  1
  O  O2  1  0.42149047  0.80899839  0.31087954  1
  O  O3  1  0.90986781  0.78072555  0.30338170  1
  O  O4  1  0.48598220  0.17696275  0.31166044  1
  O  O5  1  0.98060023  0.17703317  0.30421324  1
  O  O6  1  0.10705338  0.18328048  0.80603195  1
  O  O7  1  0.59492510  0.15271508  0.81068571  1
  O  O8  1  0.48317376  0.79007194  0.80580306  1
  O  O9  1  0.98581805  0.79133577  0.81231117  1
  O  O10  1  0.40994045  0.03394665  0.80510998  1
  O  O11  1  0.92225743  0.03536915  0.81168484  1
  O  O12  1  0.39592550  0.97380959  0.69557960  1
  O  O13  1  0.90226650  0.96721283  0.69311909  1
  O  O14  1  0.09029667  0.20487011  0.69601476  1
  O  O15  1  0.58053582  0.19206915  0.69266828  1
  O  O16  1  0.02153915  0.83819432  0.69415447  1
  O  O17  1  0.50958806  0.81626676  0.69630246  1
  O  O18  1  0.40184519  0.83657818  0.19281024  1
  O  O19  1  0.89747263  0.81831260  0.19415214  1
  O  O20  1  0.00904643  0.20089080  0.19509063  1
  O  O21  1  0.52157800  0.20526929  0.19343815  1
  O  O22  1  0.08040222  0.96660258  0.19154724  1
  O  O23  1  0.59104521  0.97737490  0.19489553  1
  O  O24  1  0.43241497  0.36520062  0.64132410  1
  O  O25  1  0.93465800  0.36009205  0.63732092  1
  O  O26  1  0.24442529  0.12922812  0.63824939  1
  O  O27  1  0.74893609  0.13687990  0.63731601  1
  O  O28  1  0.30908904  0.49416361  0.64294536  1
  O  O29  1  0.82232897  0.50905654  0.63709525  1
  O  O30  1  0.43410963  0.50822897  0.13719279  1
  O  O31  1  0.93227385  0.50822245  0.13738656  1
  O  O32  1  0.31974760  0.12997877  0.13696673  1
  O  O33  1  0.81523621  0.13254440  0.14225929  1
  O  O34  1  0.24674434  0.36566524  0.13693644  1
  O  O35  1  0.74647080  0.36175702  0.13796662  1
  O  O36  1  0.22884985  0.30684075  0.02760209  1
  O  O37  1  0.73510733  0.31281365  0.02806439  1
  O  O38  1  0.41880249  0.53386374  0.02840184  1
  O  O39  1  0.92214151  0.53724327  0.02686461  1
  O  O40  1  0.34436350  0.15200726  0.02738991  1
  O  O41  1  0.84976046  0.16900257  0.02399686  1
  O  O42  1  0.23195346  0.15583023  0.52777221  1
  O  O43  1  0.73151174  0.15873806  0.52773713  1
  O  O44  1  0.34668162  0.53287956  0.52308311  1
  O  O45  1  0.84639879  0.53701374  0.52736958  1
  O  O46  1  0.41871809  0.30282417  0.51913205  1
  O  O47  1  0.91925206  0.30342748  0.52837590  1
  O  O48  1  0.27014707  0.71432372  0.97405975  1
  O  O49  1  0.76961263  0.69189589  0.97388511  1
  O  O50  1  0.07755152  0.45945723  0.97333495  1
  O  O51  1  0.59059980  0.48106336  0.97871890  1
  O  O52  1  0.13590497  0.82092125  0.97573049  1
  O  O53  1  0.65683450  0.85047124  0.97241105  1
  O  O54  1  0.26954503  0.84696805  0.47267442  1
  O  O55  1  0.76409416  0.81737590  0.47439564  1
  O  O56  1  0.15590813  0.46277889  0.47158514  1
  O  O57  1  0.63727405  0.45065609  0.47339625  1
  O  O58  1  0.09112982  0.69850297  0.47761275  1
  O  O59  1  0.57634134  0.69951715  0.47064077  1
  O  O60  1  0.06854384  0.63058120  0.36118972  1
  O  O61  1  0.55907449  0.63031740  0.36206821  1
  O  O62  1  0.25601617  0.87277971  0.36321426  1
  O  O63  1  0.74237211  0.86166460  0.35649252  1
  O  O64  1  0.18536293  0.48822876  0.36287206  1
  O  O65  1  0.68821643  0.49955688  0.35858601  1
  O  O66  1  0.05793747  0.48854419  0.86426124  1
  O  O67  1  0.57004839  0.50758728  0.86224806  1
  O  O68  1  0.18683452  0.87126067  0.86087298  1
  O  O69  1  0.68659820  0.88411904  0.86378005  1
  O  O70  1  0.24168428  0.62168726  0.85728460  1
  O  O71  1  0.75620965  0.63191013  0.86468100  1
  O  O72  1  0.01348904  0.84181919  0.41196553  1
  O  O73  1  0.51104537  0.82638453  0.40932178  1
  O  O74  1  0.40099571  0.97823961  0.41257962  1
  O  O75  1  0.90933380  0.97070287  0.40383710  1
  O  O76  1  0.08585345  0.20188868  0.41091176  1
  O  O77  1  0.57655329  0.16411100  0.40727989  1
  O  O78  1  0.00992908  0.19896039  0.91291776  1
  O  O79  1  0.51305440  0.18286487  0.91177804  1
  O  O80  1  0.07655739  0.98869316  0.90796318  1
  O  O81  1  0.58650060  0.97115361  0.91191202  1
  O  O82  1  0.41077102  0.84677272  0.90344876  1
  O  O83  1  0.90123572  0.82260538  0.91381789  1
  O  O84  1  0.48965181  0.17027025  0.58702601  1
  O  O85  1  0.98782401  0.17468625  0.58862470  1
  O  O86  1  0.10053882  0.03280301  0.58725726  1
  O  O87  1  0.60120191  0.02447840  0.58914386  1
  O  O88  1  0.41630300  0.80997588  0.59236594  1
  O  O89  1  0.91647171  0.80053672  0.58790218  1
  O  O90  1  0.48776512  0.80066138  0.08849838  1
  O  O91  1  0.98626524  0.79604373  0.08752527  1
  O  O92  1  0.41343018  0.02638262  0.08760707  1
  O  O93  1  0.91631384  0.01751018  0.09087831  1
  O  O94  1  0.09861264  0.17606833  0.08964797  1
  O  O95  1  0.60255709  0.16908109  0.08694555  1
  O  O96  1  0.34359184  0.16239395  0.74209119  1
  O  O97  1  0.84706811  0.17617230  0.74067737  1
  O  O98  1  0.23672310  0.30202074  0.74362837  1
  O  O99  1  0.74207002  0.30842752  0.74111903  1
  O  O100  1  0.41586665  0.52486270  0.74468263  1
  O  O101  1  0.91504164  0.51805798  0.73904225  1
  O  O102  1  0.34672240  0.51738168  0.24051890  1
  O  O103  1  0.84616646  0.52373760  0.23818839  1
  O  O104  1  0.41542612  0.31070418  0.23908768  1
  O  O105  1  0.91727899  0.31281555  0.24121714  1
  O  O106  1  0.24108262  0.17428676  0.24017717  1
  O  O107  1  0.73749567  0.17331082  0.24238630  1
  O  O108  1  0.31892377  0.49257757  0.92494504  1
  O  O109  1  0.82262638  0.50227819  0.92708646  1
  O  O110  1  0.42484646  0.35039956  0.92697897  1
  O  O111  1  0.92905607  0.36527423  0.92572530  1
  O  O112  1  0.25171839  0.15240058  0.92955033  1
  O  O113  1  0.74858974  0.14521119  0.92505209  1
  O  O114  1  0.31881555  0.13708103  0.42236261  1
  O  O115  1  0.81892873  0.14262090  0.42559057  1
  O  O116  1  0.24824173  0.35186675  0.42458754  1
  O  O117  1  0.75217133  0.34918296  0.42778928  1
  O  O118  1  0.42835051  0.49911978  0.42180966  1
  O  O119  1  0.92402837  0.49646295  0.42724801  1
  O  O120  1  0.17819016  0.49722264  0.07617388  1
  O  O121  1  0.68162846  0.49426582  0.07813423  1
  O  O122  1  0.06672699  0.63171593  0.07851811  1
  O  O123  1  0.56635123  0.63739295  0.07646124  1
  O  O124  1  0.24973146  0.86177656  0.07731108  1
  O  O125  1  0.74085504  0.83792809  0.07329826  1
  O  O126  1  0.17979410  0.86716844  0.57762748  1
  O  O127  1  0.68410706  0.87055303  0.57658172  1
  O  O128  1  0.24054006  0.64611116  0.57349498  1
  O  O129  1  0.75398520  0.64027084  0.57801509  1
  O  O130  1  0.06624597  0.49552983  0.57635656  1
  O  O131  1  0.58095950  0.52781369  0.57424089  1
  O  O132  1  0.15103151  0.82651545  0.25799944  1
  O  O133  1  0.65774610  0.84653029  0.25378119  1
  O  O134  1  0.25848291  0.68752321  0.25877432  1
  O  O135  1  0.76643047  0.69032907  0.25300723  1
  O  O136  1  0.07891326  0.46194073  0.25388199  1
  O  O137  1  0.59391849  0.50411674  0.25976241  1
  O  O138  1  0.15609088  0.46827891  0.75526300  1
  O  O139  1  0.65165329  0.47353888  0.75846648  1
  O  O140  1  0.09387913  0.68431725  0.75998273  1
  O  O141  1  0.57872410  0.69522648  0.75594803  1
  O  O142  1  0.26633754  0.83770348  0.75523586  1
  O  O143  1  0.76013155  0.82988125  0.76072272  1
loop_
_geom_bond_atom_site_label_1
_geom_bond_atom_site_label_2
_geom_bond_distance
_geom_bond_site_symmetry_2
Na0 O80 2.351538 1_655
Na0 O111 2.354540 1_555
Na0 O83 2.417970 1_555
Na0 O9 2.425787 1_555
Na0 O109 2.494987 1_555
Na0 O52 2.599268 1_655
Na0 O66 2.650916 1_655
Na0 O39 2.812922 1_556
Na1 O82 2.350893 1_545
Na1 O112 2.380581 1_555
Na1 O110 2.400424 1_555
Na1 O79 2.461913 1_555
Na1 O10 2.660059 1_555
Na1 O68 2.664753 1_545
Na1 O48 2.705034 1_545
Na1 O40 2.708493 1_556
Na2 O108 2.265046 1_555
Na2 O80 2.369528 1_545
Na2 O112 2.399572 1_555
Na2 O78 2.406489 1_555
Na2 O6 2.588915 1_555
Na2 O70 2.680180 1_555
Na2 O36 2.724338 1_556
Na2 O50 2.860375 1_555
Na3 O118 2.377635 1_555
Na3 O77 2.385760 1_555
Na3 O74 2.443341 1_545
Na3 O57 2.503847 1_555
Na3 O46 2.513078 1_555
Na3 O114 2.521742 1_555
Na3 O4 2.620059 1_555
Na3 O61 2.755296 1_555
Na4 O115 2.271267 1_555
Na4 O73 2.376072 1_545
Na4 O77 2.376514 1_555
Na4 O117 2.383189 1_555
Na4 O1 2.675336 1_555
Na4 O43 2.685402 1_555
Na4 O63 2.730908 1_545
Na4 O59 2.762813 1_545
Na5 O75 2.335136 1_555
Na5 O117 2.366045 1_555
Na5 O119 2.419682 1_555
Na5 O72 2.495028 1_655
Na5 O45 2.655449 1_555
Na5 O65 2.678623 1_555
Na5 O55 2.689433 1_555
Na5 O3 2.754040 1_555
Na6 O72 2.395900 1_645
Na6 O75 2.464093 1_545
Na6 O76 2.464413 1_655
Na6 O86 2.602379 1_655
Na6 O85 2.611556 1_555
Na6 O89 2.618259 1_545
Na7 O74 2.464288 1_555
Na7 O77 2.479024 1_565
Na7 O84 2.519158 1_565
Na7 O73 2.538046 1_555
Na7 O88 2.559037 1_555
Na7 O87 2.610084 1_565
Na8 O83 2.423107 1_545
Na8 O78 2.430720 1_655
Na8 O80 2.434674 1_645
Na8 O93 2.551224 1_556
Na8 O94 2.621814 1_656
Na8 O91 2.650999 1_546
Na9 O79 2.357203 1_565
Na9 O81 2.423712 1_555
Na9 O82 2.429485 1_555
Na9 O90 2.642324 1_556
Na9 O95 2.644592 1_566
Na9 O92 2.654845 1_566
Na10 O108 2.482948 1_555
Na10 O100 2.487540 1_555
Na10 O110 2.504289 1_555
Na10 O98 2.560766 1_555
Na10 O96 2.615032 1_555
Na10 O112 2.616436 1_555
Na11 O99 2.336499 1_555
Na11 O97 2.362958 1_555
Na11 O101 2.463467 1_555
Na11 O113 2.678351 1_555
Na11 O111 2.720452 1_555
Na11 O109 2.775526 1_555
Na12 O102 2.412540 1_555
Na12 O106 2.429095 1_555
Na12 O104 2.519066 1_555
Na12 O118 2.588004 1_555
Na12 O116 2.622465 1_555
Na12 O114 2.654520 1_555
Na13 O115 2.423966 1_555
Na13 O119 2.435516 1_555
Na13 O117 2.492187 1_555
Na13 O105 2.632422 1_555
Na13 O107 2.635379 1_555
Na13 O103 2.749950 1_555
Na14 O124 2.461490 1_555
Na14 O134 2.502974 1_555
Na14 O122 2.534474 1_555
Na14 O120 2.536588 1_555
Na14 O132 2.556748 1_555
Na14 O136 2.616434 1_555
Na15 O137 2.422771 1_555
Na15 O133 2.489717 1_555
Na15 O135 2.494698 1_555
Na15 O125 2.528338 1_555
Na15 O123 2.564810 1_555
Na15 O121 2.595038 1_555
Na16 O140 2.466960 1_555
Na16 O128 2.478227 1_555
Na16 O142 2.517042 1_555
Na16 O138 2.524805 1_555
Na16 O130 2.568520 1_555
Na16 O126 2.585569 1_555
Na17 O131 2.315504 1_555
Na17 O129 2.464655 1_555
Na17 O127 2.507788 1_555
Na17 O139 2.639082 1_555
Na17 O141 2.675623 1_555
Na17 O143 2.696246 1_555
Al0 O0 1.782567 1_565
Al0 O72 1.791697 1_555
Al0 O75 1.825131 1_455
Al0 O76 1.956218 1_565
Al0 O3 2.160086 1_455
Al0 O5 2.220147 1_465
Al1 O4 1.772134 1_555
Al1 O2 1.775211 1_545
Al1 O77 1.848068 1_555
Al1 O1 2.054454 1_555
Al1 O74 2.097988 1_545
Al1 O73 2.159994 1_545
Al2 O9 1.761037 1_455
Al2 O11 1.763838 1_465
Al2 O80 1.880734 1_555
Al2 O6 1.968119 1_565
Al2 O83 2.187945 1_455
Al2 O78 2.282987 1_565
Al3 O7 1.765770 1_555
Al3 O79 1.824057 1_555
Al3 O82 1.829814 1_545
Al3 O81 2.035309 1_545
Al3 O10 2.052347 1_555
Al3 O8 2.127702 1_545
Al4 O28 1.745742 1_555
Al4 O24 1.753658 1_555
Al4 O26 1.966684 1_555
Al4 O100 2.056171 1_555
Al4 O98 2.156831 1_555
Al4 O96 2.188105 1_555
Al5 O101 1.777548 1_555
Al5 O97 1.794221 1_555
Al5 O99 1.801713 1_555
Al5 O27 2.040095 1_555
Al5 O29 2.073859 1_555
Al5 O25 2.077518 1_555
Al6 O104 1.755946 1_555
Al6 O102 1.774777 1_555
Al6 O106 1.796732 1_555
Al6 O30 2.080616 1_555
Al6 O32 2.117389 1_555
Al6 O34 2.130455 1_555
Al7 O33 1.739306 1_555
Al7 O35 1.905467 1_555
Al7 O107 1.937737 1_555
Al7 O31 2.004998 1_555
Al7 O105 2.015778 1_555
Al7 O103 2.060754 1_555
Al8 O110 1.772610 1_555
Al8 O108 1.777988 1_555
Al8 O112 1.829127 1_555
Al8 O38 1.967280 1_556
Al8 O40 2.138443 1_556
Al8 O36 2.141812 1_556
Al9 O41 1.728549 1_556
Al9 O113 1.913433 1_555
Al9 O37 1.922055 1_556
Al9 O111 1.977695 1_555
Al9 O39 2.013829 1_556
Al9 O109 2.081243 1_555
Al10 O44 1.724808 1_555
Al10 O46 1.767845 1_555
Al10 O42 1.944510 1_555
Al10 O118 2.066601 1_555
Al10 O116 2.078810 1_555
Al10 O114 2.208830 1_555
Al11 O115 1.792609 1_555
Al11 O119 1.799002 1_555
Al11 O117 1.841208 1_555
Al11 O47 1.963429 1_555
Al11 O43 2.053970 1_555
Al11 O45 2.120344 1_555
Al12 O48 1.745484 1_554
Al12 O52 1.768696 1_554
Al12 O50 1.974491 1_554
Al12 O124 2.065439 1_555
Al12 O120 2.219114 1_555
Al12 O122 2.250891 1_555
Al13 O51 1.751351 1_554
Al13 O125 1.796498 1_555
Al13 O53 1.948040 1_554
Al13 O49 1.988688 1_554
Al13 O123 2.021713 1_555
Al13 O121 2.111700 1_555
Al14 O58 1.754372 1_555
Al14 O128 1.777065 1_555
Al14 O56 1.986966 1_555
Al14 O130 2.004963 1_555
Al14 O54 2.011925 1_555
Al14 O126 2.069785 1_555
Al15 O57 1.781488 1_555
Al15 O55 1.825190 1_555
Al15 O131 1.847460 1_555
Al15 O59 2.050917 1_555
Al15 O129 2.076467 1_555
Al15 O127 2.239561 1_555
Al16 O65 1.768668 1_555
Al16 O63 1.794658 1_555
Al16 O137 1.828539 1_555
Al16 O61 2.023410 1_555
Al16 O135 2.141064 1_555
Al16 O133 2.277086 1_555
Al17 O68 1.783084 1_555
Al17 O70 1.806124 1_555
Al17 O140 1.813727 1_555
Al17 O142 1.980921 1_555
Al17 O66 2.163234 1_555
Al17 O138 2.219299 1_555
O0 Si0 1.589050 1_555
O1 S0 1.468089 1_555
O2 Si1 1.588086 1_555
O3 S1 1.454071 1_555
O4 Si2 1.608013 1_555
O5 S2 1.439954 1_555
O6 S3 1.490210 1_555
O7 Si3 1.591935 1_555
O8 S4 1.458929 1_555
O9 Si4 1.620328 1_655
O10 S5 1.476135 1_555
O11 Si5 1.598664 1_555
O12 S5 1.506288 1_565
O12 Ta1 2.049015 1_565
O13 Si5 1.680834 1_565
O13 Ta0 1.841188 1_555
O14 S3 1.527721 1_555
O14 Ta0 2.019906 1_445
O15 Si3 1.631088 1_555
O15 Ta1 1.890651 1_555
O16 Si4 1.716181 1_555
O16 Ta0 1.836255 1_455
O17 S4 1.465192 1_555
O17 Ta1 2.195640 1_565
O18 Si1 1.689116 1_555
O18 Ta3 1.834053 1_565
O19 S1 1.540686 1_555
O19 Ta2 1.987901 1_555
O20 S2 1.509551 1_455
O20 Ta2 2.043744 1_445
O21 Si2 1.733306 1_555
O21 Ta3 1.831983 1_555
O22 Si0 1.659441 1_565
O22 Ta2 1.875474 1_455
O23 S0 1.529661 1_565
O23 Ta3 2.018030 1_565
O24 Si6 1.613593 1_555
O25 S6 1.460935 1_555
O26 S7 1.473087 1_555
O27 S8 1.465805 1_555
O28 Si7 1.613605 1_555
O29 S9 1.458586 1_555
O30 S10 1.462852 1_555
O31 S11 1.471997 1_555
O32 S12 1.458651 1_555
O33 Si8 1.614373 1_555
O34 S13 1.459768 1_555
O35 S14 1.481825 1_555
O36 S13 1.466694 1_555
O37 S14 1.474929 1_555
O38 S10 1.472048 1_555
O39 S11 1.480944 1_555
O40 S12 1.461870 1_555
O41 Si8 1.606284 1_555
O42 S7 1.472640 1_555
O43 S8 1.479398 1_555
O44 Si7 1.604997 1_555
O45 S9 1.466795 1_555
O46 Si6 1.626744 1_555
O47 S6 1.469687 1_555
O48 Si9 1.652213 1_555
O49 S15 1.465402 1_555
O50 S16 1.500285 1_555
O51 Si10 1.601749 1_555
O52 Si11 1.642702 1_555
O53 S17 1.471236 1_555
O54 S18 1.454156 1_555
O55 Si12 1.643732 1_555
O56 S19 1.464138 1_555
O57 Si13 1.617001 1_555
O58 Si14 1.593430 1_555
O59 S20 1.478582 1_555
O60 Si14 1.679572 1_555
O60 Ta4 1.869149 1_555
O61 S20 1.485593 1_555
O62 S18 1.518100 1_555
O62 Ta4 2.002264 1_555
O63 Si12 1.643746 1_555
O64 S19 1.509500 1_555
O64 Ta4 2.123050 1_555
O65 Si13 1.619707 1_555
O66 S16 1.467805 1_555
O67 Si10 1.663206 1_555
O67 Ta5 1.878322 1_555
O68 Si11 1.612126 1_555
O69 S17 1.486490 1_555
O69 Ta5 2.177648 1_555
O70 Si9 1.631959 1_555
O71 S15 1.487904 1_555
O71 Ta5 2.109520 1_555
O72 Si14 1.621217 1_555
O73 S20 1.484425 1_555
O74 S18 1.479570 1_555
O75 Si12 1.647699 1_555
O76 S19 1.477548 1_555
O77 Si13 1.664091 1_555
O78 S16 1.472774 1_555
O79 Si10 1.621003 1_555
O80 Si11 1.666153 1_555
O81 S17 1.466714 1_555
O82 Si9 1.629258 1_555
O83 S15 1.479083 1_555
O84 Si6 1.705630 1_555
O84 Ta1 1.853401 1_555
O85 S6 1.531701 1_555
O85 Ta0 2.166805 1_545
O86 S7 1.526865 1_555
O86 Ta0 2.118828 1_445
O87 S8 1.536661 1_555
O87 Ta1 2.049354 1_555
O88 Si7 1.674733 1_555
O88 Ta1 1.904811 1_565
O89 S9 1.559135 1_555
O89 Ta0 2.033179 1_555
O90 S10 1.530339 1_555
O90 Ta3 2.169643 1_565
O91 S11 1.535493 1_555
O91 Ta2 2.042208 1_555
O92 S12 1.551918 1_555
O92 Ta3 2.048462 1_555
O93 Si8 1.690954 1_555
O93 Ta2 1.906608 1_545
O94 S13 1.556706 1_555
O94 Ta2 2.035957 1_445
O95 S14 1.513395 1_555
O95 Ta3 2.150261 1_555
O96 S5 1.476788 1_555
O97 Si5 1.575554 1_555
O98 S3 1.473827 1_555
O99 Si3 1.581481 1_555
O100 S4 1.480902 1_555
O101 Si4 1.584799 1_655
O102 Si1 1.577083 1_555
O103 S1 1.492788 1_555
O104 Si2 1.589049 1_555
O105 S2 1.481331 1_555
O106 Si0 1.583482 1_555
O107 S0 1.498583 1_555
O108 Si9 1.622193 1_555
O109 S15 1.507231 1_555
O110 Si10 1.615961 1_555
O111 S16 1.516642 1_655
O112 Si11 1.621160 1_545
O113 S17 1.503220 1_545
O114 S18 1.479933 1_545
O115 Si12 1.626609 1_545
O116 S19 1.482091 1_555
O117 Si13 1.625980 1_555
O118 S20 1.501668 1_555
O119 Si14 1.610667 1_655
O120 S13 1.481655 1_555
O121 S14 1.461137 1_555
O122 S11 1.462615 1_455
O123 S10 1.480276 1_555
O124 S12 1.491096 1_565
O125 Si8 1.618919 1_565
O126 S7 1.465368 1_565
O127 S8 1.460025 1_565
O128 Si7 1.626843 1_555
O129 S9 1.467586 1_555
O130 S6 1.478664 1_455
O131 Si6 1.615773 1_555
O132 Si0 1.673536 1_565
O132 Ta4 1.885292 1_555
O133 S0 1.447892 1_565
O134 Si1 1.645500 1_555
O134 Ta4 1.944813 1_555
O135 S1 1.458625 1_555
O136 S2 1.502237 1_455
O136 Ta4 2.096515 1_555
O137 Si2 1.614027 1_555
O138 S3 1.455196 1_555
O139 Si3 1.683568 1_555
O139 Ta5 1.855129 1_555
O140 Si4 1.613703 1_555
O141 S4 1.528974 1_555
O141 Ta5 2.015700 1_555
O142 S5 1.476953 1_565
O143 Si5 1.645438 1_565
O143 Ta5 1.923560 1_555
