# generated using pymatgen
data_MgV2(Ga2O5)2
_symmetry_space_group_name_H-M   'P 1'
_cell_length_a   5.14845962
_cell_length_b   5.64283870
_cell_length_c   7.74461824
_cell_angle_alpha   69.61499141
_cell_angle_beta   90.17895383
_cell_angle_gamma   62.11590642
_symmetry_Int_Tables_number   1
_chemical_formula_structural   MgV2(Ga2O5)2
_chemical_formula_sum   'Mg1 V2 Ga4 O10'
_cell_volume   182.63700489
_cell_formula_units_Z   1
loop_
 _symmetry_equiv_pos_site_id
 _symmetry_equiv_pos_as_xyz
  1  'x, y, z'
loop_
 _atom_site_type_symbol
 _atom_site_label
 _atom_site_symmetry_multiplicity
 _atom_site_fract_x
 _atom_site_fract_y
 _atom_site_fract_z
 _atom_site_occupancy
  Mg  Mg0  1  0.82033800  0.36740300  0.09766700  1
  V  V0  1  0.01735000  0.97417300  0.51675400  1
  V  V1  1  0.05633800  0.92132700  0.96695800  1
  Ga  Ga0  1  0.66172800  0.70958500  0.70849000  1
  Ga  Ga1  1  0.60710300  0.78534600  0.24218000  1
  Ga  Ga2  1  0.40073900  0.22213100  0.80123400  1
  Ga  Ga3  1  0.37983100  0.26938100  0.34710900  1
  O  O0  1  0.76987800  0.77601100  0.94911700  1
  O  O1  1  0.43637000  0.83296500  0.45603900  1
  O  O2  1  0.05745300  0.58986300  0.65770000  1
  O  O3  1  0.69041500  0.33366100  0.86328900  1
  O  O4  1  0.39136100  0.59255900  0.17188300  1
  O  O5  1  0.96718900  0.38308600  0.33662900  1
  O  O6  1  0.59851900  0.14828900  0.58434000  1
  O  O7  1  0.23673000  0.95780100  0.74497100  1
  O  O8  1  0.25882700  0.13328000  0.04195400  1
  O  O9  1  0.78433800  0.01621900  0.26997200  1
loop_
_geom_bond_atom_site_label_1
_geom_bond_atom_site_label_2
_geom_bond_distance
_geom_bond_site_symmetry_2
Mg0 O3 2.032445 1_554
Mg0 O5 2.042638 1_555
Mg0 O9 2.060331 1_555
Mg0 O0 2.072976 1_554
Mg0 O8 2.154415 1_655
Mg0 O4 2.171259 1_555
Ga0 O2 1.914344 1_655
Ga0 O3 1.973087 1_555
Ga0 O1 1.983790 1_555
Ga0 O7 2.059669 1_555
Ga0 O0 2.144474 1_555
Ga0 O6 2.178295 1_565
Ga1 O1 1.919963 1_555
Ga1 O9 1.970343 1_565
Ga1 O5 2.005751 1_555
Ga1 O8 2.010772 1_565
Ga1 O4 2.062196 1_555
Ga1 O0 2.431117 1_554
Ga2 O2 1.901471 1_555
Ga2 O3 1.983795 1_555
Ga2 O8 1.990160 1_556
Ga2 O6 2.033101 1_555
Ga2 O7 2.180872 1_545
Ga2 O0 2.182566 1_545
Ga3 O6 1.871627 1_555
Ga3 O4 1.883744 1_555
Ga3 O5 1.902441 1_455
Ga3 O9 2.134085 1_555
Ga3 O1 2.177520 1_545
O0 V1 2.018774 1_655
O1 V0 2.041928 1_555
O2 V0 1.966637 1_555
O3 V1 2.048550 1_645
O4 V1 1.968309 1_554
O5 V0 2.129526 1_645
O6 V0 2.067053 1_645
O7 V1 1.950090 1_555
O7 V0 2.045557 1_555
O8 V1 2.121568 1_544
O9 V0 2.133497 1_645
