# generated using pymatgen
data_TmInPt
_symmetry_space_group_name_H-M   'P 1'
_cell_length_a   7.58893368
_cell_length_b   7.58893368
_cell_length_c   3.79175186
_cell_angle_alpha   90.00000000
_cell_angle_beta   90.00000000
_cell_angle_gamma   119.99998766
_symmetry_Int_Tables_number   1
_chemical_formula_structural   TmInPt
_chemical_formula_sum   'Tm3 In3 Pt3'
_cell_volume   189.11767052
_cell_formula_units_Z   3
loop_
 _symmetry_equiv_pos_site_id
 _symmetry_equiv_pos_as_xyz
  1  'x, y, z'
loop_
 _atom_site_type_symbol
 _atom_site_label
 _atom_site_symmetry_multiplicity
 _atom_site_fract_x
 _atom_site_fract_y
 _atom_site_fract_z
 _atom_site_occupancy
  Tm  Tm0  1  0.40480406  0.40480406  0.50000000  1
  Tm  Tm1  1  0.59519594  1.00000000  0.50000000  1
  Tm  Tm2  1  1.00000000  0.59519594  0.50000000  1
  In  In0  1  0.00000000  0.26286112  0.00000000  1
  In  In1  1  0.73713888  0.73713888  -0.00000000  1
  In  In2  1  0.26286112  0.00000000  0.00000000  1
  Pt  Pt0  1  0.66666700  0.33333300  -0.00000000  1
  Pt  Pt1  1  0.00000000  0.00000000  0.50000000  1
  Pt  Pt2  1  0.33333300  0.66666700  -0.00000000  1
loop_
_geom_bond_atom_site_label_1
_geom_bond_atom_site_label_2
_geom_bond_distance
_geom_bond_site_symmetry_2
In0 Pt1 2.752038 1_555
In0 Pt1 2.752038 1_554
In0 Pt0 2.835132 1_455
In0 Pt2 2.835138 1_555
In0 Tm2 3.155181 1_455
In0 Tm2 3.155181 1_454
In0 Tm0 3.298923 1_555
In0 Tm0 3.298923 1_554
In0 Tm1 3.298923 1_444
In0 Tm1 3.298923 1_445
In1 Pt1 2.752039 1_664
In1 Pt1 2.752039 1_665
In1 Pt0 2.835140 1_555
In1 Pt2 2.835140 1_555
In1 Tm0 3.155181 1_555
In1 Tm0 3.155181 1_554
In1 Tm1 3.298923 1_555
In1 Tm2 3.298923 1_554
In1 Tm2 3.298923 1_555
In1 Tm1 3.298923 1_554
In2 Pt1 2.752038 1_555
In2 Pt1 2.752038 1_554
In2 Pt2 2.835132 1_545
In2 Pt0 2.835138 1_555
In2 Tm1 3.155181 1_544
In2 Tm1 3.155181 1_545
In2 Tm0 3.298923 1_555
In2 Tm0 3.298923 1_554
In2 Tm2 3.298923 1_445
In2 Tm2 3.298923 1_444
Pt0 Tm1 2.985895 1_544
Pt0 Tm1 2.985895 1_545
Pt0 Tm2 2.985897 1_554
Pt0 Tm2 2.985897 1_555
Pt0 Tm0 2.985901 1_555
Pt0 Tm0 2.985901 1_554
Pt1 Tm1 3.072031 1_445
Pt1 Tm2 3.072031 1_445
Pt1 Tm0 3.072032 1_555
Pt2 Tm2 2.985895 1_454
Pt2 Tm2 2.985895 1_455
Pt2 Tm1 2.985897 1_555
Pt2 Tm1 2.985897 1_554
Pt2 Tm0 2.985901 1_555
Pt2 Tm0 2.985901 1_554
