# generated using pymatgen
data_Ti3Cu3O
_symmetry_space_group_name_H-M   'P 1'
_cell_length_a   7.90152945
_cell_length_b   7.90152401
_cell_length_c   7.90152622
_cell_angle_alpha   60.00289901
_cell_angle_beta   60.00299043
_cell_angle_gamma   60.00289481
_symmetry_Int_Tables_number   1
_chemical_formula_structural   Ti3Cu3O
_chemical_formula_sum   'Ti12 Cu12 O4'
_cell_volume   348.85652070
_cell_formula_units_Z   4
loop_
 _symmetry_equiv_pos_site_id
 _symmetry_equiv_pos_as_xyz
  1  'x, y, z'
loop_
 _atom_site_type_symbol
 _atom_site_label
 _atom_site_symmetry_multiplicity
 _atom_site_fract_x
 _atom_site_fract_y
 _atom_site_fract_z
 _atom_site_occupancy
  Ti  Ti0  1  0.93619624  0.56379683  0.56379954  1
  Ti  Ti1  1  0.68620512  0.31378554  0.68620508  1
  Ti  Ti2  1  0.93620158  0.56380697  0.93619749  1
  Ti  Ti3  1  0.56380851  0.93620393  0.93619853  1
  Ti  Ti4  1  0.31379121  0.68620774  0.31380250  1
  Ti  Ti5  1  0.56379806  0.93619931  0.56379393  1
  Ti  Ti6  1  0.68620757  0.68620370  0.31378438  1
  Ti  Ti7  1  0.93619803  0.93619946  0.56380913  1
  Ti  Ti8  1  0.31379122  0.31380326  0.68620905  1
  Ti  Ti9  1  0.68621126  0.31379567  0.31379531  1
  Ti  Ti10  1  0.56379847  0.56379146  0.93619748  1
  Ti  Ti11  1  0.31378093  0.68620214  0.68620573  1
  Cu  Cu0  1  0.25108507  0.91630031  0.91630223  1
  Cu  Cu1  1  0.33368392  0.33368433  0.33368385  1
  Cu  Cu2  1  0.33368884  0.33368828  0.99894380  1
  Cu  Cu3  1  0.91630165  0.25107879  0.91630422  1
  Cu  Cu4  1  0.91631357  0.91631522  0.91631617  1
  Cu  Cu5  1  0.99894338  0.33368866  0.33368894  1
  Cu  Cu6  1  0.91630200  0.91630281  0.25108008  1
  Cu  Cu7  1  0.33368981  0.99894103  0.33368907  1
  Cu  Cu8  1  0.12500201  0.62500155  0.12499576  1
  Cu  Cu9  1  0.12500007  0.12499937  0.62500482  1
  Cu  Cu10  1  0.62499913  0.12500342  0.12499708  1
  Cu  Cu11  1  0.12500216  0.12500157  0.12499078  1
  O  O0  1  0.62500590  0.12499687  0.62500517  1
  O  O1  1  0.62500883  0.62500369  0.12499330  1
  O  O2  1  0.12498863  0.62500549  0.62501014  1
  O  O3  1  0.62499682  0.62499261  0.62499644  1
loop_
_geom_bond_atom_site_label_1
_geom_bond_atom_site_label_2
_geom_bond_distance
_geom_bond_site_symmetry_2
Cu0 Cu9 2.421688 1_565
Cu0 Cu8 2.421690 1_556
Cu0 Cu11 2.421695 1_566
Cu0 Ti3 2.637610 1_555
Cu0 Ti10 2.637639 1_555
Cu0 Ti5 2.637640 1_555
Cu0 Cu4 2.645093 1_455
Cu0 Cu3 2.645396 1_465
Cu0 Cu6 2.645397 1_456
Cu0 Ti11 2.891470 1_555
Cu0 Ti4 2.891611 1_556
Cu0 Ti8 2.891629 1_565
Cu1 Cu10 2.421696 1_555
Cu1 Cu8 2.421707 1_555
Cu1 Cu9 2.421714 1_555
Cu1 Ti4 2.637726 1_555
Cu1 Ti8 2.637742 1_555
Cu1 Ti9 2.637749 1_555
Cu1 Cu2 2.644922 1_554
Cu1 Cu5 2.644925 1_455
Cu1 Cu7 2.644938 1_545
Cu1 Ti5 2.891657 1_545
Cu1 Ti10 2.891659 1_554
Cu1 Ti0 2.891684 1_455
Cu2 Cu8 2.421649 1_556
Cu2 Ti8 2.637622 1_555
Cu2 Ti11 2.637746 1_555
Cu2 Ti1 2.637764 1_555
Cu2 Cu5 2.645119 1_456
Cu2 Cu7 2.645122 1_546
Cu2 Ti10 2.891411 1_555
Cu2 Ti3 2.891627 1_545
Cu2 Ti2 2.891651 1_455
Cu3 Cu9 2.421679 1_655
Cu3 Ti10 2.637612 1_555
Cu3 Ti2 2.637617 1_555
Cu3 Ti0 2.637637 1_555
Cu3 Cu4 2.645048 1_545
Cu3 Cu6 2.645356 1_546
Cu3 Ti1 2.891436 1_555
Cu3 Ti9 2.891586 1_556
Cu3 Ti8 2.891601 1_655
Cu4 Cu8 2.421691 1_656
Cu4 Cu9 2.421701 1_665
Cu4 Ti3 2.637594 1_555
Cu4 Ti7 2.637617 1_555
Cu4 Ti2 2.637623 1_555
Cu4 Cu6 2.645051 1_556
Cu4 Ti6 2.891580 1_556
Cu4 Ti1 2.891589 1_565
Cu4 Ti11 2.891596 1_655
Cu5 Cu8 2.421675 1_655
Cu5 Cu9 2.421684 1_655
Cu5 Ti9 2.637620 1_555
Cu5 Ti6 2.637744 1_555
Cu5 Ti1 2.637762 1_555
Cu5 Cu7 2.645128 1_645
Cu5 Ti0 2.891448 1_555
Cu5 Ti7 2.891660 1_545
Cu5 Ti2 2.891664 1_554
Cu6 Cu8 2.421711 1_655
Cu6 Ti7 2.637622 1_555
Cu6 Ti5 2.637624 1_555
Cu6 Ti0 2.637647 1_555
Cu6 Ti6 2.891432 1_555
Cu6 Ti4 2.891588 1_655
Cu6 Ti9 2.891590 1_565
Cu7 Cu9 2.421694 1_565
Cu7 Ti4 2.637622 1_555
Cu7 Ti6 2.637762 1_555
Cu7 Ti11 2.637762 1_555
Cu7 Ti5 2.891428 1_555
Cu7 Ti3 2.891646 1_554
Cu7 Ti7 2.891670 1_455
Cu8 Ti2 2.890081 1_454
Cu8 Ti4 2.890125 1_555
Cu8 Ti11 2.890203 1_554
Cu8 Ti6 2.890232 1_455
Cu8 Ti10 2.890234 1_554
Cu8 Ti0 2.890290 1_455
Cu9 Ti8 2.890109 1_555
Cu9 Ti7 2.890110 1_445
Cu9 Ti1 2.890236 1_455
Cu9 Ti5 2.890242 1_545
Cu9 Ti0 2.890243 1_455
Cu9 Ti11 2.890247 1_545
Cu10 Cu2 2.421634 1_554
Cu10 Cu7 2.421671 1_545
Cu10 Cu3 2.421683 1_554
Cu10 Cu4 2.421701 1_544
Cu10 Cu6 2.421715 1_545
Cu10 Ti3 2.890056 1_544
Cu10 Ti9 2.890120 1_555
Cu10 Ti10 2.890185 1_554
Cu10 Ti1 2.890207 1_554
Cu10 Ti5 2.890247 1_545
Cu10 Ti6 2.890254 1_545
Cu11 Cu2 2.421666 1_554
Cu11 Cu3 2.421688 1_454
Cu11 Cu7 2.421716 1_545
Cu11 Cu5 2.421717 1_455
Cu11 Cu6 2.421741 1_445
Cu11 Ti8 2.890190 1_554
Cu11 Ti9 2.890251 1_455
Cu11 Ti4 2.890265 1_545
Cu11 Ti2 2.890318 1_454
Cu11 Ti3 2.890322 1_544
Cu11 Ti7 2.890409 1_445
O0 Ti1 2.090286 1_555
O0 Ti3 2.090448 1_545
O0 Ti7 2.090450 1_545
O0 Ti5 2.090464 1_545
O0 Ti9 2.090551 1_555
O0 Ti8 2.090593 1_555
O1 Ti6 2.090302 1_555
O1 Ti2 2.090453 1_554
O1 Ti10 2.090470 1_554
O1 Ti3 2.090488 1_554
O1 Ti9 2.090545 1_555
O1 Ti4 2.090616 1_555
O2 Ti11 2.090275 1_555
O2 Ti2 2.090405 1_455
O2 Ti0 2.090426 1_455
O2 Ti7 2.090445 1_455
O2 Ti8 2.090514 1_555
O2 Ti4 2.090548 1_555
O3 Ti10 2.090466 1_555
O3 Ti0 2.090467 1_555
O3 Ti1 2.090476 1_555
O3 Ti5 2.090503 1_555
O3 Ti6 2.090505 1_555
O3 Ti11 2.090541 1_555
