# generated using pymatgen
data_Ba2MgFeReO6
_symmetry_space_group_name_H-M   'P 1'
_cell_length_a   6.02161236
_cell_length_b   6.51978574
_cell_length_c   6.00941700
_cell_angle_alpha   89.93827820
_cell_angle_beta   119.92446682
_cell_angle_gamma   118.26406489
_symmetry_Int_Tables_number   1
_chemical_formula_structural   Ba2MgFeReO6
_chemical_formula_sum   'Ba2 Mg1 Fe1 Re1 O6'
_cell_volume   171.33796758
_cell_formula_units_Z   1
loop_
 _symmetry_equiv_pos_site_id
 _symmetry_equiv_pos_as_xyz
  1  'x, y, z'
loop_
 _atom_site_type_symbol
 _atom_site_label
 _atom_site_symmetry_multiplicity
 _atom_site_fract_x
 _atom_site_fract_y
 _atom_site_fract_z
 _atom_site_occupancy
  Ba  Ba0  1  0.45989621  0.18778649  0.72977441  1
  Ba  Ba1  1  0.58641999  0.88674754  0.29336328  1
  Mg  Mg0  1  0.17528893  0.26459740  0.08743441  1
  Fe  Fe0  1  0.84425044  0.76942878  0.92238268  1
  Re  Re0  1  0.02156287  0.53397653  0.51076661  1
  O  O0  1  0.02559320  0.76819224  0.74493462  1
  O  O1  1  0.02071303  0.30562137  0.27925486  1
  O  O2  1  0.49033044  0.77622067  0.74385356  1
  O  O3  1  0.02305643  0.76967500  0.28174484  1
  O  O4  1  0.55899016  0.29815739  0.28082291  1
  O  O5  1  0.02306532  0.30417758  0.74025182  1
loop_
_geom_bond_atom_site_label_1
_geom_bond_atom_site_label_2
_geom_bond_distance
_geom_bond_site_symmetry_2
Ba0 O2 2.773215 1_545
Ba0 O3 2.785324 1_545
Ba0 O0 2.791590 1_545
Ba0 O1 3.052997 1_656
Ba0 O4 3.057465 1_555
Ba0 O5 3.070805 1_655
Ba0 O4 3.076814 1_556
Ba0 O5 3.091073 1_555
Ba0 O1 3.112890 1_555
Ba0 Fe0 3.178280 1_555
Ba1 O4 2.763051 1_565
Ba1 O5 2.779559 1_665
Ba1 O1 2.785893 1_665
Ba1 O0 3.048407 1_554
Ba1 O2 3.057232 1_555
Ba1 O3 3.067096 1_555
Ba1 O2 3.076151 1_554
Ba1 O3 3.095867 1_655
Ba1 O0 3.118724 1_655
Mg0 O1 1.890411 1_555
Mg0 O5 1.890642 1_554
Mg0 O4 1.891989 1_555
Fe0 O0 1.870757 1_655
Fe0 O3 1.871219 1_656
Fe0 O2 1.871609 1_555
O0 Re0 2.061101 1_555
O1 Re0 2.035277 1_555
O2 Re0 2.064467 1_555
O3 Re0 2.061652 1_555
O4 Re0 2.034806 1_655
O5 Re0 2.035334 1_555
