# generated using pymatgen
data_Zn2Ge3O8
_symmetry_space_group_name_H-M   'P 1'
_cell_length_a   8.34598800
_cell_length_b   8.34598800
_cell_length_c   8.34598800
_cell_angle_alpha   90.00000000
_cell_angle_beta   90.00000000
_cell_angle_gamma   90.00000000
_symmetry_Int_Tables_number   1
_chemical_formula_structural   Zn2Ge3O8
_chemical_formula_sum   'Zn8 Ge12 O32'
_cell_volume   581.34409813
_cell_formula_units_Z   4
loop_
 _symmetry_equiv_pos_site_id
 _symmetry_equiv_pos_as_xyz
  1  'x, y, z'
loop_
 _atom_site_type_symbol
 _atom_site_label
 _atom_site_symmetry_multiplicity
 _atom_site_fract_x
 _atom_site_fract_y
 _atom_site_fract_z
 _atom_site_occupancy
  Zn  Zn0  1  0.24831700  0.24831700  0.24831700  1
  Zn  Zn1  1  0.99831700  0.50168300  0.49831700  1
  Zn  Zn2  1  0.50168300  0.49831700  0.99831700  1
  Zn  Zn3  1  0.49831700  0.99831700  0.50168300  1
  Zn  Zn4  1  0.74831700  0.25168300  0.75168300  1
  Zn  Zn5  1  0.25168300  0.75168300  0.74831700  1
  Zn  Zn6  1  0.75168300  0.74831700  0.25168300  1
  Zn  Zn7  1  0.00168300  0.00168300  0.00168300  1
  Ge  Ge0  1  0.62500000  0.12926400  0.12073600  1
  Ge  Ge1  1  0.62073600  0.87500000  0.87073600  1
  Ge  Ge2  1  0.62926400  0.37926400  0.37500000  1
  Ge  Ge3  1  0.37073600  0.87926400  0.12500000  1
  Ge  Ge4  1  0.87926400  0.12500000  0.37073600  1
  Ge  Ge5  1  0.12073600  0.62500000  0.12926400  1
  Ge  Ge6  1  0.37926400  0.37500000  0.62926400  1
  Ge  Ge7  1  0.87073600  0.62073600  0.87500000  1
  Ge  Ge8  1  0.12926400  0.12073600  0.62500000  1
  Ge  Ge9  1  0.37500000  0.62926400  0.37926400  1
  Ge  Ge10  1  0.87500000  0.87073600  0.62073600  1
  Ge  Ge11  1  0.12500000  0.37073600  0.87926400  1
  O  O0  1  0.86170600  0.86170600  0.86170600  1
  O  O1  1  0.61170600  0.88829400  0.11170600  1
  O  O2  1  0.88829400  0.11170600  0.61170600  1
  O  O3  1  0.11170600  0.61170600  0.88829400  1
  O  O4  1  0.36170600  0.63829400  0.13829400  1
  O  O5  1  0.63829400  0.13829400  0.36170600  1
  O  O6  1  0.13829400  0.36170600  0.63829400  1
  O  O7  1  0.38829400  0.38829400  0.38829400  1
  O  O8  1  0.15145100  0.85438100  0.11039300  1
  O  O9  1  0.65145100  0.64561900  0.88960700  1
  O  O10  1  0.85438100  0.11039300  0.15145100  1
  O  O11  1  0.14561900  0.61039300  0.34854900  1
  O  O12  1  0.11039300  0.15145100  0.85438100  1
  O  O13  1  0.38960700  0.84854900  0.35438100  1
  O  O14  1  0.40145100  0.86039300  0.89561900  1
  O  O15  1  0.90145100  0.63960700  0.10438100  1
  O  O16  1  0.59854900  0.36039300  0.60438100  1
  O  O17  1  0.63960700  0.10438100  0.90145100  1
  O  O18  1  0.60438100  0.59854900  0.36039300  1
  O  O19  1  0.10438100  0.90145100  0.63960700  1
  O  O20  1  0.09854900  0.13960700  0.39561900  1
  O  O21  1  0.84854900  0.35438100  0.38960700  1
  O  O22  1  0.34854900  0.14561900  0.61039300  1
  O  O23  1  0.64561900  0.88960700  0.65145100  1
  O  O24  1  0.35438100  0.38960700  0.84854900  1
  O  O25  1  0.61039300  0.34854900  0.14561900  1
  O  O26  1  0.88960700  0.65145100  0.64561900  1
  O  O27  1  0.39561900  0.09854900  0.13960700  1
  O  O28  1  0.13960700  0.39561900  0.09854900  1
  O  O29  1  0.36039300  0.60438100  0.59854900  1
  O  O30  1  0.89561900  0.40145100  0.86039300  1
  O  O31  1  0.86039300  0.89561900  0.40145100  1
loop_
_geom_bond_atom_site_label_1
_geom_bond_atom_site_label_2
_geom_bond_distance
_geom_bond_site_symmetry_2
Ge0 O25 1.845925 1_555
Ge0 O17 1.845925 1_554
Ge0 O10 1.937908 1_555
Ge0 O27 1.937908 1_555
Ge0 O1 2.015600 1_545
Ge0 O5 2.015600 1_555
Ge1 O14 1.845925 1_555
Ge1 O23 1.845925 1_555
Ge1 O9 1.937908 1_555
Ge1 O17 1.937908 1_565
Ge1 O0 2.015600 1_555
Ge1 O1 2.015600 1_556
Ge2 O21 1.845925 1_555
Ge2 O18 1.845925 1_555
Ge2 O16 1.937908 1_555
Ge2 O25 1.937908 1_555
Ge2 O5 2.015600 1_555
Ge2 O7 2.015600 1_555
Ge3 O27 1.845925 1_565
Ge3 O8 1.845925 1_555
Ge3 O14 1.937908 1_554
Ge3 O13 1.937908 1_555
Ge3 O1 2.015600 1_555
Ge3 O4 2.015600 1_555
Ge4 O20 1.845925 1_655
Ge4 O10 1.845925 1_555
Ge4 O31 1.937908 1_545
Ge4 O21 1.937908 1_555
Ge4 O2 2.015600 1_555
Ge4 O5 2.015600 1_555
Ge5 O15 1.845925 1_455
Ge5 O11 1.845925 1_555
Ge5 O8 1.937908 1_555
Ge5 O28 1.937908 1_555
Ge5 O3 2.015600 1_554
Ge5 O4 2.015600 1_555
Ge6 O24 1.845925 1_555
Ge6 O16 1.845925 1_555
Ge6 O29 1.937908 1_555
Ge6 O22 1.937908 1_555
Ge6 O6 2.015600 1_555
Ge6 O7 2.015600 1_555
Ge7 O9 1.845925 1_555
Ge7 O30 1.845925 1_555
Ge7 O26 1.937908 1_555
Ge7 O15 1.937908 1_556
Ge7 O0 2.015600 1_555
Ge7 O3 2.015600 1_655
Ge8 O19 1.845925 1_545
Ge8 O22 1.845925 1_555
Ge8 O12 1.937908 1_555
Ge8 O20 1.937908 1_555
Ge8 O2 2.015600 1_455
Ge8 O6 2.015600 1_555
Ge9 O13 1.845925 1_555
Ge9 O29 1.845925 1_555
Ge9 O18 1.937908 1_555
Ge9 O11 1.937908 1_555
Ge9 O4 2.015600 1_555
Ge9 O7 2.015600 1_555
Ge10 O31 1.845925 1_555
Ge10 O26 1.845925 1_555
Ge10 O23 1.937908 1_555
Ge10 O19 1.937908 1_655
Ge10 O0 2.015600 1_555
Ge10 O2 2.015600 1_565
Ge11 O28 1.845925 1_556
Ge11 O12 1.845925 1_555
Ge11 O30 1.937908 1_455
Ge11 O24 1.937908 1_555
Ge11 O3 2.015600 1_555
Ge11 O6 2.015600 1_555
O0 Zn7 2.023462 1_666
O1 Zn6 2.023462 1_555
O2 Zn4 2.023462 1_555
O3 Zn5 2.023462 1_555
O4 Zn2 2.023462 1_554
O5 Zn3 2.023462 1_545
O6 Zn1 2.023462 1_455
O7 Zn0 2.023462 1_555
O8 Zn7 1.974072 1_565
O9 Zn2 1.974072 1_555
O10 Zn7 1.974072 1_655
O11 Zn1 1.974072 1_455
O12 Zn7 1.974072 1_556
O13 Zn3 1.974072 1_555
O14 Zn5 1.974072 1_555
O15 Zn6 1.974072 1_555
O16 Zn4 1.974072 1_555
O17 Zn4 1.974072 1_555
O18 Zn6 1.974072 1_555
O19 Zn5 1.974072 1_555
O20 Zn0 1.974072 1_555
O21 Zn1 1.974072 1_555
O22 Zn3 1.974072 1_545
O23 Zn3 1.974072 1_555
O24 Zn2 1.974072 1_555
O25 Zn2 1.974072 1_554
O26 Zn1 1.974072 1_555
O27 Zn0 1.974072 1_555
O28 Zn0 1.974072 1_555
O29 Zn5 1.974072 1_555
O30 Zn4 1.974072 1_555
O31 Zn6 1.974072 1_555
