# generated using pymatgen
data_Na5Mg3GeP3(SO8)3
_symmetry_space_group_name_H-M   'P 1'
_cell_length_a   8.81285963
_cell_length_b   8.78026449
_cell_length_c   22.02200005
_cell_angle_alpha   90.48709538
_cell_angle_beta   89.78107668
_cell_angle_gamma   119.94968754
_symmetry_Int_Tables_number   1
_chemical_formula_structural   Na5Mg3GeP3(SO8)3
_chemical_formula_sum   'Na15 Mg9 Ge3 P9 S9 O72'
_cell_volume   1476.44084872
_cell_formula_units_Z   3
loop_
 _symmetry_equiv_pos_site_id
 _symmetry_equiv_pos_as_xyz
  1  'x, y, z'
loop_
 _atom_site_type_symbol
 _atom_site_label
 _atom_site_symmetry_multiplicity
 _atom_site_fract_x
 _atom_site_fract_y
 _atom_site_fract_z
 _atom_site_occupancy
  Na  Na0  1  -0.00022910  0.63694019  0.25751654  1
  Na  Na1  1  0.29957627  0.33918848  0.58882345  1
  Na  Na2  1  0.03123580  0.69555926  0.58151834  1
  Na  Na3  1  0.67041041  0.96138102  0.57955463  1
  Na  Na4  1  0.66814773  0.69970962  0.08137445  1
  Na  Na5  1  0.03509825  0.33814963  0.08531909  1
  Na  Na6  1  0.97916066  0.67730655  0.91131240  1
  Na  Na7  1  0.32688579  0.29801086  0.90726425  1
  Na  Na8  1  0.69526203  0.67734991  0.41765858  1
  Na  Na9  1  0.00065591  0.00701868  0.49506520  1
  Na  Na10  1  0.00083221  0.99509518  0.99478134  1
  Na  Na11  1  0.65884476  0.32030694  0.82527595  1
  Na  Na12  1  0.65284102  0.29992599  0.33501468  1
  Na  Na13  1  0.33742268  0.68085804  0.17162709  1
  Na  Na14  1  0.33152225  0.65346554  0.66938575  1
  Mg  Mg0  1  0.00123081  0.00546175  0.35429321  1
  Mg  Mg1  1  0.99882788  0.00599027  0.84843806  1
  Mg  Mg2  1  0.00011048  0.00813584  0.65366699  1
  Mg  Mg3  1  0.00496069  0.99359830  0.15099672  1
  Mg  Mg4  1  0.66578848  0.33979095  0.68820253  1
  Mg  Mg5  1  0.66513509  0.33022672  0.18782572  1
  Mg  Mg6  1  0.32894307  0.67028320  0.01642457  1
  Mg  Mg7  1  0.33188364  0.66705512  0.51355589  1
  Mg  Mg8  1  0.33659346  0.67593501  0.32209887  1
  Ge  Ge0  1  0.67229817  0.33600762  0.97657386  1
  Ge  Ge1  1  0.69054160  0.33916160  0.48045894  1
  Ge  Ge2  1  0.33604802  0.66341412  0.81683581  1
  P  P0  1  0.30056749  0.30464513  0.75336303  1
  P  P1  1  0.95840308  0.33343030  0.58510181  1
  P  P2  1  0.66565670  0.62059207  0.58219313  1
  P  P3  1  0.95625106  0.62294269  0.08318679  1
  P  P4  1  0.62544539  0.66666537  0.92029872  1
  P  P5  1  0.03939813  0.37436619  0.91914566  1
  P  P6  1  0.34184028  0.95982432  0.91713935  1
  P  P7  1  0.63030482  0.97070030  0.42002140  1
  P  P8  1  0.03407542  0.66562746  0.41742135  1
  S  S0  1  0.29560890  0.00082732  0.25039268  1
  S  S1  1  0.69890878  0.70435676  0.24904439  1
  S  S2  1  0.00315715  0.29582029  0.24813274  1
  S  S3  1  0.00925097  0.70459525  0.75261314  1
  S  S4  1  0.69433876  0.99182345  0.75135203  1
  S  S5  1  0.37938859  0.04674161  0.58308615  1
  S  S6  1  0.66408314  0.04531637  0.08196345  1
  S  S7  1  0.37551076  0.32840797  0.08145366  1
  S  S8  1  0.33732758  0.36843692  0.41853194  1
  O  O0  1  0.20954818  0.02061476  0.30404461  1
  O  O1  1  0.81206303  0.79163999  0.30208335  1
  O  O2  1  0.98704107  0.18755572  0.29994457  1
  O  O3  1  0.21062645  0.20014868  0.81004464  1
  O  O4  1  0.98938756  0.78964729  0.80782404  1
  O  O5  1  0.80052464  0.00941076  0.80459032  1
  O  O6  1  0.76719497  0.96243318  0.69449273  1
  O  O7  1  0.19224793  0.22847292  0.69436936  1
  O  O8  1  0.03036136  0.80692661  0.69704759  1
  O  O9  1  0.77873743  0.80415651  0.19202160  1
  O  O10  1  0.01763211  0.21535923  0.18970513  1
  O  O11  1  0.18968893  0.97434139  0.19469019  1
  O  O12  1  0.86857112  0.36320653  0.63870582  1
  O  O13  1  0.48701616  0.12429966  0.63714718  1
  O  O14  1  0.63063481  0.50024633  0.63516839  1
  O  O15  1  0.86730660  0.50845573  0.13815362  1
  O  O16  1  0.64249275  0.12769017  0.13566951  1
  O  O17  1  0.48701032  0.35075556  0.13348489  1
  O  O18  1  0.45250365  0.30239249  0.02305361  1
  O  O19  1  0.83140716  0.53209211  0.02348480  1
  O  O20  1  0.69480899  0.15704618  0.02573877  1
  O  O21  1  0.45943859  0.16001983  0.52797276  1
  O  O22  1  0.69900214  0.53464369  0.52164901  1
  O  O23  1  0.83822404  0.29412108  0.52605368  1
  O  O24  1  0.54856349  0.68660718  0.97949690  1
  O  O25  1  0.14336743  0.44877547  0.97764258  1
  O  O26  1  0.30882729  0.84952129  0.97273638  1
  O  O27  1  0.55327247  0.86160389  0.47763178  1
  O  O28  1  0.31592880  0.44545382  0.47541687  1
  O  O29  1  0.13456335  0.68244776  0.47570710  1
  O  O30  1  0.10968604  0.63331961  0.35902201  1
  O  O31  1  0.51766422  0.88775423  0.36384330  1
  O  O32  1  0.36820721  0.48476446  0.36606180  1
  O  O33  1  0.12637906  0.50755971  0.86499568  1
  O  O34  1  0.37583312  0.87382914  0.85931893  1
  O  O35  1  0.49576748  0.62379897  0.86567761  1
  O  O36  1  -0.00148200  0.81984619  0.41228202  1
  O  O37  1  0.81531027  0.99726430  0.41250515  1
  O  O38  1  0.18603973  0.19346132  0.41132508  1
  O  O39  1  0.01453491  0.19155174  0.90965942  1
  O  O40  1  0.18424147  0.98791716  0.90926814  1
  O  O41  1  0.81197323  0.81661565  0.91028522  1
  O  O42  1  0.97573728  0.16641015  0.58760959  1
  O  O43  1  0.20138630  0.02671235  0.58807555  1
  O  O44  1  0.83518285  0.80212684  0.58669981  1
  O  O45  1  0.96530194  0.80334415  0.08456497  1
  O  O46  1  0.82690268  0.03004208  0.08460211  1
  O  O47  1  0.19608738  0.17609064  0.08541489  1
  O  O48  1  0.67129866  0.14581261  0.74687830  1
  O  O49  1  0.48578903  0.33384186  0.74884024  1
  O  O50  1  0.85797307  0.52615116  0.74889790  1
  O  O51  1  0.68819954  0.52872238  0.24473769  1
  O  O52  1  0.84489721  0.31767489  0.24629627  1
  O  O53  1  0.47165604  0.15703019  0.24462727  1
  O  O54  1  0.63609608  0.48698755  0.92202539  1
  O  O55  1  0.85425445  0.36552340  0.92231466  1
  O  O56  1  0.51111462  0.15185064  0.92299061  1
  O  O57  1  0.63910221  0.15651556  0.42629534  1
  O  O58  1  0.50436794  0.35759650  0.42238931  1
  O  O59  1  0.84082652  0.49348549  0.42152211  1
  O  O60  1  0.36254143  0.49195429  0.07849509  1
  O  O61  1  0.13525448  0.63600559  0.07671130  1
  O  O62  1  0.51142083  0.86621527  0.07663046  1
  O  O63  1  0.35811319  0.86822815  0.57644672  1
  O  O64  1  0.50522747  0.64498843  0.57498391  1
  O  O65  1  0.14132153  0.49775687  0.57705125  1
  O  O66  1  0.31030475  0.83784658  0.25402492  1
  O  O67  1  0.52271859  0.68275653  0.25466103  1
  O  O68  1  0.16055489  0.47570701  0.25197529  1
  O  O69  1  0.31120364  0.49456088  0.76042967  1
  O  O70  1  0.17743174  0.69556196  0.75762958  1
  O  O71  1  0.51467505  0.82565157  0.75752430  1
loop_
_geom_bond_atom_site_label_1
_geom_bond_atom_site_label_2
_geom_bond_distance
_geom_bond_site_symmetry_2
Na0 O66 2.405746 1_555
Na0 O51 2.432681 1_455
Na0 O52 2.439798 1_455
Na0 O30 2.446351 1_555
Na0 O68 2.454680 1_555
Na0 O1 2.784463 1_455
Na0 O15 2.864111 1_455
Na0 O11 2.931384 1_555
Na1 O64 2.395350 1_555
Na1 O65 2.428677 1_555
Na1 O43 2.430091 1_555
Na1 O42 2.474686 1_455
Na1 O7 2.519070 1_555
Na1 O28 2.651631 1_555
Na1 O14 2.726224 1_555
Na1 O21 2.901389 1_555
Na2 O44 2.341940 1_455
Na2 O65 2.376128 1_555
Na2 O63 2.499840 1_555
Na2 O29 2.521126 1_555
Na2 O43 2.522845 1_565
Na2 O8 2.719223 1_555
Na2 O12 2.833448 1_455
Na2 O22 2.859125 1_455
Na3 O42 2.382062 1_565
Na3 O64 2.409379 1_555
Na3 O27 2.439760 1_555
Na3 O63 2.449751 1_555
Na3 O44 2.474169 1_555
Na3 O6 2.672573 1_555
Na3 O23 2.800328 1_565
Na3 O13 2.920438 1_565
Na4 O45 2.304765 1_555
Na4 O60 2.383089 1_555
Na4 O24 2.459680 1_554
Na4 O62 2.464936 1_555
Na4 O46 2.514033 1_565
Na4 O9 2.610743 1_555
Na4 O19 2.815965 1_555
Na4 O17 2.900854 1_555
Na5 O61 2.314488 1_555
Na5 O46 2.393455 1_455
Na5 O47 2.460373 1_555
Na5 O60 2.506528 1_555
Na5 O10 2.518775 1_555
Na5 O25 2.563828 1_554
Na5 O15 2.818070 1_455
Na5 O20 2.911489 1_455
Na6 O41 2.338326 1_555
Na6 O55 2.401028 1_555
Na6 O40 2.405468 1_655
Na6 O4 2.474448 1_555
Na6 O33 2.615303 1_655
Na6 O54 2.635453 1_555
Na6 O19 2.791893 1_556
Na6 O26 2.857589 1_655
Na7 O3 2.340573 1_555
Na7 O40 2.362093 1_545
Na7 O54 2.401570 1_555
Na7 O39 2.425796 1_555
Na7 O56 2.548560 1_555
Na7 O35 2.649448 1_555
Na7 O18 2.776055 1_556
Na8 O36 2.320206 1_655
Na8 O58 2.451713 1_555
Na8 O37 2.461614 1_555
Na8 O59 2.515977 1_555
Na8 O22 2.627955 1_555
Na8 O1 2.745292 1_555
Na8 O32 2.753900 1_555
Na8 O27 2.810659 1_555
Na9 O37 2.421033 1_445
Na9 O36 2.437851 1_545
Na9 O38 2.471371 1_555
Na9 O42 2.532839 1_455
Na9 O44 2.618209 1_445
Na9 O43 2.659128 1_555
Na10 O41 2.461353 1_455
Na10 O40 2.497872 1_555
Na10 O39 2.519766 1_565
Na10 O45 2.523392 1_456
Na10 O47 2.590779 1_566
Na10 O46 2.606228 1_466
Na11 O49 2.318939 1_555
Na11 O48 2.337003 1_555
Na11 O50 2.457144 1_555
Na11 O56 2.573566 1_555
Na11 O54 2.637845 1_555
Na11 O55 2.649728 1_555
Na12 O57 2.351591 1_555
Na12 O53 2.463216 1_555
Na12 O58 2.509314 1_555
Na12 O59 2.533775 1_555
Na12 O52 2.534317 1_555
Na12 O51 2.742872 1_555
Na13 O66 2.352196 1_555
Na13 O67 2.450658 1_555
Na13 O68 2.456578 1_555
Na13 O62 2.630242 1_555
Na13 O61 2.648100 1_555
Na13 O60 2.704024 1_555
Na14 O69 2.407069 1_555
Na14 O71 2.489158 1_555
Na14 O70 2.495185 1_555
Na14 O65 2.550316 1_555
Na14 O64 2.599563 1_555
Na14 O63 2.724042 1_555
Mg0 O37 2.049629 1_445
Mg0 O2 2.058569 1_455
Mg0 O38 2.061758 1_555
Mg0 O36 2.069716 1_545
Mg0 O0 2.087038 1_555
Mg0 O1 2.116305 1_445
Mg1 O3 1.985034 1_655
Mg1 O5 2.013276 1_555
Mg1 O4 2.056465 1_545
Mg1 O39 2.056767 1_655
Mg1 O41 2.149170 1_545
Mg1 O40 2.183802 1_645
Mg2 O7 2.030919 1_555
Mg2 O6 2.086221 1_445
Mg2 O42 2.104373 1_455
Mg2 O8 2.146104 1_545
Mg2 O44 2.214781 1_445
Mg2 O43 2.225987 1_555
Mg3 O11 1.973414 1_555
Mg3 O9 2.063575 1_455
Mg3 O10 2.070216 1_565
Mg3 O45 2.105306 1_455
Mg3 O47 2.194619 1_565
Mg3 O46 2.286807 1_465
Mg4 O14 1.977722 1_555
Mg4 O12 2.011512 1_555
Mg4 O49 2.050504 1_555
Mg4 O13 2.080195 1_555
Mg4 O50 2.132040 1_555
Mg4 O48 2.166411 1_555
Mg5 O15 2.012517 1_555
Mg5 O16 2.033276 1_555
Mg5 O53 2.052235 1_555
Mg5 O17 2.056538 1_555
Mg5 O51 2.064149 1_555
Mg5 O52 2.090989 1_555
Mg6 O26 1.933751 1_554
Mg6 O25 1.998305 1_554
Mg6 O24 2.034929 1_554
Mg6 O61 2.059950 1_555
Mg6 O62 2.125736 1_555
Mg6 O60 2.215894 1_555
Mg7 O29 1.996152 1_555
Mg7 O27 2.008459 1_555
Mg7 O28 2.052064 1_555
Mg7 O65 2.123684 1_555
Mg7 O64 2.125331 1_555
Mg7 O63 2.155174 1_555
Mg8 O31 1.967059 1_555
Mg8 O30 2.011376 1_555
Mg8 O32 2.080631 1_555
Mg8 O66 2.165599 1_555
Mg8 O67 2.187356 1_555
Mg8 O68 2.265215 1_555
Ge0 O19 1.888899 1_556
Ge0 O55 1.908405 1_555
Ge0 O56 1.926587 1_555
Ge0 O54 1.937643 1_555
Ge0 O20 2.005620 1_556
Ge0 O18 2.075092 1_556
Ge1 O23 1.840967 1_555
Ge1 O57 1.856278 1_555
Ge1 O59 1.870726 1_555
Ge1 O22 1.902789 1_555
Ge1 O21 2.128383 1_555
Ge1 O58 2.153659 1_555
Ge2 O69 1.853543 1_555
Ge2 O34 1.933339 1_555
Ge2 O35 1.940612 1_555
Ge2 O33 1.974012 1_555
Ge2 O71 1.997561 1_555
Ge2 O70 2.036627 1_555
O0 S0 1.456930 1_555
O1 S1 1.475346 1_555
O2 S2 1.451921 1_655
O3 P0 1.521174 1_555
O4 S3 1.476512 1_655
O5 S4 1.461212 1_545
O6 S4 1.483422 1_555
O7 P0 1.550360 1_555
O8 S3 1.479632 1_555
O9 S1 1.495370 1_555
O10 S2 1.498074 1_555
O11 S0 1.489067 1_565
O12 P1 1.510921 1_555
O13 S5 1.459684 1_555
O14 P2 1.505119 1_555
O15 P3 1.522121 1_555
O16 S6 1.441968 1_555
O17 S7 1.459198 1_555
O18 S7 1.519765 1_555
O19 P3 1.640829 1_555
O20 S6 1.523699 1_555
O21 S5 1.507782 1_555
O22 P2 1.623231 1_555
O23 P1 1.603026 1_555
O24 P4 1.515615 1_555
O25 P5 1.524103 1_555
O26 P6 1.502587 1_555
O27 P7 1.533885 1_555
O28 S8 1.474205 1_555
O29 P8 1.525941 1_555
O30 P8 1.534421 1_555
O31 P7 1.522689 1_555
O32 S8 1.480740 1_555
O33 P5 1.580801 1_555
O34 P6 1.577276 1_555
O35 P4 1.570968 1_555
O36 P8 1.539835 1_555
O37 P7 1.535898 1_555
O38 S8 1.454430 1_555
O39 P5 1.520413 1_555
O40 P6 1.537711 1_555
O41 P4 1.524947 1_555
O42 P1 1.549864 1_555
O43 S5 1.492449 1_555
O44 P2 1.550237 1_555
O45 P3 1.545737 1_555
O46 S6 1.507724 1_555
O47 S7 1.478492 1_555
O48 S4 1.468180 1_545
O49 P0 1.523652 1_555
O50 S3 1.466942 1_655
O51 S1 1.499428 1_555
O52 S2 1.500499 1_655
O53 S0 1.476842 1_555
O54 P4 1.627280 1_555
O55 P5 1.595586 1_655
O56 P6 1.603484 1_545
O57 P7 1.599020 1_545
O58 S8 1.524585 1_555
O59 P8 1.619893 1_655
O60 S7 1.498290 1_555
O61 P3 1.529705 1_455
O62 S6 1.477290 1_565
O63 S5 1.488670 1_565
O64 P2 1.541013 1_555
O65 P1 1.546499 1_455
O66 S0 1.502681 1_565
O67 S1 1.472128 1_555
O68 S2 1.495662 1_555
O69 P0 1.628873 1_555
O70 S3 1.527760 1_555
O71 S4 1.532754 1_555
