# generated using pymatgen
data_Ba2GdRuO6
_symmetry_space_group_name_H-M   'P 1'
_cell_length_a   6.01122416
_cell_length_b   6.00111700
_cell_length_c   8.48648586
_cell_angle_alpha   90.00000000
_cell_angle_beta   90.01897811
_cell_angle_gamma   90.00000000
_symmetry_Int_Tables_number   1
_chemical_formula_structural   Ba2GdRuO6
_chemical_formula_sum   'Ba4 Gd2 Ru2 O12'
_cell_volume   306.14197904
_cell_formula_units_Z   2
loop_
 _symmetry_equiv_pos_site_id
 _symmetry_equiv_pos_as_xyz
  1  'x, y, z'
loop_
 _atom_site_type_symbol
 _atom_site_label
 _atom_site_symmetry_multiplicity
 _atom_site_fract_x
 _atom_site_fract_y
 _atom_site_fract_z
 _atom_site_occupancy
  Ba  Ba0  1  0.50022300  0.50043500  0.24979000  1
  Ba  Ba1  1  0.99977700  0.00043500  0.25021000  1
  Ba  Ba2  1  0.00022300  0.99956500  0.74979000  1
  Ba  Ba3  1  0.49977700  0.49956500  0.75021000  1
  Gd  Gd0  1  0.50000000  0.00000000  0.50000000  1
  Gd  Gd1  1  0.00000000  0.50000000  0.00000000  1
  Ru  Ru0  1  0.50000000  0.00000000  0.00000000  1
  Ru  Ru1  1  0.00000000  0.50000000  0.50000000  1
  O  O0  1  0.97928500  0.50012600  0.73352600  1
  O  O1  1  0.52071500  0.00012600  0.76647400  1
  O  O2  1  0.02071500  0.49987400  0.26647400  1
  O  O3  1  0.47928500  0.99987400  0.23352600  1
  O  O4  1  0.76832600  0.73556300  0.48954600  1
  O  O5  1  0.73167400  0.23556300  0.01045400  1
  O  O6  1  0.23167400  0.26443700  0.51045400  1
  O  O7  1  0.26832600  0.76443700  0.98954600  1
  O  O8  1  0.26488500  0.23208000  0.98949400  1
  O  O9  1  0.23511500  0.73208000  0.51050600  1
  O  O10  1  0.73511500  0.76792000  0.01050600  1
  O  O11  1  0.76488500  0.26792000  0.48949400  1
loop_
_geom_bond_atom_site_label_1
_geom_bond_atom_site_label_2
_geom_bond_distance
_geom_bond_site_symmetry_2
Ba0 O2 2.885954 1_555
Ba0 O5 2.930811 1_555
Ba0 O11 2.934980 1_555
Ba0 O10 2.948893 1_555
Ba0 O4 2.954001 1_555
Ba0 O3 3.003005 1_555
Ba0 O3 3.009725 1_545
Ba0 O7 3.054326 1_554
Ba0 O9 3.061023 1_555
Ba0 O8 3.077723 1_554
Ba0 O6 3.083441 1_555
Ba0 O2 3.131951 1_655
Ba1 O3 2.885954 1_645
Ba1 O4 2.930811 1_545
Ba1 O10 2.934980 1_545
Ba1 O11 2.948893 1_555
Ba1 O5 2.954001 1_555
Ba1 O2 3.003005 1_655
Ba1 O2 3.009725 1_645
Ba1 O6 3.054326 1_655
Ba1 O8 3.061023 1_654
Ba1 O9 3.077723 1_645
Ba1 O7 3.083441 1_644
Ba1 O3 3.131951 1_545
Ba2 O1 2.885954 1_465
Ba2 O6 2.930811 1_565
Ba2 O8 2.934980 1_565
Ba2 O9 2.948893 1_555
Ba2 O7 2.954001 1_555
Ba2 O0 3.003005 1_455
Ba2 O0 3.009725 1_465
Ba2 O4 3.054326 1_455
Ba2 O10 3.061023 1_456
Ba2 O11 3.077723 1_465
Ba2 O5 3.083441 1_466
Ba2 O1 3.131951 1_565
Ba3 O0 2.885954 1_555
Ba3 O7 2.930811 1_555
Ba3 O9 2.934980 1_555
Ba3 O8 2.948893 1_555
Ba3 O6 2.954001 1_555
Ba3 O1 3.003005 1_555
Ba3 O1 3.009725 1_565
Ba3 O5 3.054326 1_556
Ba3 O11 3.061023 1_555
Ba3 O10 3.077723 1_556
Ba3 O4 3.083441 1_555
Ba3 O0 3.131951 1_455
Gd0 O4 2.264495 1_545
Gd0 O6 2.264495 1_555
Gd0 O11 2.264617 1_555
Gd0 O9 2.264617 1_545
Gd0 O1 2.264813 1_555
Gd0 O3 2.264813 1_545
Gd1 O7 2.264495 1_554
Gd1 O5 2.264495 1_455
Gd1 O8 2.264617 1_554
Gd1 O10 2.264617 1_455
Gd1 O2 2.264813 1_555
Gd1 O0 2.264813 1_454
O0 Ru1 1.985765 1_655
O1 Ru0 1.985765 1_556
O2 Ru1 1.985765 1_555
O3 Ru0 1.985765 1_565
O4 Ru1 1.986361 1_655
O5 Ru0 1.986361 1_555
O6 Ru1 1.986361 1_555
O7 Ru0 1.986361 1_566
O8 Ru0 1.986224 1_556
O9 Ru1 1.986224 1_555
O10 Ru0 1.986224 1_565
O11 Ru1 1.986224 1_655
