# generated using pymatgen
data_Li2Ga
_symmetry_space_group_name_H-M   'P 1'
_cell_length_a   4.31001929
_cell_length_b   4.48749890
_cell_length_c   5.18144325
_cell_angle_alpha   115.66036737
_cell_angle_beta   90.00000000
_cell_angle_gamma   90.00000000
_symmetry_Int_Tables_number   1
_chemical_formula_structural   Li2Ga
_chemical_formula_sum   'Li4 Ga2'
_cell_volume   90.33180326
_cell_formula_units_Z   2
loop_
 _symmetry_equiv_pos_site_id
 _symmetry_equiv_pos_as_xyz
  1  'x, y, z'
loop_
 _atom_site_type_symbol
 _atom_site_label
 _atom_site_symmetry_multiplicity
 _atom_site_fract_x
 _atom_site_fract_y
 _atom_site_fract_z
 _atom_site_occupancy
  Li  Li0  1  0.25000000  0.58190986  0.16381673  1
  Li  Li1  1  0.75000000  0.41809114  0.83618327  1
  Li  Li2  1  0.75000000  0.75944941  0.51889882  1
  Li  Li3  1  0.25000000  0.24055059  0.48110118  1
  Ga  Ga0  1  0.25000000  0.92257348  0.84514595  1
  Ga  Ga1  1  0.75000000  0.07742652  0.15485405  1
loop_
_geom_bond_atom_site_label_1
_geom_bond_atom_site_label_2
_geom_bond_distance
_geom_bond_site_symmetry_2
Ga0 Li2 2.639275 1_455
Ga0 Li2 2.639275 1_555
Ga0 Li0 2.692493 1_556
Ga0 Li0 2.692500 1_566
Ga0 Li3 2.815180 1_565
Ga0 Li3 2.815184 1_555
Ga1 Li3 2.639275 1_555
Ga1 Li3 2.639275 1_655
Ga1 Li1 2.692497 1_544
Ga1 Li1 2.692497 1_554
Ga1 Li2 2.815180 1_545
Ga1 Li2 2.815184 1_555
