# generated using pymatgen
data_KFe(SO4)2
_symmetry_space_group_name_H-M   'P 1'
_cell_length_a   8.31662877
_cell_length_b   9.57491849
_cell_length_c   9.57491837
_cell_angle_alpha   66.11686209
_cell_angle_beta   86.00942190
_cell_angle_gamma   86.00942474
_symmetry_Int_Tables_number   1
_chemical_formula_structural   KFe(SO4)2
_chemical_formula_sum   'K4 Fe4 S8 O32'
_cell_volume   694.76605430
_cell_formula_units_Z   4
loop_
 _symmetry_equiv_pos_site_id
 _symmetry_equiv_pos_as_xyz
  1  'x, y, z'
loop_
 _atom_site_type_symbol
 _atom_site_label
 _atom_site_symmetry_multiplicity
 _atom_site_fract_x
 _atom_site_fract_y
 _atom_site_fract_z
 _atom_site_occupancy
  K  K0  1  0.00000000  0.24999900  0.25000100  1
  K  K1  1  0.00000000  0.74999900  0.75000100  1
  K  K2  1  0.50000000  0.00000100  0.49999900  1
  K  K3  1  0.50000000  0.50000100  0.00000000  1
  Fe  Fe0  1  0.00000100  0.50000600  0.49999400  1
  Fe  Fe1  1  0.50000000  0.24999400  0.75000500  1
  Fe  Fe2  1  0.99999900  0.00000700  0.99999400  1
  Fe  Fe3  1  0.49999900  0.74999400  0.25000600  1
  S  S0  1  0.63179500  0.10113400  0.10115400  1
  S  S1  1  0.63179500  0.60113400  0.60115300  1
  S  S2  1  0.13179500  0.85115400  0.35113500  1
  S  S3  1  0.13179600  0.35115300  0.85113400  1
  S  S4  1  0.36820500  0.39884700  0.39886600  1
  S  S5  1  0.36820500  0.89884600  0.89886600  1
  S  S6  1  0.86820500  0.14886600  0.64884700  1
  S  S7  1  0.86820500  0.64886500  0.14884600  1
  O  O0  1  0.23546700  0.46706900  0.46704900  1
  O  O1  1  0.23546400  0.96706400  0.96705200  1
  O  O2  1  0.73546700  0.21704900  0.71706900  1
  O  O3  1  0.73546400  0.71705200  0.21706400  1
  O  O4  1  0.76453600  0.03294800  0.03293600  1
  O  O5  1  0.76453300  0.53295100  0.53293100  1
  O  O6  1  0.26453600  0.78293600  0.28294800  1
  O  O7  1  0.26453300  0.28293100  0.78295100  1
  O  O8  1  0.31303000  0.31505200  0.31505000  1
  O  O9  1  0.31302900  0.81505300  0.81505100  1
  O  O10  1  0.81303000  0.06504900  0.56505200  1
  O  O11  1  0.81302900  0.56505100  0.06505300  1
  O  O12  1  0.68697100  0.18494900  0.18494700  1
  O  O13  1  0.68697000  0.68495100  0.68494800  1
  O  O14  1  0.18697100  0.93494700  0.43494900  1
  O  O15  1  0.18697000  0.43494800  0.93495100  1
  O  O16  1  0.47131800  0.52608800  0.29342500  1
  O  O17  1  0.47132100  0.02608200  0.79342400  1
  O  O18  1  0.97132600  0.27606800  0.54342100  1
  O  O19  1  0.97132300  0.77607000  0.04342200  1
  O  O20  1  0.52867900  0.20657600  0.97391800  1
  O  O21  1  0.52868200  0.70657500  0.47391200  1
  O  O22  1  0.02867700  0.95657800  0.22393000  1
  O  O23  1  0.02867400  0.45657900  0.72393200  1
  O  O24  1  0.52867700  0.97393000  0.20657800  1
  O  O25  1  0.52867400  0.47393200  0.70657900  1
  O  O26  1  0.02867900  0.72391800  0.45657600  1
  O  O27  1  0.02868200  0.22391200  0.95657500  1
  O  O28  1  0.47132600  0.29342100  0.52606800  1
  O  O29  1  0.47132300  0.79342200  0.02607000  1
  O  O30  1  0.97131800  0.04342500  0.77608800  1
  O  O31  1  0.97132100  0.54342400  0.27608200  1
loop_
_geom_bond_atom_site_label_1
_geom_bond_atom_site_label_2
_geom_bond_distance
_geom_bond_site_symmetry_2
K0 O12 2.884246 1_455
K0 O8 2.884247 1_555
K0 O18 2.911807 1_455
K0 O22 2.911826 1_545
K0 O31 2.911909 1_455
K0 O27 2.911946 1_554
K0 O15 3.171496 1_554
K0 O10 3.171505 1_455
K0 O11 3.171512 1_455
K0 O14 3.171512 1_545
K1 O13 2.884244 1_455
K1 O9 2.884246 1_555
K1 O23 2.911807 1_555
K1 O19 2.911826 1_456
K1 O26 2.911909 1_555
K1 O30 2.911946 1_465
K1 O10 3.171497 1_465
K1 O15 3.171505 1_555
K1 O14 3.171512 1_555
K1 O11 3.171512 1_456
K2 O10 2.884244 1_555
K2 O14 2.884246 1_545
K2 O28 2.911807 1_555
K2 O24 2.911826 1_545
K2 O17 2.911909 1_555
K2 O21 2.911946 1_545
K2 O13 3.171497 1_545
K2 O8 3.171503 1_555
K2 O12 3.171512 1_555
K2 O9 3.171512 1_545
K3 O11 2.884243 1_555
K3 O15 2.884247 1_554
K3 O25 2.911817 1_554
K3 O29 2.911822 1_555
K3 O20 2.911914 1_554
K3 O16 2.911937 1_555
K3 O8 3.171496 1_555
K3 O12 3.171510 1_555
K3 O13 3.171512 1_554
K3 O9 3.171514 1_554
Fe0 O0 1.985562 1_555
Fe0 O5 1.985578 1_455
Fe0 O26 2.040059 1_555
Fe0 O31 2.040062 1_455
Fe0 O23 2.040275 1_555
Fe0 O18 2.040278 1_455
Fe1 O2 1.985568 1_555
Fe1 O7 1.985571 1_555
Fe1 O17 2.040058 1_555
Fe1 O20 2.040070 1_555
Fe1 O28 2.040267 1_555
Fe1 O25 2.040279 1_555
Fe2 O4 1.985539 1_556
Fe2 O1 1.985558 1_645
Fe2 O27 2.039999 1_655
Fe2 O30 2.040007 1_555
Fe2 O22 2.040259 1_646
Fe2 O19 2.040268 1_546
Fe3 O6 1.985541 1_555
Fe3 O3 1.985557 1_555
Fe3 O16 2.040005 1_555
Fe3 O21 2.040008 1_555
Fe3 O29 2.040259 1_555
Fe3 O24 2.040261 1_555
O0 S4 1.488695 1_555
O1 S5 1.488706 1_555
O2 S6 1.488695 1_555
O3 S7 1.488712 1_555
O4 S0 1.488706 1_555
O5 S1 1.488695 1_555
O6 S2 1.488712 1_555
O7 S3 1.488689 1_555
O8 S4 1.456792 1_555
O9 S5 1.456772 1_555
O10 S6 1.456799 1_555
O11 S7 1.456764 1_555
O12 S0 1.456772 1_555
O13 S1 1.456799 1_555
O14 S2 1.456764 1_555
O15 S3 1.456796 1_555
O16 S4 1.505955 1_555
O17 S5 1.505944 1_545
O18 S6 1.505734 1_555
O19 S7 1.505730 1_555
O20 S0 1.505944 1_556
O21 S1 1.505955 1_555
O22 S2 1.505730 1_555
O23 S3 1.505739 1_555
O24 S0 1.505725 1_565
O25 S1 1.505734 1_555
O26 S2 1.505941 1_555
O27 S3 1.505959 1_555
O28 S4 1.505734 1_555
O29 S5 1.505725 1_554
O30 S6 1.505955 1_555
O31 S7 1.505941 1_555
