# generated using pymatgen
data_Na30Mg4Nb20Si33(SO48)3
_symmetry_space_group_name_H-M   'P 1'
_cell_length_a   18.11647000
_cell_length_b   9.06028082
_cell_length_c   22.62468138
_cell_angle_alpha   90.03603485
_cell_angle_beta   90.02928565
_cell_angle_gamma   120.02539263
_symmetry_Int_Tables_number   1
_chemical_formula_structural   Na30Mg4Nb20Si33(SO48)3
_chemical_formula_sum   'Na30 Mg4 Nb20 Si33 S3 O144'
_cell_volume   3215.26577071
_cell_formula_units_Z   1
loop_
 _symmetry_equiv_pos_site_id
 _symmetry_equiv_pos_as_xyz
  1  'x, y, z'
loop_
 _atom_site_type_symbol
 _atom_site_label
 _atom_site_symmetry_multiplicity
 _atom_site_fract_x
 _atom_site_fract_y
 _atom_site_fract_z
 _atom_site_occupancy
  Na  Na0  1  0.31539130  0.98230240  0.25466386  1
  Na  Na1  1  0.18475537  0.38851305  0.25644612  1
  Na  Na2  1  0.67996888  0.38250416  0.25293989  1
  Na  Na3  1  0.50537593  0.63486332  0.25906839  1
  Na  Na4  1  0.31263047  0.64075271  0.75713857  1
  Na  Na5  1  0.00394881  0.38627405  0.75546053  1
  Na  Na6  1  0.18368981  0.97858108  0.75487181  1
  Na  Na7  1  0.64967169  0.33287662  0.58374507  1
  Na  Na8  1  0.64357685  0.96807708  0.08598092  1
  Na  Na9  1  0.33974921  0.71914143  0.08884943  1
  Na  Na10  1  0.51769339  0.31610387  0.08922858  1
  Na  Na11  1  0.98905332  0.66108304  0.91399446  1
  Na  Na12  1  0.34507073  0.02691260  0.91545209  1
  Na  Na13  1  0.66567759  0.29751131  0.91563516  1
  Na  Na14  1  0.48754226  0.31605801  0.41456425  1
  Na  Na15  1  0.98994965  0.32103406  0.41463377  1
  Na  Na16  1  0.34207412  0.66128786  0.41511079  1
  Na  Na17  1  0.84294919  0.65854844  0.41435502  1
  Na  Na18  1  0.00901241  0.00590244  0.50119313  1
  Na  Na19  1  0.50118058  0.98953397  0.50235528  1
  Na  Na20  1  0.00548553  0.01503387  0.00225688  1
  Na  Na21  1  0.49818865  0.99148146  0.00607988  1
  Na  Na22  1  0.33904013  0.34450343  0.83695635  1
  Na  Na23  1  0.82950969  0.32286268  0.83103722  1
  Na  Na24  1  0.33006265  0.32724073  0.33643122  1
  Na  Na25  1  0.83407815  0.32514321  0.33325440  1
  Na  Na26  1  0.15852319  0.65638073  0.17101517  1
  Na  Na27  1  0.67513451  0.66824998  0.17381871  1
  Na  Na28  1  0.16707724  0.67721856  0.66531342  1
  Na  Na29  1  0.66792256  0.67536358  0.66664548  1
  Mg  Mg0  1  0.49681179  0.00386115  0.14547304  1
  Mg  Mg1  1  0.16435520  0.65696493  0.31612397  1
  Mg  Mg2  1  0.66943943  0.66479283  0.31570760  1
  Mg  Mg3  1  0.16787502  0.67578554  0.81729874  1
  Nb  Nb0  1  0.99287748  0.99507288  0.35721425  1
  Nb  Nb1  1  0.49343408  0.99675582  0.35569161  1
  Nb  Nb2  1  0.99361006  0.99310146  0.85821931  1
  Nb  Nb3  1  0.49806203  0.99410552  0.85522378  1
  Nb  Nb4  1  0.99355953  0.98617963  0.64073093  1
  Nb  Nb5  1  0.49794376  0.99401110  0.64547397  1
  Nb  Nb6  1  0.99376022  0.99953786  0.14266124  1
  Nb  Nb7  1  0.34148116  0.33588588  0.68380787  1
  Nb  Nb8  1  0.83034000  0.33164619  0.68932127  1
  Nb  Nb9  1  0.33828897  0.33867625  0.18476178  1
  Nb  Nb10  1  0.84131328  0.34683661  0.18667218  1
  Nb  Nb11  1  0.33030430  0.33791832  0.97933928  1
  Nb  Nb12  1  0.83523982  0.32785686  0.97895672  1
  Nb  Nb13  1  0.33058453  0.32961384  0.48075737  1
  Nb  Nb14  1  0.83343117  0.33035313  0.48027468  1
  Nb  Nb15  1  0.16412479  0.66522486  0.02016615  1
  Nb  Nb16  1  0.66946471  0.66631836  0.02188611  1
  Nb  Nb17  1  0.16464899  0.66498198  0.52177630  1
  Nb  Nb18  1  0.66639433  0.67238370  0.51940889  1
  Nb  Nb19  1  0.66529971  0.66388160  0.80974780  1
  Si  Si0  1  0.35243433  0.70779147  0.24610408  1
  Si  Si1  1  0.85254922  0.70898010  0.24959794  1
  Si  Si2  1  0.99964346  0.29152191  0.24964608  1
  Si  Si3  1  0.50183791  0.29563524  0.24652822  1
  Si  Si4  1  0.64300373  0.28592825  0.75003125  1
  Si  Si5  1  0.00034246  0.71056005  0.74951989  1
  Si  Si6  1  0.49962495  0.70919253  0.74961950  1
  Si  Si7  1  0.35383025  0.00130959  0.75030731  1
  Si  Si8  1  0.85535391  0.99888148  0.74949978  1
  Si  Si9  1  0.48157994  0.33293493  0.58018874  1
  Si  Si10  1  0.97854937  0.33615566  0.58571614  1
  Si  Si11  1  0.18850283  0.04233673  0.58534497  1
  Si  Si12  1  0.68900171  0.04115816  0.58443392  1
  Si  Si13  1  0.33170066  0.62193076  0.58387814  1
  Si  Si14  1  0.83131220  0.61833631  0.58233595  1
  Si  Si15  1  0.48130109  0.62857872  0.08213039  1
  Si  Si16  1  0.97997403  0.62655317  0.08111318  1
  Si  Si17  1  0.33138424  0.04067139  0.08127886  1
  Si  Si18  1  0.83152837  0.04487276  0.08493398  1
  Si  Si19  1  0.18722748  0.33190651  0.08482603  1
  Si  Si20  1  0.69013899  0.33426334  0.08376990  1
  Si  Si21  1  0.30862222  0.66357775  0.91341908  1
  Si  Si22  1  0.80920202  0.66326758  0.91600514  1
  Si  Si23  1  0.02442112  0.37900103  0.91297178  1
  Si  Si24  1  0.52111011  0.37989724  0.91652574  1
  Si  Si25  1  0.16744023  0.95968057  0.91388179  1
  Si  Si26  1  0.66648153  0.95142330  0.91668322  1
  Si  Si27  1  0.30519062  0.95446709  0.41321799  1
  Si  Si28  1  0.80594284  0.95476998  0.41350503  1
  Si  Si29  1  0.16704848  0.37635362  0.41443215  1
  Si  Si30  1  0.66736537  0.37473976  0.41483053  1
  Si  Si31  1  0.02441555  0.66810917  0.41487170  1
  Si  Si32  1  0.52208295  0.66855540  0.41332579  1
  S  S0  1  0.14239430  0.99870393  0.24911567  1
  S  S1  1  0.64514664  0.00183508  0.24886764  1
  S  S2  1  0.14374625  0.28655436  0.74973404  1
  O  O0  1  0.10203062  0.02483582  0.30255730  1
  O  O1  1  0.60140685  0.02739011  0.30145111  1
  O  O2  1  0.41561596  0.80011780  0.30690443  1
  O  O3  1  0.91298878  0.80166472  0.30925612  1
  O  O4  1  0.48665507  0.16737942  0.30622345  1
  O  O5  1  0.98849327  0.16892194  0.30869223  1
  O  O6  1  0.10344646  0.17923354  0.80320669  1
  O  O7  1  0.59728962  0.16973355  0.80927014  1
  O  O8  1  0.48364809  0.80390261  0.80658817  1
  O  O9  1  0.99007806  0.80991797  0.80867196  1
  O  O10  1  0.41342233  0.02814375  0.80964431  1
  O  O11  1  0.91887635  0.02936534  0.80681568  1
  O  O12  1  0.40883207  0.98514832  0.69458765  1
  O  O13  1  0.90581020  0.97914814  0.69266686  1
  O  O14  1  0.09135442  0.20365667  0.69652723  1
  O  O15  1  0.58695567  0.19634272  0.69051780  1
  O  O16  1  0.01179028  0.84063385  0.69442946  1
  O  O17  1  0.51163601  0.82853647  0.69207684  1
  O  O18  1  0.40014874  0.81756679  0.18902349  1
  O  O19  1  0.91063259  0.82946394  0.19394507  1
  O  O20  1  0.00849070  0.18088741  0.19407290  1
  O  O21  1  0.51693326  0.21056979  0.18927464  1
  O  O22  1  0.09272692  0.98312268  0.19565220  1
  O  O23  1  0.59645635  0.98092593  0.19434717  1
  O  O24  1  0.43263681  0.35888150  0.63885347  1
  O  O25  1  0.93109290  0.35936147  0.64377289  1
  O  O26  1  0.24804270  0.13946535  0.64417932  1
  O  O27  1  0.74919579  0.13785573  0.64215919  1
  O  O28  1  0.32198317  0.50386547  0.64278019  1
  O  O29  1  0.81802583  0.49549572  0.63916287  1
  O  O30  1  0.43479341  0.50209745  0.14170977  1
  O  O31  1  0.93192688  0.50195913  0.13918469  1
  O  O32  1  0.31980970  0.13804861  0.14104550  1
  O  O33  1  0.81640336  0.13949916  0.14081437  1
  O  O34  1  0.24923300  0.36258513  0.14338912  1
  O  O35  1  0.74984798  0.36084905  0.14251003  1
  O  O36  1  0.23566926  0.30769998  0.02763914  1
  O  O37  1  0.74049811  0.31480175  0.02563992  1
  O  O38  1  0.41615599  0.52302333  0.02835474  1
  O  O39  1  0.92072788  0.53577509  0.02267230  1
  O  O40  1  0.34334986  0.16501886  0.02505283  1
  O  O41  1  0.84560783  0.16352230  0.02639058  1
  O  O42  1  0.23774657  0.16596786  0.52888081  1
  O  O43  1  0.73711970  0.16864346  0.52826731  1
  O  O44  1  0.34573468  0.52987505  0.52601733  1
  O  O45  1  0.84623582  0.53377200  0.52351157  1
  O  O46  1  0.42238112  0.30986825  0.52344525  1
  O  O47  1  0.92017350  0.30665450  0.52641485  1
  O  O48  1  0.26469118  0.69902517  0.97255413  1
  O  O49  1  0.76476361  0.69324481  0.97430878  1
  O  O50  1  0.08377304  0.47335100  0.97174640  1
  O  O51  1  0.58304137  0.46996711  0.97478939  1
  O  O52  1  0.14882593  0.82816472  0.97048805  1
  O  O53  1  0.65420629  0.83883614  0.97674590  1
  O  O54  1  0.26276515  0.82697705  0.47058209  1
  O  O55  1  0.76514789  0.83069626  0.47322999  1
  O  O56  1  0.14868888  0.46839916  0.47157848  1
  O  O57  1  0.64958304  0.46303036  0.47416959  1
  O  O58  1  0.08332555  0.69616360  0.47460048  1
  O  O59  1  0.58393289  0.69237344  0.47161997  1
  O  O60  1  0.05962199  0.61466088  0.35968992  1
  O  O61  1  0.55629151  0.62264744  0.35539183  1
  O  O62  1  0.25816771  0.88538253  0.35188593  1
  O  O63  1  0.75344620  0.87511255  0.35687872  1
  O  O64  1  0.19145129  0.48693646  0.35538880  1
  O  O65  1  0.68979567  0.48814943  0.35641284  1
  O  O66  1  0.05686762  0.49135642  0.85416805  1
  O  O67  1  0.57055409  0.50030179  0.85980438  1
  O  O68  1  0.18936197  0.89369542  0.85458777  1
  O  O69  1  0.67972262  0.85664915  0.85977142  1
  O  O70  1  0.25828956  0.63445677  0.85317535  1
  O  O71  1  0.74794095  0.63196236  0.85958584  1
  O  O72  1  0.00921897  0.83460960  0.40992047  1
  O  O73  1  0.50887000  0.83645356  0.41066616  1
  O  O74  1  0.40446702  0.97360473  0.41024431  1
  O  O75  1  0.90484265  0.97384329  0.41183656  1
  O  O76  1  0.07969363  0.18580260  0.40958337  1
  O  O77  1  0.57904794  0.18590169  0.40909794  1
  O  O78  1  0.01304780  0.18683516  0.90920266  1
  O  O79  1  0.51478703  0.19201672  0.91139803  1
  O  O80  1  0.07972770  0.97322859  0.90990563  1
  O  O81  1  0.58371169  0.97977043  0.91035969  1
  O  O82  1  0.40461262  0.84285820  0.91118005  1
  O  O83  1  0.90565162  0.83099709  0.91152478  1
  O  O84  1  0.49223323  0.16575688  0.58756976  1
  O  O85  1  0.98964979  0.16722865  0.59331301  1
  O  O86  1  0.09525350  0.02905433  0.59219204  1
  O  O87  1  0.59681455  0.03260193  0.58902189  1
  O  O88  1  0.41783822  0.81003169  0.59054984  1
  O  O89  1  0.91686824  0.80901286  0.58792260  1
  O  O90  1  0.49212289  0.81351256  0.08676178  1
  O  O91  1  0.98960025  0.81317059  0.09074684  1
  O  O92  1  0.41579651  0.02481290  0.08350304  1
  O  O93  1  0.91598384  0.02366306  0.08911056  1
  O  O94  1  0.09435370  0.16194849  0.09198664  1
  O  O95  1  0.59762349  0.16547551  0.08488569  1
  O  O96  1  0.34252395  0.17204619  0.74475450  1
  O  O97  1  0.85190350  0.17558993  0.74552736  1
  O  O98  1  0.22974819  0.30166993  0.74598833  1
  O  O99  1  0.73780841  0.30463450  0.74459766  1
  O  O100  1  0.40965415  0.52475948  0.74468985  1
  O  O101  1  0.91361192  0.52240221  0.74499460  1
  O  O102  1  0.34514550  0.51348255  0.24561711  1
  O  O103  1  0.84471374  0.51682511  0.24475560  1
  O  O104  1  0.40791354  0.29556034  0.24591357  1
  O  O105  1  0.91045940  0.29725762  0.24345312  1
  O  O106  1  0.22860041  0.16010598  0.24587453  1
  O  O107  1  0.73026664  0.16451162  0.24700332  1
  O  O108  1  0.32506614  0.50337576  0.92562961  1
  O  O109  1  0.82095241  0.49612763  0.92107337  1
  O  O110  1  0.42465609  0.34765711  0.92177451  1
  O  O111  1  0.92890708  0.35806460  0.92586896  1
  O  O112  1  0.25103813  0.14777020  0.92622894  1
  O  O113  1  0.74922709  0.14674002  0.92250802  1
  O  O114  1  0.32915437  0.15338073  0.42453587  1
  O  O115  1  0.83028454  0.15395903  0.42466764  1
  O  O116  1  0.25057884  0.35285982  0.42696288  1
  O  O117  1  0.75127844  0.35289983  0.42698309  1
  O  O118  1  0.42519365  0.50348266  0.42575253  1
  O  O119  1  0.92606997  0.50351387  0.42653761  1
  O  O120  1  0.18434073  0.50803749  0.07735705  1
  O  O121  1  0.68029483  0.50506924  0.07733471  1
  O  O122  1  0.07222214  0.63845188  0.07651951  1
  O  O123  1  0.57241225  0.63285014  0.07803764  1
  O  O124  1  0.24623624  0.85173684  0.07685550  1
  O  O125  1  0.74481093  0.86022242  0.07833400  1
  O  O126  1  0.18052855  0.85714642  0.57803897  1
  O  O127  1  0.67955100  0.85385780  0.57699089  1
  O  O128  1  0.24725100  0.63956231  0.57749000  1
  O  O129  1  0.74518632  0.63075678  0.57738928  1
  O  O130  1  0.07253395  0.50462069  0.57794857  1
  O  O131  1  0.57602390  0.50088167  0.57810949  1
  O  O132  1  0.15507106  0.85245280  0.25300405  1
  O  O133  1  0.65424107  0.85250964  0.25604139  1
  O  O134  1  0.25947737  0.68823664  0.25244263  1
  O  O135  1  0.75940400  0.68319670  0.24911145  1
  O  O136  1  0.08477487  0.47216540  0.25053530  1
  O  O137  1  0.57957960  0.48786239  0.25348443  1
  O  O138  1  0.15301685  0.45579267  0.75405889  1
  O  O139  1  0.65323830  0.47551030  0.75670643  1
  O  O140  1  0.08343327  0.68987892  0.75017929  1
  O  O141  1  0.58273752  0.68683543  0.75532021  1
  O  O142  1  0.26239294  0.83040994  0.74949960  1
  O  O143  1  0.76224330  0.82953219  0.75624859  1
loop_
_geom_bond_atom_site_label_1
_geom_bond_atom_site_label_2
_geom_bond_distance
_geom_bond_site_symmetry_2
Na0 O134 2.329391 1_555
Na0 O62 2.403719 1_555
Na0 O104 2.478756 1_565
Na0 O132 2.530113 1_555
Na0 O106 2.764411 1_565
Na1 O136 2.290598 1_555
Na1 O134 2.353001 1_555
Na1 O64 2.389554 1_555
Na1 O102 2.548272 1_555
Na1 O106 2.572026 1_555
Na1 O34 2.870421 1_555
Na2 O135 2.361658 1_555
Na2 O137 2.440586 1_555
Na2 O65 2.500916 1_555
Na2 O107 2.559330 1_555
Na2 O103 2.605571 1_555
Na2 O35 2.852114 1_555
Na2 O21 2.934888 1_555
Na2 O1 3.000907 1_555
Na3 O137 2.321375 1_555
Na3 O61 2.390147 1_555
Na3 O133 2.417580 1_555
Na3 O102 2.555824 1_555
Na3 O104 2.687548 1_555
Na3 O2 2.914405 1_555
Na3 O30 2.930072 1_555
Na4 O142 2.318674 1_555
Na4 O70 2.374792 1_555
Na4 O100 2.474305 1_555
Na4 O138 2.514923 1_555
Na4 O98 2.671830 1_555
Na4 O8 2.906349 1_555
Na4 O28 2.909957 1_555
Na5 O140 2.385571 1_555
Na5 O66 2.427867 1_555
Na5 O138 2.447185 1_555
Na5 O97 2.453252 1_455
Na5 O101 2.505130 1_455
Na5 O25 2.803660 1_455
Na6 O140 2.323163 1_555
Na6 O142 2.401155 1_555
Na6 O68 2.402669 1_555
Na6 O96 2.521591 1_565
Na6 O98 2.619553 1_565
Na6 O26 2.839500 1_565
Na7 O129 2.371901 1_555
Na7 O87 2.392924 1_555
Na7 O84 2.472600 1_555
Na7 O131 2.479118 1_555
Na7 O15 2.693839 1_555
Na7 O57 2.746296 1_555
Na7 O29 2.922639 1_555
Na7 O43 2.942496 1_555
Na8 O95 2.320018 1_565
Na8 O90 2.375843 1_555
Na8 O125 2.478321 1_555
Na8 O23 2.618130 1_555
Na8 O123 2.645685 1_555
Na8 O53 2.781832 1_554
Na9 O92 2.401003 1_565
Na9 O90 2.447776 1_555
Na9 O18 2.479426 1_555
Na9 O120 2.502427 1_555
Na9 O124 2.534498 1_555
Na10 O92 2.348070 1_555
Na10 O95 2.438588 1_555
Na10 O21 2.455097 1_555
Na10 O123 2.537070 1_555
Na10 O121 2.575906 1_555
Na11 O111 2.409209 1_555
Na11 O80 2.460991 1_655
Na11 O109 2.641888 1_555
Na11 O83 2.642707 1_555
Na11 O39 2.732595 1_556
Na11 O9 2.734218 1_555
Na11 O66 2.756078 1_655
Na11 O52 2.812860 1_655
Na12 O82 2.398716 1_545
Na12 O112 2.455082 1_555
Na12 O110 2.520004 1_555
Na12 O79 2.664059 1_555
Na12 O10 2.693200 1_555
Na12 O40 2.784011 1_556
Na12 O68 2.810165 1_545
Na12 O48 2.879645 1_545
Na13 O79 2.404196 1_555
Na13 O109 2.469804 1_555
Na13 O81 2.495623 1_545
Na13 O113 2.500107 1_555
Na13 O7 2.687825 1_555
Na13 O37 2.799941 1_556
Na13 O71 2.915247 1_555
Na13 O51 2.968872 1_555
Na14 O77 2.471952 1_555
Na14 O118 2.478478 1_555
Na14 O114 2.495092 1_555
Na14 O74 2.688448 1_545
Na14 O46 2.720648 1_555
Na14 O61 2.757469 1_555
Na14 O4 2.792357 1_555
Na14 O57 2.879440 1_555
Na15 O119 2.461676 1_555
Na15 O76 2.480163 1_655
Na15 O115 2.515759 1_555
Na15 O60 2.619376 1_655
Na15 O75 2.724373 1_545
Na15 O5 2.757637 1_555
Na15 O47 2.801728 1_555
Na15 O56 2.804311 1_655
Na16 O116 2.448309 1_555
Na16 O74 2.469097 1_555
Na16 O118 2.554291 1_555
Na16 O73 2.619348 1_555
Na16 O64 2.728897 1_555
Na16 O2 2.771403 1_555
Na16 O44 2.792997 1_555
Na16 O54 2.837442 1_555
Na17 O117 2.430521 1_555
Na17 O75 2.493133 1_555
Na17 O119 2.536440 1_555
Na17 O72 2.611499 1_655
Na17 O3 2.702934 1_555
Na17 O45 2.729726 1_555
Na17 O65 2.739943 1_555
Na17 O55 2.897069 1_555
Na18 O86 2.528236 1_555
Na18 O76 2.551560 1_555
Na18 O72 2.583539 1_545
Na18 O89 2.616637 1_445
Na18 O85 2.667087 1_455
Na18 O75 2.679506 1_445
Na19 O87 2.513511 1_565
Na19 O73 2.536999 1_555
Na19 O88 2.540851 1_555
Na19 O84 2.558895 1_565
Na19 O77 2.665177 1_565
Na19 O74 2.678902 1_555
Na20 O94 2.516694 1_555
Na20 O93 2.574205 1_455
Na20 O78 2.581677 1_554
Na20 O80 2.613405 1_544
Na20 O91 2.629547 1_445
Na20 O83 2.690580 1_444
Na21 O90 2.402236 1_555
Na21 O92 2.416755 1_565
Na21 O95 2.461778 1_565
Na21 O82 2.646738 1_554
Na21 O81 2.696197 1_554
Na21 O79 2.727480 1_564
Na22 O110 2.457974 1_555
Na22 O108 2.553913 1_555
Na22 O100 2.564681 1_555
Na22 O96 2.625206 1_555
Na22 O112 2.638606 1_555
Na22 O98 2.744568 1_555
Na23 O97 2.495425 1_555
Na23 O99 2.516651 1_555
Na23 O113 2.574705 1_555
Na23 O101 2.574935 1_555
Na23 O109 2.622552 1_555
Na23 O111 2.714426 1_555
Na24 O114 2.536343 1_555
Na24 O116 2.580624 1_555
Na24 O104 2.583205 1_555
Na24 O102 2.585932 1_555
Na24 O118 2.615759 1_555
Na24 O106 2.660095 1_555
Na25 O105 2.541384 1_555
Na25 O115 2.566162 1_555
Na25 O107 2.591633 1_555
Na25 O103 2.594638 1_555
Na25 O119 2.672103 1_555
Na25 O117 2.681479 1_555
Na26 O136 2.362661 1_555
Na26 O134 2.507961 1_555
Na26 O132 2.589948 1_555
Na26 O122 2.604529 1_555
Na26 O120 2.672420 1_555
Na26 O124 2.718398 1_555
Na27 O135 2.245222 1_555
Na27 O137 2.468207 1_555
Na27 O133 2.649547 1_555
Na27 O121 2.663495 1_555
Na27 O125 2.663807 1_555
Na27 O123 2.767615 1_555
Na28 O142 2.476046 1_555
Na28 O140 2.484489 1_555
Na28 O126 2.494549 1_555
Na28 O130 2.568694 1_555
Na28 O128 2.583052 1_555
Na28 O138 2.759571 1_555
Na29 O127 2.537279 1_555
Na29 O141 2.565316 1_555
Na29 O143 2.566106 1_555
Na29 O131 2.577205 1_555
Na29 O129 2.601650 1_555
Na29 O139 2.650366 1_555
Mg0 O18 1.982989 1_545
Mg0 O21 1.984073 1_555
Mg0 O92 2.105473 1_555
Mg0 O90 2.143907 1_545
Mg0 O95 2.165045 1_555
Mg0 O23 2.213215 1_545
Mg1 O60 1.998284 1_555
Mg1 O64 2.039943 1_555
Mg1 O62 2.074268 1_555
Mg1 O134 2.154113 1_555
Mg1 O136 2.159372 1_555
Mg1 O132 2.346444 1_555
Mg2 O63 1.977124 1_555
Mg2 O65 2.034138 1_555
Mg2 O61 2.091115 1_555
Mg2 O137 2.141246 1_555
Mg2 O135 2.164539 1_555
Mg2 O133 2.293880 1_555
Mg3 O68 1.997417 1_555
Mg3 O70 2.023592 1_555
Mg3 O66 2.042745 1_555
Mg3 O142 2.202802 1_555
Mg3 O140 2.203616 1_555
Mg3 O138 2.356164 1_555
Nb0 O3 1.949502 1_555
Nb0 O75 1.950175 1_555
Nb0 O5 1.954420 1_565
Nb0 O72 2.013909 1_655
Nb0 O76 2.034521 1_665
Nb0 O0 2.231936 1_665
Nb1 O74 1.956824 1_555
Nb1 O4 1.962022 1_565
Nb1 O2 1.965270 1_555
Nb1 O77 2.034185 1_565
Nb1 O73 2.035434 1_555
Nb1 O1 2.206537 1_565
Nb2 O11 1.933295 1_565
Nb2 O83 1.952648 1_555
Nb2 O9 1.976514 1_555
Nb2 O78 1.978381 1_665
Nb2 O80 2.028169 1_655
Nb2 O6 2.235957 1_665
Nb3 O8 1.948256 1_555
Nb3 O10 1.995442 1_565
Nb3 O7 1.996459 1_565
Nb3 O82 2.007330 1_555
Nb3 O81 2.044638 1_555
Nb3 O79 2.091742 1_565
Nb4 O89 1.923130 1_555
Nb4 O16 1.939458 1_655
Nb4 O13 1.952584 1_555
Nb4 O85 1.991263 1_565
Nb4 O86 2.009348 1_665
Nb4 O14 2.261843 1_665
Nb5 O12 1.928636 1_555
Nb5 O17 1.948045 1_555
Nb5 O88 2.000857 1_555
Nb5 O15 2.009251 1_565
Nb5 O84 2.076497 1_565
Nb5 O87 2.082791 1_565
Nb6 O19 1.915807 1_555
Nb6 O20 1.918946 1_665
Nb6 O93 1.951374 1_565
Nb6 O91 2.026442 1_555
Nb6 O94 2.030130 1_665
Nb6 O22 2.222378 1_655
Nb7 O24 1.860831 1_555
Nb7 O26 1.953980 1_555
Nb7 O28 1.960145 1_555
Nb7 O96 2.033685 1_555
Nb7 O100 2.056999 1_555
Nb7 O98 2.355441 1_555
Nb8 O27 1.948168 1_555
Nb8 O29 1.968422 1_555
Nb8 O25 2.000062 1_555
Nb8 O99 2.006492 1_555
Nb8 O101 2.058025 1_555
Nb8 O97 2.079272 1_555
Nb9 O30 1.900159 1_555
Nb9 O32 1.944970 1_555
Nb9 O34 1.968392 1_555
Nb9 O104 2.037106 1_555
Nb9 O102 2.054191 1_555
Nb9 O106 2.294840 1_555
Nb10 O31 1.875953 1_555
Nb10 O33 1.989389 1_555
Nb10 O35 1.992278 1_555
Nb10 O105 1.995881 1_555
Nb10 O103 2.001291 1_555
Nb10 O107 2.306300 1_555
Nb11 O36 1.934164 1_556
Nb11 O38 1.961368 1_556
Nb11 O108 1.969123 1_555
Nb11 O40 1.987918 1_556
Nb11 O112 1.998449 1_555
Nb11 O110 2.115952 1_555
Nb12 O41 1.919778 1_556
Nb12 O37 1.968336 1_556
Nb12 O111 1.983628 1_555
Nb12 O39 2.000463 1_556
Nb12 O113 2.046538 1_555
Nb12 O109 2.122136 1_555
Nb13 O42 1.928944 1_555
Nb13 O44 1.978640 1_555
Nb13 O116 1.982547 1_555
Nb13 O46 2.006680 1_555
Nb13 O114 2.030805 1_555
Nb13 O118 2.066529 1_555
Nb14 O43 1.953357 1_555
Nb14 O47 1.985354 1_555
Nb14 O45 1.994274 1_555
Nb14 O117 2.003319 1_555
Nb14 O115 2.011578 1_555
Nb14 O119 2.031159 1_555
Nb15 O50 1.950557 1_554
Nb15 O52 1.982610 1_554
Nb15 O48 2.004385 1_554
Nb15 O122 2.013666 1_555
Nb15 O124 2.047704 1_555
Nb15 O120 2.088165 1_555
Nb16 O49 1.944131 1_554
Nb16 O51 1.989980 1_554
Nb16 O53 1.999178 1_554
Nb16 O121 2.008884 1_555
Nb16 O125 2.043570 1_555
Nb16 O123 2.065558 1_555
Nb17 O58 1.950625 1_555
Nb17 O56 2.006858 1_555
Nb17 O54 2.012130 1_555
Nb17 O130 2.022127 1_555
Nb17 O128 2.055395 1_555
Nb17 O126 2.056692 1_555
Nb18 O59 1.924305 1_555
Nb18 O55 1.945604 1_555
Nb18 O127 2.015499 1_555
Nb18 O57 2.038949 1_555
Nb18 O131 2.077878 1_555
Nb18 O129 2.106674 1_555
Nb19 O67 1.970683 1_555
Nb19 O69 1.984954 1_555
Nb19 O139 2.006142 1_555
Nb19 O71 2.007126 1_555
Nb19 O141 2.026470 1_555
Nb19 O143 2.041726 1_555
O0 S0 1.492149 1_545
O1 S1 1.510332 1_555
O2 Si0 1.714899 1_555
O3 Si1 1.674153 1_555
O4 Si3 1.712467 1_555
O5 Si2 1.684303 1_555
O6 S2 1.494677 1_555
O7 Si4 1.649499 1_555
O8 Si6 1.651946 1_555
O9 Si5 1.673996 1_655
O10 Si7 1.662025 1_555
O11 Si8 1.661968 1_545
O12 Si7 1.658497 1_565
O13 Si8 1.638702 1_555
O14 S2 1.482691 1_555
O15 Si4 1.635620 1_555
O16 Si5 1.656176 1_555
O17 Si6 1.636469 1_555
O18 Si0 1.595801 1_555
O19 Si1 1.654638 1_555
O20 Si2 1.664551 1_455
O21 Si3 1.598984 1_555
O22 S0 1.471133 1_555
O23 S1 1.472034 1_565
O24 Si9 1.677057 1_555
O25 Si10 1.640243 1_555
O26 Si11 1.660381 1_555
O27 Si12 1.644206 1_555
O28 Si13 1.662757 1_555
O29 Si14 1.638187 1_555
O30 Si15 1.696159 1_555
O31 Si16 1.666693 1_555
O32 Si17 1.683669 1_555
O33 Si18 1.625609 1_555
O34 Si19 1.667393 1_555
O35 Si20 1.652779 1_555
O36 Si19 1.638812 1_555
O37 Si20 1.659832 1_555
O38 Si15 1.629496 1_555
O39 Si16 1.640259 1_555
O40 Si17 1.640784 1_555
O41 Si18 1.644012 1_555
O42 Si11 1.638733 1_555
O43 Si12 1.644439 1_555
O44 Si13 1.638647 1_555
O45 Si14 1.624119 1_555
O46 Si9 1.617397 1_555
O47 Si10 1.644743 1_555
O48 Si21 1.668209 1_555
O49 Si22 1.637495 1_555
O50 Si23 1.652997 1_555
O51 Si24 1.656278 1_555
O52 Si25 1.665525 1_555
O53 Si26 1.646705 1_555
O54 Si27 1.650397 1_555
O55 Si28 1.675497 1_555
O56 Si29 1.659648 1_555
O57 Si30 1.674232 1_555
O58 Si31 1.660228 1_555
O59 Si32 1.672633 1_555
O60 Si31 1.584029 1_555
O61 Si32 1.591612 1_555
O62 Si27 1.583368 1_555
O63 Si28 1.541883 1_555
O64 Si29 1.594598 1_555
O65 Si30 1.597551 1_555
O66 Si23 1.598582 1_555
O67 Si24 1.632271 1_555
O68 Si25 1.597477 1_555
O69 Si26 1.630302 1_555
O70 Si21 1.586300 1_555
O71 Si22 1.620068 1_555
O72 Si31 1.667289 1_555
O73 Si32 1.655142 1_555
O74 Si27 1.719702 1_555
O75 Si28 1.712234 1_555
O76 Si29 1.662056 1_555
O77 Si30 1.662533 1_555
O78 Si23 1.649805 1_555
O79 Si24 1.651917 1_555
O80 Si25 1.656286 1_555
O81 Si26 1.649293 1_555
O82 Si21 1.684775 1_555
O83 Si22 1.647971 1_555
O84 Si9 1.628568 1_555
O85 Si10 1.649489 1_555
O86 Si11 1.639882 1_555
O87 Si12 1.636049 1_555
O88 Si13 1.643269 1_555
O89 Si14 1.650060 1_555
O90 Si15 1.589938 1_555
O91 Si16 1.625162 1_555
O92 Si17 1.606741 1_555
O93 Si18 1.637371 1_555
O94 Si19 1.623608 1_555
O95 Si20 1.607308 1_555
O96 Si7 1.663737 1_555
O97 Si8 1.635728 1_545
O98 S2 1.496687 1_555
O99 Si4 1.643977 1_555
O100 Si6 1.653872 1_555
O101 Si5 1.644530 1_655
O102 Si0 1.698300 1_555
O103 Si1 1.677968 1_555
O104 Si3 1.701288 1_555
O105 Si2 1.648219 1_555
O106 S0 1.515777 1_545
O107 S1 1.509199 1_555
O108 Si21 1.644689 1_555
O109 Si22 1.635384 1_555
O110 Si24 1.625514 1_555
O111 Si23 1.669560 1_655
O112 Si25 1.640706 1_545
O113 Si26 1.655539 1_545
O114 Si27 1.648731 1_545
O115 Si28 1.648659 1_545
O116 Si29 1.654596 1_555
O117 Si30 1.651203 1_555
O118 Si32 1.664550 1_555
O119 Si31 1.676277 1_655
O120 Si19 1.631474 1_555
O121 Si20 1.650568 1_555
O122 Si16 1.623347 1_455
O123 Si15 1.634266 1_555
O124 Si17 1.636105 1_565
O125 Si18 1.630462 1_565
O126 Si11 1.618798 1_565
O127 Si12 1.626745 1_565
O128 Si13 1.622185 1_555
O129 Si14 1.623352 1_555
O130 Si10 1.630790 1_455
O131 Si9 1.624734 1_555
O132 S0 1.456360 1_555
O133 S1 1.451632 1_565
O134 Si0 1.609245 1_555
O135 Si1 1.583571 1_555
O136 Si2 1.591077 1_455
O137 Si3 1.608191 1_555
O138 S2 1.459796 1_555
O139 Si4 1.639660 1_555
O140 Si5 1.607344 1_555
O141 Si6 1.621692 1_555
O142 Si7 1.604663 1_565
O143 Si8 1.622756 1_555
