# generated using pymatgen
data_Na2Ta4Si5SO24
_symmetry_space_group_name_H-M   'P 1'
_cell_length_a   8.86519527
_cell_length_b   8.88861575
_cell_length_c   22.89608568
_cell_angle_alpha   90.01303223
_cell_angle_beta   90.08526286
_cell_angle_gamma   120.06768454
_symmetry_Int_Tables_number   1
_chemical_formula_structural   Na2Ta4Si5SO24
_chemical_formula_sum   'Na6 Ta12 Si15 S3 O72'
_cell_volume   1561.40997063
_cell_formula_units_Z   3
loop_
 _symmetry_equiv_pos_site_id
 _symmetry_equiv_pos_as_xyz
  1  'x, y, z'
loop_
 _atom_site_type_symbol
 _atom_site_label
 _atom_site_symmetry_multiplicity
 _atom_site_fract_x
 _atom_site_fract_y
 _atom_site_fract_z
 _atom_site_occupancy
  Na  Na0  1  0.00111290  0.99735645  0.50177039  1
  Na  Na1  1  0.00550731  0.99719051  0.99675375  1
  Na  Na2  1  0.66203534  0.32588856  0.82981802  1
  Na  Na3  1  0.67170243  0.33546528  0.34042529  1
  Na  Na4  1  0.32965156  0.65579599  0.16804458  1
  Na  Na5  1  0.33705807  0.66549963  0.66318909  1
  Ta  Ta0  1  0.98454800  0.99692731  0.35991272  1
  Ta  Ta1  1  0.00548617  0.01277858  0.85617285  1
  Ta  Ta2  1  0.99582216  0.01078863  0.64154245  1
  Ta  Ta3  1  0.99956215  0.00338537  0.14535439  1
  Ta  Ta4  1  0.65731881  0.32321379  0.68543163  1
  Ta  Ta5  1  0.67897734  0.35482947  0.18941848  1
  Ta  Ta6  1  0.66077127  0.34291606  0.97456338  1
  Ta  Ta7  1  0.66758754  0.33547250  0.47868024  1
  Ta  Ta8  1  0.32508218  0.65646148  0.01908474  1
  Ta  Ta9  1  0.33294417  0.66552839  0.52265661  1
  Ta  Ta10  1  0.33268157  0.65554496  0.31543773  1
  Ta  Ta11  1  0.34066291  0.66676015  0.81193709  1
  Si  Si0  1  0.71076349  0.72010884  0.25063150  1
  Si  Si1  1  -0.00000245  0.28783731  0.25044055  1
  Si  Si2  1  0.28945592  0.28881199  0.74948063  1
  Si  Si3  1  0.71320512  0.00285085  0.74981178  1
  Si  Si4  1  0.95268869  0.33960234  0.58327172  1
  Si  Si5  1  0.37615288  0.04274505  0.58163766  1
  Si  Si6  1  0.66686655  0.61923720  0.58384904  1
  Si  Si7  1  0.95796982  0.62486175  0.08208453  1
  Si  Si8  1  0.38012407  0.33457392  0.08365121  1
  Si  Si9  1  0.62297627  0.67452822  0.91700099  1
  Si  Si10  1  0.04328806  0.38110726  0.91494050  1
  Si  Si11  1  0.33198189  0.94985420  0.91663233  1
  Si  Si12  1  0.61056350  0.95344973  0.41725178  1
  Si  Si13  1  0.33445162  0.37637207  0.41861746  1
  Si  Si14  1  0.04733083  0.66643786  0.41671998  1
  S  S0  1  0.28823308  0.00048449  0.24917154  1
  S  S1  1  0.00005132  0.71391987  0.75027080  1
  S  S2  1  0.66570532  0.04711218  0.08396229  1
  O  O0  1  0.21205625  0.03100731  0.30149549  1
  O  O1  1  0.83648517  0.80566835  0.30657632  1
  O  O2  1  0.97529572  0.16505787  0.30617202  1
  O  O3  1  0.19649743  0.16704363  0.80735921  1
  O  O4  1  0.97621255  0.79537107  0.80363460  1
  O  O5  1  0.83328809  0.02202328  0.80733372  1
  O  O6  1  0.80424805  0.96986255  0.69323909  1
  O  O7  1  0.16626418  0.18925497  0.69346863  1
  O  O8  1  0.02671713  0.81886597  0.69759906  1
  O  O9  1  0.81122844  0.83424421  0.19251320  1
  O  O10  1  0.02730359  0.19346160  0.19241762  1
  O  O11  1  0.17874891  0.97668213  0.19568693  1
  O  O12  1  0.86137216  0.36232606  0.64189814  1
  O  O13  1  0.49752737  0.13419990  0.64049410  1
  O  O14  1  0.63884127  0.49839829  0.64156592  1
  O  O15  1  0.86485200  0.50224645  0.14049252  1
  O  O16  1  0.64307574  0.12799843  0.13698667  1
  O  O17  1  0.50053160  0.35283694  0.14069269  1
  O  O18  1  0.47107821  0.30267507  0.02673007  1
  O  O19  1  0.83242449  0.52420108  0.02673315  1
  O  O20  1  0.69568090  0.15175569  0.03106719  1
  O  O21  1  0.46771465  0.16713681  0.52546639  1
  O  O22  1  0.69732494  0.52974151  0.52624532  1
  O  O23  1  0.83218548  0.30354064  0.52576408  1
  O  O24  1  0.53135020  0.69859956  0.97516266  1
  O  O25  1  0.16488492  0.46752526  0.97382760  1
  O  O26  1  0.30503318  0.83058931  0.97484562  1
  O  O27  1  0.52740021  0.83119460  0.47383122  1
  O  O28  1  0.29928874  0.46645632  0.47410743  1
  O  O29  1  0.16845979  0.69796017  0.47371010  1
  O  O30  1  0.13971810  0.63918327  0.35812771  1
  O  O31  1  0.49864861  0.86038150  0.35771800  1
  O  O32  1  0.36324407  0.49654876  0.35931442  1
  O  O33  1  0.13423092  0.50189261  0.85866005  1
  O  O34  1  0.36217808  0.85969667  0.85947839  1
  O  O35  1  0.49935598  0.63629073  0.85964865  1
  O  O36  1  0.03041357  0.84033684  0.40608938  1
  O  O37  1  0.80563715  0.97172470  0.40991850  1
  O  O38  1  0.16364380  0.18594995  0.40625057  1
  O  O39  1  0.02718885  0.18989657  0.90991781  1
  O  O40  1  0.16086879  0.97071928  0.90858927  1
  O  O41  1  0.81664867  0.83804226  0.90857812  1
  O  O42  1  0.97162659  0.16451331  0.58999945  1
  O  O43  1  0.18519365  0.02213748  0.59298206  1
  O  O44  1  0.84052845  0.81008010  0.59309715  1
  O  O45  1  0.97452210  0.81488787  0.09219633  1
  O  O46  1  0.82569548  0.02811875  0.09032742  1
  O  O47  1  0.18565953  0.16319692  0.09224421  1
  O  O48  1  0.69796496  0.17790844  0.74440631  1
  O  O49  1  0.48493271  0.31504996  0.74427118  1
  O  O50  1  0.84363736  0.53837281  0.74566135  1
  O  O51  1  0.68854925  0.52322927  0.24225818  1
  O  O52  1  0.82078081  0.29781653  0.24007434  1
  O  O53  1  0.46435944  0.15614023  0.24033430  1
  O  O54  1  0.63786350  0.49759978  0.92349119  1
  O  O55  1  0.85093827  0.35448776  0.92680071  1
  O  O56  1  0.50460664  0.14160147  0.92696997  1
  O  O57  1  0.63909592  0.14690072  0.42228388  1
  O  O58  1  0.50667943  0.35927420  0.42257193  1
  O  O59  1  0.85506584  0.49611027  0.42266512  1
  O  O60  1  0.36425375  0.50921230  0.07719908  1
  O  O61  1  0.15201824  0.64791900  0.07711015  1
  O  O62  1  0.51203095  0.87055808  0.07890589  1
  O  O63  1  0.35992359  0.85357341  0.57642819  1
  O  O64  1  0.49595889  0.64013178  0.57657282  1
  O  O65  1  0.14589075  0.50652002  0.57730404  1
  O  O66  1  0.30371105  0.84361660  0.25285869  1
  O  O67  1  0.51805502  0.69756626  0.25482363  1
  O  O68  1  0.16744688  0.48361398  0.25546332  1
  O  O69  1  0.30205334  0.47843059  0.75749503  1
  O  O70  1  0.15794275  0.69559639  0.75662645  1
  O  O71  1  0.51754908  0.83154930  0.75755029  1
loop_
_geom_bond_atom_site_label_1
_geom_bond_atom_site_label_2
_geom_bond_distance
_geom_bond_site_symmetry_2
Na0 O43 2.588915 1_565
Na0 O42 2.597327 1_465
Na0 O44 2.608803 1_455
Na0 O37 2.659151 1_455
Na0 O36 2.679227 1_555
Na0 O38 2.694444 1_565
Na1 O40 2.521898 1_555
Na1 O41 2.548630 1_455
Na1 O39 2.568398 1_565
Na1 O45 2.652160 1_456
Na1 O47 2.671114 1_566
Na1 O46 2.766916 1_466
Na2 O48 2.465041 1_555
Na2 O49 2.479917 1_555
Na2 O50 2.614542 1_555
Na2 O56 2.701680 1_555
Na2 O54 2.702405 1_555
Na2 O55 2.713288 1_555
Na3 O59 2.427077 1_555
Na3 O57 2.433749 1_555
Na3 O58 2.457811 1_555
Na3 O52 2.754935 1_555
Na3 O51 2.759089 1_555
Na3 O53 2.867261 1_555
Na4 O68 2.494186 1_555
Na4 O67 2.498739 1_555
Na4 O60 2.553293 1_555
Na4 O61 2.588310 1_555
Na4 O66 2.644916 1_555
Na4 O62 2.709689 1_555
Na5 O64 2.508908 1_555
Na5 O65 2.514942 1_555
Na5 O63 2.538699 1_555
Na5 O69 2.647646 1_555
Na5 O71 2.651087 1_555
Na5 O70 2.757770 1_555
O0 S0 1.466546 1_555
O0 Ta0 2.311848 1_445
O1 Si0 1.614710 1_555
O1 Ta0 1.965350 1_555
O2 Si1 1.621488 1_655
O2 Ta0 1.969132 1_545
O3 Si2 1.648294 1_555
O3 Ta1 1.917397 1_555
O4 S1 1.488407 1_655
O4 Ta1 2.178123 1_665
O5 Si3 1.646458 1_555
O5 Ta1 1.925683 1_655
O6 Si3 1.629503 1_565
O6 Ta2 1.950596 1_565
O7 Si2 1.627084 1_555
O7 Ta2 1.950639 1_455
O8 S1 1.469972 1_555
O8 Ta2 2.258463 1_465
O9 Si0 1.640704 1_555
O9 Ta3 1.924734 1_565
O10 Si1 1.652617 1_555
O10 Ta3 1.912619 1_455
O11 S0 1.508978 1_565
O11 Ta3 2.068891 1_465
O12 Si4 1.632458 1_555
O12 Ta4 1.939611 1_555
O13 Si5 1.659305 1_555
O13 Ta4 1.870298 1_555
O14 Si6 1.641936 1_555
O14 Ta4 1.927714 1_555
O15 Si7 1.661360 1_555
O15 Ta5 1.878750 1_555
O16 S2 1.475106 1_555
O16 Ta5 2.227626 1_555
O17 Si8 1.641218 1_555
O17 Ta5 1.927224 1_555
O18 Si8 1.631294 1_555
O18 Ta6 1.945763 1_554
O19 Si7 1.625679 1_555
O19 Ta6 1.968658 1_554
O20 S2 1.468435 1_555
O20 Ta6 2.276693 1_554
O21 Si5 1.624769 1_555
O21 Ta7 1.968681 1_555
O22 Si6 1.631268 1_555
O22 Ta7 1.944080 1_555
O23 Si4 1.621780 1_555
O23 Ta7 1.944847 1_555
O24 Si9 1.629780 1_555
O24 Ta8 1.953138 1_556
O25 Si10 1.653910 1_555
O25 Ta8 1.875072 1_556
O26 Si11 1.644750 1_555
O26 Ta8 1.931048 1_556
O27 Si12 1.613470 1_555
O27 Ta9 1.962828 1_555
O28 Si13 1.613488 1_555
O28 Ta9 1.981106 1_555
O29 Si14 1.621243 1_555
O29 Ta9 1.970238 1_555
O30 Si14 1.652621 1_555
O30 Ta10 1.912754 1_555
O31 Si12 1.643089 1_555
O31 Ta10 1.930685 1_555
O32 Si13 1.666832 1_555
O32 Ta10 1.861038 1_555
O33 Si10 1.612302 1_555
O33 Ta11 1.990041 1_555
O34 Si11 1.625371 1_555
O34 Ta11 1.957808 1_555
O35 Si9 1.631923 1_555
O35 Ta11 1.903490 1_555
O36 Si14 1.644185 1_555
O36 Ta0 1.946006 1_455
O37 Si12 1.662730 1_555
O37 Ta0 1.877818 1_555
O38 Si13 1.633475 1_555
O38 Ta0 1.946919 1_445
O39 Si10 1.636772 1_555
O39 Ta1 1.929946 1_555
O40 Si11 1.628050 1_555
O40 Ta1 1.997220 1_565
O41 Si9 1.611855 1_555
O41 Ta1 2.013940 1_665
O42 Si4 1.654035 1_555
O42 Ta2 1.897219 1_555
O43 Si5 1.630185 1_555
O43 Ta2 1.975019 1_455
O44 Si6 1.635396 1_555
O44 Ta2 1.960065 1_565
O45 Si7 1.636903 1_555
O45 Ta3 1.990842 1_565
O46 S2 1.516832 1_555
O46 Ta3 2.084558 1_555
O47 Si8 1.643433 1_555
O47 Ta3 1.968949 1_455
O48 Si3 1.632625 1_555
O48 Ta4 2.021621 1_555
O49 Si2 1.633201 1_555
O49 Ta4 2.012649 1_555
O50 S1 1.483259 1_655
O50 Ta4 2.261450 1_555
O51 Si0 1.671045 1_555
O51 Ta5 1.892881 1_555
O52 Si1 1.651836 1_655
O52 Ta5 1.953620 1_555
O53 S0 1.493152 1_555
O53 Ta5 2.176814 1_555
O54 Si9 1.649470 1_555
O54 Ta6 1.891788 1_555
O55 Si10 1.623147 1_655
O55 Ta6 1.969879 1_555
O56 Si11 1.639509 1_545
O56 Ta6 1.954054 1_555
O57 Si12 1.611821 1_545
O57 Ta7 2.028400 1_555
O58 Si13 1.610784 1_555
O58 Ta7 2.006749 1_555
O59 Si14 1.621988 1_655
O59 Ta7 2.018705 1_555
O60 Si8 1.634050 1_555
O60 Ta8 2.014693 1_555
O61 Si7 1.631452 1_455
O61 Ta8 2.003525 1_555
O62 S2 1.479623 1_565
O62 Ta8 2.252979 1_555
O63 Si5 1.618555 1_565
O63 Ta9 1.991062 1_555
O64 Si6 1.624531 1_555
O64 Ta9 1.996264 1_555
O65 Si4 1.614911 1_455
O65 Ta9 1.992844 1_555
O66 S0 1.470330 1_565
O66 Ta10 2.311645 1_555
O67 Si0 1.620329 1_555
O67 Ta10 2.039165 1_555
O68 Si1 1.629719 1_555
O68 Ta10 2.028972 1_555
O69 Si2 1.642577 1_555
O69 Ta11 1.974036 1_555
O70 S1 1.494930 1_555
O70 Ta11 2.168745 1_555
O71 Si3 1.647113 1_565
O71 Ta11 1.964734 1_555
