# generated using pymatgen
data_PH3O4
_symmetry_space_group_name_H-M   'P 1'
_cell_length_a   4.80561733
_cell_length_b   5.95697915
_cell_length_c   12.21316315
_cell_angle_alpha   83.38771239
_cell_angle_beta   90.00000000
_cell_angle_gamma   90.00000000
_symmetry_Int_Tables_number   1
_chemical_formula_structural   PH3O4
_chemical_formula_sum   'P4 H12 O16'
_cell_volume   347.30008235
_cell_formula_units_Z   4
loop_
 _symmetry_equiv_pos_site_id
 _symmetry_equiv_pos_as_xyz
  1  'x, y, z'
loop_
 _atom_site_type_symbol
 _atom_site_label
 _atom_site_symmetry_multiplicity
 _atom_site_fract_x
 _atom_site_fract_y
 _atom_site_fract_z
 _atom_site_occupancy
  P  P0  1  0.80830549  0.78754786  0.64804382  1
  P  P1  1  0.30830549  0.21245214  0.85195618  1
  P  P2  1  0.19169451  0.21245214  0.35195618  1
  P  P3  1  0.69169451  0.78754786  0.14804382  1
  H  H0  1  0.41647558  0.71959490  0.56836761  1
  H  H1  1  0.91647558  0.28040510  0.93163239  1
  H  H2  1  0.58352442  0.28040510  0.43163239  1
  H  H3  1  0.08352442  0.71959490  0.06836761  1
  H  H4  1  0.99709758  0.12172075  0.67178281  1
  H  H5  1  0.49709758  0.87827925  0.82821719  1
  H  H6  1  0.00290242  0.87827925  0.32821719  1
  H  H7  1  0.50290242  0.12172075  0.17178281  1
  H  H8  1  0.12041169  0.50499070  0.68025804  1
  H  H9  1  0.62041169  0.49500930  0.81974196  1
  H  H10  1  0.87958831  0.49500930  0.31974196  1
  H  H11  1  0.37958831  0.50499070  0.18025804  1
  O  O0  1  0.61919617  0.72359254  0.55173278  1
  O  O1  1  0.11919617  0.27640746  0.94826722  1
  O  O2  1  0.38080383  0.27640746  0.44826722  1
  O  O3  1  0.88080383  0.72359254  0.05173278  1
  O  O4  1  0.86636548  0.04490526  0.62168334  1
  O  O5  1  0.36636548  0.95509474  0.87831666  1
  O  O6  1  0.13363452  0.95509474  0.37831666  1
  O  O7  1  0.63363452  0.04490526  0.12168334  1
  O  O8  1  0.67903451  0.72464075  0.76113046  1
  O  O9  1  0.17903451  0.27535925  0.73886954  1
  O  O10  1  0.32096549  0.27535925  0.23886954  1
  O  O11  1  0.82096549  0.72464075  0.26113046  1
  O  O12  1  0.09312902  0.66280762  0.63566056  1
  O  O13  1  0.59312902  0.33719238  0.86433944  1
  O  O14  1  0.90687098  0.33719238  0.36433944  1
  O  O15  1  0.40687098  0.66280762  0.13566056  1
loop_
_geom_bond_atom_site_label_1
_geom_bond_atom_site_label_2
_geom_bond_distance
_geom_bond_site_symmetry_2
H0 O0 0.994882 1_555
H1 O1 0.994882 1_655
H2 O2 0.994882 1_555
H3 O3 0.994882 1_455
H4 O4 1.021250 1_555
H4 O9 1.563995 1_655
H5 O5 1.021250 1_555
H5 O8 1.563995 1_555
H6 O6 1.021250 1_555
H6 O11 1.563995 1_455
H7 O7 1.021250 1_555
H7 O10 1.563995 1_555
H8 O12 1.039108 1_555
H8 O9 1.495811 1_555
H9 O13 1.039108 1_555
H9 O8 1.495811 1_555
H10 O14 1.039108 1_555
H10 O11 1.495811 1_555
H11 O15 1.039108 1_555
H11 O10 1.495811 1_555
O0 P0 1.567750 1_555
O1 P1 1.567750 1_555
O2 P2 1.567750 1_555
O3 P3 1.567750 1_555
O4 P0 1.555037 1_545
O5 P1 1.555037 1_565
O6 P2 1.555037 1_565
O7 P3 1.555037 1_545
O8 P0 1.521420 1_555
O9 P1 1.521420 1_555
O10 P2 1.521420 1_555
O11 P3 1.521420 1_555
O12 P0 1.573022 1_455
O13 P1 1.573022 1_555
O14 P2 1.573022 1_655
O15 P3 1.573022 1_555
