# generated using pymatgen
data_Na6Mg3TiSi2(SO6)4
_symmetry_space_group_name_H-M   'P 1'
_cell_length_a   8.95721513
_cell_length_b   8.98189648
_cell_length_c   22.10753471
_cell_angle_alpha   89.94453080
_cell_angle_beta   89.60470799
_cell_angle_gamma   119.97588417
_symmetry_Int_Tables_number   1
_chemical_formula_structural   Na6Mg3TiSi2(SO6)4
_chemical_formula_sum   'Na18 Mg9 Ti3 Si6 S12 O72'
_cell_volume   1540.64119161
_cell_formula_units_Z   3
loop_
 _symmetry_equiv_pos_site_id
 _symmetry_equiv_pos_as_xyz
  1  'x, y, z'
loop_
 _atom_site_type_symbol
 _atom_site_label
 _atom_site_symmetry_multiplicity
 _atom_site_fract_x
 _atom_site_fract_y
 _atom_site_fract_z
 _atom_site_occupancy
  Na  Na0  1  0.63323690  0.99627069  0.25954055  1
  Na  Na1  1  0.36838304  0.36416623  0.24223419  1
  Na  Na2  1  0.64115733  0.64938109  0.73930298  1
  Na  Na3  1  0.31476945  0.34411828  0.59022647  1
  Na  Na4  1  0.02435521  0.70039667  0.58424962  1
  Na  Na5  1  0.66586381  0.94512386  0.58423918  1
  Na  Na6  1  0.29676832  0.97185730  0.07606966  1
  Na  Na7  1  0.05096689  0.33742425  0.07403894  1
  Na  Na8  1  0.98257252  0.67156515  0.91592106  1
  Na  Na9  1  0.70891506  0.03592442  0.90412076  1
  Na  Na10  1  0.30794510  0.29024488  0.91704159  1
  Na  Na11  1  0.69404419  0.68589371  0.42205821  1
  Na  Na12  1  0.98395542  -0.00017320  0.49534533  1
  Na  Na13  1  0.01028342  0.01178140  0.99651002  1
  Na  Na14  1  0.67329603  0.30653398  0.82487900  1
  Na  Na15  1  0.67605932  0.32018548  0.33605562  1
  Na  Na16  1  0.33745232  0.65573847  0.16218834  1
  Na  Na17  1  0.35043710  0.67549849  0.67024426  1
  Mg  Mg0  1  0.99863611  0.00545031  0.35211763  1
  Mg  Mg1  1  0.99970897  0.01268175  0.84912593  1
  Mg  Mg2  1  0.97742633  0.98525637  0.65284211  1
  Mg  Mg3  1  0.00625711  0.00150033  0.14637206  1
  Mg  Mg4  1  0.66055024  0.32323303  0.68694878  1
  Mg  Mg5  1  0.66535542  0.34226276  0.18240802  1
  Mg  Mg6  1  0.33155390  0.65863730  0.01766071  1
  Mg  Mg7  1  0.34790210  0.67025257  0.51468269  1
  Mg  Mg8  1  0.33890524  0.68532592  0.32182403  1
  Ti  Ti0  1  0.65266311  0.32221773  0.97924824  1
  Ti  Ti1  1  0.66894756  0.33229835  0.47983661  1
  Ti  Ti2  1  0.32460606  0.68303255  0.81683008  1
  Si  Si0  1  0.69524102  0.99837146  0.75098538  1
  Si  Si1  1  0.66559298  0.62461731  0.58521521  1
  Si  Si2  1  0.37151533  0.33941974  0.08745109  1
  Si  Si3  1  0.03799720  0.37348114  0.92016387  1
  Si  Si4  1  0.32753019  0.95861446  0.92197040  1
  Si  Si5  1  0.63755229  0.97082486  0.41644786  1
  S  S0  1  0.29195500  0.99506767  0.24921715  1
  S  S1  1  0.70866459  0.70470015  0.25113922  1
  S  S2  1  0.00139495  0.29753842  0.24847495  1
  S  S3  1  0.29536862  0.29896509  0.74975583  1
  S  S4  1  0.00306842  0.70696322  0.75041999  1
  S  S5  1  0.95913015  0.33780866  0.58220425  1
  S  S6  1  0.37424563  0.04268426  0.58291265  1
  S  S7  1  0.95581883  0.62604271  0.08373030  1
  S  S8  1  0.66759693  0.04217982  0.08507041  1
  S  S9  1  0.62407078  0.66231687  0.91675110  1
  S  S10  1  0.33437989  0.36810379  0.41603794  1
  S  S11  1  0.03728487  0.66341387  0.41837928  1
  O  O0  1  0.20197195  0.01729850  0.30153650  1
  O  O1  1  0.80249376  0.78524740  0.30737719  1
  O  O2  1  0.97472639  0.18420906  0.30090771  1
  O  O3  1  0.21266078  0.19661646  0.80480676  1
  O  O4  1  0.98750784  0.79389532  0.80466466  1
  O  O5  1  0.80091121  0.00707852  0.81118518  1
  O  O6  1  0.76410394  0.94758339  0.68970040  1
  O  O7  1  0.19648587  0.21263628  0.69422335  1
  O  O8  1  0.02926805  0.80887163  0.69431411  1
  O  O9  1  0.79631088  0.81568853  0.19816099  1
  O  O10  1  0.02629167  0.21938779  0.19235917  1
  O  O11  1  0.19988151  0.98358026  0.19239579  1
  O  O12  1  0.87881619  0.36091213  0.63613631  1
  O  O13  1  0.48366570  0.11597988  0.63574163  1
  O  O14  1  0.64269921  0.50783792  0.64368029  1
  O  O15  1  0.87151768  0.51334657  0.13613323  1
  O  O16  1  0.64789539  0.12626500  0.13953259  1
  O  O17  1  0.47190279  0.34813882  0.14841709  1
  O  O18  1  0.48701116  0.31859513  0.02823234  1
  O  O19  1  0.86001368  0.54370428  0.02685713  1
  O  O20  1  0.69338521  0.15358743  0.02965839  1
  O  O21  1  0.46363872  0.15023972  0.52794019  1
  O  O22  1  0.68165201  0.51357322  0.52528019  1
  O  O23  1  0.84595259  0.30576763  0.52791955  1
  O  O24  1  0.54666397  0.69405506  0.97002334  1
  O  O25  1  0.15311613  0.45133344  0.97953029  1
  O  O26  1  0.30751772  0.85121103  0.98222619  1
  O  O27  1  0.54674447  0.85073717  0.47524025  1
  O  O28  1  0.30837330  0.44466363  0.47148500  1
  O  O29  1  0.13035213  0.67733482  0.47478420  1
  O  O30  1  0.11903008  0.63665260  0.36516323  1
  O  O31  1  0.52798918  0.89920906  0.35436768  1
  O  O32  1  0.36089280  0.47829269  0.36193260  1
  O  O33  1  0.14168084  0.50983297  0.86323356  1
  O  O34  1  0.36882130  0.86657290  0.86319762  1
  O  O35  1  0.51741116  0.63097717  0.86182302  1
  O  O36  1  0.01405119  0.81546525  0.41229810  1
  O  O37  1  0.82738486  0.98766841  0.41161147  1
  O  O38  1  0.19073059  0.19244509  0.40938078  1
  O  O39  1  0.00602663  0.18110578  0.91191365  1
  O  O40  1  0.16335705  0.98182366  0.91060996  1
  O  O41  1  0.80213119  0.80668588  0.91029408  1
  O  O42  1  0.98551470  0.18659954  0.58577937  1
  O  O43  1  0.20665741  0.03963813  0.58776995  1
  O  O44  1  0.84329861  0.81284393  0.58181151  1
  O  O45  1  0.96902023  0.79693235  0.08869337  1
  O  O46  1  0.82530514  0.02841418  0.08751045  1
  O  O47  1  0.18396141  0.15875884  0.08222915  1
  O  O48  1  0.66947838  0.16255119  0.74414417  1
  O  O49  1  0.47385726  0.32765186  0.74707248  1
  O  O50  1  0.84608997  0.53633784  0.74656870  1
  O  O51  1  0.68884418  0.52977192  0.24712686  1
  O  O52  1  0.84183966  0.31100060  0.24424648  1
  O  O53  1  0.47095149  0.15031477  0.24807058  1
  O  O54  1  0.63698684  0.50067571  0.92297975  1
  O  O55  1  0.84656262  0.36450966  0.92504300  1
  O  O56  1  0.50840583  0.15255870  0.92428682  1
  O  O57  1  0.65779143  0.16679108  0.42786077  1
  O  O58  1  0.50165699  0.36364682  0.42079569  1
  O  O59  1  0.85611932  0.50749788  0.42188960  1
  O  O60  1  0.34765159  0.50529106  0.08164841  1
  O  O61  1  0.13312678  0.65124723  0.08118464  1
  O  O62  1  0.51057963  0.87366707  0.07948315  1
  O  O63  1  0.33940090  0.86325195  0.57586386  1
  O  O64  1  0.49116609  0.64069601  0.58037211  1
  O  O65  1  0.12927036  0.49624172  0.57320955  1
  O  O66  1  0.31015138  0.83906823  0.25327091  1
  O  O67  1  0.52960057  0.68221731  0.25367507  1
  O  O68  1  0.15926711  0.46843840  0.25551968  1
  O  O69  1  0.31022424  0.47245007  0.75325581  1
  O  O70  1  0.15959606  0.68643886  0.75431799  1
  O  O71  1  0.49987080  0.81122899  0.76088780  1
loop_
_geom_bond_atom_site_label_1
_geom_bond_atom_site_label_2
_geom_bond_distance
_geom_bond_site_symmetry_2
Na0 O31 2.278499 1_555
Na0 O53 2.471009 1_565
Na0 O67 2.494230 1_555
Na0 O52 2.511591 1_565
Na0 O66 2.512076 1_555
Na0 O2 2.814968 1_565
Na0 O16 2.873213 1_565
Na0 O9 2.991671 1_555
Na1 O17 2.299932 1_555
Na1 O67 2.488820 1_555
Na1 O51 2.490322 1_555
Na1 O68 2.493559 1_555
Na1 O53 2.512907 1_555
Na1 O32 2.851205 1_555
Na1 O10 2.892002 1_555
Na1 O0 2.995282 1_555
Na2 O71 2.402896 1_555
Na2 O14 2.471382 1_555
Na2 O50 2.508471 1_555
Na2 O49 2.508779 1_555
Na2 O6 2.572818 1_555
Na2 O69 2.585829 1_555
Na2 O35 2.892601 1_555
Na3 O64 2.329852 1_555
Na3 O43 2.403018 1_555
Na3 O7 2.552242 1_555
Na3 O42 2.558107 1_455
Na3 O65 2.654332 1_555
Na3 O28 2.785514 1_555
Na3 O14 2.814581 1_555
Na4 O44 2.300211 1_455
Na4 O63 2.450468 1_555
Na4 O65 2.454548 1_555
Na4 O8 2.614416 1_555
Na4 O29 2.639428 1_555
Na4 O43 2.643325 1_565
Na4 O12 2.883300 1_455
Na4 O22 2.974963 1_455
Na5 O64 2.378917 1_555
Na5 O44 2.413782 1_555
Na5 O6 2.493919 1_555
Na5 O42 2.588276 1_565
Na5 O27 2.607554 1_555
Na5 O63 2.642902 1_555
Na6 O47 2.356102 1_565
Na6 O26 2.365069 1_554
Na6 O62 2.478102 1_555
Na6 O61 2.496611 1_555
Na6 O45 2.558039 1_455
Na6 O11 2.727421 1_555
Na6 O18 2.896046 1_565
Na7 O25 2.298562 1_554
Na7 O60 2.316579 1_555
Na7 O47 2.437175 1_555
Na7 O46 2.502360 1_455
Na7 O61 2.537984 1_555
Na7 O10 2.787042 1_555
Na8 O55 2.401906 1_555
Na8 O40 2.426767 1_655
Na8 O41 2.462370 1_555
Na8 O4 2.683953 1_555
Na8 O54 2.684655 1_555
Na8 O19 2.690071 1_556
Na8 O33 2.747219 1_655
Na8 O26 2.931608 1_655
Na9 O5 2.271222 1_555
Na9 O39 2.313340 1_655
Na9 O56 2.528205 1_555
Na9 O41 2.583446 1_545
Na9 O55 2.611270 1_555
Na9 O34 2.796873 1_545
Na10 O39 2.375429 1_555
Na10 O40 2.406195 1_545
Na10 O54 2.591417 1_555
Na10 O3 2.628348 1_555
Na10 O56 2.646059 1_555
Na10 O25 2.812081 1_555
Na10 O18 2.885732 1_556
Na10 O35 2.932565 1_555
Na11 O37 2.363623 1_555
Na11 O36 2.504916 1_655
Na11 O58 2.522807 1_555
Na11 O59 2.645648 1_555
Na11 O27 2.692466 1_555
Na11 O1 2.695033 1_555
Na11 O22 2.726414 1_555
Na11 O32 2.940739 1_555
Na12 O37 2.299713 1_545
Na12 O44 2.430661 1_545
Na12 O36 2.575002 1_645
Na12 O38 2.603534 1_655
Na12 O42 2.606724 1_555
Na12 O43 2.761688 1_655
Na13 O47 2.397366 1_556
Na13 O39 2.421897 1_555
Na13 O40 2.427433 1_545
Na13 O46 2.648936 1_456
Na13 O41 2.669527 1_445
Na13 O45 2.698712 1_446
Na14 O48 2.195550 1_555
Na14 O50 2.533164 1_555
Na14 O49 2.562500 1_555
Na14 O55 2.612541 1_555
Na14 O56 2.613806 1_555
Na14 O54 2.900745 1_555
Na15 O57 2.410181 1_555
Na15 O59 2.523787 1_555
Na15 O52 2.532301 1_555
Na15 O58 2.583164 1_555
Na15 O53 2.596296 1_555
Na15 O51 2.682593 1_555
Na16 O60 2.265052 1_555
Na16 O62 2.549520 1_555
Na16 O61 2.555335 1_555
Na16 O67 2.597964 1_555
Na16 O68 2.626707 1_555
Na16 O66 2.688473 1_555
Na17 O71 2.388435 1_555
Na17 O64 2.448397 1_555
Na17 O69 2.480261 1_555
Na17 O70 2.551610 1_555
Na17 O63 2.714743 1_555
Na17 O65 2.827852 1_555
Mg0 O37 1.958397 1_545
Mg0 O2 2.061295 1_555
Mg0 O0 2.087331 1_655
Mg0 O38 2.128498 1_655
Mg0 O1 2.128916 1_545
Mg0 O36 2.221399 1_645
Mg1 O5 1.951414 1_555
Mg1 O39 2.034218 1_655
Mg1 O3 2.037118 1_655
Mg1 O40 2.122690 1_645
Mg1 O4 2.151835 1_545
Mg1 O41 2.252576 1_545
Mg2 O6 1.939440 1_555
Mg2 O8 2.074689 1_655
Mg2 O44 2.116365 1_555
Mg2 O7 2.209522 1_665
Mg2 O42 2.310021 1_565
Mg2 O43 2.340882 1_665
Mg3 O47 2.063464 1_555
Mg3 O11 2.090946 1_545
Mg3 O9 2.112583 1_445
Mg3 O45 2.123979 1_445
Mg3 O10 2.133365 1_555
Mg3 O46 2.190634 1_455
Mg4 O48 1.949699 1_555
Mg4 O14 1.988428 1_555
Mg4 O13 2.082964 1_555
Mg4 O12 2.122842 1_555
Mg4 O49 2.144874 1_555
Mg4 O50 2.240385 1_555
Mg5 O17 1.918159 1_555
Mg5 O15 1.988284 1_555
Mg5 O16 2.095042 1_555
Mg5 O51 2.140702 1_555
Mg5 O52 2.217968 1_555
Mg5 O53 2.252142 1_555
Mg6 O25 1.944206 1_554
Mg6 O26 2.005899 1_554
Mg6 O60 2.028910 1_555
Mg6 O24 2.069221 1_554
Mg6 O61 2.232287 1_555
Mg6 O62 2.260563 1_555
Mg7 O27 1.910801 1_555
Mg7 O64 2.047330 1_555
Mg7 O28 2.105813 1_555
Mg7 O29 2.174109 1_555
Mg7 O65 2.203313 1_555
Mg7 O63 2.230533 1_555
Mg8 O31 1.960832 1_555
Mg8 O30 2.025019 1_555
Mg8 O66 2.151001 1_555
Mg8 O32 2.155955 1_555
Mg8 O67 2.280454 1_555
Mg8 O68 2.332053 1_555
O0 S0 1.475042 1_545
O1 S1 1.477862 1_555
O2 S2 1.479113 1_655
O3 S3 1.476468 1_555
O4 S4 1.474949 1_655
O5 Si0 1.617660 1_545
O6 Si0 1.641659 1_555
O7 S3 1.491144 1_555
O8 S4 1.486788 1_555
O9 S1 1.478129 1_555
O10 S2 1.495255 1_555
O11 S0 1.482672 1_555
O12 S5 1.456019 1_555
O13 S6 1.459641 1_555
O14 Si1 1.609854 1_555
O15 S7 1.469280 1_555
O16 S8 1.477573 1_555
O17 Si2 1.605561 1_555
O18 Si2 1.730410 1_555
O18 Ti0 1.817936 1_554
O19 S7 1.498910 1_555
O19 Ti0 2.203129 1_554
O20 S8 1.522528 1_555
O20 Ti0 2.055119 1_554
O21 S6 1.504227 1_555
O21 Ti1 2.037516 1_555
O22 Si1 1.707170 1_555
O22 Ti1 1.868922 1_555
O23 S5 1.508869 1_555
O23 Ti1 2.025035 1_555
O24 S9 1.461475 1_555
O25 Si3 1.604579 1_555
O26 Si4 1.599587 1_555
O27 Si5 1.618758 1_555
O28 S10 1.479011 1_555
O29 S11 1.475125 1_555
O30 S11 1.463740 1_555
O31 Si5 1.627866 1_555
O32 S10 1.491837 1_555
O33 Si3 1.670558 1_555
O33 Ti2 1.893090 1_555
O34 Si4 1.676144 1_555
O34 Ti2 1.811564 1_555
O35 S9 1.488118 1_555
O35 Ti2 2.240581 1_555
O36 S11 1.486804 1_555
O37 Si5 1.632785 1_555
O38 S10 1.463215 1_555
O39 Si3 1.614861 1_555
O40 Si4 1.606340 1_555
O41 S9 1.474948 1_555
O42 S5 1.492463 1_555
O43 S6 1.490765 1_555
O44 Si1 1.645163 1_555
O45 S7 1.483616 1_555
O46 S8 1.479622 1_555
O47 Si2 1.657610 1_555
O48 Si0 1.609595 1_545
O49 S3 1.487605 1_555
O50 S4 1.477025 1_655
O51 S1 1.493240 1_555
O52 S2 1.496795 1_655
O53 S0 1.510284 1_545
O54 S9 1.519169 1_555
O54 Ti0 2.088029 1_555
O55 Si3 1.678617 1_655
O55 Ti0 1.976850 1_555
O56 Si4 1.686153 1_545
O56 Ti0 1.877711 1_555
O57 Si5 1.696255 1_545
O57 Ti1 1.843002 1_555
O58 S10 1.523084 1_555
O58 Ti1 2.115708 1_555
O59 S11 1.525672 1_655
O59 Ti1 2.063576 1_555
O60 Si2 1.612452 1_555
O61 S7 1.488695 1_455
O62 S8 1.469618 1_565
O63 S6 1.489161 1_565
O64 Si1 1.643501 1_555
O65 S5 1.488374 1_455
O66 S0 1.491993 1_555
O67 S1 1.513785 1_555
O68 S2 1.488154 1_555
O69 S3 1.498312 1_555
O69 Ti2 2.309462 1_555
O70 S4 1.505680 1_555
O70 Ti2 2.041737 1_555
O71 Si0 1.729267 1_555
O71 Ti2 1.866558 1_555
