# generated using pymatgen
data_Mg(CoO2)4
_symmetry_space_group_name_H-M   'P 1'
_cell_length_a   5.94628681
_cell_length_b   5.82096229
_cell_length_c   5.73970638
_cell_angle_alpha   118.63369019
_cell_angle_beta   118.59265143
_cell_angle_gamma   93.72655667
_symmetry_Int_Tables_number   1
_chemical_formula_structural   Mg(CoO2)4
_chemical_formula_sum   'Mg1 Co4 O8'
_cell_volume   141.50003699
_cell_formula_units_Z   1
loop_
 _symmetry_equiv_pos_site_id
 _symmetry_equiv_pos_as_xyz
  1  'x, y, z'
loop_
 _atom_site_type_symbol
 _atom_site_label
 _atom_site_symmetry_multiplicity
 _atom_site_fract_x
 _atom_site_fract_y
 _atom_site_fract_z
 _atom_site_occupancy
  Mg  Mg0  1  0.47211300  0.49447900  0.52121500  1
  Co  Co0  1  0.47186500  0.49103200  0.01957800  1
  Co  Co1  1  0.97291800  0.99112900  0.51954600  1
  Co  Co2  1  0.97117700  0.48989200  0.01869700  1
  Co  Co3  1  0.97060900  0.48993700  0.51826800  1
  O  O0  1  0.73862200  0.69648200  0.01880800  1
  O  O1  1  0.18880800  0.71424200  0.48455700  1
  O  O2  1  0.20542700  0.28549400  0.02061900  1
  O  O3  1  0.17587500  0.69637000  0.96159500  1
  O  O4  1  0.75344500  0.26652500  0.55330100  1
  O  O5  1  0.22930100  0.25716600  0.56072100  1
  O  O6  1  0.76599500  0.28320000  0.07533200  1
  O  O7  1  0.71480600  0.72500600  0.47776700  1
loop_
_geom_bond_atom_site_label_1
_geom_bond_atom_site_label_2
_geom_bond_distance
_geom_bond_site_symmetry_2
Mg0 O0 2.063481 1_556
Mg0 O2 2.070833 1_555
Mg0 O7 2.087803 1_555
Mg0 O5 2.097287 1_555
Mg0 O1 2.171970 1_555
Mg0 O4 2.195680 1_555
Co0 O7 1.879650 1_555
Co0 O5 1.882160 1_554
Co0 O2 1.926409 1_555
Co0 O0 1.926525 1_555
Co0 O3 2.175136 1_554
Co0 O6 2.176072 1_555
Co1 O5 1.943105 1_665
Co1 O7 1.948195 1_555
Co1 O0 2.067696 1_555
Co1 O2 2.069303 1_666
Co1 O1 2.119331 1_655
Co1 O4 2.127632 1_565
Co2 O2 1.889246 1_655
Co2 O0 1.890674 1_555
Co2 O3 1.898093 1_654
Co2 O6 1.898801 1_555
Co2 O4 1.909045 1_554
Co2 O1 1.910873 1_655
Co3 O6 1.818976 1_555
Co3 O3 1.820612 1_655
Co3 O4 1.918341 1_555
Co3 O1 1.920382 1_655
Co3 O7 2.115893 1_555
Co3 O5 2.118985 1_655
