# generated using pymatgen
data_CoF3
_symmetry_space_group_name_H-M   'P 1'
_cell_length_a   5.15083594
_cell_length_b   5.13433571
_cell_length_c   8.23913458
_cell_angle_alpha   71.85356445
_cell_angle_beta   107.17802615
_cell_angle_gamma   89.98966997
_symmetry_Int_Tables_number   1
_chemical_formula_structural   CoF3
_chemical_formula_sum   'Co4 F12'
_cell_volume   196.79757359
_cell_formula_units_Z   4
loop_
 _symmetry_equiv_pos_site_id
 _symmetry_equiv_pos_as_xyz
  1  'x, y, z'
loop_
 _atom_site_type_symbol
 _atom_site_label
 _atom_site_symmetry_multiplicity
 _atom_site_fract_x
 _atom_site_fract_y
 _atom_site_fract_z
 _atom_site_occupancy
  Co  Co0  1  0.50006306  0.50218126  -0.00291546  1
  Co  Co1  1  0.74990512  0.24898585  0.50297600  1
  Co  Co2  1  0.00326324  0.00170999  0.00191482  1
  Co  Co3  1  0.24664236  0.75339414  0.49812517  1
  F  F0  1  0.81863921  0.31773625  0.98955150  1
  F  F1  1  -0.06059159  0.92494216  0.50559356  1
  F  F2  1  0.18713912  0.68630281  0.01109256  1
  F  F3  1  0.55512741  0.57379358  0.49361308  1
  F  F4  1  0.12499456  0.89935769  0.24998260  1
  F  F5  1  0.36869143  0.61477384  0.74939633  1
  F  F6  1  0.62534130  0.36015091  0.25001995  1
  F  F7  1  0.88134245  0.11398775  0.75058944  1
  F  F8  1  0.43114799  0.05728669  0.51034447  1
  F  F9  1  0.69496545  0.81759318  0.00630864  1
  F  F10  1  0.06293547  0.44707710  0.48888417  1
  F  F11  1  0.31039342  0.18072781  0.99452515  1
loop_
_geom_bond_atom_site_label_1
_geom_bond_atom_site_label_2
_geom_bond_distance
_geom_bond_site_symmetry_2
Co0 F5 1.845538 1_554
Co0 F6 1.884143 1_555
Co0 F9 1.915293 1_555
Co0 F2 1.918919 1_555
Co0 F11 1.920668 1_554
Co0 F0 1.920817 1_554
Co1 F7 1.845004 1_555
Co1 F6 1.884174 1_555
Co1 F3 1.914987 1_555
Co1 F10 1.919701 1_655
Co1 F1 1.919877 1_645
Co1 F8 1.921040 1_555
Co2 F11 1.836772 1_554
Co2 F0 1.840318 1_454
Co2 F2 1.845559 1_545
Co2 F4 1.849475 1_545
Co2 F9 1.851981 1_445
Co2 F7 1.871553 1_454
Co3 F1 1.837032 1_555
Co3 F8 1.841107 1_565
Co3 F10 1.845870 1_555
Co3 F4 1.850108 1_555
Co3 F3 1.852621 1_555
Co3 F5 1.871095 1_555
