# generated using pymatgen
data_H12OsN5Cl3O
_symmetry_space_group_name_H-M   'P 1'
_cell_length_a   6.91772509
_cell_length_b   6.91772509
_cell_length_c   6.91772509
_cell_angle_alpha   113.07049216
_cell_angle_beta   113.07049216
_cell_angle_gamma   102.49023994
_symmetry_Int_Tables_number   1
_chemical_formula_structural   H12OsN5Cl3O
_chemical_formula_sum   'H12 Os1 N5 Cl3 O1'
_cell_volume   252.05098218
_cell_formula_units_Z   1
loop_
 _symmetry_equiv_pos_site_id
 _symmetry_equiv_pos_as_xyz
  1  'x, y, z'
loop_
 _atom_site_type_symbol
 _atom_site_label
 _atom_site_symmetry_multiplicity
 _atom_site_fract_x
 _atom_site_fract_y
 _atom_site_fract_z
 _atom_site_occupancy
  H  H0  1  0.13156800  0.13156800  0.45083300  1
  H  H1  1  0.13156800  0.68073500  0.00000000  1
  H  H2  1  0.68073500  0.13156800  0.00000000  1
  H  H3  1  0.68073500  0.68073500  0.54916700  1
  H  H4  1  0.75997000  0.91562500  0.53015000  1
  H  H5  1  0.38547500  0.22982000  0.46985000  1
  H  H6  1  0.22982000  0.75997000  0.84434500  1
  H  H7  1  0.91562500  0.38547500  0.15565500  1
  H  H8  1  0.91562500  0.75997000  0.53015000  1
  H  H9  1  0.75997000  0.22982000  0.84434500  1
  H  H10  1  0.22982000  0.38547500  0.46985000  1
  H  H11  1  0.38547500  0.91562500  0.15565500  1
  Os  Os0  1  0.03208700  0.03208700  0.00000000  1
  N  N0  1  0.23419200  0.23419200  0.00000000  1
  N  N1  1  0.82127200  0.82127200  0.60358000  1
  N  N2  1  0.82127200  0.21769200  0.00000000  1
  N  N3  1  0.21769200  0.82127200  0.00000000  1
  N  N4  1  0.21769200  0.21769200  0.39642000  1
  Cl  Cl0  1  0.73041700  0.23041700  0.50000000  1
  Cl  Cl1  1  0.23041700  0.73041700  0.50000000  1
  Cl  Cl2  1  0.76256100  0.76256100  0.00000000  1
  O  O0  1  0.37080900  0.37080900  0.00000000  1
loop_
_geom_bond_atom_site_label_1
_geom_bond_atom_site_label_2
_geom_bond_distance
_geom_bond_site_symmetry_2
H0 N4 1.024492 1_555
H1 N3 1.024492 1_555
H2 N2 1.024492 1_555
H3 N1 1.024492 1_555
H4 N1 1.036651 1_555
H5 N4 1.036651 1_555
H6 N3 1.036651 1_556
H7 N2 1.036651 1_555
H8 N1 1.036651 1_555
H9 N2 1.036651 1_556
H10 N4 1.036651 1_555
H11 N3 1.036651 1_555
N0 O0 1.183220 1_555
N0 Os0 1.750401 1_555
N1 Os0 2.141335 1_666
N2 Os0 2.141335 1_655
N3 Os0 2.141335 1_565
N4 Os0 2.141335 1_555
Cl2 Os0 2.334325 1_665
