# generated using pymatgen
data_Na3Zn3Ga(SO4)6
_symmetry_space_group_name_H-M   'P 1'
_cell_length_a   8.69547051
_cell_length_b   8.68399461
_cell_length_c   22.41279409
_cell_angle_alpha   90.02385006
_cell_angle_beta   90.05593507
_cell_angle_gamma   120.01963794
_symmetry_Int_Tables_number   1
_chemical_formula_structural   Na3Zn3Ga(SO4)6
_chemical_formula_sum   'Na9 Zn9 Ga3 S18 O72'
_cell_volume   1465.38872762
_cell_formula_units_Z   3
loop_
 _symmetry_equiv_pos_site_id
 _symmetry_equiv_pos_as_xyz
  1  'x, y, z'
loop_
 _atom_site_type_symbol
 _atom_site_label
 _atom_site_symmetry_multiplicity
 _atom_site_fract_x
 _atom_site_fract_y
 _atom_site_fract_z
 _atom_site_occupancy
  Na  Na0  1  0.63533439  0.99880621  0.24911690  1
  Na  Na1  1  0.36449276  0.36297767  0.24880798  1
  Na  Na2  1  0.03378353  0.70061071  0.58610547  1
  Na  Na3  1  0.99878783  0.01139111  0.49921688  1
  Na  Na4  1  0.99996226  0.99931162  0.99788356  1
  Na  Na5  1  0.66594572  0.33250096  0.83138854  1
  Na  Na6  1  0.68030663  0.34576031  0.33686374  1
  Na  Na7  1  0.31911930  0.66517509  0.15922807  1
  Na  Na8  1  0.34625873  0.66535381  0.66974882  1
  Zn  Zn0  1  -0.00011225  0.99689613  0.35195786  1
  Zn  Zn1  1  0.00001515  0.00040579  0.84894196  1
  Zn  Zn2  1  0.99893562  0.00951623  0.65685283  1
  Zn  Zn3  1  0.99996306  0.99625351  0.14521536  1
  Zn  Zn4  1  0.66306237  0.32962823  0.68646653  1
  Zn  Zn5  1  0.67348121  0.33977025  0.17611769  1
  Zn  Zn6  1  0.33344507  0.66697760  0.01515747  1
  Zn  Zn7  1  0.34048363  0.66588944  0.51425611  1
  Zn  Zn8  1  0.32515441  0.66583461  0.32511754  1
  Ga  Ga0  1  0.66705552  0.33373439  0.98170601  1
  Ga  Ga1  1  0.66403314  0.33017756  0.48434505  1
  Ga  Ga2  1  0.33385287  0.66675539  0.81863972  1
  S  S0  1  0.29294926  0.99636950  0.24990055  1
  S  S1  1  0.70653488  0.70403247  0.25043265  1
  S  S2  1  0.00052689  0.29643382  0.25015014  1
  S  S3  1  0.29724599  0.30310115  0.75219187  1
  S  S4  1  0.00589315  0.70248749  0.75059465  1
  S  S5  1  0.69709302  0.99383622  0.75205745  1
  S  S6  1  0.95652128  0.33043174  0.58197112  1
  S  S7  1  0.37491030  0.04218879  0.58222798  1
  S  S8  1  0.66490751  0.62378139  0.58273884  1
  S  S9  1  0.96070197  0.62643651  0.08111095  1
  S  S10  1  0.66595909  0.03956753  0.08277328  1
  S  S11  1  0.37338211  0.33382392  0.08267958  1
  S  S12  1  0.62588295  0.66237558  0.91744323  1
  S  S13  1  0.03664772  0.37423837  0.91727720  1
  S  S14  1  0.33756916  0.96348025  0.91733242  1
  S  S15  1  0.63302554  0.97151413  0.41718310  1
  S  S16  1  0.33835466  0.36693294  0.41715158  1
  S  S17  1  0.02813867  0.66136386  0.42007228  1
  O  O0  1  0.21435301  0.02845561  0.30354650  1
  O  O1  1  0.81027070  0.78408251  0.30495398  1
  O  O2  1  0.96865931  0.18456288  0.30394984  1
  O  O3  1  0.21386966  0.19370841  0.80513421  1
  O  O4  1  0.98110764  0.79079263  0.80242138  1
  O  O5  1  0.80640074  0.02021849  0.80515012  1
  O  O6  1  0.76988044  0.96125666  0.69654744  1
  O  O7  1  0.19303687  0.22990262  0.69648964  1
  O  O8  1  0.03499342  0.80371011  0.69349716  1
  O  O9  1  0.78634966  0.81555196  0.19697279  1
  O  O10  1  0.03187265  0.21541140  0.19648277  1
  O  O11  1  0.18862736  0.97339619  0.19550378  1
  O  O12  1  0.87608032  0.36308534  0.63483984  1
  O  O13  1  0.48119893  0.12345582  0.63575749  1
  O  O14  1  0.64115145  0.51757314  0.63636047  1
  O  O15  1  0.88723195  0.52621609  0.13711259  1
  O  O16  1  0.64118797  0.11225454  0.14025021  1
  O  O17  1  0.46982310  0.35695425  0.14028001  1
  O  O18  1  0.46760156  0.31105921  0.03076345  1
  O  O19  1  0.84657601  0.53676975  0.02792503  1
  O  O20  1  0.68903996  0.15663022  0.03076152  1
  O  O21  1  0.45783080  0.14988594  0.52704723  1
  O  O22  1  0.69728875  0.54032911  0.52815457  1
  O  O23  1  0.84763189  0.30541627  0.52668611  1
  O  O24  1  0.54669412  0.68884997  0.97140280  1
  O  O25  1  0.14224476  0.45356601  0.97133258  1
  O  O26  1  0.31139808  0.85814201  0.97134054  1
  O  O27  1  0.54466637  0.85963738  0.46912573  1
  O  O28  1  0.31285848  0.45442554  0.46909500  1
  O  O29  1  0.13345567  0.68572435  0.47471483  1
  O  O30  1  0.10592854  0.63050593  0.36570532  1
  O  O31  1  0.53190793  0.89888776  0.36030118  1
  O  O32  1  0.36844914  0.46905836  0.36041976  1
  O  O33  1  0.11863130  0.48710743  0.86292595  1
  O  O34  1  0.36869652  0.88184317  0.86291740  1
  O  O35  1  0.51335015  0.63144267  0.86298958  1
  O  O36  1  0.00852651  0.82018458  0.41418477  1
  O  O37  1  0.81235701  0.99308180  0.41293817  1
  O  O38  1  0.18002214  0.18762287  0.41262924  1
  O  O39  1  0.01415717  0.19527832  0.91028785  1
  O  O40  1  0.18116785  0.98558952  0.91017807  1
  O  O41  1  0.80467164  0.81870906  0.91037242  1
  O  O42  1  0.97402408  0.17059517  0.58686115  1
  O  O43  1  0.19386206  0.02126514  0.58579883  1
  O  O44  1  0.83026856  0.80141359  0.58627015  1
  O  O45  1  0.97362087  0.80314406  0.08384587  1
  O  O46  1  0.82945604  0.02663694  0.08501918  1
  O  O47  1  0.19649932  0.17054095  0.08465797  1
  O  O48  1  0.67563366  0.15215579  0.74646861  1
  O  O49  1  0.47710539  0.32540613  0.74679249  1
  O  O50  1  0.84775961  0.52234428  0.74594914  1
  O  O51  1  0.68010314  0.52138523  0.24471328  1
  O  O52  1  0.83851841  0.31282699  0.24394736  1
  O  O53  1  0.47596877  0.15998526  0.24534406  1
  O  O54  1  0.63934278  0.49561006  0.92240390  1
  O  O55  1  0.85643935  0.36017324  0.92221951  1
  O  O56  1  0.50418684  0.14394653  0.92248475  1
  O  O57  1  0.64743246  0.15092547  0.42366034  1
  O  O58  1  0.50292410  0.35255319  0.42398760  1
  O  O59  1  0.84806444  0.49700331  0.42515242  1
  O  O60  1  0.35799840  0.49496750  0.07681046  1
  O  O61  1  0.13793854  0.64399787  0.07525411  1
  O  O62  1  0.50529475  0.86277737  0.07676450  1
  O  O63  1  0.35221899  0.86023485  0.57642606  1
  O  O64  1  0.50652762  0.64241239  0.57559819  1
  O  O65  1  0.13414905  0.49488378  0.57557574  1
  O  O66  1  0.31851568  0.83949875  0.25587834  1
  O  O67  1  0.52375491  0.68514205  0.25540759  1
  O  O68  1  0.16343095  0.47479141  0.25687658  1
  O  O69  1  0.31314805  0.48401418  0.75880989  1
  O  O70  1  0.17068016  0.68750380  0.75776903  1
  O  O71  1  0.51624741  0.82933956  0.75871363  1
loop_
_geom_bond_atom_site_label_1
_geom_bond_atom_site_label_2
_geom_bond_distance
_geom_bond_site_symmetry_2
Na0 O66 2.390352 1_555
Na0 O67 2.395177 1_555
Na0 O52 2.398144 1_565
Na0 O53 2.413962 1_565
Na0 O16 2.622762 1_565
Na0 O31 2.645162 1_555
Na0 O9 2.777607 1_555
Na0 O2 2.797578 1_565
Na1 O51 2.378131 1_555
Na1 O68 2.394005 1_555
Na1 O53 2.400590 1_555
Na1 O67 2.426781 1_555
Na1 O17 2.609679 1_555
Na1 O32 2.659636 1_555
Na1 O10 2.768826 1_555
Na1 O0 2.803533 1_555
Na2 O44 2.334099 1_455
Na2 O65 2.359909 1_555
Na2 O63 2.407594 1_555
Na2 O43 2.411041 1_565
Na2 O8 2.565897 1_555
Na2 O29 2.667738 1_555
Na2 O12 2.765595 1_455
Na2 O22 2.846353 1_455
Na3 O42 2.472423 1_555
Na3 O37 2.475551 1_545
Na3 O38 2.487381 1_655
Na3 O43 2.549170 1_655
Na3 O36 2.556305 1_645
Na3 O44 2.571769 1_545
Na4 O45 2.505915 1_556
Na4 O47 2.522407 1_666
Na4 O46 2.534921 1_566
Na4 O41 2.552735 1_555
Na4 O40 2.560220 1_655
Na4 O39 2.561007 1_665
Na5 O49 2.487505 1_555
Na5 O48 2.492425 1_555
Na5 O50 2.506972 1_555
Na5 O56 2.555789 1_555
Na5 O55 2.557463 1_555
Na5 O54 2.558790 1_555
Na6 O59 2.417377 1_555
Na6 O57 2.499736 1_555
Na6 O58 2.508460 1_555
Na6 O51 2.568462 1_555
Na6 O52 2.590379 1_555
Na6 O53 2.662541 1_555
Na7 O61 2.400449 1_555
Na7 O60 2.492015 1_555
Na7 O62 2.492030 1_555
Na7 O66 2.643742 1_555
Na7 O68 2.669314 1_555
Na7 O67 2.743475 1_555
Na8 O71 2.464615 1_555
Na8 O69 2.469263 1_555
Na8 O70 2.561092 1_555
Na8 O64 2.591891 1_555
Na8 O63 2.675258 1_555
Na8 O65 2.702969 1_555
Ga0 O19 1.964675 1_556
Ga0 O20 1.976339 1_556
Ga0 O18 1.979356 1_556
Ga0 O54 2.034844 1_555
Ga0 O56 2.035376 1_555
Ga0 O55 2.041668 1_555
Ga1 O21 1.943676 1_555
Ga1 O23 1.958633 1_555
Ga1 O22 1.961660 1_555
Ga1 O57 2.016642 1_555
Ga1 O58 2.024656 1_555
Ga1 O59 2.026247 1_555
Ga2 O35 1.998590 1_555
Ga2 O34 1.999251 1_555
Ga2 O33 2.001235 1_555
Ga2 O69 2.015137 1_555
Ga2 O71 2.019388 1_555
Ga2 O70 2.039395 1_555
O0 S0 1.477241 1_545
O0 Zn0 2.054988 1_545
O1 S1 1.469640 1_555
O1 Zn0 2.046910 1_655
O2 S2 1.485529 1_655
O2 Zn0 2.081130 1_645
O3 S3 1.466127 1_555
O3 Zn1 2.030122 1_555
O4 S4 1.465907 1_655
O4 Zn1 2.031309 1_665
O5 S5 1.466825 1_545
O5 Zn1 2.028322 1_655
O6 S5 1.486244 1_555
O6 Zn2 2.025523 1_565
O7 S3 1.484776 1_555
O7 Zn2 2.015988 1_455
O8 S4 1.501126 1_555
O8 Zn2 2.128007 1_465
O9 S1 1.478261 1_555
O9 Zn3 2.085069 1_555
O10 S2 1.485928 1_555
O10 Zn3 2.118610 1_445
O11 S0 1.471614 1_555
O11 Zn3 2.079299 1_455
O12 S6 1.474294 1_555
O12 Zn4 2.078522 1_555
O13 S7 1.461550 1_555
O13 Zn4 2.039564 1_555
O14 S8 1.465760 1_555
O14 Zn4 2.067247 1_555
O15 S9 1.478896 1_555
O15 Zn5 1.957947 1_555
O16 S10 1.496743 1_555
O16 Zn5 2.017862 1_555
O17 S11 1.496452 1_555
O17 Zn5 2.016253 1_555
O18 S11 1.492637 1_555
O19 S9 1.495271 1_555
O20 S10 1.493291 1_555
O21 S7 1.500697 1_555
O22 S8 1.518306 1_555
O23 S6 1.506894 1_555
O24 S12 1.466087 1_555
O24 Zn6 2.021757 1_556
O25 S13 1.466187 1_555
O25 Zn6 2.018865 1_556
O26 S14 1.465257 1_555
O26 Zn6 2.019024 1_556
O27 S15 1.464688 1_555
O27 Zn7 2.005530 1_555
O28 S16 1.466320 1_555
O28 Zn7 2.002751 1_555
O29 S17 1.478860 1_555
O29 Zn7 2.088801 1_555
O30 S17 1.482173 1_555
O30 Zn8 1.993480 1_555
O31 S15 1.496152 1_555
O31 Zn8 2.074884 1_555
O32 S16 1.497039 1_555
O32 Zn8 2.081347 1_555
O33 S13 1.502121 1_555
O34 S14 1.501726 1_555
O35 S12 1.501191 1_555
O36 S17 1.477882 1_555
O36 Zn0 2.102991 1_555
O37 S15 1.477782 1_555
O37 Zn0 2.116245 1_655
O38 S16 1.478154 1_555
O38 Zn0 2.108059 1_545
O39 S13 1.474315 1_555
O39 Zn1 2.135147 1_555
O40 S14 1.474108 1_555
O40 Zn1 2.140148 1_565
O41 S12 1.474431 1_555
O41 Zn1 2.143634 1_665
O42 S6 1.474193 1_555
O42 Zn2 2.183755 1_555
O43 S7 1.493947 1_555
O43 Zn2 2.291690 1_455
O44 S8 1.494526 1_555
O44 Zn2 2.293580 1_565
O45 S9 1.482759 1_555
O45 Zn3 2.090377 1_555
O46 S10 1.481865 1_555
O46 Zn3 2.115631 1_545
O47 S11 1.481960 1_555
O47 Zn3 2.114620 1_445
O48 S5 1.482399 1_545
O48 Zn4 2.089423 1_555
O49 S3 1.481694 1_555
O49 Zn4 2.095011 1_555
O50 S4 1.481911 1_655
O50 Zn4 2.112353 1_555
O51 S1 1.489968 1_555
O51 Zn5 2.182039 1_555
O52 S2 1.491456 1_655
O52 Zn5 2.181138 1_555
O53 S0 1.516513 1_545
O53 Zn5 2.262466 1_555
O54 S12 1.514273 1_555
O55 S13 1.513773 1_655
O56 S14 1.515276 1_545
O57 S15 1.506199 1_545
O58 S16 1.505072 1_555
O59 S17 1.505400 1_655
O60 S11 1.476772 1_555
O60 Zn6 2.122850 1_555
O61 S9 1.476784 1_455
O61 Zn6 2.099850 1_555
O62 S10 1.476563 1_565
O62 Zn6 2.117153 1_555
O63 S7 1.496777 1_565
O63 Zn7 2.150753 1_555
O64 S8 1.473423 1_555
O64 Zn7 2.075406 1_555
O65 S6 1.496390 1_455
O65 Zn7 2.157246 1_555
O66 S0 1.492066 1_555
O66 Zn8 2.185131 1_555
O67 S1 1.518184 1_555
O67 Zn8 2.273153 1_555
O68 S2 1.494096 1_555
O68 Zn8 2.174507 1_555
O69 S3 1.513840 1_555
O70 S4 1.510667 1_555
O71 S5 1.512832 1_555
