# generated using pymatgen
data_Na7Mg3TiP5SO24
_symmetry_space_group_name_H-M   'P 1'
_cell_length_a   8.94852138
_cell_length_b   8.93236379
_cell_length_c   21.95209781
_cell_angle_alpha   89.80248346
_cell_angle_beta   90.24567161
_cell_angle_gamma   119.89066698
_symmetry_Int_Tables_number   1
_chemical_formula_structural   Na7Mg3TiP5SO24
_chemical_formula_sum   'Na21 Mg9 Ti3 P15 S3 O72'
_cell_volume   1521.23836072
_cell_formula_units_Z   3
loop_
 _symmetry_equiv_pos_site_id
 _symmetry_equiv_pos_as_xyz
  1  'x, y, z'
loop_
 _atom_site_type_symbol
 _atom_site_label
 _atom_site_symmetry_multiplicity
 _atom_site_fract_x
 _atom_site_fract_y
 _atom_site_fract_z
 _atom_site_occupancy
  Na  Na0  1  0.62511873  0.99961039  0.25097667  1
  Na  Na1  1  0.36469747  0.35751433  0.25232762  1
  Na  Na2  1  0.00834359  0.64258519  0.24961146  1
  Na  Na3  1  0.64405562  0.63609027  0.74922041  1
  Na  Na4  1  0.99453633  0.35608584  0.74995469  1
  Na  Na5  1  0.29800147  0.33891483  0.58590221  1
  Na  Na6  1  0.03022099  0.69745269  0.58716167  1
  Na  Na7  1  0.67081590  0.96184005  0.58506498  1
  Na  Na8  1  0.29705900  0.96254256  0.08173166  1
  Na  Na9  1  0.66337503  0.70005262  0.07789150  1
  Na  Na10  1  0.03758762  0.33592181  0.07863761  1
  Na  Na11  1  0.97294650  0.67498183  0.91146656  1
  Na  Na12  1  0.32699476  0.29883251  0.91116664  1
  Na  Na13  1  0.32794022  0.02543446  0.41369071  1
  Na  Na14  1  0.69311658  0.67237720  0.41806935  1
  Na  Na15  1  0.99541389  0.01128258  0.49699864  1
  Na  Na16  1  0.98928869  0.00074106  0.99487715  1
  Na  Na17  1  0.65615332  0.31163954  0.82776661  1
  Na  Na18  1  0.66661666  0.32413764  0.33503344  1
  Na  Na19  1  0.33182888  0.67241079  0.16265316  1
  Na  Na20  1  0.33405336  0.67107630  0.66824712  1
  Mg  Mg0  1  0.00666022  0.00798575  0.35385797  1
  Mg  Mg1  1  0.99707200  0.00207923  0.84953831  1
  Mg  Mg2  1  0.99595363  0.99905703  0.65488306  1
  Mg  Mg3  1  0.00611120  0.99891763  0.14556238  1
  Mg  Mg4  1  0.66535793  0.33352861  0.68695815  1
  Mg  Mg5  1  0.66124827  0.32869625  0.18090772  1
  Mg  Mg6  1  0.33503963  0.66717629  0.01602669  1
  Mg  Mg7  1  0.33270910  0.66162811  0.51422398  1
  Mg  Mg8  1  0.33136830  0.67004906  0.32269015  1
  Ti  Ti0  1  0.66790669  0.32890180  0.97990343  1
  Ti  Ti1  1  0.68150125  0.34156999  0.47949960  1
  Ti  Ti2  1  0.33608613  0.67543600  0.81455250  1
  P  P0  1  0.29606929  0.99873345  0.25003539  1
  P  P1  1  0.29641438  0.29734131  0.75164028  1
  P  P2  1  0.00410373  0.70707868  0.75090415  1
  P  P3  1  0.70243984  0.99903820  0.74988857  1
  P  P4  1  0.96080221  0.33534167  0.58500321  1
  P  P5  1  0.66567136  0.62517675  0.58369545  1
  P  P6  1  0.95744275  0.62317898  0.08439317  1
  P  P7  1  0.66613710  0.03976590  0.08490643  1
  P  P8  1  0.37525423  0.33579057  0.08366072  1
  P  P9  1  0.62767564  0.66776369  0.91881792  1
  P  P10  1  0.03938989  0.37289515  0.91843125  1
  P  P11  1  0.33564362  0.95999010  0.91908615  1
  P  P12  1  0.63111258  0.96543047  0.41772370  1
  P  P13  1  0.33495564  0.37001854  0.41778084  1
  P  P14  1  0.03792551  0.66620522  0.41687187  1
  S  S0  1  0.70597070  0.70649962  0.24985241  1
  S  S1  1  0.00016064  0.29328169  0.24916382  1
  S  S2  1  0.37694857  0.04321208  0.58265199  1
  O  O0  1  0.21008208  0.02467851  0.30657579  1
  O  O1  1  0.81036694  0.78963450  0.30470214  1
  O  O2  1  0.97316250  0.18222806  0.30224780  1
  O  O3  1  0.21144614  0.19144349  0.80849680  1
  O  O4  1  0.97608300  0.79091809  0.80683427  1
  O  O5  1  0.82129201  0.02775548  0.80342094  1
  O  O6  1  0.76835730  0.95527248  0.69087153  1
  O  O7  1  0.18403810  0.22300771  0.69353556  1
  O  O8  1  0.03283942  0.81148641  0.69188169  1
  O  O9  1  0.78599507  0.81250419  0.19480489  1
  O  O10  1  0.02219278  0.21463102  0.19300014  1
  O  O11  1  0.18539073  0.97241692  0.19248016  1
  O  O12  1  0.87629419  0.35909999  0.64114461  1
  O  O13  1  0.48491844  0.12570584  0.63551388  1
  O  O14  1  0.63828849  0.51357053  0.63959350  1
  O  O15  1  0.87618729  0.51503993  0.14187712  1
  O  O16  1  0.63892657  0.11785035  0.14289836  1
  O  O17  1  0.48298184  0.36441259  0.14145772  1
  O  O18  1  0.47138722  0.31112096  0.02750265  1
  O  O19  1  0.83873718  0.52646381  0.02756574  1
  O  O20  1  0.68952968  0.16437040  0.02960662  1
  O  O21  1  0.45760172  0.14760529  0.52597715  1
  O  O22  1  0.68510314  0.52653626  0.52624780  1
  O  O23  1  0.83757712  0.31351351  0.52851105  1
  O  O24  1  0.54593151  0.68801507  0.97640261  1
  O  O25  1  0.14654951  0.45524095  0.97573145  1
  O  O26  1  0.30625102  0.85309286  0.97650146  1
  O  O27  1  0.54633980  0.85347990  0.47412792  1
  O  O28  1  0.31499376  0.45499891  0.47465780  1
  O  O29  1  0.15028221  0.69633206  0.47307609  1
  O  O30  1  0.11100796  0.63411619  0.35865956  1
  O  O31  1  0.51756585  0.89087263  0.36012712  1
  O  O32  1  0.37196304  0.48295717  0.35997797  1
  O  O33  1  0.12712669  0.49411309  0.86204158  1
  O  O34  1  0.35916256  0.86318894  0.86360224  1
  O  O35  1  0.50699233  0.63612957  0.86230956  1
  O  O36  1  0.00683349  0.82161200  0.41132876  1
  O  O37  1  0.80979084  0.98304744  0.41021063  1
  O  O38  1  0.18262487  0.18482261  0.41220547  1
  O  O39  1  0.02077509  0.19479558  0.91078810  1
  O  O40  1  0.17876223  0.98508061  0.91048590  1
  O  O41  1  0.81163931  0.81744441  0.91132088  1
  O  O42  1  0.97510281  0.16951495  0.58504225  1
  O  O43  1  0.20292391  0.02737918  0.58649826  1
  O  O44  1  0.83352316  0.80331721  0.58417180  1
  O  O45  1  0.96857977  0.80200657  0.08553510  1
  O  O46  1  0.83238031  0.02691377  0.08642407  1
  O  O47  1  0.19547698  0.17028645  0.08548538  1
  O  O48  1  0.68074162  0.15789424  0.74314249  1
  O  O49  1  0.48172733  0.33086062  0.74561330  1
  O  O50  1  0.84592655  0.52182328  0.74628164  1
  O  O51  1  0.69064035  0.53213402  0.24561263  1
  O  O52  1  0.84644688  0.31748486  0.24537066  1
  O  O53  1  0.47988383  0.16336604  0.24611105  1
  O  O54  1  0.63882835  0.49377194  0.92285979  1
  O  O55  1  0.85727740  0.36251367  0.92375096  1
  O  O56  1  0.50170809  0.14469258  0.92302698  1
  O  O57  1  0.64530809  0.14876752  0.42583601  1
  O  O58  1  0.50428628  0.35126794  0.42417524  1
  O  O59  1  0.84975315  0.50108731  0.42434452  1
  O  O60  1  0.35385230  0.49607891  0.07719326  1
  O  O61  1  0.13886466  0.64489628  0.07817078  1
  O  O62  1  0.50615616  0.85975570  0.07727767  1
  O  O63  1  0.35573278  0.86697435  0.57716557  1
  O  O64  1  0.50609044  0.64830712  0.57676146  1
  O  O65  1  0.13997112  0.49809541  0.57699011  1
  O  O66  1  0.31631990  0.83457003  0.25472062  1
  O  O67  1  0.52922535  0.68392666  0.25443411  1
  O  O68  1  0.15851736  0.46693691  0.25499207  1
  O  O69  1  0.31328833  0.48526220  0.75876574  1
  O  O70  1  0.16829344  0.68291006  0.75883026  1
  O  O71  1  0.51853962  0.82997159  0.76021811  1
loop_
_geom_bond_atom_site_label_1
_geom_bond_atom_site_label_2
_geom_bond_distance
_geom_bond_site_symmetry_2
Na0 O53 2.394262 1_565
Na0 O66 2.399322 1_555
Na0 O67 2.506150 1_555
Na0 O52 2.528739 1_565
Na0 O16 2.571943 1_565
Na0 O31 2.585132 1_555
Na1 O53 2.423423 1_555
Na1 O68 2.482228 1_555
Na1 O67 2.528355 1_555
Na1 O51 2.535655 1_555
Na1 O32 2.605487 1_555
Na1 O17 2.646455 1_555
Na1 O0 2.839218 1_555
Na1 O10 2.966006 1_555
Na2 O66 2.415940 1_555
Na2 O51 2.503288 1_455
Na2 O52 2.519491 1_455
Na2 O68 2.525917 1_555
Na2 O30 2.574748 1_555
Na2 O15 2.634662 1_455
Na2 O11 2.846443 1_555
Na2 O1 2.945335 1_455
Na3 O49 2.367043 1_555
Na3 O50 2.479584 1_555
Na3 O71 2.502587 1_555
Na3 O69 2.578513 1_555
Na3 O14 2.636777 1_555
Na3 O35 2.773789 1_555
Na3 O6 2.798688 1_555
Na3 O4 2.867812 1_555
Na4 O50 2.434566 1_555
Na4 O48 2.466751 1_555
Na4 O69 2.494239 1_655
Na4 O70 2.540699 1_655
Na4 O12 2.613813 1_555
Na4 O33 2.742257 1_655
Na4 O5 2.800419 1_555
Na4 O7 2.803532 1_655
Na5 O64 2.452645 1_555
Na5 O65 2.461607 1_555
Na5 O43 2.471403 1_555
Na5 O42 2.506189 1_455
Na5 O7 2.577999 1_555
Na5 O28 2.624971 1_555
Na5 O14 2.888343 1_555
Na6 O44 2.377849 1_455
Na6 O65 2.435792 1_555
Na6 O8 2.512879 1_555
Na6 O63 2.536294 1_555
Na6 O43 2.556180 1_565
Na6 O29 2.731382 1_555
Na6 O12 2.876794 1_455
Na6 O22 2.989281 1_455
Na7 O42 2.412681 1_565
Na7 O64 2.436393 1_555
Na7 O44 2.486076 1_555
Na7 O6 2.488543 1_555
Na7 O63 2.512643 1_555
Na7 O27 2.650790 1_555
Na8 O47 2.441192 1_565
Na8 O61 2.461264 1_555
Na8 O62 2.463332 1_555
Na8 O26 2.529054 1_554
Na8 O45 2.550203 1_455
Na8 O11 2.650852 1_555
Na9 O45 2.415517 1_555
Na9 O24 2.438956 1_554
Na9 O60 2.441621 1_555
Na9 O62 2.452442 1_555
Na9 O46 2.539099 1_565
Na9 O9 2.773975 1_555
Na9 O19 2.922161 1_555
Na9 O17 2.950965 1_555
Na10 O61 2.438295 1_555
Na10 O46 2.442839 1_455
Na10 O60 2.454016 1_555
Na10 O25 2.481185 1_554
Na10 O47 2.507566 1_555
Na10 O10 2.707548 1_555
Na10 O20 2.903978 1_455
Na10 O15 2.984743 1_455
Na11 O41 2.352364 1_555
Na11 O40 2.445453 1_655
Na11 O55 2.460084 1_555
Na11 O4 2.510806 1_555
Na11 O54 2.608053 1_555
Na11 O33 2.817336 1_655
Na11 O19 2.848279 1_556
Na11 O26 2.952086 1_655
Na12 O39 2.415417 1_555
Na12 O40 2.430829 1_545
Na12 O54 2.457356 1_555
Na12 O3 2.464818 1_555
Na12 O56 2.558761 1_555
Na12 O35 2.824490 1_555
Na12 O18 2.834756 1_556
Na12 O25 2.974855 1_555
Na13 O38 2.358703 1_555
Na13 O57 2.495472 1_555
Na13 O36 2.521744 1_545
Na13 O58 2.537290 1_555
Na13 O0 2.571606 1_555
Na13 O21 2.710165 1_555
Na13 O31 2.786811 1_545
Na13 O29 2.863890 1_545
Na14 O37 2.435384 1_555
Na14 O36 2.439707 1_655
Na14 O58 2.503764 1_555
Na14 O59 2.541455 1_555
Na14 O22 2.688608 1_555
Na14 O1 2.701918 1_555
Na14 O32 2.808031 1_555
Na14 O27 2.828717 1_555
Na15 O37 2.451742 1_545
Na15 O42 2.458471 1_555
Na15 O38 2.468344 1_655
Na15 O44 2.555092 1_545
Na15 O36 2.571718 1_645
Na15 O43 2.652056 1_655
Na16 O41 2.444128 1_545
Na16 O39 2.446841 1_655
Na16 O46 2.533660 1_556
Na16 O40 2.567377 1_645
Na16 O45 2.607129 1_546
Na16 O47 2.618856 1_656
Na17 O48 2.389062 1_555
Na17 O49 2.441097 1_555
Na17 O50 2.536434 1_555
Na17 O56 2.540857 1_555
Na17 O55 2.654104 1_555
Na17 O54 2.702954 1_555
Na18 O57 2.479412 1_555
Na18 O53 2.502910 1_555
Na18 O58 2.525191 1_555
Na18 O59 2.537684 1_555
Na18 O52 2.567203 1_555
Na18 O51 2.632805 1_555
Na19 O61 2.456454 1_555
Na19 O62 2.479512 1_555
Na19 O60 2.524291 1_555
Na19 O66 2.534758 1_555
Na19 O67 2.641958 1_555
Na19 O68 2.654610 1_555
Na20 O70 2.519619 1_555
Na20 O69 2.531961 1_555
Na20 O71 2.543981 1_555
Na20 O65 2.594945 1_555
Na20 O63 2.595792 1_555
Na20 O64 2.605001 1_555
Mg0 O38 2.032907 1_555
Mg0 O0 2.039057 1_555
Mg0 O2 2.060516 1_455
Mg0 O37 2.075848 1_445
Mg0 O36 2.085939 1_545
Mg0 O1 2.153485 1_445
Mg1 O5 1.973841 1_555
Mg1 O3 2.030522 1_655
Mg1 O4 2.032067 1_545
Mg1 O39 2.113218 1_655
Mg1 O41 2.142219 1_545
Mg1 O40 2.163913 1_645
Mg2 O8 2.028609 1_655
Mg2 O6 2.035389 1_555
Mg2 O7 2.048924 1_665
Mg2 O42 2.228960 1_565
Mg2 O44 2.246241 1_555
Mg2 O43 2.302606 1_665
Mg3 O11 2.013257 1_555
Mg3 O45 2.089563 1_455
Mg3 O47 2.091368 1_565
Mg3 O46 2.129017 1_465
Mg3 O10 2.134009 1_565
Mg3 O9 2.134896 1_455
Mg4 O14 2.025006 1_555
Mg4 O48 2.049835 1_555
Mg4 O12 2.052194 1_555
Mg4 O49 2.082684 1_555
Mg4 O13 2.083234 1_555
Mg4 O50 2.103333 1_555
Mg5 O17 1.972302 1_555
Mg5 O16 1.979285 1_555
Mg5 O15 2.004366 1_555
Mg5 O53 2.116635 1_555
Mg5 O52 2.214350 1_555
Mg5 O51 2.219709 1_555
Mg6 O26 1.997897 1_554
Mg6 O24 2.003874 1_554
Mg6 O25 2.006847 1_554
Mg6 O60 2.099365 1_555
Mg6 O62 2.117697 1_555
Mg6 O61 2.157031 1_555
Mg7 O28 1.975940 1_555
Mg7 O29 2.016606 1_555
Mg7 O27 2.026037 1_555
Mg7 O64 2.114379 1_555
Mg7 O65 2.121873 1_555
Mg7 O63 2.225828 1_555
Mg8 O30 1.998916 1_555
Mg8 O31 2.016439 1_555
Mg8 O32 2.046432 1_555
Mg8 O66 2.141127 1_555
Mg8 O68 2.257100 1_555
Mg8 O67 2.279901 1_555
O0 P0 1.540847 1_545
O1 S0 1.476151 1_555
O2 S1 1.468296 1_655
O3 P1 1.521131 1_555
O4 P2 1.525545 1_655
O5 P3 1.515705 1_545
O6 P3 1.555342 1_555
O7 P1 1.551903 1_555
O8 P2 1.539525 1_555
O9 S0 1.480991 1_555
O10 S1 1.482769 1_555
O11 P0 1.546534 1_555
O12 P4 1.518394 1_555
O13 S2 1.452498 1_555
O14 P5 1.519956 1_555
O15 P6 1.534127 1_555
O16 P7 1.531163 1_555
O17 P8 1.533145 1_555
O18 P8 1.583746 1_555
O18 Ti0 1.986406 1_554
O19 P6 1.585028 1_555
O19 Ti0 1.963673 1_554
O20 P7 1.586484 1_555
O20 Ti0 1.912684 1_554
O21 S2 1.505723 1_555
O21 Ti1 2.145355 1_555
O22 P5 1.599740 1_555
O22 Ti1 1.934481 1_555
O23 P4 1.602336 1_555
O23 Ti1 1.872195 1_555
O24 P9 1.518930 1_555
O25 P10 1.528333 1_555
O26 P11 1.521090 1_555
O27 P12 1.533621 1_555
O28 P13 1.520072 1_555
O29 P14 1.525629 1_555
O30 P14 1.529494 1_555
O31 P12 1.547546 1_555
O32 P13 1.548954 1_555
O33 P10 1.572551 1_555
O33 Ti2 2.047686 1_555
O34 P11 1.570435 1_555
O34 Ti2 1.918328 1_555
O35 P9 1.572156 1_555
O35 Ti2 2.019944 1_555
O36 P14 1.550054 1_555
O37 P12 1.536155 1_555
O38 P13 1.536910 1_555
O39 P10 1.524527 1_555
O40 P11 1.538736 1_555
O41 P9 1.527008 1_555
O42 P4 1.548973 1_555
O43 S2 1.494569 1_555
O44 P5 1.551127 1_555
O45 P6 1.550383 1_555
O46 P7 1.548257 1_555
O47 P8 1.550770 1_555
O48 P3 1.531662 1_545
O49 P1 1.537460 1_555
O50 P2 1.554827 1_655
O51 S0 1.497068 1_555
O52 S1 1.496992 1_655
O53 P0 1.570038 1_545
O54 P9 1.608355 1_555
O54 Ti0 2.042302 1_555
O55 P10 1.590250 1_655
O55 Ti0 1.997374 1_555
O56 P11 1.579241 1_545
O56 Ti0 2.009323 1_555
O57 P12 1.588764 1_545
O57 Ti1 1.978217 1_555
O58 P13 1.610815 1_555
O58 Ti1 2.029028 1_555
O59 P14 1.600941 1_655
O59 Ti1 1.904889 1_555
O60 P8 1.542211 1_555
O61 P6 1.542639 1_455
O62 P7 1.538970 1_565
O63 S2 1.493971 1_565
O64 P5 1.548245 1_555
O65 P4 1.546770 1_455
O66 P0 1.567577 1_555
O67 S0 1.495205 1_555
O68 S1 1.496498 1_555
O69 P1 1.616749 1_555
O69 Ti2 2.023299 1_555
O70 P2 1.596646 1_555
O70 Ti2 1.959289 1_555
O71 P3 1.601252 1_555
O71 Ti2 1.937225 1_555
