# generated using pymatgen
data_Na8Ti2Ga2Si5SO24
_symmetry_space_group_name_H-M   'P 1'
_cell_length_a   8.98316575
_cell_length_b   8.97365458
_cell_length_c   21.97860291
_cell_angle_alpha   90.15627413
_cell_angle_beta   89.32487822
_cell_angle_gamma   119.91794386
_symmetry_Int_Tables_number   1
_chemical_formula_structural   Na8Ti2Ga2Si5SO24
_chemical_formula_sum   'Na24 Ti6 Ga6 Si15 S3 O72'
_cell_volume   1535.51817957
_cell_formula_units_Z   3
loop_
 _symmetry_equiv_pos_site_id
 _symmetry_equiv_pos_as_xyz
  1  'x, y, z'
loop_
 _atom_site_type_symbol
 _atom_site_label
 _atom_site_symmetry_multiplicity
 _atom_site_fract_x
 _atom_site_fract_y
 _atom_site_fract_z
 _atom_site_occupancy
  Na  Na0  1  0.63918502  0.00413225  0.25108593  1
  Na  Na1  1  0.36053643  0.36473201  0.24901667  1
  Na  Na2  1  -0.00006383  0.63508078  0.24998560  1
  Na  Na3  1  0.63228153  0.63202849  0.74858128  1
  Na  Na4  1  0.99542253  0.36293423  0.74958830  1
  Na  Na5  1  0.37026539  0.00689779  0.74983745  1
  Na  Na6  1  0.29817654  0.33565492  0.58455470  1
  Na  Na7  1  0.03814297  0.70334655  0.58247084  1
  Na  Na8  1  0.66579820  0.96077362  0.58272692  1
  Na  Na9  1  0.28936182  0.96432695  0.08186749  1
  Na  Na10  1  0.66983969  0.69785708  0.08590470  1
  Na  Na11  1  0.04190921  0.33371352  0.08662059  1
  Na  Na12  1  0.97040521  0.66902738  0.91652565  1
  Na  Na13  1  0.70497662  0.04122702  0.91154152  1
  Na  Na14  1  0.32431926  0.28776555  0.91809315  1
  Na  Na15  1  0.96105973  0.29397245  0.41196014  1
  Na  Na16  1  0.32901111  0.02718234  0.41578578  1
  Na  Na17  1  0.70988933  0.67611597  0.41727553  1
  Na  Na18  1  0.99426957  0.99263994  0.50009704  1
  Na  Na19  1  0.01324286  0.00504422  0.00004665  1
  Na  Na20  1  0.66660959  0.32784757  0.83229053  1
  Na  Na21  1  0.67159567  0.33079097  0.33303016  1
  Na  Na22  1  0.32792065  0.65851439  0.16618271  1
  Na  Na23  1  0.33599325  0.66680751  0.66431576  1
  Ti  Ti0  1  0.99979377  0.00042793  0.64826245  1
  Ti  Ti1  1  0.66612661  0.33396402  0.68506231  1
  Ti  Ti2  1  0.66969874  0.35086590  0.18821355  1
  Ti  Ti3  1  0.67835696  0.33179063  0.48418533  1
  Ti  Ti4  1  0.32845251  0.67937168  0.31115285  1
  Ti  Ti5  1  0.31808873  0.67206153  0.81098308  1
  Ga  Ga0  1  0.98724780  0.98642956  0.34699644  1
  Ga  Ga1  1  0.01366930  0.01228707  0.84769782  1
  Ga  Ga2  1  0.01370796  0.99939377  0.15274593  1
  Ga  Ga3  1  0.66529398  0.33219203  0.98238066  1
  Ga  Ga4  1  0.30074797  0.64534616  0.01755264  1
  Ga  Ga5  1  0.33768384  0.68429302  0.52158591  1
  Si  Si0  1  0.29044479  0.00510487  0.25086208  1
  Si  Si1  1  0.70946482  0.71497050  0.24893038  1
  Si  Si2  1  0.99964356  0.28685809  0.24983000  1
  Si  Si3  1  0.29296546  0.29329235  0.75001641  1
  Si  Si4  1  0.99412252  0.71278994  0.75162718  1
  Si  Si5  1  0.71117032  0.99960193  0.75218844  1
  Si  Si6  1  0.96342370  0.33540137  0.58408440  1
  Si  Si7  1  0.37706459  0.04569543  0.58340272  1
  Si  Si8  1  0.66467423  0.62320405  0.58253630  1
  Si  Si9  1  0.95502777  0.62692054  0.08153253  1
  Si  Si10  1  0.37561584  0.33551612  0.08130850  1
  Si  Si11  1  0.03597522  0.36797184  0.91697962  1
  Si  Si12  1  0.33382047  0.95843011  0.91930121  1
  Si  Si13  1  0.62559893  0.95656799  0.41737151  1
  Si  Si14  1  0.04272798  0.66989405  0.41834182  1
  S  S0  1  0.66660205  0.04232520  0.08276599  1
  S  S1  1  0.62060882  0.66716667  0.91726744  1
  S  S2  1  0.33391879  0.37815247  0.41732228  1
  O  O0  1  0.20963766  0.04531953  0.31079709  1
  O  O1  1  0.82786147  0.78118147  0.30896732  1
  O  O2  1  0.96100709  0.16777599  0.31038321  1
  O  O3  1  0.21954398  0.17309516  0.81013734  1
  O  O4  1  0.95801925  0.79418073  0.81192991  1
  O  O5  1  0.83127288  0.03720169  0.81120916  1
  O  O6  1  0.80192559  0.96526719  0.69204332  1
  O  O7  1  0.16527197  0.20257205  0.69161690  1
  O  O8  1  0.03527400  0.83689014  0.69172922  1
  O  O9  1  0.79041555  0.83595546  0.18924976  1
  O  O10  1  0.03887238  0.20608636  0.18937049  1
  O  O11  1  0.17210070  0.95268824  0.19086370  1
  O  O12  1  0.86897359  0.36865749  0.64206255  1
  O  O13  1  0.50163523  0.13837397  0.64182145  1
  O  O14  1  0.63539884  0.49991133  0.64176290  1
  O  O15  1  0.86170368  0.49909528  0.14112931  1
  O  O16  1  0.63875262  0.12305922  0.13752214  1
  O  O17  1  0.50083957  0.36322094  0.14078669  1
  O  O18  1  0.46102866  0.29501891  0.02216642  1
  O  O19  1  0.83511909  0.53721956  0.02247429  1
  O  O20  1  0.69537359  0.14842956  0.02729372  1
  O  O21  1  0.46995606  0.16992307  0.52358158  1
  O  O22  1  0.69899316  0.52928821  0.52327921  1
  O  O23  1  0.83541846  0.29876622  0.52468885  1
  O  O24  1  0.54092899  0.69301633  0.97281711  1
  O  O25  1  0.15891315  0.44475570  0.97630290  1
  O  O26  1  0.30565863  0.83613046  0.97854946  1
  O  O27  1  0.54207775  0.83374758  0.47659737  1
  O  O28  1  0.30730725  0.45576564  0.47218921  1
  O  O29  1  0.16236162  0.70054734  0.47696129  1
  O  O30  1  0.13428803  0.63431986  0.35822571  1
  O  O31  1  0.49883741  0.86078624  0.35837937  1
  O  O32  1  0.35968739  0.48381825  0.36186579  1
  O  O33  1  0.13599798  0.50041800  0.85879791  1
  O  O34  1  0.36422385  0.86348578  0.85876425  1
  O  O35  1  0.51521920  0.64206653  0.86254098  1
  O  O36  1  0.02618636  0.84296229  0.41161149  1
  O  O37  1  0.81946044  0.98251925  0.41120446  1
  O  O38  1  0.17991393  0.20385196  0.41313956  1
  O  O39  1  0.01443759  0.17612787  0.91078651  1
  O  O40  1  0.15840339  0.97055387  0.91315565  1
  O  O41  1  0.79437234  0.82083397  0.91331339  1
  O  O42  1  0.97349240  0.15932664  0.58816544  1
  O  O43  1  0.18791113  0.02929771  0.58833654  1
  O  O44  1  0.83920292  0.81121949  0.58820784  1
  O  O45  1  0.97133631  0.81666046  0.08812076  1
  O  O46  1  0.82230718  0.02583978  0.08649719  1
  O  O47  1  0.18345487  0.16519552  0.08826160  1
  O  O48  1  0.68851119  0.16866966  0.74409030  1
  O  O49  1  0.48412147  0.31399367  0.74249413  1
  O  O50  1  0.82993767  0.51959700  0.74462798  1
  O  O51  1  0.68734178  0.51946983  0.24282197  1
  O  O52  1  0.82867781  0.30988557  0.24259279  1
  O  O53  1  0.48531189  0.16953464  0.24231552  1
  O  O54  1  0.63736690  0.50956354  0.92001233  1
  O  O55  1  0.84893263  0.35941964  0.92237894  1
  O  O56  1  0.50863983  0.14939804  0.92154408  1
  O  O57  1  0.63703184  0.14678493  0.42108905  1
  O  O58  1  0.49129456  0.36129327  0.42001741  1
  O  O59  1  0.84992149  0.49420374  0.42129743  1
  O  O60  1  0.36788217  0.51612200  0.07747345  1
  O  O61  1  0.14668896  0.64335000  0.08094917  1
  O  O62  1  0.51205439  0.86917293  0.07837326  1
  O  O63  1  0.36055527  0.85695746  0.58106745  1
  O  O64  1  0.49170960  0.63720369  0.57779765  1
  O  O65  1  0.15100188  0.50483174  0.57630783  1
  O  O66  1  0.31235424  0.83176854  0.25704975  1
  O  O67  1  0.51424661  0.68378901  0.25743634  1
  O  O68  1  0.17125822  0.48057996  0.25708859  1
  O  O69  1  0.31268132  0.48470660  0.75693756  1
  O  O70  1  0.17027445  0.69527846  0.75563147  1
  O  O71  1  0.51994228  0.82530146  0.75707434  1
loop_
_geom_bond_atom_site_label_1
_geom_bond_atom_site_label_2
_geom_bond_distance
_geom_bond_site_symmetry_2
Na0 O52 2.407678 1_555
Na0 O53 2.491036 1_555
Na0 O67 2.514539 1_545
Na0 O66 2.547872 1_545
Na0 O31 2.670927 1_545
Na0 O16 2.718038 1_555
Na0 O9 2.821471 1_545
Na0 O2 2.838355 1_555
Na1 O68 2.399665 1_555
Na1 O67 2.489538 1_555
Na1 O53 2.509877 1_555
Na1 O51 2.547648 1_555
Na1 O17 2.682042 1_555
Na1 O32 2.699443 1_555
Na1 O0 2.828253 1_555
Na1 O10 2.840859 1_555
Na2 O66 2.466452 1_555
Na2 O51 2.467783 1_455
Na2 O52 2.536536 1_455
Na2 O68 2.539771 1_555
Na2 O30 2.681812 1_555
Na2 O15 2.701429 1_455
Na2 O1 2.784575 1_455
Na2 O11 2.789146 1_555
Na3 O71 2.408522 1_555
Na3 O50 2.441517 1_555
Na3 O49 2.479388 1_555
Na3 O69 2.495396 1_555
Na3 O14 2.633351 1_555
Na3 O35 2.723700 1_555
Na3 O6 2.870301 1_555
Na3 O4 2.907906 1_555
Na4 O48 2.422231 1_555
Na4 O69 2.499184 1_655
Na4 O50 2.507496 1_555
Na4 O70 2.590198 1_655
Na4 O12 2.645766 1_555
Na4 O33 2.716483 1_655
Na4 O7 2.855984 1_655
Na4 O5 2.868385 1_555
Na5 O49 2.419377 1_555
Na5 O70 2.459405 1_545
Na5 O48 2.479723 1_555
Na5 O71 2.584729 1_545
Na5 O13 2.642179 1_555
Na5 O34 2.708270 1_545
Na5 O3 2.788388 1_555
Na5 O8 2.917995 1_545
Na6 O64 2.381236 1_555
Na6 O43 2.414291 1_555
Na6 O65 2.468765 1_555
Na6 O42 2.531534 1_455
Na6 O7 2.629723 1_555
Na6 O28 2.681252 1_555
Na6 O14 2.925053 1_555
Na6 O21 2.935745 1_555
Na7 O44 2.422065 1_455
Na7 O65 2.452877 1_555
Na7 O63 2.511013 1_555
Na7 O43 2.541403 1_565
Na7 O29 2.567102 1_555
Na7 O8 2.686425 1_555
Na7 O12 2.909788 1_455
Na7 O22 2.957971 1_455
Na8 O63 2.417032 1_555
Na8 O42 2.433713 1_565
Na8 O44 2.516497 1_555
Na8 O64 2.522109 1_555
Na8 O27 2.599681 1_555
Na8 O6 2.699836 1_555
Na8 O23 2.917776 1_565
Na8 O13 2.947819 1_565
Na9 O47 2.424885 1_565
Na9 O45 2.480324 1_455
Na9 O61 2.501448 1_555
Na9 O62 2.537105 1_555
Na9 O26 2.578219 1_554
Na9 O11 2.586791 1_555
Na9 O18 2.883515 1_565
Na9 O16 2.999597 1_565
Na10 O45 2.365779 1_555
Na10 O60 2.376821 1_555
Na10 O46 2.552962 1_565
Na10 O9 2.563548 1_555
Na10 O62 2.565224 1_555
Na10 O24 2.745491 1_554
Na10 O17 2.864661 1_555
Na10 O19 2.881165 1_555
Na11 O47 2.413367 1_555
Na11 O61 2.451984 1_555
Na11 O46 2.467369 1_455
Na11 O10 2.528601 1_555
Na11 O60 2.549734 1_555
Na11 O25 2.623903 1_554
Na12 O40 2.370402 1_655
Na12 O55 2.429147 1_555
Na12 O41 2.552125 1_555
Na12 O4 2.589064 1_555
Na12 O54 2.593989 1_555
Na12 O19 2.610135 1_556
Na12 O33 2.881332 1_655
Na12 O26 2.959327 1_655
Na13 O56 2.408065 1_555
Na13 O39 2.415758 1_655
Na13 O5 2.476434 1_555
Na13 O41 2.478565 1_545
Na13 O55 2.490443 1_555
Na13 O20 2.733028 1_556
Na13 O34 2.909099 1_545
Na14 O39 2.450782 1_555
Na14 O40 2.471046 1_545
Na14 O54 2.508096 1_555
Na14 O56 2.518608 1_555
Na14 O3 2.578320 1_555
Na14 O18 2.594264 1_556
Na14 O25 2.804047 1_555
Na15 O37 2.425606 1_545
Na15 O59 2.459669 1_555
Na15 O38 2.471265 1_655
Na15 O2 2.500454 1_555
Na15 O57 2.531826 1_555
Na15 O23 2.719608 1_555
Na15 O30 2.894772 1_655
Na16 O36 2.379198 1_545
Na16 O57 2.422052 1_555
Na16 O38 2.535970 1_555
Na16 O0 2.595278 1_555
Na16 O58 2.600915 1_555
Na16 O21 2.700609 1_555
Na16 O29 2.870073 1_545
Na16 O31 2.892330 1_545
Na17 O37 2.417840 1_555
Na17 O36 2.465673 1_655
Na17 O58 2.511017 1_555
Na17 O59 2.511330 1_555
Na17 O1 2.575795 1_555
Na17 O22 2.656380 1_555
Na17 O27 2.836199 1_555
Na18 O36 2.454635 1_655
Na18 O44 2.456118 1_555
Na18 O37 2.494065 1_555
Na18 O42 2.504601 1_565
Na18 O43 2.529929 1_665
Na18 O38 2.611100 1_665
Na19 O40 2.404997 1_544
Na19 O47 2.454612 1_555
Na19 O45 2.472338 1_445
Na19 O39 2.491044 1_554
Na19 O46 2.612957 1_455
Na19 O41 2.657301 1_444
Na20 O48 2.468431 1_555
Na20 O56 2.472035 1_555
Na20 O50 2.501754 1_555
Na20 O55 2.508732 1_555
Na20 O49 2.543528 1_555
Na20 O54 2.615999 1_555
Na21 O57 2.461821 1_555
Na21 O52 2.484595 1_555
Na21 O59 2.488888 1_555
Na21 O53 2.552809 1_555
Na21 O51 2.567184 1_555
Na21 O58 2.592272 1_555
Na22 O60 2.447533 1_555
Na22 O61 2.455159 1_555
Na22 O68 2.496324 1_555
Na22 O67 2.563888 1_555
Na22 O66 2.572663 1_555
Na22 O62 2.619115 1_555
Na23 O63 2.437206 1_555
Na23 O64 2.438936 1_555
Na23 O65 2.503346 1_555
Na23 O69 2.554404 1_555
Na23 O70 2.572090 1_555
Na23 O71 2.574669 1_555
Ga0 O1 1.878881 1_555
Ga0 O2 1.935361 1_565
Ga0 O0 1.953216 1_665
Ga0 O37 2.040085 1_555
Ga0 O36 2.065801 1_655
Ga0 O38 2.364510 1_665
Ga1 O3 1.868832 1_555
Ga1 O4 1.929623 1_445
Ga1 O5 1.942981 1_455
Ga1 O39 2.015770 1_555
Ga1 O40 2.105515 1_545
Ga1 O41 2.341517 1_445
Ga2 O11 1.878020 1_555
Ga2 O10 1.928002 1_565
Ga2 O9 1.962689 1_455
Ga2 O45 2.056371 1_455
Ga2 O47 2.060342 1_565
Ga2 O46 2.366561 1_465
Ga3 O18 1.896351 1_556
Ga3 O19 1.926629 1_556
Ga3 O55 2.017078 1_555
Ga3 O56 2.046615 1_555
Ga3 O20 2.055807 1_556
Ga3 O54 2.212167 1_555
Ga4 O25 1.848241 1_554
Ga4 O26 1.897270 1_554
Ga4 O61 1.946032 1_555
Ga4 O60 2.041440 1_555
Ga4 O24 2.199211 1_554
Ga4 O62 2.380402 1_555
Ga5 O27 1.911997 1_555
Ga5 O29 1.931325 1_555
Ga5 O63 1.956979 1_555
Ga5 O65 2.030112 1_555
Ga5 O64 2.060515 1_555
Ga5 O28 2.212520 1_555
O0 Si0 1.621294 1_555
O1 Si1 1.619816 1_555
O2 Si2 1.631106 1_555
O3 Si3 1.619271 1_555
O4 Si4 1.617440 1_555
O5 Si5 1.621126 1_545
O6 Si5 1.652265 1_555
O6 Ti0 1.893890 1_565
O7 Si3 1.650308 1_555
O7 Ti0 1.934511 1_455
O8 Si4 1.641892 1_455
O8 Ti0 1.910316 1_465
O9 Si1 1.620434 1_555
O10 Si2 1.629048 1_455
O11 Si0 1.619012 1_565
O12 Si6 1.630263 1_555
O12 Ti1 1.925009 1_555
O13 Si7 1.640778 1_555
O13 Ti1 1.898464 1_555
O14 Si8 1.642336 1_555
O14 Ti1 1.903520 1_555
O15 Si9 1.660530 1_555
O15 Ti2 1.868708 1_555
O16 S0 1.484833 1_555
O16 Ti2 2.219357 1_555
O17 Si10 1.670337 1_555
O17 Ti2 1.898801 1_555
O18 Si10 1.631711 1_555
O19 Si9 1.629542 1_555
O20 S0 1.487704 1_555
O21 Si7 1.649825 1_555
O21 Ti3 1.902756 1_555
O22 Si8 1.656877 1_555
O22 Ti3 1.892437 1_555
O23 Si6 1.670456 1_555
O23 Ti3 1.821836 1_555
O24 S1 1.483320 1_555
O25 Si11 1.632293 1_555
O26 Si12 1.639280 1_555
O27 Si13 1.622351 1_555
O28 S2 1.466671 1_555
O29 Si14 1.620599 1_555
O30 Si14 1.660773 1_555
O30 Ti4 1.879484 1_555
O31 Si13 1.664008 1_555
O31 Ti4 1.900791 1_555
O32 S2 1.489631 1_555
O32 Ti4 2.215782 1_555
O33 Si11 1.664660 1_555
O33 Ti5 1.899364 1_555
O34 Si12 1.669773 1_555
O34 Ti5 1.875000 1_555
O35 S1 1.485407 1_555
O35 Ti5 2.239839 1_555
O36 Si14 1.639487 1_555
O37 Si13 1.641784 1_555
O38 S2 1.487463 1_555
O39 Si11 1.639133 1_555
O40 Si12 1.639920 1_555
O41 S1 1.481874 1_555
O42 Si6 1.629802 1_555
O42 Ti0 2.046302 1_555
O43 Si7 1.633100 1_555
O43 Ti0 2.042122 1_455
O44 Si8 1.638601 1_555
O44 Ti0 2.072552 1_565
O45 Si9 1.640675 1_555
O46 S0 1.481289 1_555
O47 Si10 1.643907 1_555
O48 Si5 1.638674 1_545
O48 Ti1 2.058615 1_555
O49 Si3 1.638855 1_555
O49 Ti1 1.989708 1_555
O50 Si4 1.630278 1_555
O50 Ti1 2.059746 1_555
O51 Si1 1.669383 1_555
O51 Ti2 1.873544 1_555
O52 Si2 1.658082 1_555
O52 Ti2 2.042000 1_555
O53 Si0 1.641352 1_555
O53 Ti2 2.020116 1_555
O54 S1 1.496508 1_555
O55 Si11 1.646172 1_655
O56 Si12 1.649912 1_545
O57 Si13 1.659950 1_545
O57 Ti3 2.049859 1_555
O58 S2 1.496800 1_555
O58 Ti3 2.320463 1_555
O59 Si14 1.662446 1_655
O59 Ti3 2.032244 1_555
O60 Si10 1.658849 1_555
O61 Si9 1.653033 1_455
O62 S0 1.483777 1_565
O63 Si7 1.625513 1_565
O64 Si8 1.624632 1_555
O65 Si6 1.618415 1_455
O66 Si0 1.668488 1_565
O66 Ti4 1.874915 1_555
O67 Si1 1.640642 1_555
O67 Ti4 2.017144 1_555
O68 Si2 1.659842 1_455
O68 Ti4 2.025695 1_555
O69 Si3 1.643379 1_555
O69 Ti5 2.036901 1_555
O70 Si4 1.669682 1_455
O70 Ti5 1.897885 1_555
O71 Si5 1.650843 1_555
O71 Ti5 2.013396 1_555
