# generated using pymatgen
data_MgV4O7F5
_symmetry_space_group_name_H-M   'P 1'
_cell_length_a   5.29554336
_cell_length_b   7.17525900
_cell_length_c   5.66037585
_cell_angle_alpha   92.92304324
_cell_angle_beta   91.70428435
_cell_angle_gamma   90.69617983
_symmetry_Int_Tables_number   1
_chemical_formula_structural   MgV4O7F5
_chemical_formula_sum   'Mg1 V4 O7 F5'
_cell_volume   214.68173708
_cell_formula_units_Z   1
loop_
 _symmetry_equiv_pos_site_id
 _symmetry_equiv_pos_as_xyz
  1  'x, y, z'
loop_
 _atom_site_type_symbol
 _atom_site_label
 _atom_site_symmetry_multiplicity
 _atom_site_fract_x
 _atom_site_fract_y
 _atom_site_fract_z
 _atom_site_occupancy
  Mg  Mg0  1  0.98254800  0.21744000  0.60826300  1
  V  V0  1  0.50763700  0.48962500  0.46093300  1
  V  V1  1  0.46896600  0.99823600  0.52938800  1
  V  V2  1  0.02180700  0.51100000  0.00492400  1
  V  V3  1  0.93929100  0.99565800  0.03570100  1
  O  O0  1  0.94201100  0.25625400  0.96623300  1
  O  O1  1  0.67926800  0.95816000  0.18077600  1
  O  O2  1  0.62383500  0.23437400  0.49078100  1
  O  O3  1  0.43916400  0.76147100  0.49525300  1
  O  O4  1  0.31324300  0.46183300  0.21603800  1
  O  O5  1  0.28622800  0.05258600  0.75891400  1
  O  O6  1  0.08136100  0.75055400  0.00345600  1
  F  F0  1  0.82327100  0.53571700  0.29545100  1
  F  F1  1  0.80300400  0.95946300  0.69558100  1
  F  F2  1  0.71786800  0.54036800  0.76546300  1
  F  F3  1  0.16233800  0.07438700  0.32699900  1
  F  F4  1  0.20815800  0.44361700  0.67834700  1
loop_
_geom_bond_atom_site_label_1
_geom_bond_atom_site_label_2
_geom_bond_distance
_geom_bond_site_symmetry_2
Mg0 O2 2.001024 1_555
Mg0 O0 2.049167 1_555
Mg0 O5 2.186328 1_655
O0 V2 1.871503 1_656
O0 V3 1.930236 1_546
O1 V3 1.650316 1_555
O1 V1 2.301603 1_555
O2 V1 1.898902 1_545
O2 V0 1.953024 1_555
O3 V1 1.704853 1_555
O3 V0 1.989134 1_555
O4 V0 1.703807 1_555
O4 V2 1.969971 1_555
O5 V1 1.675926 1_545
O5 V3 2.493006 1_446
O6 V2 1.744263 1_555
O6 V3 1.923507 1_455
F0 V0 1.972767 1_555
F0 V2 1.979592 1_655
F1 V1 2.007751 1_555
F1 V3 2.038761 1_556
F1 Mg0 2.157118 1_565
F2 V0 2.038454 1_555
F2 V2 2.092794 1_656
F3 V3 2.050832 1_445
F3 V1 2.054825 1_545
F3 Mg0 2.107593 1_455
F4 Mg0 2.019285 1_455
F4 V0 2.069628 1_555
F4 V2 2.157238 1_556
