# generated using pymatgen
data_Na4LaNb(SiO4)3
_symmetry_space_group_name_H-M   'P 1'
_cell_length_a   9.55629247
_cell_length_b   9.55629211
_cell_length_c   22.17610941
_cell_angle_alpha   90.00000000
_cell_angle_beta   90.00000000
_cell_angle_gamma   120.00000127
_symmetry_Int_Tables_number   1
_chemical_formula_structural   Na4LaNb(SiO4)3
_chemical_formula_sum   'Na24 La6 Nb6 Si18 O72'
_cell_volume   1753.85962808
_cell_formula_units_Z   6
loop_
 _symmetry_equiv_pos_site_id
 _symmetry_equiv_pos_as_xyz
  1  'x, y, z'
loop_
 _atom_site_type_symbol
 _atom_site_label
 _atom_site_symmetry_multiplicity
 _atom_site_fract_x
 _atom_site_fract_y
 _atom_site_fract_z
 _atom_site_occupancy
  Na  Na0  1  0.64416865  0.00983631  0.24482668  1
  Na  Na1  1  0.36566766  0.35583135  0.24482668  1
  Na  Na2  1  0.99016369  0.63433234  0.24482668  1
  Na  Na3  1  0.64416865  0.63433234  0.74482668  1
  Na  Na4  1  0.99016369  0.35583135  0.74482668  1
  Na  Na5  1  0.36566766  0.00983631  0.74482668  1
  Na  Na6  1  0.31083565  0.34316931  0.57815968  1
  Na  Na7  1  0.03233466  0.68916435  0.57815968  1
  Na  Na8  1  0.65683069  0.96766534  0.57815968  1
  Na  Na9  1  0.31083565  0.96766534  0.07815968  1
  Na  Na10  1  0.65683069  0.68916435  0.07815968  1
  Na  Na11  1  0.03233466  0.34316931  0.07815968  1
  Na  Na12  1  0.97750165  0.67650331  0.91149368  1
  Na  Na13  1  0.69900066  0.02249835  0.91149368  1
  Na  Na14  1  0.32349669  0.30099934  0.91149368  1
  Na  Na15  1  0.97750165  0.30099934  0.41149368  1
  Na  Na16  1  0.32349669  0.02249835  0.41149368  1
  Na  Na17  1  0.69900066  0.67650331  0.41149368  1
  Na  Na18  1  -0.00000000  -0.00000000  0.49715506  1
  Na  Na19  1  -0.00000000  -0.00000000  0.99715506  1
  Na  Na20  1  0.66666700  0.33333300  0.83048806  1
  Na  Na21  1  0.66666700  0.33333300  0.33048806  1
  Na  Na22  1  0.33333300  0.66666700  0.16382206  1
  Na  Na23  1  0.33333300  0.66666700  0.66382206  1
  La  La0  1  -0.00000000  -0.00000000  0.34182498  1
  La  La1  1  -0.00000000  -0.00000000  0.84182498  1
  La  La2  1  0.66666700  0.33333300  0.67515798  1
  La  La3  1  0.66666700  0.33333300  0.17515798  1
  La  La4  1  0.33333300  0.66666700  0.00849198  1
  La  La5  1  0.33333300  0.66666700  0.50849198  1
  Nb  Nb0  1  -0.00000000  -0.00000000  0.64847596  1
  Nb  Nb1  1  -0.00000000  -0.00000000  0.14847596  1
  Nb  Nb2  1  0.66666700  0.33333300  0.98180896  1
  Nb  Nb3  1  0.66666700  0.33333300  0.48180896  1
  Nb  Nb4  1  0.33333300  0.66666700  0.31514296  1
  Nb  Nb5  1  0.33333300  0.66666700  0.81514296  1
  Si  Si0  1  0.29731199  0.98294966  0.25130662  1
  Si  Si1  1  0.68563767  0.70268801  0.25130662  1
  Si  Si2  1  0.01705034  0.31436233  0.25130662  1
  Si  Si3  1  0.29731199  0.31436233  0.75130662  1
  Si  Si4  1  0.01705034  0.70268801  0.75130662  1
  Si  Si5  1  0.68563767  0.98294966  0.75130662  1
  Si  Si6  1  0.96397899  0.31628266  0.58463962  1
  Si  Si7  1  0.35230467  0.03602101  0.58463962  1
  Si  Si8  1  0.68371734  0.64769533  0.58463962  1
  Si  Si9  1  0.96397899  0.64769533  0.08463962  1
  Si  Si10  1  0.68371734  0.03602101  0.08463962  1
  Si  Si11  1  0.35230467  0.31628266  0.08463962  1
  Si  Si12  1  0.63064499  0.64961666  0.91797362  1
  Si  Si13  1  0.01897067  0.36935501  0.91797362  1
  Si  Si14  1  0.35038334  0.98102933  0.91797362  1
  Si  Si15  1  0.63064499  0.98102933  0.41797362  1
  Si  Si16  1  0.35038334  0.36935501  0.41797362  1
  Si  Si17  1  0.01897067  0.64961666  0.41797362  1
  O  O0  1  0.23360596  0.00934067  0.31467584  1
  O  O1  1  0.77573472  0.76639404  0.31467584  1
  O  O2  1  0.99065933  0.22426528  0.31467584  1
  O  O3  1  0.23360596  0.22426528  0.81467584  1
  O  O4  1  0.99065933  0.76639404  0.81467584  1
  O  O5  1  0.77573471  0.00934067  0.81467584  1
  O  O6  1  0.80861893  0.97068321  0.69655586  1
  O  O7  1  0.16206428  0.19138107  0.69655586  1
  O  O8  1  0.02931679  0.83793572  0.69655586  1
  O  O9  1  0.80861893  0.83793572  0.19655586  1
  O  O10  1  0.02931679  0.19138107  0.19655586  1
  O  O11  1  0.16206428  0.97068321  0.19655586  1
  O  O12  1  0.90027296  0.34267367  0.64800884  1
  O  O13  1  0.44240172  0.09972704  0.64800884  1
  O  O14  1  0.65732633  0.55759828  0.64800884  1
  O  O15  1  0.90027296  0.55759828  0.14800884  1
  O  O16  1  0.65732633  0.09972704  0.14800884  1
  O  O17  1  0.44240171  0.34267367  0.14800884  1
  O  O18  1  0.47528593  0.30401621  0.02988886  1
  O  O19  1  0.82873128  0.52471407  0.02988886  1
  O  O20  1  0.69598379  0.17126872  0.02988886  1
  O  O21  1  0.47528593  0.17126872  0.52988886  1
  O  O22  1  0.69598379  0.52471407  0.52988886  1
  O  O23  1  0.82873128  0.30401621  0.52988886  1
  O  O24  1  0.56693896  0.67600767  0.98134284  1
  O  O25  1  0.10906772  0.43306104  0.98134284  1
  O  O26  1  0.32399233  0.89093228  0.98134284  1
  O  O27  1  0.56693896  0.89093228  0.48134284  1
  O  O28  1  0.32399233  0.43306104  0.48134284  1
  O  O29  1  0.10906771  0.67600767  0.48134284  1
  O  O30  1  0.14195193  0.63735021  0.36322286  1
  O  O31  1  0.49539728  0.85804807  0.36322286  1
  O  O32  1  0.36264979  0.50460272  0.36322286  1
  O  O33  1  0.14195193  0.50460272  0.86322286  1
  O  O34  1  0.36264979  0.85804807  0.86322286  1
  O  O35  1  0.49539728  0.63735021  0.86322286  1
  O  O36  1  0.98263135  0.79649586  0.41076278  1
  O  O37  1  0.81386451  0.01736865  0.41076278  1
  O  O38  1  0.20350414  0.18613549  0.41076278  1
  O  O39  1  0.98263135  0.18613549  0.91076278  1
  O  O40  1  0.20350414  0.01736865  0.91076278  1
  O  O41  1  0.81386451  0.79649586  0.91076278  1
  O  O42  1  0.95328654  0.13607289  0.58605355  1
  O  O43  1  0.18278635  0.04671346  0.58605355  1
  O  O44  1  0.86392711  0.81721365  0.58605355  1
  O  O45  1  0.95328654  0.81721365  0.08605355  1
  O  O46  1  0.86392711  0.04671346  0.08605355  1
  O  O47  1  0.18278635  0.13607289  0.08605355  1
  O  O48  1  0.64929835  0.12982886  0.74409578  1
  O  O49  1  0.48053151  0.35070165  0.74409578  1
  O  O50  1  0.87017114  0.51946849  0.74409578  1
  O  O51  1  0.64929835  0.51946849  0.24409578  1
  O  O52  1  0.87017114  0.35070165  0.24409578  1
  O  O53  1  0.48053151  0.12982886  0.24409578  1
  O  O54  1  0.61995354  0.46940589  0.91938655  1
  O  O55  1  0.84945335  0.38004646  0.91938655  1
  O  O56  1  0.53059411  0.15054665  0.91938655  1
  O  O57  1  0.61995354  0.15054665  0.41938655  1
  O  O58  1  0.53059411  0.38004646  0.41938655  1
  O  O59  1  0.84945335  0.46940589  0.41938655  1
  O  O60  1  0.31596435  0.46316286  0.07742978  1
  O  O61  1  0.14719751  0.68403565  0.07742978  1
  O  O62  1  0.53683714  0.85280249  0.07742978  1
  O  O63  1  0.31596435  0.85280249  0.57742978  1
  O  O64  1  0.53683714  0.68403565  0.57742978  1
  O  O65  1  0.14719751  0.46316286  0.57742978  1
  O  O66  1  0.28661954  0.80273989  0.25272055  1
  O  O67  1  0.51611935  0.71338046  0.25272055  1
  O  O68  1  0.19726011  0.48388065  0.25272055  1
  O  O69  1  0.28661954  0.48388065  0.75272055  1
  O  O70  1  0.19726011  0.71338046  0.75272055  1
  O  O71  1  0.51611935  0.80273989  0.75272055  1
loop_
_geom_bond_atom_site_label_1
_geom_bond_atom_site_label_2
_geom_bond_distance
_geom_bond_site_symmetry_2
Na0 O16 2.292490 1_555
Na0 O53 2.356618 1_555
Na0 O67 2.467250 1_545
Na0 O52 2.870593 1_555
Na1 O17 2.292493 1_555
Na1 O51 2.356626 1_555
Na1 O68 2.467259 1_555
Na1 O53 2.870600 1_555
Na2 O15 2.292491 1_555
Na2 O52 2.356627 1_555
Na2 O66 2.467251 1_655
Na2 O51 2.870591 1_555
Na3 O14 2.292493 1_555
Na3 O49 2.356626 1_555
Na3 O71 2.467259 1_555
Na3 O50 2.870600 1_555
Na4 O12 2.292490 1_555
Na4 O50 2.356618 1_555
Na4 O69 2.467251 1_655
Na4 O48 2.870593 1_555
Na5 O13 2.292491 1_555
Na5 O48 2.356627 1_555
Na5 O70 2.467251 1_545
Na5 O49 2.870591 1_555
Na6 O28 2.292474 1_555
Na6 O65 2.356634 1_555
Na6 O43 2.467250 1_555
Na6 O64 2.870598 1_555
Na7 O29 2.292467 1_555
Na7 O63 2.356619 1_555
Na7 O44 2.467259 1_455
Na7 O65 2.870583 1_555
Na8 O27 2.292471 1_555
Na8 O64 2.356617 1_555
Na8 O42 2.467251 1_565
Na8 O63 2.870602 1_555
Na9 O26 2.292467 1_554
Na9 O61 2.356619 1_555
Na9 O47 2.467259 1_565
Na9 O62 2.870584 1_555
Na10 O24 2.292474 1_554
Na10 O62 2.356634 1_555
Na10 O45 2.467251 1_555
Na10 O60 2.870598 1_555
Na11 O25 2.292471 1_554
Na11 O60 2.356617 1_555
Na11 O46 2.467251 1_455
Na11 O61 2.870601 1_555
Na12 O4 2.292490 1_555
Na12 O41 2.356618 1_555
Na12 O55 2.467258 1_555
Na12 O40 2.870593 1_665
Na13 O5 2.292493 1_555
Na13 O39 2.356626 1_555
Na13 O56 2.467241 1_555
Na13 O41 2.870600 1_545
Na14 O3 2.292491 1_555
Na14 O40 2.356627 1_555
Na14 O54 2.467257 1_555
Na14 O39 2.870591 1_455
Na15 O2 2.292493 1_555
Na15 O37 2.356626 1_555
Na15 O59 2.467241 1_555
Na15 O38 2.870600 1_655
Na16 O0 2.292490 1_555
Na16 O38 2.356618 1_555
Na16 O57 2.467258 1_555
Na16 O36 2.870593 1_445
Na17 O1 2.292491 1_555
Na17 O36 2.356627 1_555
Na17 O58 2.467257 1_555
Na17 O37 2.870591 1_565
Na18 O44 2.521347 1_445
Na18 O42 2.521347 1_455
Na18 O43 2.521347 1_555
Na18 O36 2.675305 1_445
Na18 O38 2.675305 1_555
Na18 O37 2.675305 1_455
Na19 O45 2.521347 1_446
Na19 O47 2.521347 1_556
Na19 O46 2.521347 1_456
Na19 O41 2.675305 1_445
Na19 O39 2.675305 1_455
Na19 O40 2.675305 1_555
Na20 O56 2.521347 1_555
Na20 O54 2.521347 1_555
Na20 O55 2.521347 1_555
Na20 O48 2.675305 1_555
Na20 O50 2.675305 1_555
Na20 O49 2.675305 1_555
Na21 O57 2.521347 1_555
Na21 O59 2.521347 1_555
Na21 O58 2.521347 1_555
Na21 O53 2.675305 1_555
Na21 O51 2.675305 1_555
Na21 O52 2.675305 1_555
Na22 O68 2.521347 1_555
Na22 O66 2.521347 1_555
Na22 O67 2.521347 1_555
Na22 O60 2.675305 1_555
Na22 O62 2.675305 1_555
Na22 O61 2.675305 1_555
Na23 O69 2.521347 1_555
Na23 O71 2.521347 1_555
Na23 O70 2.521347 1_555
Na23 O65 2.675305 1_555
Na23 O63 2.675305 1_555
Na23 O64 2.675305 1_555
La0 O2 2.270422 1_455
La0 O1 2.270422 1_445
La0 O0 2.270422 1_555
La0 O36 2.413284 1_445
La0 O38 2.413284 1_555
La0 O37 2.413284 1_455
La1 O3 2.270422 1_555
La1 O4 2.270422 1_445
La1 O5 2.270422 1_455
La1 O41 2.413284 1_445
La1 O39 2.413284 1_455
La1 O40 2.413284 1_555
La2 O14 2.270422 1_555
La2 O13 2.270422 1_555
La2 O12 2.270422 1_555
La2 O48 2.413284 1_555
La2 O50 2.413284 1_555
La2 O49 2.413284 1_555
La3 O15 2.270422 1_555
La3 O16 2.270422 1_555
La3 O17 2.270422 1_555
La3 O53 2.413284 1_555
La3 O51 2.413284 1_555
La3 O52 2.413284 1_555
La4 O26 2.270422 1_554
La4 O25 2.270422 1_554
La4 O24 2.270422 1_554
La4 O60 2.413284 1_555
La4 O62 2.413284 1_555
La4 O61 2.413284 1_555
La5 O27 2.270422 1_555
La5 O28 2.270422 1_555
La5 O29 2.270422 1_555
La5 O65 2.413284 1_555
La5 O63 2.413284 1_555
La5 O64 2.413284 1_555
Nb0 O7 2.011913 1_555
Nb0 O8 2.011913 1_545
Nb0 O6 2.011913 1_445
Nb0 O44 2.094500 1_445
Nb0 O42 2.094500 1_455
Nb0 O43 2.094500 1_555
Nb1 O10 2.011913 1_555
Nb1 O9 2.011913 1_445
Nb1 O11 2.011913 1_545
Nb1 O45 2.094500 1_445
Nb1 O47 2.094500 1_555
Nb1 O46 2.094500 1_455
Nb2 O19 2.011913 1_556
Nb2 O20 2.011913 1_556
Nb2 O18 2.011913 1_556
Nb2 O56 2.094500 1_555
Nb2 O54 2.094500 1_555
Nb2 O55 2.094500 1_555
Nb3 O22 2.011913 1_555
Nb3 O21 2.011913 1_555
Nb3 O23 2.011913 1_555
Nb3 O57 2.094500 1_555
Nb3 O59 2.094500 1_555
Nb3 O58 2.094500 1_555
Nb4 O31 2.011913 1_555
Nb4 O32 2.011913 1_555
Nb4 O30 2.011913 1_555
Nb4 O68 2.094500 1_555
Nb4 O66 2.094500 1_555
Nb4 O67 2.094500 1_555
Nb5 O34 2.011913 1_555
Nb5 O33 2.011913 1_555
Nb5 O35 2.011913 1_555
Nb5 O69 2.094500 1_555
Nb5 O71 2.094500 1_555
Nb5 O70 2.094500 1_555
O0 Si0 1.600810 1_545
O1 Si1 1.600810 1_555
O2 Si2 1.600810 1_655
O3 Si3 1.600810 1_555
O4 Si4 1.600810 1_655
O5 Si5 1.600810 1_545
O6 Si5 1.734038 1_555
O7 Si3 1.734038 1_555
O8 Si4 1.734038 1_555
O9 Si1 1.734038 1_555
O10 Si2 1.734038 1_555
O11 Si0 1.734038 1_555
O12 Si6 1.600810 1_555
O13 Si7 1.600810 1_555
O14 Si8 1.600810 1_555
O15 Si9 1.600810 1_555
O16 Si10 1.600810 1_555
O17 Si11 1.600810 1_555
O18 Si11 1.734038 1_555
O19 Si9 1.734038 1_555
O20 Si10 1.734038 1_555
O21 Si7 1.734038 1_555
O22 Si8 1.734038 1_555
O23 Si6 1.734038 1_555
O24 Si12 1.600810 1_555
O25 Si13 1.600810 1_555
O26 Si14 1.600810 1_555
O27 Si15 1.600810 1_555
O28 Si16 1.600810 1_555
O29 Si17 1.600810 1_555
O30 Si17 1.734038 1_555
O31 Si15 1.734038 1_555
O32 Si16 1.734038 1_555
O33 Si13 1.734038 1_555
O34 Si14 1.734038 1_555
O35 Si12 1.734038 1_555
O36 Si17 1.613614 1_655
O37 Si15 1.613624 1_545
O38 Si16 1.613621 1_555
O39 Si13 1.613624 1_655
O40 Si14 1.613614 1_545
O41 Si12 1.613621 1_555
O42 Si6 1.673682 1_555
O43 Si7 1.673692 1_555
O44 Si8 1.673687 1_555
O45 Si9 1.673692 1_555
O46 Si10 1.673682 1_555
O47 Si11 1.673687 1_555
O48 Si5 1.613614 1_545
O49 Si3 1.613624 1_555
O50 Si4 1.613621 1_655
O51 Si1 1.613624 1_555
O52 Si2 1.613614 1_655
O53 Si0 1.613621 1_545
O54 Si12 1.673696 1_555
O55 Si13 1.673677 1_655
O56 Si14 1.673687 1_545
O57 Si15 1.673677 1_545
O58 Si16 1.673696 1_555
O59 Si17 1.673687 1_655
O60 Si11 1.613628 1_555
O61 Si9 1.613609 1_455
O62 Si10 1.613615 1_565
O63 Si7 1.613609 1_565
O64 Si8 1.613628 1_555
O65 Si6 1.613615 1_455
O66 Si0 1.673682 1_555
O67 Si1 1.673692 1_555
O68 Si2 1.673687 1_555
O69 Si3 1.673692 1_555
O70 Si4 1.673682 1_555
O71 Si5 1.673687 1_555
