# generated using pymatgen
data_EuSnF7
_symmetry_space_group_name_H-M   'P 1'
_cell_length_a   5.61654637
_cell_length_b   9.04806979
_cell_length_c   12.17055534
_cell_angle_alpha   61.90825493
_cell_angle_beta   90.00000000
_cell_angle_gamma   90.00000000
_symmetry_Int_Tables_number   1
_chemical_formula_structural   EuSnF7
_chemical_formula_sum   'Eu4 Sn4 F28'
_cell_volume   545.63238547
_cell_formula_units_Z   4
loop_
 _symmetry_equiv_pos_site_id
 _symmetry_equiv_pos_as_xyz
  1  'x, y, z'
loop_
 _atom_site_type_symbol
 _atom_site_label
 _atom_site_symmetry_multiplicity
 _atom_site_fract_x
 _atom_site_fract_y
 _atom_site_fract_z
 _atom_site_occupancy
  Eu  Eu0  1  0.74171015  0.81206858  0.26566664  1
  Eu  Eu1  1  0.24171015  0.18793142  0.23433336  1
  Eu  Eu2  1  0.25828985  0.18793142  0.73433336  1
  Eu  Eu3  1  0.75828985  0.81206858  0.76566664  1
  Sn  Sn0  1  0.74289036  0.27253114  0.45662805  1
  Sn  Sn1  1  0.24289036  0.72746886  0.04337195  1
  Sn  Sn2  1  0.25710964  0.72746886  0.54337195  1
  Sn  Sn3  1  0.75710964  0.27253114  0.95662805  1
  F  F0  1  0.44800196  0.71238047  0.91732598  1
  F  F1  1  0.94800196  0.28761953  0.58267402  1
  F  F2  1  0.55199804  0.28761953  0.08267402  1
  F  F3  1  0.05199804  0.71238047  0.41732598  1
  F  F4  1  0.44721535  0.28365664  0.54163365  1
  F  F5  1  0.94721535  0.71634336  0.95836635  1
  F  F6  1  0.55278465  0.71634336  0.45836635  1
  F  F7  1  0.05278465  0.28365664  0.04163365  1
  F  F8  1  0.76963530  0.51869195  0.85969601  1
  F  F9  1  0.26963530  0.48130805  0.64030399  1
  F  F10  1  0.23036470  0.48130805  0.14030399  1
  F  F11  1  0.73036470  0.51869195  0.35969601  1
  F  F12  1  0.76243107  0.02582648  0.05308218  1
  F  F13  1  0.26243107  0.97417352  0.44691782  1
  F  F14  1  0.23756893  0.97417352  0.94691782  1
  F  F15  1  0.73756893  0.02582648  0.55308218  1
  F  F16  1  0.97399729  0.73053530  0.63833923  1
  F  F17  1  0.47399729  0.26946470  0.86166077  1
  F  F18  1  0.02600271  0.26946470  0.36166077  1
  F  F19  1  0.52600271  0.73053530  0.13833923  1
  F  F20  1  0.04951305  0.74144869  0.17416798  1
  F  F21  1  0.54951305  0.25855131  0.32583202  1
  F  F22  1  0.95048695  0.25855131  0.82583202  1
  F  F23  1  0.45048695  0.74144869  0.67416798  1
  F  F24  1  0.40502070  0.96208279  0.23551426  1
  F  F25  1  0.90502070  0.03791721  0.26448574  1
  F  F26  1  0.59497930  0.03791721  0.76448574  1
  F  F27  1  0.09497930  0.96208279  0.73551426  1
loop_
_geom_bond_atom_site_label_1
_geom_bond_atom_site_label_2
_geom_bond_distance
_geom_bond_site_symmetry_2
Eu0 F25 2.233774 1_565
Eu0 F24 2.254759 1_555
Eu0 F20 2.303736 1_655
Eu0 F6 2.337386 1_555
Eu0 F19 2.343090 1_555
Eu0 F11 2.345023 1_555
Eu0 F3 2.385314 1_655
Eu0 F12 2.394911 1_565
Eu1 F24 2.233774 1_545
Eu1 F25 2.254759 1_455
Eu1 F21 2.303736 1_555
Eu1 F7 2.337386 1_555
Eu1 F18 2.343090 1_555
Eu1 F10 2.345023 1_555
Eu1 F2 2.385314 1_555
Eu1 F13 2.394911 1_545
Eu2 F27 2.233774 1_545
Eu2 F26 2.254759 1_555
Eu2 F22 2.303736 1_455
Eu2 F4 2.337386 1_555
Eu2 F17 2.343090 1_555
Eu2 F9 2.345023 1_555
Eu2 F1 2.385314 1_455
Eu2 F14 2.394911 1_545
Eu3 F26 2.233774 1_565
Eu3 F27 2.254759 1_655
Eu3 F23 2.303736 1_555
Eu3 F5 2.337386 1_555
Eu3 F16 2.343090 1_555
Eu3 F8 2.345023 1_555
Eu3 F0 2.385314 1_555
Eu3 F15 2.394911 1_565
F0 Sn1 1.973912 1_556
F1 Sn0 1.973912 1_555
F2 Sn3 1.973912 1_554
F3 Sn2 1.973912 1_555
F4 Sn0 1.984029 1_555
F5 Sn1 1.984029 1_656
F6 Sn2 1.984029 1_555
F7 Sn3 1.984029 1_454
F8 Sn3 1.970508 1_555
F9 Sn2 1.970508 1_555
F10 Sn1 1.970508 1_555
F11 Sn0 1.970508 1_555
F12 Sn3 1.973287 1_554
F13 Sn2 1.973287 1_555
F14 Sn1 1.973287 1_556
F15 Sn0 1.973287 1_555
F16 Sn2 1.973656 1_655
F17 Sn3 1.973656 1_555
F18 Sn0 1.973656 1_455
F19 Sn1 1.973656 1_555
F20 Sn1 1.979720 1_555
F21 Sn0 1.979720 1_555
F22 Sn3 1.979720 1_555
F23 Sn2 1.979720 1_555
