# generated using pymatgen
data_Na3In2Ge2P5SO24
_symmetry_space_group_name_H-M   'P 1'
_cell_length_a   8.71766902
_cell_length_b   8.70501891
_cell_length_c   22.11549684
_cell_angle_alpha   90.32216658
_cell_angle_beta   90.00155851
_cell_angle_gamma   119.68517695
_symmetry_Int_Tables_number   1
_chemical_formula_structural   Na3In2Ge2P5SO24
_chemical_formula_sum   'Na9 In6 Ge6 P15 S3 O72'
_cell_volume   1457.99926568
_cell_formula_units_Z   3
loop_
 _symmetry_equiv_pos_site_id
 _symmetry_equiv_pos_as_xyz
  1  'x, y, z'
loop_
 _atom_site_type_symbol
 _atom_site_label
 _atom_site_symmetry_multiplicity
 _atom_site_fract_x
 _atom_site_fract_y
 _atom_site_fract_z
 _atom_site_occupancy
  Na  Na0  1  0.00698705  0.36238361  0.75031994  1
  Na  Na1  1  0.66990902  0.95483270  0.58375428  1
  Na  Na2  1  0.04831183  0.33178095  0.08379682  1
  Na  Na3  1  0.01219984  0.99452373  0.49803608  1
  Na  Na4  1  0.00614697  0.98974887  0.99745425  1
  Na  Na5  1  0.65313994  0.32445379  0.83515002  1
  Na  Na6  1  0.67693266  0.33599122  0.33395686  1
  Na  Na7  1  0.34992188  0.67399363  0.16886888  1
  Na  Na8  1  0.33480248  0.66867097  0.66818050  1
  In  In0  1  0.00994828  0.99913087  0.64453022  1
  In  In1  1  0.99524938  0.99100159  0.14498292  1
  In  In2  1  0.33399994  0.67355986  0.01708926  1
  In  In3  1  0.32407761  0.66719485  0.51716079  1
  In  In4  1  0.32883262  0.66556023  0.31959669  1
  In  In5  1  0.33451452  0.67635180  0.82074551  1
  Ge  Ge0  1  0.97441596  0.98458220  0.34849567  1
  Ge  Ge1  1  0.01284447  0.01055045  0.84710709  1
  Ge  Ge2  1  0.66463846  0.33783714  0.68792886  1
  Ge  Ge3  1  0.67528415  0.34069414  0.18677186  1
  Ge  Ge4  1  0.66396251  0.32482020  0.98221439  1
  Ge  Ge5  1  0.67534666  0.33658574  0.48189001  1
  P  P0  1  0.70319216  0.69574827  0.24873396  1
  P  P1  1  0.99069339  0.28733441  0.24842214  1
  P  P2  1  0.30153386  0.29278097  0.74995721  1
  P  P3  1  0.98960293  0.70416178  0.75042603  1
  P  P4  1  0.70922291  0.00396162  0.74745074  1
  P  P5  1  0.95115794  0.34034680  0.58560843  1
  P  P6  1  0.39335158  0.06232584  0.58216850  1
  P  P7  1  0.66268030  0.60940197  0.58273638  1
  P  P8  1  0.94277914  0.61083382  0.08159158  1
  P  P9  1  0.65980906  0.05113828  0.08505275  1
  P  P10  1  0.39276929  0.33621364  0.08420732  1
  P  P11  1  0.02096209  0.35306852  0.91686230  1
  P  P12  1  0.33224876  0.97997449  0.91712056  1
  P  P13  1  0.64026240  0.97654549  0.41851939  1
  P  P14  1  0.02110492  0.66893569  0.41595774  1
  S  S0  1  0.29807197  0.01066256  0.25086091  1
  S  S1  1  0.64538911  0.66824108  0.91684854  1
  S  S2  1  0.33068992  0.35290987  0.41621784  1
  O  O0  1  0.20554715  0.03046144  0.30489247  1
  O  O1  1  0.82393755  0.78355605  0.30587995  1
  O  O2  1  0.96315915  0.16081026  0.30332519  1
  O  O3  1  0.21491293  0.17197674  0.80625822  1
  O  O4  1  0.96565562  0.79902574  0.80683996  1
  O  O5  1  0.84389817  0.04248119  0.80099837  1
  O  O6  1  0.78015478  0.97740186  0.68732047  1
  O  O7  1  0.18213786  0.22185738  0.69440189  1
  O  O8  1  0.02566068  0.80709798  0.69236085  1
  O  O9  1  0.78129898  0.80376921  0.19213890  1
  O  O10  1  0.02294077  0.21822959  0.18869377  1
  O  O11  1  0.20006115  0.98393369  0.19432640  1
  O  O12  1  0.86617964  0.35847966  0.64595396  1
  O  O13  1  0.50491762  0.14612220  0.64070336  1
  O  O14  1  0.64465400  0.50575276  0.64168745  1
  O  O15  1  0.86298653  0.50176112  0.14052853  1
  O  O16  1  0.64142480  0.14085063  0.14356233  1
  O  O17  1  0.49968704  0.35773313  0.14309517  1
  O  O18  1  0.47998130  0.31774089  0.02601186  1
  O  O19  1  0.83453858  0.51950488  0.02408640  1
  O  O20  1  0.68673214  0.16148968  0.02710123  1
  O  O21  1  0.48334498  0.16584329  0.52411763  1
  O  O22  1  0.68097824  0.52056982  0.52468420  1
  O  O23  1  0.83752995  0.31440377  0.52844950  1
  O  O24  1  0.56787298  0.70192991  0.97147720  1
  O  O25  1  0.13677863  0.42933025  0.97393723  1
  O  O26  1  0.29248207  0.86326836  0.97289322  1
  O  O27  1  0.56993295  0.86563950  0.47636711  1
  O  O28  1  0.29652436  0.43016779  0.47092932  1
  O  O29  1  0.13673142  0.71223870  0.47266091  1
  O  O30  1  0.09476198  0.62233978  0.36089825  1
  O  O31  1  0.52153004  0.89411270  0.36382442  1
  O  O32  1  0.36700829  0.46493893  0.36288485  1
  O  O33  1  0.09999558  0.46743025  0.86062249  1
  O  O34  1  0.38104745  0.90990707  0.86140577  1
  O  O35  1  0.53305298  0.63195543  0.86316839  1
  O  O36  1  0.00444072  0.83869225  0.40511657  1
  O  O37  1  0.82970169  0.00117453  0.40767617  1
  O  O38  1  0.17304140  0.17446849  0.40713374  1
  O  O39  1  0.99657095  0.16394392  0.90610180  1
  O  O40  1  0.16267849  0.99493474  0.90644842  1
  O  O41  1  0.82231455  0.82650169  0.90874764  1
  O  O42  1  0.96274564  0.16968965  0.58531677  1
  O  O43  1  0.21215451  0.04839920  0.58210258  1
  O  O44  1  0.82742427  0.79570806  0.58295226  1
  O  O45  1  0.95930984  0.79346835  0.08204511  1
  O  O46  1  0.83061408  0.03981643  0.08518886  1
  O  O47  1  0.20680864  0.17043644  0.08514730  1
  O  O48  1  0.70035834  0.18107858  0.74538503  1
  O  O49  1  0.48254392  0.30126088  0.74347441  1
  O  O50  1  0.81637857  0.51793173  0.74665265  1
  O  O51  1  0.69397139  0.51112822  0.24444324  1
  O  O52  1  0.81469304  0.29635805  0.24514907  1
  O  O53  1  0.47353393  0.17575855  0.24838698  1
  O  O54  1  0.66750895  0.51001500  0.92413180  1
  O  O55  1  0.83312743  0.33197585  0.92518660  1
  O  O56  1  0.49321549  0.17018099  0.92652700  1
  O  O57  1  0.66595911  0.16682846  0.42579199  1
  O  O58  1  0.48850248  0.33030911  0.42383950  1
  O  O59  1  0.83167646  0.50683278  0.42554959  1
  O  O60  1  0.36994805  0.50139903  0.08113735  1
  O  O61  1  0.12480717  0.62215693  0.07950667  1
  O  O62  1  0.49417017  0.86951923  0.08214571  1
  O  O63  1  0.37957178  0.87846577  0.58090827  1
  O  O64  1  0.49659847  0.62976816  0.58013405  1
  O  O65  1  0.13168873  0.50697853  0.58241988  1
  O  O66  1  0.32418795  0.85596759  0.25613169  1
  O  O67  1  0.51938157  0.67180658  0.25764317  1
  O  O68  1  0.14774475  0.47206679  0.25783117  1
  O  O69  1  0.32335533  0.47667194  0.76017934  1
  O  O70  1  0.14339955  0.66636334  0.75782259  1
  O  O71  1  0.52748034  0.84566485  0.75705061  1
loop_
_geom_bond_atom_site_label_1
_geom_bond_atom_site_label_2
_geom_bond_distance
_geom_bond_site_symmetry_2
Na0 O70 2.306964 1_555
Na0 O48 2.338301 1_455
Na0 O69 2.433859 1_555
Na0 O33 2.585479 1_555
Na0 O12 2.606327 1_455
Na0 O50 2.613599 1_455
Na0 O5 2.673216 1_455
Na0 O7 2.681475 1_555
Na1 O63 2.277091 1_555
Na1 O42 2.299238 1_565
Na1 O44 2.385018 1_555
Na1 O6 2.452774 1_555
Na1 O64 2.461544 1_555
Na1 O27 2.512290 1_555
Na2 O61 2.275135 1_555
Na2 O46 2.299047 1_455
Na2 O47 2.409419 1_555
Na2 O60 2.438429 1_555
Na2 O10 2.493382 1_555
Na2 O25 2.567776 1_554
Na3 O43 2.428025 1_565
Na3 O36 2.438306 1_555
Na3 O38 2.514234 1_565
Na3 O44 2.528286 1_455
Na3 O37 2.572990 1_465
Na3 O42 2.618188 1_465
Na4 O40 2.419714 1_555
Na4 O45 2.435340 1_456
Na4 O41 2.479748 1_455
Na4 O47 2.556461 1_566
Na4 O39 2.558868 1_465
Na4 O46 2.635822 1_466
Na5 O56 2.450972 1_555
Na5 O49 2.461894 1_555
Na5 O48 2.479759 1_555
Na5 O54 2.502258 1_555
Na5 O55 2.515505 1_555
Na5 O50 2.521016 1_555
Na6 O52 2.412802 1_555
Na6 O51 2.464753 1_555
Na6 O59 2.472556 1_555
Na6 O53 2.488244 1_555
Na6 O57 2.489296 1_555
Na6 O58 2.563780 1_555
Na7 O67 2.462798 1_555
Na7 O62 2.464478 1_555
Na7 O60 2.505856 1_555
Na7 O66 2.569368 1_555
Na7 O68 2.652844 1_555
Na7 O61 2.659568 1_555
Na8 O65 2.492982 1_555
Na8 O64 2.522210 1_555
Na8 O71 2.541760 1_555
Na8 O63 2.558603 1_555
Na8 O70 2.585003 1_555
Na8 O69 2.610754 1_555
In0 O8 2.044207 1_555
In0 O7 2.078959 1_565
In0 O43 2.110775 1_565
In0 O6 2.138034 1_455
In0 O44 2.168899 1_455
In0 O42 2.171535 1_465
In1 O9 2.056960 1_555
In1 O10 2.100207 1_665
In1 O45 2.105181 1_555
In1 O11 2.119439 1_655
In1 O46 2.144628 1_565
In1 O47 2.182297 1_665
In2 O26 2.103251 1_554
In2 O62 2.131357 1_555
In2 O61 2.151819 1_555
In2 O24 2.177051 1_554
In2 O25 2.177932 1_554
In2 O60 2.199903 1_555
In3 O29 2.104337 1_555
In3 O65 2.132357 1_555
In3 O63 2.166451 1_555
In3 O27 2.177658 1_555
In3 O64 2.190431 1_555
In3 O28 2.201306 1_555
In4 O30 2.093625 1_555
In4 O31 2.098737 1_555
In4 O68 2.129662 1_555
In4 O67 2.133334 1_555
In4 O32 2.161404 1_555
In4 O66 2.193526 1_555
In5 O34 2.066205 1_555
In5 O71 2.134048 1_555
In5 O70 2.138895 1_555
In5 O33 2.144876 1_555
In5 O69 2.152049 1_555
In5 O35 2.166043 1_555
Ge0 O1 1.838222 1_555
Ge0 O37 1.871855 1_565
Ge0 O2 1.878103 1_565
Ge0 O36 1.896433 1_655
Ge0 O0 2.087271 1_665
Ge0 O38 2.133808 1_665
Ge1 O3 1.859152 1_555
Ge1 O4 1.893155 1_445
Ge1 O40 1.903870 1_545
Ge1 O39 1.916616 1_455
Ge1 O5 1.922202 1_455
Ge1 O41 2.138454 1_445
Ge2 O14 1.865955 1_555
Ge2 O13 1.869080 1_555
Ge2 O49 1.906368 1_555
Ge2 O12 1.915782 1_555
Ge2 O50 1.953769 1_555
Ge2 O48 2.003502 1_555
Ge3 O15 1.852872 1_555
Ge3 O16 1.870652 1_555
Ge3 O17 1.877442 1_555
Ge3 O51 1.895717 1_555
Ge3 O52 1.939804 1_555
Ge3 O53 2.128985 1_555
Ge4 O20 1.828043 1_556
Ge4 O18 1.848594 1_556
Ge4 O19 1.851234 1_556
Ge4 O56 1.881781 1_555
Ge4 O55 1.918153 1_555
Ge4 O54 2.055196 1_555
Ge5 O22 1.835281 1_555
Ge5 O23 1.835512 1_555
Ge5 O21 1.853243 1_555
Ge5 O57 1.894515 1_555
Ge5 O59 1.904348 1_555
Ge5 O58 2.053109 1_555
O0 S0 1.497867 1_555
O1 P0 1.575319 1_555
O2 P1 1.580567 1_555
O3 P2 1.566741 1_555
O4 P3 1.562453 1_555
O5 P4 1.580753 1_555
O6 P4 1.530494 1_565
O7 P2 1.526107 1_555
O8 P3 1.511533 1_455
O9 P0 1.514440 1_555
O10 P1 1.531118 1_455
O11 S0 1.465321 1_565
O12 P5 1.571084 1_555
O13 P6 1.562196 1_555
O14 P7 1.552837 1_555
O15 P8 1.563356 1_555
O16 P9 1.556449 1_555
O17 P10 1.556977 1_555
O18 P10 1.542445 1_555
O19 P8 1.544455 1_555
O20 P9 1.552732 1_555
O21 P6 1.545496 1_555
O22 P7 1.543605 1_555
O23 P5 1.550911 1_555
O24 S1 1.481419 1_555
O25 P11 1.542720 1_555
O26 P12 1.529361 1_555
O27 P13 1.540233 1_555
O28 S2 1.481320 1_555
O29 P14 1.532638 1_555
O30 P14 1.520532 1_555
O31 P13 1.517874 1_555
O32 S2 1.466154 1_555
O33 P11 1.532103 1_555
O34 P12 1.523088 1_555
O35 S1 1.468847 1_555
O36 P14 1.574451 1_555
O37 P13 1.575032 1_545
O38 S2 1.491315 1_555
O39 P11 1.568796 1_655
O40 P12 1.564901 1_555
O41 S1 1.485647 1_555
O42 P5 1.538085 1_555
O43 P6 1.523224 1_555
O44 P7 1.544600 1_555
O45 P8 1.523596 1_555
O46 P9 1.540216 1_555
O47 P10 1.547332 1_555
O48 P4 1.582413 1_555
O49 P2 1.549452 1_555
O50 P3 1.577719 1_555
O51 P0 1.571189 1_555
O52 P1 1.576374 1_555
O53 S0 1.493887 1_555
O54 S1 1.491917 1_555
O55 P11 1.565742 1_655
O56 P12 1.564841 1_545
O57 P13 1.565006 1_545
O58 S2 1.492740 1_555
O59 P14 1.567990 1_655
O60 P10 1.548003 1_555
O61 P8 1.541136 1_455
O62 P9 1.525272 1_565
O63 P6 1.544633 1_565
O64 P7 1.544458 1_555
O65 P5 1.525105 1_455
O66 S0 1.477918 1_565
O67 P0 1.523038 1_555
O68 P1 1.522925 1_455
O69 P2 1.531041 1_555
O70 P3 1.539536 1_455
O71 P4 1.514932 1_565
