# generated using pymatgen
data_YMo3O8
_symmetry_space_group_name_H-M   'P 1'
_cell_length_a   6.24010089
_cell_length_b   6.24010089
_cell_length_c   4.76023885
_cell_angle_alpha   89.80007958
_cell_angle_beta   89.80007958
_cell_angle_gamma   60.55231438
_symmetry_Int_Tables_number   1
_chemical_formula_structural   YMo3O8
_chemical_formula_sum   'Y1 Mo3 O8'
_cell_volume   161.40958075
_cell_formula_units_Z   1
loop_
 _symmetry_equiv_pos_site_id
 _symmetry_equiv_pos_as_xyz
  1  'x, y, z'
loop_
 _atom_site_type_symbol
 _atom_site_label
 _atom_site_symmetry_multiplicity
 _atom_site_fract_x
 _atom_site_fract_y
 _atom_site_fract_z
 _atom_site_occupancy
  Y  Y0  1  0.00000000  0.00000000  0.00000000  1
  Mo  Mo0  1  0.50000000  0.50000000  0.50000000  1
  Mo  Mo1  1  0.00000000  0.50000000  0.50000000  1
  Mo  Mo2  1  0.50000000  0.00000000  0.50000000  1
  O  O0  1  0.35713500  0.81264700  0.27646500  1
  O  O1  1  0.65969000  0.65969000  0.71524500  1
  O  O2  1  0.18735300  0.64286500  0.72353500  1
  O  O3  1  0.17344000  0.17344000  0.71541500  1
  O  O4  1  0.81264700  0.35713500  0.27646500  1
  O  O5  1  0.34031000  0.34031000  0.28475500  1
  O  O6  1  0.82656000  0.82656000  0.28458500  1
  O  O7  1  0.64286500  0.18735300  0.72353500  1
loop_
_geom_bond_atom_site_label_1
_geom_bond_atom_site_label_2
_geom_bond_distance
_geom_bond_site_symmetry_2
Mo0 O2 2.003802 1_555
Mo0 O7 2.003802 1_555
Mo0 O0 2.003802 1_555
Mo0 O4 2.003802 1_555
Mo0 O1 2.006588 1_555
Mo0 O5 2.006588 1_555
Mo1 O3 2.049385 1_555
Mo1 O6 2.049385 1_455
Mo1 O2 2.081807 1_555
Mo1 O4 2.081807 1_455
Mo1 O5 2.112731 1_555
Mo1 O1 2.112731 1_455
Mo2 O3 2.049385 1_555
Mo2 O6 2.049385 1_545
Mo2 O7 2.081807 1_555
Mo2 O0 2.081807 1_545
Mo2 O5 2.112731 1_555
Mo2 O1 2.112731 1_545
O0 Y0 2.348014 1_565
O2 Y0 2.348014 1_566
O3 Y0 2.304154 1_556
O4 Y0 2.348014 1_655
O6 Y0 2.304154 1_665
O7 Y0 2.348014 1_656
