# generated using pymatgen
data_MgCu6OF11
_symmetry_space_group_name_H-M   'P 1'
_cell_length_a   5.57986832
_cell_length_b   4.99533614
_cell_length_c   8.31760260
_cell_angle_alpha   94.37412602
_cell_angle_beta   95.99388348
_cell_angle_gamma   85.14419799
_symmetry_Int_Tables_number   1
_chemical_formula_structural   MgCu6OF11
_chemical_formula_sum   'Mg1 Cu6 O1 F11'
_cell_volume   229.21170001
_cell_formula_units_Z   1
loop_
 _symmetry_equiv_pos_site_id
 _symmetry_equiv_pos_as_xyz
  1  'x, y, z'
loop_
 _atom_site_type_symbol
 _atom_site_label
 _atom_site_symmetry_multiplicity
 _atom_site_fract_x
 _atom_site_fract_y
 _atom_site_fract_z
 _atom_site_occupancy
  Mg  Mg0  1  0.66679300  0.99940900  0.16272500  1
  Cu  Cu0  1  0.04073300  0.02590400  0.96174500  1
  Cu  Cu1  1  0.49356800  0.51669100  0.00576000  1
  Cu  Cu2  1  0.29052700  0.94010300  0.34770800  1
  Cu  Cu3  1  0.78618400  0.51411200  0.34633800  1
  Cu  Cu4  1  0.16710500  0.49468200  0.65614000  1
  Cu  Cu5  1  0.66334300  0.00997000  0.66642900  1
  O  O0  1  0.50592700  0.68756300  0.22951200  1
  F  F0  1  0.34187000  0.16984800  0.07422500  1
  F  F1  1  0.97575700  0.80646300  0.25281400  1
  F  F2  1  0.82857000  0.29427600  0.08218500  1
  F  F3  1  0.10821500  0.29798300  0.43048900  1
  F  F4  1  0.61423000  0.18319100  0.37952100  1
  F  F5  1  0.38942700  0.81671000  0.58155300  1
  F  F6  1  0.87322400  0.71304000  0.58273600  1
  F  F7  1  0.46306300  0.30697400  0.76212700  1
  F  F8  1  0.20431600  0.69702300  0.88056300  1
  F  F9  1  0.94155600  0.20223400  0.73954700  1
  F  F10  1  0.72058700  0.82382500  0.94382300  1
loop_
_geom_bond_atom_site_label_1
_geom_bond_atom_site_label_2
_geom_bond_distance
_geom_bond_site_symmetry_2
Mg0 O0 2.003452 1_555
Cu0 F8 1.921915 1_545
Cu0 F2 1.994090 1_456
Cu0 F0 1.997338 1_556
Cu0 F9 2.109496 1_455
Cu0 F10 2.111649 1_445
Cu1 O0 1.984387 1_555
Cu1 F8 2.011656 1_554
Cu1 F0 2.131226 1_555
Cu1 F2 2.154209 1_555
Cu1 F10 2.193121 1_554
Cu1 F7 2.206184 1_554
Cu2 O0 1.950233 1_555
Cu2 F1 1.995520 1_455
Cu2 F3 2.086997 1_565
Cu2 F5 2.090153 1_555
Cu2 F4 2.242650 1_565
Cu3 O0 1.929275 1_555
Cu3 F4 2.030471 1_555
Cu3 F3 2.099645 1_655
Cu3 F1 2.112689 1_555
Cu3 F6 2.161888 1_555
Cu3 F2 2.405354 1_555
Cu4 F6 1.959905 1_455
Cu4 F7 1.985800 1_555
Cu4 F8 2.053280 1_555
Cu4 F3 2.059284 1_555
Cu4 F9 2.201715 1_455
Cu4 F5 2.272070 1_555
Cu5 F9 1.915292 1_555
Cu5 F5 1.920138 1_545
Cu5 F6 1.942894 1_545
Cu5 F7 1.951558 1_555
Cu5 F10 2.532417 1_545
Cu5 F4 2.580104 1_555
F0 Mg0 2.027155 1_545
F1 Mg0 2.005399 1_555
F2 Mg0 1.983719 1_545
F4 Mg0 1.998200 1_545
F10 Mg0 2.000116 1_556
