# generated using pymatgen
data_K2CoH8(CO5)2
_symmetry_space_group_name_H-M   'P 1'
_cell_length_a   6.31692100
_cell_length_b   6.93099800
_cell_length_c   12.33420484
_cell_angle_alpha   65.74366930
_cell_angle_beta   90.00000000
_cell_angle_gamma   90.00000000
_symmetry_Int_Tables_number   1
_chemical_formula_structural   K2CoH8(CO5)2
_chemical_formula_sum   'K4 Co2 H16 C4 O20'
_cell_volume   492.34809863
_cell_formula_units_Z   2
loop_
 _symmetry_equiv_pos_site_id
 _symmetry_equiv_pos_as_xyz
  1  'x, y, z'
loop_
 _atom_site_type_symbol
 _atom_site_label
 _atom_site_symmetry_multiplicity
 _atom_site_fract_x
 _atom_site_fract_y
 _atom_site_fract_z
 _atom_site_occupancy
  K  K0  1  0.65454200  0.73267000  0.68366600  1
  K  K1  1  0.15454200  0.26733000  0.81633400  1
  K  K2  1  0.34545800  0.26733000  0.31633400  1
  K  K3  1  0.84545800  0.73267000  0.18366600  1
  Co  Co0  1  0.00000000  0.50000000  0.50000000  1
  Co  Co1  1  0.50000000  0.50000000  0.00000000  1
  H  H0  1  0.67454400  0.80037000  0.42177900  1
  H  H1  1  0.17454400  0.19963000  0.07822100  1
  H  H2  1  0.32545600  0.19963000  0.57822100  1
  H  H3  1  0.82545600  0.80037000  0.92177900  1
  H  H4  1  0.89016300  0.92811500  0.38894500  1
  H  H5  1  0.39016300  0.07188500  0.11105500  1
  H  H6  1  0.69726000  0.29074600  0.48346200  1
  H  H7  1  0.19726000  0.70925400  0.01653800  1
  H  H8  1  0.30274000  0.70925400  0.51653800  1
  H  H9  1  0.80274000  0.29074600  0.98346200  1
  H  H10  1  0.83639100  0.29996600  0.36772300  1
  H  H11  1  0.33639100  0.70003400  0.13227700  1
  H  H12  1  0.16360900  0.70003400  0.63227700  1
  H  H13  1  0.66360900  0.29996600  0.86772300  1
  H  H14  1  0.10983700  0.07188500  0.61105500  1
  H  H15  1  0.60983700  0.92811500  0.88894500  1
  C  C0  1  0.65408600  0.24230200  0.68098100  1
  C  C1  1  0.84591400  0.24230200  0.18098100  1
  C  C2  1  0.34591400  0.75769800  0.31901900  1
  C  C3  1  0.15408600  0.75769800  0.81901900  1
  O  O0  1  0.17254600  0.20780700  0.55361300  1
  O  O1  1  0.58315000  0.16894700  0.60576400  1
  O  O2  1  0.72318900  0.38772300  0.90883700  1
  O  O3  1  0.93329400  0.18203200  0.28520400  1
  O  O4  1  0.27681100  0.61227700  0.09116300  1
  O  O5  1  0.77681100  0.38772300  0.40883700  1
  O  O6  1  0.67254600  0.79219300  0.94638700  1
  O  O7  1  0.08315000  0.83105300  0.89423600  1
  O  O8  1  0.32745400  0.20780700  0.05361300  1
  O  O9  1  0.82745400  0.79219300  0.44638700  1
  O  O10  1  0.81023100  0.37580800  0.65292300  1
  O  O11  1  0.31023100  0.62419200  0.84707700  1
  O  O12  1  0.18976900  0.62419200  0.34707700  1
  O  O13  1  0.68976900  0.37580800  0.15292300  1
  O  O14  1  0.06670600  0.81796800  0.71479600  1
  O  O15  1  0.43329400  0.81796800  0.21479600  1
  O  O16  1  0.91685000  0.16894700  0.10576400  1
  O  O17  1  0.56670600  0.18203200  0.78520400  1
  O  O18  1  0.41685000  0.83105300  0.39423600  1
  O  O19  1  0.22318900  0.61227700  0.59116300  1
loop_
_geom_bond_atom_site_label_1
_geom_bond_atom_site_label_2
_geom_bond_distance
_geom_bond_site_symmetry_2
K0 O14 2.731708 1_655
K0 O1 2.807660 1_565
K0 O10 2.828317 1_555
K0 O11 2.848360 1_555
K0 O2 2.856885 1_555
K0 O9 2.989394 1_555
K1 O17 2.731708 1_555
K1 O7 2.807660 1_545
K1 O11 2.828317 1_555
K1 O10 2.848360 1_455
K1 O19 2.856885 1_555
K1 O8 2.989394 1_556
K2 O3 2.731708 1_455
K2 O18 2.807660 1_545
K2 O12 2.828317 1_555
K2 O13 2.848360 1_555
K2 O4 2.856885 1_555
K2 O0 2.989394 1_555
K3 O15 2.731708 1_555
K3 O16 2.807660 1_565
K3 O13 2.828317 1_555
K3 O12 2.848360 1_655
K3 O5 2.856885 1_555
K3 O6 2.989394 1_554
Co0 O12 2.098009 1_555
Co0 O10 2.098009 1_455
Co0 O19 2.139295 1_555
Co0 O5 2.139295 1_455
Co0 O9 2.150893 1_455
Co0 O0 2.150893 1_555
Co1 O13 2.098009 1_555
Co1 O11 2.098009 1_554
Co1 O2 2.139295 1_554
Co1 O4 2.139295 1_555
Co1 O8 2.150893 1_555
Co1 O6 2.150893 1_554
H0 O9 1.007077 1_555
H0 O18 1.658649 1_555
H1 O8 1.007077 1_555
H1 O16 1.658649 1_455
H2 O0 1.007077 1_555
H2 O1 1.658649 1_555
H3 O6 1.007077 1_555
H3 O7 1.658649 1_655
H4 O9 0.998992 1_555
H4 O3 1.720030 1_565
H5 O8 0.998992 1_555
H5 O15 1.720030 1_545
H6 O5 1.021367 1_555
H6 O1 1.568912 1_555
H7 O4 1.021367 1_555
H7 O7 1.568912 1_554
H8 O19 1.021367 1_555
H8 O18 1.568912 1_555
H9 O2 1.021367 1_555
H9 O16 1.568912 1_556
H10 O5 1.011038 1_555
H10 O3 1.662029 1_555
H11 O4 1.011038 1_555
H11 O15 1.662029 1_555
H12 O19 1.011038 1_555
H12 O14 1.662029 1_555
H13 O2 1.011038 1_555
H13 O17 1.662029 1_555
H14 O0 0.998992 1_555
H14 O14 1.720030 1_545
H15 O6 0.998992 1_555
H15 O17 1.720030 1_565
C0 O10 1.298378 1_555
C0 O17 1.300187 1_555
C0 O1 1.306731 1_555
C1 O13 1.298378 1_555
C1 O3 1.300187 1_555
C1 O16 1.306731 1_555
C2 O12 1.298378 1_555
C2 O15 1.300187 1_555
C2 O18 1.306731 1_555
C3 O11 1.298378 1_555
C3 O14 1.300187 1_555
C3 O7 1.306731 1_555
