# generated using pymatgen
data_Na10Ca2Si7Sn6S5O48
_symmetry_space_group_name_H-M   'P 1'
_cell_length_a   18.15393829
_cell_length_b   9.11084505
_cell_length_c   22.97137623
_cell_angle_alpha   90.09324786
_cell_angle_beta   89.63640306
_cell_angle_gamma   120.05106102
_symmetry_Int_Tables_number   1
_chemical_formula_structural   Na10Ca2Si7Sn6S5O48
_chemical_formula_sum   'Na30 Ca6 Si21 Sn18 S15 O144'
_cell_volume   3288.62258650
_cell_formula_units_Z   3
loop_
 _symmetry_equiv_pos_site_id
 _symmetry_equiv_pos_as_xyz
  1  'x, y, z'
loop_
 _atom_site_type_symbol
 _atom_site_label
 _atom_site_symmetry_multiplicity
 _atom_site_fract_x
 _atom_site_fract_y
 _atom_site_fract_z
 _atom_site_occupancy
  Na  Na0  1  0.81731532  0.01106422  0.25056338  1
  Na  Na1  1  0.18854194  0.37954711  0.24854609  1
  Na  Na2  1  0.69071249  0.36230997  0.25709629  1
  Na  Na3  1  0.99125062  0.61183459  0.25663961  1
  Na  Na4  1  0.49546453  0.63645638  0.24526917  1
  Na  Na5  1  0.31807523  0.62377151  0.75085774  1
  Na  Na6  1  0.99565205  0.35375757  0.74715659  1
  Na  Na7  1  0.49123689  0.37321525  0.75631102  1
  Na  Na8  1  0.19273855  0.02181224  0.74974139  1
  Na  Na9  1  0.68880174  0.99668551  0.74945881  1
  Na  Na10  1  0.14857506  0.32857669  0.57956220  1
  Na  Na11  1  0.01655056  0.69074079  0.58288362  1
  Na  Na12  1  0.48846937  0.66551098  0.91757931  1
  Na  Na13  1  0.99287024  0.67588599  0.92106154  1
  Na  Na14  1  0.84807728  0.02760852  0.91319453  1
  Na  Na15  1  0.49381870  0.31209450  0.42088704  1
  Na  Na16  1  0.16429229  0.02444662  0.42015534  1
  Na  Na17  1  0.34771068  0.66629696  0.41305435  1
  Na  Na18  1  0.99515470  0.00366029  0.49937338  1
  Na  Na19  1  0.51268521  0.00720789  0.49464935  1
  Na  Na20  1  0.01126307  0.01737792  0.99462163  1
  Na  Na21  1  0.50395971  0.01305678  0.00024306  1
  Na  Na22  1  0.32844836  0.31661453  0.83099066  1
  Na  Na23  1  0.83088659  0.33098564  0.83530396  1
  Na  Na24  1  0.33608025  0.34162547  0.33379746  1
  Na  Na25  1  0.83264491  0.33906988  0.33233509  1
  Na  Na26  1  0.17642218  0.67212042  0.16628264  1
  Na  Na27  1  0.66044745  0.67115886  0.16207531  1
  Na  Na28  1  0.17077101  0.67949842  0.66367743  1
  Na  Na29  1  0.67465089  0.67967983  0.66648784  1
  Ca  Ca0  1  0.33095064  0.32732589  0.68537579  1
  Ca  Ca1  1  0.83773014  0.33058835  0.68242125  1
  Ca  Ca2  1  0.33991605  0.34606413  0.18131091  1
  Ca  Ca3  1  0.83182359  0.33025710  0.18543812  1
  Ca  Ca4  1  0.16532162  0.66961632  0.01723609  1
  Ca  Ca5  1  0.66441549  0.66140427  0.51668947  1
  Si  Si0  1  0.64243766  0.98993141  0.25197829  1
  Si  Si1  1  0.35075407  0.71290053  0.25324874  1
  Si  Si2  1  0.85358566  0.71645428  0.25238353  1
  Si  Si3  1  0.00515301  0.29422686  0.25224331  1
  Si  Si4  1  0.14350535  0.29822114  0.75200977  1
  Si  Si5  1  0.50540476  0.71695271  0.75334598  1
  Si  Si6  1  0.35397424  0.99176932  0.75275782  1
  Si  Si7  1  0.85218897  0.98782599  0.75218847  1
  Si  Si8  1  0.98130873  0.33573591  0.58078118  1
  Si  Si9  1  0.18281566  0.02843963  0.58546226  1
  Si  Si10  1  0.48618231  0.63266173  0.08105336  1
  Si  Si11  1  0.80957548  0.66579782  0.91752306  1
  Si  Si12  1  0.01972760  0.37291478  0.91806755  1
  Si  Si13  1  0.52043169  0.36903741  0.91427312  1
  Si  Si14  1  0.16768887  0.96914346  0.91575001  1
  Si  Si15  1  0.66496641  0.96400387  0.91658470  1
  Si  Si16  1  0.31145045  0.95484432  0.41591989  1
  Si  Si17  1  0.16460487  0.36898332  0.41788669  1
  Si  Si18  1  0.66739121  0.36550720  0.41535953  1
  Si  Si19  1  0.01714237  0.66567559  0.41315534  1
  Si  Si20  1  0.51855564  0.66544025  0.41834738  1
  Sn  Sn0  1  0.99699787  0.99870456  0.35476157  1
  Sn  Sn1  1  0.50158457  0.99124451  0.35476107  1
  Sn  Sn2  1  0.00085417  0.01090934  0.85511109  1
  Sn  Sn3  1  0.50088309  0.00540439  0.85445626  1
  Sn  Sn4  1  0.99956974  0.02029754  0.64684837  1
  Sn  Sn5  1  0.49735680  0.98994616  0.65065075  1
  Sn  Sn6  1  0.99615586  0.00655394  0.14969422  1
  Sn  Sn7  1  0.49458349  0.96507795  0.14671133  1
  Sn  Sn8  1  0.33679662  0.32241779  0.98124943  1
  Sn  Sn9  1  0.83090146  0.33724052  0.97918126  1
  Sn  Sn10  1  0.33011123  0.32381693  0.48087198  1
  Sn  Sn11  1  0.83536415  0.34145745  0.47818241  1
  Sn  Sn12  1  0.66000992  0.66038029  0.01167019  1
  Sn  Sn13  1  0.16271838  0.66879105  0.51211179  1
  Sn  Sn14  1  0.16809725  0.66182446  0.31836734  1
  Sn  Sn15  1  0.66653501  0.66425529  0.31936530  1
  Sn  Sn16  1  0.16689587  0.67061490  0.81947454  1
  Sn  Sn17  1  0.67010219  0.67723573  0.81833702  1
  S  S0  1  0.14357895  0.99473106  0.25005056  1
  S  S1  1  0.50155990  0.28571176  0.25058115  1
  S  S2  1  0.64366107  0.29321586  0.74985845  1
  S  S3  1  0.00085286  0.71324646  0.75105093  1
  S  S4  1  0.48252250  0.32113397  0.58571275  1
  S  S5  1  0.67981652  0.03934207  0.58508474  1
  S  S6  1  0.33662603  0.63784796  0.58155068  1
  S  S7  1  0.83524327  0.63294439  0.58513818  1
  S  S8  1  0.98105961  0.64202151  0.08558609  1
  S  S9  1  0.33900482  0.03734605  0.08582092  1
  S  S10  1  0.83429456  0.03242835  0.08119637  1
  S  S11  1  0.18003158  0.31988065  0.08540872  1
  S  S12  1  0.68243869  0.33367015  0.08327741  1
  S  S13  1  0.31616694  0.66336921  0.91627331  1
  S  S14  1  0.81586177  0.96883684  0.41650007  1
  O  O0  1  0.10659322  0.02283737  0.30442658  1
  O  O1  1  0.60031533  0.03660181  0.30584186  1
  O  O2  1  0.40950401  0.79874204  0.31031556  1
  O  O3  1  0.91778658  0.80255191  0.30700199  1
  O  O4  1  0.49188933  0.19234690  0.30549553  1
  O  O5  1  0.99003276  0.17153366  0.30763856  1
  O  O6  1  0.09713703  0.16141283  0.80357637  1
  O  O7  1  0.60571438  0.18624386  0.80256570  1
  O  O8  1  0.49207583  0.80585605  0.81131879  1
  O  O9  1  0.99161710  0.79203348  0.80465360  1
  O  O10  1  0.41773968  0.02792648  0.80686292  1
  O  O11  1  0.90965174  0.02010561  0.80999080  1
  O  O12  1  0.39370674  0.94959923  0.69331956  1
  O  O13  1  0.89618244  0.96214239  0.69273881  1
  O  O14  1  0.08858801  0.22628733  0.69027922  1
  O  O15  1  0.58962898  0.21468091  0.69663958  1
  O  O16  1  0.01141755  0.81362229  0.69697000  1
  O  O17  1  0.52977735  0.84468087  0.69547525  1
  O  O18  1  0.39171540  0.82480284  0.19350340  1
  O  O19  1  0.89380426  0.83931565  0.19341929  1
  O  O20  1  0.02998027  0.21885297  0.19354464  1
  O  O21  1  0.51337769  0.20302542  0.19821516  1
  O  O22  1  0.08802914  0.96604929  0.19785410  1
  O  O23  1  0.58380300  0.95203581  0.19285406  1
  O  O24  1  0.44103610  0.33566819  0.63811535  1
  O  O25  1  0.95537621  0.38479226  0.64160703  1
  O  O26  1  0.22966484  0.09849556  0.64554518  1
  O  O27  1  0.72357638  0.11774204  0.63972980  1
  O  O28  1  0.32632993  0.54117683  0.63479830  1
  O  O29  1  0.82414408  0.53236063  0.63712405  1
  O  O30  1  0.45416194  0.54718272  0.14376345  1
  O  O31  1  0.93865162  0.54541430  0.13791824  1
  O  O32  1  0.32727238  0.11743722  0.13711492  1
  O  O33  1  0.82543927  0.10709840  0.13525324  1
  O  O34  1  0.22355019  0.32889610  0.14013558  1
  O  O35  1  0.72903089  0.35402811  0.13713931  1
  O  O36  1  0.22418816  0.30045973  0.03321585  1
  O  O37  1  0.72538549  0.30283915  0.03146255  1
  O  O38  1  0.42182535  0.53351938  0.02407307  1
  O  O39  1  0.92926815  0.55936583  0.03114466  1
  O  O40  1  0.34915900  0.13796730  0.03090390  1
  O  O41  1  0.84510042  0.14067290  0.02857501  1
  O  O42  1  0.22591270  0.16159725  0.52815297  1
  O  O43  1  0.72283775  0.14600620  0.53280463  1
  O  O44  1  0.34831383  0.55539795  0.52830775  1
  O  O45  1  0.84819561  0.55198587  0.53125304  1
  O  O46  1  0.43120366  0.30011673  0.53119168  1
  O  O47  1  0.91581562  0.30717452  0.52660511  1
  O  O48  1  0.27717159  0.68742758  0.96732663  1
  O  O49  1  0.76991650  0.71341570  0.97383339  1
  O  O50  1  0.07490846  0.44898754  0.97383714  1
  O  O51  1  0.57900296  0.45000302  0.97112184  1
  O  O52  1  0.14456413  0.84705536  0.97006852  1
  O  O53  1  0.64275260  0.83389500  0.97019756  1
  O  O54  1  0.27238423  0.82705705  0.47168688  1
  O  O55  1  0.77682960  0.86750018  0.46766788  1
  O  O56  1  0.15270118  0.45420130  0.47664655  1
  O  O57  1  0.64484107  0.44269720  0.46968656  1
  O  O58  1  0.07776232  0.71093723  0.47062709  1
  O  O59  1  0.57392018  0.70134136  0.47407969  1
  O  O60  1  0.06033412  0.64068186  0.35383570  1
  O  O61  1  0.55560480  0.61953987  0.35749763  1
  O  O62  1  0.24662140  0.87951299  0.36051318  1
  O  O63  1  0.76788749  0.89218683  0.36082450  1
  O  O64  1  0.18745698  0.48809608  0.35970664  1
  O  O65  1  0.68545907  0.48071919  0.35385142  1
  O  O66  1  0.05629283  0.49216061  0.85740956  1
  O  O67  1  0.55996690  0.48916969  0.85538522  1
  O  O68  1  0.18601564  0.89119885  0.85409223  1
  O  O69  1  0.68940408  0.89612844  0.85718566  1
  O  O70  1  0.26771032  0.64237804  0.86081050  1
  O  O71  1  0.75090970  0.62484768  0.85972694  1
  O  O72  1  0.01299076  0.84293838  0.40984062  1
  O  O73  1  0.49549937  0.81643394  0.41127762  1
  O  O74  1  0.40737001  0.98585391  0.40857896  1
  O  O75  1  0.90297505  0.98971700  0.41211537  1
  O  O76  1  0.08437578  0.17509140  0.41142182  1
  O  O77  1  0.57821659  0.18198728  0.40732984  1
  O  O78  1  0.99666058  0.17583123  0.91142385  1
  O  O79  1  0.50750129  0.17881961  0.91066519  1
  O  O80  1  0.07873887  0.97547626  0.90704749  1
  O  O81  1  0.57842160  0.97573644  0.91126698  1
  O  O82  1  0.40431025  0.81390905  0.91131691  1
  O  O83  1  0.90584418  0.83034783  0.91028451  1
  O  O84  1  0.48805589  0.15890815  0.58739873  1
  O  O85  1  0.99184659  0.16509227  0.58159124  1
  O  O86  1  0.08454117  0.00621542  0.58840809  1
  O  O87  1  0.59190022  0.02779215  0.58576244  1
  O  O88  1  0.41485567  0.81109941  0.58366831  1
  O  O89  1  0.91924850  0.79945954  0.58784818  1
  O  O90  1  0.49243395  0.82343531  0.07858284  1
  O  O91  1  0.98725508  0.81552564  0.08708610  1
  O  O92  1  0.42234195  0.03601058  0.08815959  1
  O  O93  1  0.91540605  0.02271983  0.08234444  1
  O  O94  1  0.09245941  0.15518484  0.08535537  1
  O  O95  1  0.59533133  0.18111464  0.08610146  1
  O  O96  1  0.34425281  0.15704050  0.75061302  1
  O  O97  1  0.84102518  0.15550515  0.75036993  1
  O  O98  1  0.23871748  0.33021032  0.74992262  1
  O  O99  1  0.72799741  0.31001463  0.74391291  1
  O  O100  1  0.42157146  0.53434434  0.74817951  1
  O  O101  1  0.92790952  0.53917159  0.74867748  1
  O  O102  1  0.33983702  0.52337154  0.25179329  1
  O  O103  1  0.84137622  0.52961218  0.24774496  1
  O  O104  1  0.42856649  0.31440286  0.24754053  1
  O  O105  1  0.92116786  0.30970758  0.24759126  1
  O  O106  1  0.22769950  0.14695579  0.24366686  1
  O  O107  1  0.73718433  0.14956820  0.24791002  1
  O  O108  1  0.32625981  0.51046689  0.91939758  1
  O  O109  1  0.82562863  0.50453089  0.92594151  1
  O  O110  1  0.42847492  0.36533459  0.92074866  1
  O  O111  1  0.92312196  0.35899200  0.92310385  1
  O  O112  1  0.25234369  0.16287348  0.92323567  1
  O  O113  1  0.75230778  0.14665822  0.92599347  1
  O  O114  1  0.32025718  0.14248155  0.42468104  1
  O  O115  1  0.82396470  0.13946877  0.41908561  1
  O  O116  1  0.25184198  0.35380961  0.42301684  1
  O  O117  1  0.75098595  0.33829776  0.42211107  1
  O  O118  1  0.42251209  0.48498594  0.42393888  1
  O  O119  1  0.92422842  0.49680770  0.42028574  1
  O  O120  1  0.16937524  0.46780019  0.08107736  1
  O  O121  1  0.67749177  0.49009044  0.07452524  1
  O  O122  1  0.06597543  0.66291934  0.08199723  1
  O  O123  1  0.58233913  0.65305424  0.07468502  1
  O  O124  1  0.26744509  0.86374405  0.08082822  1
  O  O125  1  0.75954127  0.86077100  0.07517319  1
  O  O126  1  0.16938923  0.83816188  0.57401641  1
  O  O127  1  0.66952091  0.87022067  0.58113475  1
  O  O128  1  0.25814562  0.64983916  0.57602754  1
  O  O129  1  0.76444716  0.66491313  0.57980707  1
  O  O130  1  0.07966840  0.50038505  0.57187968  1
  O  O131  1  0.56790372  0.46860995  0.58189506  1
  O  O132  1  0.14765015  0.83599842  0.25330805  1
  O  O133  1  0.64662070  0.81165816  0.25871483  1
  O  O134  1  0.25524696  0.69237898  0.25575010  1
  O  O135  1  0.75945969  0.70541053  0.25754869  1
  O  O136  1  0.08985820  0.48628697  0.25602491  1
  O  O137  1  0.58241378  0.45848814  0.25249769  1
  O  O138  1  0.14672993  0.48376445  0.75919431  1
  O  O139  1  0.64699948  0.45883398  0.75450141  1
  O  O140  1  0.08202061  0.70405073  0.75286296  1
  O  O141  1  0.59052356  0.69407238  0.75591678  1
  O  O142  1  0.25958919  0.81508655  0.75732375  1
  O  O143  1  0.75641749  0.81760261  0.75404086  1
loop_
_geom_bond_atom_site_label_1
_geom_bond_atom_site_label_2
_geom_bond_distance
_geom_bond_site_symmetry_2
Na0 O107 2.356285 1_555
Na0 O105 2.413227 1_555
Na0 O135 2.440030 1_545
Na0 O133 2.700635 1_545
Na0 O63 2.720344 1_545
Na0 O33 2.770732 1_555
Na0 O19 2.871607 1_545
Na1 O102 2.379941 1_555
Na1 O136 2.434168 1_555
Na1 O134 2.482234 1_555
Na1 O106 2.552533 1_555
Na1 O34 2.662435 1_555
Na1 O64 2.740351 1_555
Na1 O20 2.800889 1_555
Na2 O103 2.380886 1_555
Na2 O107 2.479365 1_555
Na2 O65 2.491067 1_555
Na2 O137 2.524424 1_555
Na2 O135 2.724323 1_555
Na2 O1 2.804107 1_555
Na2 O35 2.847870 1_555
Na3 O105 2.394338 1_555
Na3 O103 2.443551 1_555
Na3 O60 2.516052 1_655
Na3 O132 2.535445 1_655
Na3 O136 2.561932 1_655
Na3 O31 2.857363 1_555
Na3 O3 2.903637 1_555
Na4 O133 2.407392 1_555
Na4 O30 2.462909 1_555
Na4 O102 2.479074 1_555
Na4 O104 2.552997 1_555
Na4 O23 2.767133 1_555
Na4 O137 2.777727 1_555
Na4 O61 2.840351 1_555
Na5 O98 2.317430 1_555
Na5 O100 2.393595 1_555
Na5 O142 2.457288 1_555
Na5 O138 2.712722 1_555
Na5 O70 2.714544 1_555
Na5 O28 2.792465 1_555
Na5 O12 2.889999 1_555
Na6 O138 2.399283 1_655
Na6 O97 2.463209 1_555
Na6 O101 2.539135 1_555
Na6 O25 2.593283 1_555
Na6 O140 2.765967 1_655
Na6 O14 2.798540 1_655
Na6 O66 2.801967 1_655
Na6 O11 2.998993 1_555
Na7 O100 2.377565 1_555
Na7 O96 2.399236 1_555
Na7 O139 2.528946 1_555
Na7 O141 2.552871 1_555
Na7 O67 2.561347 1_555
Na7 O24 2.834708 1_555
Na7 O10 2.968769 1_555
Na8 O96 2.385494 1_555
Na8 O26 2.486461 1_555
Na8 O98 2.498521 1_555
Na8 O140 2.568547 1_545
Na8 O68 2.652755 1_545
Na8 O142 2.709902 1_545
Na8 O6 2.887486 1_555
Na9 O97 2.393047 1_565
Na9 O141 2.424447 1_555
Na9 O143 2.487566 1_555
Na9 O99 2.576323 1_565
Na9 O69 2.642165 1_555
Na9 O27 2.694447 1_565
Na9 O17 2.797432 1_555
Na10 O130 2.451736 1_555
Na10 O85 2.463774 1_455
Na10 O86 2.568662 1_555
Na10 O128 2.588053 1_555
Na10 O56 2.612533 1_555
Na10 O14 2.734783 1_555
Na10 O42 2.791511 1_555
Na11 O126 2.409421 1_555
Na11 O89 2.421529 1_455
Na11 O86 2.499702 1_565
Na11 O130 2.523853 1_555
Na11 O58 2.771049 1_555
Na11 O25 2.777720 1_455
Na11 O16 2.867421 1_555
Na11 O45 2.918434 1_455
Na12 O110 2.384825 1_555
Na12 O81 2.460082 1_555
Na12 O82 2.501037 1_555
Na12 O108 2.549738 1_555
Na12 O53 2.718957 1_555
Na12 O38 2.721977 1_556
Na12 O8 2.742588 1_555
Na12 O67 2.892163 1_555
Na13 O80 2.391431 1_655
Na13 O111 2.505899 1_555
Na13 O83 2.602025 1_555
Na13 O109 2.629974 1_555
Na13 O52 2.648660 1_655
Na13 O39 2.756597 1_556
Na13 O66 2.857697 1_655
Na13 O9 2.881831 1_555
Na14 O78 2.334884 1_555
Na14 O113 2.483292 1_555
Na14 O83 2.494105 1_545
Na14 O111 2.627822 1_555
Na14 O11 2.630006 1_555
Na14 O69 2.823815 1_545
Na14 O49 2.840388 1_545
Na14 O41 2.852013 1_556
Na15 O77 2.379362 1_555
Na15 O118 2.490493 1_555
Na15 O74 2.590098 1_545
Na15 O57 2.637513 1_555
Na15 O114 2.728317 1_555
Na15 O46 2.750367 1_555
Na15 O61 2.840843 1_555
Na15 O4 2.858535 1_555
Na16 O72 2.406876 1_545
Na16 O76 2.455140 1_555
Na16 O114 2.477459 1_555
Na16 O116 2.599818 1_555
Na16 O58 2.732089 1_545
Na16 O42 2.755462 1_555
Na16 O62 2.792716 1_545
Na16 O0 2.860871 1_555
Na17 O73 2.322530 1_555
Na17 O116 2.494267 1_555
Na17 O74 2.549800 1_555
Na17 O118 2.624418 1_555
Na17 O2 2.627600 1_555
Na17 O54 2.793822 1_555
Na17 O64 2.812391 1_555
Na17 O44 2.837351 1_555
Na18 O85 2.410771 1_555
Na18 O76 2.565126 1_655
Na18 O75 2.581295 1_545
Na18 O86 2.611691 1_655
Na18 O89 2.626755 1_545
Na18 O72 2.633561 1_645
Na19 O77 2.461139 1_555
Na19 O73 2.497971 1_545
Na19 O87 2.500127 1_555
Na19 O84 2.691986 1_555
Na19 O74 2.697497 1_545
Na19 O88 2.704769 1_545
Na20 O80 2.475431 1_545
Na20 O78 2.491113 1_455
Na20 O94 2.504053 1_556
Na20 O83 2.662636 1_445
Na20 O93 2.670447 1_456
Na20 O91 2.698476 1_446
Na21 O90 2.431087 1_545
Na21 O79 2.535820 1_554
Na21 O95 2.544360 1_555
Na21 O81 2.558020 1_544
Na21 O92 2.566855 1_555
Na21 O82 2.735866 1_544
Na22 O96 2.451012 1_555
Na22 O98 2.525506 1_555
Na22 O112 2.528882 1_555
Na22 O110 2.642534 1_555
Na22 O100 2.650372 1_555
Na22 O108 2.702358 1_555
Na23 O111 2.559285 1_555
Na23 O97 2.583906 1_555
Na23 O113 2.601837 1_555
Na23 O109 2.642359 1_555
Na23 O101 2.698451 1_555
Na23 O99 2.761118 1_555
Na24 O102 2.488062 1_555
Na24 O118 2.536833 1_555
Na24 O116 2.584737 1_555
Na24 O104 2.679528 1_555
Na24 O114 2.686217 1_555
Na24 O106 2.801475 1_555
Na25 O117 2.530108 1_555
Na25 O103 2.558543 1_555
Na25 O119 2.559591 1_555
Na25 O107 2.603907 1_555
Na25 O105 2.613979 1_555
Na25 O115 2.650259 1_555
Na26 O134 2.465186 1_555
Na26 O124 2.590858 1_555
Na26 O136 2.625147 1_555
Na26 O120 2.658086 1_555
Na26 O132 2.693799 1_555
Na26 O122 2.767004 1_555
Na27 O123 2.422522 1_555
Na27 O133 2.633478 1_555
Na27 O125 2.656828 1_555
Na27 O137 2.702269 1_555
Na27 O121 2.711909 1_555
Na27 O135 2.761196 1_555
Na28 O126 2.525675 1_555
Na28 O142 2.606514 1_555
Na28 O128 2.651404 1_555
Na28 O140 2.675951 1_555
Na28 O130 2.678618 1_555
Na28 O138 2.721403 1_555
Na29 O143 2.447228 1_555
Na29 O141 2.594169 1_555
Na29 O129 2.611107 1_555
Na29 O127 2.653658 1_555
Na29 O139 2.716048 1_555
Na29 O131 2.744589 1_555
Ca0 O26 2.177250 1_555
Ca0 O24 2.235828 1_555
Ca0 O98 2.239466 1_555
Ca0 O96 2.257976 1_555
Ca0 O100 2.293206 1_555
Ca0 O28 2.307663 1_555
Ca1 O25 2.145699 1_555
Ca1 O29 2.233057 1_555
Ca1 O27 2.238652 1_555
Ca1 O97 2.255945 1_555
Ca1 O101 2.348255 1_555
Ca1 O99 2.364315 1_555
Ca2 O30 2.139917 1_555
Ca2 O32 2.222488 1_555
Ca2 O34 2.252931 1_555
Ca2 O102 2.285777 1_555
Ca2 O104 2.342072 1_555
Ca2 O106 2.400584 1_555
Ca3 O107 2.205664 1_555
Ca3 O31 2.228876 1_555
Ca3 O105 2.244688 1_555
Ca3 O103 2.248725 1_555
Ca3 O35 2.278597 1_555
Ca3 O33 2.287844 1_555
Ca4 O50 2.106733 1_554
Ca4 O52 2.133180 1_554
Ca4 O48 2.259385 1_554
Ca4 O122 2.307719 1_555
Ca4 O124 2.332620 1_555
Ca4 O120 2.383829 1_555
Ca5 O59 2.099918 1_555
Ca5 O57 2.133366 1_555
Ca5 O55 2.257969 1_555
Ca5 O131 2.300361 1_555
Ca5 O129 2.318640 1_555
Ca5 O127 2.373946 1_555
O0 S0 1.495710 1_545
O0 Sn0 2.208450 1_445
O1 Si0 1.615066 1_545
O1 Sn1 1.969827 1_545
O2 Si1 1.626848 1_555
O2 Sn1 1.998063 1_555
O3 Si2 1.627140 1_555
O3 Sn0 1.976123 1_555
O4 S1 1.482158 1_555
O4 Sn1 2.236286 1_545
O5 Si3 1.623904 1_655
O5 Sn0 1.968215 1_545
O6 Si4 1.614520 1_555
O6 Sn2 1.978744 1_555
O7 S2 1.487004 1_555
O7 Sn3 2.143467 1_555
O8 Si5 1.636089 1_555
O8 Sn3 2.004454 1_565
O9 S3 1.474646 1_655
O9 Sn2 2.237906 1_665
O10 Si6 1.621193 1_545
O10 Sn3 1.961498 1_555
O11 Si7 1.626899 1_545
O11 Sn2 1.995893 1_655
O12 Si6 1.671974 1_555
O12 Sn5 1.980274 1_555
O13 Si7 1.652232 1_555
O13 Sn4 1.973682 1_565
O14 Si4 1.671768 1_555
O14 Sn4 2.026294 1_455
O15 S2 1.509336 1_555
O15 Sn5 2.166720 1_545
O16 S3 1.497151 1_555
O16 Sn4 2.309407 1_465
O17 Si5 1.673051 1_555
O17 Sn5 1.987600 1_555
O18 Si1 1.645679 1_555
O18 Sn7 1.965902 1_555
O19 Si2 1.671693 1_555
O19 Sn6 1.982108 1_565
O20 Si3 1.670971 1_555
O20 Sn6 1.986179 1_455
O21 S1 1.488695 1_555
O21 Sn7 2.339218 1_545
O22 S0 1.507750 1_555
O22 Sn6 2.187015 1_465
O23 Si0 1.656989 1_555
O23 Sn7 1.993985 1_555
O24 S4 1.456590 1_555
O25 Si8 1.604389 1_555
O26 Si9 1.582402 1_555
O27 S5 1.469160 1_555
O28 S6 1.463742 1_555
O29 S7 1.456726 1_555
O30 Si10 1.599744 1_555
O31 S8 1.457938 1_555
O32 S9 1.454605 1_555
O33 S10 1.461123 1_555
O34 S11 1.469220 1_555
O35 S12 1.461544 1_555
O36 S11 1.496839 1_555
O36 Sn8 2.281304 1_554
O37 S12 1.519853 1_555
O37 Sn9 2.140223 1_554
O38 Si10 1.689015 1_555
O38 Sn8 2.022190 1_554
O39 S8 1.522440 1_555
O39 Sn9 2.260311 1_554
O40 S9 1.515716 1_555
O40 Sn8 2.136049 1_554
O41 S10 1.509749 1_555
O41 Sn9 2.243623 1_554
O42 Si9 1.690715 1_555
O42 Sn10 2.030100 1_555
O43 S5 1.492775 1_555
O43 Sn11 2.291258 1_555
O44 S6 1.502843 1_555
O44 Sn10 2.246561 1_555
O45 S7 1.516103 1_555
O45 Sn11 2.183588 1_555
O46 S4 1.519389 1_555
O46 Sn10 2.274959 1_555
O47 Si8 1.654682 1_555
O47 Sn11 1.986601 1_555
O48 S13 1.438266 1_555
O49 Si11 1.636754 1_555
O49 Sn12 1.995914 1_556
O50 Si12 1.563051 1_555
O51 Si13 1.615250 1_555
O51 Sn12 1.972957 1_556
O52 Si14 1.581337 1_555
O53 Si15 1.613760 1_555
O53 Sn12 2.002402 1_556
O54 Si16 1.632753 1_555
O54 Sn13 2.002703 1_555
O55 S14 1.440071 1_555
O56 Si17 1.622461 1_555
O56 Sn13 2.039555 1_555
O57 Si18 1.580694 1_555
O58 Si19 1.638972 1_555
O58 Sn13 2.011767 1_555
O59 Si20 1.562666 1_555
O60 Si19 1.639435 1_555
O60 Sn14 2.032486 1_555
O61 Si20 1.687892 1_555
O61 Sn15 2.036129 1_555
O62 Si16 1.638068 1_555
O62 Sn14 2.020553 1_555
O63 S14 1.511284 1_555
O63 Sn15 2.189492 1_555
O64 Si17 1.637911 1_555
O64 Sn14 2.024073 1_555
O65 Si18 1.691120 1_555
O65 Sn15 2.030976 1_555
O66 Si12 1.683277 1_555
O66 Sn16 2.036473 1_555
O67 Si13 1.657919 1_555
O67 Sn17 2.051767 1_555
O68 Si14 1.687737 1_555
O68 Sn16 2.022727 1_555
O69 Si15 1.644804 1_555
O69 Sn17 2.048092 1_555
O70 S13 1.509492 1_555
O70 Sn16 2.193578 1_555
O71 Si11 1.629263 1_555
O71 Sn17 2.001066 1_555
O72 Si19 1.655938 1_555
O72 Sn0 2.030350 1_455
O73 Si20 1.634733 1_555
O73 Sn1 2.015686 1_555
O74 Si16 1.626084 1_555
O74 Sn1 2.084552 1_555
O75 S14 1.498013 1_555
O75 Sn0 2.118438 1_555
O76 Si17 1.639815 1_555
O76 Sn0 2.063764 1_445
O77 Si18 1.655972 1_555
O77 Sn1 2.001697 1_545
O78 Si12 1.633909 1_655
O78 Sn2 2.010940 1_655
O79 Si13 1.630263 1_555
O79 Sn3 1.995772 1_555
O80 Si14 1.657798 1_555
O80 Sn2 2.001638 1_565
O81 Si15 1.632629 1_555
O81 Sn3 2.040366 1_565
O82 S13 1.501568 1_555
O82 Sn3 2.176814 1_565
O83 Si11 1.643938 1_555
O83 Sn2 2.103514 1_665
O84 S4 1.531356 1_555
O84 Sn5 2.186345 1_545
O85 Si8 1.658939 1_555
O85 Sn4 2.049742 1_555
O86 Si9 1.692689 1_555
O86 Sn4 2.090341 1_455
O87 S5 1.545995 1_555
O87 Sn5 2.159396 1_545
O88 S6 1.505421 1_555
O88 Sn5 2.200604 1_555
O89 S7 1.521471 1_555
O89 Sn4 2.255916 1_565
O90 Si10 1.685169 1_555
O90 Sn7 2.014914 1_555
O91 S8 1.527898 1_555
O91 Sn6 2.199261 1_565
O92 S9 1.520316 1_555
O92 Sn7 2.195616 1_545
O93 S10 1.519112 1_555
O93 Sn6 2.193165 1_555
O94 S11 1.545898 1_555
O94 Sn6 2.162684 1_455
O95 S12 1.494783 1_555
O95 Sn7 2.351350 1_545
O96 Si6 1.602307 1_545
O97 Si7 1.639234 1_545
O98 Si4 1.602910 1_555
O99 S2 1.465905 1_555
O100 Si5 1.601236 1_555
O101 S3 1.472766 1_655
O102 Si1 1.636848 1_555
O103 Si2 1.606265 1_555
O104 S1 1.475568 1_555
O105 Si3 1.604181 1_655
O106 S0 1.467540 1_545
O107 Si0 1.604826 1_545
O108 S13 1.495158 1_555
O108 Sn8 2.308740 1_555
O109 Si11 1.646692 1_555
O109 Sn9 1.995394 1_555
O110 Si13 1.658477 1_555
O110 Sn8 2.043283 1_555
O111 Si12 1.697015 1_655
O111 Sn9 2.035355 1_555
O112 Si14 1.671044 1_545
O112 Sn8 2.006753 1_555
O113 Si15 1.640313 1_545
O113 Sn9 2.019268 1_555
O114 Si16 1.647459 1_545
O114 Sn10 2.031651 1_555
O115 S14 1.487523 1_545
O115 Sn11 2.210519 1_555
O116 Si17 1.662166 1_555
O116 Sn10 2.067343 1_555
O117 Si18 1.663863 1_555
O117 Sn11 1.996753 1_555
O118 Si20 1.698941 1_555
O118 Sn10 2.047404 1_555
O119 Si19 1.623955 1_655
O119 Sn11 2.016597 1_555
O120 S11 1.457855 1_555
O121 S12 1.486203 1_555
O121 Sn12 2.258059 1_555
O122 S8 1.457368 1_455
O123 Si10 1.665878 1_555
O123 Sn12 1.992023 1_555
O124 S9 1.464872 1_565
O125 S10 1.477403 1_565
O125 Sn12 2.333857 1_555
O126 Si9 1.646210 1_565
O126 Sn13 2.055704 1_555
O127 S5 1.458998 1_565
O128 S6 1.488662 1_555
O128 Sn13 2.349331 1_555
O129 S7 1.458997 1_555
O130 Si8 1.671573 1_455
O130 Sn13 2.043524 1_555
O131 S4 1.458890 1_555
O132 S0 1.486605 1_555
O132 Sn14 2.343969 1_555
O133 Si0 1.671018 1_555
O133 Sn15 2.091429 1_555
O134 Si1 1.648795 1_555
O134 Sn14 2.044723 1_555
O135 Si2 1.664128 1_555
O135 Sn15 2.083421 1_555
O136 Si3 1.655400 1_555
O136 Sn14 2.090291 1_555
O137 S1 1.523423 1_555
O137 Sn15 2.314983 1_555
O138 Si4 1.669854 1_555
O138 Sn16 2.079447 1_555
O139 S2 1.483192 1_555
O139 Sn17 2.334113 1_555
O140 S3 1.518035 1_555
O140 Sn16 2.304313 1_555
O141 Si5 1.660882 1_555
O141 Sn17 2.101322 1_555
O142 Si6 1.665527 1_555
O142 Sn16 2.088002 1_555
O143 Si7 1.651841 1_555
O143 Sn17 2.059625 1_555
