# generated using pymatgen
data_Ba2SmCu3O7
_symmetry_space_group_name_H-M   'P 1'
_cell_length_a   3.87767800
_cell_length_b   3.93909400
_cell_length_c   11.85357600
_cell_angle_alpha   90.00000000
_cell_angle_beta   90.00000000
_cell_angle_gamma   90.00000000
_symmetry_Int_Tables_number   1
_chemical_formula_structural   Ba2SmCu3O7
_chemical_formula_sum   'Ba2 Sm1 Cu3 O7'
_cell_volume   181.05789875
_cell_formula_units_Z   1
loop_
 _symmetry_equiv_pos_site_id
 _symmetry_equiv_pos_as_xyz
  1  'x, y, z'
loop_
 _atom_site_type_symbol
 _atom_site_label
 _atom_site_symmetry_multiplicity
 _atom_site_fract_x
 _atom_site_fract_y
 _atom_site_fract_z
 _atom_site_occupancy
  Ba  Ba0  1  0.50000000  0.50000000  0.82012300  1
  Ba  Ba1  1  0.50000000  0.50000000  0.17987700  1
  Sm  Sm0  1  0.50000000  0.50000000  0.50000000  1
  Cu  Cu0  1  0.00000000  0.00000000  0.65060000  1
  Cu  Cu1  1  0.00000000  0.00000000  0.34940000  1
  Cu  Cu2  1  0.00000000  0.00000000  0.00000000  1
  O  O0  1  0.00000000  0.00000000  0.84139900  1
  O  O1  1  0.00000000  0.00000000  0.15860100  1
  O  O2  1  0.00000000  0.50000000  0.62557200  1
  O  O3  1  0.00000000  0.50000000  0.37442800  1
  O  O4  1  0.50000000  0.00000000  0.62538900  1
  O  O5  1  0.50000000  0.00000000  0.37461100  1
  O  O6  1  0.00000000  0.50000000  0.00000000  1
loop_
_geom_bond_atom_site_label_1
_geom_bond_atom_site_label_2
_geom_bond_distance
_geom_bond_site_symmetry_2
Ba0 O0 2.775214 1_555
Ba0 O0 2.775214 1_565
Ba0 O0 2.775214 1_665
Ba0 O0 2.775214 1_655
Ba0 O6 2.881894 1_656
Ba0 O6 2.881894 1_556
Ba0 O2 3.012857 1_555
Ba0 O2 3.012857 1_655
Ba0 O4 3.034360 1_565
Ba0 O4 3.034360 1_555
Ba1 O1 2.775214 1_565
Ba1 O1 2.775214 1_665
Ba1 O1 2.775214 1_655
Ba1 O1 2.775214 1_555
Ba1 O6 2.881894 1_555
Ba1 O6 2.881894 1_655
Ba1 O3 3.012857 1_555
Ba1 O3 3.012857 1_655
Ba1 O5 3.034360 1_555
Ba1 O5 3.034360 1_565
Cu0 O4 1.961735 1_455
Cu0 O4 1.961735 1_555
Cu0 O2 1.991765 1_555
Cu0 O2 1.991765 1_545
Cu0 O0 2.261650 1_555
Cu1 O5 1.961735 1_455
Cu1 O5 1.961735 1_555
Cu1 O3 1.991765 1_545
Cu1 O3 1.991765 1_555
Cu1 O1 2.261650 1_555
Cu2 O0 1.879989 1_554
Cu2 O1 1.879989 1_555
Cu2 O6 1.969547 1_545
Cu2 O6 1.969547 1_555
O2 Sm0 2.444312 1_455
O2 Sm0 2.444312 1_555
O3 Sm0 2.444312 1_455
O3 Sm0 2.444312 1_555
O4 Sm0 2.467433 1_545
O4 Sm0 2.467433 1_555
O5 Sm0 2.467433 1_555
O5 Sm0 2.467433 1_545
