# generated using pymatgen
data_MgTe4Mo4(SeS)2
_symmetry_space_group_name_H-M   'P 1'
_cell_length_a   6.78114200
_cell_length_b   6.78111279
_cell_length_c   77.29471800
_cell_angle_alpha   90.00037261
_cell_angle_beta   89.99992914
_cell_angle_gamma   120.00040453
_symmetry_Int_Tables_number   1
_chemical_formula_structural   MgTe4Mo4(SeS)2
_chemical_formula_sum   'Mg8 Te32 Mo32 Se16 S16'
_cell_volume   3078.09829960
_cell_formula_units_Z   8
loop_
 _symmetry_equiv_pos_site_id
 _symmetry_equiv_pos_as_xyz
  1  'x, y, z'
loop_
 _atom_site_type_symbol
 _atom_site_label
 _atom_site_symmetry_multiplicity
 _atom_site_fract_x
 _atom_site_fract_y
 _atom_site_fract_z
 _atom_site_occupancy
  Mg  Mg0_0  1  0.16898700  0.34262500  0.44088600  1
  Mg  Mg0_1  1  0.16898700  0.34262500  0.94088600  1
  Mg  Mg0_2  1  0.16898700  0.84262500  0.44088600  1
  Mg  Mg0_3  1  0.16898700  0.84262500  0.94088600  1
  Mg  Mg0_4  1  0.66898700  0.34262500  0.44088600  1
  Mg  Mg0_5  1  0.66898700  0.34262500  0.94088600  1
  Mg  Mg0_6  1  0.66898700  0.84262500  0.44088600  1
  Mg  Mg0_7  1  0.66898700  0.84262500  0.94088600  1
  Te  Te0_0  1  0.16667900  0.33335750  0.16518850  1
  Te  Te0_1  1  0.16667900  0.33335750  0.66518850  1
  Te  Te0_2  1  0.16667900  0.83335750  0.16518850  1
  Te  Te0_3  1  0.16667900  0.83335750  0.66518850  1
  Te  Te0_4  1  0.66667900  0.33335750  0.16518850  1
  Te  Te0_5  1  0.66667900  0.33335750  0.66518850  1
  Te  Te0_6  1  0.66667900  0.83335750  0.16518850  1
  Te  Te0_7  1  0.66667900  0.83335750  0.66518850  1
  Te  Te1_0  1  0.16668200  0.33336350  0.35300100  1
  Te  Te1_1  1  0.16668200  0.33336350  0.85300100  1
  Te  Te1_2  1  0.16668200  0.83336350  0.35300100  1
  Te  Te1_3  1  0.16668200  0.83336350  0.85300100  1
  Te  Te1_4  1  0.66668200  0.33336350  0.35300100  1
  Te  Te1_5  1  0.66668200  0.33336350  0.85300100  1
  Te  Te1_6  1  0.66668200  0.83336350  0.35300100  1
  Te  Te1_7  1  0.66668200  0.83336350  0.85300100  1
  Te  Te2_0  1  0.16667900  0.33335700  0.11665700  1
  Te  Te2_1  1  0.16667900  0.33335700  0.61665700  1
  Te  Te2_2  1  0.16667900  0.83335700  0.11665700  1
  Te  Te2_3  1  0.16667900  0.83335700  0.61665700  1
  Te  Te2_4  1  0.66667900  0.33335700  0.11665700  1
  Te  Te2_5  1  0.66667900  0.33335700  0.61665700  1
  Te  Te2_6  1  0.66667900  0.83335700  0.11665700  1
  Te  Te2_7  1  0.66667900  0.83335700  0.61665700  1
  Te  Te3_0  1  0.16668150  0.33336100  0.30450950  1
  Te  Te3_1  1  0.16668150  0.33336100  0.80450950  1
  Te  Te3_2  1  0.16668150  0.83336100  0.30450950  1
  Te  Te3_3  1  0.16668150  0.83336100  0.80450950  1
  Te  Te3_4  1  0.66668150  0.33336100  0.30450950  1
  Te  Te3_5  1  0.66668150  0.33336100  0.80450950  1
  Te  Te3_6  1  0.66668150  0.83336100  0.30450950  1
  Te  Te3_7  1  0.66668150  0.83336100  0.80450950  1
  Mo  Mo0_0  1  0.16665200  0.33330300  0.04692000  1
  Mo  Mo0_1  1  0.16665200  0.33330300  0.54692000  1
  Mo  Mo0_2  1  0.16665200  0.83330300  0.04692000  1
  Mo  Mo0_3  1  0.16665200  0.83330300  0.54692000  1
  Mo  Mo0_4  1  0.66665200  0.33330300  0.04692000  1
  Mo  Mo0_5  1  0.66665200  0.33330300  0.54692000  1
  Mo  Mo0_6  1  0.66665200  0.83330300  0.04692000  1
  Mo  Mo0_7  1  0.66665200  0.83330300  0.54692000  1
  Mo  Mo1_0  1  0.16665550  0.33331000  0.23482750  1
  Mo  Mo1_1  1  0.16665550  0.33331000  0.73482750  1
  Mo  Mo1_2  1  0.16665550  0.83331000  0.23482750  1
  Mo  Mo1_3  1  0.16665550  0.83331000  0.73482750  1
  Mo  Mo1_4  1  0.66665550  0.33331000  0.23482750  1
  Mo  Mo1_5  1  0.66665550  0.33331000  0.73482750  1
  Mo  Mo1_6  1  0.66665550  0.83331000  0.23482750  1
  Mo  Mo1_7  1  0.66665550  0.83331000  0.73482750  1
  Mo  Mo2_0  1  0.33334650  0.16669200  0.14089350  1
  Mo  Mo2_1  1  0.33334650  0.16669200  0.64089350  1
  Mo  Mo2_2  1  0.33334650  0.66669200  0.14089350  1
  Mo  Mo2_3  1  0.33334650  0.66669200  0.64089350  1
  Mo  Mo2_4  1  0.83334650  0.16669200  0.14089350  1
  Mo  Mo2_5  1  0.83334650  0.16669200  0.64089350  1
  Mo  Mo2_6  1  0.83334650  0.66669200  0.14089350  1
  Mo  Mo2_7  1  0.83334650  0.66669200  0.64089350  1
  Mo  Mo3_0  1  0.33334550  0.16668950  0.32878200  1
  Mo  Mo3_1  1  0.33334550  0.16668950  0.82878200  1
  Mo  Mo3_2  1  0.33334550  0.66668950  0.32878200  1
  Mo  Mo3_3  1  0.33334550  0.66668950  0.82878200  1
  Mo  Mo3_4  1  0.83334550  0.16668950  0.32878200  1
  Mo  Mo3_5  1  0.83334550  0.16668950  0.82878200  1
  Mo  Mo3_6  1  0.83334550  0.66668950  0.32878200  1
  Mo  Mo3_7  1  0.83334550  0.66668950  0.82878200  1
  Se  Se0_0  1  0.33331900  0.16663650  0.02559950  1
  Se  Se0_1  1  0.33331900  0.16663650  0.52559950  1
  Se  Se0_2  1  0.33331900  0.66663650  0.02559950  1
  Se  Se0_3  1  0.33331900  0.66663650  0.52559950  1
  Se  Se0_4  1  0.83331900  0.16663650  0.02559950  1
  Se  Se0_5  1  0.83331900  0.16663650  0.52559950  1
  Se  Se0_6  1  0.83331900  0.66663650  0.02559950  1
  Se  Se0_7  1  0.83331900  0.66663650  0.52559950  1
  Se  Se1_0  1  0.33332200  0.16664300  0.06831350  1
  Se  Se1_1  1  0.33332200  0.16664300  0.56831350  1
  Se  Se1_2  1  0.33332200  0.66664300  0.06831350  1
  Se  Se1_3  1  0.33332200  0.66664300  0.56831350  1
  Se  Se1_4  1  0.83332200  0.16664300  0.06831350  1
  Se  Se1_5  1  0.83332200  0.16664300  0.56831350  1
  Se  Se1_6  1  0.83332200  0.66664300  0.06831350  1
  Se  Se1_7  1  0.83332200  0.66664300  0.56831350  1
  S  S0_0  1  0.33332300  0.16664400  0.21539800  1
  S  S0_1  1  0.33332300  0.16664400  0.71539800  1
  S  S0_2  1  0.33332300  0.66664400  0.21539800  1
  S  S0_3  1  0.33332300  0.66664400  0.71539800  1
  S  S0_4  1  0.83332300  0.16664400  0.21539800  1
  S  S0_5  1  0.83332300  0.16664400  0.71539800  1
  S  S0_6  1  0.83332300  0.66664400  0.21539800  1
  S  S0_7  1  0.83332300  0.66664400  0.71539800  1
  S  S1_0  1  0.33332050  0.16664150  0.25428250  1
  S  S1_1  1  0.33332050  0.16664150  0.75428250  1
  S  S1_2  1  0.33332050  0.66664150  0.25428250  1
  S  S1_3  1  0.33332050  0.66664150  0.75428250  1
  S  S1_4  1  0.83332050  0.16664150  0.25428250  1
  S  S1_5  1  0.83332050  0.16664150  0.75428250  1
  S  S1_6  1  0.83332050  0.66664150  0.25428250  1
  S  S1_7  1  0.83332050  0.66664150  0.75428250  1
loop_
_geom_bond_atom_site_label_1
_geom_bond_atom_site_label_2
_geom_bond_distance
_geom_bond_site_symmetry_2
Mg0_0 Mg0_6 3.390543 1_445
Mg0_0 Mg0_6 3.390543 1_555
Mg0_0 Mg0_2 3.390556 1_545
Mg0_0 Mg0_2 3.390556 1_555
Mg0_0 Mg0_4 3.390571 1_455
Mg0_0 Mg0_4 3.390571 1_555
Mg0_1 Mg0_7 3.390543 1_445
Mg0_1 Mg0_7 3.390543 1_555
Mg0_1 Mg0_3 3.390556 1_545
Mg0_1 Mg0_3 3.390556 1_555
Mg0_1 Mg0_5 3.390571 1_455
Mg0_1 Mg0_5 3.390571 1_555
Mg0_2 Mg0_4 3.390543 1_565
Mg0_2 Mg0_4 3.390543 1_455
Mg0_2 Mg0_6 3.390571 1_555
Mg0_2 Mg0_6 3.390571 1_455
Mg0_3 Mg0_5 3.390543 1_565
Mg0_3 Mg0_5 3.390543 1_455
Mg0_3 Mg0_7 3.390571 1_555
Mg0_3 Mg0_7 3.390571 1_455
Mg0_4 Mg0_6 3.390556 1_545
Mg0_4 Mg0_6 3.390556 1_555
Mg0_5 Mg0_7 3.390556 1_545
Mg0_5 Mg0_7 3.390556 1_555
Mo0_0 Se0_4 2.558850 1_455
Mo0_0 Se0_0 2.558856 1_555
Mo0_0 Se0_2 2.558858 1_555
Mo0_0 Se1_4 2.562480 1_455
Mo0_0 Se1_0 2.562489 1_555
Mo0_0 Se1_2 2.562507 1_555
Mo0_1 Se0_5 2.558850 1_455
Mo0_1 Se0_1 2.558856 1_555
Mo0_1 Se0_3 2.558858 1_555
Mo0_1 Se1_5 2.562480 1_455
Mo0_1 Se1_1 2.562489 1_555
Mo0_1 Se1_3 2.562507 1_555
Mo0_2 Se0_6 2.558850 1_455
Mo0_2 Se0_2 2.558856 1_555
Mo0_2 Se0_0 2.558858 1_565
Mo0_2 Se1_6 2.562480 1_455
Mo0_2 Se1_2 2.562489 1_555
Mo0_2 Se1_0 2.562507 1_565
Mo0_3 Se0_7 2.558850 1_455
Mo0_3 Se0_3 2.558856 1_555
Mo0_3 Se0_1 2.558858 1_565
Mo0_3 Se1_7 2.562480 1_455
Mo0_3 Se1_3 2.562489 1_555
Mo0_3 Se1_1 2.562507 1_565
Mo0_4 Se0_0 2.558850 1_555
Mo0_4 Se0_4 2.558856 1_555
Mo0_4 Se0_6 2.558858 1_555
Mo0_4 Se1_0 2.562480 1_555
Mo0_4 Se1_4 2.562489 1_555
Mo0_4 Se1_6 2.562507 1_555
Mo0_5 Se0_1 2.558850 1_555
Mo0_5 Se0_5 2.558856 1_555
Mo0_5 Se0_7 2.558858 1_555
Mo0_5 Se1_1 2.562480 1_555
Mo0_5 Se1_5 2.562489 1_555
Mo0_5 Se1_7 2.562507 1_555
Mo0_6 Se0_2 2.558850 1_555
Mo0_6 Se0_6 2.558856 1_555
Mo0_6 Se0_4 2.558858 1_565
Mo0_6 Se1_2 2.562480 1_555
Mo0_6 Se1_6 2.562489 1_555
Mo0_6 Se1_4 2.562507 1_565
Mo0_7 Se0_3 2.558850 1_555
Mo0_7 Se0_7 2.558856 1_555
Mo0_7 Se0_5 2.558858 1_565
Mo0_7 Se1_3 2.562480 1_555
Mo0_7 Se1_7 2.562489 1_555
Mo0_7 Se1_5 2.562507 1_565
Mo1_0 S0_4 2.467250 1_455
Mo1_0 S0_0 2.467258 1_555
Mo1_0 S0_2 2.467261 1_555
Mo1_0 S1_2 2.468434 1_555
Mo1_0 S1_4 2.468467 1_455
Mo1_0 S1_0 2.468469 1_555
Mo1_1 S0_5 2.467250 1_455
Mo1_1 S0_1 2.467258 1_555
Mo1_1 S0_3 2.467261 1_555
Mo1_1 S1_3 2.468434 1_555
Mo1_1 S1_5 2.468467 1_455
Mo1_1 S1_1 2.468469 1_555
Mo1_2 S0_6 2.467250 1_455
Mo1_2 S0_2 2.467258 1_555
Mo1_2 S0_0 2.467261 1_565
Mo1_2 S1_0 2.468434 1_565
Mo1_2 S1_6 2.468467 1_455
Mo1_2 S1_2 2.468469 1_555
Mo1_3 S0_7 2.467250 1_455
Mo1_3 S0_3 2.467258 1_555
Mo1_3 S0_1 2.467261 1_565
Mo1_3 S1_1 2.468434 1_565
Mo1_3 S1_7 2.468467 1_455
Mo1_3 S1_3 2.468469 1_555
Mo1_4 S0_0 2.467250 1_555
Mo1_4 S0_4 2.467258 1_555
Mo1_4 S0_6 2.467261 1_555
Mo1_4 S1_6 2.468434 1_555
Mo1_4 S1_0 2.468467 1_555
Mo1_4 S1_4 2.468469 1_555
Mo1_5 S0_1 2.467250 1_555
Mo1_5 S0_5 2.467258 1_555
Mo1_5 S0_7 2.467261 1_555
Mo1_5 S1_7 2.468434 1_555
Mo1_5 S1_1 2.468467 1_555
Mo1_5 S1_5 2.468469 1_555
Mo1_6 S0_2 2.467250 1_555
Mo1_6 S0_6 2.467258 1_555
Mo1_6 S0_4 2.467261 1_565
Mo1_6 S1_4 2.468434 1_565
Mo1_6 S1_2 2.468467 1_555
Mo1_6 S1_6 2.468469 1_555
Mo1_7 S0_3 2.467250 1_555
Mo1_7 S0_7 2.467258 1_555
Mo1_7 S0_5 2.467261 1_565
Mo1_7 S1_5 2.468434 1_565
Mo1_7 S1_3 2.468467 1_555
Mo1_7 S1_7 2.468469 1_555
Mo2_0 Te2_2 2.709496 1_545
Mo2_0 Te2_4 2.709504 1_555
Mo2_0 Te2_0 2.709512 1_555
Mo2_0 Te0_4 2.712626 1_555
Mo2_0 Te0_0 2.712631 1_555
Mo2_0 Te0_2 2.712640 1_545
Mo2_1 Te2_3 2.709496 1_545
Mo2_1 Te2_5 2.709504 1_555
Mo2_1 Te2_1 2.709512 1_555
Mo2_1 Te0_5 2.712626 1_555
Mo2_1 Te0_1 2.712631 1_555
Mo2_1 Te0_3 2.712640 1_545
Mo2_2 Te2_0 2.709496 1_555
Mo2_2 Te2_6 2.709504 1_555
Mo2_2 Te2_2 2.709512 1_555
Mo2_2 Te0_6 2.712626 1_555
Mo2_2 Te0_2 2.712631 1_555
Mo2_2 Te0_0 2.712640 1_555
Mo2_3 Te2_1 2.709496 1_555
Mo2_3 Te2_7 2.709504 1_555
Mo2_3 Te2_3 2.709512 1_555
Mo2_3 Te0_7 2.712626 1_555
Mo2_3 Te0_3 2.712631 1_555
Mo2_3 Te0_1 2.712640 1_555
Mo2_4 Te2_6 2.709496 1_545
Mo2_4 Te2_0 2.709504 1_655
Mo2_4 Te2_4 2.709512 1_555
Mo2_4 Te0_0 2.712626 1_655
Mo2_4 Te0_4 2.712631 1_555
Mo2_4 Te0_6 2.712640 1_545
Mo2_5 Te2_7 2.709496 1_545
Mo2_5 Te2_1 2.709504 1_655
Mo2_5 Te2_5 2.709512 1_555
Mo2_5 Te0_1 2.712626 1_655
Mo2_5 Te0_5 2.712631 1_555
Mo2_5 Te0_7 2.712640 1_545
Mo2_6 Te2_4 2.709496 1_555
Mo2_6 Te2_2 2.709504 1_655
Mo2_6 Te2_6 2.709512 1_555
Mo2_6 Te0_2 2.712626 1_655
Mo2_6 Te0_6 2.712631 1_555
Mo2_6 Te0_4 2.712640 1_555
Mo2_7 Te2_5 2.709496 1_555
Mo2_7 Te2_3 2.709504 1_655
Mo2_7 Te2_7 2.709512 1_555
Mo2_7 Te0_3 2.712626 1_655
Mo2_7 Te0_7 2.712631 1_555
Mo2_7 Te0_5 2.712640 1_555
Mo3_0 Te1_2 2.708541 1_545
Mo3_0 Te1_4 2.708579 1_555
Mo3_0 Te1_0 2.708586 1_555
Mo3_0 Te3_2 2.711393 1_545
Mo3_0 Te3_4 2.711443 1_555
Mo3_0 Te3_0 2.711450 1_555
Mo3_1 Te1_3 2.708541 1_545
Mo3_1 Te1_5 2.708579 1_555
Mo3_1 Te1_1 2.708586 1_555
Mo3_1 Te3_3 2.711393 1_545
Mo3_1 Te3_5 2.711443 1_555
Mo3_1 Te3_1 2.711450 1_555
Mo3_2 Te1_0 2.708541 1_555
Mo3_2 Te1_6 2.708579 1_555
Mo3_2 Te1_2 2.708586 1_555
Mo3_2 Te3_0 2.711393 1_555
Mo3_2 Te3_6 2.711443 1_555
Mo3_2 Te3_2 2.711450 1_555
Mo3_3 Te1_1 2.708541 1_555
Mo3_3 Te1_7 2.708579 1_555
Mo3_3 Te1_3 2.708586 1_555
Mo3_3 Te3_1 2.711393 1_555
Mo3_3 Te3_7 2.711443 1_555
Mo3_3 Te3_3 2.711450 1_555
Mo3_4 Te1_6 2.708541 1_545
Mo3_4 Te1_0 2.708579 1_655
Mo3_4 Te1_4 2.708586 1_555
Mo3_4 Te3_6 2.711393 1_545
Mo3_4 Te3_0 2.711443 1_655
Mo3_4 Te3_4 2.711450 1_555
Mo3_5 Te1_7 2.708541 1_545
Mo3_5 Te1_1 2.708579 1_655
Mo3_5 Te1_5 2.708586 1_555
Mo3_5 Te3_7 2.711393 1_545
Mo3_5 Te3_1 2.711443 1_655
Mo3_5 Te3_5 2.711450 1_555
Mo3_6 Te1_4 2.708541 1_555
Mo3_6 Te1_2 2.708579 1_655
Mo3_6 Te1_6 2.708586 1_555
Mo3_6 Te3_4 2.711393 1_555
Mo3_6 Te3_2 2.711443 1_655
Mo3_6 Te3_6 2.711450 1_555
Mo3_7 Te1_5 2.708541 1_555
Mo3_7 Te1_3 2.708579 1_655
Mo3_7 Te1_7 2.708586 1_555
Mo3_7 Te3_5 2.711393 1_555
Mo3_7 Te3_3 2.711443 1_655
Mo3_7 Te3_7 2.711450 1_555
