# generated using pymatgen
data_MgVMoO5
_symmetry_space_group_name_H-M   'P 1'
_cell_length_a   3.95173780
_cell_length_b   3.81683132
_cell_length_c   6.48206676
_cell_angle_alpha   91.36850572
_cell_angle_beta   97.89687001
_cell_angle_gamma   89.46825263
_symmetry_Int_Tables_number   1
_chemical_formula_structural   MgVMoO5
_chemical_formula_sum   'Mg1 V1 Mo1 O5'
_cell_volume   96.81321562
_cell_formula_units_Z   1
loop_
 _symmetry_equiv_pos_site_id
 _symmetry_equiv_pos_as_xyz
  1  'x, y, z'
loop_
 _atom_site_type_symbol
 _atom_site_label
 _atom_site_symmetry_multiplicity
 _atom_site_fract_x
 _atom_site_fract_y
 _atom_site_fract_z
 _atom_site_occupancy
  Mg  Mg0  1  0.30716072  0.49227382  0.96040222  1
  V  V0  1  0.20947637  0.04132652  0.30550715  1
  Mo  Mo0  1  0.81796152  0.98485465  0.68733433  1
  O  O0  1  0.17338646  0.99227170  0.99179710  1
  O  O1  1  0.22297373  0.49935235  0.27389526  1
  O  O2  1  0.28609709  0.99961050  0.61185750  1
  O  O3  1  0.72913916  -0.00192553  0.36948066  1
  O  O4  1  0.75380497  0.49223699  0.79972378  1
loop_
_geom_bond_atom_site_label_1
_geom_bond_atom_site_label_2
_geom_bond_distance
_geom_bond_site_symmetry_2
Mg0 O0 1.988763 1_555
Mg0 O0 2.007435 1_545
Mg0 O1 2.103270 1_556
Mg0 O4 2.169148 1_555
Mg0 O4 2.289255 1_455
Mo0 O2 1.979089 1_655
Mo0 O3 2.043699 1_565
Mo0 O4 2.062847 1_555
Mo0 O4 2.078378 1_565
Mo0 O2 2.092036 1_555
Mo0 O0 2.259389 1_655
O0 V0 2.023140 1_566
O1 V0 1.767175 1_555
O1 V0 2.074788 1_565
O2 V0 1.977210 1_565
O3 V0 2.006894 1_655
O3 V0 2.044345 1_555
