# generated using pymatgen
data_MgMn6O7F5
_symmetry_space_group_name_H-M   'P 1'
_cell_length_a   8.34087015
_cell_length_b   6.01551946
_cell_length_c   5.79184048
_cell_angle_alpha   65.56476022
_cell_angle_beta   64.83770754
_cell_angle_gamma   62.83031700
_symmetry_Int_Tables_number   1
_chemical_formula_structural   MgMn6O7F5
_chemical_formula_sum   'Mg1 Mn6 O7 F5'
_cell_volume   225.14159194
_cell_formula_units_Z   1
loop_
 _symmetry_equiv_pos_site_id
 _symmetry_equiv_pos_as_xyz
  1  'x, y, z'
loop_
 _atom_site_type_symbol
 _atom_site_label
 _atom_site_symmetry_multiplicity
 _atom_site_fract_x
 _atom_site_fract_y
 _atom_site_fract_z
 _atom_site_occupancy
  Mg  Mg0  1  0.00876300  0.48369800  0.00916200  1
  Mn  Mn0  1  0.81159800  0.65778200  0.63752000  1
  Mn  Mn1  1  0.64981900  0.32364600  0.33111600  1
  Mn  Mn2  1  0.35181700  0.66608700  0.65232200  1
  Mn  Mn3  1  0.21740700  0.35552300  0.36011900  1
  Mn  Mn4  1  0.50553100  0.99641800  0.99898400  1
  Mn  Mn5  1  0.99669400  0.99728800  0.98338400  1
  O  O0  1  0.63772100  0.01579300  0.62498100  1
  O  O1  1  0.30499100  0.35882000  0.97135100  1
  O  O2  1  0.38730000  0.48586100  0.41585000  1
  O  O3  1  0.36635900  0.97953800  0.36889600  1
  O  O4  1  0.70550900  0.63262700  0.02693000  1
  O  O5  1  0.02761900  0.33960400  0.72007400  1
  O  O6  1  0.98821300  0.65513700  0.27397200  1
  F  F0  1  0.29531700  0.85279000  0.90632600  1
  F  F1  1  0.64584600  0.51016200  0.59168100  1
  F  F2  1  0.93610800  0.18453300  0.26785900  1
  F  F3  1  0.70514100  0.12382800  0.06152300  1
  F  F4  1  0.04158000  0.79752900  0.72651800  1
loop_
_geom_bond_atom_site_label_1
_geom_bond_atom_site_label_2
_geom_bond_distance
_geom_bond_site_symmetry_2
Mg0 O6 2.090197 1_455
Mg0 O5 2.105190 1_554
Mg0 O1 2.167492 1_554
Mg0 O4 2.235289 1_455
Mn0 O0 1.963270 1_565
Mn0 O5 1.991102 1_655
Mn0 O6 1.993130 1_555
Mn0 O4 2.008866 1_556
Mn1 O2 1.875804 1_555
Mn1 O0 1.937388 1_555
Mn1 O4 2.039060 1_555
Mn2 O2 1.931205 1_555
Mn2 O3 1.934824 1_555
Mn2 O1 2.050179 1_555
Mn3 O5 2.007064 1_555
Mn3 O3 2.013448 1_545
Mn3 O6 2.018014 1_455
Mn3 O1 2.044906 1_554
Mn3 O2 2.083262 1_555
Mn4 O3 1.939271 1_556
Mn4 O0 1.949111 1_565
Mn4 O1 2.045686 1_565
Mn4 O4 2.049489 1_556
Mn5 O5 2.045746 1_665
Mn5 O6 2.059050 1_556
F0 Mn2 1.985399 1_555
F0 Mn5 2.134739 1_455
F0 Mn4 2.583807 1_555
F1 Mn0 2.097324 1_555
F1 Mn2 2.111158 1_555
F1 Mn1 2.204970 1_555
F2 Mg0 1.960593 1_655
F2 Mn1 2.054592 1_555
F2 Mn5 2.132214 1_544
F3 Mn5 2.087232 1_544
F3 Mn1 2.128239 1_555
F3 Mn4 2.323458 1_544
F4 Mg0 1.962863 1_556
F4 Mn5 2.095712 1_455
F4 Mn2 2.229965 1_555
