# generated using pymatgen
data_Tb3InS6
_symmetry_space_group_name_H-M   'P 1'
_cell_length_a   3.85306126
_cell_length_b   13.53092386
_cell_length_c   16.48996691
_cell_angle_alpha   90.00000000
_cell_angle_beta   90.00000000
_cell_angle_gamma   90.00000000
_symmetry_Int_Tables_number   1
_chemical_formula_structural   Tb3InS6
_chemical_formula_sum   'Tb12 In4 S24'
_cell_volume   859.71231591
_cell_formula_units_Z   4
loop_
 _symmetry_equiv_pos_site_id
 _symmetry_equiv_pos_as_xyz
  1  'x, y, z'
loop_
 _atom_site_type_symbol
 _atom_site_label
 _atom_site_symmetry_multiplicity
 _atom_site_fract_x
 _atom_site_fract_y
 _atom_site_fract_z
 _atom_site_occupancy
  Tb  Tb0  1  0.24969203  0.03937207  0.77574831  1
  Tb  Tb1  1  0.24969203  0.96062793  0.22425169  1
  Tb  Tb2  1  0.75030797  0.46062793  0.27574831  1
  Tb  Tb3  1  0.75030797  0.53937207  0.72425169  1
  Tb  Tb4  1  0.25161129  0.25164862  0.60700139  1
  Tb  Tb5  1  0.25161129  0.74835138  0.39299861  1
  Tb  Tb6  1  0.74838871  0.24835138  0.10700139  1
  Tb  Tb7  1  0.74838871  0.75164862  0.89299861  1
  Tb  Tb8  1  0.75023765  0.31049582  0.85406510  1
  Tb  Tb9  1  0.75023765  0.68950418  0.14593490  1
  Tb  Tb10  1  0.24976235  0.18950418  0.35406510  1
  Tb  Tb11  1  0.24976235  0.81049582  0.64593490  1
  In  In0  1  0.74955358  -0.00000000  0.50000000  1
  In  In1  1  0.25044642  0.50000000  -0.00000000  1
  In  In2  1  0.25529260  0.50000000  0.50000000  1
  In  In3  1  0.74470740  -0.00000000  -0.00000000  1
  S  S0  1  0.75192935  0.40430519  0.58606476  1
  S  S1  1  0.75192935  0.59569481  0.41393524  1
  S  S2  1  0.24807065  0.09569481  0.08606476  1
  S  S3  1  0.24807065  0.90430519  0.91393524  1
  S  S4  1  0.24976697  0.30816213  0.97960069  1
  S  S5  1  0.24976697  0.69183787  0.02039931  1
  S  S6  1  0.75023303  0.19183787  0.47960069  1
  S  S7  1  0.75023303  0.80816213  0.52039931  1
  S  S8  1  0.74952956  0.11172662  0.88271584  1
  S  S9  1  0.74952956  0.88827338  0.11728416  1
  S  S10  1  0.25047044  0.38827338  0.38271584  1
  S  S11  1  0.25047044  0.61172662  0.61728416  1
  S  S12  1  0.75105100  0.18237636  0.71310887  1
  S  S13  1  0.75105100  0.81762364  0.28689113  1
  S  S14  1  0.24894900  0.31762364  0.21310887  1
  S  S15  1  0.24894900  0.68237636  0.78689113  1
  S  S16  1  0.25041601  0.38771945  0.75369998  1
  S  S17  1  0.25041601  0.61228055  0.24630002  1
  S  S18  1  0.74958399  0.11228055  0.25369998  1
  S  S19  1  0.74958399  0.88771945  0.74630002  1
  S  S20  1  0.24972702  0.01975543  0.60466396  1
  S  S21  1  0.24972702  0.98024457  0.39533604  1
  S  S22  1  0.75027298  0.48024457  0.10466396  1
  S  S23  1  0.75027298  0.51975543  0.89533604  1
loop_
_geom_bond_atom_site_label_1
_geom_bond_atom_site_label_2
_geom_bond_distance
_geom_bond_site_symmetry_2
In0 S21 2.599836 1_545
In0 S20 2.599836 1_555
In0 S21 2.600827 1_645
In0 S20 2.600827 1_655
In0 S6 2.617450 1_555
In0 S7 2.617450 1_545
In1 S22 2.599836 1_555
In1 S23 2.599836 1_554
In1 S22 2.600827 1_455
In1 S23 2.600827 1_454
In1 S4 2.617450 1_554
In1 S5 2.617450 1_555
In2 S10 2.454828 1_555
In2 S11 2.454828 1_555
In2 S0 2.711551 1_555
In2 S1 2.711551 1_555
In2 S0 2.729903 1_455
In2 S1 2.729903 1_455
In3 S8 2.454828 1_554
In3 S9 2.454828 1_545
In3 S3 2.711551 1_544
In3 S2 2.711551 1_555
In3 S3 2.729903 1_644
In3 S2 2.729903 1_655
S0 Tb4 2.844755 1_655
S0 Tb4 2.846415 1_555
S0 Tb3 2.921053 1_555
S1 Tb5 2.844755 1_655
S1 Tb5 2.846415 1_555
S1 Tb2 2.921053 1_555
S2 Tb6 2.844755 1_455
S2 Tb6 2.846415 1_555
S2 Tb1 2.921053 1_545
S3 Tb7 2.844755 1_455
S3 Tb7 2.846415 1_555
S3 Tb0 2.921053 1_565
S4 Tb8 2.826792 1_455
S4 Tb8 2.829263 1_555
S4 Tb6 2.959653 1_556
S4 Tb6 2.966558 1_456
S5 Tb9 2.826792 1_455
S5 Tb9 2.829263 1_555
S5 Tb7 2.959653 1_554
S5 Tb7 2.966558 1_454
S6 Tb10 2.826792 1_655
S6 Tb10 2.829263 1_555
S6 Tb4 2.959653 1_555
S6 Tb4 2.966558 1_655
S7 Tb11 2.826792 1_655
S7 Tb11 2.829263 1_555
S7 Tb5 2.959653 1_555
S7 Tb5 2.966558 1_655
S8 Tb8 2.730713 1_555
S8 Tb0 2.789069 1_555
S8 Tb0 2.789934 1_655
S9 Tb9 2.730713 1_555
S9 Tb1 2.789069 1_555
S9 Tb1 2.789934 1_655
S10 Tb10 2.730713 1_555
S10 Tb2 2.789069 1_555
S10 Tb2 2.789934 1_455
S11 Tb11 2.730713 1_555
S11 Tb3 2.789069 1_555
S11 Tb3 2.789934 1_455
S12 Tb4 2.764643 1_555
S12 Tb4 2.767650 1_655
S12 Tb8 2.899648 1_555
S12 Tb0 2.915896 1_655
S12 Tb0 2.922807 1_555
S13 Tb5 2.764643 1_555
S13 Tb5 2.767650 1_655
S13 Tb9 2.899648 1_555
S13 Tb1 2.915896 1_655
S13 Tb1 2.922807 1_555
S14 Tb6 2.764643 1_555
S14 Tb6 2.767650 1_455
S14 Tb10 2.899648 1_555
S14 Tb2 2.915896 1_455
S14 Tb2 2.922807 1_555
S15 Tb7 2.764643 1_555
S15 Tb7 2.767650 1_455
S15 Tb11 2.899648 1_555
S15 Tb3 2.915896 1_455
S15 Tb3 2.922807 1_555
S16 Tb8 2.745867 1_555
S16 Tb8 2.746831 1_455
S16 Tb3 2.855946 1_555
S16 Tb3 2.856508 1_455
S16 Tb4 3.040022 1_555
S17 Tb9 2.745867 1_555
S17 Tb9 2.746831 1_455
S17 Tb2 2.855946 1_555
S17 Tb2 2.856508 1_455
S17 Tb5 3.040022 1_555
S18 Tb10 2.745867 1_555
S18 Tb10 2.746831 1_655
S18 Tb1 2.855946 1_545
S18 Tb1 2.856508 1_645
S18 Tb6 3.040022 1_555
S19 Tb11 2.745867 1_555
S19 Tb11 2.746831 1_655
S19 Tb0 2.855946 1_565
S19 Tb0 2.856508 1_665
S19 Tb7 3.040022 1_555
S20 Tb0 2.833634 1_555
S20 Tb11 2.912115 1_545
S20 Tb4 3.137974 1_555
S21 Tb1 2.833634 1_555
S21 Tb10 2.912115 1_565
S21 Tb5 3.137974 1_555
S22 Tb2 2.833634 1_555
S22 Tb9 2.912115 1_555
S22 Tb6 3.137974 1_555
S23 Tb3 2.833634 1_555
S23 Tb8 2.912115 1_555
S23 Tb7 3.137974 1_555
