# generated using pymatgen
data_SrMg6Zr
_symmetry_space_group_name_H-M   'P 1'
_cell_length_a   6.63866219
_cell_length_b   6.63866219
_cell_length_c   4.67307843
_cell_angle_alpha   90.00000000
_cell_angle_beta   90.00000000
_cell_angle_gamma   90.01238997
_symmetry_Int_Tables_number   1
_chemical_formula_structural   SrMg6Zr
_chemical_formula_sum   'Sr1 Mg6 Zr1'
_cell_volume   205.95113983
_cell_formula_units_Z   1
loop_
 _symmetry_equiv_pos_site_id
 _symmetry_equiv_pos_as_xyz
  1  'x, y, z'
loop_
 _atom_site_type_symbol
 _atom_site_label
 _atom_site_symmetry_multiplicity
 _atom_site_fract_x
 _atom_site_fract_y
 _atom_site_fract_z
 _atom_site_occupancy
  Sr  Sr0  1  0.37474878  0.62525122  0.50000000  1
  Mg  Mg0  1  0.37526074  0.12522180  0.50000000  1
  Mg  Mg1  1  0.87477820  0.62473926  0.50000000  1
  Mg  Mg2  1  0.10419725  0.35409824  -0.00000000  1
  Mg  Mg3  1  0.64590176  0.89580275  -0.00000000  1
  Mg  Mg4  1  0.64585412  0.35414588  -0.00000000  1
  Mg  Mg5  1  0.10413595  0.89586405  -0.00000000  1
  Zr  Zr0  1  0.87512320  0.12487680  0.50000000  1
loop_
_geom_bond_atom_site_label_1
_geom_bond_atom_site_label_2
_geom_bond_distance
_geom_bond_site_symmetry_2
Mg0 Mg4 3.315848 1_556
Mg0 Mg4 3.315848 1_555
Mg0 Mg2 3.317751 1_556
Mg0 Mg2 3.317751 1_555
Mg0 Mg3 3.317883 1_545
Mg0 Mg3 3.317883 1_546
Mg0 Zr0 3.318419 1_555
Mg0 Mg5 3.319080 1_545
Mg0 Mg5 3.319080 1_546
Mg0 Sr0 3.319137 1_545
Mg0 Sr0 3.319529 1_555
Mg0 Zr0 3.320244 1_455
Mg1 Mg4 3.315848 1_556
Mg1 Mg4 3.315848 1_555
Mg1 Mg3 3.317751 1_556
Mg1 Mg3 3.317751 1_555
Mg1 Mg2 3.317883 1_656
Mg1 Mg2 3.317883 1_655
Mg1 Zr0 3.318419 1_555
Mg1 Mg5 3.319080 1_656
Mg1 Mg5 3.319080 1_655
Mg1 Sr0 3.319137 1_655
Mg1 Sr0 3.319529 1_555
Mg1 Zr0 3.320244 1_565
Mg2 Mg5 3.042062 1_545
Mg2 Mg4 3.042785 1_455
Mg2 Zr0 3.175960 1_454
Mg2 Zr0 3.175960 1_455
Mg2 Sr0 3.453162 1_554
Mg2 Sr0 3.453162 1_555
Mg3 Mg5 3.042062 1_655
Mg3 Mg4 3.042785 1_565
Mg3 Zr0 3.175960 1_565
Mg3 Zr0 3.175960 1_564
Mg3 Sr0 3.453162 1_554
Mg3 Sr0 3.453162 1_555
Mg4 Zr0 3.177047 1_555
Mg4 Zr0 3.177047 1_554
Mg4 Sr0 3.455316 1_555
Mg4 Sr0 3.455316 1_554
Mg5 Zr0 3.175417 1_464
Mg5 Zr0 3.175417 1_465
Mg5 Sr0 3.451911 1_555
Mg5 Sr0 3.451911 1_554
