# generated using pymatgen
data_MgW2(OF)4
_symmetry_space_group_name_H-M   'P 1'
_cell_length_a   3.91218662
_cell_length_b   3.91218662
_cell_length_c   9.83000298
_cell_angle_alpha   90.06484419
_cell_angle_beta   90.06484419
_cell_angle_gamma   89.12022970
_symmetry_Int_Tables_number   1
_chemical_formula_structural   MgW2(OF)4
_chemical_formula_sum   'Mg1 W2 O4 F4'
_cell_volume   150.43227740
_cell_formula_units_Z   1
loop_
 _symmetry_equiv_pos_site_id
 _symmetry_equiv_pos_as_xyz
  1  'x, y, z'
loop_
 _atom_site_type_symbol
 _atom_site_label
 _atom_site_symmetry_multiplicity
 _atom_site_fract_x
 _atom_site_fract_y
 _atom_site_fract_z
 _atom_site_occupancy
  Mg  Mg0  1  0.24283000  0.75717000  0.00000000  1
  W  W0  1  0.27848800  0.25713400  0.26181200  1
  W  W1  1  0.74286600  0.72151200  0.73818800  1
  O  O0  1  0.24034400  0.75655700  0.78391700  1
  O  O1  1  0.24344300  0.75965600  0.21608300  1
  O  O2  1  0.73574200  0.24097700  0.74876800  1
  O  O3  1  0.75902300  0.26425800  0.25123200  1
  F  F0  1  0.25240600  0.25650500  0.04020500  1
  F  F1  1  0.25962100  0.24825900  0.45565400  1
  F  F2  1  0.75174100  0.74037900  0.54434600  1
  F  F3  1  0.74349500  0.74759400  0.95979500  1
loop_
_geom_bond_atom_site_label_1
_geom_bond_atom_site_label_2
_geom_bond_distance
_geom_bond_site_symmetry_2
Mg0 O1 2.124107 1_555
Mg0 O0 2.124107 1_554
O0 W1 2.003680 1_455
O0 W1 2.019763 1_555
O1 W0 2.003680 1_565
O1 W0 2.019763 1_555
O2 W1 1.883570 1_555
O2 W1 2.034551 1_545
O3 W0 1.883570 1_555
O3 W0 2.034551 1_655
F0 Mg0 1.993538 1_545
F0 Mg0 1.998387 1_555
F0 W0 2.180671 1_555
F1 W0 1.907356 1_555
F2 W1 1.907356 1_555
F3 Mg0 1.993538 1_656
F3 Mg0 1.998387 1_556
F3 W1 2.180671 1_555
