# generated using pymatgen
data_Sr(Ag3O2)2
_symmetry_space_group_name_H-M   'P 1'
_cell_length_a   6.50538411
_cell_length_b   8.93448496
_cell_length_c   12.46965448
_cell_angle_alpha   90.00000000
_cell_angle_beta   90.00000000
_cell_angle_gamma   90.00000000
_symmetry_Int_Tables_number   1
_chemical_formula_structural   Sr(Ag3O2)2
_chemical_formula_sum   'Sr4 Ag24 O16'
_cell_volume   724.76445603
_cell_formula_units_Z   4
loop_
 _symmetry_equiv_pos_site_id
 _symmetry_equiv_pos_as_xyz
  1  'x, y, z'
loop_
 _atom_site_type_symbol
 _atom_site_label
 _atom_site_symmetry_multiplicity
 _atom_site_fract_x
 _atom_site_fract_y
 _atom_site_fract_z
 _atom_site_occupancy
  Sr  Sr0  1  0.25000000  0.88220272  0.50000000  1
  Sr  Sr1  1  0.25000000  0.61779728  0.00000000  1
  Sr  Sr2  1  0.75000000  0.11779728  0.50000000  1
  Sr  Sr3  1  0.75000000  0.38220272  0.00000000  1
  Ag  Ag0  1  0.42343430  0.53994957  0.73899052  1
  Ag  Ag1  1  0.92343430  0.46005043  0.73899052  1
  Ag  Ag2  1  0.92343430  0.03994957  0.76100948  1
  Ag  Ag3  1  0.57656570  0.46005043  0.26100948  1
  Ag  Ag4  1  0.40745052  0.75000000  0.25000000  1
  Ag  Ag5  1  0.09254948  0.75000000  0.75000000  1
  Ag  Ag6  1  0.59254948  0.25000000  0.75000000  1
  Ag  Ag7  1  0.90745052  0.25000000  0.25000000  1
  Ag  Ag8  1  0.42343430  0.96005043  0.76100948  1
  Ag  Ag9  1  0.07656570  0.53994957  0.26100948  1
  Ag  Ag10  1  0.07656570  0.96005043  0.23899052  1
  Ag  Ag11  1  0.29206689  0.23574923  0.37882781  1
  Ag  Ag12  1  0.29206689  0.26425077  0.12117219  1
  Ag  Ag13  1  0.20793311  0.23574923  0.62117219  1
  Ag  Ag14  1  0.20793311  0.26425077  0.87882781  1
  Ag  Ag15  1  0.70793311  0.76425077  0.62117219  1
  Ag  Ag16  1  0.70793311  0.73574923  0.87882781  1
  Ag  Ag17  1  0.79206689  0.76425077  0.37882781  1
  Ag  Ag18  1  0.79206689  0.73574923  0.12117219  1
  Ag  Ag19  1  0.50000000  0.50000000  0.50000000  1
  Ag  Ag20  1  0.50000000  -0.00000000  0.00000000  1
  Ag  Ag21  1  0.00000000  0.50000000  0.50000000  1
  Ag  Ag22  1  0.00000000  -0.00000000  0.00000000  1
  Ag  Ag23  1  0.57656570  0.03994957  0.23899052  1
  O  O0  1  0.59148488  0.32692723  0.39673432  1
  O  O1  1  0.54633501  0.58283809  0.12008327  1
  O  O2  1  0.54633501  0.91716191  0.37991673  1
  O  O3  1  0.95366499  0.58283809  0.87991673  1
  O  O4  1  0.59148488  0.17307277  0.10326568  1
  O  O5  1  0.90851512  0.32692723  0.60326568  1
  O  O6  1  0.90851512  0.17307277  0.89673432  1
  O  O7  1  0.40851512  0.67307277  0.60326568  1
  O  O8  1  0.40851512  0.82692723  0.89673432  1
  O  O9  1  0.95366499  0.91716191  0.62008327  1
  O  O10  1  0.09148488  0.67307277  0.39673432  1
  O  O11  1  0.04633501  0.08283809  0.37991673  1
  O  O12  1  0.04633501  0.41716191  0.12008327  1
  O  O13  1  0.45366499  0.08283809  0.62008327  1
  O  O14  1  0.45366499  0.41716191  0.87991673  1
  O  O15  1  0.09148488  0.82692723  0.10326568  1
loop_
_geom_bond_atom_site_label_1
_geom_bond_atom_site_label_2
_geom_bond_distance
_geom_bond_site_symmetry_2
Ag0 O7 2.070850 1_555
Ag0 O14 2.080935 1_555
Ag1 O5 2.070850 1_555
Ag1 O3 2.080935 1_555
Ag2 O6 2.070850 1_555
Ag2 O9 2.080935 1_545
Ag3 O0 2.070850 1_555
Ag3 O1 2.080935 1_555
Ag4 O1 2.381453 1_555
Ag4 O2 2.381453 1_555
Ag5 O9 2.381453 1_455
Ag5 O3 2.381453 1_455
Ag6 O13 2.381453 1_555
Ag6 O14 2.381453 1_555
Ag7 O11 2.381453 1_655
Ag7 O12 2.381453 1_655
Ag8 O8 2.070850 1_555
Ag8 O13 2.080935 1_565
Ag9 O10 2.070850 1_555
Ag9 O12 2.080935 1_555
Ag10 O15 2.070850 1_555
Ag10 O11 2.080935 1_565
Ag11 O11 2.102878 1_555
Ag11 O0 2.123091 1_555
Ag12 O12 2.102878 1_555
Ag12 O4 2.123091 1_555
Ag13 O13 2.102878 1_555
Ag13 O5 2.123091 1_455
Ag14 O14 2.102878 1_555
Ag14 O6 2.123091 1_455
Ag15 O9 2.102878 1_555
Ag15 O7 2.123091 1_555
Ag16 O3 2.102878 1_555
Ag16 O8 2.123091 1_555
Ag17 O2 2.102878 1_555
Ag17 O10 2.123091 1_655
Ag18 O1 2.102878 1_555
Ag18 O15 2.123091 1_655
Ag19 O0 2.098435 1_555
Ag19 O7 2.098435 1_555
Ag20 O4 2.098435 1_555
Ag20 O8 2.098435 1_544
Ag21 O5 2.098435 1_455
Ag21 O10 2.098435 1_555
Ag22 O6 2.098435 1_454
Ag22 O15 2.098435 1_545
Ag23 O4 2.070850 1_555
Ag23 O2 2.080935 1_545
O0 Sr2 2.492527 1_555
O1 Sr1 2.460907 1_555
O1 Sr3 2.685317 1_555
O2 Sr0 2.460907 1_555
O2 Sr2 2.685317 1_565
O3 Sr1 2.460907 1_656
O3 Sr3 2.685317 1_556
O4 Sr3 2.492527 1_555
O5 Sr2 2.492527 1_555
O6 Sr3 2.492527 1_556
O7 Sr0 2.492527 1_555
O8 Sr1 2.492527 1_556
O9 Sr0 2.460907 1_655
O9 Sr2 2.685317 1_565
O10 Sr0 2.492527 1_555
O11 Sr2 2.460907 1_455
O11 Sr0 2.685317 1_545
O12 Sr3 2.460907 1_455
O12 Sr1 2.685317 1_555
O13 Sr2 2.460907 1_555
O13 Sr0 2.685317 1_545
O14 Sr3 2.460907 1_556
O14 Sr1 2.685317 1_556
O15 Sr1 2.492527 1_555
