# generated using pymatgen
data_La2MgV2O8
_symmetry_space_group_name_H-M   'P 1'
_cell_length_a   6.34619359
_cell_length_b   6.34619389
_cell_length_c   6.48030728
_cell_angle_alpha   106.13684006
_cell_angle_beta   106.13683931
_cell_angle_gamma   116.33649329
_symmetry_Int_Tables_number   1
_chemical_formula_structural   La2MgV2O8
_chemical_formula_sum   'La2 Mg1 V2 O8'
_cell_volume   198.78892110
_cell_formula_units_Z   1
loop_
 _symmetry_equiv_pos_site_id
 _symmetry_equiv_pos_as_xyz
  1  'x, y, z'
loop_
 _atom_site_type_symbol
 _atom_site_label
 _atom_site_symmetry_multiplicity
 _atom_site_fract_x
 _atom_site_fract_y
 _atom_site_fract_z
 _atom_site_occupancy
  La  La0  1  0.15222300  0.84777700  0.25000000  1
  La  La1  1  0.87708400  0.12291600  0.75000000  1
  Mg  Mg0  1  0.85606400  0.14393600  0.25000000  1
  V  V0  1  0.37521400  0.62478600  0.75000000  1
  V  V1  1  0.60152500  0.39847500  0.25000000  1
  O  O0  1  0.80584600  0.74994700  0.42222900  1
  O  O1  1  0.39210400  0.80267300  0.57394800  1
  O  O2  1  0.73383100  0.82357100  0.96232700  1
  O  O3  1  0.80954000  0.36265600  0.09680800  1
  O  O4  1  0.63734400  0.19046000  0.40319200  1
  O  O5  1  0.17642900  0.26616900  0.53767300  1
  O  O6  1  0.19732700  0.60789600  0.92605200  1
  O  O7  1  0.25005300  0.19415400  0.07777100  1
loop_
_geom_bond_atom_site_label_1
_geom_bond_atom_site_label_2
_geom_bond_distance
_geom_bond_site_symmetry_2
La0 O1 2.398047 1_555
La0 O6 2.398047 1_554
La0 O4 2.520638 1_565
La0 O3 2.520639 1_455
La0 O0 2.645962 1_455
La0 O7 2.645962 1_565
La0 O2 2.697482 1_454
La0 O5 2.697482 1_565
La1 O7 2.457750 1_656
La1 O0 2.457750 1_545
La1 O1 2.472644 1_545
La1 O6 2.472644 1_655
La1 O3 2.600555 1_556
La1 O4 2.600555 1_555
La1 O5 2.635239 1_655
La1 O2 2.635239 1_545
Mg0 O5 1.974977 1_655
Mg0 O2 1.974977 1_544
Mg0 O4 1.991481 1_555
Mg0 O3 1.991481 1_555
O0 V1 1.774177 1_555
O1 V0 1.806663 1_555
O2 V0 1.846948 1_555
O3 V1 1.910273 1_555
O4 V1 1.910273 1_555
O5 V0 1.846948 1_555
O6 V0 1.806663 1_555
O7 V1 1.774177 1_555
