# generated using pymatgen
data_MgMn6(O5F)2
_symmetry_space_group_name_H-M   'P 1'
_cell_length_a   5.09062726
_cell_length_b   13.91222160
_cell_length_c   2.97061226
_cell_angle_alpha   89.99097434
_cell_angle_beta   90.00672446
_cell_angle_gamma   88.10082890
_symmetry_Int_Tables_number   1
_chemical_formula_structural   MgMn6(O5F)2
_chemical_formula_sum   'Mg1 Mn6 O10 F2'
_cell_volume   210.26893784
_cell_formula_units_Z   1
loop_
 _symmetry_equiv_pos_site_id
 _symmetry_equiv_pos_as_xyz
  1  'x, y, z'
loop_
 _atom_site_type_symbol
 _atom_site_label
 _atom_site_symmetry_multiplicity
 _atom_site_fract_x
 _atom_site_fract_y
 _atom_site_fract_z
 _atom_site_occupancy
  Mg  Mg0  1  0.89841830  0.18064337  0.48876205  1
  Mn  Mn0  1  0.91719441  0.98367600  0.98895764  1
  Mn  Mn1  1  0.10508930  0.36828447  0.98901651  1
  Mn  Mn2  1  0.07725652  0.65902693  0.98893610  1
  Mn  Mn3  1  0.38919900  0.12830354  0.48922222  1
  Mn  Mn4  1  0.60017783  0.51252813  0.48902358  1
  Mn  Mn5  1  0.46067083  0.83321699  0.48908973  1
  O  O0  1  0.18350982  0.27585842  0.48899488  1
  O  O1  1  0.24830031  0.59535121  0.48905812  1
  O  O2  1  0.12217403  0.93399757  0.48911957  1
  O  O3  1  0.11856731  0.10600572  0.98920763  1
  O  O4  1  0.33592638  0.75674261  0.98905194  1
  O  O5  1  0.43696430  0.44607957  0.98896425  1
  O  O6  1  0.75330178  0.58256736  0.98909720  1
  O  O7  1  0.64992185  0.88910810  0.98918480  1
  O  O8  1  0.72348194  0.04978021  0.48910460  1
  O  O9  1  0.90268934  0.42201169  0.48898964  1
  F  F0  1  0.65665612  0.21823164  0.98877574  1
  F  F1  1  0.89272164  0.72988149  0.48911081  1
loop_
_geom_bond_atom_site_label_1
_geom_bond_atom_site_label_2
_geom_bond_distance
_geom_bond_site_symmetry_2
Mg0 O0 1.997094 1_655
Mg0 O8 2.053069 1_555
Mg0 O3 2.111903 1_654
Mg0 O3 2.113349 1_655
Mn0 O7 1.923739 1_555
Mn0 O2 1.929793 1_655
Mn0 O2 1.930178 1_656
Mn0 O8 1.990515 1_565
Mn0 O8 1.991555 1_566
Mn0 O3 2.015660 1_665
Mn1 O9 1.942917 1_455
Mn1 O9 1.943160 1_456
Mn1 O0 1.995986 1_556
Mn1 O0 1.996453 1_555
Mn1 O5 2.036375 1_555
Mn2 O1 1.922907 1_555
Mn2 O1 1.923093 1_556
Mn2 O4 1.923714 1_555
Mn2 O6 1.991838 1_455
Mn3 O8 1.991485 1_555
Mn3 O3 2.056332 1_554
Mn3 O3 2.056433 1_555
Mn3 O0 2.273318 1_555
Mn4 O5 1.949694 1_555
Mn4 O5 1.950036 1_554
Mn4 O6 1.952618 1_554
Mn4 O6 1.953045 1_555
Mn4 O9 1.956727 1_555
Mn4 O1 2.097512 1_555
Mn5 O4 1.945639 1_555
Mn5 O4 1.945952 1_554
Mn5 O7 1.946198 1_554
Mn5 O7 1.946643 1_555
Mn5 O2 2.185173 1_555
F0 Mg0 1.987667 1_556
F0 Mg0 1.988066 1_555
F0 Mn3 2.394621 1_555
F0 Mn3 2.396220 1_556
F1 Mn2 1.999147 1_655
F1 Mn2 2.000312 1_654
F1 Mn5 2.587392 1_555
