# generated using pymatgen
data_NaSbF6
_symmetry_space_group_name_H-M   'P 1'
_cell_length_a   8.25381041
_cell_length_b   8.25381041
_cell_length_c   8.25381041
_cell_angle_alpha   90.00000000
_cell_angle_beta   90.00000000
_cell_angle_gamma   90.00000000
_symmetry_Int_Tables_number   1
_chemical_formula_structural   NaSbF6
_chemical_formula_sum   'Na4 Sb4 F24'
_cell_volume   562.29402250
_cell_formula_units_Z   4
loop_
 _symmetry_equiv_pos_site_id
 _symmetry_equiv_pos_as_xyz
  1  'x, y, z'
loop_
 _atom_site_type_symbol
 _atom_site_label
 _atom_site_symmetry_multiplicity
 _atom_site_fract_x
 _atom_site_fract_y
 _atom_site_fract_z
 _atom_site_occupancy
  Na  Na0  1  0.00000000  -0.00000000  0.50000000  1
  Na  Na1  1  0.00000000  0.50000000  -0.00000000  1
  Na  Na2  1  0.50000000  -0.00000000  -0.00000000  1
  Na  Na3  1  0.50000000  0.50000000  0.50000000  1
  Sb  Sb0  1  0.50000000  0.50000000  -0.00000000  1
  Sb  Sb1  1  0.50000000  -0.00000000  0.50000000  1
  Sb  Sb2  1  0.00000000  0.50000000  0.50000000  1
  Sb  Sb3  1  0.00000000  -0.00000000  -0.00000000  1
  F  F0  1  0.27133607  0.48988941  0.01047427  1
  F  F1  1  0.72866393  0.98988941  0.48952573  1
  F  F2  1  0.22866393  0.51011059  0.51047427  1
  F  F3  1  0.77133607  0.01011059  0.98952573  1
  F  F4  1  0.01047427  0.27133607  0.48988941  1
  F  F5  1  0.48952573  0.72866393  0.98988941  1
  F  F6  1  0.51047427  0.22866393  0.51011059  1
  F  F7  1  0.98952573  0.77133607  0.01011059  1
  F  F8  1  0.48988941  0.01047427  0.27133607  1
  F  F9  1  0.98988941  0.48952573  0.72866393  1
  F  F10  1  0.51011059  0.51047427  0.22866393  1
  F  F11  1  0.01011059  0.98952573  0.77133607  1
  F  F12  1  0.72866393  0.51011059  0.98952573  1
  F  F13  1  0.27133607  0.01011059  0.51047427  1
  F  F14  1  0.77133607  0.48988941  0.48952573  1
  F  F15  1  0.22866393  0.98988941  0.01047427  1
  F  F16  1  0.98952573  0.72866393  0.51011059  1
  F  F17  1  0.51047427  0.27133607  0.01011059  1
  F  F18  1  0.48952573  0.77133607  0.48988941  1
  F  F19  1  0.01047427  0.22866393  0.98988941  1
  F  F20  1  0.51011059  0.98952573  0.72866393  1
  F  F21  1  0.01011059  0.51047427  0.27133607  1
  F  F22  1  0.48988941  0.48952573  0.77133607  1
  F  F23  1  0.98988941  0.01047427  0.22866393  1
loop_
_geom_bond_atom_site_label_1
_geom_bond_atom_site_label_2
_geom_bond_distance
_geom_bond_site_symmetry_2
F0 Sb0 1.891170 1_555
F0 Na1 2.242778 1_555
F1 Sb1 1.891170 1_565
F1 Na0 2.242778 1_665
F2 Sb2 1.891170 1_555
F2 Na3 2.242778 1_555
F3 Sb3 1.891170 1_656
F3 Na2 2.242778 1_556
F4 Sb2 1.891170 1_555
F4 Na0 2.242778 1_555
F5 Sb0 1.891170 1_556
F5 Na2 2.242778 1_566
F6 Sb1 1.891170 1_555
F6 Na3 2.242778 1_555
F7 Sb3 1.891170 1_665
F7 Na1 2.242778 1_655
F8 Sb1 1.891170 1_555
F8 Na2 2.242778 1_555
F9 Sb2 1.891170 1_655
F9 Na1 2.242778 1_656
F10 Sb0 1.891170 1_555
F10 Na3 2.242778 1_555
F11 Sb3 1.891170 1_566
F11 Na0 2.242778 1_565
F12 Sb0 1.891170 1_556
F12 Na1 2.242778 1_656
F13 Sb1 1.891170 1_555
F13 Na0 2.242778 1_555
F14 Sb2 1.891170 1_655
F14 Na3 2.242778 1_555
F15 Sb3 1.891170 1_565
F15 Na2 2.242778 1_565
F16 Sb2 1.891170 1_655
F16 Na0 2.242778 1_665
F17 Sb0 1.891170 1_555
F17 Na2 2.242778 1_555
F18 Sb1 1.891170 1_565
F18 Na3 2.242778 1_555
F19 Sb3 1.891170 1_556
F19 Na1 2.242778 1_556
F20 Sb1 1.891170 1_565
F20 Na2 2.242778 1_566
F21 Sb2 1.891170 1_555
F21 Na1 2.242778 1_555
F22 Sb0 1.891170 1_556
F22 Na3 2.242778 1_555
F23 Sb3 1.891170 1_655
F23 Na0 2.242778 1_655
