# generated using pymatgen
data_Na2Mg4Nb4Si3(S3O16)3
_symmetry_space_group_name_H-M   'P 1'
_cell_length_a   17.55349483
_cell_length_b   8.78541611
_cell_length_c   22.87485061
_cell_angle_alpha   89.96888197
_cell_angle_beta   89.95205475
_cell_angle_gamma   120.11055985
_symmetry_Int_Tables_number   1
_chemical_formula_structural   Na2Mg4Nb4Si3(S3O16)3
_chemical_formula_sum   'Na6 Mg12 Nb12 Si9 S27 O144'
_cell_volume   3051.61326250
_cell_formula_units_Z   3
loop_
 _symmetry_equiv_pos_site_id
 _symmetry_equiv_pos_as_xyz
  1  'x, y, z'
loop_
 _atom_site_type_symbol
 _atom_site_label
 _atom_site_symmetry_multiplicity
 _atom_site_fract_x
 _atom_site_fract_y
 _atom_site_fract_z
 _atom_site_occupancy
  Na  Na0  1  0.99804245  0.99721897  0.49947058  1
  Na  Na1  1  0.49883884  0.00160244  0.99565284  1
  Na  Na2  1  0.33520631  0.33447699  0.83831139  1
  Na  Na3  1  0.82973205  0.33382874  0.83636908  1
  Na  Na4  1  0.33725445  0.33890574  0.34068526  1
  Na  Na5  1  0.83337982  0.33109671  0.34144540  1
  Mg  Mg0  1  0.99832471  0.99735881  0.35517871  1
  Mg  Mg1  1  0.50039544  0.00265116  0.85125370  1
  Mg  Mg2  1  0.00063601  0.99901605  0.64912081  1
  Mg  Mg3  1  0.50097626  0.00355824  0.14956969  1
  Mg  Mg4  1  0.33113699  0.33308207  0.97950371  1
  Mg  Mg5  1  0.83701215  0.33518296  0.98045284  1
  Mg  Mg6  1  0.33507112  0.34251042  0.48137939  1
  Mg  Mg7  1  0.83373281  0.33130547  0.48070646  1
  Mg  Mg8  1  0.16305082  0.66155137  0.31303148  1
  Mg  Mg9  1  0.66802315  0.66974494  0.31096919  1
  Mg  Mg10  1  0.17005869  0.66946966  0.81045230  1
  Mg  Mg11  1  0.66242130  0.65715203  0.80802385  1
  Nb  Nb0  1  0.49974657  0.01093513  0.35595309  1
  Nb  Nb1  1  0.99964666  0.98655427  0.85331506  1
  Nb  Nb2  1  0.50626203  0.01390851  0.64143565  1
  Nb  Nb3  1  0.99917010  0.99968676  0.14086274  1
  Nb  Nb4  1  0.33753274  0.34047013  0.68506293  1
  Nb  Nb5  1  0.82797032  0.33165283  0.69259992  1
  Nb  Nb6  1  0.33469597  0.33345091  0.18896518  1
  Nb  Nb7  1  0.83438271  0.33127475  0.18438699  1
  Nb  Nb8  1  0.16503375  0.65796334  0.02355085  1
  Nb  Nb9  1  0.66705584  0.66875316  0.02167785  1
  Nb  Nb10  1  0.16678711  0.66362366  0.52430375  1
  Nb  Nb11  1  0.66655500  0.67296900  0.52579443  1
  Si  Si0  1  0.50626027  0.29876393  0.24634496  1
  Si  Si1  1  0.63692917  0.28657301  0.75681226  1
  Si  Si2  1  0.00776382  0.71093676  0.74427505  1
  Si  Si3  1  0.47219240  0.32896225  0.57632074  1
  Si  Si4  1  0.69626033  0.06082109  0.58013588  1
  Si  Si5  1  0.33497737  0.61953317  0.58162821  1
  Si  Si6  1  0.97367258  0.61673890  0.07797864  1
  Si  Si7  1  0.83054578  0.04790098  0.07996776  1
  Si  Si8  1  0.19505871  0.33257417  0.08095595  1
  S  S0  1  0.14285061  0.99781443  0.25207285  1
  S  S1  1  0.64440720  0.00207105  0.25076031  1
  S  S2  1  0.35467097  0.71126524  0.25076563  1
  S  S3  1  0.85717218  0.71216587  0.25199395  1
  S  S4  1  0.99913618  0.28806586  0.25232561  1
  S  S5  1  0.14497171  0.28783684  0.75039490  1
  S  S6  1  0.49793075  0.71176830  0.75262774  1
  S  S7  1  0.35539632  0.00060051  0.75129212  1
  S  S8  1  0.85632074  0.00113368  0.75093836  1
  S  S9  1  0.97623946  0.32555880  0.58188779  1
  S  S10  1  0.18615359  0.04711288  0.58015836  1
  S  S11  1  0.83855539  0.62729573  0.58012645  1
  S  S12  1  0.47678503  0.62446457  0.08209237  1
  S  S13  1  0.33771518  0.04883803  0.08010526  1
  S  S14  1  0.68631997  0.32544190  0.08008081  1
  S  S15  1  0.31317504  0.66960959  0.91500792  1
  S  S16  1  0.80866865  0.66340867  0.91469574  1
  S  S17  1  0.02258216  0.37971297  0.91400054  1
  S  S18  1  0.51890442  0.37458570  0.91706017  1
  S  S19  1  0.17060576  0.95816369  0.91458006  1
  S  S20  1  0.66598346  0.95563032  0.91526316  1
  S  S21  1  0.30748447  0.95383439  0.41421053  1
  S  S22  1  0.81270345  0.95653314  0.41480130  1
  S  S23  1  0.16618687  0.37650242  0.41534015  1
  S  S24  1  0.67183156  0.38453037  0.41434400  1
  S  S25  1  0.02073422  0.66623663  0.41582603  1
  S  S26  1  0.52288441  0.66515703  0.41427982  1
  O  O0  1  0.10738399  0.03828593  0.30384666  1
  O  O1  1  0.59845173  0.02769291  0.30328533  1
  O  O2  1  0.41257241  0.79218353  0.30381779  1
  O  O3  1  0.91411579  0.78395065  0.30331451  1
  O  O4  1  0.48490669  0.15963545  0.30715727  1
  O  O5  1  0.98224947  0.17757146  0.30391648  1
  O  O6  1  0.09797111  0.16845596  0.80339563  1
  O  O7  1  0.60821186  0.16222228  0.81238315  1
  O  O8  1  0.47564391  0.77743638  0.80471291  1
  O  O9  1  0.98516603  0.80799737  0.80620339  1
  O  O10  1  0.41067716  0.04378318  0.80366783  1
  O  O11  1  0.91533226  0.03099599  0.80427294  1
  O  O12  1  0.39784775  0.98321118  0.69825635  1
  O  O13  1  0.89667251  0.98307609  0.69799878  1
  O  O14  1  0.09367575  0.21254727  0.69762531  1
  O  O15  1  0.58031556  0.17824963  0.69769650  1
  O  O16  1  0.01257904  0.82884613  0.69156547  1
  O  O17  1  0.50437488  0.80813790  0.69904610  1
  O  O18  1  0.39547434  0.80854985  0.19758246  1
  O  O19  1  0.90237654  0.81799348  0.19893080  1
  O  O20  1  0.00768340  0.20266850  0.19882232  1
  O  O21  1  0.50947072  0.19469901  0.19194308  1
  O  O22  1  0.09019745  0.97955216  0.19921694  1
  O  O23  1  0.59358931  0.97584804  0.19780325  1
  O  O24  1  0.42844607  0.36423954  0.63728580  1
  O  O25  1  0.94197663  0.36454709  0.63492424  1
  O  O26  1  0.24116030  0.12001927  0.63397303  1
  O  O27  1  0.75863675  0.14439962  0.63829962  1
  O  O28  1  0.31160377  0.48663375  0.64022168  1
  O  O29  1  0.82301188  0.51856993  0.63380675  1
  O  O30  1  0.43804412  0.51316589  0.13643084  1
  O  O31  1  0.92786603  0.49082064  0.13817556  1
  O  O32  1  0.32396814  0.13298650  0.13430282  1
  O  O33  1  0.81167346  0.13377820  0.14042482  1
  O  O34  1  0.25551348  0.36703174  0.14026871  1
  O  O35  1  0.74230555  0.35992314  0.13456221  1
  O  O36  1  0.23153711  0.29125778  0.02517247  1
  O  O37  1  0.72802654  0.30450562  0.02853193  1
  O  O38  1  0.42337455  0.54256739  0.03078357  1
  O  O39  1  0.91500953  0.54807200  0.02292210  1
  O  O40  1  0.35311897  0.15894128  0.02919723  1
  O  O41  1  0.84912221  0.16061407  0.02413270  1
  O  O42  1  0.22745546  0.14947104  0.52790647  1
  O  O43  1  0.73185843  0.17025491  0.52303020  1
  O  O44  1  0.34732472  0.54078060  0.52404304  1
  O  O45  1  0.85345557  0.54892451  0.52855808  1
  O  O46  1  0.41573128  0.29065826  0.52048911  1
  O  O47  1  0.92504025  0.30270506  0.52925826  1
  O  O48  1  0.26511353  0.68573897  0.96899442  1
  O  O49  1  0.76732616  0.68460070  0.97040455  1
  O  O50  1  0.07570183  0.46578594  0.97000312  1
  O  O51  1  0.57581406  0.47090033  0.97126012  1
  O  O52  1  0.15450529  0.85230187  0.96904239  1
  O  O53  1  0.66201968  0.84165520  0.97022652  1
  O  O54  1  0.26705120  0.84865863  0.46856939  1
  O  O55  1  0.76596617  0.84580224  0.46829517  1
  O  O56  1  0.15874371  0.47287175  0.46924525  1
  O  O57  1  0.65446347  0.45556137  0.46817515  1
  O  O58  1  0.07619193  0.68433506  0.46919934  1
  O  O59  1  0.57493819  0.68918387  0.46931886  1
  O  O60  1  0.06254358  0.64490165  0.36346599  1
  O  O61  1  0.56887770  0.64948611  0.36420129  1
  O  O62  1  0.25579787  0.86476333  0.36268509  1
  O  O63  1  0.76051366  0.87158670  0.36282393  1
  O  O64  1  0.17655789  0.48295837  0.36360869  1
  O  O65  1  0.67986246  0.48715858  0.36275309  1
  O  O66  1  0.06974526  0.48987983  0.86476078  1
  O  O67  1  0.56142104  0.48125404  0.86569714  1
  O  O68  1  0.17956189  0.87122473  0.86363089  1
  O  O69  1  0.67534942  0.86809790  0.86428926  1
  O  O70  1  0.26022531  0.64868943  0.86355353  1
  O  O71  1  0.75621784  0.65057965  0.86432418  1
  O  O72  1  0.01521044  0.82905737  0.41379162  1
  O  O73  1  0.51550044  0.82932390  0.40786610  1
  O  O74  1  0.39690701  0.96297311  0.40919016  1
  O  O75  1  0.89995482  0.96713530  0.41358816  1
  O  O76  1  0.08356399  0.20436669  0.41476668  1
  O  O77  1  0.58881434  0.19847399  0.40718567  1
  O  O78  1  0.01606832  0.20351703  0.91010024  1
  O  O79  1  0.51313717  0.20152722  0.91741681  1
  O  O80  1  0.08841326  0.97694730  0.90785164  1
  O  O81  1  0.58226234  0.95453147  0.91941004  1
  O  O82  1  0.39963330  0.83356686  0.91428847  1
  O  O83  1  0.89792938  0.83136882  0.91084933  1
  O  O84  1  0.48980690  0.17066158  0.59468168  1
  O  O85  1  0.99276248  0.17884671  0.58909233  1
  O  O86  1  0.09795253  0.02154555  0.58783848  1
  O  O87  1  0.59527017  0.00929081  0.59667919  1
  O  O88  1  0.41050521  0.80773748  0.60425134  1
  O  O89  1  0.91026110  0.80865062  0.58749478  1
  O  O90  1  0.49072269  0.80140004  0.09171646  1
  O  O91  1  0.99292541  0.81079650  0.10042474  1
  O  O92  1  0.40996524  0.01337364  0.08868209  1
  O  O93  1  0.90983449  0.01272560  0.10102856  1
  O  O94  1  0.09560603  0.17733084  0.10099192  1
  O  O95  1  0.59861915  0.17296388  0.08886697  1
  O  O96  1  0.34216763  0.16010094  0.74164926  1
  O  O97  1  0.85372202  0.17135543  0.74894624  1
  O  O98  1  0.23114904  0.28829787  0.74777747  1
  O  O99  1  0.73800990  0.30663636  0.73934929  1
  O  O100  1  0.41539585  0.52076759  0.74474044  1
  O  O101  1  0.91332207  0.51902251  0.74016794  1
  O  O102  1  0.34871902  0.53034199  0.24653651  1
  O  O103  1  0.84459464  0.52854316  0.24185645  1
  O  O104  1  0.41033441  0.30257542  0.24102005  1
  O  O105  1  0.91586614  0.30517637  0.24443576  1
  O  O106  1  0.23483128  0.16016907  0.24202210  1
  O  O107  1  0.73174397  0.17509192  0.24724426  1
  O  O108  1  0.32314444  0.51342012  0.92199882  1
  O  O109  1  0.82080940  0.51126173  0.92040741  1
  O  O110  1  0.43193746  0.35889464  0.92538952  1
  O  O111  1  0.93445133  0.35894499  0.91932109  1
  O  O112  1  0.24698492  0.13596257  0.92015201  1
  O  O113  1  0.74336160  0.13137388  0.92261403  1
  O  O114  1  0.32098602  0.13117592  0.41900091  1
  O  O115  1  0.82371631  0.13407277  0.42075638  1
  O  O116  1  0.24374402  0.35475325  0.42130586  1
  O  O117  1  0.74761450  0.35863001  0.41936299  1
  O  O118  1  0.43360460  0.51233517  0.41851586  1
  O  O119  1  0.93269906  0.50860039  0.42295133  1
  O  O120  1  0.18344750  0.50820908  0.07154528  1
  O  O121  1  0.67836709  0.48861436  0.07338854  1
  O  O122  1  0.07284352  0.64224804  0.06985605  1
  O  O123  1  0.56554075  0.63697549  0.07497213  1
  O  O124  1  0.25304541  0.87530802  0.07339708  1
  O  O125  1  0.74465384  0.84691952  0.07195546  1
  O  O126  1  0.17733837  0.86516320  0.57204262  1
  O  O127  1  0.68560491  0.86034944  0.57146918  1
  O  O128  1  0.24572722  0.64218751  0.57106632  1
  O  O129  1  0.75381082  0.63360785  0.57142792  1
  O  O130  1  0.06759509  0.49225269  0.57207401  1
  O  O131  1  0.57216440  0.50456989  0.56921392  1
  O  O132  1  0.15498246  0.84669585  0.25802553  1
  O  O133  1  0.66103753  0.86016942  0.26237656  1
  O  O134  1  0.26754319  0.68539847  0.26127679  1
  O  O135  1  0.77158850  0.69725101  0.25741164  1
  O  O136  1  0.07488610  0.46434796  0.25748029  1
  O  O137  1  0.58099049  0.48576857  0.26408167  1
  O  O138  1  0.16023464  0.46150662  0.76283154  1
  O  O139  1  0.65561412  0.48139622  0.75572954  1
  O  O140  1  0.08404417  0.68175266  0.76413182  1
  O  O141  1  0.57439457  0.69076120  0.75887146  1
  O  O142  1  0.26877905  0.84584366  0.75797379  1
  O  O143  1  0.76969044  0.85488628  0.76253024  1
loop_
_geom_bond_atom_site_label_1
_geom_bond_atom_site_label_2
_geom_bond_distance
_geom_bond_site_symmetry_2
Na0 O75 2.538399 1_555
Na0 O72 2.561929 1_655
Na0 O76 2.563199 1_665
Na0 O89 2.569648 1_555
Na0 O86 2.614917 1_665
Na0 O85 2.628542 1_565
Na1 O79 2.429885 1_555
Na1 O81 2.441556 1_545
Na1 O82 2.470819 1_545
Na1 O92 2.670111 1_556
Na1 O95 2.691621 1_556
Na1 O90 2.772453 1_546
Na2 O112 2.495256 1_555
Na2 O108 2.552948 1_555
Na2 O110 2.556842 1_555
Na2 O100 2.630791 1_555
Na2 O98 2.655844 1_555
Na2 O96 2.728004 1_555
Na3 O109 2.529359 1_555
Na3 O111 2.574397 1_555
Na3 O113 2.576785 1_555
Na3 O97 2.611267 1_555
Na3 O99 2.682406 1_555
Na3 O101 2.690375 1_555
Na4 O118 2.402934 1_555
Na4 O114 2.468636 1_555
Na4 O116 2.517780 1_555
Na4 O102 2.676381 1_555
Na4 O104 2.711418 1_555
Na4 O106 2.823085 1_555
Na5 O117 2.421389 1_555
Na5 O115 2.453123 1_555
Na5 O119 2.495639 1_555
Na5 O107 2.694616 1_555
Na5 O105 2.720047 1_555
Na5 O103 2.808871 1_555
Mg0 O3 2.081433 1_555
Mg0 O75 2.091179 1_555
Mg0 O5 2.099546 1_565
Mg0 O0 2.116134 1_665
Mg0 O72 2.123673 1_655
Mg0 O76 2.163344 1_665
Mg1 O7 1.916111 1_555
Mg1 O10 2.090242 1_555
Mg1 O8 2.092268 1_545
Mg1 O82 2.184347 1_545
Mg1 O79 2.237121 1_555
Mg1 O81 2.299369 1_545
Mg2 O16 1.880138 1_555
Mg2 O13 2.083279 1_455
Mg2 O14 2.085387 1_565
Mg2 O86 2.139821 1_565
Mg2 O85 2.148885 1_465
Mg2 O89 2.155275 1_455
Mg3 O21 1.879472 1_555
Mg3 O23 2.078282 1_545
Mg3 O18 2.093370 1_545
Mg3 O95 2.124900 1_555
Mg3 O90 2.149487 1_545
Mg3 O92 2.154375 1_555
Mg4 O36 1.906556 1_556
Mg4 O110 2.075553 1_555
Mg4 O40 2.091120 1_556
Mg4 O38 2.097696 1_556
Mg4 O112 2.112713 1_555
Mg4 O108 2.116889 1_555
Mg5 O41 1.929103 1_556
Mg5 O39 1.936830 1_556
Mg5 O37 2.102595 1_556
Mg5 O111 2.135868 1_555
Mg5 O113 2.170675 1_555
Mg5 O109 2.190945 1_555
Mg6 O44 1.912888 1_555
Mg6 O46 1.913474 1_555
Mg6 O42 2.087501 1_555
Mg6 O116 2.155554 1_555
Mg6 O118 2.165576 1_555
Mg6 O114 2.255493 1_555
Mg7 O43 1.895801 1_555
Mg7 O47 2.066930 1_555
Mg7 O45 2.076551 1_555
Mg7 O119 2.113867 1_555
Mg7 O115 2.147397 1_555
Mg7 O117 2.163126 1_555
Mg8 O60 2.049988 1_555
Mg8 O62 2.053519 1_555
Mg8 O64 2.056278 1_555
Mg8 O136 2.080120 1_555
Mg8 O134 2.102454 1_555
Mg8 O132 2.116177 1_555
Mg9 O137 1.903643 1_555
Mg9 O61 2.056371 1_555
Mg9 O133 2.062378 1_555
Mg9 O63 2.074671 1_555
Mg9 O65 2.086217 1_555
Mg9 O135 2.102231 1_555
Mg10 O140 1.892098 1_555
Mg10 O142 2.036012 1_555
Mg10 O138 2.059318 1_555
Mg10 O70 2.075268 1_555
Mg10 O66 2.083260 1_555
Mg10 O68 2.086951 1_555
Mg11 O139 1.909598 1_555
Mg11 O141 2.049205 1_555
Mg11 O143 2.087838 1_555
Mg11 O71 2.114615 1_555
Mg11 O67 2.125256 1_555
Mg11 O69 2.173400 1_555
Nb0 O4 1.833238 1_555
Nb0 O77 1.988223 1_555
Nb0 O74 2.037612 1_545
Nb0 O1 2.053166 1_555
Nb0 O73 2.115074 1_545
Nb0 O2 2.124180 1_545
Nb1 O9 1.813566 1_555
Nb1 O6 2.015931 1_665
Nb1 O80 2.031350 1_655
Nb1 O11 2.045354 1_565
Nb1 O83 2.080997 1_555
Nb1 O78 2.203554 1_665
Nb2 O84 1.876642 1_555
Nb2 O87 1.884642 1_555
Nb2 O15 1.884760 1_555
Nb2 O88 1.943954 1_545
Nb2 O12 2.205505 1_545
Nb2 O17 2.223308 1_545
Nb3 O91 1.854956 1_555
Nb3 O94 1.864996 1_665
Nb3 O93 1.866822 1_565
Nb3 O19 2.114697 1_555
Nb3 O22 2.157109 1_655
Nb3 O20 2.166962 1_665
Nb4 O24 1.856669 1_555
Nb4 O28 1.869220 1_555
Nb4 O100 2.018392 1_555
Nb4 O96 2.078561 1_555
Nb4 O26 2.167265 1_555
Nb4 O98 2.211637 1_555
Nb5 O99 1.825981 1_555
Nb5 O101 1.915346 1_555
Nb5 O27 1.930360 1_555
Nb5 O97 2.118160 1_555
Nb5 O29 2.157344 1_555
Nb5 O25 2.289950 1_555
Nb6 O104 1.902089 1_555
Nb6 O34 1.916620 1_555
Nb6 O106 2.044589 1_555
Nb6 O30 2.085293 1_555
Nb6 O102 2.088737 1_555
Nb6 O32 2.090615 1_555
Nb7 O31 1.860799 1_555
Nb7 O33 1.867975 1_555
Nb7 O105 2.077780 1_555
Nb7 O35 2.094186 1_555
Nb7 O103 2.110704 1_555
Nb7 O107 2.170094 1_555
Nb8 O120 1.861834 1_555
Nb8 O122 1.879518 1_555
Nb8 O50 2.039350 1_554
Nb8 O48 2.066163 1_554
Nb8 O124 2.092468 1_555
Nb8 O52 2.195117 1_554
Nb9 O125 1.869094 1_555
Nb9 O53 1.957902 1_554
Nb9 O51 2.031916 1_554
Nb9 O123 2.058232 1_555
Nb9 O49 2.059960 1_554
Nb9 O121 2.063215 1_555
Nb10 O128 1.834089 1_555
Nb10 O130 1.964000 1_555
Nb10 O126 2.008799 1_555
Nb10 O56 2.044449 1_555
Nb10 O58 2.108162 1_555
Nb10 O54 2.118714 1_555
Nb11 O127 1.834009 1_555
Nb11 O131 1.859222 1_555
Nb11 O129 2.022093 1_555
Nb11 O55 2.101456 1_555
Nb11 O59 2.123358 1_555
Nb11 O57 2.242069 1_555
O0 S0 1.462169 1_545
O1 S1 1.525080 1_555
O2 S2 1.513000 1_555
O3 S3 1.464681 1_555
O4 Si0 1.762724 1_555
O5 S4 1.460266 1_555
O6 S5 1.542499 1_555
O7 Si1 1.583782 1_555
O8 S6 1.460080 1_555
O9 Si2 1.797494 1_655
O10 S7 1.467662 1_555
O11 S8 1.536254 1_555
O12 S7 1.470832 1_565
O13 S8 1.450820 1_565
O14 S5 1.452746 1_555
O15 Si1 1.666317 1_555
O16 Si2 1.563519 1_555
O17 S6 1.460969 1_555
O18 S2 1.451450 1_555
O19 S3 1.491423 1_555
O20 S4 1.482194 1_455
O21 Si0 1.562199 1_555
O22 S0 1.481595 1_555
O23 S1 1.453330 1_565
O24 Si3 1.693519 1_555
O25 S9 1.468615 1_555
O26 S10 1.496749 1_555
O27 Si4 1.644704 1_555
O28 Si5 1.686641 1_555
O29 S11 1.493766 1_555
O30 S12 1.514485 1_555
O31 Si6 1.694238 1_555
O32 S13 1.523567 1_555
O33 Si7 1.686014 1_555
O34 Si8 1.655032 1_555
O35 S14 1.521335 1_555
O36 Si8 1.549962 1_555
O37 S14 1.447115 1_555
O38 S12 1.449184 1_555
O39 Si6 1.546003 1_555
O40 S13 1.449381 1_555
O41 Si7 1.546651 1_555
O42 S10 1.451262 1_555
O43 Si4 1.554243 1_555
O44 Si5 1.552993 1_555
O45 S11 1.454313 1_555
O46 Si3 1.547431 1_555
O47 S9 1.455473 1_555
O48 S15 1.541192 1_555
O49 S16 1.522992 1_555
O50 S17 1.542059 1_555
O51 S18 1.551182 1_555
O52 S19 1.493766 1_555
O53 S20 1.586447 1_555
O54 S21 1.497658 1_555
O55 S22 1.520870 1_555
O56 S23 1.538243 1_555
O57 S24 1.479782 1_555
O58 S25 1.520016 1_555
O59 S26 1.507731 1_555
O60 S25 1.464612 1_555
O61 S26 1.446777 1_555
O62 S21 1.454352 1_555
O63 S22 1.458317 1_555
O64 S23 1.461429 1_555
O65 S24 1.447953 1_555
O66 S17 1.443646 1_555
O67 S18 1.453011 1_555
O68 S19 1.444826 1_555
O69 S20 1.451038 1_555
O70 S15 1.453853 1_555
O71 S16 1.444245 1_555
O72 S25 1.482176 1_555
O73 S26 1.518501 1_555
O74 S21 1.535176 1_555
O75 S22 1.487257 1_555
O76 S23 1.479877 1_555
O77 S24 1.559801 1_555
O78 S17 1.496589 1_555
O79 S18 1.472229 1_555
O80 S19 1.540039 1_555
O81 S20 1.467768 1_555
O82 S15 1.478150 1_555
O83 S16 1.523154 1_555
O84 Si3 1.623941 1_555
O85 S9 1.465451 1_555
O86 S10 1.459086 1_555
O87 Si4 1.638352 1_555
O88 Si5 1.600639 1_555
O89 S11 1.462787 1_555
O90 S12 1.464080 1_555
O91 Si6 1.645477 1_555
O92 S13 1.463153 1_555
O93 Si7 1.642312 1_555
O94 Si8 1.651328 1_555
O95 S14 1.461120 1_555
O96 S7 1.546733 1_555
O97 S8 1.519526 1_555
O98 S5 1.511821 1_555
O99 Si1 1.738906 1_555
O100 S6 1.583928 1_555
O101 Si2 1.672071 1_655
O102 S2 1.542823 1_555
O103 S3 1.532344 1_555
O104 Si0 1.705335 1_555
O105 S4 1.553238 1_555
O106 S0 1.543562 1_545
O107 S1 1.526062 1_555
O108 S15 1.476429 1_555
O109 S16 1.461115 1_555
O110 S18 1.474474 1_555
O111 S17 1.468939 1_655
O112 S19 1.467307 1_545
O113 S20 1.467497 1_545
O114 S21 1.457857 1_545
O115 S22 1.478689 1_545
O116 S23 1.473031 1_555
O117 S24 1.462351 1_555
O118 S26 1.468499 1_555
O119 S25 1.478041 1_655
O120 Si8 1.668553 1_555
O121 S14 1.516095 1_555
O122 Si6 1.650183 1_455
O123 S12 1.514474 1_555
O124 S13 1.511264 1_565
O125 Si7 1.659590 1_565
O126 S10 1.538121 1_565
O127 Si4 1.687047 1_565
O128 Si5 1.692871 1_555
O129 S11 1.529302 1_555
O130 S9 1.552223 1_455
O131 Si3 1.664025 1_555
O132 S0 1.452599 1_555
O133 S1 1.440455 1_565
O134 S2 1.448833 1_555
O135 S3 1.446228 1_555
O136 S4 1.454217 1_455
O137 Si0 1.556861 1_555
O138 S5 1.439137 1_555
O139 Si1 1.573040 1_555
O140 Si2 1.552510 1_555
O141 S6 1.450797 1_555
O142 S7 1.452204 1_565
O143 S8 1.439503 1_565
