# generated using pymatgen
data_NaNb3InSiP5O24
_symmetry_space_group_name_H-M   'P 1'
_cell_length_a   8.84259163
_cell_length_b   8.84261808
_cell_length_c   22.89733614
_cell_angle_alpha   89.80582003
_cell_angle_beta   90.09271368
_cell_angle_gamma   120.04216960
_symmetry_Int_Tables_number   1
_chemical_formula_structural   NaNb3InSiP5O24
_chemical_formula_sum   'Na3 Nb9 In3 Si3 P15 O72'
_cell_volume   1549.84701529
_cell_formula_units_Z   3
loop_
 _symmetry_equiv_pos_site_id
 _symmetry_equiv_pos_as_xyz
  1  'x, y, z'
loop_
 _atom_site_type_symbol
 _atom_site_label
 _atom_site_symmetry_multiplicity
 _atom_site_fract_x
 _atom_site_fract_y
 _atom_site_fract_z
 _atom_site_occupancy
  Na  Na0  1  0.00145926  0.00044785  0.99388987  1
  Na  Na1  1  0.66304815  0.33154397  0.83896255  1
  Na  Na2  1  0.66643535  0.33310449  0.33786093  1
  Nb  Nb0  1  0.99404054  0.99774205  0.35907393  1
  Nb  Nb1  1  0.00349713  0.00473216  0.64668589  1
  Nb  Nb2  1  0.99721526  0.00132136  0.14704667  1
  Nb  Nb3  1  0.66469359  0.33363922  0.68652020  1
  Nb  Nb4  1  0.66842372  0.33549132  0.18806945  1
  Nb  Nb5  1  0.33364502  0.66658665  0.02262894  1
  Nb  Nb6  1  0.33302686  0.66567869  0.52391482  1
  Nb  Nb7  1  0.33258836  0.66527896  0.30761392  1
  Nb  Nb8  1  0.33326107  0.66529835  0.80868625  1
  In  In0  1  0.00301182  0.00056163  0.85479451  1
  In  In1  1  0.66673442  0.33387121  0.97806390  1
  In  In2  1  0.66653124  0.33449094  0.47967290  1
  Si  Si0  1  0.71727153  0.71359664  0.25175632  1
  Si  Si1  1  0.99550792  0.28170582  0.25130199  1
  Si  Si2  1  0.28894122  0.28609384  0.75213855  1
  P  P0  1  0.28418822  0.00369805  0.25143848  1
  P  P1  1  0.99665606  0.71049307  0.75061101  1
  P  P2  1  0.71383512  0.00316803  0.75036044  1
  P  P3  1  0.95343744  0.33052209  0.58217227  1
  P  P4  1  0.37630776  0.04448510  0.58234654  1
  P  P5  1  0.67011651  0.62463303  0.58226201  1
  P  P6  1  0.95549629  0.62421986  0.08249843  1
  P  P7  1  0.66813309  0.04558749  0.08259130  1
  P  P8  1  0.37684355  0.33055489  0.08235311  1
  P  P9  1  0.61932322  0.66799726  0.91630537  1
  P  P10  1  0.04762012  0.38151237  0.91666081  1
  P  P11  1  0.33273064  0.95171441  0.91646574  1
  P  P12  1  0.61483638  0.95133833  0.41596951  1
  P  P13  1  0.33483077  0.38370976  0.41567596  1
  P  P14  1  0.04997434  0.66621116  0.41577240  1
  O  O0  1  0.20290269  0.03660944  0.30558657  1
  O  O1  1  0.84108648  0.80252970  0.30868149  1
  O  O2  1  0.96618294  0.15916161  0.30814695  1
  O  O3  1  0.22473175  0.16973191  0.80913389  1
  O  O4  1  0.94672836  0.77076736  0.80519406  1
  O  O5  1  0.82256470  0.04651366  0.80523745  1
  O  O6  1  0.80004674  0.97220151  0.69647538  1
  O  O7  1  0.16626705  0.19222761  0.69438894  1
  O  O8  1  0.02400173  0.82708019  0.69673955  1
  O  O9  1  0.80863155  0.83254315  0.19413745  1
  O  O10  1  0.02932001  0.19517244  0.19369380  1
  O  O11  1  0.17261530  0.97276463  0.19633840  1
  O  O12  1  0.86901175  0.36472047  0.63552446  1
  O  O13  1  0.49713646  0.13203795  0.63567407  1
  O  O14  1  0.63551227  0.50187590  0.63544642  1
  O  O15  1  0.86397578  0.50561766  0.13729067  1
  O  O16  1  0.64149907  0.13430536  0.13708677  1
  O  O17  1  0.49337540  0.35764522  0.13705054  1
  O  O18  1  0.44627207  0.29003602  0.02809064  1
  O  O19  1  0.84362888  0.55561924  0.02849404  1
  O  O20  1  0.71122549  0.15642564  0.02819619  1
  O  O21  1  0.44320585  0.15402842  0.52772054  1
  O  O22  1  0.71026682  0.55671604  0.52758102  1
  O  O23  1  0.84613960  0.29140226  0.52721920  1
  O  O24  1  0.52045538  0.67770997  0.97221028  1
  O  O25  1  0.15795058  0.48116256  0.97234119  1
  O  O26  1  0.32498526  0.84217190  0.97257892  1
  O  O27  1  0.52800845  0.83974725  0.47153680  1
  O  O28  1  0.31088790  0.47119009  0.47111560  1
  O  O29  1  0.16086262  0.68788964  0.47145618  1
  O  O30  1  0.14400552  0.64836347  0.36178313  1
  O  O31  1  0.50406038  0.85843964  0.36180652  1
  O  O32  1  0.35328895  0.49751608  0.36156054  1
  O  O33  1  0.14614807  0.49137787  0.86151898  1
  O  O34  1  0.34394163  0.85479629  0.86159268  1
  O  O35  1  0.50949712  0.65686585  0.86118701  1
  O  O36  1  0.04220852  0.83718831  0.40816238  1
  O  O37  1  0.79580819  0.96064215  0.40897175  1
  O  O38  1  0.16682615  0.20325387  0.40757899  1
  O  O39  1  0.03780215  0.20487074  0.91745807  1
  O  O40  1  0.16300779  0.95642926  0.91838539  1
  O  O41  1  0.79559944  0.83637470  0.91606705  1
  O  O42  1  0.98074128  0.17439989  0.59582997  1
  O  O43  1  0.19194606  0.01259900  0.59684230  1
  O  O44  1  0.82172882  0.80663474  0.59755886  1
  O  O45  1  0.98698071  0.81037268  0.09459688  1
  O  O46  1  0.82652368  0.01643566  0.09361390  1
  O  O47  1  0.19139613  0.17249838  0.09384067  1
  O  O48  1  0.68708844  0.16134537  0.73662535  1
  O  O49  1  0.48582587  0.31879877  0.73631844  1
  O  O50  1  0.84314534  0.52285579  0.73646144  1
  O  O51  1  0.69002994  0.51857655  0.24080024  1
  O  O52  1  0.82303895  0.30090217  0.24067753  1
  O  O53  1  0.46828682  0.16441844  0.24131392  1
  O  O54  1  0.62725895  0.49944297  0.91724776  1
  O  O55  1  0.87154664  0.37492815  0.91736587  1
  O  O56  1  0.50084733  0.12905817  0.91772605  1
  O  O57  1  0.63807623  0.13313770  0.41848698  1
  O  O58  1  0.49642261  0.36516979  0.41803995  1
  O  O59  1  0.86853346  0.50624745  0.41828906  1
  O  O60  1  0.35827825  0.49507548  0.07505292  1
  O  O61  1  0.13695551  0.63940835  0.07537733  1
  O  O62  1  0.50470702  0.86191742  0.07533690  1
  O  O63  1  0.35885535  0.86090614  0.57354440  1
  O  O64  1  0.50261451  0.64050873  0.57329990  1
  O  O65  1  0.13926007  0.49492740  0.57322015  1
  O  O66  1  0.30520954  0.84207488  0.26087243  1
  O  O67  1  0.52729623  0.69655066  0.26181116  1
  O  O68  1  0.16337873  0.47555789  0.26168135  1
  O  O69  1  0.31087115  0.48077713  0.75953003  1
  O  O70  1  0.16238766  0.69460641  0.75849294  1
  O  O71  1  0.52876789  0.84178075  0.75820637  1
loop_
_geom_bond_atom_site_label_1
_geom_bond_atom_site_label_2
_geom_bond_distance
_geom_bond_site_symmetry_2
Na0 O40 2.397992 1_545
Na0 O39 2.415023 1_555
Na0 O41 2.440592 1_445
Na0 O47 2.797471 1_556
Na0 O46 2.803463 1_456
Na0 O45 2.813869 1_446
Na1 O56 2.435304 1_555
Na1 O54 2.451092 1_555
Na1 O55 2.460669 1_555
Na1 O49 2.793806 1_555
Na1 O48 2.854276 1_555
Na1 O50 2.862530 1_555
Na2 O57 2.476505 1_555
Na2 O58 2.479962 1_555
Na2 O59 2.489589 1_555
Na2 O51 2.703091 1_555
Na2 O52 2.712838 1_555
Na2 O53 2.752265 1_555
Nb0 O2 1.948765 1_565
Nb0 O1 1.952223 1_555
Nb0 O37 1.978323 1_555
Nb0 O36 2.013325 1_655
Nb0 O38 2.024464 1_665
Nb0 O0 2.097126 1_665
Nb1 O7 1.905600 1_555
Nb1 O42 1.984204 1_455
Nb1 O43 1.993423 1_555
Nb1 O8 2.021504 1_545
Nb1 O6 2.026132 1_445
Nb1 O44 2.026235 1_445
Nb2 O9 1.916713 1_545
Nb2 O10 1.919352 1_655
Nb2 O46 1.996945 1_555
Nb2 O47 2.028686 1_655
Nb2 O11 2.031684 1_645
Nb2 O45 2.040067 1_545
Nb3 O49 1.901582 1_555
Nb3 O50 1.990148 1_555
Nb3 O48 1.991506 1_555
Nb3 O14 2.004721 1_555
Nb3 O13 2.022992 1_555
Nb3 O12 2.051980 1_555
Nb4 O51 1.953999 1_555
Nb4 O52 1.955680 1_555
Nb4 O15 1.998768 1_555
Nb4 O17 2.023662 1_555
Nb4 O16 2.042889 1_555
Nb4 O53 2.054406 1_555
Nb5 O26 1.958718 1_554
Nb5 O25 1.970873 1_554
Nb5 O24 1.978354 1_554
Nb5 O60 2.026331 1_555
Nb5 O62 2.029817 1_555
Nb5 O61 2.031703 1_555
Nb6 O65 1.973429 1_555
Nb6 O64 1.975852 1_555
Nb6 O63 1.985296 1_555
Nb6 O29 2.022589 1_555
Nb6 O27 2.029087 1_555
Nb6 O28 2.033176 1_555
Nb7 O68 1.911248 1_555
Nb7 O67 1.915168 1_555
Nb7 O66 2.003715 1_555
Nb7 O32 2.004672 1_555
Nb7 O30 2.024165 1_555
Nb7 O31 2.042387 1_555
Nb8 O69 1.912226 1_555
Nb8 O35 1.997225 1_555
Nb8 O33 2.003060 1_555
Nb8 O71 2.013203 1_555
Nb8 O70 2.013825 1_555
Nb8 O34 2.034505 1_555
In0 O3 2.057703 1_555
In0 O5 2.153814 1_455
In0 O4 2.160493 1_445
In0 O41 2.183652 1_445
In0 O40 2.194608 1_545
In0 O39 2.208376 1_555
In1 O18 2.123763 1_556
In1 O20 2.130466 1_556
In1 O19 2.136216 1_556
In1 O55 2.165587 1_555
In1 O56 2.165843 1_555
In1 O54 2.168145 1_555
In2 O23 2.109571 1_555
In2 O22 2.113444 1_555
In2 O21 2.120470 1_555
In2 O58 2.174144 1_555
In2 O59 2.179474 1_555
In2 O57 2.182530 1_555
O0 P0 1.534056 1_555
O1 Si0 1.629816 1_555
O2 Si1 1.626591 1_555
O3 Si2 1.578788 1_555
O4 P1 1.510929 1_555
O5 P2 1.510151 1_555
O6 P2 1.546869 1_565
O7 Si2 1.647854 1_555
O8 P1 1.544537 1_455
O9 Si0 1.625661 1_555
O10 Si1 1.628509 1_455
O11 P0 1.538843 1_565
O12 P3 1.540336 1_555
O13 P4 1.551088 1_555
O14 P5 1.553895 1_555
O15 P6 1.572698 1_555
O16 P7 1.555794 1_555
O17 P8 1.561559 1_555
O18 P8 1.508223 1_555
O19 P6 1.508597 1_555
O20 P7 1.508771 1_555
O21 P4 1.507693 1_555
O22 P5 1.508104 1_555
O23 P3 1.507844 1_555
O24 P9 1.577917 1_555
O25 P10 1.580044 1_555
O26 P11 1.587199 1_555
O27 P12 1.555027 1_555
O28 P13 1.557610 1_555
O29 P14 1.559892 1_555
O30 P14 1.542894 1_555
O31 P12 1.539373 1_555
O32 P13 1.549993 1_555
O33 P10 1.563583 1_555
O34 P11 1.554259 1_555
O35 P9 1.564220 1_555
O36 P14 1.556601 1_555
O37 P12 1.569138 1_555
O38 P13 1.554078 1_555
O39 P10 1.520417 1_555
O40 P11 1.522799 1_555
O41 P9 1.524049 1_555
O42 P3 1.546775 1_555
O43 P4 1.545383 1_555
O44 P5 1.533637 1_555
O45 P6 1.551711 1_555
O46 P7 1.565790 1_555
O47 P8 1.554259 1_555
O48 P2 1.561800 1_555
O49 Si2 1.656211 1_555
O50 P1 1.564494 1_555
O51 Si0 1.637565 1_555
O52 Si1 1.634493 1_555
O53 P0 1.551155 1_555
O54 P9 1.526881 1_555
O55 P10 1.528739 1_655
O56 P11 1.528374 1_545
O57 P12 1.516471 1_545
O58 P13 1.518479 1_555
O59 P14 1.518444 1_655
O60 P8 1.552001 1_555
O61 P6 1.550545 1_455
O62 P7 1.550721 1_565
O63 P4 1.565529 1_565
O64 P5 1.569281 1_555
O65 P3 1.569293 1_455
O66 P0 1.545161 1_565
O67 Si0 1.626403 1_555
O68 Si1 1.628546 1_455
O69 Si2 1.642394 1_555
O70 P1 1.550837 1_455
O71 P2 1.551691 1_565
