# generated using pymatgen
data_NaCa2Ge2PS5O24
_symmetry_space_group_name_H-M   'P 1'
_cell_length_a   8.77393756
_cell_length_b   8.81605675
_cell_length_c   22.89766809
_cell_angle_alpha   89.20860848
_cell_angle_beta   89.91590068
_cell_angle_gamma   119.97243163
_symmetry_Int_Tables_number   1
_chemical_formula_structural   NaCa2Ge2PS5O24
_chemical_formula_sum   'Na3 Ca6 Ge6 P3 S15 O72'
_cell_volume   1534.08592912
_cell_formula_units_Z   3
loop_
 _symmetry_equiv_pos_site_id
 _symmetry_equiv_pos_as_xyz
  1  'x, y, z'
loop_
 _atom_site_type_symbol
 _atom_site_label
 _atom_site_symmetry_multiplicity
 _atom_site_fract_x
 _atom_site_fract_y
 _atom_site_fract_z
 _atom_site_occupancy
  Na  Na0  1  0.66799688  0.33324194  0.83138052  1
  Na  Na1  1  0.65920885  0.33521147  0.33228675  1
  Na  Na2  1  0.33678923  0.66930401  0.16691145  1
  Ca  Ca0  1  0.99974580  0.00130706  0.85902575  1
  Ca  Ca1  1  0.66559759  0.33141723  0.68486792  1
  Ca  Ca2  1  0.66362611  0.33366624  0.19409286  1
  Ca  Ca3  1  0.66712578  0.33600465  0.48539172  1
  Ca  Ca4  1  0.33372849  0.66486453  0.02308676  1
  Ca  Ca5  1  0.33374108  0.66739103  0.52060875  1
  Ge  Ge0  1  0.00083552  0.99614266  0.34842554  1
  Ge  Ge1  1  0.99627301  0.99575303  0.64926265  1
  Ge  Ge2  1  0.99707291  0.98210994  0.14886405  1
  Ge  Ge3  1  0.67246620  0.32848985  0.97709833  1
  Ge  Ge4  1  0.34421515  0.68011688  0.31247207  1
  Ge  Ge5  1  0.31719152  0.65235277  0.81216315  1
  P  P0  1  0.27160948  0.98161086  0.25291069  1
  P  P1  1  0.71208323  0.72819110  0.25338121  1
  P  P2  1  0.03716415  0.39003302  0.91698703  1
  S  S0  1  0.01836025  0.29151357  0.25275487  1
  S  S1  1  0.28676410  0.30537657  0.75177942  1
  S  S2  1  0.01708010  0.71401487  0.75228392  1
  S  S3  1  0.69114175  0.97680862  0.75275960  1
  S  S4  1  0.96695808  0.31493189  0.58790867  1
  S  S5  1  0.34838239  0.03232330  0.58803904  1
  S  S6  1  0.68461792  0.65180654  0.58767279  1
  S  S7  1  0.95129229  0.63660355  0.08578493  1
  S  S8  1  0.68966097  0.05072549  0.08650307  1
  S  S9  1  0.35883934  0.30895766  0.08638760  1
  S  S10  1  0.61027965  0.64115920  0.91625231  1
  S  S11  1  0.35589991  0.96809072  0.91660287  1
  S  S12  1  0.63915105  0.95973561  0.40763780  1
  S  S13  1  0.31801922  0.36602457  0.40629196  1
  S  S14  1  0.04573014  0.67896923  0.40753159  1
  O  O0  1  0.18326823  0.01249280  0.30621867  1
  O  O1  1  0.82633488  0.82108329  0.30656169  1
  O  O2  1  0.99012867  0.18109841  0.30620597  1
  O  O3  1  0.20868031  0.19984135  0.80341969  1
  O  O4  1  0.99074002  0.79177585  0.80319557  1
  O  O5  1  0.79828081  0.00288153  0.80308275  1
  O  O6  1  0.77249434  0.95248532  0.69741347  1
  O  O7  1  0.18105519  0.22613417  0.69748769  1
  O  O8  1  0.04313491  0.82222870  0.69691838  1
  O  O9  1  0.79390389  0.84136727  0.19554215  1
  O  O10  1  0.04509938  0.21249146  0.19942165  1
  O  O11  1  0.15776356  0.95007178  0.19633367  1
  O  O12  1  0.88901905  0.34509207  0.63927698  1
  O  O13  1  0.45791690  0.10934266  0.63887902  1
  O  O14  1  0.65279247  0.54230151  0.63937978  1
  O  O15  1  0.87017923  0.52880458  0.13722063  1
  O  O16  1  0.66262628  0.13414403  0.13617555  1
  O  O17  1  0.46835986  0.33470868  0.13660416  1
  O  O18  1  0.43605246  0.28615769  0.03031544  1
  O  O19  1  0.85014587  0.56048786  0.03062283  1
  O  O20  1  0.71487252  0.15424179  0.02921215  1
  O  O21  1  0.42199805  0.14107594  0.53460172  1
  O  O22  1  0.71980896  0.57935625  0.53494025  1
  O  O23  1  0.85964852  0.28278063  0.53507340  1
  O  O24  1  0.53588813  0.66473262  0.96893778  1
  O  O25  1  0.13892902  0.47037349  0.97049046  1
  O  O26  1  0.33786103  0.87214363  0.96986627  1
  O  O27  1  0.56298631  0.85444768  0.45975004  1
  O  O28  1  0.29014877  0.43931782  0.45848076  1
  O  O29  1  0.14565022  0.70392646  0.46005442  1
  O  O30  1  0.13587127  0.64874643  0.35499408  1
  O  O31  1  0.51901010  0.87527075  0.35463093  1
  O  O32  1  0.35501295  0.49043908  0.35291892  1
  O  O33  1  0.12113913  0.51233125  0.85863126  1
  O  O34  1  0.39249646  0.89318770  0.86308080  1
  O  O35  1  0.49757074  0.60881821  0.86251812  1
  O  O36  1  0.03387416  0.84390022  0.40016337  1
  O  O37  1  0.81523858  0.97113467  0.39914921  1
  O  O38  1  0.15330247  0.19157761  0.39774461  1
  O  O39  1  0.00084460  0.20946238  0.90593796  1
  O  O40  1  0.20984087  0.99709606  0.90888812  1
  O  O41  1  0.78661428  0.78328452  0.90710768  1
  O  O42  1  0.96802322  0.14311623  0.59743812  1
  O  O43  1  0.17514207  0.03149085  0.59775611  1
  O  O44  1  0.85578031  0.82484460  0.59668727  1
  O  O45  1  0.95401519  0.81145047  0.09192387  1
  O  O46  1  0.85824696  0.04369301  0.09334867  1
  O  O47  1  0.18199210  0.13958578  0.09442088  1
  O  O48  1  0.65909473  0.12409137  0.74601194  1
  O  O49  1  0.46831409  0.34139164  0.74592168  1
  O  O50  1  0.87153183  0.53415866  0.74624430  1
  O  O51  1  0.69063121  0.54821397  0.25216163  1
  O  O52  1  0.86410847  0.31275845  0.25087599  1
  O  O53  1  0.45406291  0.13713318  0.25092351  1
  O  O54  1  0.61997214  0.47094780  0.92241454  1
  O  O55  1  0.84647705  0.37522711  0.92302318  1
  O  O56  1  0.52458510  0.15180468  0.92177336  1
  O  O57  1  0.66243411  0.13592567  0.40953398  1
  O  O58  1  0.47152570  0.34156808  0.40819331  1
  O  O59  1  0.86794514  0.52626464  0.40895105  1
  O  O60  1  0.32638413  0.45638328  0.08220955  1
  O  O61  1  0.13347891  0.67440664  0.08182324  1
  O  O62  1  0.54043868  0.87225287  0.08172822  1
  O  O63  1  0.31131141  0.85396620  0.57985495  1
  O  O64  1  0.54235300  0.68872547  0.57922102  1
  O  O65  1  0.14659281  0.45608272  0.57927503  1
  O  O66  1  0.28381102  0.80817605  0.25893456  1
  O  O67  1  0.52454106  0.71417725  0.25841933  1
  O  O68  1  0.18220974  0.46873084  0.25746418  1
  O  O69  1  0.29194226  0.48149665  0.75729780  1
  O  O70  1  0.19014691  0.71171177  0.75698209  1
  O  O71  1  0.51434320  0.80667119  0.75966395  1
loop_
_geom_bond_atom_site_label_1
_geom_bond_atom_site_label_2
_geom_bond_distance
_geom_bond_site_symmetry_2
Na0 O56 2.513118 1_555
Na0 O55 2.538607 1_555
Na0 O54 2.564147 1_555
Na0 O50 2.619287 1_555
Na0 O49 2.652496 1_555
Na0 O48 2.680137 1_555
Na1 O58 2.412935 1_555
Na1 O57 2.485984 1_555
Na1 O59 2.506318 1_555
Na1 O51 2.520794 1_555
Na1 O53 2.592155 1_555
Na1 O52 2.664965 1_555
Na2 O67 2.577288 1_555
Na2 O68 2.599928 1_555
Na2 O66 2.606131 1_555
Na2 O62 2.626299 1_555
Na2 O61 2.658571 1_555
Na2 O60 2.687629 1_555
Ca0 O39 2.135038 1_655
Ca0 O41 2.178913 1_545
Ca0 O3 2.184236 1_655
Ca0 O40 2.185473 1_645
Ca0 O5 2.190043 1_555
Ca0 O4 2.229907 1_545
Ca1 O12 2.168276 1_555
Ca1 O14 2.170151 1_555
Ca1 O13 2.181822 1_555
Ca1 O49 2.259797 1_555
Ca1 O48 2.264758 1_555
Ca1 O50 2.298811 1_555
Ca2 O17 2.165673 1_555
Ca2 O15 2.180787 1_555
Ca2 O53 2.196305 1_555
Ca2 O16 2.214033 1_555
Ca2 O51 2.241501 1_555
Ca2 O52 2.267753 1_555
Ca3 O21 2.257213 1_555
Ca3 O23 2.269466 1_555
Ca3 O22 2.276296 1_555
Ca3 O59 2.436905 1_555
Ca3 O57 2.478388 1_555
Ca3 O58 2.482527 1_555
Ca4 O25 2.108690 1_554
Ca4 O24 2.163123 1_554
Ca4 O26 2.167452 1_554
Ca4 O60 2.242255 1_555
Ca4 O61 2.246497 1_555
Ca4 O62 2.279679 1_555
Ca5 O65 2.199815 1_555
Ca5 O64 2.203849 1_555
Ca5 O63 2.229111 1_555
Ca5 O29 2.296792 1_555
Ca5 O27 2.306769 1_555
Ca5 O28 2.350571 1_555
Ge0 O0 1.810511 1_565
Ge0 O1 1.824586 1_455
Ge0 O36 1.906504 1_555
Ge0 O37 1.917805 1_455
Ge0 O2 1.926644 1_465
Ge0 O38 1.946453 1_565
Ge1 O42 1.854034 1_565
Ge1 O44 1.854104 1_555
Ge1 O43 1.855648 1_665
Ge1 O8 2.069722 1_655
Ge1 O6 2.109461 1_555
Ge1 O7 2.179474 1_665
Ge2 O45 1.895778 1_555
Ge2 O9 1.899307 1_555
Ge2 O11 1.908644 1_655
Ge2 O47 1.951800 1_665
Ge2 O46 2.010105 1_565
Ge2 O10 2.203215 1_665
Ge3 O55 1.840026 1_555
Ge3 O56 1.937677 1_555
Ge3 O54 1.973199 1_555
Ge3 O20 2.108073 1_556
Ge3 O19 2.237107 1_556
Ge3 O18 2.265681 1_556
Ge4 O66 1.902571 1_555
Ge4 O67 1.906455 1_555
Ge4 O31 1.912544 1_555
Ge4 O32 1.943904 1_555
Ge4 O30 1.961699 1_555
Ge4 O68 2.122085 1_555
Ge5 O33 1.857841 1_555
Ge5 O69 1.901548 1_555
Ge5 O70 1.918738 1_555
Ge5 O71 1.971166 1_555
Ge5 O35 2.140449 1_555
Ge5 O34 2.229992 1_555
O0 P0 1.543403 1_545
O1 P1 1.539233 1_555
O2 S0 1.494035 1_655
O3 S1 1.436498 1_555
O4 S2 1.435953 1_655
O5 S3 1.434870 1_545
O6 S3 1.522923 1_555
O7 S1 1.507872 1_555
O8 S2 1.522304 1_555
O9 P1 1.584267 1_555
O10 S0 1.489192 1_555
O11 P0 1.577841 1_555
O12 S4 1.452501 1_555
O13 S5 1.453595 1_555
O14 S6 1.452537 1_555
O15 S7 1.444860 1_555
O16 S8 1.444771 1_555
O17 S9 1.445524 1_555
O18 S9 1.512763 1_555
O19 S7 1.504969 1_555
O20 S8 1.538521 1_555
O21 S5 1.476522 1_555
O22 S6 1.475977 1_555
O23 S4 1.475333 1_555
O24 S10 1.436908 1_555
O25 P2 1.481579 1_555
O26 S11 1.437069 1_555
O27 S12 1.441978 1_555
O28 S13 1.443500 1_555
O29 S14 1.442581 1_555
O30 S14 1.536326 1_555
O31 S12 1.543772 1_555
O32 S13 1.551800 1_555
O33 P2 1.629229 1_555
O34 S11 1.508028 1_555
O35 S10 1.518096 1_555
O36 S14 1.515891 1_555
O37 S12 1.509401 1_555
O38 S13 1.510147 1_555
O39 P2 1.484676 1_555
O40 S11 1.437259 1_555
O41 S10 1.436088 1_555
O42 S4 1.532040 1_555
O43 S5 1.532245 1_555
O44 S6 1.531553 1_555
O45 S7 1.538060 1_555
O46 S8 1.519335 1_555
O47 S9 1.532209 1_555
O48 S3 1.465705 1_545
O49 S1 1.465951 1_555
O50 S2 1.465437 1_655
O51 P1 1.502209 1_555
O52 S0 1.456651 1_655
O53 P0 1.499879 1_545
O54 S10 1.549392 1_555
O55 P2 1.617388 1_655
O56 S11 1.561546 1_545
O57 S12 1.463285 1_545
O58 S13 1.467130 1_555
O59 S14 1.465288 1_655
O60 S9 1.464901 1_555
O61 S7 1.463192 1_455
O62 S8 1.465829 1_565
O63 S5 1.452817 1_565
O64 S6 1.451328 1_555
O65 S4 1.450631 1_455
O66 P0 1.589381 1_555
O67 P1 1.591261 1_555
O68 S0 1.510041 1_555
O69 S1 1.537469 1_555
O70 S2 1.532639 1_555
O71 S3 1.532655 1_555
