# generated using pymatgen
data_MgTi2Zn2(SiO5)2
_symmetry_space_group_name_H-M   'P 1'
_cell_length_a   5.55496568
_cell_length_b   7.38597302
_cell_length_c   8.24292962
_cell_angle_alpha   91.01838673
_cell_angle_beta   42.29767148
_cell_angle_gamma   107.32924788
_symmetry_Int_Tables_number   1
_chemical_formula_structural   MgTi2Zn2(SiO5)2
_chemical_formula_sum   'Mg1 Ti2 Zn2 Si2 O10'
_cell_volume   206.18944513
_cell_formula_units_Z   1
loop_
 _symmetry_equiv_pos_site_id
 _symmetry_equiv_pos_as_xyz
  1  'x, y, z'
loop_
 _atom_site_type_symbol
 _atom_site_label
 _atom_site_symmetry_multiplicity
 _atom_site_fract_x
 _atom_site_fract_y
 _atom_site_fract_z
 _atom_site_occupancy
  Mg  Mg0  1  0.01717600  0.83281700  0.14360800  1
  Ti  Ti0  1  0.44732900  0.46860800  0.53413600  1
  Ti  Ti1  1  0.45511900  0.99496200  0.52512900  1
  Zn  Zn0  1  0.75697100  0.35327700  0.08445400  1
  Zn  Zn1  1  0.82817200  0.87183100  0.60456600  1
  Si  Si0  1  0.43812400  0.23230800  0.89535800  1
  Si  Si1  1  0.47629800  0.72894600  0.14586700  1
  O  O0  1  0.47772000  0.04125200  0.77282800  1
  O  O1  1  0.31692600  0.36502700  0.82815300  1
  O  O2  1  0.38229000  0.88462700  0.31566900  1
  O  O3  1  0.63580200  0.60347200  0.18909100  1
  O  O4  1  0.09173500  0.61238500  0.22274900  1
  O  O5  1  0.84492600  0.85564300  0.83758400  1
  O  O6  1  0.83181800  0.36057700  0.81038900  1
  O  O7  1  0.07100500  0.10641700  0.19974800  1
  O  O8  1  0.53472700  0.74815600  0.54896100  1
  O  O9  1  0.46991300  0.23702600  0.42082100  1
loop_
_geom_bond_atom_site_label_1
_geom_bond_atom_site_label_2
_geom_bond_distance
_geom_bond_site_symmetry_2
Mg0 O4 2.021629 1_555
Mg0 O7 2.049069 1_565
Mg0 O3 2.051311 1_455
Mg0 O0 2.123738 1_564
Mg0 O8 2.137009 1_455
O0 Si0 1.692748 1_555
O0 Ti1 2.151809 1_545
O0 Zn1 2.162083 1_545
O1 Si0 1.638668 1_555
O1 Ti0 2.030362 1_555
O1 Zn0 2.066553 1_456
O2 Si1 1.665286 1_555
O2 Zn1 2.036107 1_455
O2 Ti1 2.143757 1_555
O3 Si1 1.654927 1_555
O3 Zn0 2.106500 1_555
O3 Ti0 2.291751 1_555
O4 Si1 1.620918 1_555
O4 Ti0 2.184052 1_455
O5 Si1 1.664803 1_556
O5 Zn1 1.997868 1_555
O5 Ti1 2.069664 1_655
O6 Si0 1.641423 1_555
O6 Zn0 1.969973 1_556
O6 Ti0 2.105742 1_655
O7 Si0 1.644010 1_554
O7 Ti1 2.098213 1_445
O8 Zn1 1.976103 1_555
O8 Ti0 1.998849 1_555
O8 Ti1 2.044160 1_555
O9 Zn0 1.922525 1_555
O9 Ti0 1.926538 1_555
O9 Ti1 1.950670 1_545
