# generated using pymatgen
data_Ba2YbMgNbO6
_symmetry_space_group_name_H-M   'P 1'
_cell_length_a   6.26670615
_cell_length_b   6.26670572
_cell_length_c   5.88452553
_cell_angle_alpha   61.99769928
_cell_angle_beta   61.99770133
_cell_angle_gamma   59.15529389
_symmetry_Int_Tables_number   1
_chemical_formula_structural   Ba2YbMgNbO6
_chemical_formula_sum   'Ba2 Yb1 Mg1 Nb1 O6'
_cell_volume   167.01187878
_cell_formula_units_Z   1
loop_
 _symmetry_equiv_pos_site_id
 _symmetry_equiv_pos_as_xyz
  1  'x, y, z'
loop_
 _atom_site_type_symbol
 _atom_site_label
 _atom_site_symmetry_multiplicity
 _atom_site_fract_x
 _atom_site_fract_y
 _atom_site_fract_z
 _atom_site_occupancy
  Ba  Ba0  1  0.80821536  0.80821536  0.69178464  1
  Ba  Ba1  1  0.19178464  0.19178464  0.30821536  1
  Yb  Yb0  1  0.50000000  0.50000000  0.50000000  1
  Mg  Mg0  1  0.50000000  0.50000000  0.00000000  1
  Nb  Nb0  1  0.00000000  0.00000000  0.00000000  1
  O  O0  1  0.26677740  0.73322260  0.76851554  1
  O  O1  1  0.26677740  0.73322260  0.23148446  1
  O  O2  1  0.73322260  0.26677740  0.76851554  1
  O  O3  1  0.24109650  0.24109650  0.75890350  1
  O  O4  1  0.73322260  0.26677740  0.23148446  1
  O  O5  1  0.75890350  0.75890350  0.24109650  1
loop_
_geom_bond_atom_site_label_1
_geom_bond_atom_site_label_2
_geom_bond_distance
_geom_bond_site_symmetry_2
Ba0 Mg0 2.827961 1_556
Ba0 O2 2.883928 1_565
Ba0 O0 2.883928 1_655
Ba0 O4 2.883928 1_565
Ba0 O1 2.883928 1_655
Ba0 O5 2.976847 1_555
Ba0 O5 2.976848 1_556
Ba0 O3 3.153969 1_655
Ba0 O3 3.153970 1_565
Ba1 Mg0 2.827961 1_555
Ba1 O1 2.883928 1_545
Ba1 O4 2.883928 1_455
Ba1 O0 2.883928 1_545
Ba1 O2 2.883928 1_455
Ba1 O3 2.976847 1_555
Ba1 O3 2.976848 1_554
Ba1 O5 3.153969 1_455
Ba1 O5 3.153970 1_545
Mg0 O1 1.984264 1_555
Mg0 O2 1.984264 1_554
Mg0 O4 1.984264 1_555
Mg0 O0 1.984264 1_554
Nb0 O4 2.139960 1_455
Nb0 O1 2.139960 1_545
Nb0 O0 2.139960 1_544
Nb0 O2 2.139960 1_454
Nb0 O3 2.212127 1_554
Nb0 O5 2.212127 1_445
O0 Yb0 2.139732 1_555
O1 Yb0 2.139732 1_555
O2 Yb0 2.139732 1_555
O3 Yb0 2.375511 1_555
O4 Yb0 2.139732 1_555
O5 Yb0 2.375511 1_555
