# generated using pymatgen
data_Na4Mg(BiO3)2
_symmetry_space_group_name_H-M   'P 1'
_cell_length_a   6.66215308
_cell_length_b   6.64808737
_cell_length_c   6.40009702
_cell_angle_alpha   82.39358500
_cell_angle_beta   106.47317350
_cell_angle_gamma   58.94298348
_symmetry_Int_Tables_number   1
_chemical_formula_structural   Na4Mg(BiO3)2
_chemical_formula_sum   'Na4 Mg1 Bi2 O6'
_cell_volume   219.05692294
_cell_formula_units_Z   1
loop_
 _symmetry_equiv_pos_site_id
 _symmetry_equiv_pos_as_xyz
  1  'x, y, z'
loop_
 _atom_site_type_symbol
 _atom_site_label
 _atom_site_symmetry_multiplicity
 _atom_site_fract_x
 _atom_site_fract_y
 _atom_site_fract_z
 _atom_site_occupancy
  Na  Na0  1  0.54698527  0.61481144  0.54464814  1
  Na  Na1  1  0.33827114  0.28751301  0.42010155  1
  Na  Na2  1  0.62451980  0.69498945  0.04873672  1
  Na  Na3  1  0.48239169  0.31456850  0.91623973  1
  Mg  Mg0  1  0.00302589  0.78257169  0.91876155  1
  Bi  Bi0  1  0.93264580  0.95225066  0.43204322  1
  Bi  Bi1  1  0.07826920  0.17994725  0.99114030  1
  O  O0  1  0.25994968  0.73376916  0.77572104  1
  O  O1  1  0.15975710  0.71934775  0.25642319  1
  O  O2  1  0.88760916  0.57284938  0.83890237  1
  O  O3  1  0.72894821  0.14607522  0.72568163  1
  O  O4  1  0.48053951  0.04841348  0.18159826  1
  O  O5  1  0.95454954  0.25668102  0.27615629  1
loop_
_geom_bond_atom_site_label_1
_geom_bond_atom_site_label_2
_geom_bond_distance
_geom_bond_site_symmetry_2
Na0 O2 2.357575 1_555
Na0 O1 2.377583 1_555
Na0 O0 2.611986 1_555
Na0 O3 2.621561 1_555
Na1 O3 2.363164 1_555
Na1 O4 2.379799 1_555
Na1 O1 2.393360 1_555
Na1 O5 2.584754 1_455
Na2 O2 2.385408 1_554
Na2 O4 2.414507 1_565
Na2 O0 2.417970 1_554
Na2 O5 2.428062 1_555
Na3 O3 2.244913 1_555
Na3 O0 2.256334 1_555
Na3 O4 2.292198 1_556
Mg0 O2 1.966807 1_455
Mg0 O1 1.991010 1_556
Mg0 O3 2.019411 1_465
Mg0 O0 2.065789 1_555
Bi0 O0 2.206544 1_655
Bi0 O1 2.226678 1_655
Bi0 O5 2.228342 1_565
Bi0 O4 2.655932 1_565
Bi0 O3 2.705009 1_565
Bi1 O2 2.141640 1_455
Bi1 O4 2.209063 1_556
Bi1 O5 2.220870 1_456
Bi1 O3 2.598615 1_455
