# generated using pymatgen
data_MgTi3CuO8
_symmetry_space_group_name_H-M   'P 1'
_cell_length_a   3.87707200
_cell_length_b   3.88593900
_cell_length_c   9.81244800
_cell_angle_alpha   90.00000000
_cell_angle_beta   90.00000000
_cell_angle_gamma   90.00000000
_symmetry_Int_Tables_number   1
_chemical_formula_structural   MgTi3CuO8
_chemical_formula_sum   'Mg1 Ti3 Cu1 O8'
_cell_volume   147.83498223
_cell_formula_units_Z   1
loop_
 _symmetry_equiv_pos_site_id
 _symmetry_equiv_pos_as_xyz
  1  'x, y, z'
loop_
 _atom_site_type_symbol
 _atom_site_label
 _atom_site_symmetry_multiplicity
 _atom_site_fract_x
 _atom_site_fract_y
 _atom_site_fract_z
 _atom_site_occupancy
  Mg  Mg0  1  0.50000000  0.00000000  0.33951700  1
  Ti  Ti0  1  0.00000000  0.00000000  0.98521600  1
  Ti  Ti1  1  0.00000000  0.50000000  0.23832100  1
  Ti  Ti2  1  0.50000000  0.00000000  0.74986300  1
  Cu  Cu0  1  0.50000000  0.49999900  0.53674700  1
  O  O0  1  0.00000000  0.00000000  0.21887700  1
  O  O1  1  0.50000000  0.50000000  0.73740900  1
  O  O2  1  0.00000000  0.50000000  0.42963100  1
  O  O3  1  0.50000000  0.00000000  0.96036000  1
  O  O4  1  0.50000000  0.00000000  0.54861300  1
  O  O5  1  0.00000000  0.50000000  0.03290300  1
  O  O6  1  0.50000000  0.50000000  0.25508000  1
  O  O7  1  0.00000000  0.00000000  0.79385500  1
loop_
_geom_bond_atom_site_label_1
_geom_bond_atom_site_label_2
_geom_bond_distance
_geom_bond_site_symmetry_2
Mg0 O4 2.051744 1_555
Mg0 O6 2.112250 1_555
Mg0 O6 2.112250 1_545
Mg0 O0 2.271396 1_555
Mg0 O0 2.271396 1_655
Cu0 O4 1.946451 1_555
Cu0 O4 1.946459 1_565
Cu0 O1 1.968985 1_555
Cu0 O2 2.205146 1_555
Cu0 O2 2.205146 1_655
O0 Ti1 1.952315 1_555
O0 Ti1 1.952315 1_545
O0 Ti0 2.292786 1_554
O1 Ti2 1.946809 1_565
O1 Ti2 1.946809 1_555
O2 Ti1 1.877219 1_555
O3 Ti0 1.953819 1_555
O3 Ti0 1.953819 1_655
O3 Ti2 2.065491 1_555
O4 Ti2 1.974755 1_555
O5 Ti0 1.998521 1_564
O5 Ti0 1.998521 1_554
O5 Ti1 2.015653 1_555
O6 Ti1 1.945499 1_655
O6 Ti1 1.945499 1_555
O7 Ti0 1.877720 1_555
O7 Ti2 1.986016 1_455
O7 Ti2 1.986016 1_555
