# generated using pymatgen
data_Zr(MnGe)6
_symmetry_space_group_name_H-M   'P 1'
_cell_length_a   5.10968757
_cell_length_b   5.10966137
_cell_length_c   8.15216470
_cell_angle_alpha   90.00000064
_cell_angle_beta   89.99999668
_cell_angle_gamma   119.99949375
_symmetry_Int_Tables_number   1
_chemical_formula_structural   Zr(MnGe)6
_chemical_formula_sum   'Zr1 Mn6 Ge6'
_cell_volume   184.32840198
_cell_formula_units_Z   1
loop_
 _symmetry_equiv_pos_site_id
 _symmetry_equiv_pos_as_xyz
  1  'x, y, z'
loop_
 _atom_site_type_symbol
 _atom_site_label
 _atom_site_symmetry_multiplicity
 _atom_site_fract_x
 _atom_site_fract_y
 _atom_site_fract_z
 _atom_site_occupancy
  Zr  Zr0  1  0.99999992  0.99999965  0.50002846  1
  Mn  Mn0  1  0.49999821  0.99999996  0.24953729  1
  Mn  Mn1  1  0.50000169  0.50000163  0.24953757  1
  Mn  Mn2  1  0.00000003  0.49999826  0.24953738  1
  Mn  Mn3  1  0.49999821  0.99999991  0.75045699  1
  Mn  Mn4  1  0.50000168  0.50000158  0.75045675  1
  Mn  Mn5  1  1.00000000  0.49999828  0.75045693  1
  Ge  Ge0  1  1.00000007  1.00000004  0.16177674  1
  Ge  Ge1  1  0.99999998  0.99999994  0.83823460  1
  Ge  Ge2  1  0.33334563  0.66667169  0.49999823  1
  Ge  Ge3  1  0.66665443  0.33332792  0.49999824  1
  Ge  Ge4  1  0.33334618  0.66667173  0.99999042  1
  Ge  Ge5  1  0.66665397  0.33332842  0.99999041  1
loop_
_geom_bond_atom_site_label_1
_geom_bond_atom_site_label_2
_geom_bond_distance
_geom_bond_site_symmetry_2
Ge0 Ge1 2.637569 1_554
Ge0 Mn2 2.653105 1_665
Ge0 Mn0 2.653117 1_655
Ge0 Mn2 2.653123 1_655
Ge0 Mn1 2.653131 1_555
Ge0 Mn0 2.653135 1_555
Ge0 Mn1 2.653147 1_665
Ge0 Zr0 2.757484 1_555
Ge1 Mn5 2.653143 1_565
Ge1 Mn3 2.653155 1_655
Ge1 Mn5 2.653159 1_555
Ge1 Mn4 2.653169 1_555
Ge1 Mn3 2.653172 1_555
Ge1 Mn4 2.653185 1_665
Ge1 Zr0 2.757112 1_555
Ge2 Mn4 2.518827 1_555
Ge2 Mn3 2.518838 1_555
Ge2 Mn1 2.518841 1_555
Ge2 Mn0 2.518853 1_555
Ge2 Mn5 2.518887 1_455
Ge2 Mn2 2.518901 1_555
Ge2 Zr0 2.950040 1_555
Ge2 Zr0 2.950095 1_455
Ge2 Zr0 2.950103 1_445
Ge3 Mn4 2.518827 1_555
Ge3 Mn3 2.518837 1_545
Ge3 Mn1 2.518842 1_555
Ge3 Mn0 2.518852 1_545
Ge3 Mn5 2.518887 1_555
Ge3 Mn2 2.518901 1_655
Ge3 Zr0 2.950041 1_445
Ge3 Zr0 2.950096 1_545
Ge3 Zr0 2.950102 1_555
Ge4 Mn4 2.512718 1_555
Ge4 Mn3 2.512727 1_555
Ge4 Mn5 2.512779 1_455
Ge4 Mn1 2.512807 1_556
Ge4 Mn0 2.512816 1_556
Ge4 Mn2 2.512867 1_556
Ge5 Mn4 2.512717 1_555
Ge5 Mn3 2.512728 1_545
Ge5 Mn5 2.512778 1_555
Ge5 Mn1 2.512806 1_556
Ge5 Mn0 2.512817 1_546
Ge5 Mn2 2.512867 1_656
