# generated using pymatgen
data_KP(HO2)2
_symmetry_space_group_name_H-M   'P 1'
_cell_length_a   6.27981441
_cell_length_b   6.27981468
_cell_length_c   6.26890168
_cell_angle_alpha   107.50869730
_cell_angle_beta   107.50869540
_cell_angle_gamma   113.53719564
_symmetry_Int_Tables_number   1
_chemical_formula_structural   KP(HO2)2
_chemical_formula_sum   'K2 P2 H4 O8'
_cell_volume   189.44471752
_cell_formula_units_Z   2
loop_
 _symmetry_equiv_pos_site_id
 _symmetry_equiv_pos_as_xyz
  1  'x, y, z'
loop_
 _atom_site_type_symbol
 _atom_site_label
 _atom_site_symmetry_multiplicity
 _atom_site_fract_x
 _atom_site_fract_y
 _atom_site_fract_z
 _atom_site_occupancy
  K  K0  1  0.75165874  0.75165874  0.00000000  1
  K  K1  1  0.50165874  0.00165874  0.50000000  1
  P  P0  1  0.23449172  0.23449172  0.00000000  1
  P  P1  1  0.98449172  0.48449172  0.50000000  1
  H  H0  1  0.97056663  0.39871199  0.12839215  1
  H  H1  1  0.27031884  0.84217448  0.87160785  1
  H  H2  1  0.14871199  0.22056663  0.62839215  1
  H  H3  1  0.59217448  0.52031884  0.37160785  1
  O  O0  1  0.78506979  0.51828767  0.56792612  1
  O  O1  1  0.95036055  0.21714467  0.43207388  1
  O  O2  1  0.26828767  0.03506979  0.06792612  1
  O  O3  1  0.96714467  0.20036055  0.93207388  1
  O  O4  1  0.27107334  0.70353546  0.73017606  1
  O  O5  1  0.97335940  0.54089627  0.26982394  1
  O  O6  1  0.45353546  0.52107334  0.23017606  1
  O  O7  1  0.29089627  0.22335940  0.76982394  1
loop_
_geom_bond_atom_site_label_1
_geom_bond_atom_site_label_2
_geom_bond_distance
_geom_bond_site_symmetry_2
K0 O0 2.779840 1_554
K0 O1 2.779845 1_565
K0 O4 2.820121 1_554
K0 O5 2.820127 1_555
K0 O3 2.824102 1_564
K0 O2 2.824107 1_665
K0 O6 2.898510 1_555
K0 O7 2.898513 1_554
K1 O2 2.779840 1_555
K1 O3 2.779845 1_555
K1 O6 2.820121 1_545
K1 O7 2.820126 1_555
K1 O1 2.824102 1_555
K1 O0 2.824107 1_555
K1 O4 2.898510 1_545
K1 O5 2.898513 1_445
H0 O5 1.041852 1_555
H0 O3 1.451532 1_554
H1 O4 1.041860 1_555
H1 O2 1.451521 1_566
H2 O7 1.041852 1_555
H2 O1 1.451532 1_455
H3 O6 1.041860 1_555
H3 O0 1.451521 1_555
O0 P1 1.507805 1_555
O1 P1 1.507797 1_555
O2 P0 1.507805 1_555
O3 P0 1.507797 1_656
O4 P1 1.574511 1_455
O5 P1 1.574508 1_555
O6 P0 1.574511 1_555
O7 P0 1.574508 1_556
