# generated using pymatgen
data_TbCl3
_symmetry_space_group_name_H-M   'P 1'
_cell_length_a   3.81793895
_cell_length_b   6.37037720
_cell_length_c   8.53014315
_cell_angle_alpha   90.00000000
_cell_angle_beta   90.00000000
_cell_angle_gamma   107.43740731
_symmetry_Int_Tables_number   1
_chemical_formula_structural   TbCl3
_chemical_formula_sum   'Tb2 Cl6'
_cell_volume   197.93347787
_cell_formula_units_Z   2
loop_
 _symmetry_equiv_pos_site_id
 _symmetry_equiv_pos_as_xyz
  1  'x, y, z'
loop_
 _atom_site_type_symbol
 _atom_site_label
 _atom_site_symmetry_multiplicity
 _atom_site_fract_x
 _atom_site_fract_y
 _atom_site_fract_z
 _atom_site_occupancy
  Tb  Tb0  1  0.75799541  0.51599182  0.25000000  1
  Tb  Tb1  1  0.24200459  0.48400818  0.75000000  1
  Cl  Cl0  1  0.15068908  0.30137816  0.06747565  1
  Cl  Cl1  1  0.84931092  0.69862184  0.93252435  1
  Cl  Cl2  1  0.58917406  0.17834611  0.75000000  1
  Cl  Cl3  1  0.41082594  0.82165389  0.25000000  1
  Cl  Cl4  1  0.15068908  0.30137816  0.43252435  1
  Cl  Cl5  1  0.84931092  0.69862184  0.56747565  1
loop_
_geom_bond_atom_site_label_1
_geom_bond_atom_site_label_2
_geom_bond_distance
_geom_bond_site_symmetry_2
Cl0 Tb0 2.787397 1_555
Cl0 Tb0 2.787400 1_455
Cl0 Tb1 2.926752 1_554
Cl1 Tb1 2.787397 1_555
Cl1 Tb1 2.787400 1_655
Cl1 Tb0 2.926752 1_556
Cl2 Tb1 2.663682 1_655
Cl2 Tb1 2.663686 1_555
Cl3 Tb0 2.663682 1_455
Cl3 Tb0 2.663686 1_555
Cl4 Tb0 2.787397 1_555
Cl4 Tb0 2.787400 1_455
Cl4 Tb1 2.926752 1_555
Cl5 Tb1 2.787397 1_555
Cl5 Tb1 2.787400 1_655
Cl5 Tb0 2.926752 1_555
