# generated using pymatgen
data_Dy2Sn2O7
_symmetry_space_group_name_H-M   'P 1'
_cell_length_a   7.34937425
_cell_length_b   7.34937425
_cell_length_c   7.34937425
_cell_angle_alpha   60.00000000
_cell_angle_beta   60.00000000
_cell_angle_gamma   60.00000000
_symmetry_Int_Tables_number   1
_chemical_formula_structural   Dy2Sn2O7
_chemical_formula_sum   'Dy4 Sn4 O14'
_cell_volume   280.69591506
_cell_formula_units_Z   2
loop_
 _symmetry_equiv_pos_site_id
 _symmetry_equiv_pos_as_xyz
  1  'x, y, z'
loop_
 _atom_site_type_symbol
 _atom_site_label
 _atom_site_symmetry_multiplicity
 _atom_site_fract_x
 _atom_site_fract_y
 _atom_site_fract_z
 _atom_site_occupancy
  Dy  Dy0  1  0.12500000  0.12500000  0.12500000  1
  Dy  Dy1  1  0.62500000  0.12500000  0.12500000  1
  Dy  Dy2  1  0.12500000  0.12500000  0.62500000  1
  Dy  Dy3  1  0.12500000  0.62500000  0.12500000  1
  Sn  Sn0  1  0.62500000  0.62500000  0.62500000  1
  Sn  Sn1  1  0.12500000  0.62500000  0.62500000  1
  Sn  Sn2  1  0.62500000  0.62500000  0.12500000  1
  Sn  Sn3  1  0.62500000  0.12500000  0.62500000  1
  O  O0  1  -0.00000000  0.00000000  -0.00000000  1
  O  O1  1  0.25000000  0.25000000  0.25000000  1
  O  O2  1  0.28681724  0.28681724  0.71318276  1
  O  O3  1  0.53681724  0.53681724  0.96318276  1
  O  O4  1  0.71318276  0.28681724  0.71318276  1
  O  O5  1  0.71318276  0.28681724  0.28681724  1
  O  O6  1  0.28681724  0.71318276  0.71318276  1
  O  O7  1  0.28681724  0.71318276  0.28681724  1
  O  O8  1  0.71318276  0.71318276  0.28681724  1
  O  O9  1  0.96318276  0.53681724  0.53681724  1
  O  O10  1  0.53681724  0.96318276  0.96318276  1
  O  O11  1  0.96318276  0.96318276  0.53681724  1
  O  O12  1  0.96318276  0.53681724  0.96318276  1
  O  O13  1  0.53681724  0.96318276  0.53681724  1
loop_
_geom_bond_atom_site_label_1
_geom_bond_atom_site_label_2
_geom_bond_distance
_geom_bond_site_symmetry_2
Dy0 O0 2.250277 1_555
Dy0 O1 2.250277 1_555
Dy0 O11 2.490881 1_445
Dy0 O7 2.490881 1_545
Dy0 O5 2.490881 1_455
Dy0 O2 2.490881 1_554
Dy0 O12 2.490881 1_454
Dy0 O10 2.490881 1_544
Dy1 O0 2.250277 1_655
Dy1 O1 2.250277 1_555
Dy1 O5 2.490881 1_555
Dy1 O3 2.490881 1_554
Dy1 O8 2.490881 1_545
Dy1 O4 2.490881 1_554
Dy1 O13 2.490881 1_545
Dy1 O10 2.490881 1_544
Dy2 O0 2.250277 1_556
Dy2 O1 2.250277 1_555
Dy2 O11 2.490881 1_445
Dy2 O2 2.490881 1_555
Dy2 O9 2.490881 1_455
Dy2 O4 2.490881 1_455
Dy2 O13 2.490881 1_545
Dy2 O6 2.490881 1_545
Dy3 O1 2.250277 1_555
Dy3 O0 2.250277 1_565
Dy3 O6 2.490881 1_554
Dy3 O3 2.490881 1_554
Dy3 O7 2.490881 1_555
Dy3 O8 2.490881 1_455
Dy3 O12 2.490881 1_454
Dy3 O9 2.490881 1_455
O2 Sn1 2.053258 1_555
O2 Sn3 2.053258 1_555
O3 Sn0 2.053258 1_555
O3 Sn2 2.053258 1_556
O4 Sn0 2.053258 1_555
O4 Sn3 2.053258 1_555
O5 Sn3 2.053258 1_555
O5 Sn2 2.053258 1_555
O6 Sn0 2.053258 1_555
O6 Sn1 2.053258 1_555
O7 Sn1 2.053258 1_555
O7 Sn2 2.053258 1_555
O8 Sn0 2.053258 1_555
O8 Sn2 2.053258 1_555
O9 Sn0 2.053258 1_555
O9 Sn1 2.053258 1_655
O10 Sn3 2.053258 1_565
O10 Sn2 2.053258 1_556
O11 Sn1 2.053258 1_655
O11 Sn3 2.053258 1_565
O12 Sn1 2.053258 1_655
O12 Sn2 2.053258 1_556
O13 Sn0 2.053258 1_555
O13 Sn3 2.053258 1_565
