# generated using pymatgen
data_Na5Y2Ti2SiP5O24
_symmetry_space_group_name_H-M   'P 1'
_cell_length_a   9.08749309
_cell_length_b   9.08969915
_cell_length_c   22.83520038
_cell_angle_alpha   90.00423148
_cell_angle_beta   89.93420352
_cell_angle_gamma   120.41191377
_symmetry_Int_Tables_number   1
_chemical_formula_structural   Na5Y2Ti2SiP5O24
_chemical_formula_sum   'Na15 Y6 Ti6 Si3 P15 O72'
_cell_volume   1626.71346066
_cell_formula_units_Z   3
loop_
 _symmetry_equiv_pos_site_id
 _symmetry_equiv_pos_as_xyz
  1  'x, y, z'
loop_
 _atom_site_type_symbol
 _atom_site_label
 _atom_site_symmetry_multiplicity
 _atom_site_fract_x
 _atom_site_fract_y
 _atom_site_fract_z
 _atom_site_occupancy
  Na  Na0  1  0.00060798  0.64441067  0.24953349  1
  Na  Na1  1  0.62800518  0.63122164  0.74802188  1
  Na  Na2  1  0.37025439  -0.00009406  0.75166619  1
  Na  Na3  1  0.66871250  0.96901823  0.58464319  1
  Na  Na4  1  0.30251965  0.97205831  0.08290633  1
  Na  Na5  1  0.67403166  0.69778093  0.08027771  1
  Na  Na6  1  0.03001380  0.33269299  0.08310709  1
  Na  Na7  1  0.96508317  0.30126961  0.41793775  1
  Na  Na8  1  0.34175539  0.03858780  0.41987839  1
  Na  Na9  1  0.00477782  0.98889137  0.50480781  1
  Na  Na10  1  0.00126074  0.99169664  0.99239337  1
  Na  Na11  1  0.68055588  0.33813773  0.83538153  1
  Na  Na12  1  0.65098994  0.33236052  0.32923336  1
  Na  Na13  1  0.34592479  0.66786523  0.16772637  1
  Na  Na14  1  0.31429823  0.64668195  0.66322023  1
  Y  Y0  1  0.99351337  0.99491066  0.35009953  1
  Y  Y1  1  0.00146064  0.00335861  0.15315480  1
  Y  Y2  1  0.66641224  0.33687794  0.97763828  1
  Y  Y3  1  0.66291062  0.34341194  0.49035790  1
  Y  Y4  1  0.34543116  0.66755569  0.31387505  1
  Y  Y5  1  0.32576894  0.66028285  0.81055415  1
  Ti  Ti0  1  0.98915233  0.00132276  0.85212910  1
  Ti  Ti1  1  0.00503481  0.00075346  0.64899006  1
  Ti  Ti2  1  0.67099357  0.32179243  0.68174889  1
  Ti  Ti3  1  0.67025534  0.33261788  0.18114793  1
  Ti  Ti4  1  0.32304830  0.66614597  0.01150564  1
  Ti  Ti5  1  0.33270246  0.66875154  0.52216769  1
  Si  Si0  1  0.72349536  0.01436813  0.74700112  1
  Si  Si1  1  0.36106588  0.02870981  0.58402005  1
  Si  Si2  1  0.96882104  0.62812093  0.08289221  1
  P  P0  1  0.31642802  0.01224638  0.24854007  1
  P  P1  1  0.69554331  0.68033136  0.24411301  1
  P  P2  1  0.98571641  0.30534301  0.24807865  1
  P  P3  1  0.28664470  0.27525846  0.74849931  1
  P  P4  1  0.98744514  0.71505173  0.74879138  1
  P  P5  1  0.96769988  0.33252208  0.58486672  1
  P  P6  1  0.66644416  0.63487114  0.58929930  1
  P  P7  1  0.65790753  0.03645340  0.08310360  1
  P  P8  1  0.37993342  0.34344865  0.08383020  1
  P  P9  1  0.63097417  0.68094846  0.91446557  1
  P  P10  1  0.04427737  0.36181233  0.91575568  1
  P  P11  1  0.31625351  0.95298394  0.91346482  1
  P  P12  1  0.62592820  0.95922838  0.42321540  1
  P  P13  1  0.33162308  0.37634805  0.42166051  1
  P  P14  1  0.04865475  0.66763701  0.41957065  1
  O  O0  1  0.23239372  0.03447341  0.30482515  1
  O  O1  1  0.81417987  0.76909015  0.29754444  1
  O  O2  1  0.96742757  0.19988632  0.30383955  1
  O  O3  1  0.19897727  0.16622576  0.80407396  1
  O  O4  1  0.96528013  0.80334074  0.80417989  1
  O  O5  1  0.84077517  0.03153253  0.80616795  1
  O  O6  1  0.82067557  0.99141858  0.69156346  1
  O  O7  1  0.17608326  0.18308722  0.69465034  1
  O  O8  1  0.00985813  0.82867070  0.69519332  1
  O  O9  1  0.77654698  0.78382638  0.18826357  1
  O  O10  1  0.01158649  0.22557141  0.19282140  1
  O  O11  1  0.20133752  0.98160990  0.19487484  1
  O  O12  1  0.86279884  0.35808922  0.63563730  1
  O  O13  1  0.50580652  0.13882632  0.63804356  1
  O  O14  1  0.64193619  0.51458178  0.64182959  1
  O  O15  1  0.87129269  0.50023870  0.14109678  1
  O  O16  1  0.63404763  0.13035255  0.13701773  1
  O  O17  1  0.49878440  0.36400744  0.13692960  1
  O  O18  1  0.44634150  0.29810674  0.03018234  1
  O  O19  1  0.84165228  0.54534928  0.02956735  1
  O  O20  1  0.69303455  0.14643660  0.02968703  1
  O  O21  1  0.42843159  0.13173215  0.52374132  1
  O  O22  1  0.70659714  0.57143857  0.53328156  1
  O  O23  1  0.86028538  0.29028720  0.52884722  1
  O  O24  1  0.53098009  0.69488226  0.96977554  1
  O  O25  1  0.15882083  0.46325513  0.97201228  1
  O  O26  1  0.30333765  0.83203945  0.96878022  1
  O  O27  1  0.52723460  0.84923765  0.47842547  1
  O  O28  1  0.32425978  0.48230002  0.47483182  1
  O  O29  1  0.16794147  0.67854985  0.47216434  1
  O  O30  1  0.12271497  0.65004047  0.36160534  1
  O  O31  1  0.52155864  0.87957619  0.36818318  1
  O  O32  1  0.34504183  0.46854520  0.36473357  1
  O  O33  1  0.12608178  0.46898607  0.86205194  1
  O  O34  1  0.33990893  0.87542199  0.85762198  1
  O  O35  1  0.53303096  0.66099559  0.85796313  1
  O  O36  1  0.04503858  0.83616884  0.42025259  1
  O  O37  1  0.80440819  0.97721937  0.42115774  1
  O  O38  1  0.16169996  0.19978929  0.42169518  1
  O  O39  1  0.04030294  0.18863680  0.91197857  1
  O  O40  1  0.14923092  0.95776989  0.91249924  1
  O  O41  1  0.80940761  0.84936332  0.91097253  1
  O  O42  1  0.98381860  0.17399704  0.59675946  1
  O  O43  1  0.17412886  0.00266103  0.59851619  1
  O  O44  1  0.81898456  0.82034376  0.59791640  1
  O  O45  1  0.00768388  0.82274388  0.08917098  1
  O  O46  1  0.81218204  0.01014331  0.09082686  1
  O  O47  1  0.19468815  0.19460577  0.09190269  1
  O  O48  1  0.70192290  0.18552925  0.73918690  1
  O  O49  1  0.46599848  0.28980900  0.74261209  1
  O  O50  1  0.82396185  0.53756189  0.74227270  1
  O  O51  1  0.68753024  0.50604009  0.23912908  1
  O  O52  1  0.82078891  0.31651150  0.24222124  1
  O  O53  1  0.49203913  0.17255267  0.23945811  1
  O  O54  1  0.65562066  0.52762526  0.91975905  1
  O  O55  1  0.86528062  0.33324276  0.92207335  1
  O  O56  1  0.47224752  0.12859548  0.92133642  1
  O  O57  1  0.64752751  0.13919024  0.42697970  1
  O  O58  1  0.48295965  0.34536920  0.42404252  1
  O  O59  1  0.87379621  0.50606256  0.42611878  1
  O  O60  1  0.37507242  0.51225773  0.07826596  1
  O  O61  1  0.15575546  0.63504066  0.07316149  1
  O  O62  1  0.49141480  0.85823803  0.07801979  1
  O  O63  1  0.35652767  0.84317501  0.57851744  1
  O  O64  1  0.50437362  0.65261786  0.58204755  1
  O  O65  1  0.14385924  0.49613423  0.57959863  1
  O  O66  1  0.32834510  0.84936744  0.25208295  1
  O  O67  1  0.51775825  0.65586086  0.24922413  1
  O  O68  1  0.13655414  0.49025095  0.25143081  1
  O  O69  1  0.31525760  0.45733552  0.74910597  1
  O  O70  1  0.15157684  0.70514894  0.75044402  1
  O  O71  1  0.53291816  0.84575252  0.74864882  1
loop_
_geom_bond_atom_site_label_1
_geom_bond_atom_site_label_2
_geom_bond_distance
_geom_bond_site_symmetry_2
Na0 O68 2.290074 1_555
Na0 O51 2.472157 1_455
Na0 O52 2.578985 1_455
Na0 O66 2.593708 1_555
Na0 O1 2.701097 1_455
Na0 O15 2.770710 1_455
Na0 O30 2.780713 1_555
Na0 O11 2.935064 1_555
Na1 O50 2.333969 1_555
Na1 O69 2.455239 1_555
Na1 O71 2.501077 1_555
Na1 O14 2.674911 1_555
Na1 O49 2.681080 1_555
Na1 O35 2.711515 1_555
Na1 O4 2.939432 1_555
Na2 O49 2.328543 1_555
Na2 O70 2.395396 1_545
Na2 O71 2.499998 1_545
Na2 O48 2.619524 1_555
Na2 O34 2.625535 1_545
Na2 O13 2.874401 1_555
Na2 O3 2.918583 1_555
Na3 O44 2.377486 1_555
Na3 O63 2.468172 1_555
Na3 O64 2.481301 1_555
Na3 O42 2.519516 1_565
Na3 O27 2.703891 1_555
Na3 O6 2.762727 1_555
Na3 O23 2.833785 1_565
Na3 O13 2.893087 1_565
Na4 O45 2.314907 1_555
Na4 O62 2.413932 1_555
Na4 O61 2.660223 1_555
Na4 O47 2.664751 1_565
Na4 O11 2.732351 1_555
Na4 O18 2.831332 1_565
Na4 O16 2.879815 1_565
Na4 O26 2.901837 1_554
Na5 O60 2.364048 1_555
Na5 O46 2.467270 1_565
Na5 O9 2.612944 1_555
Na5 O45 2.653186 1_655
Na5 O62 2.708257 1_555
Na5 O19 2.777315 1_555
Na5 O24 2.833854 1_554
Na5 O17 2.918645 1_555
Na6 O61 2.393800 1_555
Na6 O47 2.399509 1_555
Na6 O46 2.582433 1_455
Na6 O10 2.662184 1_555
Na6 O60 2.706758 1_555
Na6 O25 2.793117 1_554
Na6 O15 2.893542 1_455
Na6 O20 2.913992 1_455
Na7 O38 2.391592 1_655
Na7 O59 2.398191 1_555
Na7 O57 2.497041 1_555
Na7 O37 2.541450 1_545
Na7 O23 2.688763 1_555
Na7 O2 2.767217 1_555
Na8 O36 2.373424 1_545
Na8 O58 2.410222 1_555
Na8 O57 2.451970 1_555
Na8 O21 2.508222 1_555
Na8 O38 2.693186 1_555
Na8 O0 2.803561 1_555
Na8 O31 2.922117 1_545
Na9 O36 2.510236 1_555
Na9 O38 2.556775 1_565
Na9 O43 2.602994 1_565
Na9 O37 2.605357 1_455
Na9 O44 2.663037 1_455
Na9 O42 2.756658 1_465
Na10 O40 2.376090 1_555
Na10 O41 2.427710 1_455
Na10 O39 2.461373 1_565
Na10 O45 2.708735 1_556
Na10 O46 2.883685 1_466
Na10 O47 2.895028 1_566
Na11 O55 2.611923 1_555
Na11 O48 2.656756 1_555
Na11 O50 2.665955 1_555
Na11 O54 2.669096 1_555
Na11 O56 2.721301 1_555
Na11 O49 2.761247 1_555
Na12 O53 2.506240 1_555
Na12 O51 2.510822 1_555
Na12 O52 2.562743 1_555
Na12 O58 2.684766 1_555
Na12 O57 2.830300 1_555
Na12 O59 2.874093 1_555
Na13 O67 2.468379 1_555
Na13 O62 2.572288 1_555
Na13 O60 2.573251 1_555
Na13 O66 2.593001 1_555
Na13 O68 2.600428 1_555
Na13 O61 2.687946 1_555
Na14 O65 2.403829 1_555
Na14 O64 2.514085 1_555
Na14 O63 2.526521 1_555
Na14 O69 2.612350 1_555
Na14 O70 2.687926 1_555
Na14 O71 2.719482 1_555
O0 P0 1.558800 1_555
O0 Y0 2.261677 1_445
O1 P1 1.556976 1_555
O1 Y0 2.219656 1_555
O2 P2 1.551193 1_555
O2 Y0 2.256435 1_545
O3 P3 1.557536 1_555
O3 Ti0 2.046597 1_455
O4 P4 1.564375 1_555
O4 Ti0 2.022247 1_565
O5 Si0 1.679461 1_555
O5 Ti0 1.836626 1_555
O6 Si0 1.615522 1_565
O6 Ti1 1.900397 1_665
O7 P3 1.540746 1_555
O7 Ti1 1.909293 1_555
O8 P4 1.546841 1_455
O8 Ti1 1.905649 1_565
O9 P1 1.533054 1_555
O9 Y1 2.160892 1_665
O10 P2 1.531330 1_455
O10 Y1 2.172663 1_555
O11 P0 1.543109 1_565
O11 Y1 2.147899 1_565
O12 P5 1.590154 1_555
O12 Ti2 1.915557 1_555
O13 Si1 1.710101 1_555
O13 Ti2 1.868422 1_555
O14 P6 1.561104 1_555
O14 Ti2 2.107332 1_555
O15 Si2 1.690484 1_555
O15 Ti3 1.916707 1_555
O16 P7 1.574104 1_555
O16 Ti3 1.972813 1_555
O17 P8 1.571725 1_555
O17 Ti3 1.995712 1_555
O18 P8 1.511577 1_555
O18 Y2 2.201002 1_554
O19 Si2 1.583398 1_555
O19 Y2 2.117029 1_554
O20 P7 1.505118 1_555
O20 Y2 2.211940 1_554
O21 Si1 1.601324 1_555
O21 Y3 2.160865 1_555
O22 P6 1.521088 1_555
O22 Y3 2.140539 1_555
O23 P5 1.536230 1_555
O23 Y3 2.259069 1_555
O24 P9 1.597133 1_555
O24 Ti4 2.010717 1_556
O25 P10 1.617150 1_555
O25 Ti4 1.912606 1_556
O26 P11 1.639235 1_555
O26 Ti4 1.879326 1_556
O27 P12 1.575807 1_555
O27 Ti5 1.968317 1_555
O28 P13 1.571972 1_555
O28 Ti5 1.978602 1_555
O29 P14 1.587895 1_555
O29 Ti5 1.921581 1_555
O30 P14 1.528888 1_555
O30 Y4 2.231216 1_555
O31 P12 1.519989 1_555
O31 Y4 2.166820 1_555
O32 P13 1.517683 1_555
O32 Y4 2.148228 1_555
O33 P10 1.506799 1_555
O33 Y5 2.121369 1_555
O34 P11 1.523819 1_555
O34 Y5 2.177497 1_555
O35 P9 1.526106 1_555
O35 Y5 2.170696 1_555
O36 P14 1.548875 1_555
O36 Y0 2.356609 1_455
O37 P12 1.546259 1_555
O37 Y0 2.307780 1_555
O38 P13 1.565593 1_555
O38 Y0 2.366561 1_445
O39 P10 1.558526 1_555
O39 Ti0 2.045155 1_455
O40 P11 1.540478 1_555
O40 Ti0 2.181992 1_465
O41 P9 1.570266 1_555
O41 Ti0 2.022997 1_565
O42 P5 1.544464 1_555
O42 Ti1 2.060987 1_655
O43 Si1 1.625734 1_555
O43 Ti1 1.912843 1_555
O44 P6 1.561110 1_555
O44 Ti1 2.026120 1_665
O45 Si2 1.625550 1_455
O45 Y1 2.219619 1_565
O46 P7 1.547202 1_555
O46 Y1 2.258577 1_655
O47 P8 1.546536 1_555
O47 Y1 2.228448 1_555
O48 Si0 1.673232 1_555
O48 Ti2 1.920148 1_555
O49 P3 1.572678 1_555
O49 Ti2 2.220877 1_555
O50 P4 1.551127 1_555
O50 Ti2 2.221009 1_555
O51 P1 1.552841 1_555
O51 Ti3 2.003042 1_555
O52 P2 1.558537 1_555
O52 Ti3 2.011200 1_555
O53 P0 1.535590 1_555
O53 Ti3 2.030380 1_555
O54 P9 1.524198 1_555
O54 Y2 2.221584 1_555
O55 P10 1.518546 1_655
O55 Y2 2.220867 1_555
O56 P11 1.516410 1_545
O56 Y2 2.230110 1_555
O57 P12 1.548129 1_545
O57 Y3 2.301593 1_555
O58 P13 1.538137 1_555
O58 Y3 2.236707 1_555
O59 P14 1.530058 1_655
O59 Y3 2.266195 1_555
O60 P8 1.562440 1_555
O60 Ti4 2.275016 1_555
O61 Si2 1.682288 1_455
O61 Ti4 1.983275 1_555
O62 P7 1.563898 1_565
O62 Ti4 2.235372 1_555
O63 Si1 1.670685 1_565
O63 Ti5 1.967003 1_555
O64 P6 1.569626 1_555
O64 Ti5 2.135778 1_555
O65 P5 1.542124 1_455
O65 Ti5 2.096627 1_555
O66 P0 1.540318 1_565
O66 Y4 2.237610 1_555
O67 P1 1.519562 1_555
O67 Y4 2.192360 1_555
O68 P2 1.541896 1_455
O68 Y4 2.267686 1_555
O69 P3 1.539880 1_555
O69 Y5 2.280920 1_555
O70 P4 1.539575 1_455
O70 Y5 2.283610 1_555
O71 Si0 1.631670 1_565
O71 Y5 2.272744 1_555
