# generated using pymatgen
data_Na2NbGaSi2SO12
_symmetry_space_group_name_H-M   'P 1'
_cell_length_a   8.89363573
_cell_length_b   8.89363544
_cell_length_c   22.48746282
_cell_angle_alpha   88.63375619
_cell_angle_beta   91.36624385
_cell_angle_gamma   119.56814031
_symmetry_Int_Tables_number   1
_chemical_formula_structural   Na2NbGaSi2SO12
_chemical_formula_sum   'Na12 Nb6 Ga6 Si12 S6 O72'
_cell_volume   1546.45714527
_cell_formula_units_Z   6
loop_
 _symmetry_equiv_pos_site_id
 _symmetry_equiv_pos_as_xyz
  1  'x, y, z'
loop_
 _atom_site_type_symbol
 _atom_site_label
 _atom_site_symmetry_multiplicity
 _atom_site_fract_x
 _atom_site_fract_y
 _atom_site_fract_z
 _atom_site_occupancy
  Na  Na0  1  0.98773920  0.62477194  0.24979374  1
  Na  Na1  1  0.37522806  0.01226080  0.74979374  1
  Na  Na2  1  0.65440620  0.95810494  0.58312674  1
  Na  Na3  1  0.04189506  0.34559380  0.08312674  1
  Na  Na4  1  0.32107220  0.29143894  0.91646074  1
  Na  Na5  1  0.70856106  0.67892780  0.41646074  1
  Na  Na6  1  0.01174275  0.99550977  0.49453734  1
  Na  Na7  1  0.00449023  0.98825725  0.99453734  1
  Na  Na8  1  0.67840975  0.32884277  0.82787034  1
  Na  Na9  1  0.67115723  0.32159025  0.32787034  1
  Na  Na10  1  0.34507575  0.66217677  0.16120434  1
  Na  Na11  1  0.33782323  0.65492425  0.66120434  1
  Nb  Nb0  1  0.99791603  0.00053929  0.64515101  1
  Nb  Nb1  1  0.99946071  0.00208397  0.14515101  1
  Nb  Nb2  1  0.66458303  0.33387229  0.97848401  1
  Nb  Nb3  1  0.66612771  0.33541697  0.47848401  1
  Nb  Nb4  1  0.33124903  0.66720629  0.31181801  1
  Nb  Nb5  1  0.33279371  0.66875097  0.81181801  1
  Ga  Ga0  1  0.97052939  0.98557172  0.35259536  1
  Ga  Ga1  1  0.01442828  0.02947061  0.85259536  1
  Ga  Ga2  1  0.63719639  0.31890472  0.68592836  1
  Ga  Ga3  1  0.68109528  0.36280361  0.18592836  1
  Ga  Ga4  1  0.30386239  0.65223872  0.01926236  1
  Ga  Ga5  1  0.34776128  0.69613761  0.51926236  1
  Si  Si0  1  0.70636034  0.70694199  0.25156804  1
  Si  Si1  1  0.98925356  0.28150188  0.25100650  1
  Si  Si2  1  0.29305801  0.29363966  0.75156804  1
  Si  Si3  1  0.71849812  0.01074644  0.75100650  1
  Si  Si4  1  0.37302734  0.04027499  0.58490104  1
  Si  Si5  1  0.65592056  0.61483488  0.58433950  1
  Si  Si6  1  0.95972501  0.62697266  0.08490104  1
  Si  Si7  1  0.38516512  0.34407944  0.08433950  1
  Si  Si8  1  0.03969334  0.37360899  0.91823504  1
  Si  Si9  1  0.32258656  0.94816888  0.91767350  1
  Si  Si10  1  0.62639101  0.96030666  0.41823504  1
  Si  Si11  1  0.05183112  0.67741344  0.41767350  1
  S  S0  1  0.29343856  0.00816016  0.25161357  1
  S  S1  1  0.99183984  0.70656144  0.75161357  1
  S  S2  1  0.96010556  0.34149316  0.58494657  1
  S  S3  1  0.65850684  0.03989444  0.08494657  1
  S  S4  1  0.62677156  0.67482716  0.91828057  1
  S  S5  1  0.32517284  0.37322844  0.41828057  1
  O  O0  1  0.21280278  0.02684297  0.30433848  1
  O  O1  1  0.82709763  0.78280299  0.31053574  1
  O  O2  1  0.97844444  0.16774917  0.30864298  1
  O  O3  1  0.21719701  0.17290237  0.81053574  1
  O  O4  1  0.97315703  0.78719722  0.80433848  1
  O  O5  1  0.83225083  0.02155556  0.80864298  1
  O  O6  1  0.80076970  0.97372010  0.69024912  1
  O  O7  1  0.16411393  0.18913562  0.69383768  1
  O  O8  1  0.02548461  0.82070602  0.69669855  1
  O  O9  1  0.81086438  0.83588607  0.19383768  1
  O  O10  1  0.02627990  0.19923030  0.19024912  1
  O  O11  1  0.17929398  0.97451539  0.19669855  1
  O  O12  1  0.87946978  0.36017597  0.63767148  1
  O  O13  1  0.49376463  0.11613599  0.64386874  1
  O  O14  1  0.64511144  0.50108217  0.64197598  1
  O  O15  1  0.88386401  0.50623537  0.14386874  1
  O  O16  1  0.63982403  0.12053022  0.13767148  1
  O  O17  1  0.49891783  0.35488856  0.14197598  1
  O  O18  1  0.46743670  0.30705310  0.02358212  1
  O  O19  1  0.83078093  0.52246862  0.02717068  1
  O  O20  1  0.69215161  0.15403902  0.03003155  1
  O  O21  1  0.47753138  0.16921907  0.52717068  1
  O  O22  1  0.69294690  0.53256330  0.52358212  1
  O  O23  1  0.84596098  0.30784839  0.53003155  1
  O  O24  1  0.54613578  0.69350997  0.97100548  1
  O  O25  1  0.16043063  0.44946999  0.97720274  1
  O  O26  1  0.31177744  0.83441617  0.97530998  1
  O  O27  1  0.55053001  0.83956937  0.47720274  1
  O  O28  1  0.30649003  0.45386422  0.47100548  1
  O  O29  1  0.16558383  0.68822256  0.47530998  1
  O  O30  1  0.13410270  0.64038710  0.35691612  1
  O  O31  1  0.49744693  0.85580262  0.36050468  1
  O  O32  1  0.35881761  0.48737302  0.36336555  1
  O  O33  1  0.14419738  0.50255307  0.86050468  1
  O  O34  1  0.35961290  0.86589730  0.85691612  1
  O  O35  1  0.51262698  0.64118239  0.86336555  1
  O  O36  1  0.02685473  0.84645454  0.40953429  1
  O  O37  1  0.81580757  0.97808620  0.41182210  1
  O  O38  1  0.18173522  0.19924393  0.40990845  1
  O  O39  1  0.02191380  0.18419243  0.91182210  1
  O  O40  1  0.15354546  0.97314527  0.90953429  1
  O  O41  1  0.80075607  0.81826478  0.90990845  1
  O  O42  1  0.96572287  0.17193749  0.58740904  1
  O  O43  1  0.18170191  0.02650024  0.58989867  1
  O  O44  1  0.82929913  0.81533832  0.59085933  1
  O  O45  1  0.97349976  0.81829809  0.08989867  1
  O  O46  1  0.82806251  0.03427713  0.08740904  1
  O  O47  1  0.18466168  0.17070087  0.09085933  1
  O  O48  1  0.69352173  0.17978754  0.74286729  1
  O  O49  1  0.48247457  0.31141920  0.74515510  1
  O  O50  1  0.84840222  0.53257693  0.74324145  1
  O  O51  1  0.68858080  0.51752543  0.24515510  1
  O  O52  1  0.82021246  0.30647827  0.24286729  1
  O  O53  1  0.46742307  0.15159778  0.24324145  1
  O  O54  1  0.63238987  0.50527049  0.92074204  1
  O  O55  1  0.84836891  0.35983324  0.92323167  1
  O  O56  1  0.49596613  0.14867132  0.92419233  1
  O  O57  1  0.64016676  0.15163109  0.42323167  1
  O  O58  1  0.49472951  0.36761013  0.42074204  1
  O  O59  1  0.85132868  0.50403387  0.42419233  1
  O  O60  1  0.36018773  0.51312154  0.07620129  1
  O  O61  1  0.14914057  0.64475320  0.07848910  1
  O  O62  1  0.51506822  0.86591093  0.07657545  1
  O  O63  1  0.35524680  0.85085943  0.57848910  1
  O  O64  1  0.48687846  0.63981227  0.57620129  1
  O  O65  1  0.13408907  0.48493178  0.57657545  1
  O  O66  1  0.29905587  0.83860449  0.25407604  1
  O  O67  1  0.51503491  0.69316724  0.25656567  1
  O  O68  1  0.16263213  0.48200532  0.25752633  1
  O  O69  1  0.30683276  0.48496509  0.75656567  1
  O  O70  1  0.16139551  0.70094413  0.75407604  1
  O  O71  1  0.51799468  0.83736787  0.75752633  1
loop_
_geom_bond_atom_site_label_1
_geom_bond_atom_site_label_2
_geom_bond_distance
_geom_bond_site_symmetry_2
Na0 O51 2.342319 1_555
Na0 O68 2.446932 1_655
Na0 O66 2.468054 1_655
Na0 O52 2.470825 1_555
Na0 O15 2.586953 1_555
Na0 O30 2.684135 1_655
Na0 O1 2.837003 1_555
Na0 O11 2.948421 1_655
Na1 O49 2.342318 1_555
Na1 O71 2.446932 1_545
Na1 O70 2.468054 1_545
Na1 O48 2.470825 1_555
Na1 O13 2.586953 1_555
Na1 O34 2.684135 1_545
Na1 O3 2.837003 1_555
Na1 O8 2.948421 1_545
Na2 O63 2.342328 1_555
Na2 O44 2.446932 1_555
Na2 O42 2.468054 1_565
Na2 O64 2.470816 1_555
Na2 O27 2.586931 1_555
Na2 O6 2.684135 1_555
Na2 O13 2.837003 1_565
Na2 O23 2.948421 1_565
Na3 O61 2.342328 1_555
Na3 O47 2.446932 1_555
Na3 O46 2.468054 1_455
Na3 O60 2.470816 1_555
Na3 O25 2.586931 1_554
Na3 O10 2.684135 1_555
Na3 O15 2.837003 1_455
Na3 O20 2.948421 1_455
Na4 O39 2.342319 1_555
Na4 O56 2.446947 1_555
Na4 O54 2.468058 1_555
Na4 O40 2.470825 1_545
Na4 O3 2.586953 1_555
Na4 O18 2.684121 1_556
Na4 O25 2.837003 1_555
Na4 O35 2.948421 1_555
Na5 O37 2.342318 1_555
Na5 O59 2.446947 1_555
Na5 O58 2.468058 1_555
Na5 O36 2.470825 1_655
Na5 O1 2.586953 1_555
Na5 O22 2.684121 1_555
Na5 O27 2.837003 1_555
Na5 O32 2.948421 1_555
Na6 O36 2.395445 1_555
Na6 O37 2.472464 1_455
Na6 O43 2.534130 1_565
Na6 O38 2.541611 1_565
Na6 O44 2.707070 1_455
Na6 O42 2.796781 1_465
Na7 O40 2.395445 1_555
Na7 O39 2.472464 1_565
Na7 O45 2.534130 1_456
Na7 O41 2.541611 1_455
Na7 O47 2.707070 1_566
Na7 O46 2.796781 1_466
Na8 O48 2.395445 1_555
Na8 O49 2.472464 1_555
Na8 O55 2.534130 1_555
Na8 O50 2.541611 1_555
Na8 O56 2.707070 1_555
Na8 O54 2.796781 1_555
Na9 O52 2.395445 1_555
Na9 O51 2.472464 1_555
Na9 O57 2.534130 1_555
Na9 O53 2.541611 1_555
Na9 O59 2.707070 1_555
Na9 O58 2.796781 1_555
Na10 O60 2.395445 1_555
Na10 O61 2.472464 1_555
Na10 O67 2.534130 1_555
Na10 O62 2.541611 1_555
Na10 O68 2.707070 1_555
Na10 O66 2.796781 1_555
Na11 O64 2.395445 1_555
Na11 O63 2.472464 1_555
Na11 O69 2.534130 1_555
Na11 O65 2.541611 1_555
Na11 O71 2.707070 1_555
Na11 O70 2.796781 1_555
Nb0 O7 1.939182 1_655
Nb0 O6 1.954514 1_545
Nb0 O43 1.994858 1_655
Nb0 O44 2.005803 1_545
Nb0 O8 2.060786 1_645
Nb0 O42 2.100065 1_555
Nb1 O9 1.939182 1_545
Nb1 O10 1.954514 1_655
Nb1 O45 1.994858 1_545
Nb1 O47 2.005803 1_655
Nb1 O11 2.060786 1_645
Nb1 O46 2.100065 1_555
Nb2 O19 1.939182 1_556
Nb2 O18 1.954514 1_556
Nb2 O55 1.994858 1_555
Nb2 O56 2.005803 1_555
Nb2 O20 2.060786 1_556
Nb2 O54 2.100065 1_555
Nb3 O21 1.939182 1_555
Nb3 O22 1.954514 1_555
Nb3 O57 1.994858 1_555
Nb3 O59 2.005803 1_555
Nb3 O23 2.060786 1_555
Nb3 O58 2.100065 1_555
Nb4 O31 1.939182 1_555
Nb4 O30 1.954514 1_555
Nb4 O67 1.994858 1_555
Nb4 O68 2.005803 1_555
Nb4 O32 2.060786 1_555
Nb4 O66 2.100065 1_555
Nb5 O33 1.939182 1_555
Nb5 O34 1.954514 1_555
Nb5 O69 1.994858 1_555
Nb5 O71 2.005803 1_555
Nb5 O35 2.060786 1_555
Nb5 O70 2.100065 1_555
Ga0 O2 1.849689 1_565
Ga0 O1 1.878127 1_555
Ga0 O37 1.914294 1_555
Ga0 O36 1.981602 1_655
Ga0 O0 2.294994 1_665
Ga0 O38 2.297639 1_665
Ga1 O5 1.849689 1_455
Ga1 O3 1.878127 1_555
Ga1 O39 1.914294 1_555
Ga1 O40 1.981602 1_545
Ga1 O4 2.294994 1_445
Ga1 O41 2.297639 1_445
Ga2 O14 1.849689 1_555
Ga2 O13 1.878127 1_555
Ga2 O49 1.914294 1_555
Ga2 O48 1.981602 1_555
Ga2 O12 2.294994 1_555
Ga2 O50 2.297639 1_555
Ga3 O17 1.849689 1_555
Ga3 O15 1.878127 1_555
Ga3 O51 1.914294 1_555
Ga3 O52 1.981602 1_555
Ga3 O16 2.294994 1_555
Ga3 O53 2.297639 1_555
Ga4 O26 1.849689 1_554
Ga4 O25 1.878127 1_554
Ga4 O61 1.914294 1_555
Ga4 O60 1.981602 1_555
Ga4 O24 2.294994 1_554
Ga4 O62 2.297639 1_555
Ga5 O29 1.849689 1_555
Ga5 O27 1.878127 1_555
Ga5 O63 1.914294 1_555
Ga5 O64 1.981602 1_555
Ga5 O28 2.294994 1_555
Ga5 O65 2.297639 1_555
O0 S0 1.454377 1_555
O1 Si0 1.620607 1_555
O2 Si1 1.600009 1_555
O3 Si2 1.620607 1_555
O4 S1 1.454377 1_555
O5 Si3 1.600009 1_555
O6 Si3 1.678527 1_565
O7 Si2 1.672999 1_555
O8 S1 1.517602 1_455
O9 Si0 1.672999 1_555
O10 Si1 1.678527 1_455
O11 S0 1.517602 1_565
O12 S2 1.454377 1_555
O13 Si4 1.620607 1_555
O14 Si5 1.600009 1_555
O15 Si6 1.620607 1_555
O16 S3 1.454377 1_555
O17 Si7 1.600009 1_555
O18 Si7 1.678527 1_555
O19 Si6 1.672999 1_555
O20 S3 1.517602 1_555
O21 Si4 1.672999 1_555
O22 Si5 1.678527 1_555
O23 S2 1.517602 1_555
O24 S4 1.454377 1_555
O25 Si8 1.620607 1_555
O26 Si9 1.600009 1_555
O27 Si10 1.620607 1_555
O28 S5 1.454377 1_555
O29 Si11 1.600009 1_555
O30 Si11 1.678527 1_555
O31 Si10 1.672999 1_555
O32 S5 1.517602 1_555
O33 Si8 1.672999 1_555
O34 Si9 1.678527 1_555
O35 S4 1.517602 1_555
O36 Si11 1.630197 1_555
O37 Si10 1.622125 1_555
O38 S5 1.453082 1_555
O39 Si8 1.622125 1_555
O40 Si9 1.630197 1_555
O41 S4 1.453082 1_555
O42 S2 1.532893 1_555
O43 Si4 1.650982 1_555
O44 Si5 1.693220 1_555
O45 Si6 1.650982 1_555
O46 S3 1.532893 1_555
O47 Si7 1.693220 1_555
O48 Si3 1.630197 1_555
O49 Si2 1.622125 1_555
O50 S1 1.453082 1_555
O51 Si0 1.622125 1_555
O52 Si1 1.630197 1_555
O53 S0 1.453082 1_555
O54 S4 1.532906 1_555
O55 Si8 1.650967 1_655
O56 Si9 1.693216 1_545
O57 Si10 1.650967 1_545
O58 S5 1.532906 1_555
O59 Si11 1.693216 1_655
O60 Si7 1.630209 1_555
O61 Si6 1.622110 1_455
O62 S3 1.453077 1_565
O63 Si4 1.622110 1_565
O64 Si5 1.630209 1_555
O65 S2 1.453077 1_455
O66 S0 1.532893 1_565
O67 Si0 1.650982 1_555
O68 Si1 1.693220 1_455
O69 Si2 1.650982 1_555
O70 S1 1.532893 1_455
O71 Si3 1.693220 1_565
