# generated using pymatgen
data_Na3HfScSi(PO6)2
_symmetry_space_group_name_H-M   'P 1'
_cell_length_a   15.73798425
_cell_length_b   9.11090561
_cell_length_c   9.05139616
_cell_angle_alpha   90.00000000
_cell_angle_beta   124.67173564
_cell_angle_gamma   90.00000000
_symmetry_Int_Tables_number   1
_chemical_formula_structural   Na3HfScSi(PO6)2
_chemical_formula_sum   'Na12 Hf4 Sc4 Si4 P8 O48'
_cell_volume   1067.38822958
_cell_formula_units_Z   4
loop_
 _symmetry_equiv_pos_site_id
 _symmetry_equiv_pos_as_xyz
  1  'x, y, z'
loop_
 _atom_site_type_symbol
 _atom_site_label
 _atom_site_symmetry_multiplicity
 _atom_site_fract_x
 _atom_site_fract_y
 _atom_site_fract_z
 _atom_site_occupancy
  Na  Na0  1  0.25158791  0.71953838  0.99485964  1
  Na  Na1  1  0.75158791  0.78046162  0.49485964  1
  Na  Na2  1  0.75158791  0.21953838  0.99485964  1
  Na  Na3  1  0.25158791  0.28046162  0.49485964  1
  Na  Na4  1  0.50661270  0.10915995  0.76194760  1
  Na  Na5  1  0.50661270  0.89084005  0.26194760  1
  Na  Na6  1  0.00661270  0.60915995  0.76194760  1
  Na  Na7  1  0.00661270  0.39084005  0.26194760  1
  Na  Na8  1  0.18633725  0.93435458  0.28968241  1
  Na  Na9  1  0.18633725  0.06564542  0.78968241  1
  Na  Na10  1  0.68633725  0.43435458  0.28968241  1
  Na  Na11  1  0.68633725  0.56564542  0.78968241  1
  Hf  Hf0  1  0.89573792  0.75693977  0.94052859  1
  Hf  Hf1  1  0.89573792  0.24306023  0.44052859  1
  Hf  Hf2  1  0.39573792  0.25693977  0.94052859  1
  Hf  Hf3  1  0.39573792  0.74306023  0.44052859  1
  Sc  Sc0  1  0.10515333  0.74355717  0.56166215  1
  Sc  Sc1  1  0.10515333  0.25644283  0.06166215  1
  Sc  Sc2  1  0.60515333  0.24355717  0.56166215  1
  Sc  Sc3  1  0.60515333  0.75644283  0.06166215  1
  Si  Si0  1  0.64518421  0.89455997  0.74028570  1
  Si  Si1  1  0.64518421  0.10544003  0.24028570  1
  Si  Si2  1  0.14518421  0.39455997  0.74028570  1
  Si  Si3  1  0.14518421  0.60544003  0.24028570  1
  P  P0  1  0.00026802  0.95540062  0.75824708  1
  P  P1  1  0.00026802  0.04459938  0.25824708  1
  P  P2  1  0.50026802  0.45540062  0.75824708  1
  P  P3  1  0.50026802  0.54459938  0.25824708  1
  P  P4  1  0.35244569  0.89974140  0.75703133  1
  P  P5  1  0.35244569  0.10025860  0.25703133  1
  P  P6  1  0.85244569  0.39974140  0.75703133  1
  P  P7  1  0.85244569  0.60025860  0.25703133  1
  O  O0  1  0.15116921  0.57309834  0.74276082  1
  O  O1  1  0.84917436  0.57188647  0.75669695  1
  O  O2  1  0.84917436  0.42811353  0.25669695  1
  O  O3  1  0.15116921  0.42690166  0.24276082  1
  O  O4  1  0.65116921  0.07309834  0.74276082  1
  O  O5  1  0.34917436  0.07188647  0.75669695  1
  O  O6  1  0.34917436  0.92811353  0.25669695  1
  O  O7  1  0.65116921  0.92690166  0.24276082  1
  O  O8  1  0.43885590  0.56041275  0.59320796  1
  O  O9  1  0.56324989  0.54501243  0.93075121  1
  O  O10  1  0.56324989  0.45498757  0.43075121  1
  O  O11  1  0.43885590  0.43958725  0.09320796  1
  O  O12  1  0.93885590  0.06041275  0.59320796  1
  O  O13  1  0.06324989  0.04501243  0.93075121  1
  O  O14  1  0.06324989  0.95498757  0.43075121  1
  O  O15  1  0.93885590  0.93958725  0.09320796  1
  O  O16  1  0.25653803  0.84579345  0.74687712  1
  O  O17  1  0.74309753  0.81224604  0.75511344  1
  O  O18  1  0.74309753  0.18775396  0.25511344  1
  O  O19  1  0.25653803  0.15420655  0.24687712  1
  O  O20  1  0.75653803  0.34579345  0.74687712  1
  O  O21  1  0.24309753  0.31224604  0.75511344  1
  O  O22  1  0.24309753  0.68775396  0.25511344  1
  O  O23  1  0.75653803  0.65420655  0.24687712  1
  O  O24  1  0.35027537  0.85908816  0.58607197  1
  O  O25  1  0.63968211  0.83990903  0.90563030  1
  O  O26  1  0.63968211  0.16009097  0.40563030  1
  O  O27  1  0.35027537  0.14091184  0.08607197  1
  O  O28  1  0.85027537  0.35908816  0.58607197  1
  O  O29  1  0.13968211  0.33990903  0.90563030  1
  O  O30  1  0.13968211  0.66009097  0.40563030  1
  O  O31  1  0.85027537  0.64091184  0.08607197  1
  O  O32  1  0.45142211  0.84171942  0.92666013  1
  O  O33  1  0.53784891  0.83421089  0.55500681  1
  O  O34  1  0.53784891  0.16578911  0.05500681  1
  O  O35  1  0.45142211  0.15828058  0.42666013  1
  O  O36  1  0.95142211  0.34171942  0.92666013  1
  O  O37  1  0.03784891  0.33421089  0.55500681  1
  O  O38  1  0.03784891  0.66578911  0.05500681  1
  O  O39  1  0.95142211  0.65828058  0.42666013  1
  O  O40  1  0.07564644  0.85840167  0.74371268  1
  O  O41  1  0.91971311  0.85205212  0.75326610  1
  O  O42  1  0.91971311  0.14794788  0.25326610  1
  O  O43  1  0.07564644  0.14159833  0.24371268  1
  O  O44  1  0.57564644  0.35840167  0.74371268  1
  O  O45  1  0.41971311  0.35205212  0.75326610  1
  O  O46  1  0.41971311  0.64794788  0.25326610  1
  O  O47  1  0.57564644  0.64159833  0.24371268  1
loop_
_geom_bond_atom_site_label_1
_geom_bond_atom_site_label_2
_geom_bond_distance
_geom_bond_site_symmetry_2
Na0 O0 2.319826 1_555
Na0 O46 2.419903 1_556
Na0 O22 2.451321 1_556
Na0 O16 2.562495 1_555
Na0 O40 2.697007 1_555
Na0 O6 2.728647 1_556
Na1 O7 2.319826 1_555
Na1 O41 2.419903 1_555
Na1 O17 2.451321 1_555
Na1 O23 2.562495 1_555
Na1 O47 2.697007 1_555
Na1 O1 2.728647 1_555
Na2 O4 2.319826 1_555
Na2 O42 2.419903 1_556
Na2 O18 2.451321 1_556
Na2 O20 2.562495 1_555
Na2 O44 2.697007 1_555
Na2 O2 2.728647 1_556
Na3 O3 2.319826 1_555
Na3 O45 2.419903 1_555
Na3 O21 2.451321 1_555
Na3 O19 2.562495 1_555
Na3 O43 2.697007 1_555
Na3 O5 2.728647 1_555
Na4 O4 2.400705 1_555
Na4 O34 2.461808 1_556
Na4 O5 2.474452 1_555
Na4 O44 2.562861 1_555
Na4 O45 2.579055 1_555
Na4 O35 2.676892 1_555
Na5 O7 2.400705 1_555
Na5 O33 2.461808 1_555
Na5 O6 2.474452 1_555
Na5 O47 2.562861 1_555
Na5 O46 2.579055 1_555
Na5 O32 2.676892 1_554
Na6 O0 2.400705 1_555
Na6 O38 2.461808 1_556
Na6 O1 2.474452 1_455
Na6 O40 2.562861 1_555
Na6 O41 2.579055 1_455
Na6 O39 2.676892 1_455
Na7 O3 2.400705 1_555
Na7 O37 2.461808 1_555
Na7 O2 2.474452 1_455
Na7 O43 2.562861 1_555
Na7 O42 2.579055 1_455
Na7 O36 2.676892 1_454
Na8 O19 2.422803 1_565
Na8 O43 2.438932 1_565
Na8 O22 2.502358 1_555
Na8 O24 2.539482 1_555
Na8 O6 2.744173 1_555
Na8 O13 2.857186 1_564
Na8 O14 2.869229 1_555
Na8 O30 2.959943 1_555
Na9 O16 2.422803 1_545
Na9 O40 2.438932 1_545
Na9 O21 2.502358 1_555
Na9 O27 2.539482 1_556
Na9 O5 2.744173 1_555
Na9 O14 2.857186 1_545
Na9 O13 2.869229 1_555
Na9 O29 2.959943 1_555
Na10 O23 2.422803 1_555
Na10 O47 2.438932 1_555
Na10 O18 2.502358 1_555
Na10 O28 2.539482 1_555
Na10 O2 2.744173 1_555
Na10 O9 2.857186 1_554
Na10 O10 2.869229 1_555
Na10 O26 2.959943 1_555
Na11 O20 2.422803 1_555
Na11 O44 2.438932 1_555
Na11 O17 2.502358 1_555
Na11 O31 2.539482 1_556
Na11 O1 2.744173 1_555
Na11 O10 2.857186 1_555
Na11 O9 2.869229 1_555
Na11 O25 2.959943 1_555
Hf0 O15 2.018047 1_556
Hf0 O38 2.031937 1_656
Hf0 O17 2.062603 1_555
Hf0 O31 2.106488 1_556
Hf0 O41 2.119889 1_555
Hf0 O1 2.181967 1_555
Hf1 O12 2.018047 1_555
Hf1 O37 2.031937 1_655
Hf1 O18 2.062603 1_555
Hf1 O28 2.106488 1_555
Hf1 O42 2.119889 1_555
Hf1 O2 2.181967 1_555
Hf2 O11 2.018047 1_556
Hf2 O34 2.031937 1_556
Hf2 O21 2.062603 1_555
Hf2 O27 2.106488 1_556
Hf2 O45 2.119889 1_555
Hf2 O5 2.181967 1_555
Hf3 O8 2.018047 1_555
Hf3 O33 2.031937 1_555
Hf3 O22 2.062603 1_555
Hf3 O24 2.106488 1_555
Hf3 O46 2.119889 1_555
Hf3 O6 2.181967 1_555
O0 Si2 1.628788 1_555
O0 Sc0 2.067056 1_555
O1 P6 1.569189 1_555
O2 P7 1.569189 1_555
O3 Si3 1.628788 1_555
O3 Sc1 2.067056 1_555
O4 Si0 1.628788 1_545
O4 Sc2 2.067056 1_555
O5 P4 1.569189 1_545
O6 P5 1.569189 1_565
O7 Si1 1.628788 1_565
O7 Sc3 2.067056 1_555
O8 P2 1.561530 1_555
O9 P2 1.525186 1_555
O9 Sc3 2.158844 1_556
O10 P3 1.525186 1_555
O10 Sc2 2.158844 1_555
O11 P3 1.561530 1_555
O12 P0 1.561530 1_645
O13 P0 1.525186 1_545
O13 Sc1 2.158844 1_556
O14 P1 1.525186 1_565
O14 Sc0 2.158844 1_555
O15 P1 1.561530 1_665
O16 P4 1.539631 1_555
O16 Sc0 2.193186 1_555
O17 Si0 1.649149 1_555
O18 Si1 1.649149 1_555
O19 P5 1.539631 1_555
O19 Sc1 2.193186 1_555
O20 P6 1.539631 1_555
O20 Sc2 2.193186 1_555
O21 Si2 1.649149 1_555
O22 Si3 1.649149 1_555
O23 P7 1.539631 1_555
O23 Sc3 2.193186 1_555
O24 P4 1.572492 1_555
O25 Si0 1.625631 1_555
O25 Sc3 1.934264 1_556
O26 Si1 1.625631 1_555
O26 Sc2 1.934264 1_555
O27 P5 1.572492 1_555
O28 P6 1.572492 1_555
O29 Si2 1.625631 1_555
O29 Sc1 1.934264 1_556
O30 Si3 1.625631 1_555
O30 Sc0 1.934264 1_555
O31 P7 1.572492 1_555
O32 P4 1.530408 1_555
O32 Sc3 2.141670 1_556
O33 Si0 1.656850 1_555
O34 Si1 1.656850 1_555
O35 P5 1.530408 1_555
O35 Sc2 2.141670 1_555
O36 P6 1.530408 1_555
O36 Sc1 2.141670 1_656
O37 Si2 1.656850 1_555
O38 Si3 1.656850 1_555
O39 P7 1.530408 1_555
O39 Sc0 2.141670 1_655
O40 P0 1.543762 1_555
O40 Sc0 2.212774 1_555
O41 P0 1.559120 1_655
O42 P1 1.559120 1_655
O43 P1 1.543762 1_555
O43 Sc1 2.212774 1_555
O44 P2 1.543762 1_555
O44 Sc2 2.212774 1_555
O45 P2 1.559120 1_555
O46 P3 1.559120 1_555
O47 P3 1.543762 1_555
O47 Sc3 2.212774 1_555
