# generated using pymatgen
data_KEr2F7
_symmetry_space_group_name_H-M   'P 1'
_cell_length_a   7.68547477
_cell_length_b   11.64979734
_cell_length_c   13.14313714
_cell_angle_alpha   90.00000000
_cell_angle_beta   90.00000000
_cell_angle_gamma   90.00000000
_symmetry_Int_Tables_number   1
_chemical_formula_structural   KEr2F7
_chemical_formula_sum   'K8 Er16 F56'
_cell_volume   1176.76057861
_cell_formula_units_Z   8
loop_
 _symmetry_equiv_pos_site_id
 _symmetry_equiv_pos_as_xyz
  1  'x, y, z'
loop_
 _atom_site_type_symbol
 _atom_site_label
 _atom_site_symmetry_multiplicity
 _atom_site_fract_x
 _atom_site_fract_y
 _atom_site_fract_z
 _atom_site_occupancy
  K  K0  1  0.00700852  0.08500591  0.09546180  1
  K  K1  1  0.50700852  0.91499409  0.90453820  1
  K  K2  1  0.50700852  0.41499409  0.59546180  1
  K  K3  1  0.00700852  0.58500591  0.40453820  1
  K  K4  1  0.98131945  0.43266747  0.06758102  1
  K  K5  1  0.48131945  0.56733253  0.93241898  1
  K  K6  1  0.48131945  0.06733253  0.56758102  1
  K  K7  1  0.98131945  0.93266747  0.43241898  1
  Er  Er0  1  0.77952910  0.75599832  0.16245328  1
  Er  Er1  1  0.27952910  0.24400168  0.83754672  1
  Er  Er2  1  0.27952910  0.74400168  0.66245328  1
  Er  Er3  1  0.77952910  0.25599832  0.33754672  1
  Er  Er4  1  0.00612763  0.49318217  0.75800222  1
  Er  Er5  1  0.50612763  0.50681783  0.24199778  1
  Er  Er6  1  0.50612763  0.00681783  0.25800222  1
  Er  Er7  1  0.00612763  0.99318217  0.74199778  1
  Er  Er8  1  0.73151761  0.24340354  0.83687475  1
  Er  Er9  1  0.23151761  0.75659646  0.16312525  1
  Er  Er10  1  0.23151761  0.25659646  0.33687475  1
  Er  Er11  1  0.73151761  0.74340354  0.66312525  1
  Er  Er12  1  0.50547253  0.20970928  0.06253254  1
  Er  Er13  1  0.00547253  0.79029072  0.93746746  1
  Er  Er14  1  0.00547253  0.29029072  0.56253254  1
  Er  Er15  1  0.50547253  0.70970928  0.43746746  1
  F  F0  1  0.33654829  0.58792307  0.12279184  1
  F  F1  1  0.83654829  0.41207693  0.87720816  1
  F  F2  1  0.83654829  0.91207693  0.62279184  1
  F  F3  1  0.33654829  0.08792307  0.37720816  1
  F  F4  1  0.24941292  0.92798706  0.23119027  1
  F  F5  1  0.74941292  0.07201294  0.76880973  1
  F  F6  1  0.74941292  0.57201294  0.73119027  1
  F  F7  1  0.24941292  0.42798706  0.26880973  1
  F  F8  1  0.33599020  0.66919329  0.30192787  1
  F  F9  1  0.83599020  0.33080671  0.69807213  1
  F  F10  1  0.83599020  0.83080671  0.80192787  1
  F  F11  1  0.33599020  0.16919329  0.19807213  1
  F  F12  1  0.50554838  0.52438024  0.41221942  1
  F  F13  1  0.00554838  0.47561976  0.58778058  1
  F  F14  1  0.00554838  0.97561976  0.91221942  1
  F  F15  1  0.50554838  0.02438024  0.08778058  1
  F  F16  1  0.50939984  0.87601239  0.37400834  1
  F  F17  1  0.00939984  0.12398761  0.62599166  1
  F  F18  1  0.00939984  0.62398761  0.87400834  1
  F  F19  1  0.76342817  0.92772148  0.23107510  1
  F  F20  1  0.50939984  0.37601239  0.12599166  1
  F  F21  1  0.17842296  0.41392092  0.87813244  1
  F  F22  1  0.17842296  0.91392092  0.62186756  1
  F  F23  1  0.67842296  0.08607908  0.37813244  1
  F  F24  1  0.00610398  0.16212973  0.41970125  1
  F  F25  1  0.50610398  0.83787027  0.58029875  1
  F  F26  1  0.50610398  0.33787027  0.91970125  1
  F  F27  1  0.00610398  0.66212973  0.08029875  1
  F  F28  1  0.67432141  0.16834420  0.19883054  1
  F  F29  1  0.17432141  0.83165580  0.80116946  1
  F  F30  1  0.17432141  0.33165580  0.69883054  1
  F  F31  1  0.67432141  0.66834420  0.30116946  1
  F  F32  1  0.27273061  0.27954235  0.50303219  1
  F  F33  1  0.77273061  0.72045765  0.49696781  1
  F  F34  1  0.77273061  0.22045765  0.00303219  1
  F  F35  1  0.27273061  0.77954235  0.99696781  1
  F  F36  1  0.23917489  0.21898616  0.00257313  1
  F  F37  1  0.73917489  0.78101384  0.99742687  1
  F  F38  1  0.73917489  0.28101384  0.50257313  1
  F  F39  1  0.23917489  0.71898616  0.49742687  1
  F  F40  1  0.00487131  0.24443177  0.23371029  1
  F  F41  1  0.50487131  0.75556823  0.76628971  1
  F  F42  1  0.50487131  0.25556823  0.73371029  1
  F  F43  1  0.00487131  0.74443177  0.26628971  1
  F  F44  1  0.00628089  0.36663652  0.40484239  1
  F  F45  1  0.50628089  0.63336348  0.59515761  1
  F  F46  1  0.50628089  0.13336348  0.90484239  1
  F  F47  1  0.00628089  0.86663652  0.09515761  1
  F  F48  1  0.50583431  0.30910747  0.33643566  1
  F  F49  1  0.00583431  0.69089253  0.66356434  1
  F  F50  1  0.00583431  0.19089253  0.83643566  1
  F  F51  1  0.50583431  0.80910747  0.16356434  1
  F  F52  1  0.76342817  0.42772148  0.26892490  1
  F  F53  1  0.26342717  0.57227852  0.73107510  1
  F  F54  1  0.26342717  0.07227852  0.76892490  1
  F  F55  1  0.67842296  0.58607908  0.12186756  1
loop_
_geom_bond_atom_site_label_1
_geom_bond_atom_site_label_2
_geom_bond_distance
_geom_bond_site_symmetry_2
Er0 F55 2.192456 1_555
Er0 F51 2.192629 1_555
Er0 F19 2.197932 1_555
Er0 F43 2.209074 1_655
Er0 F37 2.210322 1_554
Er0 F31 2.240641 1_555
Er0 F27 2.322499 1_655
Er0 F47 2.341064 1_655
Er1 F21 2.192456 1_555
Er1 F50 2.192629 1_555
Er1 F54 2.197933 1_555
Er1 F42 2.209074 1_555
Er1 F36 2.210322 1_556
Er1 F30 2.240641 1_555
Er1 F26 2.322499 1_555
Er1 F46 2.341064 1_555
Er2 F22 2.192456 1_555
Er2 F49 2.192629 1_555
Er2 F53 2.197933 1_555
Er2 F41 2.209074 1_555
Er2 F39 2.210322 1_555
Er2 F29 2.240641 1_555
Er2 F25 2.322499 1_555
Er2 F45 2.341064 1_555
Er3 F23 2.192456 1_555
Er3 F48 2.192629 1_555
Er3 F52 2.197932 1_555
Er3 F40 2.209074 1_655
Er3 F38 2.210322 1_555
Er3 F28 2.240641 1_555
Er3 F24 2.322499 1_655
Er3 F44 2.341064 1_655
Er4 F18 2.155791 1_555
Er4 F6 2.204586 1_455
Er4 F53 2.210139 1_555
Er4 F1 2.246335 1_455
Er4 F13 2.246587 1_555
Er4 F21 2.258084 1_555
Er4 F30 2.411792 1_555
Er4 F9 2.430743 1_455
Er4 F49 2.616435 1_555
Er5 F20 2.155791 1_555
Er5 F7 2.204586 1_555
Er5 F52 2.210146 1_555
Er5 F0 2.246335 1_555
Er5 F12 2.246587 1_555
Er5 F55 2.258084 1_555
Er5 F31 2.411792 1_555
Er5 F8 2.430743 1_555
Er5 F48 2.616435 1_555
Er6 F16 2.155791 1_545
Er6 F4 2.204586 1_545
Er6 F19 2.210146 1_545
Er6 F3 2.246335 1_555
Er6 F15 2.246587 1_555
Er6 F23 2.258084 1_555
Er6 F28 2.411792 1_555
Er6 F11 2.430743 1_555
Er6 F51 2.616435 1_545
Er7 F17 2.155791 1_565
Er7 F5 2.204586 1_465
Er7 F54 2.210139 1_565
Er7 F2 2.246335 1_455
Er7 F14 2.246587 1_555
Er7 F22 2.258084 1_555
Er7 F29 2.411792 1_555
Er7 F10 2.430743 1_455
Er7 F50 2.616435 1_565
Er8 F1 2.189491 1_555
Er8 F5 2.192231 1_555
Er8 F50 2.195222 1_655
Er8 F42 2.211950 1_555
Er8 F34 2.222813 1_556
Er8 F9 2.238203 1_555
Er8 F26 2.323239 1_555
Er8 F46 2.331935 1_555
Er9 F0 2.189491 1_555
Er9 F4 2.192231 1_555
Er9 F51 2.195222 1_555
Er9 F43 2.211950 1_555
Er9 F35 2.222813 1_554
Er9 F8 2.238203 1_555
Er9 F27 2.323239 1_555
Er9 F47 2.331935 1_555
Er10 F3 2.189491 1_555
Er10 F7 2.192231 1_555
Er10 F48 2.195222 1_555
Er10 F40 2.211950 1_555
Er10 F32 2.222813 1_555
Er10 F11 2.238203 1_555
Er10 F24 2.323239 1_555
Er10 F44 2.331935 1_555
Er11 F2 2.189491 1_555
Er11 F6 2.192231 1_555
Er11 F49 2.195222 1_655
Er11 F41 2.211950 1_555
Er11 F33 2.222813 1_555
Er11 F10 2.238203 1_555
Er11 F25 2.323239 1_555
Er11 F45 2.331935 1_555
Er12 F20 2.109517 1_555
Er12 F15 2.184398 1_555
Er12 F36 2.195764 1_555
Er12 F34 2.201403 1_555
Er12 F46 2.255334 1_554
Er12 F11 2.256739 1_555
Er12 F28 2.263904 1_555
Er12 F26 2.398602 1_554
Er13 F18 2.109517 1_555
Er13 F14 2.184398 1_555
Er13 F37 2.195764 1_455
Er13 F35 2.201403 1_555
Er13 F47 2.255334 1_556
Er13 F10 2.256739 1_455
Er13 F29 2.263904 1_555
Er13 F27 2.398602 1_556
Er14 F17 2.109517 1_555
Er14 F13 2.184398 1_555
Er14 F38 2.195764 1_455
Er14 F32 2.201403 1_555
Er14 F44 2.255334 1_555
Er14 F9 2.256739 1_455
Er14 F30 2.263904 1_555
Er14 F24 2.398602 1_555
Er15 F16 2.109517 1_555
Er15 F12 2.184398 1_555
Er15 F39 2.195764 1_555
Er15 F33 2.201403 1_555
Er15 F45 2.255334 1_555
Er15 F8 2.256739 1_555
Er15 F31 2.263904 1_555
Er15 F25 2.398602 1_555
F0 K5 2.748815 1_554
F1 K4 2.748815 1_556
F2 K7 2.748815 1_555
F3 K6 2.748815 1_555
F4 K0 3.162142 1_565
F5 K1 3.162142 1_545
F6 K2 3.162142 1_555
F7 K3 3.162142 1_555
F8 K3 3.028760 1_555
F9 K2 3.028760 1_555
F10 K1 3.028760 1_555
F11 K0 3.028760 1_555
F12 K2 2.724762 1_555
F13 K3 2.724762 1_555
F14 K0 2.724762 1_566
F15 K1 2.724762 1_544
F19 K7 3.132164 1_555
F19 K0 3.168412 1_665
F21 K4 2.922715 1_456
F21 K5 3.020322 1_555
F22 K7 2.922715 1_455
F22 K6 3.020322 1_565
F23 K6 2.922715 1_555
F23 K7 3.020322 1_545
F24 K7 2.685174 1_445
F25 K6 2.685174 1_565
F26 K5 2.685174 1_555
F27 K4 2.685174 1_455
F28 K0 3.053832 1_655
F29 K1 3.053832 1_555
F30 K2 3.053832 1_555
F31 K3 3.053832 1_655
F32 K2 2.684725 1_555
F32 K6 3.066180 1_555
F33 K3 2.684725 1_655
F33 K7 3.066180 1_555
F34 K0 2.684725 1_655
F34 K4 3.066180 1_555
F35 K1 2.684725 1_555
F35 K5 3.066180 1_555
F36 K0 2.666544 1_555
F37 K1 2.666544 1_555
F38 K2 2.666544 1_555
F39 K3 2.666544 1_555
F40 K0 2.598329 1_555
F40 K4 3.099856 1_455
F41 K1 2.598329 1_555
F41 K5 3.099856 1_555
F42 K2 2.598329 1_555
F42 K6 3.099856 1_555
F43 K3 2.598329 1_555
F43 K7 3.099856 1_455
F44 K3 2.543968 1_555
F45 K2 2.543968 1_555
F46 K1 2.543968 1_545
F47 K0 2.543968 1_565
F52 K4 3.132164 1_555
F52 K3 3.168412 1_655
F53 K5 3.132168 1_555
F53 K2 3.168416 1_555
F54 K6 3.132168 1_555
F54 K1 3.168416 1_545
F55 K5 2.922715 1_554
F55 K4 3.020322 1_555
