# generated using pymatgen
data_Na4Mg(Mo2O5)2
_symmetry_space_group_name_H-M   'P 1'
_cell_length_a   5.92717857
_cell_length_b   5.98155240
_cell_length_c   7.97149465
_cell_angle_alpha   110.63204404
_cell_angle_beta   109.47016211
_cell_angle_gamma   91.58930610
_symmetry_Int_Tables_number   1
_chemical_formula_structural   Na4Mg(Mo2O5)2
_chemical_formula_sum   'Na4 Mg1 Mo4 O10'
_cell_volume   245.96887530
_cell_formula_units_Z   1
loop_
 _symmetry_equiv_pos_site_id
 _symmetry_equiv_pos_as_xyz
  1  'x, y, z'
loop_
 _atom_site_type_symbol
 _atom_site_label
 _atom_site_symmetry_multiplicity
 _atom_site_fract_x
 _atom_site_fract_y
 _atom_site_fract_z
 _atom_site_occupancy
  Na  Na0  1  0.40513200  0.93961200  0.77036500  1
  Na  Na1  1  0.57159800  0.04487500  0.16057300  1
  Na  Na2  1  0.88914800  0.40559900  0.83734400  1
  Na  Na3  1  0.07736000  0.65456900  0.20675000  1
  Mg  Mg0  1  0.94329900  0.07740800  0.51590600  1
  Mo  Mo0  1  0.97080000  0.00223600  0.00192200  1
  Mo  Mo1  1  0.47409000  0.50534400  0.00006000  1
  Mo  Mo2  1  0.84425700  0.60277200  0.49654700  1
  Mo  Mo3  1  0.32791600  0.32877000  0.44852800  1
  O  O0  1  0.73651400  0.25644400  0.01175200  1
  O  O1  1  0.68947700  0.73121800  0.92403800  1
  O  O2  1  0.26937100  0.29326200  0.12513500  1
  O  O3  1  0.20787100  0.75650000  0.99589700  1
  O  O4  1  0.90636800  0.93634300  0.70169100  1
  O  O5  1  0.01467700  0.08315600  0.29333000  1
  O  O6  1  0.27529200  0.28621700  0.68977200  1
  O  O7  1  0.67937600  0.73890800  0.30916000  1
  O  O8  1  0.17146800  0.63765700  0.49538100  1
  O  O9  1  0.70442500  0.31286000  0.51585300  1
loop_
_geom_bond_atom_site_label_1
_geom_bond_atom_site_label_2
_geom_bond_distance
_geom_bond_site_symmetry_2
Na0 O8 2.243354 1_555
Na0 O1 2.389819 1_555
Na0 O0 2.419959 1_566
Na0 O6 2.449669 1_565
Na0 O4 2.819567 1_455
Na0 O3 2.918363 1_555
Na1 O2 2.366906 1_555
Na1 O3 2.378607 1_544
Na1 O0 2.393074 1_555
Na1 O5 2.452036 1_655
Na1 O1 2.453832 1_544
Na1 O7 2.499727 1_545
Na1 O9 2.540567 1_555
Na2 O9 2.273362 1_555
Na2 O0 2.283682 1_556
Na2 O1 2.322994 1_555
Na2 O3 2.427053 1_655
Na2 O4 2.647407 1_545
Na3 O8 2.219629 1_555
Na3 O3 2.314753 1_554
Na3 O2 2.455267 1_555
Na3 O5 2.482613 1_565
Na3 O0 2.683232 1_455
Na3 O7 2.746814 1_455
Na3 O1 2.812007 1_454
Mg0 O5 1.967426 1_655
Mg0 O4 2.009908 1_545
Mg0 O9 2.024539 1_555
Mg0 O6 2.044190 1_655
Mg0 O7 2.239840 1_545
Mo0 O1 2.060216 1_544
Mo0 O3 2.060862 1_644
Mo0 O0 2.086216 1_555
Mo0 O5 2.120367 1_655
Mo0 O2 2.142961 1_655
Mo0 O4 2.178672 1_544
Mo1 O0 2.184997 1_555
Mo1 O1 2.195343 1_554
Mo1 O3 2.208979 1_554
Mo1 O6 2.216098 1_554
Mo1 O7 2.232647 1_555
Mo1 O2 2.384993 1_555
Mo2 O7 1.943622 1_555
Mo2 O8 1.948328 1_655
Mo2 O9 1.977669 1_555
Mo2 O4 2.012297 1_555
Mo3 O5 2.042696 1_555
Mo3 O8 2.062204 1_555
Mo3 O9 2.127592 1_555
Mo3 O6 2.144927 1_555
Mo3 O2 2.413490 1_555
