# generated using pymatgen
data_Na6Mg(SbO4)2
_symmetry_space_group_name_H-M   'P 1'
_cell_length_a   6.34300537
_cell_length_b   6.22318669
_cell_length_c   6.56645268
_cell_angle_alpha   88.93937704
_cell_angle_beta   93.82099361
_cell_angle_gamma   116.16477605
_symmetry_Int_Tables_number   1
_chemical_formula_structural   Na6Mg(SbO4)2
_chemical_formula_sum   'Na6 Mg1 Sb2 O8'
_cell_volume   232.10742768
_cell_formula_units_Z   1
loop_
 _symmetry_equiv_pos_site_id
 _symmetry_equiv_pos_as_xyz
  1  'x, y, z'
loop_
 _atom_site_type_symbol
 _atom_site_label
 _atom_site_symmetry_multiplicity
 _atom_site_fract_x
 _atom_site_fract_y
 _atom_site_fract_z
 _atom_site_occupancy
  Na  Na0  1  0.76780936  0.98125662  0.36249092  1
  Na  Na1  1  0.23093145  0.51892839  0.33235165  1
  Na  Na2  1  0.72189570  0.51561318  0.11829142  1
  Na  Na3  1  0.20885744  0.53887757  0.92319444  1
  Na  Na4  1  0.30776722  0.89529855  0.62086477  1
  Na  Na5  1  0.81981720  0.53012742  0.57982555  1
  Mg  Mg0  1  0.35457296  0.33776265  0.65209602  1
  Sb  Sb0  1  0.80189382  -0.00319356  0.84374146  1
  Sb  Sb1  1  0.25092671  0.02008043  0.14483475  1
  O  O0  1  0.01133187  0.25693942  0.64266299  1
  O  O1  1  0.53798020  0.69035909  0.63762241  1
  O  O2  1  0.03088403  0.77277542  0.33060911  1
  O  O3  1  0.44192803  0.23936455  0.38731561  1
  O  O4  1  0.43388004  0.23821225  0.91938766  1
  O  O5  1  0.00040161  0.80756262  0.88407070  1
  O  O6  1  0.03432788  0.18669231  0.11492633  1
  O  O7  1  0.43765147  0.83792608  0.13571422  1
loop_
_geom_bond_atom_site_label_1
_geom_bond_atom_site_label_2
_geom_bond_distance
_geom_bond_site_symmetry_2
Na0 O7 2.320540 1_555
Na0 O6 2.349103 1_665
Na0 O0 2.472847 1_665
Na0 O2 2.545104 1_655
Na0 O1 2.562982 1_555
Na1 O7 2.272139 1_555
Na1 O6 2.338043 1_555
Na1 O2 2.423019 1_555
Na1 O1 2.583789 1_555
Na1 O3 2.629471 1_555
Na1 O0 2.646300 1_555
Na2 O4 2.237782 1_554
Na2 O2 2.301827 1_655
Na2 O5 2.493042 1_654
Na2 O3 2.615910 1_555
Na3 O7 2.227406 1_556
Na3 O6 2.357551 1_556
Na3 O0 2.432059 1_555
Na3 O5 2.549269 1_555
Na3 O1 2.735678 1_555
Na4 O1 2.320952 1_555
Na4 O2 2.392738 1_555
Na4 O3 2.471070 1_565
Na4 O5 2.561570 1_555
Na4 O4 2.734381 1_565
Na5 O2 2.273379 1_655
Na5 O1 2.451677 1_555
Na5 O0 2.502971 1_655
Na5 O5 2.522460 1_655
Na5 O3 2.544279 1_555
Mg0 O4 1.958151 1_555
Mg0 O1 1.983183 1_555
Mg0 O0 2.003587 1_555
Mg0 O3 2.042548 1_555
O0 Sb0 2.094498 1_455
O1 Sb0 2.291125 1_565
O2 Sb1 2.016877 1_565
O3 Sb1 2.056831 1_555
O4 Sb1 2.036240 1_556
O5 Sb0 2.072272 1_465
O5 Sb1 2.252552 1_566
O6 Sb1 2.052805 1_555
O6 Sb0 2.220935 1_454
O7 Sb1 1.971652 1_565
