# generated using pymatgen
data_K2MgCr2Cd(H2O5)2
_symmetry_space_group_name_H-M   'P 1'
_cell_length_a   5.95280183
_cell_length_b   6.61056883
_cell_length_c   7.89010331
_cell_angle_alpha   110.04817520
_cell_angle_beta   96.42114066
_cell_angle_gamma   107.01995537
_symmetry_Int_Tables_number   1
_chemical_formula_structural   K2MgCr2Cd(H2O5)2
_chemical_formula_sum   'K2 Mg1 Cr2 Cd1 H4 O10'
_cell_volume   271.00599928
_cell_formula_units_Z   1
loop_
 _symmetry_equiv_pos_site_id
 _symmetry_equiv_pos_as_xyz
  1  'x, y, z'
loop_
 _atom_site_type_symbol
 _atom_site_label
 _atom_site_symmetry_multiplicity
 _atom_site_fract_x
 _atom_site_fract_y
 _atom_site_fract_z
 _atom_site_occupancy
  K  K0  1  0.39897400  0.77442300  0.30973500  1
  K  K1  1  0.61338600  0.26906100  0.70454600  1
  Mg  Mg0  1  0.13005200  0.37100400  0.92768800  1
  Cr  Cr0  1  0.66841300  0.35476400  0.20224700  1
  Cr  Cr1  1  0.35802300  0.67368700  0.78187500  1
  Cd  Cd0  1  0.01923200  0.98045800  0.03142800  1
  H  H0  1  0.10626200  0.15262100  0.43516300  1
  H  H1  1  0.86381200  0.83755700  0.60172300  1
  H  H2  1  0.95161500  0.87063000  0.33601900  1
  H  H3  1  0.04071100  0.08664500  0.64452700  1
  O  O0  1  0.08243300  0.00610700  0.32962900  1
  O  O1  1  0.64570000  0.19262700  0.32413100  1
  O  O2  1  0.31323500  0.80198900  0.64160600  1
  O  O3  1  0.77440800  0.64183400  0.34040700  1
  O  O4  1  0.21259600  0.36479600  0.67847300  1
  O  O5  1  0.37625800  0.29299700  0.06002700  1
  O  O6  1  0.64286700  0.72188600  0.88792800  1
  O  O7  1  0.87362900  0.29049900  0.05725900  1
  O  O8  1  0.17731200  0.69727300  0.95390700  1
  O  O9  1  0.91775000  0.99914300  0.69335000  1
loop_
_geom_bond_atom_site_label_1
_geom_bond_atom_site_label_2
_geom_bond_distance
_geom_bond_site_symmetry_2
K0 O3 2.644370 1_555
K0 O2 2.678889 1_555
K0 O1 2.680161 1_565
K0 O0 2.740751 1_565
K0 O8 2.771122 1_554
K0 O5 3.068851 1_555
K1 O4 2.645445 1_555
K1 O6 2.784073 1_555
K1 O9 2.880022 1_545
K1 O1 2.906480 1_555
K1 O2 2.914292 1_545
K1 O7 2.966743 1_556
K1 O5 3.255213 1_556
Mg0 O7 1.976080 1_456
Mg0 O5 1.993375 1_556
Mg0 O8 2.024768 1_555
Mg0 O4 2.069342 1_555
Cr0 O1 1.656153 1_555
Cr0 O3 1.707206 1_555
Cr0 O7 1.806838 1_555
Cr0 O5 1.812224 1_555
Cr1 O2 1.650837 1_555
Cr1 O6 1.691273 1_555
Cr1 O4 1.802661 1_555
Cr1 O8 1.817581 1_555
Cd0 O6 2.255445 1_454
Cd0 O8 2.266940 1_554
Cd0 O0 2.279754 1_565
Cd0 O7 2.405513 1_465
Cd0 O5 2.416402 1_565
Cd0 O9 2.721166 1_454
H0 O0 0.995869 1_555
H1 O9 0.992263 1_555
H2 O0 1.021027 1_665
H2 O3 1.584804 1_555
H3 O9 0.993345 1_445
H3 O4 1.731844 1_555
