# generated using pymatgen
data_Na4YAlSi2SO12
_symmetry_space_group_name_H-M   'P 1'
_cell_length_a   9.16328980
_cell_length_b   9.14347828
_cell_length_c   22.24343734
_cell_angle_alpha   89.70514470
_cell_angle_beta   90.22098591
_cell_angle_gamma   119.61189076
_symmetry_Int_Tables_number   1
_chemical_formula_structural   Na4YAlSi2SO12
_chemical_formula_sum   'Na24 Y6 Al6 Si12 S6 O72'
_cell_volume   1620.22136012
_cell_formula_units_Z   6
loop_
 _symmetry_equiv_pos_site_id
 _symmetry_equiv_pos_as_xyz
  1  'x, y, z'
loop_
 _atom_site_type_symbol
 _atom_site_label
 _atom_site_symmetry_multiplicity
 _atom_site_fract_x
 _atom_site_fract_y
 _atom_site_fract_z
 _atom_site_occupancy
  Na  Na0  1  0.64500019  0.99930524  0.25634226  1
  Na  Na1  1  0.35562478  0.36987055  0.24442553  1
  Na  Na2  1  0.99546333  0.62924976  0.25914645  1
  Na  Na3  1  0.62496327  0.62665732  0.72922006  1
  Na  Na4  1  0.99579878  0.34880368  0.75174131  1
  Na  Na5  1  0.38366461  0.01750332  0.75023398  1
  Na  Na6  1  0.31181851  0.33213877  0.59160005  1
  Na  Na7  1  0.04177128  0.71792606  0.57449465  1
  Na  Na8  1  0.66282300  0.94818723  0.58978561  1
  Na  Na9  1  0.28617799  0.96996689  0.07520841  1
  Na  Na10  1  0.67443318  0.68649441  0.09530369  1
  Na  Na11  1  0.04932696  0.33967431  0.09316949  1
  Na  Na12  1  0.99122462  0.66605590  0.92564872  1
  Na  Na13  1  0.69244880  0.04327565  0.90206121  1
  Na  Na14  1  0.31748479  0.28699697  0.92283041  1
  Na  Na15  1  0.95660721  0.30282452  0.40722424  1
  Na  Na16  1  0.32814117  0.01820759  0.42054450  1
  Na  Na17  1  0.70375937  0.67126660  0.42343701  1
  Na  Na18  1  0.99021419  0.97652383  0.49903850  1
  Na  Na19  1  0.02599886  0.01338678  0.00204542  1
  Na  Na20  1  0.65594628  0.30753771  0.82884679  1
  Na  Na21  1  0.67880701  0.34013256  0.33597358  1
  Na  Na22  1  0.32173965  0.64394279  0.17454337  1
  Na  Na23  1  0.35425591  0.67822546  0.66205050  1
  Y  Y0  1  0.00898491  0.01639466  0.84356077  1
  Y  Y1  1  0.99660240  0.00092390  0.16165712  1
  Y  Y2  1  0.66673495  0.33389740  0.98578226  1
  Y  Y3  1  0.32342949  0.65587520  0.02185700  1
  Y  Y4  1  0.34220639  0.68176719  0.51533600  1
  Y  Y5  1  0.33410084  0.66628522  0.80931356  1
  Al  Al0  1  0.95073094  0.97434641  0.34962161  1
  Al  Al1  1  0.00144192  0.99699330  0.64491830  1
  Al  Al2  1  0.63659968  0.31283467  0.68048014  1
  Al  Al3  1  0.68914995  0.37381516  0.19063848  1
  Al  Al4  1  0.66451999  0.33323316  0.48272005  1
  Al  Al5  1  0.32654876  0.67045038  0.32030088  1
  Si  Si0  1  0.67790694  0.69366942  0.25346393  1
  Si  Si1  1  0.00083096  0.30644905  0.25432916  1
  Si  Si2  1  0.30109586  0.29238100  0.74028348  1
  Si  Si3  1  0.71052201  0.01470357  0.73855857  1
  Si  Si4  1  0.37077565  0.04981720  0.58119348  1
  Si  Si5  1  0.67963939  0.61798240  0.58382361  1
  Si  Si6  1  0.96631587  0.63559253  0.08844891  1
  Si  Si7  1  0.37932909  0.33183530  0.09256049  1
  Si  Si8  1  0.02471600  0.35744706  0.91442254  1
  Si  Si9  1  0.33306776  0.97132943  0.91579030  1
  Si  Si10  1  0.63050893  0.97137104  0.41605884  1
  Si  Si11  1  0.03020743  0.67477948  0.41455150  1
  S  S0  1  0.30485315  0.99441878  0.25619610  1
  S  S1  1  0.99207559  0.69998156  0.74296302  1
  S  S2  1  0.94543478  0.32407621  0.58110611  1
  S  S3  1  0.66869045  0.03816992  0.09003100  1
  S  S4  1  0.63875404  0.66989675  0.91555532  1
  S  S5  1  0.33249744  0.36703650  0.41517409  1
  O  O0  1  0.21318954  0.01837011  0.30599438  1
  O  O1  1  0.81969657  0.79600713  0.30520773  1
  O  O2  1  0.97052855  0.15929507  0.30527205  1
  O  O3  1  0.23804561  0.19733113  0.80508831  1
  O  O4  1  0.97067308  0.77016401  0.80033554  1
  O  O5  1  0.80376270  0.04133242  0.80385448  1
  O  O6  1  0.81858506  0.98472037  0.68556898  1
  O  O7  1  0.16832014  0.17788541  0.68703676  1
  O  O8  1  0.00744740  0.81138215  0.69172735  1
  O  O9  1  0.74249893  0.80621630  0.19199153  1
  O  O10  1  0.05075963  0.25016705  0.19172454  1
  O  O11  1  0.21042473  0.96911955  0.19860008  1
  O  O12  1  0.86713787  0.34581455  0.63532755  1
  O  O13  1  0.48626784  0.13621241  0.64004823  1
  O  O14  1  0.66693431  0.50131113  0.64181837  1
  O  O15  1  0.85902373  0.51718025  0.14565035  1
  O  O16  1  0.65942158  0.13176097  0.14219076  1
  O  O17  1  0.50183013  0.33329124  0.14800028  1
  O  O18  1  0.44567812  0.31153014  0.02669027  1
  O  O19  1  0.87290770  0.55788216  0.02452047  1
  O  O20  1  0.67834216  0.12424214  0.03215270  1
  O  O21  1  0.46863188  0.16877821  0.52197930  1
  O  O22  1  0.69920361  0.52734381  0.52236158  1
  O  O23  1  0.84647910  0.31034144  0.52581687  1
  O  O24  1  0.55884396  0.68581598  0.97096725  1
  O  O25  1  0.13732930  0.44690347  0.97457524  1
  O  O26  1  0.33140831  0.87048894  0.97734173  1
  O  O27  1  0.57420898  0.85723074  0.47727819  1
  O  O28  1  0.30035132  0.43306483  0.47197471  1
  O  O29  1  0.14224158  0.72035438  0.47644177  1
  O  O30  1  0.13807454  0.64537060  0.36153833  1
  O  O31  1  0.49396044  0.86621588  0.36230644  1
  O  O32  1  0.35204448  0.48135695  0.36448482  1
  O  O33  1  0.12274300  0.46220086  0.85385473  1
  O  O34  1  0.35515572  0.88088404  0.85565180  1
  O  O35  1  0.53903889  0.65966797  0.86146489  1
  O  O36  1  0.00890778  0.84506523  0.40225610  1
  O  O37  1  0.82132347  0.99767946  0.40548418  1
  O  O38  1  0.18936687  0.19523895  0.40672314  1
  O  O39  1  0.99760417  0.16697382  0.91703313  1
  O  O40  1  0.15321579  0.96864611  0.91593096  1
  O  O41  1  0.80757396  0.81768381  0.91204542  1
  O  O42  1  0.96104468  0.16840545  0.58284055  1
  O  O43  1  0.17785850  0.02739558  0.58657569  1
  O  O44  1  0.84514915  0.81356753  0.58928119  1
  O  O45  1  0.98389708  0.82235945  0.09173587  1
  O  O46  1  0.82360767  0.02357216  0.09032396  1
  O  O47  1  0.18832909  0.17101977  0.09545003  1
  O  O48  1  0.69728097  0.18927367  0.73176715  1
  O  O49  1  0.49405494  0.32100838  0.73682860  1
  O  O50  1  0.84916562  0.52825189  0.73850259  1
  O  O51  1  0.66741231  0.50687396  0.24894447  1
  O  O52  1  0.82377758  0.31784478  0.24658781  1
  O  O53  1  0.47621527  0.14110729  0.25271831  1
  O  O54  1  0.65001308  0.51465626  0.91554766  1
  O  O55  1  0.84317525  0.34985236  0.91355316  1
  O  O56  1  0.49255758  0.16258354  0.91442345  1
  O  O57  1  0.64718005  0.16029728  0.42487438  1
  O  O58  1  0.49329066  0.36201408  0.41881159  1
  O  O59  1  0.84447882  0.49951161  0.42119080  1
  O  O60  1  0.37735330  0.51073469  0.09453745  1
  O  O61  1  0.15245990  0.65125753  0.09207405  1
  O  O62  1  0.51934641  0.86767324  0.09002985  1
  O  O63  1  0.34830342  0.85865214  0.58162670  1
  O  O64  1  0.50521492  0.63120495  0.58364957  1
  O  O65  1  0.11912793  0.47215271  0.57728640  1
  O  O66  1  0.31631376  0.83654821  0.26155526  1
  O  O67  1  0.49148657  0.67033312  0.26816471  1
  O  O68  1  0.16261263  0.49348839  0.26847825  1
  O  O69  1  0.31472288  0.47859363  0.73845744  1
  O  O70  1  0.15088507  0.69225221  0.74291949  1
  O  O71  1  0.52273706  0.84708525  0.73933993  1
loop_
_geom_bond_atom_site_label_1
_geom_bond_atom_site_label_2
_geom_bond_distance
_geom_bond_site_symmetry_2
Na0 O53 2.461567 1_565
Na0 O52 2.548479 1_565
Na0 O66 2.621220 1_555
Na0 O67 2.628477 1_555
Na0 O31 2.698716 1_555
Na0 O9 2.749307 1_555
Na0 O16 2.782832 1_565
Na0 O2 2.810928 1_565
Na1 O67 2.450732 1_555
Na1 O51 2.490783 1_555
Na1 O68 2.584753 1_555
Na1 O17 2.641851 1_555
Na1 O10 2.709695 1_555
Na1 O53 2.812269 1_555
Na1 O32 2.869439 1_555
Na2 O68 2.409090 1_655
Na2 O52 2.497658 1_555
Na2 O30 2.589746 1_655
Na2 O66 2.594625 1_655
Na2 O51 2.648216 1_555
Na2 O15 2.778965 1_555
Na2 O1 2.902464 1_555
Na3 O14 2.388585 1_555
Na3 O49 2.441641 1_555
Na3 O69 2.480908 1_555
Na3 O71 2.619607 1_555
Na3 O50 2.625738 1_555
Na4 O48 2.421095 1_555
Na4 O33 2.529652 1_655
Na4 O69 2.571332 1_655
Na4 O50 2.599025 1_555
Na4 O5 2.727114 1_555
Na4 O70 2.739557 1_655
Na4 O12 2.835707 1_555
Na5 O49 2.456207 1_555
Na5 O71 2.465644 1_545
Na5 O48 2.536925 1_555
Na5 O34 2.603673 1_545
Na5 O13 2.655359 1_555
Na5 O70 2.674681 1_545
Na5 O3 2.859062 1_555
Na6 O64 2.420281 1_555
Na6 O43 2.430097 1_555
Na6 O7 2.526393 1_555
Na6 O65 2.661444 1_555
Na6 O42 2.802378 1_455
Na6 O28 2.830424 1_555
Na7 O29 2.366382 1_555
Na7 O44 2.384042 1_455
Na7 O63 2.448952 1_555
Na7 O43 2.480360 1_565
Na7 O65 2.669972 1_555
Na7 O8 2.814935 1_555
Na7 O22 2.970168 1_455
Na8 O42 2.471476 1_565
Na8 O6 2.490120 1_555
Na8 O44 2.517749 1_555
Na8 O64 2.524006 1_555
Na8 O63 2.583618 1_555
Na8 O27 2.636691 1_555
Na9 O45 2.436657 1_455
Na9 O47 2.454914 1_565
Na9 O26 2.477468 1_554
Na9 O61 2.568610 1_555
Na9 O62 2.741318 1_555
Na9 O11 2.832701 1_555
Na9 O18 2.919081 1_565
Na10 O9 2.356238 1_555
Na10 O60 2.381182 1_555
Na10 O45 2.471879 1_555
Na10 O62 2.664749 1_555
Na10 O46 2.685907 1_565
Na10 O24 2.956672 1_554
Na11 O10 2.338300 1_555
Na11 O47 2.437777 1_555
Na11 O61 2.519717 1_555
Na11 O46 2.593990 1_455
Na11 O60 2.614545 1_555
Na11 O25 2.789041 1_554
Na12 O40 2.417149 1_655
Na12 O19 2.434477 1_556
Na12 O55 2.529996 1_555
Na12 O41 2.672654 1_555
Na12 O54 2.731849 1_555
Na12 O26 2.961297 1_655
Na12 O4 2.976066 1_555
Na13 O5 2.418276 1_555
Na13 O55 2.451383 1_555
Na13 O39 2.465821 1_555
Na13 O56 2.569486 1_555
Na13 O41 2.749688 1_545
Na13 O34 2.877293 1_545
Na13 O20 3.009597 1_556
Na14 O56 2.389691 1_555
Na14 O40 2.536745 1_545
Na14 O18 2.547783 1_556
Na14 O39 2.575323 1_455
Na14 O54 2.715876 1_555
Na14 O3 2.734732 1_555
Na14 O25 2.933422 1_555
Na15 O37 2.430121 1_545
Na15 O59 2.494142 1_555
Na15 O57 2.498699 1_555
Na15 O2 2.660758 1_555
Na15 O38 2.755096 1_655
Na15 O23 2.841229 1_555
Na15 O30 2.905326 1_655
Na16 O38 2.521452 1_555
Na16 O57 2.547422 1_555
Na16 O36 2.578685 1_545
Na16 O21 2.627061 1_555
Na16 O29 2.694710 1_545
Na16 O58 2.733430 1_555
Na16 O0 2.753646 1_555
Na16 O31 2.835261 1_545
Na17 O59 2.476685 1_555
Na17 O36 2.485368 1_655
Na17 O58 2.517502 1_555
Na17 O22 2.547931 1_555
Na17 O37 2.653524 1_555
Na17 O27 2.785934 1_555
Na17 O1 2.852843 1_555
Na18 O44 2.459430 1_555
Na18 O43 2.481380 1_665
Na18 O36 2.518234 1_655
Na18 O37 2.651369 1_555
Na18 O42 2.669307 1_565
Na18 O38 2.815331 1_665
Na19 O40 2.385771 1_544
Na19 O39 2.438346 1_454
Na19 O45 2.546352 1_445
Na19 O47 2.548495 1_555
Na19 O46 2.739444 1_455
Na19 O41 2.771672 1_444
Na20 O56 2.378356 1_555
Na20 O55 2.443305 1_555
Na20 O48 2.531958 1_555
Na20 O49 2.561203 1_555
Na20 O54 2.729237 1_555
Na20 O50 2.774967 1_555
Na21 O59 2.416866 1_555
Na21 O52 2.459958 1_555
Na21 O57 2.489607 1_555
Na21 O51 2.491606 1_555
Na21 O58 2.586325 1_555
Na21 O53 2.618578 1_555
Na22 O60 2.356456 1_555
Na22 O61 2.419692 1_555
Na22 O68 2.529020 1_555
Na22 O67 2.534469 1_555
Na22 O66 2.640489 1_555
Na22 O62 2.706196 1_555
Na23 O71 2.318209 1_555
Na23 O69 2.381364 1_555
Na23 O64 2.398659 1_555
Na23 O63 2.445924 1_555
Na23 O70 2.643743 1_555
Na23 O65 2.782188 1_555
Al0 O1 1.774596 1_555
Al0 O37 1.805473 1_555
Al0 O2 1.883304 1_565
Al0 O36 1.912040 1_655
Al0 O0 2.438233 1_665
Al0 O38 2.472758 1_665
Al1 O7 1.859331 1_565
Al1 O6 1.860793 1_455
Al1 O43 1.985708 1_565
Al1 O44 2.007348 1_455
Al1 O8 2.010233 1_555
Al1 O42 2.246613 1_465
Al2 O13 1.766738 1_555
Al2 O14 1.816557 1_555
Al2 O49 1.841934 1_555
Al2 O48 1.868063 1_555
Al2 O12 2.223954 1_555
Al2 O50 2.356812 1_555
Al3 O15 1.767698 1_555
Al3 O17 1.829093 1_555
Al3 O51 1.859994 1_555
Al3 O52 1.984453 1_555
Al3 O16 2.358034 1_555
Al3 O53 2.475676 1_555
Al4 O22 1.866841 1_555
Al4 O21 1.891251 1_555
Al4 O57 1.988011 1_555
Al4 O23 2.018241 1_555
Al4 O59 2.102913 1_555
Al4 O58 2.222356 1_555
Al5 O30 1.869574 1_555
Al5 O67 1.908994 1_555
Al5 O31 1.929468 1_555
Al5 O68 1.951206 1_555
Al5 O66 2.035227 1_555
Al5 O32 2.095172 1_555
O0 S0 1.473731 1_545
O1 Si0 1.639041 1_555
O2 Si1 1.670032 1_655
O3 Si2 1.632267 1_555
O3 Y0 2.107734 1_555
O4 S1 1.487809 1_555
O4 Y0 2.314107 1_665
O5 Si3 1.639279 1_555
O5 Y0 2.185687 1_655
O6 Si3 1.650924 1_565
O7 Si2 1.649828 1_555
O8 S1 1.484481 1_455
O9 Si0 1.633648 1_555
O9 Y1 2.224747 1_565
O10 Si1 1.630423 1_555
O10 Y1 2.186928 1_455
O11 S0 1.496732 1_555
O11 Y1 2.268686 1_465
O12 S2 1.469330 1_555
O13 Si4 1.622225 1_555
O14 Si5 1.637053 1_555
O15 Si6 1.643545 1_555
O16 S3 1.472554 1_555
O17 Si7 1.660014 1_555
O18 Si7 1.634649 1_555
O18 Y2 2.139112 1_554
O19 Si6 1.630803 1_555
O19 Y2 2.165156 1_554
O20 S3 1.485357 1_555
O20 Y2 2.220423 1_554
O21 Si4 1.659062 1_555
O22 Si5 1.657825 1_555
O23 S2 1.493620 1_555
O24 S4 1.480096 1_555
O24 Y3 2.332747 1_556
O25 Si8 1.640308 1_555
O25 Y3 2.109927 1_556
O26 Si9 1.642609 1_555
O26 Y3 2.162232 1_556
O27 Si10 1.633508 1_555
O27 Y4 2.106974 1_555
O28 S5 1.494660 1_555
O28 Y4 2.325142 1_555
O29 Si11 1.641635 1_555
O29 Y4 2.203162 1_555
O30 Si11 1.647632 1_555
O31 Si10 1.652568 1_555
O32 S5 1.483365 1_555
O33 Si8 1.638633 1_555
O33 Y5 2.153802 1_555
O34 Si9 1.641086 1_555
O34 Y5 2.143577 1_555
O35 S4 1.483052 1_555
O35 Y5 2.229487 1_555
O36 Si11 1.683055 1_555
O37 Si10 1.660524 1_555
O38 S5 1.479233 1_555
O39 Si8 1.633924 1_655
O39 Y0 2.178011 1_655
O40 Si9 1.636066 1_555
O40 Y0 2.252826 1_565
O41 S4 1.469410 1_555
O41 Y0 2.388985 1_665
O42 S2 1.499511 1_555
O43 Si4 1.680641 1_555
O44 Si5 1.683290 1_555
O45 Si6 1.636109 1_555
O45 Y1 2.221504 1_565
O46 S3 1.490017 1_555
O46 Y1 2.318399 1_555
O47 Si7 1.638918 1_555
O47 Y1 2.229411 1_455
O48 Si3 1.665561 1_555
O49 Si2 1.656564 1_555
O50 S1 1.469284 1_555
O51 Si0 1.666091 1_555
O52 Si1 1.684453 1_655
O53 S0 1.479569 1_545
O54 S4 1.473151 1_555
O54 Y2 2.327577 1_555
O55 Si8 1.630359 1_655
O55 Y2 2.236295 1_555
O56 Si9 1.633699 1_545
O56 Y2 2.248503 1_555
O57 Si10 1.669825 1_545
O58 S5 1.498485 1_555
O59 Si11 1.670512 1_655
O60 Si7 1.645599 1_555
O60 Y3 2.288822 1_555
O61 Si6 1.641347 1_455
O61 Y3 2.201912 1_555
O62 S3 1.481460 1_565
O62 Y3 2.417881 1_555
O63 Si4 1.655851 1_565
O63 Y4 2.174346 1_555
O64 Si5 1.661358 1_555
O64 Y4 2.326269 1_555
O65 S2 1.497938 1_455
O65 Y4 2.423534 1_555
O66 S0 1.502275 1_555
O67 Si0 1.647382 1_555
O68 Si1 1.648616 1_555
O69 Si2 1.644815 1_555
O69 Y5 2.277122 1_555
O70 S1 1.491409 1_455
O70 Y5 2.329627 1_555
O71 Si3 1.644342 1_565
O71 Y5 2.305124 1_555
