# generated using pymatgen
data_MgTi2Zn2O6
_symmetry_space_group_name_H-M   'P 1'
_cell_length_a   5.22325683
_cell_length_b   5.22554145
_cell_length_c   5.85720909
_cell_angle_alpha   63.46622868
_cell_angle_beta   63.49187709
_cell_angle_gamma   60.00269441
_symmetry_Int_Tables_number   1
_chemical_formula_structural   MgTi2Zn2O6
_chemical_formula_sum   'Mg1 Ti2 Zn2 O6'
_cell_volume   118.63073363
_cell_formula_units_Z   1
loop_
 _symmetry_equiv_pos_site_id
 _symmetry_equiv_pos_as_xyz
  1  'x, y, z'
loop_
 _atom_site_type_symbol
 _atom_site_label
 _atom_site_symmetry_multiplicity
 _atom_site_fract_x
 _atom_site_fract_y
 _atom_site_fract_z
 _atom_site_occupancy
  Mg  Mg0  1  0.84904000  0.84900000  0.45261600  1
  Ti  Ti0  1  0.49625100  0.49553900  0.51196800  1
  Ti  Ti1  1  0.03467400  0.03509800  0.89451700  1
  Zn  Zn0  1  0.26276000  0.26324700  0.21034600  1
  Zn  Zn1  1  0.67778300  0.67770000  0.96545000  1
  O  O0  1  0.09731400  0.43410000  0.70113900  1
  O  O1  1  0.43340500  0.76661000  0.70124200  1
  O  O2  1  0.76684600  0.09690100  0.70100600  1
  O  O3  1  0.63753000  0.25831100  0.20820800  1
  O  O4  1  0.25862100  0.89498500  0.20820000  1
  O  O5  1  0.89483900  0.63757300  0.20859600  1
loop_
_geom_bond_atom_site_label_1
_geom_bond_atom_site_label_2
_geom_bond_distance
_geom_bond_site_symmetry_2
Mg0 O4 2.038822 1_655
Mg0 O3 2.039106 1_565
Mg0 O5 2.040109 1_555
Mg0 O2 2.132902 1_565
Mg0 O0 2.134287 1_655
Mg0 O1 2.138101 1_555
O0 Ti0 1.990710 1_555
O0 Ti1 1.994630 1_555
O0 Zn1 2.182246 1_455
O1 Ti0 1.989090 1_555
O1 Ti1 1.995035 1_565
O1 Zn1 2.183555 1_555
O2 Ti0 1.988763 1_555
O2 Ti1 1.995639 1_655
O2 Zn1 2.181366 1_545
O3 Zn0 1.939233 1_555
O3 Zn1 2.068471 1_554
O3 Ti0 2.265092 1_555
O3 Ti1 2.265525 1_654
O4 Zn0 1.940946 1_565
O4 Zn1 2.069339 1_554
O4 Ti0 2.264018 1_555
O4 Ti1 2.267208 1_564
O5 Zn0 1.939150 1_655
O5 Zn1 2.072277 1_554
O5 Ti0 2.259915 1_555
O5 Ti1 2.266331 1_664
