# generated using pymatgen
data_Ba2YMgMn2TlO7
_symmetry_space_group_name_H-M   'P 1'
_cell_length_a   3.98316700
_cell_length_b   3.98317200
_cell_length_c   14.85518500
_cell_angle_alpha   90.00060573
_cell_angle_beta   89.99889027
_cell_angle_gamma   90.00005754
_symmetry_Int_Tables_number   1
_chemical_formula_structural   Ba2YMgMn2TlO7
_chemical_formula_sum   'Ba2 Y1 Mg1 Mn2 Tl1 O7'
_cell_volume   235.68700641
_cell_formula_units_Z   1
loop_
 _symmetry_equiv_pos_site_id
 _symmetry_equiv_pos_as_xyz
  1  'x, y, z'
loop_
 _atom_site_type_symbol
 _atom_site_label
 _atom_site_symmetry_multiplicity
 _atom_site_fract_x
 _atom_site_fract_y
 _atom_site_fract_z
 _atom_site_occupancy
  Ba  Ba0  1  0.50000700  0.50000300  0.16848500  1
  Ba  Ba1  1  0.50001600  0.50000300  0.83150200  1
  Y  Y0  1  0.49999100  0.50001000  0.50000400  1
  Mg  Mg0  1  0.99998400  0.00001600  0.50000200  1
  Mn  Mn0  1  0.00001400  0.00000800  0.33192300  1
  Mn  Mn1  1  0.00005000  0.99996000  0.66808400  1
  Tl  Tl0  1  0.00002900  0.00001000  0.99999300  1
  O  O0  1  0.00000800  0.00000000  0.19801800  1
  O  O1  1  0.99999900  0.49999600  0.41178600  1
  O  O2  1  0.50000100  0.00000400  0.41176700  1
  O  O3  1  0.50000700  0.00000300  0.58821900  1
  O  O4  1  0.49987400  0.49998000  0.99998700  1
  O  O5  1  0.00000600  0.50000700  0.58824000  1
  O  O6  1  0.00001400  0.00000200  0.80199200  1
loop_
_geom_bond_atom_site_label_1
_geom_bond_atom_site_label_2
_geom_bond_distance
_geom_bond_site_symmetry_2
Ba0 O4 2.503069 1_554
Ba0 O0 2.850471 1_565
Ba0 O0 2.850486 1_665
Ba0 O0 2.850491 1_555
Ba0 O0 2.850512 1_655
Ba1 O4 2.502876 1_555
Ba1 O6 2.850425 1_665
Ba1 O6 2.850427 1_655
Ba1 O6 2.850447 1_555
Ba1 O6 2.850451 1_565
Mg0 O3 2.383967 1_555
Mg0 O1 2.384003 1_555
Mg0 O1 2.384113 1_545
Mg0 O3 2.384162 1_655
Mg0 O2 2.384176 1_555
Mg0 O5 2.384196 1_655
Mg0 O2 2.384247 1_655
Mg0 O5 2.384279 1_645
Mn0 O0 1.989184 1_555
Mn0 O2 2.317999 1_555
Mn0 O2 2.318048 1_455
Mn0 O1 2.318118 1_455
Mn0 O1 2.318222 1_445
Mn1 O6 1.989228 1_565
Mn1 O5 2.317854 1_555
Mn1 O3 2.318016 1_565
Mn1 O5 2.318197 1_565
Mn1 O3 2.318350 1_465
O1 Y0 2.384067 1_655
O1 Y0 2.384078 1_555
O2 Y0 2.384221 1_545
O2 Y0 2.384238 1_555
O3 Y0 2.384015 1_545
O3 Y0 2.384085 1_555
O4 Tl0 2.816004 1_555
O4 Tl0 2.816176 1_565
O4 Tl0 2.816880 1_655
O4 Tl0 2.817046 1_665
O5 Y0 2.384148 1_555
O5 Y0 2.384291 1_455
