# generated using pymatgen
data_TbZn2
_symmetry_space_group_name_H-M   'P 1'
_cell_length_a   4.45477183
_cell_length_b   5.61585156
_cell_length_c   5.61585228
_cell_angle_alpha   78.30891776
_cell_angle_beta   66.63266660
_cell_angle_gamma   66.63265622
_symmetry_Int_Tables_number   1
_chemical_formula_structural   TbZn2
_chemical_formula_sum   'Tb2 Zn4'
_cell_volume   118.22108753
_cell_formula_units_Z   2
loop_
 _symmetry_equiv_pos_site_id
 _symmetry_equiv_pos_as_xyz
  1  'x, y, z'
loop_
 _atom_site_type_symbol
 _atom_site_label
 _atom_site_symmetry_multiplicity
 _atom_site_fract_x
 _atom_site_fract_y
 _atom_site_fract_z
 _atom_site_occupancy
  Tb  Tb0  1  0.52919993  0.72080007  0.22080007  1
  Tb  Tb1  1  0.47080007  0.27919993  0.77919993  1
  Zn  Zn0  1  0.83410796  0.71146420  0.62032389  1
  Zn  Zn1  1  0.16589204  0.28853580  0.37967611  1
  Zn  Zn2  1  0.83410796  0.12032389  0.21146420  1
  Zn  Zn3  1  0.16589204  0.87967611  0.78853580  1
loop_
_geom_bond_atom_site_label_1
_geom_bond_atom_site_label_2
_geom_bond_distance
_geom_bond_site_symmetry_2
Tb0 Zn2 3.032324 1_465
Tb0 Zn0 3.032325 1_455
Tb0 Zn2 3.032337 1_565
Tb0 Zn0 3.032337 1_555
Tb0 Zn1 3.081388 1_565
Tb0 Zn3 3.081389 1_555
Tb0 Zn2 3.098563 1_555
Tb0 Zn0 3.098563 1_554
Tb0 Zn1 3.225151 1_655
Tb0 Zn3 3.225152 1_654
Tb0 Zn1 3.225163 1_555
Tb0 Zn3 3.225163 1_554
Tb1 Zn3 3.032324 1_645
Tb1 Zn1 3.032325 1_655
Tb1 Zn3 3.032337 1_545
Tb1 Zn1 3.032337 1_555
Tb1 Zn0 3.081388 1_545
Tb1 Zn2 3.081389 1_555
Tb1 Zn3 3.098563 1_555
Tb1 Zn1 3.098563 1_556
Tb1 Zn0 3.225151 1_455
Tb1 Zn2 3.225152 1_456
Tb1 Zn0 3.225163 1_555
Tb1 Zn2 3.225163 1_556
Zn0 Zn3 2.558523 1_655
Zn0 Zn3 2.558554 1_555
Zn0 Zn1 2.565882 1_655
Zn0 Zn2 2.899570 1_565
Zn1 Zn2 2.558523 1_455
Zn1 Zn2 2.558554 1_555
Zn1 Zn3 2.899570 1_545
Zn2 Zn3 2.565882 1_644
