# generated using pymatgen
data_MgV3Zn2O8
_symmetry_space_group_name_H-M   'P 1'
_cell_length_a   7.85407179
_cell_length_b   5.98747249
_cell_length_c   5.92751883
_cell_angle_alpha   62.08896565
_cell_angle_beta   94.49929881
_cell_angle_gamma   134.54658808
_symmetry_Int_Tables_number   1
_chemical_formula_structural   MgV3Zn2O8
_chemical_formula_sum   'Mg1 V3 Zn2 O8'
_cell_volume   161.13461253
_cell_formula_units_Z   1
loop_
 _symmetry_equiv_pos_site_id
 _symmetry_equiv_pos_as_xyz
  1  'x, y, z'
loop_
 _atom_site_type_symbol
 _atom_site_label
 _atom_site_symmetry_multiplicity
 _atom_site_fract_x
 _atom_site_fract_y
 _atom_site_fract_z
 _atom_site_occupancy
  Mg  Mg0  1  0.62515925  0.75029875  0.12482921  1
  V  V0  1  0.62505908  0.25009507  0.12488194  1
  V  V1  1  0.62498688  0.24997074  0.62503694  1
  V  V2  1  0.62483423  0.74993398  0.62501059  1
  Zn  Zn0  1  0.11236836  0.07132815  0.00120376  1
  Zn  Zn1  1  0.13737320  0.42763291  0.24950231  1
  O  O0  1  0.84476933  0.32718527  0.35670572  1
  O  O1  1  0.44698037  0.20140732  0.36663333  1
  O  O2  1  0.80304452  0.29892279  0.88324016  1
  O  O3  1  0.85810928  0.85395966  0.35321972  1
  O  O4  1  0.83435012  0.81183462  0.86691818  1
  O  O5  1  0.40524620  0.17292000  0.89321344  1
  O  O6  1  0.41578454  0.68842264  0.38290771  1
  O  O7  1  0.39193364  0.64608812  0.89669701  1
loop_
_geom_bond_atom_site_label_1
_geom_bond_atom_site_label_2
_geom_bond_distance
_geom_bond_site_symmetry_2
Mg0 O4 2.046900 1_554
Mg0 O6 2.047189 1_555
Mg0 O2 2.065004 1_564
Mg0 O1 2.065387 1_555
Mg0 O3 2.090521 1_555
Mg0 O7 2.090710 1_554
O0 Zn1 1.994770 1_655
O0 V0 2.045329 1_555
O0 V1 2.084698 1_555
O0 V2 2.089906 1_545
O1 V0 1.856331 1_555
O1 V1 1.973800 1_555
O2 V0 1.854709 1_556
O2 V1 1.973114 1_555
O3 V2 2.064673 1_555
O3 Zn0 2.121449 1_665
O3 Zn1 2.156789 1_665
O3 V1 2.178228 1_555
O4 Zn0 1.985176 1_666
O4 V2 2.042790 1_555
O4 V0 2.043399 1_556
O5 Zn0 1.993610 1_556
O5 V0 2.045158 1_556
O5 V1 2.084496 1_555
O5 V2 2.089602 1_555
O6 Zn1 1.984776 1_555
O6 V2 2.041475 1_555
O6 V0 2.043158 1_565
O7 V2 2.062805 1_555
O7 Zn1 2.123148 1_556
O7 Zn0 2.159680 1_556
O7 V1 2.177885 1_565
