# generated using pymatgen
data_Na6Ca5TaP3(SO6)6
_symmetry_space_group_name_H-M   'P 1'
_cell_length_a   9.21505605
_cell_length_b   9.25697767
_cell_length_c   23.49971331
_cell_angle_alpha   89.89440244
_cell_angle_beta   90.00000000
_cell_angle_gamma   119.85030620
_symmetry_Int_Tables_number   1
_chemical_formula_structural   Na6Ca5TaP3(SO6)6
_chemical_formula_sum   'Na12 Ca10 Ta2 P6 S12 O72'
_cell_volume   1738.65147741
_cell_formula_units_Z   2
loop_
 _symmetry_equiv_pos_site_id
 _symmetry_equiv_pos_as_xyz
  1  'x, y, z'
loop_
 _atom_site_type_symbol
 _atom_site_label
 _atom_site_symmetry_multiplicity
 _atom_site_fract_x
 _atom_site_fract_y
 _atom_site_fract_z
 _atom_site_occupancy
  Na  Na0  1  0.30621419  0.33572363  0.58028118  1
  Na  Na1  1  0.66860922  0.97117177  0.59455296  1
  Na  Na2  1  0.30256354  0.97117177  0.09455296  1
  Na  Na3  1  0.02951044  0.33572363  0.08028118  1
  Na  Na4  1  0.96296879  0.66735778  0.90471127  1
  Na  Na5  1  0.70438799  0.66735778  0.40471127  1
  Na  Na6  1  0.03212116  0.01595103  0.49378903  1
  Na  Na7  1  0.98382987  0.01595103  0.99378903  1
  Na  Na8  1  0.68129290  0.31787880  0.82513219  1
  Na  Na9  1  0.63658690  0.31787880  0.32513219  1
  Na  Na10  1  0.36238964  0.67978808  0.17003798  1
  Na  Na11  1  0.31739744  0.67978808  0.67003798  1
  Ca  Ca0  1  0.01455069  0.01172942  0.34633494  1
  Ca  Ca1  1  0.99717873  0.01172942  0.84633494  1
  Ca  Ca2  1  0.98808725  0.98022368  0.66302844  1
  Ca  Ca3  1  0.99213642  0.98022368  0.16302844  1
  Ca  Ca4  1  0.67759286  0.33971911  0.68840790  1
  Ca  Ca5  1  0.66212724  0.33971911  0.18840790  1
  Ca  Ca6  1  0.66540623  0.32987036  0.97648384  1
  Ca  Ca7  1  0.66446512  0.32987036  0.47648384  1
  Ca  Ca8  1  0.34246638  0.66264302  0.01521695  1
  Ca  Ca9  1  0.32017564  0.66264302  0.51521695  1
  Ta  Ta0  1  0.33256198  0.66234445  0.31567791  1
  Ta  Ta1  1  0.32978147  0.66234445  0.81567791  1
  P  P0  1  0.31003759  0.98940749  0.25028812  1
  P  P1  1  0.69018869  0.69291143  0.25892173  1
  P  P2  1  0.00272274  0.69291143  0.75892173  1
  P  P3  1  0.67936990  0.98940749  0.75028812  1
  P  P4  1  0.04262242  0.37624077  0.91788167  1
  P  P5  1  0.33361734  0.37624077  0.41788167  1
  S  S0  1  0.01078981  0.31741470  0.25105523  1
  S  S1  1  0.30662490  0.31741470  0.75105523  1
  S  S2  1  0.96642986  0.32554853  0.58351850  1
  S  S3  1  0.36903152  0.04007349  0.58371944  1
  S  S4  1  0.66757545  0.63694801  0.58050823  1
  S  S5  1  0.96937356  0.63694801  0.08050823  1
  S  S6  1  0.67104296  0.04007349  0.08371944  1
  S  S7  1  0.35911967  0.32554853  0.08351850  1
  S  S8  1  0.62888096  0.66588409  0.91292497  1
  S  S9  1  0.33321135  0.95404643  0.91460196  1
  S  S10  1  0.62083409  0.95404643  0.41460196  1
  S  S11  1  0.03700213  0.66588409  0.41292497  1
  O  O0  1  0.21031919  0.01215644  0.29664601  1
  O  O1  1  0.78614369  0.77610342  0.31286074  1
  O  O2  1  0.99054946  0.21048614  0.29922002  1
  O  O3  1  0.21993668  0.21048614  0.79922002  1
  O  O4  1  0.98995974  0.77610342  0.81286074  1
  O  O5  1  0.80183726  0.01215644  0.79664601  1
  O  O6  1  0.72971331  0.95071091  0.69181461  1
  O  O7  1  0.21199821  0.25720013  0.69715807  1
  O  O8  1  0.04524057  0.79957097  0.70523506  1
  O  O9  1  0.75433040  0.79957097  0.20523506  1
  O  O10  1  0.04520192  0.25720013  0.19715807  1
  O  O11  1  0.22099760  0.95071091  0.19181461  1
  O  O12  1  0.88197798  0.33680030  0.63465947  1
  O  O13  1  0.47129158  0.12567434  0.63389004  1
  O  O14  1  0.65285807  0.53106021  0.62935742  1
  O  O15  1  0.87820313  0.53106021  0.12935742  1
  O  O16  1  0.65438376  0.12567434  0.13389004  1
  O  O17  1  0.45482332  0.33680030  0.13465947  1
  O  O18  1  0.44425109  0.31470284  0.03166126  1
  O  O19  1  0.88080226  0.56070099  0.02649412  1
  O  O20  1  0.68595777  0.13620044  0.03105043  1
  O  O21  1  0.45024367  0.13620044  0.53105043  1
  O  O22  1  0.67989973  0.56070099  0.52649412  1
  O  O23  1  0.87045275  0.31470284  0.53166126  1
  O  O24  1  0.55361831  0.67831894  0.96581145  1
  O  O25  1  0.12321514  0.45203157  0.97518315  1
  O  O26  1  0.32462043  0.86968330  0.96885458  1
  O  O27  1  0.54506187  0.86968330  0.46885458  1
  O  O28  1  0.32881543  0.45203157  0.47518315  1
  O  O29  1  0.12469963  0.67831894  0.46581145  1
  O  O30  1  0.13996184  0.66516477  0.36327032  1
  O  O31  1  0.50710691  0.84847093  0.36618944  1
  O  O32  1  0.32853934  0.49732445  0.36872859  1
  O  O33  1  0.16878411  0.49732445  0.86872859  1
  O  O34  1  0.34136302  0.84847093  0.86618944  1
  O  O35  1  0.52520194  0.66516477  0.86327032  1
  O  O36  1  0.00865980  0.81005532  0.40957001  1
  O  O37  1  0.78364815  0.96130036  0.40887186  1
  O  O38  1  0.18339442  0.20202798  0.41202827  1
  O  O39  1  0.01863357  0.20202798  0.91202827  1
  O  O40  1  0.17765222  0.96130036  0.90887186  1
  O  O41  1  0.80139552  0.81005532  0.90957001  1
  O  O42  1  0.98254254  0.17090199  0.58591356  1
  O  O43  1  0.20100400  0.02677387  0.58756304  1
  O  O44  1  0.81376373  0.80883640  0.58527697  1
  O  O45  1  0.99507267  0.80883640  0.08527697  1
  O  O46  1  0.82576986  0.02677387  0.08756304  1
  O  O47  1  0.18835946  0.17090199  0.08591356  1
  O  O48  1  0.64073827  0.13172411  0.74838125  1
  O  O49  1  0.47828133  0.35019173  0.74682217  1
  O  O50  1  0.85827509  0.51537451  0.75287872  1
  O  O51  1  0.65710042  0.51537451  0.25287872  1
  O  O52  1  0.87191140  0.35019173  0.24682217  1
  O  O53  1  0.49098684  0.13172411  0.24838125  1
  O  O54  1  0.63871706  0.51046404  0.91039555  1
  O  O55  1  0.88001744  0.38442806  0.90913475  1
  O  O56  1  0.48306290  0.11908114  0.91074862  1
  O  O57  1  0.63601924  0.11908114  0.41074862  1
  O  O58  1  0.50441162  0.38442806  0.40913475  1
  O  O59  1  0.87174798  0.51046404  0.41039555  1
  O  O60  1  0.33151617  0.47193561  0.08206237  1
  O  O61  1  0.14131109  0.65312300  0.08032625  1
  O  O62  1  0.51674754  0.87200217  0.08094683  1
  O  O63  1  0.35525362  0.87200217  0.58094683  1
  O  O64  1  0.51181091  0.65312300  0.58032625  1
  O  O65  1  0.14041844  0.47193561  0.58206237  1
  O  O66  1  0.32052961  0.82386116  0.26647172  1
  O  O67  1  0.50457665  0.67213634  0.26861929  1
  O  O68  1  0.16863054  0.48857804  0.26216256  1
  O  O69  1  0.31994650  0.48857804  0.76216256  1
  O  O70  1  0.16755869  0.67213634  0.76861929  1
  O  O71  1  0.50333055  0.82386116  0.76647172  1
loop_
_geom_bond_atom_site_label_1
_geom_bond_atom_site_label_2
_geom_bond_distance
_geom_bond_site_symmetry_2
Na0 O65 2.417393 1_555
Na0 O43 2.527152 1_555
Na0 O64 2.584736 1_555
Na0 O42 2.590508 1_455
Na0 O28 2.658821 1_555
Na0 O7 2.861857 1_555
Na1 O6 2.383603 1_555
Na1 O44 2.469229 1_555
Na1 O42 2.550044 1_565
Na1 O64 2.576142 1_555
Na1 O63 2.577867 1_555
Na2 O11 2.383606 1_555
Na2 O45 2.469237 1_455
Na2 O47 2.550051 1_565
Na2 O61 2.576142 1_555
Na2 O62 2.577850 1_555
Na3 O60 2.417376 1_555
Na3 O46 2.527154 1_455
Na3 O61 2.584739 1_555
Na3 O47 2.590500 1_555
Na3 O25 2.658819 1_554
Na3 O10 2.861855 1_555
Na4 O55 2.336815 1_555
Na4 O4 2.340282 1_555
Na4 O41 2.435816 1_555
Na4 O40 2.443270 1_655
Na4 O54 2.595113 1_555
Na5 O58 2.336811 1_555
Na5 O1 2.340283 1_555
Na5 O36 2.435824 1_655
Na5 O37 2.443268 1_555
Na5 O59 2.595129 1_555
Na6 O38 2.489853 1_555
Na6 O43 2.670904 1_555
Na6 O36 2.683300 1_545
Na6 O42 2.759848 1_455
Na6 O37 2.886412 1_445
Na6 O44 2.913998 1_445
Na7 O39 2.489853 1_655
Na7 O46 2.670904 1_556
Na7 O41 2.683300 1_545
Na7 O47 2.759848 1_656
Na7 O40 2.886412 1_645
Na7 O45 2.913998 1_546
Na8 O48 2.394290 1_555
Na8 O50 2.430147 1_555
Na8 O55 2.551723 1_555
Na8 O56 2.722382 1_555
Na8 O49 2.744233 1_555
Na8 O54 2.838357 1_555
Na9 O53 2.394290 1_555
Na9 O51 2.430147 1_555
Na9 O58 2.551723 1_555
Na9 O57 2.722382 1_555
Na9 O52 2.744233 1_555
Na9 O59 2.838357 1_555
Na10 O62 2.653164 1_555
Na10 O67 2.679621 1_555
Na10 O60 2.743526 1_555
Na10 O66 2.754320 1_555
Na10 O68 2.801358 1_555
Na10 O61 2.856073 1_555
Na11 O63 2.653164 1_555
Na11 O70 2.679621 1_555
Na11 O65 2.743526 1_555
Na11 O71 2.754320 1_555
Na11 O69 2.801358 1_555
Na11 O64 2.856073 1_555
Ca0 O0 2.147288 1_555
Ca0 O2 2.248898 1_455
Ca0 O38 2.277904 1_555
Ca0 O1 2.289687 1_445
Ca0 O36 2.363332 1_545
Ca0 O37 2.431824 1_445
Ca1 O5 2.147288 1_555
Ca1 O3 2.248898 1_655
Ca1 O39 2.277904 1_655
Ca1 O4 2.289687 1_545
Ca1 O41 2.363332 1_545
Ca1 O40 2.431824 1_645
Ca2 O8 2.219992 1_655
Ca2 O6 2.356453 1_555
Ca2 O44 2.430978 1_555
Ca2 O7 2.493146 1_665
Ca2 O43 2.517108 1_665
Ca2 O42 2.545620 1_565
Ca3 O9 2.219992 1_555
Ca3 O11 2.356453 1_655
Ca3 O45 2.430978 1_555
Ca3 O10 2.493146 1_665
Ca3 O46 2.517108 1_565
Ca3 O47 2.545620 1_665
Ca4 O50 2.241779 1_555
Ca4 O48 2.268892 1_555
Ca4 O12 2.279065 1_555
Ca4 O13 2.332603 1_555
Ca4 O49 2.333418 1_555
Ca4 O14 2.346850 1_555
Ca5 O51 2.241779 1_555
Ca5 O53 2.268891 1_555
Ca5 O17 2.279065 1_555
Ca5 O16 2.332603 1_555
Ca5 O52 2.333418 1_555
Ca5 O15 2.346850 1_555
Ca6 O20 2.285563 1_556
Ca6 O18 2.359826 1_556
Ca6 O54 2.380535 1_555
Ca6 O55 2.381985 1_555
Ca6 O19 2.382014 1_556
Ca6 O56 2.400915 1_555
Ca7 O21 2.285563 1_555
Ca7 O23 2.359826 1_555
Ca7 O59 2.380535 1_555
Ca7 O58 2.381985 1_555
Ca7 O22 2.382014 1_555
Ca7 O57 2.400915 1_555
Ca8 O25 2.203118 1_554
Ca8 O24 2.207570 1_554
Ca8 O26 2.278892 1_554
Ca8 O60 2.325240 1_555
Ca8 O61 2.371023 1_555
Ca8 O62 2.373555 1_555
Ca9 O28 2.203118 1_555
Ca9 O29 2.207570 1_555
Ca9 O27 2.278892 1_555
Ca9 O65 2.325240 1_555
Ca9 O64 2.371023 1_555
Ca9 O63 2.373555 1_555
O0 P0 1.506323 1_545
O1 P1 1.518994 1_555
O2 S0 1.451810 1_655
O3 S1 1.451810 1_555
O4 P2 1.518994 1_655
O5 P3 1.506323 1_545
O6 P3 1.548858 1_555
O7 S1 1.481220 1_555
O8 P2 1.526553 1_555
O9 P1 1.526553 1_555
O10 S0 1.481220 1_555
O11 P0 1.548858 1_555
O12 S2 1.463544 1_555
O13 S3 1.471748 1_555
O14 S4 1.469856 1_555
O15 S5 1.469856 1_555
O16 S6 1.471747 1_555
O17 S7 1.463544 1_555
O18 S7 1.479669 1_555
O19 S5 1.485038 1_555
O20 S6 1.488901 1_555
O21 S3 1.488901 1_555
O22 S4 1.485038 1_555
O23 S2 1.479669 1_555
O24 S8 1.455629 1_555
O25 P4 1.530302 1_555
O26 S9 1.475248 1_555
O27 S10 1.475248 1_555
O28 P5 1.530302 1_555
O29 S11 1.455629 1_555
O30 S11 1.506031 1_555
O30 Ta0 2.108967 1_555
O31 S10 1.527178 1_555
O31 Ta0 2.052677 1_555
O32 P5 1.624867 1_555
O32 Ta0 1.955941 1_555
O33 P4 1.624868 1_555
O33 Ta1 1.955941 1_555
O34 S9 1.527178 1_555
O34 Ta1 2.052677 1_555
O35 S8 1.506031 1_555
O35 Ta1 2.108967 1_555
O36 S11 1.483966 1_555
O37 S10 1.474225 1_555
O38 P5 1.521335 1_555
O39 P4 1.521339 1_555
O40 S9 1.474216 1_555
O41 S8 1.483972 1_555
O42 S2 1.511911 1_555
O43 S3 1.493653 1_555
O44 S4 1.491975 1_555
O45 S5 1.491978 1_555
O46 S6 1.493644 1_555
O47 S7 1.511916 1_555
O48 P3 1.526758 1_545
O49 S1 1.458161 1_555
O50 P2 1.521873 1_655
O51 P1 1.521876 1_555
O52 S0 1.458152 1_655
O53 P0 1.526764 1_545
O54 S8 1.487210 1_555
O55 P4 1.551203 1_655
O56 S9 1.465749 1_545
O57 S10 1.465741 1_545
O58 P5 1.551222 1_555
O59 S11 1.487200 1_655
O60 S7 1.498378 1_555
O61 S5 1.515467 1_455
O62 S6 1.498245 1_565
O63 S3 1.498237 1_565
O64 S4 1.515486 1_555
O65 S2 1.498367 1_455
O66 P0 1.627194 1_555
O66 Ta0 1.934825 1_555
O67 P1 1.639165 1_555
O67 Ta0 1.897465 1_555
O68 S0 1.549705 1_555
O68 Ta0 2.009859 1_555
O69 S1 1.549709 1_555
O69 Ta1 2.009859 1_555
O70 P2 1.639156 1_555
O70 Ta1 1.897465 1_555
O71 P3 1.627198 1_555
O71 Ta1 1.934825 1_555
