# generated using pymatgen
data_UPdSe3
_symmetry_space_group_name_H-M   'P 1'
_cell_length_a   6.45456131
_cell_length_b   8.07674330
_cell_length_c   8.69590661
_cell_angle_alpha   90.00000000
_cell_angle_beta   90.00000000
_cell_angle_gamma   90.00000000
_symmetry_Int_Tables_number   1
_chemical_formula_structural   UPdSe3
_chemical_formula_sum   'U4 Pd4 Se12'
_cell_volume   453.33356696
_cell_formula_units_Z   4
loop_
 _symmetry_equiv_pos_site_id
 _symmetry_equiv_pos_as_xyz
  1  'x, y, z'
loop_
 _atom_site_type_symbol
 _atom_site_label
 _atom_site_symmetry_multiplicity
 _atom_site_fract_x
 _atom_site_fract_y
 _atom_site_fract_z
 _atom_site_occupancy
  U  U0  1  0.94274919  0.36448250  0.25000000  1
  U  U1  1  0.44274919  0.13551750  0.75000000  1
  U  U2  1  0.55725081  0.86448250  0.25000000  1
  U  U3  1  0.05725081  0.63551750  0.75000000  1
  Pd  Pd0  1  0.00000000  -0.00000000  0.00000000  1
  Pd  Pd1  1  0.00000000  -0.00000000  0.50000000  1
  Pd  Pd2  1  0.50000000  0.50000000  0.50000000  1
  Pd  Pd3  1  0.50000000  0.50000000  0.00000000  1
  Se  Se0  1  0.32727930  0.84551833  0.94144953  1
  Se  Se1  1  0.17272070  0.34551833  0.94144953  1
  Se  Se2  1  0.67272070  0.15448167  0.05855047  1
  Se  Se3  1  0.32727930  0.84551833  0.55855047  1
  Se  Se4  1  0.17178819  0.06536940  0.25000000  1
  Se  Se5  1  0.67178819  0.43463060  0.75000000  1
  Se  Se6  1  0.32821181  0.56536940  0.25000000  1
  Se  Se7  1  0.82821181  0.93463060  0.75000000  1
  Se  Se8  1  0.17272070  0.34551833  0.55855047  1
  Se  Se9  1  0.67272070  0.15448167  0.44144953  1
  Se  Se10  1  0.82727930  0.65448167  0.05855047  1
  Se  Se11  1  0.82727930  0.65448167  0.44144953  1
loop_
_geom_bond_atom_site_label_1
_geom_bond_atom_site_label_2
_geom_bond_distance
_geom_bond_site_symmetry_2
Pd0 Se4 2.496879 1_555
Pd0 Se7 2.496879 1_444
Pd0 Se0 2.505680 1_544
Pd0 Se2 2.505680 1_455
Pd0 Se10 3.047932 1_445
Pd0 Se1 3.047932 1_554
Pd1 Se4 2.496879 1_555
Pd1 Se7 2.496879 1_445
Pd1 Se3 2.505680 1_545
Pd1 Se9 2.505680 1_455
Pd1 Se8 3.047932 1_555
Pd1 Se11 3.047932 1_445
Pd2 Se5 2.496879 1_555
Pd2 Se6 2.496879 1_555
Pd2 Se8 2.505680 1_555
Pd2 Se11 2.505680 1_555
Pd2 Se9 3.047932 1_555
Pd2 Se3 3.047932 1_555
Pd3 Se6 2.496879 1_555
Pd3 Se5 2.496879 1_554
Pd3 Se10 2.505680 1_555
Pd3 Se1 2.505680 1_554
Pd3 Se0 3.047932 1_554
Pd3 Se2 3.047932 1_555
Se0 U3 2.947242 1_555
Se0 U1 2.968714 1_565
Se0 U2 3.070174 1_556
Se1 U1 2.947242 1_555
Se1 U3 2.968714 1_555
Se1 U0 3.070174 1_456
Se2 U0 2.947242 1_555
Se2 U2 2.968714 1_545
Se2 U1 3.070174 1_554
Se3 U3 2.947242 1_555
Se3 U1 2.968714 1_565
Se3 U2 3.070174 1_555
Se4 U0 2.832293 1_455
Se4 U2 2.970295 1_545
Se5 U1 2.832293 1_555
Se5 U3 2.970295 1_655
Se6 U2 2.832293 1_555
Se6 U0 2.970295 1_455
Se7 U3 2.832293 1_655
Se7 U1 2.970295 1_565
Se8 U1 2.947242 1_555
Se8 U3 2.968714 1_555
Se8 U0 3.070174 1_455
Se9 U0 2.947242 1_555
Se9 U2 2.968714 1_545
Se9 U1 3.070174 1_555
Se10 U2 2.947242 1_555
Se10 U0 2.968714 1_555
Se10 U3 3.070174 1_654
Se11 U2 2.947242 1_555
Se11 U0 2.968714 1_555
Se11 U3 3.070174 1_655
