# generated using pymatgen
data_Na5La3ZrSi3(SO8)3
_symmetry_space_group_name_H-M   'P 1'
_cell_length_a   9.58412813
_cell_length_b   9.56614591
_cell_length_c   24.06775545
_cell_angle_alpha   90.64230554
_cell_angle_beta   89.89113705
_cell_angle_gamma   119.85238610
_symmetry_Int_Tables_number   1
_chemical_formula_structural   Na5La3ZrSi3(SO8)3
_chemical_formula_sum   'Na15 La9 Zr3 Si9 S9 O72'
_cell_volume   1913.67731108
_cell_formula_units_Z   3
loop_
 _symmetry_equiv_pos_site_id
 _symmetry_equiv_pos_as_xyz
  1  'x, y, z'
loop_
 _atom_site_type_symbol
 _atom_site_label
 _atom_site_symmetry_multiplicity
 _atom_site_fract_x
 _atom_site_fract_y
 _atom_site_fract_z
 _atom_site_occupancy
  Na  Na0  1  0.65459289  0.01436104  0.26004799  1
  Na  Na1  1  0.99790428  0.61842315  0.24762174  1
  Na  Na2  1  0.62840056  0.64323888  0.74549102  1
  Na  Na3  1  0.36174732  0.01037606  0.76364110  1
  Na  Na4  1  0.66698617  0.94606235  0.58297451  1
  Na  Na5  1  0.98436725  0.69400972  0.92202677  1
  Na  Na6  1  0.67962852  0.00387549  0.91009961  1
  Na  Na7  1  0.95247002  0.30419822  0.40897994  1
  Na  Na8  1  0.70119519  0.69118112  0.43049477  1
  Na  Na9  1  0.99521013  0.96003426  0.50179514  1
  Na  Na10  1  0.00877956  0.97187785  0.99700293  1
  Na  Na11  1  0.63493102  0.30907571  0.83243583  1
  Na  Na12  1  0.67211276  0.31315294  0.33609733  1
  Na  Na13  1  0.27752839  0.61829691  0.16043283  1
  Na  Na14  1  0.33836792  0.62461579  0.67135674  1
  La  La0  1  0.00117007  0.00494380  0.35028876  1
  La  La1  1  0.01121138  0.01905193  0.84856066  1
  La  La2  1  0.99797612  0.00493985  0.65354925  1
  La  La3  1  0.00188253  0.00325699  0.14187149  1
  La  La4  1  0.66533842  0.34144462  0.68457518  1
  La  La5  1  0.68036941  0.34273994  0.17775345  1
  La  La6  1  0.33214589  0.67375467  0.01728375  1
  La  La7  1  0.33414554  0.67244087  0.51551150  1
  La  La8  1  0.31892459  0.66246264  0.32402441  1
  Zr  Zr0  1  0.66289540  0.34751236  0.97887049  1
  Zr  Zr1  1  0.67305147  0.34516416  0.48355491  1
  Zr  Zr2  1  0.36022232  0.67434424  0.81877209  1
  Si  Si0  1  0.99932376  0.30556796  0.25255628  1
  Si  Si1  1  0.30638335  0.31370810  0.75050250  1
  Si  Si2  1  0.68322635  0.99391971  0.75330462  1
  Si  Si3  1  0.67135508  0.64076957  0.58361949  1
  Si  Si4  1  0.96246351  0.63344331  0.08149265  1
  Si  Si5  1  0.63616345  0.66565611  0.91738694  1
  Si  Si6  1  0.34371659  0.96988423  0.91551682  1
  Si  Si7  1  0.64094473  0.98182800  0.41683612  1
  Si  Si8  1  0.01358270  0.65878384  0.41696130  1
  S  S0  1  0.30624644  0.99622456  0.24934928  1
  S  S1  1  0.69515074  0.70005013  0.25077462  1
  S  S2  1  0.01691080  0.69977681  0.75479039  1
  S  S3  1  0.95477190  0.32605355  0.57856703  1
  S  S4  1  0.37494375  0.04756472  0.58029148  1
  S  S5  1  0.67206821  0.04354691  0.07882273  1
  S  S6  1  0.37261994  0.32883920  0.07874913  1
  S  S7  1  0.02322573  0.37787481  0.91661053  1
  S  S8  1  0.34806867  0.36277205  0.41932633  1
  O  O0  1  0.22869607  0.00696415  0.30093309  1
  O  O1  1  0.78612468  0.77274278  0.30329289  1
  O  O2  1  0.98953790  0.21852680  0.31263519  1
  O  O3  1  0.23113871  0.18364435  0.80035520  1
  O  O4  1  0.98798713  0.77105553  0.80535584  1
  O  O5  1  0.78498329  0.01010761  0.80921165  1
  O  O6  1  0.76746906  0.96440868  0.69740475  1
  O  O7  1  0.20229213  0.22963083  0.69357991  1
  O  O8  1  0.04145178  0.80476983  0.70624486  1
  O  O9  1  0.78837304  0.79973764  0.20334735  1
  O  O10  1  0.99890428  0.19077171  0.20110067  1
  O  O11  1  0.20851846  0.98528538  0.20043568  1
  O  O12  1  0.87706641  0.33529251  0.62990099  1
  O  O13  1  0.45186283  0.11866535  0.63432166  1
  O  O14  1  0.67298189  0.55617490  0.64193641  1
  O  O15  1  0.88151093  0.55567789  0.14251829  1
  O  O16  1  0.66702949  0.11672577  0.13328690  1
  O  O17  1  0.45079389  0.32699708  0.13123320  1
  O  O18  1  0.47215196  0.32809232  0.03038944  1
  O  O19  1  0.83859082  0.51060887  0.02966645  1
  O  O20  1  0.66617872  0.14098564  0.03210925  1
  O  O21  1  0.47860593  0.14997982  0.53415204  1
  O  O22  1  0.66900771  0.52302258  0.52939131  1
  O  O23  1  0.85812221  0.32692354  0.52922649  1
  O  O24  1  0.54531535  0.69361349  0.96835167  1
  O  O25  1  0.11282805  0.44399373  0.96835916  1
  O  O26  1  0.30630880  0.85000063  0.96721225  1
  O  O27  1  0.55481144  0.85212577  0.46713607  1
  O  O28  1  0.32297492  0.44120449  0.46798565  1
  O  O29  1  0.13304772  0.67063931  0.46639892  1
  O  O30  1  0.07788233  0.62137961  0.35793184  1
  O  O31  1  0.54464633  0.90552702  0.35740407  1
  O  O32  1  0.37765233  0.46275981  0.36924566  1
  O  O33  1  0.11334470  0.47656896  0.86829862  1
  O  O34  1  0.37012732  0.87605522  0.85956844  1
  O  O35  1  0.52652896  0.64698606  0.86002319  1
  O  O36  1  0.97884875  0.80956324  0.41598247  1
  O  O37  1  0.82811674  0.01422119  0.41498081  1
  O  O38  1  0.20646750  0.20085482  0.41319450  1
  O  O39  1  0.98132097  0.20661050  0.91151467  1
  O  O40  1  0.18395630  0.98821822  0.90990377  1
  O  O41  1  0.81998904  0.81738617  0.91289542  1
  O  O42  1  0.95244956  0.16907341  0.57587495  1
  O  O43  1  0.21353026  0.02971515  0.57621187  1
  O  O44  1  0.83159111  0.82253965  0.57789912  1
  O  O45  1  0.97407978  0.81046535  0.07582922  1
  O  O46  1  0.82400619  0.03742707  0.07507192  1
  O  O47  1  0.21273736  0.18109900  0.07370853  1
  O  O48  1  0.64008149  0.13919259  0.74869567  1
  O  O49  1  0.49745346  0.35805894  0.74810221  1
  O  O50  1  0.87441436  0.53796050  0.74690828  1
  O  O51  1  0.67432935  0.53557527  0.24706896  1
  O  O52  1  0.82952883  0.31709179  0.25100674  1
  O  O53  1  0.47245938  0.13657597  0.24715670  1
  O  O54  1  0.65109407  0.49811684  0.92397513  1
  O  O55  1  0.86494234  0.37833769  0.91918229  1
  O  O56  1  0.51964921  0.14336137  0.92455896  1
  O  O57  1  0.65851885  0.16210877  0.42919405  1
  O  O58  1  0.49508129  0.34786415  0.42652695  1
  O  O59  1  0.83184109  0.49265323  0.42677838  1
  O  O60  1  0.35752005  0.47422590  0.07861124  1
  O  O61  1  0.13639071  0.64198013  0.08171456  1
  O  O62  1  0.53236776  0.87940985  0.07871605  1
  O  O63  1  0.36720148  0.88819366  0.57714601  1
  O  O64  1  0.51101546  0.66381400  0.58240533  1
  O  O65  1  0.11960404  0.46316187  0.57627867  1
  O  O66  1  0.31819963  0.84516583  0.24988752  1
  O  O67  1  0.53802712  0.69516916  0.25238339  1
  O  O68  1  0.15424604  0.49213905  0.24976935  1
  O  O69  1  0.31496673  0.49017873  0.76165843  1
  O  O70  1  0.16523588  0.68855456  0.76097350  1
  O  O71  1  0.50386839  0.81929263  0.75771792  1
loop_
_geom_bond_atom_site_label_1
_geom_bond_atom_site_label_2
_geom_bond_distance
_geom_bond_site_symmetry_2
Na0 O52 2.534563 1_555
Na0 O53 2.559707 1_555
Na0 O31 2.576385 1_545
Na0 O67 2.682861 1_545
Na0 O66 2.805900 1_545
Na1 O68 2.347556 1_655
Na1 O52 2.508757 1_555
Na1 O15 2.704381 1_555
Na1 O66 2.738687 1_655
Na1 O30 2.760689 1_655
Na1 O51 2.792620 1_555
Na2 O49 2.369906 1_555
Na2 O71 2.517175 1_555
Na2 O69 2.636054 1_555
Na2 O14 2.718752 1_555
Na2 O6 2.924454 1_555
Na2 O35 2.928381 1_555
Na2 O50 2.989957 1_555
Na3 O48 2.344716 1_555
Na3 O3 2.669003 1_555
Na3 O34 2.675409 1_545
Na3 O70 2.693091 1_545
Na3 O71 2.772928 1_545
Na3 O49 2.934820 1_555
Na3 O8 3.023999 1_545
Na4 O64 2.346498 1_555
Na4 O44 2.398300 1_555
Na4 O42 2.502284 1_565
Na4 O63 2.645302 1_555
Na4 O6 2.893818 1_555
Na4 O27 2.954583 1_555
Na5 O41 2.404457 1_555
Na5 O40 2.514353 1_655
Na5 O55 2.643570 1_555
Na5 O54 2.785472 1_555
Na5 O26 2.884880 1_655
Na5 O4 2.906871 1_555
Na6 O56 2.505352 1_555
Na6 O39 2.557186 1_555
Na6 O5 2.617826 1_555
Na6 O41 2.718266 1_545
Na6 O34 2.853532 1_545
Na6 O24 2.952052 1_545
Na7 O37 2.419337 1_555
Na7 O57 2.493709 1_555
Na7 O2 2.533540 1_555
Na7 O59 2.612644 1_555
Na7 O30 2.933913 1_655
Na8 O36 2.343284 1_555
Na8 O27 2.689176 1_555
Na8 O37 2.729581 1_565
Na8 O59 2.746944 1_555
Na8 O22 2.817324 1_555
Na8 O58 2.869225 1_555
Na9 O44 2.352396 1_555
Na9 O36 2.464133 1_555
Na9 O43 2.574740 1_665
Na9 O37 2.839443 1_565
Na9 O42 2.842316 1_565
Na10 O45 2.376163 1_456
Na10 O41 2.615429 1_455
Na10 O40 2.640132 1_555
Na10 O47 2.696489 1_566
Na10 O46 2.850634 1_466
Na11 O48 2.590659 1_555
Na11 O49 2.592594 1_555
Na11 O56 2.641124 1_555
Na11 O54 2.789485 1_555
Na11 O55 2.861800 1_555
Na12 O52 2.530817 1_555
Na12 O57 2.647494 1_555
Na12 O59 2.714230 1_555
Na12 O53 2.795291 1_555
Na12 O58 2.873421 1_555
Na12 O51 3.029179 1_555
Na13 O61 2.407267 1_555
Na13 O68 2.470737 1_555
Na13 O60 2.711178 1_555
Na13 O66 2.924639 1_555
Na14 O69 2.490255 1_555
Na14 O64 2.617000 1_555
Na14 O71 2.699885 1_555
Na14 O65 2.955167 1_555
Na14 O70 2.957494 1_555
La0 O2 2.297147 1_455
La0 O37 2.305768 1_455
La0 O36 2.388694 1_445
La0 O1 2.419936 1_445
La0 O38 2.439796 1_555
La0 O0 2.472920 1_555
La1 O3 2.235113 1_555
La1 O5 2.329505 1_455
La1 O40 2.347974 1_545
La1 O41 2.452424 1_445
La1 O39 2.458878 1_455
La1 O4 2.485726 1_445
La2 O7 2.270094 1_655
La2 O6 2.300564 1_545
La2 O44 2.464206 1_545
La2 O8 2.509892 1_645
La2 O42 2.627062 1_555
La2 O43 2.701207 1_655
La3 O10 2.289997 1_455
La3 O45 2.333553 1_445
La3 O46 2.484928 1_455
La3 O9 2.500772 1_445
La3 O11 2.508655 1_545
La3 O47 2.509347 1_555
La4 O14 2.274898 1_555
La4 O49 2.278537 1_555
La4 O48 2.404743 1_555
La4 O13 2.408623 1_555
La4 O12 2.441268 1_555
La4 O50 2.449078 1_555
La5 O15 2.169791 1_555
La5 O16 2.347287 1_555
La5 O52 2.362335 1_555
La5 O17 2.406908 1_555
La5 O51 2.495256 1_555
La5 O53 2.607531 1_555
La6 O26 2.195109 1_554
La6 O24 2.281785 1_554
La6 O61 2.334261 1_555
La6 O62 2.434347 1_555
La6 O25 2.446981 1_554
La6 O60 2.531327 1_555
La7 O29 2.255502 1_555
La7 O27 2.280218 1_555
La7 O64 2.371706 1_555
La7 O63 2.417193 1_555
La7 O28 2.433296 1_555
La7 O65 2.516151 1_555
La8 O30 2.292058 1_555
La8 O31 2.385158 1_555
La8 O68 2.392703 1_555
La8 O32 2.504067 1_555
La8 O66 2.514069 1_555
La8 O67 2.612424 1_555
O0 S0 1.474439 1_545
O1 S1 1.490754 1_555
O2 Si0 1.655792 1_555
O3 Si1 1.626242 1_555
O4 S2 1.480253 1_655
O5 Si2 1.623448 1_545
O6 Si2 1.660094 1_555
O7 Si1 1.643390 1_555
O8 S2 1.489732 1_555
O9 S1 1.477472 1_555
O10 Si0 1.644623 1_555
O11 S0 1.475800 1_555
O12 S3 1.465767 1_555
O13 S4 1.477065 1_555
O14 Si3 1.631932 1_555
O15 Si4 1.660773 1_555
O16 S5 1.491142 1_555
O17 S6 1.474619 1_555
O18 S6 1.505687 1_555
O18 Zr0 2.138320 1_554
O19 Si4 1.711735 1_555
O19 Zr0 2.028278 1_554
O20 S5 1.487334 1_555
O20 Zr0 2.380099 1_554
O21 S4 1.493736 1_555
O21 Zr1 2.240640 1_555
O22 Si3 1.707217 1_555
O22 Zr1 2.033897 1_555
O23 S3 1.510092 1_555
O23 Zr1 2.169034 1_555
O24 Si5 1.598318 1_555
O25 S7 1.460956 1_555
O26 Si6 1.616394 1_555
O27 Si7 1.642163 1_555
O28 S8 1.466690 1_555
O29 Si8 1.616305 1_555
O30 Si8 1.652576 1_555
O31 Si7 1.655768 1_555
O32 S8 1.484136 1_555
O33 S7 1.482688 1_555
O33 Zr2 2.486374 1_555
O34 Si6 1.697268 1_555
O34 Zr2 2.114699 1_555
O35 Si5 1.689744 1_555
O35 Zr2 2.005452 1_555
O36 Si8 1.634208 1_655
O37 Si7 1.662116 1_545
O38 S8 1.471622 1_555
O39 S7 1.483619 1_655
O40 Si6 1.631604 1_555
O41 Si5 1.636894 1_555
O42 S3 1.491419 1_555
O43 S4 1.472839 1_555
O44 Si3 1.657430 1_555
O45 Si4 1.648050 1_555
O46 S5 1.488733 1_555
O47 S6 1.483602 1_555
O48 Si2 1.640206 1_545
O49 Si1 1.662367 1_555
O50 S2 1.478884 1_655
O51 S1 1.485826 1_555
O52 Si0 1.685433 1_555
O53 S0 1.488322 1_545
O54 Si5 1.687716 1_555
O54 Zr0 2.009846 1_555
O55 S7 1.520358 1_655
O55 Zr0 2.308882 1_555
O56 Si6 1.688804 1_545
O56 Zr0 2.165142 1_555
O57 Si7 1.670497 1_545
O57 Zr1 2.122298 1_555
O58 S8 1.495707 1_555
O58 Zr1 2.201691 1_555
O59 Si8 1.693076 1_655
O59 Zr1 2.017844 1_555
O60 S6 1.468242 1_555
O61 Si4 1.627848 1_455
O62 S5 1.471425 1_565
O63 S4 1.490085 1_565
O64 Si3 1.657863 1_555
O65 S3 1.468850 1_455
O66 S0 1.505554 1_555
O67 S1 1.483648 1_555
O68 Si0 1.660913 1_455
O69 Si1 1.667440 1_555
O69 Zr2 2.090136 1_555
O70 S2 1.485804 1_555
O70 Zr2 2.390174 1_555
O71 Si2 1.703328 1_555
O71 Zr2 2.028502 1_555
