# generated using pymatgen
data_MgAl4(CuO4)2
_symmetry_space_group_name_H-M   'P 1'
_cell_length_a   5.70798177
_cell_length_b   6.13854176
_cell_length_c   6.13854271
_cell_angle_alpha   56.50224236
_cell_angle_beta   62.29432744
_cell_angle_gamma   62.29432759
_symmetry_Int_Tables_number   1
_chemical_formula_structural   MgAl4(CuO4)2
_chemical_formula_sum   'Mg1 Al4 Cu2 O8'
_cell_volume   152.34457455
_cell_formula_units_Z   1
loop_
 _symmetry_equiv_pos_site_id
 _symmetry_equiv_pos_as_xyz
  1  'x, y, z'
loop_
 _atom_site_type_symbol
 _atom_site_label
 _atom_site_symmetry_multiplicity
 _atom_site_fract_x
 _atom_site_fract_y
 _atom_site_fract_z
 _atom_site_occupancy
  Mg  Mg0  1  0.79812678  0.95187322  0.95187322  1
  Al  Al0  1  0.46889392  0.02432297  0.53788920  1
  Al  Al1  1  0.00256890  0.48935449  0.48935449  1
  Al  Al2  1  0.46889392  0.53788919  0.02432297  1
  Al  Al3  1  0.51872212  0.48935449  0.48935449  1
  Cu  Cu0  1  0.11145555  0.13854445  0.13854445  1
  Cu  Cu1  1  0.05662030  0.69337970  0.69337970  1
  O  O0  1  0.66472590  0.80164175  0.80164175  1
  O  O1  1  0.25274182  0.28274470  0.71176965  1
  O  O2  1  0.25274182  0.71176965  0.28274470  1
  O  O3  1  0.68377566  0.28855744  0.28855744  1
  O  O4  1  0.69773313  0.34461815  0.75991759  1
  O  O5  1  0.23199259  0.80164175  0.80164175  1
  O  O6  1  0.23910746  0.28855744  0.28855744  1
  O  O7  1  0.69773313  0.75991759  0.34461815  1
loop_
_geom_bond_atom_site_label_1
_geom_bond_atom_site_label_2
_geom_bond_distance
_geom_bond_site_symmetry_2
Mg0 O4 1.933057 1_565
Mg0 O7 1.933057 1_556
Mg0 O0 2.127293 1_555
Mg0 O5 2.127302 1_655
Al0 O5 1.886394 1_545
Al0 O0 1.886401 1_545
Al0 O3 1.960088 1_555
Al0 O6 1.960095 1_555
Al0 O1 2.000621 1_555
Al0 O7 2.112160 1_545
Al1 O6 1.855695 1_555
Al1 O4 1.922740 1_455
Al1 O7 1.922740 1_455
Al1 O2 1.931117 1_555
Al1 O1 1.931117 1_555
Al2 O5 1.886394 1_554
Al2 O0 1.886401 1_554
Al2 O3 1.960088 1_555
Al2 O6 1.960095 1_555
Al2 O2 2.000621 1_555
Al2 O4 2.112160 1_554
Al3 O3 1.855696 1_555
Al3 O7 1.922748 1_555
Al3 O4 1.922748 1_555
Al3 O1 1.931126 1_555
Al3 O2 1.931126 1_555
Cu0 O6 2.100169 1_555
Cu0 O3 2.100178 1_455
Cu0 O2 2.106342 1_545
Cu0 O1 2.106343 1_554
Cu1 O0 1.900000 1_455
Cu1 O5 1.900009 1_555
Cu1 O1 2.190748 1_555
Cu1 O2 2.190749 1_555
