# generated using pymatgen
data_MgV(SbO3)4
_symmetry_space_group_name_H-M   'P 1'
_cell_length_a   5.54598849
_cell_length_b   11.35293860
_cell_length_c   10.18358323
_cell_angle_alpha   26.68368390
_cell_angle_beta   50.84426329
_cell_angle_gamma   55.88721405
_symmetry_Int_Tables_number   1
_chemical_formula_structural   MgV(SbO3)4
_chemical_formula_sum   'Mg1 V1 Sb4 O12'
_cell_volume   223.26491192
_cell_formula_units_Z   1
loop_
 _symmetry_equiv_pos_site_id
 _symmetry_equiv_pos_as_xyz
  1  'x, y, z'
loop_
 _atom_site_type_symbol
 _atom_site_label
 _atom_site_symmetry_multiplicity
 _atom_site_fract_x
 _atom_site_fract_y
 _atom_site_fract_z
 _atom_site_occupancy
  Mg  Mg0  1  0.79086300  0.50718928  0.77312202  1
  V  V0  1  0.30690176  0.99753090  0.28239231  1
  Sb  Sb0  1  0.01575892  0.99030759  0.98777179  1
  Sb  Sb1  1  0.92475699  0.48693002  0.05118826  1
  Sb  Sb2  1  0.43768999  0.00544724  0.53037397  1
  Sb  Sb3  1  0.50512627  0.51358949  0.46561243  1
  O  O0  1  0.35233706  0.29635823  0.11855508  1
  O  O1  1  0.24141762  0.16433844  0.58896434  1
  O  O2  1  0.10868832  0.30639571  0.75808038  1
  O  O3  1  0.86488707  0.19721340  0.21645534  1
  O  O4  1  0.39369255  0.80334195  0.09465186  1
  O  O5  1  0.74335473  0.33570443  0.41865258  1
  O  O6  1  0.21326600  0.66387143  0.55565093  1
  O  O7  1  0.59956309  0.19608759  0.87374013  1
  O  O8  1  0.11469556  0.83377073  0.68604565  1
  O  O9  1  0.88815208  0.69750117  0.20476802  1
  O  O10  1  0.70972379  0.85716594  0.36301592  1
  O  O11  1  0.61032721  0.65915746  0.86526198  1
loop_
_geom_bond_atom_site_label_1
_geom_bond_atom_site_label_2
_geom_bond_distance
_geom_bond_site_symmetry_2
Mg0 O2 2.025601 1_655
Mg0 O10 2.036203 1_555
Mg0 O11 2.151378 1_555
Mg0 O6 2.153878 1_655
Mg0 O0 2.167335 1_556
Mg0 O3 2.294353 1_556
O0 Sb1 2.102932 1_455
O0 V0 2.160941 1_545
O0 Sb2 2.172979 1_555
O1 Sb2 1.922394 1_555
O1 Sb0 1.994879 1_545
O2 Sb0 2.041247 1_545
O2 Sb3 2.061438 1_555
O3 Sb2 2.087138 1_555
O3 Sb1 2.094812 1_555
O3 V0 2.173636 1_645
O4 Sb0 1.961049 1_554
O4 Sb3 1.983752 1_555
O5 Sb1 1.914480 1_555
O5 Sb3 1.996967 1_555
O6 V0 1.976607 1_555
O6 Sb3 2.048255 1_555
O7 V0 1.960693 1_546
O7 Sb3 2.097879 1_555
O7 Sb0 2.150067 1_645
O8 Sb1 1.995577 1_456
O8 Sb2 2.080647 1_565
O8 V0 2.126625 1_555
O9 Sb3 1.966158 1_555
O9 Sb0 1.992792 1_654
O10 Sb0 2.032986 1_654
O10 V0 2.046867 1_555
O11 Sb2 1.986339 1_565
O11 Sb1 2.044139 1_556
