# generated using pymatgen
data_InAs
_symmetry_space_group_name_H-M   'P 1'
_cell_length_a   7.56617300
_cell_length_b   7.56617300
_cell_length_c   7.56617300
_cell_angle_alpha   90.00000000
_cell_angle_beta   90.00000000
_cell_angle_gamma   90.00000000
_symmetry_Int_Tables_number   1
_chemical_formula_structural   InAs
_chemical_formula_sum   'In8 As8'
_cell_volume   433.14050800
_cell_formula_units_Z   8
loop_
 _symmetry_equiv_pos_site_id
 _symmetry_equiv_pos_as_xyz
  1  'x, y, z'
loop_
 _atom_site_type_symbol
 _atom_site_label
 _atom_site_symmetry_multiplicity
 _atom_site_fract_x
 _atom_site_fract_y
 _atom_site_fract_z
 _atom_site_occupancy
  In  In0  1  0.34331100  0.15668900  0.84331100  1
  In  In1  1  0.15668900  0.84331100  0.34331100  1
  In  In2  1  0.84331100  0.34331100  0.15668900  1
  In  In3  1  0.65668900  0.65668900  0.65668900  1
  In  In4  1  0.65668900  0.84331100  0.15668900  1
  In  In5  1  0.84331100  0.15668900  0.65668900  1
  In  In6  1  0.15668900  0.65668900  0.84331100  1
  In  In7  1  0.34331100  0.34331100  0.34331100  1
  As  As0  1  0.14086600  0.35913400  0.64086600  1
  As  As1  1  0.35913400  0.64086600  0.14086600  1
  As  As2  1  0.64086600  0.14086600  0.35913400  1
  As  As3  1  0.85913400  0.85913400  0.85913400  1
  As  As4  1  0.85913400  0.64086600  0.35913400  1
  As  As5  1  0.64086600  0.35913400  0.85913400  1
  As  As6  1  0.35913400  0.85913400  0.64086600  1
  As  As7  1  0.14086600  0.14086600  0.14086600  1
loop_
_geom_bond_atom_site_label_1
_geom_bond_atom_site_label_2
_geom_bond_distance
_geom_bond_site_symmetry_2
As0 In0 2.653041 1_555
As0 In5 2.725643 1_455
As0 In6 2.725643 1_555
As0 In7 2.725643 1_555
As1 In1 2.653041 1_555
As1 In4 2.725643 1_555
As1 In6 2.725643 1_554
As1 In7 2.725643 1_555
As2 In2 2.653041 1_555
As2 In5 2.725643 1_555
As2 In4 2.725643 1_545
As2 In7 2.725643 1_555
As3 In3 2.653041 1_555
As3 In6 2.725643 1_655
As3 In4 2.725643 1_556
As3 In5 2.725643 1_565
As4 In4 2.653041 1_555
As4 In3 2.725643 1_555
As4 In2 2.725643 1_555
As4 In1 2.725643 1_655
As5 In5 2.653041 1_555
As5 In3 2.725643 1_555
As5 In0 2.725643 1_555
As5 In2 2.725643 1_556
As6 In6 2.653041 1_555
As6 In3 2.725643 1_555
As6 In1 2.725643 1_555
As6 In0 2.725643 1_565
As7 In7 2.653041 1_555
As7 In0 2.725643 1_554
As7 In1 2.725643 1_545
As7 In2 2.725643 1_455
