# generated using pymatgen
data_MgCu2(MoO4)2
_symmetry_space_group_name_H-M   'P 1'
_cell_length_a   5.59266462
_cell_length_b   5.35228287
_cell_length_c   6.03040950
_cell_angle_alpha   94.02491920
_cell_angle_beta   81.14174741
_cell_angle_gamma   67.75369805
_symmetry_Int_Tables_number   1
_chemical_formula_structural   MgCu2(MoO4)2
_chemical_formula_sum   'Mg1 Cu2 Mo2 O8'
_cell_volume   163.44474063
_cell_formula_units_Z   1
loop_
 _symmetry_equiv_pos_site_id
 _symmetry_equiv_pos_as_xyz
  1  'x, y, z'
loop_
 _atom_site_type_symbol
 _atom_site_label
 _atom_site_symmetry_multiplicity
 _atom_site_fract_x
 _atom_site_fract_y
 _atom_site_fract_z
 _atom_site_occupancy
  Mg  Mg0  1  0.55769940  0.62879797  0.92091736  1
  Cu  Cu0  1  0.55102453  0.00674178  0.27675189  1
  Cu  Cu1  1  0.38548715  0.13593288  0.78703385  1
  Mo  Mo0  1  0.97369827  0.25534944  0.32870288  1
  Mo  Mo1  1  0.04900716  0.72791513  0.64089159  1
  O  O0  1  0.74066206  0.92155051  0.85730979  1
  O  O1  1  0.80951061  0.49377105  0.61391219  1
  O  O2  1  0.77485696  0.44055251  0.14315603  1
  O  O3  1  0.27006352  0.53039720  0.82181451  1
  O  O4  1  0.21013203  -0.02640905  0.59891344  1
  O  O5  1  0.82900023  -0.00071274  0.40770160  1
  O  O6  1  0.20777384  0.46212673  0.36622542  1
  O  O7  1  0.27997323  -0.00101340  0.12208645  1
loop_
_geom_bond_atom_site_label_1
_geom_bond_atom_site_label_2
_geom_bond_distance
_geom_bond_site_symmetry_2
Mg0 O2 2.012599 1_556
Mg0 O3 2.028719 1_555
Mg0 O1 2.042473 1_555
Mg0 O7 2.135888 1_566
Mg0 O0 2.197003 1_555
Cu0 O5 1.837824 1_555
Cu0 O7 1.909777 1_555
Cu0 O6 2.422928 1_555
Cu0 O0 2.525147 1_544
Cu0 O4 2.569894 1_555
Cu1 O3 1.944841 1_555
Cu1 O4 1.962959 1_555
Cu1 O0 2.010878 1_545
Cu1 O7 2.266299 1_556
Mo0 O2 1.781995 1_555
Mo0 O5 1.890198 1_555
Mo0 O7 1.921536 1_655
Mo0 O1 1.935979 1_555
Mo0 O6 2.035413 1_655
Mo0 O4 2.485269 1_655
Mo1 O3 1.850439 1_555
Mo1 O4 1.865149 1_565
Mo1 O0 1.874808 1_455
Mo1 O6 1.953324 1_555
Mo1 O1 2.168069 1_455
Mo1 O5 2.251111 1_465
