# generated using pymatgen
data_Na2Zr4Ta4Si7S5O48
_symmetry_space_group_name_H-M   'P 1'
_cell_length_a   17.92387664
_cell_length_b   8.95550684
_cell_length_c   23.25805786
_cell_angle_alpha   90.04142461
_cell_angle_beta   89.26046585
_cell_angle_gamma   119.99415915
_symmetry_Int_Tables_number   1
_chemical_formula_structural   Na2Zr4Ta4Si7S5O48
_chemical_formula_sum   'Na6 Zr12 Ta12 Si21 S15 O144'
_cell_volume   3233.00272380
_cell_formula_units_Z   3
loop_
 _symmetry_equiv_pos_site_id
 _symmetry_equiv_pos_as_xyz
  1  'x, y, z'
loop_
 _atom_site_type_symbol
 _atom_site_label
 _atom_site_symmetry_multiplicity
 _atom_site_fract_x
 _atom_site_fract_y
 _atom_site_fract_z
 _atom_site_occupancy
  Na  Na0  1  0.99128631  0.00442849  0.49795020  1
  Na  Na1  1  0.49073433  0.97552004  0.00457727  1
  Na  Na2  1  0.32329757  0.33073180  0.84060255  1
  Na  Na3  1  0.82163812  0.32766995  0.83918840  1
  Na  Na4  1  0.32646403  0.31908071  0.33547048  1
  Na  Na5  1  0.82059356  0.31221119  0.33851422  1
  Zr  Zr0  1  0.00467144  0.01417709  0.35844949  1
  Zr  Zr1  1  0.50625724  0.99686878  0.85972680  1
  Zr  Zr2  1  0.00098243  0.01545562  0.64330198  1
  Zr  Zr3  1  0.50135598  0.99703326  0.14697931  1
  Zr  Zr4  1  0.33252552  0.33610578  0.98062833  1
  Zr  Zr5  1  0.83612344  0.33592466  0.97929156  1
  Zr  Zr6  1  0.33799026  0.33872404  0.47725695  1
  Zr  Zr7  1  0.83344121  0.33027189  0.47800131  1
  Zr  Zr8  1  0.17295146  0.68207825  0.31046803  1
  Zr  Zr9  1  0.67059947  0.67355028  0.30799797  1
  Zr  Zr10  1  0.17542530  0.66808831  0.81080482  1
  Zr  Zr11  1  0.67176808  0.66298949  0.81120502  1
  Ta  Ta0  1  0.50480717  0.02195682  0.35795464  1
  Ta  Ta1  1  0.00596847  0.00068644  0.86060903  1
  Ta  Ta2  1  0.50235324  0.01594743  0.64220835  1
  Ta  Ta3  1  0.00261180  0.98947400  0.14195755  1
  Ta  Ta4  1  0.33175819  0.34247250  0.68479107  1
  Ta  Ta5  1  0.83493361  0.34825279  0.68483227  1
  Ta  Ta6  1  0.34034985  0.32256480  0.18856153  1
  Ta  Ta7  1  0.83136735  0.32207933  0.18543249  1
  Ta  Ta8  1  0.17236462  0.69037541  0.02469543  1
  Ta  Ta9  1  0.67303200  0.68948836  0.02437765  1
  Ta  Ta10  1  0.17355824  0.65662361  0.52308841  1
  Ta  Ta11  1  0.67013541  0.65174370  0.52183012  1
  Si  Si0  1  0.14424641  0.00625761  0.24887694  1
  Si  Si1  1  0.64448851  0.00734785  0.25090935  1
  Si  Si2  1  0.50100714  0.28714479  0.25036847  1
  Si  Si3  1  0.14491032  0.28230854  0.75078105  1
  Si  Si4  1  0.64445435  0.28364877  0.74927733  1
  Si  Si5  1  0.47717964  0.34279901  0.58280703  1
  Si  Si6  1  0.97923684  0.34411775  0.58162698  1
  Si  Si7  1  0.33745299  0.62803451  0.58329775  1
  Si  Si8  1  0.83552349  0.62635216  0.58109460  1
  Si  Si9  1  0.47859414  0.62060940  0.08231970  1
  Si  Si10  1  0.97704010  0.61244209  0.08299100  1
  Si  Si11  1  0.33821830  0.04915419  0.08216906  1
  Si  Si12  1  0.83760670  0.04802511  0.08375797  1
  Si  Si13  1  0.31009170  0.66605405  0.91844305  1
  Si  Si14  1  0.81034606  0.66549129  0.91665457  1
  Si  Si15  1  0.17003659  0.95383397  0.91519623  1
  Si  Si16  1  0.66995720  0.95511550  0.91602278  1
  Si  Si17  1  0.31171562  0.95324961  0.41669435  1
  Si  Si18  1  0.80886503  0.94989146  0.41679926  1
  Si  Si19  1  0.16900290  0.38218850  0.41539461  1
  Si  Si20  1  0.66970681  0.38341435  0.41431648  1
  S  S0  1  0.35772019  0.70490381  0.25100086  1
  S  S1  1  0.86044653  0.71144270  0.24744074  1
  S  S2  1  0.99664991  0.28459303  0.24758074  1
  S  S3  1  0.99709978  0.71045834  0.75099714  1
  S  S4  1  0.49670927  0.70900123  0.74771893  1
  S  S5  1  0.35968425  0.00923391  0.74774187  1
  S  S6  1  0.85849004  0.01029165  0.75098328  1
  S  S7  1  0.19136536  0.04397392  0.58364087  1
  S  S8  1  0.68879050  0.04295216  0.58604633  1
  S  S9  1  0.18754782  0.33656757  0.08567824  1
  S  S10  1  0.69114349  0.33911220  0.08328525  1
  S  S11  1  0.02481165  0.37710711  0.91554542  1
  S  S12  1  0.52455463  0.38158174  0.91769296  1
  S  S13  1  0.02543984  0.66876888  0.41767481  1
  S  S14  1  0.52634071  0.67563279  0.41631589  1
  O  O0  1  0.09819286  0.03517447  0.30528397  1
  O  O1  1  0.59378279  0.02914816  0.30725008  1
  O  O2  1  0.41015803  0.78393530  0.30196573  1
  O  O3  1  0.91163223  0.78594979  0.29907163  1
  O  O4  1  0.48238017  0.16054953  0.30758130  1
  O  O5  1  0.97775751  0.17790749  0.30046518  1
  O  O6  1  0.09318653  0.15663959  0.80684197  1
  O  O7  1  0.59959254  0.16210627  0.80537226  1
  O  O8  1  0.47788158  0.77820689  0.80045919  1
  O  O9  1  0.98036658  0.78920163  0.80294516  1
  O  O10  1  0.41019911  0.03513367  0.79940088  1
  O  O11  1  0.91156534  0.03399122  0.80173518  1
  O  O12  1  0.40300850  0.98573100  0.69607295  1
  O  O13  1  0.89721359  0.98265106  0.69841769  1
  O  O14  1  0.08889702  0.18775895  0.69499803  1
  O  O15  1  0.58468760  0.17693321  0.69410548  1
  O  O16  1  0.00740723  0.81069933  0.69903015  1
  O  O17  1  0.50701328  0.81531557  0.69711515  1
  O  O18  1  0.39578781  0.80780986  0.19815664  1
  O  O19  1  0.90463800  0.82128317  0.19572919  1
  O  O20  1  0.00690416  0.19877183  0.19707119  1
  O  O21  1  0.50793876  0.19341404  0.19358183  1
  O  O22  1  0.08332814  0.99020975  0.19373418  1
  O  O23  1  0.59056048  0.98424769  0.19361008  1
  O  O24  1  0.42566893  0.35702847  0.64068259  1
  O  O25  1  0.92725702  0.35657537  0.64040242  1
  O  O26  1  0.24489386  0.13146903  0.63614778  1
  O  O27  1  0.74475887  0.13101280  0.63711327  1
  O  O28  1  0.31742106  0.49755367  0.64061508  1
  O  O29  1  0.82011724  0.50091353  0.63965605  1
  O  O30  1  0.42647243  0.49934320  0.13950068  1
  O  O31  1  0.92601111  0.49514125  0.14010631  1
  O  O32  1  0.32170194  0.13968653  0.13968069  1
  O  O33  1  0.81759863  0.13929613  0.14025721  1
  O  O34  1  0.24180606  0.36536541  0.13575584  1
  O  O35  1  0.74478907  0.36036292  0.13538891  1
  O  O36  1  0.22096520  0.29441481  0.03343242  1
  O  O37  1  0.73057282  0.30864747  0.03170824  1
  O  O38  1  0.41735498  0.53277885  0.02719478  1
  O  O39  1  0.91738694  0.53849750  0.02773045  1
  O  O40  1  0.34496178  0.15967081  0.02611847  1
  O  O41  1  0.85330381  0.16621641  0.02846165  1
  O  O42  1  0.22843718  0.15396235  0.53258387  1
  O  O43  1  0.72233932  0.15213648  0.53464269  1
  O  O44  1  0.35318765  0.53930741  0.52902482  1
  O  O45  1  0.84735879  0.53211788  0.52676975  1
  O  O46  1  0.41570190  0.29347677  0.52882810  1
  O  O47  1  0.91634074  0.30067292  0.52819862  1
  O  O48  1  0.25596734  0.67757748  0.97470734  1
  O  O49  1  0.76063952  0.68572903  0.97315007  1
  O  O50  1  0.07478023  0.44803617  0.96732630  1
  O  O51  1  0.57630979  0.46193187  0.96860798  1
  O  O52  1  0.15346847  0.83250999  0.97307116  1
  O  O53  1  0.65780956  0.83662313  0.97419504  1
  O  O54  1  0.25876799  0.83379803  0.47366794  1
  O  O55  1  0.75577138  0.83329464  0.47491752  1
  O  O56  1  0.15672103  0.47624543  0.47456952  1
  O  O57  1  0.65360032  0.47097200  0.47379957  1
  O  O58  1  0.07657338  0.68983151  0.46926479  1
  O  O59  1  0.57634089  0.69696734  0.46906245  1
  O  O60  1  0.06451564  0.64685731  0.36453969  1
  O  O61  1  0.56472914  0.64464604  0.36496073  1
  O  O62  1  0.25177962  0.86829660  0.36025705  1
  O  O63  1  0.75370937  0.86537914  0.36028863  1
  O  O64  1  0.17386301  0.49159196  0.35905858  1
  O  O65  1  0.68272701  0.49936527  0.35930111  1
  O  O66  1  0.06414232  0.48156380  0.86327174  1
  O  O67  1  0.56392856  0.48198823  0.86408159  1
  O  O68  1  0.17644419  0.85855933  0.85827953  1
  O  O69  1  0.67489548  0.85724526  0.85878705  1
  O  O70  1  0.25411637  0.64163645  0.86062401  1
  O  O71  1  0.75188745  0.63442015  0.85956613  1
  O  O72  1  0.01552665  0.82386076  0.41266384  1
  O  O73  1  0.51573914  0.82769665  0.40836806  1
  O  O74  1  0.40216361  0.95390943  0.40505713  1
  O  O75  1  0.90248815  0.95856767  0.41264876  1
  O  O76  1  0.08081122  0.19128772  0.41469896  1
  O  O77  1  0.58066592  0.19339563  0.40790259  1
  O  O78  1  0.01401930  0.19928125  0.90607296  1
  O  O79  1  0.51465636  0.20653840  0.91160364  1
  O  O80  1  0.08004281  0.96698970  0.90607501  1
  O  O81  1  0.58186064  0.97025211  0.91463279  1
  O  O82  1  0.40230940  0.84472952  0.91155709  1
  O  O83  1  0.90321772  0.84374869  0.90120635  1
  O  O84  1  0.49295717  0.17847284  0.59859279  1
  O  O85  1  0.99505450  0.18048441  0.58995666  1
  O  O86  1  0.10398827  0.02045044  0.59251961  1
  O  O87  1  0.60086903  0.02090679  0.59771844  1
  O  O88  1  0.41827964  0.81310365  0.60277621  1
  O  O89  1  0.91821854  0.81237134  0.59319967  1
  O  O90  1  0.49544456  0.81441246  0.08889909  1
  O  O91  1  0.99303473  0.80823961  0.09742166  1
  O  O92  1  0.41869642  0.01973362  0.08821422  1
  O  O93  1  0.91808845  0.02410450  0.10227819  1
  O  O94  1  0.09877233  0.18211481  0.09611854  1
  O  O95  1  0.60510822  0.18638482  0.08970082  1
  O  O96  1  0.34891028  0.16258181  0.73876017  1
  O  O97  1  0.84956339  0.16700082  0.74356039  1
  O  O98  1  0.24138704  0.29747248  0.74259101  1
  O  O99  1  0.74064191  0.30095008  0.73781791  1
  O  O100  1  0.41701033  0.53034101  0.73998471  1
  O  O101  1  0.91559493  0.53240340  0.74460821  1
  O  O102  1  0.34659117  0.52910105  0.24352772  1
  O  O103  1  0.85061903  0.53688198  0.23832890  1
  O  O104  1  0.41146395  0.30268429  0.24354780  1
  O  O105  1  0.91692009  0.30369861  0.23999754  1
  O  O106  1  0.23797201  0.18113361  0.23674313  1
  O  O107  1  0.74129574  0.19014129  0.24183160  1
  O  O108  1  0.32261257  0.49975976  0.92190988  1
  O  O109  1  0.82817195  0.50602218  0.92221042  1
  O  O110  1  0.43732180  0.36170546  0.92159078  1
  O  O111  1  0.93681849  0.35162965  0.92017187  1
  O  O112  1  0.25017172  0.14507708  0.92133026  1
  O  O113  1  0.75341309  0.14496325  0.92214950  1
  O  O114  1  0.32678574  0.14653593  0.42359759  1
  O  O115  1  0.82381165  0.14408231  0.42338422  1
  O  O116  1  0.25265318  0.36068295  0.42278019  1
  O  O117  1  0.75026378  0.35312323  0.42297624  1
  O  O118  1  0.43843002  0.52002218  0.42225739  1
  O  O119  1  0.93811406  0.51363769  0.42176809  1
  O  O120  1  0.17502011  0.48485281  0.07546839  1
  O  O121  1  0.68480193  0.49485488  0.07639495  1
  O  O122  1  0.07000205  0.62630272  0.07140473  1
  O  O123  1  0.57115506  0.62509238  0.07026074  1
  O  O124  1  0.24815489  0.85862663  0.07444893  1
  O  O125  1  0.75180018  0.85765631  0.07470860  1
  O  O126  1  0.18479337  0.87600632  0.57752592  1
  O  O127  1  0.67879515  0.87289019  0.57920190  1
  O  O128  1  0.25194014  0.64737165  0.57477193  1
  O  O129  1  0.74795892  0.64053408  0.57369428  1
  O  O130  1  0.07132316  0.52059097  0.57164855  1
  O  O131  1  0.56984077  0.51462736  0.57220471  1
  O  O132  1  0.15229429  0.83539678  0.25533714  1
  O  O133  1  0.66221131  0.85167978  0.26010265  1
  O  O134  1  0.27068455  0.68512603  0.25699412  1
  O  O135  1  0.77521827  0.69468822  0.25053949  1
  O  O136  1  0.07133009  0.45671490  0.25436012  1
  O  O137  1  0.57993946  0.47497342  0.26121932  1
  O  O138  1  0.15574828  0.46962988  0.75973781  1
  O  O139  1  0.65373152  0.47131033  0.75494949  1
  O  O140  1  0.06982127  0.68387435  0.75926916  1
  O  O141  1  0.57136567  0.68609786  0.75435005  1
  O  O142  1  0.27342778  0.85445866  0.75133963  1
  O  O143  1  0.77162736  0.85814659  0.75684436  1
loop_
_geom_bond_atom_site_label_1
_geom_bond_atom_site_label_2
_geom_bond_distance
_geom_bond_site_symmetry_2
Na0 O75 2.462661 1_545
Na0 O76 2.522701 1_655
Na0 O85 2.638554 1_555
Na0 O89 2.694359 1_545
Na0 O72 2.722854 1_645
Na0 O86 2.960314 1_655
Na1 O92 2.460309 1_565
Na1 O90 2.462744 1_555
Na1 O82 2.606389 1_554
Na1 O81 2.652339 1_554
Na1 O95 2.813730 1_565
Na1 O79 2.869783 1_564
Na2 O112 2.402022 1_555
Na2 O108 2.425170 1_555
Na2 O98 2.662475 1_555
Na2 O110 2.708090 1_555
Na2 O100 2.897551 1_555
Na2 O96 2.957514 1_555
Na3 O113 2.416359 1_555
Na3 O109 2.471381 1_555
Na3 O99 2.731987 1_555
Na3 O111 2.740921 1_555
Na3 O101 2.803518 1_555
Na3 O97 2.820339 1_555
Na4 O116 2.536730 1_555
Na4 O114 2.569568 1_555
Na4 O104 2.655680 1_555
Na4 O106 2.728609 1_555
Na4 O102 2.747361 1_555
Na4 O118 2.797978 1_555
Na5 O117 2.445216 1_555
Na5 O115 2.502158 1_555
Na5 O107 2.607126 1_555
Na5 O119 2.782358 1_555
Na5 O105 2.875079 1_555
Na5 O103 2.942644 1_555
O0 Si0 1.629372 1_555
O0 Zr0 2.001476 1_555
O1 Si1 1.651511 1_555
O1 Ta0 1.946045 1_555
O2 S0 1.466904 1_555
O2 Ta0 2.356886 1_565
O3 S1 1.464293 1_555
O3 Zr0 2.348018 1_665
O4 Si2 1.667249 1_555
O4 Ta0 1.894147 1_555
O5 S2 1.485883 1_555
O5 Zr0 2.219980 1_655
O6 Si3 1.659484 1_555
O6 Ta1 1.930637 1_555
O7 Si4 1.622767 1_555
O7 Zr1 2.014841 1_545
O8 S4 1.483228 1_555
O8 Zr1 2.238720 1_555
O9 S3 1.499297 1_555
O9 Ta1 2.177057 1_665
O10 S5 1.461119 1_555
O10 Zr1 2.388167 1_545
O11 S6 1.473133 1_555
O11 Ta1 2.322070 1_655
O12 S5 1.493454 1_565
O12 Ta2 2.067494 1_565
O13 S6 1.478897 1_565
O13 Zr2 2.140465 1_665
O14 Si3 1.609433 1_555
O14 Zr2 1.981132 1_555
O15 Si4 1.648517 1_555
O15 Ta2 1.905129 1_555
O16 S3 1.459738 1_455
O16 Zr2 2.296534 1_565
O17 S4 1.464924 1_555
O17 Ta2 2.241035 1_565
O18 S0 1.475374 1_555
O18 Zr3 2.146546 1_555
O19 S1 1.496540 1_555
O19 Ta3 2.053784 1_655
O20 S2 1.462494 1_455
O20 Ta3 2.239904 1_545
O21 Si2 1.600888 1_555
O21 Zr3 2.018611 1_545
O22 Si0 1.654300 1_565
O22 Ta3 1.891749 1_555
O23 Si1 1.608118 1_565
O23 Zr3 1.993433 1_555
O24 Si5 1.663095 1_555
O24 Ta4 1.907607 1_555
O25 Si6 1.679285 1_555
O25 Ta5 1.909023 1_555
O26 S7 1.517583 1_555
O26 Ta4 2.091795 1_555
O27 S8 1.509096 1_555
O27 Ta5 2.127993 1_555
O28 Si7 1.685794 1_555
O28 Ta4 1.848310 1_555
O29 Si8 1.695780 1_555
O29 Ta5 1.848220 1_555
O30 Si9 1.666278 1_555
O30 Ta6 1.924829 1_555
O31 Si10 1.647640 1_555
O31 Ta7 1.928372 1_555
O32 Si11 1.662034 1_555
O32 Ta6 1.883158 1_555
O33 Si12 1.674168 1_555
O33 Ta7 1.855978 1_555
O34 S9 1.465225 1_555
O34 Ta6 2.347049 1_555
O35 S10 1.508671 1_555
O35 Ta7 2.111761 1_555
O36 S9 1.477987 1_555
O36 Zr4 2.199291 1_554
O37 S10 1.477604 1_555
O37 Zr5 2.145676 1_554
O38 Si9 1.624480 1_555
O38 Zr4 1.987267 1_554
O39 Si10 1.599982 1_555
O39 Zr5 2.019741 1_554
O40 Si11 1.603688 1_555
O40 Zr4 2.006572 1_554
O41 Si12 1.596370 1_555
O41 Zr5 2.047449 1_554
O42 S7 1.465881 1_555
O42 Zr6 2.222343 1_555
O43 S8 1.463654 1_555
O43 Zr7 2.237197 1_555
O44 Si7 1.586725 1_555
O44 Zr6 2.065614 1_555
O45 Si8 1.588752 1_555
O45 Zr7 2.042009 1_555
O46 Si5 1.591774 1_555
O46 Zr6 2.037441 1_555
O47 Si6 1.601048 1_555
O47 Zr7 2.019943 1_555
O48 Si13 1.652676 1_555
O48 Ta8 1.933091 1_556
O49 Si14 1.638299 1_555
O49 Ta9 1.972546 1_556
O50 S11 1.453947 1_555
O50 Ta8 2.410490 1_556
O51 S12 1.462993 1_555
O51 Ta9 2.315776 1_556
O52 Si15 1.658245 1_555
O52 Ta8 1.902718 1_556
O53 Si16 1.663571 1_555
O53 Ta9 1.882240 1_556
O54 Si17 1.659951 1_555
O54 Ta10 1.925041 1_555
O55 Si18 1.672844 1_555
O55 Ta11 1.911582 1_555
O56 Si19 1.681683 1_555
O56 Ta10 1.868869 1_555
O57 Si20 1.681252 1_555
O57 Ta11 1.866227 1_555
O58 S13 1.473263 1_555
O58 Ta10 2.291498 1_555
O59 S14 1.483749 1_555
O59 Ta11 2.287195 1_555
O60 S13 1.473438 1_555
O60 Zr8 2.187037 1_555
O61 S14 1.465026 1_555
O61 Zr9 2.206266 1_555
O62 Si17 1.635135 1_555
O62 Zr8 1.949871 1_555
O63 Si18 1.600508 1_555
O63 Zr9 2.033349 1_555
O64 Si19 1.611800 1_555
O64 Zr8 2.053941 1_555
O65 Si20 1.588051 1_555
O65 Zr9 2.062219 1_555
O66 S11 1.473215 1_555
O66 Zr10 2.206071 1_555
O67 S12 1.485188 1_555
O67 Zr11 2.164477 1_555
O68 Si15 1.608100 1_555
O68 Zr10 2.023810 1_555
O69 Si16 1.618937 1_555
O69 Zr11 2.038524 1_555
O70 Si13 1.636412 1_555
O70 Zr10 1.940286 1_555
O71 Si14 1.637729 1_555
O71 Zr11 1.949950 1_555
O72 S13 1.490565 1_555
O72 Zr0 2.207642 1_565
O73 S14 1.478107 1_555
O73 Ta0 2.188480 1_565
O74 Si17 1.637257 1_555
O74 Ta0 1.945315 1_565
O75 Si18 1.642195 1_555
O75 Zr0 2.054476 1_665
O76 Si19 1.649369 1_555
O76 Zr0 1.992139 1_555
O77 Si20 1.659988 1_555
O77 Ta0 1.872563 1_555
O78 S11 1.521403 1_555
O78 Ta1 2.011633 1_555
O79 S12 1.493710 1_555
O79 Zr1 2.173240 1_545
O80 Si15 1.691051 1_555
O80 Ta1 1.846442 1_565
O81 Si16 1.651695 1_555
O81 Zr1 1.972800 1_555
O82 Si13 1.633184 1_555
O82 Zr1 2.046261 1_555
O83 Si14 1.666429 1_555
O83 Ta1 1.904665 1_665
O84 Si5 1.673321 1_555
O84 Ta2 1.851350 1_555
O85 Si6 1.637861 1_555
O85 Zr2 1.974321 1_655
O86 S7 1.483795 1_555
O86 Zr2 2.160301 1_555
O87 S8 1.508005 1_555
O87 Ta2 2.016225 1_555
O88 Si7 1.632838 1_555
O88 Ta2 1.925659 1_565
O89 Si8 1.610202 1_555
O89 Zr2 2.051904 1_665
O90 Si9 1.613587 1_555
O90 Zr3 2.082776 1_555
O91 Si10 1.663883 1_555
O91 Ta3 1.860178 1_655
O92 Si11 1.598505 1_555
O92 Zr3 2.111459 1_545
O93 Si12 1.624041 1_555
O93 Ta3 1.936315 1_645
O94 S9 1.514622 1_555
O94 Ta3 2.016401 1_545
O95 S10 1.468528 1_555
O95 Zr3 2.212448 1_545
O96 S5 1.494495 1_555
O96 Ta4 2.184838 1_555
O97 S6 1.500178 1_555
O97 Ta5 2.237690 1_555
O98 Si3 1.673837 1_555
O98 Ta4 1.971105 1_555
O99 Si4 1.669887 1_555
O99 Ta5 1.945672 1_555
O100 S4 1.534274 1_555
O100 Ta4 2.071368 1_555
O101 S3 1.541139 1_555
O101 Ta5 2.099409 1_555
O102 S0 1.495074 1_555
O102 Ta6 2.204855 1_555
O103 S1 1.498315 1_555
O103 Ta7 2.162634 1_555
O104 Si2 1.688298 1_555
O104 Ta6 1.887122 1_555
O105 S2 1.534156 1_555
O105 Ta7 2.071712 1_555
O106 Si0 1.646937 1_555
O106 Ta6 1.962766 1_555
O107 Si1 1.698890 1_555
O107 Ta7 1.939973 1_555
O108 Si13 1.615405 1_555
O108 Zr4 2.077055 1_555
O109 Si14 1.617368 1_555
O109 Zr5 2.080426 1_555
O110 S12 1.484147 1_555
O110 Zr4 2.229238 1_555
O111 S11 1.478848 1_655
O111 Zr5 2.202344 1_555
O112 Si15 1.600646 1_545
O112 Zr4 2.128844 1_555
O113 Si16 1.615822 1_545
O113 Zr5 2.097956 1_555
O114 Si17 1.621191 1_545
O114 Zr6 2.053769 1_555
O115 Si18 1.629255 1_545
O115 Zr7 2.034347 1_555
O116 Si19 1.615555 1_555
O116 Zr6 2.082004 1_555
O117 Si20 1.611889 1_555
O117 Zr7 2.063262 1_555
O118 S14 1.497720 1_555
O118 Zr6 2.129445 1_555
O119 S13 1.487033 1_655
O119 Zr7 2.187804 1_555
O120 S9 1.473187 1_555
O120 Ta8 2.208299 1_555
O121 S10 1.463982 1_555
O121 Ta9 2.218931 1_555
O122 Si10 1.626666 1_455
O122 Ta8 1.942306 1_555
O123 Si9 1.659558 1_555
O123 Ta9 1.924444 1_555
O124 Si11 1.674107 1_565
O124 Ta8 1.856434 1_555
O125 Si12 1.643921 1_565
O125 Ta9 1.883063 1_555
O126 S7 1.455949 1_565
O126 Ta10 2.260748 1_555
O127 S8 1.450697 1_565
O127 Ta11 2.328320 1_555
O128 Si7 1.640677 1_555
O128 Ta10 1.893594 1_555
O129 Si8 1.647841 1_555
O129 Ta11 1.895916 1_555
O130 Si6 1.630464 1_455
O130 Ta10 1.958099 1_555
O131 Si5 1.619214 1_555
O131 Ta11 1.962857 1_555
O132 Si0 1.614405 1_565
O132 Zr8 2.046843 1_555
O133 Si1 1.592186 1_565
O133 Zr9 2.013697 1_555
O134 S0 1.484120 1_555
O134 Zr8 2.124191 1_555
O135 S1 1.459224 1_555
O135 Zr9 2.217831 1_555
O136 S2 1.461092 1_455
O136 Zr8 2.340080 1_555
O137 Si2 1.588700 1_555
O137 Zr9 2.034789 1_555
O138 Si3 1.603137 1_555
O138 Zr10 2.018635 1_555
O139 Si4 1.609448 1_555
O139 Zr11 2.053264 1_555
O140 S3 1.452405 1_455
O140 Zr10 2.316431 1_555
O141 S4 1.461590 1_555
O141 Zr11 2.337551 1_555
O142 S5 1.474029 1_565
O142 Zr10 2.189390 1_555
O143 S6 1.474071 1_565
O143 Zr11 2.161903 1_555
