# generated using pymatgen
data_Na2YSn(PO4)3
_symmetry_space_group_name_H-M   'P 1'
_cell_length_a   9.11139377
_cell_length_b   9.11139345
_cell_length_c   23.01295400
_cell_angle_alpha   89.98565906
_cell_angle_beta   90.01434094
_cell_angle_gamma   120.31007577
_symmetry_Int_Tables_number   1
_chemical_formula_structural   Na2YSn(PO4)3
_chemical_formula_sum   'Na12 Y6 Sn6 P18 O72'
_cell_volume   1649.32839757
_cell_formula_units_Z   6
loop_
 _symmetry_equiv_pos_site_id
 _symmetry_equiv_pos_as_xyz
  1  'x, y, z'
loop_
 _atom_site_type_symbol
 _atom_site_label
 _atom_site_symmetry_multiplicity
 _atom_site_fract_x
 _atom_site_fract_y
 _atom_site_fract_z
 _atom_site_occupancy
  Na  Na0  1  0.36216649  0.35544166  0.24968681  1
  Na  Na1  1  0.64455834  0.63783351  0.74968681  1
  Na  Na2  1  0.02883349  0.68877466  0.58301981  1
  Na  Na3  1  0.31122534  0.97116651  0.08301981  1
  Na  Na4  1  0.69549949  0.02210866  0.91635381  1
  Na  Na5  1  0.97789134  0.30450051  0.41635381  1
  Na  Na6  1  -0.00000930  0.99963664  0.50099297  1
  Na  Na7  1  0.00036336  0.00000930  0.00099297  1
  Na  Na8  1  0.66665770  0.33296964  0.83432597  1
  Na  Na9  1  0.66703036  0.33334230  0.33432597  1
  Na  Na10  1  0.33332370  0.66630364  0.16765997  1
  Na  Na11  1  0.33369636  0.66667630  0.66765997  1
  Y  Y0  1  0.99556099  0.98584063  0.35338967  1
  Y  Y1  1  0.01415937  0.00443901  0.85338967  1
  Y  Y2  1  0.66222799  0.31917363  0.68672267  1
  Y  Y3  1  0.68082637  0.33777201  0.18672267  1
  Y  Y4  1  0.32889399  0.65250763  0.02005667  1
  Y  Y5  1  0.34749237  0.67110601  0.52005667  1
  Sn  Sn0  1  0.00324252  0.00854036  0.64992884  1
  Sn  Sn1  1  0.99145964  0.99675748  0.14992884  1
  Sn  Sn2  1  0.66990952  0.34187336  0.98326184  1
  Sn  Sn3  1  0.65812664  0.33009048  0.48326184  1
  Sn  Sn4  1  0.33657552  0.67520736  0.31659584  1
  Sn  Sn5  1  0.32479264  0.66342448  0.81659584  1
  P  P0  1  0.28848728  0.98786733  0.24802560  1
  P  P1  1  0.69278931  0.70792731  0.24953740  1
  P  P2  1  0.01322716  0.30079007  0.25357894  1
  P  P3  1  0.29207269  0.30721069  0.74953740  1
  P  P4  1  0.01213267  0.71151272  0.74802560  1
  P  P5  1  0.69920993  0.98677284  0.75357894  1
  P  P6  1  0.95515428  0.32120033  0.58135860  1
  P  P7  1  0.35945631  0.04126031  0.58287040  1
  P  P8  1  0.67989416  0.63412307  0.58691194  1
  P  P9  1  0.95873969  0.64054369  0.08287040  1
  P  P10  1  0.67879967  0.04484572  0.08135860  1
  P  P11  1  0.36587693  0.32010584  0.08691194  1
  P  P12  1  0.62182028  0.65453433  0.91469260  1
  P  P13  1  0.02612231  0.37459431  0.91620440  1
  P  P14  1  0.34656016  0.96745707  0.92024594  1
  P  P15  1  0.62540569  0.97387769  0.41620440  1
  P  P16  1  0.34546567  0.37817972  0.41469260  1
  P  P17  1  0.03254293  0.65343984  0.42024594  1
  O  O0  1  0.20103349  0.01555165  0.29932836  1
  O  O1  1  0.79685080  0.78729581  0.30333185  1
  O  O2  1  0.99541549  0.20257567  0.30896749  1
  O  O3  1  0.21270419  0.20314920  0.80333185  1
  O  O4  1  0.98444835  0.79896651  0.79932836  1
  O  O5  1  0.79742433  0.00458451  0.80896749  1
  O  O6  1  0.78756694  0.95524060  0.69938156  1
  O  O7  1  0.18434562  0.22311921  0.69329208  1
  O  O8  1  0.03798159  0.81744456  0.69046626  1
  O  O9  1  0.77688079  0.81565438  0.19329208  1
  O  O10  1  0.04475940  0.21243306  0.19938156  1
  O  O11  1  0.18255544  0.96201841  0.19046626  1
  O  O12  1  0.86770049  0.34888465  0.63266136  1
  O  O13  1  0.46351780  0.12062881  0.63666485  1
  O  O14  1  0.66208249  0.53590867  0.64230049  1
  O  O15  1  0.87937119  0.53648220  0.13666485  1
  O  O16  1  0.65111535  0.13229951  0.13266136  1
  O  O17  1  0.46409133  0.33791751  0.14230049  1
  O  O18  1  0.45423394  0.28857360  0.03271456  1
  O  O19  1  0.85101262  0.55645221  0.02662508  1
  O  O20  1  0.70464859  0.15077756  0.02379926  1
  O  O21  1  0.44354779  0.14898738  0.52662508  1
  O  O22  1  0.71142640  0.54576606  0.53271456  1
  O  O23  1  0.84922244  0.29535141  0.52379926  1
  O  O24  1  0.53436649  0.68221865  0.96599536  1
  O  O25  1  0.13018380  0.45396281  0.96999885  1
  O  O26  1  0.32874849  0.86924267  0.97563449  1
  O  O27  1  0.54603719  0.86981620  0.46999885  1
  O  O28  1  0.31778135  0.46563351  0.46599536  1
  O  O29  1  0.13075733  0.67125151  0.47563449  1
  O  O30  1  0.12089994  0.62190760  0.36604856  1
  O  O31  1  0.51767862  0.88978621  0.35995908  1
  O  O32  1  0.37131459  0.48411156  0.35713326  1
  O  O33  1  0.11021379  0.48232138  0.85995908  1
  O  O34  1  0.37809240  0.87910006  0.86604856  1
  O  O35  1  0.51588844  0.62868541  0.85713326  1
  O  O36  1  0.00571357  0.80436698  0.41409023  1
  O  O37  1  0.80870646  0.00773203  0.41154111  1
  O  O38  1  0.18588910  0.20072108  0.41073352  1
  O  O39  1  0.99226797  0.19129354  0.91154111  1
  O  O40  1  0.19563302  0.99428643  0.91409023  1
  O  O41  1  0.79927892  0.81411090  0.91073352  1
  O  O42  1  0.96850614  0.15743975  0.58776765  1
  O  O43  1  0.17994554  0.02672550  0.58690457  1
  O  O44  1  0.84951906  0.81268142  0.58905510  1
  O  O45  1  0.97327450  0.82005446  0.08690457  1
  O  O46  1  0.84256025  0.03149386  0.08776765  1
  O  O47  1  0.18731858  0.15048094  0.08905510  1
  O  O48  1  0.67238057  0.13769998  0.74742323  1
  O  O49  1  0.47537346  0.34106503  0.74487411  1
  O  O50  1  0.85255610  0.53405408  0.74406652  1
  O  O51  1  0.65893497  0.52462654  0.24487411  1
  O  O52  1  0.86230002  0.32761943  0.24742323  1
  O  O53  1  0.46594592  0.14744390  0.24406652  1
  O  O54  1  0.63517314  0.49077275  0.92110065  1
  O  O55  1  0.84661254  0.36005850  0.92023757  1
  O  O56  1  0.51618606  0.14601442  0.92238810  1
  O  O57  1  0.63994150  0.15338746  0.42023757  1
  O  O58  1  0.50922725  0.36482686  0.42110065  1
  O  O59  1  0.85398558  0.48381394  0.42238810  1
  O  O60  1  0.33904657  0.47103398  0.08075723  1
  O  O61  1  0.14203946  0.67439903  0.07820811  1
  O  O62  1  0.51922210  0.86738808  0.07740052  1
  O  O63  1  0.32560097  0.85796054  0.57820811  1
  O  O64  1  0.52896602  0.66095343  0.58075723  1
  O  O65  1  0.13261192  0.48077790  0.57740052  1
  O  O66  1  0.30183914  0.82410675  0.25443465  1
  O  O67  1  0.51327854  0.69339250  0.25357157  1
  O  O68  1  0.18285206  0.47934842  0.25572210  1
  O  O69  1  0.30660750  0.48672146  0.75357157  1
  O  O70  1  0.17589325  0.69816086  0.75443465  1
  O  O71  1  0.52065158  0.81714794  0.75572210  1
loop_
_geom_bond_atom_site_label_1
_geom_bond_atom_site_label_2
_geom_bond_distance
_geom_bond_site_symmetry_2
Na0 O51 2.343683 1_555
Na0 O68 2.413530 1_555
Na0 O53 2.512249 1_555
Na0 O67 2.665708 1_555
Na0 O17 2.673230 1_555
Na0 O32 2.719953 1_555
Na0 O10 2.756321 1_555
Na0 O0 2.908780 1_555
Na1 O49 2.343683 1_555
Na1 O71 2.413530 1_555
Na1 O50 2.512249 1_555
Na1 O69 2.665708 1_555
Na1 O14 2.673230 1_555
Na1 O35 2.719953 1_555
Na1 O6 2.756321 1_555
Na1 O4 2.908780 1_555
Na2 O63 2.343675 1_555
Na2 O44 2.413530 1_455
Na2 O65 2.512232 1_555
Na2 O43 2.665708 1_565
Na2 O29 2.673203 1_555
Na2 O8 2.719953 1_555
Na2 O22 2.756321 1_455
Na2 O12 2.908780 1_455
Na3 O61 2.343675 1_555
Na3 O47 2.413530 1_565
Na3 O62 2.512232 1_555
Na3 O45 2.665708 1_455
Na3 O26 2.673203 1_554
Na3 O11 2.719953 1_555
Na3 O18 2.756321 1_565
Na3 O16 2.908780 1_565
Na4 O39 2.343683 1_555
Na4 O56 2.413513 1_555
Na4 O41 2.512249 1_545
Na4 O55 2.665699 1_555
Na4 O5 2.673230 1_555
Na4 O20 2.719926 1_556
Na4 O34 2.756321 1_545
Na4 O24 2.908780 1_545
Na5 O37 2.343683 1_555
Na5 O59 2.413512 1_555
Na5 O38 2.512249 1_655
Na5 O57 2.665699 1_555
Na5 O2 2.673230 1_555
Na5 O23 2.719926 1_555
Na5 O30 2.756321 1_655
Na5 O28 2.908780 1_655
Na6 O43 2.499665 1_565
Na6 O44 2.555522 1_455
Na6 O42 2.560352 1_465
Na6 O36 2.695037 1_555
Na6 O38 2.721719 1_565
Na6 O37 2.721864 1_465
Na7 O45 2.499665 1_445
Na7 O47 2.555522 1_555
Na7 O46 2.560352 1_455
Na7 O40 2.695037 1_544
Na7 O41 2.721719 1_444
Na7 O39 2.721864 1_454
Na8 O55 2.499665 1_555
Na8 O56 2.555522 1_555
Na8 O54 2.560352 1_555
Na8 O48 2.695037 1_555
Na8 O50 2.721719 1_555
Na8 O49 2.721864 1_555
Na9 O57 2.499665 1_555
Na9 O59 2.555522 1_555
Na9 O58 2.560352 1_555
Na9 O52 2.695037 1_555
Na9 O53 2.721719 1_555
Na9 O51 2.721864 1_555
Na10 O67 2.499665 1_555
Na10 O68 2.555522 1_555
Na10 O66 2.560352 1_555
Na10 O60 2.695037 1_555
Na10 O62 2.721719 1_555
Na10 O61 2.721864 1_555
Na11 O69 2.499665 1_555
Na11 O71 2.555522 1_555
Na11 O70 2.560352 1_555
Na11 O64 2.695037 1_555
Na11 O65 2.721719 1_555
Na11 O63 2.721864 1_555
O0 P0 1.515234 1_545
O0 Y0 2.148361 1_445
O1 P1 1.504091 1_555
O1 Y0 2.138149 1_555
O2 P2 1.518163 1_655
O2 Y0 2.224044 1_545
O3 P3 1.504091 1_555
O3 Y1 2.138149 1_555
O4 P4 1.515234 1_655
O4 Y1 2.148361 1_665
O5 P5 1.518163 1_545
O5 Y1 2.224044 1_655
O6 P5 1.587580 1_555
O6 Sn0 2.104812 1_665
O7 P3 1.570556 1_555
O7 Sn0 2.070015 1_555
O8 P4 1.584839 1_555
O8 Sn0 2.134800 1_565
O9 P1 1.570556 1_555
O9 Sn1 2.070015 1_555
O10 P2 1.587580 1_555
O10 Sn1 2.104812 1_445
O11 P0 1.584839 1_555
O11 Sn1 2.134800 1_455
O12 P6 1.515234 1_555
O12 Y2 2.148361 1_555
O13 P7 1.504091 1_555
O13 Y2 2.138149 1_555
O14 P8 1.518163 1_555
O14 Y2 2.224044 1_555
O15 P9 1.504091 1_555
O15 Y3 2.138149 1_555
O16 P10 1.515234 1_555
O16 Y3 2.148361 1_555
O17 P11 1.518163 1_555
O17 Y3 2.224044 1_555
O18 P11 1.587580 1_555
O18 Sn2 2.104812 1_554
O19 P9 1.570556 1_555
O19 Sn2 2.070015 1_554
O20 P10 1.584839 1_555
O20 Sn2 2.134800 1_554
O21 P7 1.570556 1_555
O21 Sn3 2.070015 1_555
O22 P8 1.587580 1_555
O22 Sn3 2.104812 1_555
O23 P6 1.584839 1_555
O23 Sn3 2.134800 1_555
O24 P12 1.515234 1_555
O24 Y4 2.148361 1_556
O25 P13 1.504091 1_555
O25 Y4 2.138149 1_556
O26 P14 1.518163 1_555
O26 Y4 2.224044 1_556
O27 P15 1.504091 1_555
O27 Y5 2.138149 1_555
O28 P16 1.515234 1_555
O28 Y5 2.148361 1_555
O29 P17 1.518163 1_555
O29 Y5 2.224044 1_555
O30 P17 1.587580 1_555
O30 Sn4 2.104812 1_555
O31 P15 1.570556 1_555
O31 Sn4 2.070015 1_555
O32 P16 1.584839 1_555
O32 Sn4 2.134800 1_555
O33 P13 1.570556 1_555
O33 Sn5 2.070015 1_555
O34 P14 1.587580 1_555
O34 Sn5 2.104812 1_555
O35 P12 1.584839 1_555
O35 Sn5 2.134800 1_555
O36 P17 1.519892 1_555
O36 Y0 2.201599 1_455
O37 P15 1.541450 1_545
O37 Y0 2.252381 1_545
O38 P16 1.537453 1_555
O38 Y0 2.270491 1_445
O39 P13 1.541450 1_655
O39 Y1 2.252381 1_655
O40 P14 1.519892 1_555
O40 Y1 2.201599 1_565
O41 P12 1.537453 1_555
O41 Y1 2.270491 1_665
O42 P6 1.563961 1_555
O42 Sn0 2.102219 1_655
O43 P7 1.575678 1_555
O43 Sn0 2.110678 1_555
O44 P8 1.581125 1_555
O44 Sn0 2.141552 1_665
O45 P9 1.575678 1_555
O45 Sn1 2.110678 1_555
O46 P10 1.563961 1_555
O46 Sn1 2.102219 1_545
O47 P11 1.581125 1_555
O47 Sn1 2.141552 1_445
O48 P5 1.519892 1_545
O48 Y2 2.201599 1_555
O49 P3 1.541450 1_555
O49 Y2 2.252381 1_555
O50 P4 1.537453 1_655
O50 Y2 2.270491 1_555
O51 P1 1.541450 1_555
O51 Y3 2.252381 1_555
O52 P2 1.519892 1_655
O52 Y3 2.201599 1_555
O53 P0 1.537453 1_545
O53 Y3 2.270491 1_555
O54 P12 1.563973 1_555
O54 Sn2 2.102219 1_555
O55 P13 1.575663 1_655
O55 Sn2 2.110678 1_555
O56 P14 1.581124 1_545
O56 Sn2 2.141552 1_555
O57 P15 1.575663 1_545
O57 Sn3 2.110678 1_555
O58 P16 1.563973 1_555
O58 Sn3 2.102219 1_555
O59 P17 1.581124 1_655
O59 Sn3 2.141552 1_555
O60 P11 1.519905 1_555
O60 Y4 2.201599 1_555
O61 P9 1.541436 1_455
O61 Y4 2.252381 1_555
O62 P10 1.537450 1_565
O62 Y4 2.270491 1_555
O63 P7 1.541436 1_565
O63 Y5 2.252381 1_555
O64 P8 1.519905 1_555
O64 Y5 2.201599 1_555
O65 P6 1.537450 1_455
O65 Y5 2.270491 1_555
O66 P0 1.563961 1_555
O66 Sn4 2.102219 1_555
O67 P1 1.575678 1_555
O67 Sn4 2.110678 1_555
O68 P2 1.581125 1_555
O68 Sn4 2.141552 1_555
O69 P3 1.575678 1_555
O69 Sn5 2.110678 1_555
O70 P4 1.563961 1_555
O70 Sn5 2.102219 1_555
O71 P5 1.581125 1_555
O71 Sn5 2.141552 1_555
