# generated using pymatgen
data_Na21Ca4Ta8Si15(PO24)3
_symmetry_space_group_name_H-M   'P 1'
_cell_length_a   9.21916125
_cell_length_b   9.23972200
_cell_length_c   22.38400948
_cell_angle_alpha   90.04941776
_cell_angle_beta   90.11805086
_cell_angle_gamma   120.02140141
_symmetry_Int_Tables_number   1
_chemical_formula_structural   Na21Ca4Ta8Si15(PO24)3
_chemical_formula_sum   'Na21 Ca4 Ta8 Si15 P3 O72'
_cell_volume   1650.90913526
_cell_formula_units_Z   1
loop_
 _symmetry_equiv_pos_site_id
 _symmetry_equiv_pos_as_xyz
  1  'x, y, z'
loop_
 _atom_site_type_symbol
 _atom_site_label
 _atom_site_symmetry_multiplicity
 _atom_site_fract_x
 _atom_site_fract_y
 _atom_site_fract_z
 _atom_site_occupancy
  Na  Na0  1  0.64268793  0.01525192  0.23433921  1
  Na  Na1  1  0.37050547  0.34813142  0.24157435  1
  Na  Na2  1  0.99121750  0.63664331  0.23781864  1
  Na  Na3  1  0.64192547  0.62913324  0.73703604  1
  Na  Na4  1  0.97837761  0.34985253  0.74365606  1
  Na  Na5  1  0.37750477  0.02713126  0.74211210  1
  Na  Na6  1  0.32734480  0.34261446  0.59209845  1
  Na  Na7  1  0.65782252  0.98090187  0.59180514  1
  Na  Na8  1  0.32887780  0.98346371  0.08585548  1
  Na  Na9  1  0.96885189  0.68343835  0.91298083  1
  Na  Na10  1  0.71446377  0.03339090  0.90828294  1
  Na  Na11  1  0.31715630  0.28005786  0.90928842  1
  Na  Na12  1  0.96570368  0.28152177  0.41208159  1
  Na  Na13  1  0.31881122  0.03621556  0.40865293  1
  Na  Na14  1  0.71293117  0.68207393  0.41122781  1
  Na  Na15  1  0.00266334  0.98944533  0.49876102  1
  Na  Na16  1  0.98994551  0.00298449  0.99707128  1
  Na  Na17  1  0.65481366  0.32462379  0.82515557  1
  Na  Na18  1  0.65943602  0.32459095  0.32448399  1
  Na  Na19  1  0.33421713  0.64250328  0.16004516  1
  Na  Na20  1  0.30710102  0.66613457  0.66577304  1
  Ca  Ca0  1  0.00161293  0.00102212  0.35373422  1
  Ca  Ca1  1  0.00123399  0.00164885  0.85483997  1
  Ca  Ca2  1  0.67000967  0.33412768  0.67765436  1
  Ca  Ca3  1  0.66686348  0.33689816  0.17546144  1
  Ta  Ta0  1  0.99833679  0.00262249  0.64850976  1
  Ta  Ta1  1  0.00324311  0.99805066  0.14479385  1
  Ta  Ta2  1  0.66811113  0.33201660  0.98301900  1
  Ta  Ta3  1  0.66617597  0.33437029  0.48165716  1
  Ta  Ta4  1  0.33279608  0.66429921  0.02021694  1
  Ta  Ta5  1  0.33128732  0.66600080  0.51944541  1
  Ta  Ta6  1  0.33226608  0.66917332  0.31187106  1
  Ta  Ta7  1  0.33666670  0.66569265  0.81261836  1
  Si  Si0  1  0.29862584  0.99466734  0.25332686  1
  Si  Si1  1  0.29670226  0.30462707  0.75353258  1
  Si  Si2  1  0.69492232  0.99311215  0.75400157  1
  Si  Si3  1  0.97087451  0.33283319  0.58501476  1
  Si  Si4  1  0.36055309  0.02843526  0.58383218  1
  Si  Si5  1  0.67029566  0.63876434  0.58284034  1
  Si  Si6  1  0.96970696  0.63534692  0.08491471  1
  Si  Si7  1  0.66772787  0.02930407  0.08421591  1
  Si  Si8  1  0.36325597  0.33455887  0.08530588  1
  Si  Si9  1  0.61419446  0.64904642  0.91814033  1
  Si  Si10  1  0.03562645  0.38760993  0.91696763  1
  Si  Si11  1  0.34804249  0.96208133  0.91873462  1
  Si  Si12  1  0.61439194  0.96307985  0.41786656  1
  Si  Si13  1  0.34938116  0.38626425  0.41699937  1
  Si  Si14  1  0.03433461  0.64757786  0.41627087  1
  P  P0  1  0.69954386  0.70957707  0.25346293  1
  P  P1  1  0.01070085  0.30017233  0.25291299  1
  P  P2  1  0.01099277  0.71261693  0.75296530  1
  O  O0  1  0.21861472  0.00527122  0.31501038  1
  O  O1  1  0.77666881  0.78134579  0.31393917  1
  O  O2  1  0.99473927  0.21950984  0.31345485  1
  O  O3  1  0.22400136  0.20530287  0.81408521  1
  O  O4  1  0.99482120  0.77859432  0.81263149  1
  O  O5  1  0.78764058  0.00232186  0.81470004  1
  O  O6  1  0.80705887  0.97816394  0.69491571  1
  O  O7  1  0.16818771  0.19161407  0.69498096  1
  O  O8  1  0.02272096  0.83576614  0.70041694  1
  O  O9  1  0.80844975  0.83203681  0.20182359  1
  O  O10  1  0.02355547  0.18960431  0.20180157  1
  O  O11  1  0.16920284  0.97725915  0.19617773  1
  O  O12  1  0.91695944  0.37069305  0.64722407  1
  O  O13  1  0.47524279  0.08075006  0.64216591  1
  O  O14  1  0.60522420  0.52026221  0.63964493  1
  O  O15  1  0.91221696  0.54107254  0.14671958  1
  O  O16  1  0.60663907  0.08582234  0.14174283  1
  O  O17  1  0.45482692  0.37153932  0.14812492  1
  O  O18  1  0.47375667  0.30241946  0.03167713  1
  O  O19  1  0.83769125  0.52501509  0.02887415  1
  O  O20  1  0.69131256  0.16091181  0.02762157  1
  O  O21  1  0.47194177  0.16653692  0.52824842  1
  O  O22  1  0.68902200  0.52961670  0.52523738  1
  O  O23  1  0.83312606  0.30882185  0.52985442  1
  O  O24  1  0.49517096  0.64892392  0.97117281  1
  O  O25  1  0.14756037  0.50981334  0.97118184  1
  O  O26  1  0.35486629  0.85688260  0.97558498  1
  O  O27  1  0.50085205  0.85327163  0.47372983  1
  O  O28  1  0.36053603  0.50288539  0.47353093  1
  O  O29  1  0.15006768  0.64134722  0.47001572  1
  O  O30  1  0.13360341  0.63316747  0.35473608  1
  O  O31  1  0.49689854  0.85983943  0.35732471  1
  O  O32  1  0.36339456  0.50065847  0.35628702  1
  O  O33  1  0.13232624  0.50047453  0.85516492  1
  O  O34  1  0.36287711  0.86035720  0.85794783  1
  O  O35  1  0.49832562  0.63269365  0.85616398  1
  O  O36  1  0.01452460  0.80950153  0.42055402  1
  O  O37  1  0.79642877  0.98190825  0.42094572  1
  O  O38  1  0.18412263  0.20578485  0.42199938  1
  O  O39  1  0.01952565  0.20727038  0.92178842  1
  O  O40  1  0.18307292  0.97805905  0.92271325  1
  O  O41  1  0.79663753  0.81035778  0.92124526  1
  O  O42  1  0.96910213  0.15070232  0.58787013  1
  O  O43  1  0.18693067  0.03657423  0.59042653  1
  O  O44  1  0.84535048  0.81835286  0.59102618  1
  O  O45  1  0.97625140  0.82050986  0.09089406  1
  O  O46  1  0.84430411  0.02742213  0.09447655  1
  O  O47  1  0.18219400  0.15124397  0.09032875  1
  O  O48  1  0.67180065  0.15402524  0.74862040  1
  O  O49  1  0.48452704  0.33876750  0.74547056  1
  O  O50  1  0.86233584  0.53791569  0.74351080  1
  O  O51  1  0.67816048  0.53522143  0.24755215  1
  O  O52  1  0.86334988  0.33024453  0.24492674  1
  O  O53  1  0.48545969  0.15270164  0.24855136  1
  O  O54  1  0.61929886  0.47302867  0.92313349  1
  O  O55  1  0.84961696  0.37507716  0.92111548  1
  O  O56  1  0.52160322  0.14753630  0.92141356  1
  O  O57  1  0.62301898  0.14617831  0.42123701  1
  O  O58  1  0.52227783  0.37248078  0.41969057  1
  O  O59  1  0.85161110  0.47219987  0.42059941  1
  O  O60  1  0.31812749  0.48066816  0.07049850  1
  O  O61  1  0.16677277  0.68771900  0.07304590  1
  O  O62  1  0.51584276  0.83674906  0.07144994  1
  O  O63  1  0.31787020  0.83608563  0.56941913  1
  O  O64  1  0.52144476  0.68808686  0.57104899  1
  O  O65  1  0.16776700  0.47726819  0.57164818  1
  O  O66  1  0.30072294  0.81120734  0.25153889  1
  O  O67  1  0.52213755  0.70080174  0.24974818  1
  O  O68  1  0.18401931  0.47330039  0.25047993  1
  O  O69  1  0.28798345  0.48267715  0.75168812  1
  O  O70  1  0.18321746  0.71405939  0.74952693  1
  O  O71  1  0.51105292  0.81144469  0.75067793  1
loop_
_geom_bond_atom_site_label_1
_geom_bond_atom_site_label_2
_geom_bond_distance
_geom_bond_site_symmetry_2
Na0 O16 2.246765 1_555
Na0 O53 2.378750 1_555
Na0 O67 2.562782 1_545
Na0 O52 2.595674 1_555
Na0 O66 2.774963 1_545
Na0 O9 2.884784 1_545
Na1 O17 2.205865 1_555
Na1 O51 2.478451 1_555
Na1 O53 2.514527 1_555
Na1 O68 2.514707 1_555
Na1 O67 2.836497 1_555
Na1 O10 2.909794 1_555
Na1 O32 2.944585 1_555
Na2 O15 2.194452 1_555
Na2 O52 2.468160 1_555
Na2 O66 2.495575 1_655
Na2 O51 2.559674 1_555
Na2 O68 2.863664 1_655
Na2 O11 2.882702 1_655
Na2 O30 2.932822 1_655
Na3 O49 2.333583 1_555
Na3 O14 2.351894 1_555
Na3 O71 2.533949 1_555
Na3 O50 2.563806 1_555
Na3 O69 2.858838 1_555
Na3 O6 2.950461 1_555
Na3 O35 2.987011 1_555
Na4 O12 2.263127 1_555
Na4 O50 2.454401 1_555
Na4 O48 2.481730 1_555
Na4 O69 2.485521 1_655
Na5 O48 2.360524 1_555
Na5 O13 2.371904 1_555
Na5 O70 2.533953 1_545
Na5 O49 2.535103 1_555
Na5 O71 2.824734 1_545
Na6 O65 2.398251 1_555
Na6 O43 2.451515 1_555
Na6 O14 2.483518 1_555
Na6 O7 2.715505 1_555
Na6 O64 2.811363 1_555
Na6 O42 2.863442 1_455
Na6 O21 2.939484 1_555
Na6 O28 2.981120 1_555
Na7 O64 2.389166 1_555
Na7 O42 2.490107 1_565
Na7 O13 2.552466 1_565
Na7 O6 2.691170 1_555
Na7 O63 2.767670 1_555
Na7 O44 2.800587 1_555
Na7 O27 2.956605 1_555
Na7 O23 2.971815 1_565
Na8 O61 2.386044 1_555
Na8 O47 2.517944 1_565
Na8 O16 2.564780 1_565
Na8 O62 2.693007 1_555
Na8 O26 2.792070 1_554
Na8 O45 2.819942 1_455
Na8 O18 2.830882 1_565
Na8 O11 2.863434 1_555
Na9 O4 2.381351 1_555
Na9 O41 2.407084 1_555
Na9 O40 2.444547 1_655
Na9 O55 2.495402 1_555
Na9 O54 2.819742 1_555
Na10 O5 2.263654 1_555
Na10 O39 2.461004 1_655
Na10 O56 2.497619 1_555
Na10 O41 2.543062 1_545
Na10 O55 2.768195 1_555
Na10 O20 2.969534 1_556
Na10 O34 3.021277 1_545
Na11 O3 2.269862 1_555
Na11 O40 2.440498 1_545
Na11 O54 2.461681 1_555
Na11 O39 2.493296 1_555
Na11 O56 2.726429 1_555
Na12 O2 2.329689 1_555
Na12 O37 2.411994 1_545
Na12 O38 2.449937 1_655
Na12 O59 2.470078 1_555
Na12 O57 2.763436 1_555
Na13 O0 2.248410 1_555
Na13 O38 2.456288 1_555
Na13 O57 2.474272 1_555
Na13 O36 2.540159 1_545
Na13 O58 2.719924 1_555
Na14 O1 2.323452 1_555
Na14 O36 2.425298 1_655
Na14 O37 2.485804 1_555
Na14 O58 2.505833 1_555
Na14 O59 2.814156 1_555
Na14 O22 2.871131 1_555
Na15 O36 2.453273 1_555
Na15 O38 2.533419 1_565
Na15 O37 2.550963 1_455
Na15 O43 2.555275 1_565
Na15 O44 2.567400 1_455
Na15 O42 2.598647 1_465
Na16 O39 2.443189 1_655
Na16 O41 2.456207 1_545
Na16 O40 2.532848 1_645
Na16 O46 2.631005 1_556
Na16 O47 2.631679 1_656
Na16 O45 2.657694 1_546
Na17 O48 2.384866 1_555
Na17 O49 2.420186 1_555
Na17 O56 2.614229 1_555
Na17 O50 2.670544 1_555
Na17 O55 2.683476 1_555
Na17 O54 2.691528 1_555
Na18 O53 2.327867 1_555
Na18 O51 2.540400 1_555
Na18 O52 2.573671 1_555
Na18 O58 2.627867 1_555
Na18 O57 2.641194 1_555
Na18 O59 2.681245 1_555
Na19 O60 2.459124 1_555
Na19 O68 2.511995 1_555
Na19 O67 2.524540 1_555
Na19 O62 2.640142 1_555
Na19 O61 2.642770 1_555
Na19 O66 2.682941 1_555
Na20 O70 2.351301 1_555
Na20 O69 2.512148 1_555
Na20 O71 2.530758 1_555
Na20 O65 2.621785 1_555
Na20 O63 2.641619 1_555
Na20 O64 2.838770 1_555
Ca0 O0 2.164205 1_555
Ca0 O1 2.234110 1_445
Ca0 O2 2.241262 1_455
Ca0 O38 2.354675 1_555
Ca0 O37 2.356001 1_445
Ca0 O36 2.365874 1_545
Ca1 O5 2.165608 1_455
Ca1 O3 2.175890 1_555
Ca1 O4 2.240130 1_445
Ca1 O40 2.349838 1_545
Ca1 O39 2.357368 1_555
Ca1 O41 2.360358 1_445
Ca2 O12 2.235721 1_555
Ca2 O14 2.250935 1_555
Ca2 O13 2.262868 1_555
Ca2 O49 2.305250 1_555
Ca2 O48 2.307549 1_555
Ca2 O50 2.346494 1_555
Ca3 O15 2.197135 1_555
Ca3 O17 2.218018 1_555
Ca3 O16 2.228477 1_555
Ca3 O53 2.353303 1_555
Ca3 O51 2.403315 1_555
Ca3 O52 2.408908 1_555
O0 Si0 1.592604 1_545
O1 P0 1.516733 1_555
O2 P1 1.518693 1_655
O3 Si1 1.587129 1_555
O4 P2 1.505975 1_655
O5 Si2 1.583075 1_545
O6 Si2 1.727785 1_555
O6 Ta0 1.961864 1_565
O7 Si1 1.721948 1_555
O7 Ta0 1.958914 1_455
O8 P2 1.603027 1_555
O8 Ta0 2.031305 1_465
O9 P0 1.579459 1_555
O9 Ta1 2.112793 1_655
O10 P1 1.576818 1_555
O10 Ta1 2.111734 1_545
O11 Si0 1.699195 1_555
O11 Ta1 1.996995 1_555
O12 Si3 1.576220 1_555
O13 Si4 1.593232 1_555
O14 Si5 1.588637 1_555
O15 Si6 1.580097 1_555
O16 Si7 1.595035 1_555
O17 Si8 1.585027 1_555
O18 Si8 1.695331 1_555
O18 Ta2 1.997448 1_554
O19 Si6 1.686428 1_555
O19 Ta2 1.969320 1_554
O20 Si7 1.694108 1_555
O20 Ta2 1.970326 1_554
O21 Si4 1.711015 1_555
O21 Ta3 1.982615 1_555
O22 Si5 1.697726 1_555
O22 Ta3 1.966308 1_555
O23 Si3 1.702228 1_555
O23 Ta3 1.986391 1_555
O24 Si9 1.617822 1_555
O24 Ta4 1.919779 1_556
O25 Si10 1.624504 1_555
O25 Ta4 1.925853 1_556
O26 Si11 1.622067 1_555
O26 Ta4 1.961485 1_556
O27 Si12 1.622825 1_555
O27 Ta5 1.946248 1_555
O28 Si13 1.630691 1_555
O28 Ta5 1.950791 1_555
O29 Si14 1.626433 1_555
O29 Ta5 1.917924 1_555
O30 Si14 1.696851 1_555
O30 Ta6 1.945197 1_555
O31 Si12 1.696325 1_555
O31 Ta6 1.938389 1_555
O32 Si13 1.687389 1_555
O32 Ta6 1.985892 1_555
O33 Si10 1.695090 1_555
O33 Ta7 1.979522 1_555
O34 Si11 1.697257 1_555
O34 Ta7 1.970782 1_555
O35 Si9 1.708941 1_555
O35 Ta7 1.927034 1_555
O36 Si14 1.598184 1_555
O37 Si12 1.599630 1_555
O38 Si13 1.604146 1_555
O39 Si10 1.600959 1_555
O40 Si11 1.602502 1_555
O41 Si9 1.595667 1_555
O42 Si3 1.675999 1_555
O42 Ta0 2.039062 1_555
O43 Si4 1.646493 1_555
O43 Ta0 2.067848 1_455
O44 Si5 1.646244 1_555
O44 Ta0 2.032130 1_565
O45 Si6 1.686671 1_555
O45 Ta1 1.948186 1_655
O46 Si7 1.652227 1_555
O46 Ta1 1.970001 1_645
O47 Si8 1.685182 1_555
O47 Ta1 1.971339 1_545
O48 Si2 1.608675 1_545
O49 Si1 1.607879 1_555
O50 P2 1.520920 1_655
O51 P0 1.527552 1_555
O52 P1 1.526873 1_655
O53 Si0 1.610813 1_545
O54 Si9 1.654271 1_555
O54 Ta2 2.069830 1_555
O55 Si10 1.662743 1_655
O55 Ta2 2.054914 1_555
O56 Si11 1.660106 1_545
O56 Ta2 2.077469 1_555
O57 Si12 1.655067 1_545
O57 Ta3 2.076637 1_555
O58 Si13 1.662321 1_555
O58 Ta3 2.066049 1_555
O59 Si14 1.656021 1_655
O59 Ta3 2.060682 1_555
O60 Si8 1.633313 1_555
O60 Ta4 1.984480 1_555
O61 Si6 1.651646 1_455
O61 Ta4 2.031342 1_555
O62 Si7 1.646922 1_565
O62 Ta4 2.000012 1_555
O63 Si4 1.648106 1_565
O63 Ta5 1.982013 1_555
O64 Si5 1.668834 1_555
O64 Ta5 2.020516 1_555
O65 Si3 1.656602 1_455
O65 Ta5 2.014745 1_555
O66 Si0 1.705311 1_555
O66 Ta6 2.003483 1_555
O67 P0 1.598500 1_555
O67 Ta6 2.140562 1_555
O68 P1 1.599323 1_555
O68 Ta6 2.131799 1_555
O69 Si1 1.687322 1_555
O69 Ta7 2.038414 1_555
O70 P2 1.583173 1_555
O70 Ta7 2.195657 1_555
O71 Si2 1.687777 1_555
O71 Ta7 2.041208 1_555
