# generated using pymatgen
data_UCrS3
_symmetry_space_group_name_H-M   'P 1'
_cell_length_a   6.20004260
_cell_length_b   7.12260260
_cell_length_c   8.92544017
_cell_angle_alpha   90.00000000
_cell_angle_beta   90.00000000
_cell_angle_gamma   90.00000000
_symmetry_Int_Tables_number   1
_chemical_formula_structural   UCrS3
_chemical_formula_sum   'U4 Cr4 S12'
_cell_volume   394.15136102
_cell_formula_units_Z   4
loop_
 _symmetry_equiv_pos_site_id
 _symmetry_equiv_pos_as_xyz
  1  'x, y, z'
loop_
 _atom_site_type_symbol
 _atom_site_label
 _atom_site_symmetry_multiplicity
 _atom_site_fract_x
 _atom_site_fract_y
 _atom_site_fract_z
 _atom_site_occupancy
  U  U0  1  0.95105167  0.38930925  0.25000000  1
  U  U1  1  0.45105167  0.11069075  0.75000000  1
  U  U2  1  0.54894833  0.88930925  0.25000000  1
  U  U3  1  0.04894833  0.61069075  0.75000000  1
  Cr  Cr0  1  0.00000000  -0.00000000  0.00000000  1
  Cr  Cr1  1  0.00000000  -0.00000000  0.50000000  1
  Cr  Cr2  1  0.50000000  0.50000000  0.50000000  1
  Cr  Cr3  1  0.50000000  0.50000000  0.00000000  1
  S  S0  1  0.33142970  0.81822445  0.94291776  1
  S  S1  1  0.16857030  0.31822445  0.94291776  1
  S  S2  1  0.66857030  0.18177555  0.05708224  1
  S  S3  1  0.33142970  0.81822445  0.55708224  1
  S  S4  1  0.13610929  0.04213684  0.25000000  1
  S  S5  1  0.63610929  0.45786316  0.75000000  1
  S  S6  1  0.36389071  0.54213684  0.25000000  1
  S  S7  1  0.86389071  0.95786316  0.75000000  1
  S  S8  1  0.16857030  0.31822445  0.55708224  1
  S  S9  1  0.66857030  0.18177555  0.44291776  1
  S  S10  1  0.83142970  0.68177555  0.05708224  1
  S  S11  1  0.83142970  0.68177555  0.44291776  1
loop_
_geom_bond_atom_site_label_1
_geom_bond_atom_site_label_2
_geom_bond_distance
_geom_bond_site_symmetry_2
Cr0 S4 2.404409 1_555
Cr0 S7 2.404409 1_444
Cr0 S0 2.481609 1_544
Cr0 S2 2.481609 1_455
Cr0 S1 2.547413 1_554
Cr0 S10 2.547413 1_445
Cr1 S4 2.404409 1_555
Cr1 S7 2.404409 1_445
Cr1 S3 2.481609 1_545
Cr1 S9 2.481609 1_455
Cr1 S8 2.547413 1_555
Cr1 S11 2.547413 1_445
Cr2 S6 2.404409 1_555
Cr2 S5 2.404409 1_555
Cr2 S8 2.481609 1_555
Cr2 S11 2.481609 1_555
Cr2 S9 2.547413 1_555
Cr2 S3 2.547413 1_555
Cr3 S6 2.404409 1_555
Cr3 S5 2.404409 1_554
Cr3 S1 2.481609 1_554
Cr3 S10 2.481609 1_555
Cr3 S2 2.547413 1_555
Cr3 S0 2.547413 1_554
S0 U1 2.802555 1_565
S0 U3 2.866577 1_555
S0 U2 3.096347 1_556
S1 U3 2.802555 1_555
S1 U1 2.866577 1_555
S1 U0 3.096347 1_456
S2 U2 2.802555 1_545
S2 U0 2.866577 1_555
S2 U1 3.096347 1_554
S3 U1 2.802555 1_565
S3 U3 2.866577 1_555
S3 U2 3.096347 1_555
S4 U0 2.725994 1_455
S4 U2 2.781466 1_545
S5 U1 2.725994 1_555
S5 U3 2.781466 1_655
S6 U2 2.725994 1_555
S6 U0 2.781466 1_455
S7 U3 2.725994 1_655
S7 U1 2.781466 1_565
S8 U3 2.802555 1_555
S8 U1 2.866577 1_555
S8 U0 3.096347 1_455
S9 U2 2.802555 1_545
S9 U0 2.866577 1_555
S9 U1 3.096347 1_555
S10 U0 2.802555 1_555
S10 U2 2.866577 1_555
S10 U3 3.096347 1_654
S11 U0 2.802555 1_555
S11 U2 2.866577 1_555
S11 U3 3.096347 1_655
