# generated using pymatgen
data_Na6Mg2Zr2Si3(SO8)3
_symmetry_space_group_name_H-M   'P 1'
_cell_length_a   9.12046789
_cell_length_b   9.11447811
_cell_length_c   22.73111765
_cell_angle_alpha   89.92009968
_cell_angle_beta   90.66460140
_cell_angle_gamma   119.52297483
_symmetry_Int_Tables_number   1
_chemical_formula_structural   Na6Mg2Zr2Si3(SO8)3
_chemical_formula_sum   'Na18 Mg6 Zr6 Si9 S9 O72'
_cell_volume   1644.11936225
_cell_formula_units_Z   3
loop_
 _symmetry_equiv_pos_site_id
 _symmetry_equiv_pos_as_xyz
  1  'x, y, z'
loop_
 _atom_site_type_symbol
 _atom_site_label
 _atom_site_symmetry_multiplicity
 _atom_site_fract_x
 _atom_site_fract_y
 _atom_site_fract_z
 _atom_site_occupancy
  Na  Na0  1  0.37272113  0.35144944  0.24561032  1
  Na  Na1  1  0.99933918  0.63891663  0.23782538  1
  Na  Na2  1  0.98805769  0.34837681  0.74307352  1
  Na  Na3  1  0.38623829  0.02725268  0.74623464  1
  Na  Na4  1  0.29560999  0.33327323  0.58240642  1
  Na  Na5  1  0.65837867  0.98085939  0.59255968  1
  Na  Na6  1  0.29935583  0.95672353  0.07277221  1
  Na  Na7  1  0.65868328  0.68053495  0.08059869  1
  Na  Na8  1  0.98706432  0.68501116  0.91778557  1
  Na  Na9  1  0.31905414  0.27934004  0.90719784  1
  Na  Na10  1  0.98712098  0.30280685  0.42740996  1
  Na  Na11  1  0.32320175  0.04210698  0.41558482  1
  Na  Na12  1  0.01109976  0.00309705  0.50446058  1
  Na  Na13  1  0.00834221  0.00797994  0.99221736  1
  Na  Na14  1  0.65034576  0.31256256  0.82222803  1
  Na  Na15  1  0.64468022  0.32278076  0.33001989  1
  Na  Na16  1  0.31918924  0.65682182  0.15475657  1
  Na  Na17  1  0.32434725  0.66492937  0.65990940  1
  Mg  Mg0  1  0.01783018  0.01127952  0.35033222  1
  Mg  Mg1  1  0.01345250  0.01102442  0.84533075  1
  Mg  Mg2  1  0.65981313  0.31575216  0.68472579  1
  Mg  Mg3  1  0.65749228  0.32774282  0.17987772  1
  Mg  Mg4  1  0.30750825  0.65674968  0.01962790  1
  Mg  Mg5  1  0.31231801  0.64955393  0.52308476  1
  Zr  Zr0  1  0.00464240  0.01501341  0.64947516  1
  Zr  Zr1  1  0.01735156  0.00156301  0.14430853  1
  Zr  Zr2  1  0.65623505  0.32555809  0.98327252  1
  Zr  Zr3  1  0.65293764  0.33075317  0.48748318  1
  Zr  Zr4  1  0.34160292  0.66976185  0.31588674  1
  Zr  Zr5  1  0.35300646  0.68420280  0.81047633  1
  Si  Si0  1  0.30666493  0.00522534  0.25323416  1
  Si  Si1  1  0.30584596  0.30095850  0.75372271  1
  Si  Si2  1  0.71476192  0.00545211  0.75150130  1
  Si  Si3  1  0.96080225  0.33871337  0.58569528  1
  Si  Si4  1  0.36454432  0.02408461  0.58496606  1
  Si  Si5  1  0.95933856  0.61781226  0.08781172  1
  Si  Si6  1  0.37373196  0.34593802  0.08579687  1
  Si  Si7  1  0.32745154  0.95922110  0.91958170  1
  Si  Si8  1  0.33265581  0.36993189  0.41813125  1
  S  S0  1  0.71155455  0.71318259  0.25191124  1
  S  S1  1  0.99391678  0.28970639  0.25273028  1
  S  S2  1  0.99478319  0.70527980  0.75268896  1
  S  S3  1  0.66767861  0.62773755  0.58520933  1
  S  S4  1  0.66724222  0.04047467  0.08551414  1
  S  S5  1  0.62925416  0.67061594  0.91972184  1
  S  S6  1  0.04056669  0.37372464  0.91729058  1
  S  S7  1  0.63235664  0.95942972  0.41774496  1
  S  S8  1  0.04016526  0.66802279  0.41544438  1
  O  O0  1  0.21262240  0.02681901  0.30950536  1
  O  O1  1  0.81509815  0.80424253  0.30310616  1
  O  O2  1  0.97680150  0.19345395  0.30645950  1
  O  O3  1  0.22418852  0.18533859  0.81112779  1
  O  O4  1  0.97909644  0.78304051  0.80728530  1
  O  O5  1  0.83068460  0.02132792  0.80680591  1
  O  O6  1  0.78988880  0.97057453  0.68978015  1
  O  O7  1  0.17747975  0.21046840  0.69467317  1
  O  O8  1  0.02611219  0.81678121  0.70108515  1
  O  O9  1  0.78177471  0.80960424  0.19663268  1
  O  O10  1  0.02005291  0.20737390  0.20074920  1
  O  O11  1  0.17785324  0.96941314  0.19445783  1
  O  O12  1  0.86744817  0.35679442  0.64193754  1
  O  O13  1  0.48187014  0.11740687  0.64091777  1
  O  O14  1  0.64427609  0.52104308  0.63575766  1
  O  O15  1  0.87069854  0.51519398  0.14660244  1
  O  O16  1  0.64223932  0.12213331  0.13683245  1
  O  O17  1  0.48103416  0.36762335  0.14520238  1
  O  O18  1  0.45952997  0.29884666  0.02888808  1
  O  O19  1  0.83986713  0.53149179  0.02800894  1
  O  O20  1  0.69533987  0.14457700  0.03158674  1
  O  O21  1  0.45067119  0.15477803  0.52501185  1
  O  O22  1  0.69102668  0.54697854  0.53001032  1
  O  O23  1  0.84625794  0.31057873  0.52274606  1
  O  O24  1  0.55012319  0.68760123  0.97302909  1
  O  O25  1  0.14992795  0.45640668  0.96898467  1
  O  O26  1  0.30812359  0.84787945  0.97735230  1
  O  O27  1  0.55488580  0.86340997  0.47024659  1
  O  O28  1  0.30936270  0.46825296  0.47255580  1
  O  O29  1  0.15069310  0.69720483  0.46638230  1
  O  O30  1  0.12289116  0.64353941  0.36102093  1
  O  O31  1  0.51810495  0.87643860  0.36466137  1
  O  O32  1  0.35355577  0.48279720  0.35673795  1
  O  O33  1  0.11541844  0.47668992  0.86347880  1
  O  O34  1  0.34883160  0.86493168  0.86070421  1
  O  O35  1  0.51800088  0.63907783  0.86717057  1
  O  O36  1  0.01739977  0.81644167  0.40748018  1
  O  O37  1  0.80200069  0.98206910  0.40760815  1
  O  O38  1  0.16217246  0.18232292  0.41293139  1
  O  O39  1  0.02079987  0.20325186  0.91273515  1
  O  O40  1  0.15791076  0.97990373  0.91420508  1
  O  O41  1  0.79998642  0.81282431  0.91257560  1
  O  O42  1  0.96467184  0.15426378  0.58515687  1
  O  O43  1  0.17876974  0.01493148  0.58707270  1
  O  O44  1  0.82020336  0.79715005  0.58770805  1
  O  O45  1  0.96130740  0.80790211  0.08931050  1
  O  O46  1  0.81880645  0.01941543  0.09183930  1
  O  O47  1  0.18591131  0.16833995  0.08876010  1
  O  O48  1  0.69300174  0.17171852  0.74753165  1
  O  O49  1  0.48876485  0.32200286  0.74296574  1
  O  O50  1  0.85096480  0.53605908  0.74505427  1
  O  O51  1  0.69640490  0.54307844  0.24914993  1
  O  O52  1  0.85195750  0.32163380  0.24646261  1
  O  O53  1  0.48827009  0.17292228  0.24497065  1
  O  O54  1  0.64351531  0.50943320  0.92242960  1
  O  O55  1  0.87225085  0.36479489  0.92388401  1
  O  O56  1  0.49751639  0.15344360  0.92159377  1
  O  O57  1  0.64601213  0.13290024  0.41891066  1
  O  O58  1  0.50214987  0.34377078  0.41788959  1
  O  O59  1  0.87522389  0.50897767  0.41898404  1
  O  O60  1  0.36700577  0.51666328  0.07414305  1
  O  O61  1  0.15386650  0.66619926  0.08217004  1
  O  O62  1  0.51904780  0.87113975  0.07807132  1
  O  O63  1  0.36704802  0.85145799  0.57185536  1
  O  O64  1  0.51738906  0.64758068  0.57641233  1
  O  O65  1  0.15596733  0.48696771  0.58064010  1
  O  O66  1  0.30601793  0.82062473  0.25623660  1
  O  O67  1  0.53387690  0.68622213  0.25584092  1
  O  O68  1  0.15537965  0.46296238  0.25621975  1
  O  O69  1  0.29588369  0.47841442  0.75879008  1
  O  O70  1  0.15339684  0.68808654  0.75649009  1
  O  O71  1  0.51638117  0.83942656  0.75319647  1
loop_
_geom_bond_atom_site_label_1
_geom_bond_atom_site_label_2
_geom_bond_distance
_geom_bond_site_symmetry_2
Na0 O53 2.334312 1_555
Na0 O17 2.472799 1_555
Na0 O51 2.585624 1_555
Na0 O68 2.649134 1_555
Na0 O67 2.664357 1_555
Na0 O32 2.840709 1_555
Na0 O0 2.962356 1_555
Na0 O10 2.979102 1_555
Na1 O15 2.365196 1_555
Na1 O51 2.469867 1_555
Na1 O66 2.480101 1_655
Na1 O52 2.526222 1_555
Na1 O68 2.646861 1_655
Na1 O11 2.809268 1_655
Na1 O30 2.998998 1_655
Na2 O48 2.362225 1_555
Na2 O69 2.472451 1_655
Na2 O12 2.554415 1_555
Na2 O50 2.569267 1_555
Na2 O70 2.710033 1_655
Na2 O7 2.821907 1_655
Na2 O33 2.967194 1_655
Na2 O5 2.977258 1_555
Na3 O49 2.371164 1_555
Na3 O48 2.435147 1_555
Na3 O71 2.522336 1_545
Na3 O13 2.550227 1_555
Na3 O70 2.767663 1_545
Na3 O34 2.930555 1_545
Na3 O3 2.931158 1_555
Na3 O8 3.039560 1_545
Na4 O65 2.311503 1_555
Na4 O43 2.553456 1_555
Na4 O64 2.571232 1_555
Na4 O42 2.631886 1_455
Na4 O28 2.758814 1_555
Na4 O7 2.791664 1_555
Na4 O21 2.943667 1_555
Na4 O14 3.010772 1_555
Na5 O63 2.357242 1_555
Na5 O42 2.447231 1_565
Na5 O6 2.525859 1_555
Na5 O64 2.675472 1_555
Na5 O13 2.714457 1_565
Na5 O44 2.726541 1_555
Na5 O27 2.952733 1_555
Na6 O61 2.315225 1_555
Na6 O26 2.404859 1_554
Na6 O62 2.484413 1_555
Na6 O47 2.626832 1_565
Na6 O45 2.718627 1_455
Na6 O18 2.896280 1_565
Na7 O60 2.324842 1_555
Na7 O45 2.415580 1_555
Na7 O62 2.611859 1_555
Na7 O24 2.640004 1_554
Na7 O46 2.699300 1_565
Na7 O9 2.870447 1_555
Na7 O19 2.875386 1_555
Na7 O17 2.899157 1_555
Na8 O40 2.352358 1_655
Na8 O41 2.497251 1_555
Na8 O55 2.573750 1_555
Na8 O4 2.676978 1_555
Na8 O54 2.730433 1_555
Na8 O26 2.870724 1_655
Na8 O19 2.873093 1_556
Na8 O33 2.954691 1_655
Na9 O3 2.341445 1_555
Na9 O40 2.384332 1_545
Na9 O56 2.429069 1_555
Na9 O39 2.458631 1_555
Na9 O54 2.671524 1_555
Na10 O38 2.367346 1_655
Na10 O59 2.548310 1_555
Na10 O23 2.550800 1_555
Na10 O37 2.592470 1_545
Na10 O57 2.711639 1_555
Na10 O28 2.744317 1_655
Na10 O2 2.910380 1_555
Na11 O38 2.375168 1_555
Na11 O58 2.408754 1_555
Na11 O36 2.525621 1_545
Na11 O0 2.580111 1_555
Na11 O57 2.636770 1_555
Na11 O21 2.712332 1_555
Na12 O43 2.376539 1_555
Na12 O42 2.458136 1_455
Na12 O38 2.595085 1_555
Na12 O44 2.642206 1_445
Na12 O36 2.804826 1_545
Na12 O37 2.839741 1_445
Na13 O40 2.339313 1_545
Na13 O39 2.498266 1_555
Na13 O41 2.578820 1_445
Na13 O47 2.677436 1_556
Na13 O45 2.760493 1_446
Na13 O46 2.897619 1_456
Na14 O48 2.279445 1_555
Na14 O49 2.342715 1_555
Na14 O50 2.639320 1_555
Na14 O56 2.686917 1_555
Na14 O54 2.921712 1_555
Na14 O55 2.933821 1_555
Na15 O53 2.379331 1_555
Na15 O58 2.454051 1_555
Na15 O51 2.590310 1_555
Na15 O57 2.662425 1_555
Na15 O52 2.698950 1_555
Na15 O59 2.790148 1_555
Na16 O61 2.252142 1_555
Na16 O60 2.398766 1_555
Na16 O62 2.594598 1_555
Na16 O66 2.785197 1_555
Na16 O68 2.853136 1_555
Na16 O67 2.926723 1_555
Na17 O65 2.392727 1_555
Na17 O63 2.530686 1_555
Na17 O64 2.660807 1_555
Na17 O71 2.696593 1_555
Na17 O69 2.752690 1_555
Na17 O70 2.774930 1_555
Mg0 O0 1.956401 1_555
Mg0 O38 2.031828 1_555
Mg0 O2 2.119120 1_455
Mg0 O1 2.157090 1_445
Mg0 O36 2.197260 1_545
Mg0 O37 2.276573 1_445
Mg1 O5 1.916906 1_455
Mg1 O3 1.960745 1_555
Mg1 O4 2.126266 1_445
Mg1 O40 2.141642 1_545
Mg1 O39 2.304591 1_555
Mg1 O41 2.446515 1_445
Mg2 O13 1.992409 1_555
Mg2 O12 2.003919 1_555
Mg2 O48 2.056600 1_555
Mg2 O49 2.079733 1_555
Mg2 O14 2.238751 1_555
Mg2 O50 2.335399 1_555
Mg3 O17 1.972262 1_555
Mg3 O15 2.007150 1_555
Mg3 O16 2.057604 1_555
Mg3 O53 2.112661 1_555
Mg3 O52 2.339755 1_555
Mg3 O51 2.401391 1_555
Mg4 O26 1.985963 1_554
Mg4 O25 2.026369 1_554
Mg4 O60 2.030552 1_555
Mg4 O61 2.039023 1_555
Mg4 O24 2.353232 1_554
Mg4 O62 2.353251 1_555
Mg5 O65 1.973916 1_555
Mg5 O63 1.988026 1_555
Mg5 O28 2.002817 1_555
Mg5 O29 2.146672 1_555
Mg5 O64 2.224505 1_555
Mg5 O27 2.437521 1_555
O0 Si0 1.613395 1_555
O1 S0 1.462753 1_555
O2 S1 1.467007 1_555
O3 Si1 1.616515 1_555
O4 S2 1.472912 1_555
O5 Si2 1.593124 1_555
O6 Si2 1.666475 1_565
O6 Zr0 2.024474 1_665
O7 Si1 1.693391 1_555
O7 Zr0 1.978379 1_555
O8 S2 1.486164 1_455
O8 Zr0 2.239762 1_565
O9 S0 1.490737 1_555
O9 Zr1 2.332548 1_665
O10 S1 1.483712 1_455
O10 Zr1 2.264038 1_555
O11 Si0 1.690757 1_565
O11 Zr1 1.977705 1_565
O12 Si3 1.597077 1_555
O13 Si4 1.600170 1_555
O14 S3 1.452412 1_555
O15 Si5 1.609551 1_555
O16 S4 1.463757 1_555
O17 Si6 1.612366 1_555
O18 Si6 1.681072 1_555
O18 Zr2 1.991229 1_554
O19 Si5 1.666720 1_555
O19 Zr2 2.056651 1_554
O20 S4 1.494333 1_555
O20 Zr2 2.149421 1_554
O21 Si4 1.729572 1_555
O21 Zr3 1.954495 1_555
O22 S3 1.524719 1_555
O22 Zr3 2.064446 1_555
O23 Si3 1.704983 1_555
O23 Zr3 2.017776 1_555
O24 S5 1.464260 1_555
O25 S6 1.475817 1_555
O26 Si7 1.615782 1_555
O27 S7 1.447976 1_555
O28 Si8 1.604842 1_555
O29 S8 1.461900 1_555
O30 S8 1.529005 1_555
O30 Zr4 2.160016 1_555
O31 S7 1.520052 1_555
O31 Zr4 2.084457 1_555
O32 Si8 1.688495 1_555
O32 Zr4 1.988568 1_555
O33 S6 1.492570 1_555
O33 Zr5 2.395698 1_555
O34 Si7 1.655957 1_555
O34 Zr5 2.021512 1_555
O35 S5 1.491489 1_555
O35 Zr5 2.158235 1_555
O36 S8 1.476857 1_555
O37 S7 1.477528 1_555
O38 Si8 1.652738 1_555
O39 S6 1.476947 1_555
O40 Si7 1.650552 1_555
O41 S5 1.465361 1_555
O42 Si3 1.698894 1_555
O42 Zr0 2.078396 1_655
O43 Si4 1.656092 1_555
O43 Zr0 2.141879 1_555
O44 S3 1.484621 1_555
O44 Zr0 2.324871 1_665
O45 Si5 1.724172 1_555
O45 Zr1 2.010464 1_665
O46 S4 1.491703 1_555
O46 Zr1 2.228857 1_655
O47 Si6 1.681892 1_555
O47 Zr1 2.001251 1_555
O48 Si2 1.624708 1_555
O49 Si1 1.604303 1_555
O50 S2 1.459840 1_555
O51 S0 1.488539 1_555
O52 S1 1.465690 1_555
O53 Si0 1.620581 1_555
O54 S5 1.538452 1_555
O54 Zr2 2.217291 1_555
O55 S6 1.505936 1_655
O55 Zr2 2.279872 1_555
O56 Si7 1.683496 1_545
O56 Zr2 2.059882 1_555
O57 S7 1.523824 1_545
O57 Zr3 2.361972 1_555
O58 Si8 1.676324 1_555
O58 Zr3 2.125502 1_555
O59 S8 1.491371 1_655
O59 Zr3 2.448236 1_555
O60 Si6 1.608679 1_555
O61 Si5 1.610173 1_455
O62 S4 1.475483 1_565
O63 Si4 1.613011 1_565
O64 S3 1.479665 1_555
O65 Si3 1.625220 1_455
O66 Si0 1.680932 1_565
O66 Zr4 2.063728 1_555
O67 S0 1.518301 1_555
O67 Zr4 2.180909 1_555
O68 S1 1.540895 1_455
O68 Zr4 2.252911 1_555
O69 Si1 1.668281 1_555
O69 Zr5 2.049083 1_555
O70 S2 1.531420 1_455
O70 Zr5 2.198431 1_555
O71 Si2 1.693553 1_565
O71 Zr5 1.969621 1_555
