# generated using pymatgen
data_Na9Ca2Nb4Si6(PO12)3
_symmetry_space_group_name_H-M   'P 1'
_cell_length_a   15.98903704
_cell_length_b   27.49135479
_cell_length_c   9.14337908
_cell_angle_alpha   90.25914812
_cell_angle_beta   125.24760426
_cell_angle_gamma   89.76813553
_symmetry_Int_Tables_number   1
_chemical_formula_structural   Na9Ca2Nb4Si6(PO12)3
_chemical_formula_sum   'Na36 Ca8 Nb16 Si24 P12 O144'
_cell_volume   3282.19494041
_cell_formula_units_Z   4
loop_
 _symmetry_equiv_pos_site_id
 _symmetry_equiv_pos_as_xyz
  1  'x, y, z'
loop_
 _atom_site_type_symbol
 _atom_site_label
 _atom_site_symmetry_multiplicity
 _atom_site_fract_x
 _atom_site_fract_y
 _atom_site_fract_z
 _atom_site_occupancy
  Na  Na0  1  0.25219121  0.24604183  0.01833589  1
  Na  Na1  1  0.24248290  0.59335979  0.00824289  1
  Na  Na2  1  0.25891932  0.91471500  0.01031364  1
  Na  Na3  1  0.74952028  0.25166351  0.50403423  1
  Na  Na4  1  0.74432867  0.58122527  0.50226124  1
  Na  Na5  1  0.74964431  0.91605128  0.51069272  1
  Na  Na6  1  0.74248290  0.09335979  0.00824289  1
  Na  Na7  1  0.75891932  0.41471500  0.01031364  1
  Na  Na8  1  0.75219121  0.74604183  0.01833589  1
  Na  Na9  1  0.24432867  0.08122527  0.50226124  1
  Na  Na10  1  0.24964431  0.41605128  0.51069272  1
  Na  Na11  1  0.24952028  0.75166351  0.50403423  1
  Na  Na12  1  0.48234524  0.02697118  0.71020088  1
  Na  Na13  1  0.49019183  0.36720732  0.74864755  1
  Na  Na14  1  0.48424682  0.69588531  0.72607597  1
  Na  Na15  1  0.49213697  0.29662142  0.25752507  1
  Na  Na16  1  0.49972122  0.62850347  0.26345297  1
  Na  Na17  1  0.50056829  0.95784907  0.27777770  1
  Na  Na18  1  0.98424682  0.19588531  0.72607597  1
  Na  Na19  1  0.98234524  0.52697118  0.71020088  1
  Na  Na20  1  0.99019183  0.86720732  0.74864755  1
  Na  Na21  1  0.99972122  0.12850347  0.26345297  1
  Na  Na22  1  0.00056829  0.45784907  0.27777770  1
  Na  Na23  1  0.99213697  0.79662142  0.25752507  1
  Na  Na24  1  0.81877736  0.98154372  0.20813673  1
  Na  Na25  1  0.20858797  0.30759933  0.30072391  1
  Na  Na26  1  0.19546118  0.97396049  0.27679598  1
  Na  Na27  1  0.19711057  0.35884361  0.78900636  1
  Na  Na28  1  0.82491836  0.02032957  0.72448863  1
  Na  Na29  1  0.81452683  0.69354250  0.68415362  1
  Na  Na30  1  0.31877736  0.48154372  0.20813673  1
  Na  Na31  1  0.69546118  0.47396049  0.27679598  1
  Na  Na32  1  0.70858797  0.80759933  0.30072391  1
  Na  Na33  1  0.69711057  0.85884361  0.78900636  1
  Na  Na34  1  0.31452683  0.19354250  0.68415362  1
  Na  Na35  1  0.32491836  0.52032957  0.72448863  1
  Ca  Ca0  1  0.89789959  0.91676348  0.94096801  1
  Ca  Ca1  1  0.89259915  0.08825630  0.43266992  1
  Ca  Ca2  1  0.89463557  0.41303185  0.44355223  1
  Ca  Ca3  1  0.90063223  0.74399183  0.43556304  1
  Ca  Ca4  1  0.39789959  0.41676348  0.94096801  1
  Ca  Ca5  1  0.40063223  0.24399183  0.43556304  1
  Ca  Ca6  1  0.39259915  0.58825630  0.43266992  1
  Ca  Ca7  1  0.39463557  0.91303185  0.44355223  1
  Nb  Nb0  1  0.10471488  0.24949963  0.57755525  1
  Nb  Nb1  1  0.10640221  0.58423911  0.56540691  1
  Nb  Nb2  1  0.10453714  0.91607744  0.56339407  1
  Nb  Nb3  1  0.89153814  0.25041250  0.93864964  1
  Nb  Nb4  1  0.89567639  0.58189312  0.94494827  1
  Nb  Nb5  1  0.10658689  0.08517050  0.05848636  1
  Nb  Nb6  1  0.10440003  0.41750987  0.05627279  1
  Nb  Nb7  1  0.10515193  0.74986821  0.05641558  1
  Nb  Nb8  1  0.60640221  0.08423911  0.56540691  1
  Nb  Nb9  1  0.60453714  0.41607744  0.56339407  1
  Nb  Nb10  1  0.60471488  0.74949963  0.57755525  1
  Nb  Nb11  1  0.39567639  0.08189312  0.94494827  1
  Nb  Nb12  1  0.39153814  0.75041250  0.93864964  1
  Nb  Nb13  1  0.60515193  0.24986821  0.05641558  1
  Nb  Nb14  1  0.60658689  0.58517050  0.05848636  1
  Nb  Nb15  1  0.60440003  0.91750987  0.05627279  1
  Si  Si0  1  0.99946878  0.31663477  0.75426004  1
  Si  Si1  1  0.49946878  0.81663477  0.75426004  1
  Si  Si2  1  0.34931605  0.29584789  0.75117878  1
  Si  Si3  1  0.35138461  0.63261904  0.76241636  1
  Si  Si4  1  0.34807235  0.96495924  0.74653031  1
  Si  Si5  1  0.64569826  0.30037102  0.73589284  1
  Si  Si6  1  0.64985287  0.63331340  0.74073948  1
  Si  Si7  1  0.64574397  0.97029418  0.73890991  1
  Si  Si8  1  0.64243961  0.03122440  0.24654300  1
  Si  Si9  1  0.63811085  0.69927699  0.24482543  1
  Si  Si10  1  0.35147299  0.03857180  0.25244635  1
  Si  Si11  1  0.34561607  0.37194680  0.24896036  1
  Si  Si12  1  0.35175245  0.70763473  0.25319125  1
  Si  Si13  1  0.85138461  0.13261904  0.76241636  1
  Si  Si14  1  0.84807235  0.46495924  0.74653031  1
  Si  Si15  1  0.84931605  0.79584789  0.75117878  1
  Si  Si16  1  0.14985287  0.13331340  0.74073948  1
  Si  Si17  1  0.14574397  0.47029418  0.73890991  1
  Si  Si18  1  0.14569826  0.80037102  0.73589284  1
  Si  Si19  1  0.13811085  0.19927699  0.24482543  1
  Si  Si20  1  0.14243961  0.53122440  0.24654300  1
  Si  Si21  1  0.85175245  0.20763473  0.25319125  1
  Si  Si22  1  0.85147299  0.53857180  0.25244635  1
  Si  Si23  1  0.84561607  0.87194680  0.24896036  1
  P  P0  1  0.00314118  0.64920666  0.75521454  1
  P  P1  1  0.00668553  0.98624704  0.74380530  1
  P  P2  1  0.00854494  0.01507353  0.24660728  1
  P  P3  1  0.00763604  0.34532833  0.25019369  1
  P  P4  1  0.00830523  0.67954202  0.24314075  1
  P  P5  1  0.50314118  0.14920666  0.75521454  1
  P  P6  1  0.50668553  0.48624704  0.74380530  1
  P  P7  1  0.50830523  0.17954202  0.24314075  1
  P  P8  1  0.50854494  0.51507353  0.24660728  1
  P  P9  1  0.50763604  0.84532833  0.25019369  1
  P  P10  1  0.63877233  0.36247577  0.24021813  1
  P  P11  1  0.13877233  0.86247577  0.24021813  1
  O  O0  1  0.14800432  0.19387767  0.75212616  1
  O  O1  1  0.14563320  0.53142324  0.74847823  1
  O  O2  1  0.14282725  0.86135708  0.74026229  1
  O  O3  1  0.83818829  0.19070342  0.79080610  1
  O  O4  1  0.84259420  0.52378982  0.79193521  1
  O  O5  1  0.83474401  0.85398717  0.74034918  1
  O  O6  1  0.84697476  0.14997309  0.22743778  1
  O  O7  1  0.83966679  0.48063053  0.22720464  1
  O  O8  1  0.83930354  0.81365759  0.25408237  1
  O  O9  1  0.14411541  0.13847718  0.23959987  1
  O  O10  1  0.13433741  0.47110484  0.24306374  1
  O  O11  1  0.15031029  0.80534354  0.25768800  1
  O  O12  1  0.64563320  0.03142324  0.74847823  1
  O  O13  1  0.64282725  0.36135708  0.74026229  1
  O  O14  1  0.64800432  0.69387767  0.75212616  1
  O  O15  1  0.34259420  0.02378982  0.79193521  1
  O  O16  1  0.33474401  0.35398717  0.74034918  1
  O  O17  1  0.33818829  0.69070342  0.79080610  1
  O  O18  1  0.33930354  0.31365759  0.25408237  1
  O  O19  1  0.34697476  0.64997309  0.22743778  1
  O  O20  1  0.33966679  0.98063053  0.22720464  1
  O  O21  1  0.65031029  0.30534354  0.25768800  1
  O  O22  1  0.64411541  0.63847718  0.23959987  1
  O  O23  1  0.63433741  0.97110484  0.24306374  1
  O  O24  1  0.42196917  0.17511353  0.58524517  1
  O  O25  1  0.43895496  0.51663664  0.57874700  1
  O  O26  1  0.42383728  0.84493837  0.57648408  1
  O  O27  1  0.56214061  0.18609492  0.91737064  1
  O  O28  1  0.56778354  0.52018207  0.91809734  1
  O  O29  1  0.57170427  0.85581430  0.93005213  1
  O  O30  1  0.56310740  0.14556377  0.41394553  1
  O  O31  1  0.56607719  0.47703250  0.40757737  1
  O  O32  1  0.56745852  0.81207273  0.42326694  1
  O  O33  1  0.45809302  0.14532291  0.07848870  1
  O  O34  1  0.44890401  0.48804429  0.07012155  1
  O  O35  1  0.46025797  0.81149383  0.08595500  1
  O  O36  1  0.93895496  0.01663664  0.57874700  1
  O  O37  1  0.92383728  0.34493837  0.57648408  1
  O  O38  1  0.92196917  0.67511353  0.58524517  1
  O  O39  1  0.06778354  0.02018207  0.91809734  1
  O  O40  1  0.07170427  0.35581430  0.93005213  1
  O  O41  1  0.06214061  0.68609492  0.91737064  1
  O  O42  1  0.06745852  0.31207273  0.42326694  1
  O  O43  1  0.06310740  0.64556377  0.41394553  1
  O  O44  1  0.06607719  0.97703250  0.40757737  1
  O  O45  1  0.96025797  0.31149383  0.08595500  1
  O  O46  1  0.95809302  0.64532291  0.07848870  1
  O  O47  1  0.94890401  0.98804429  0.07012155  1
  O  O48  1  0.25523298  0.26998635  0.75369058  1
  O  O49  1  0.25502129  0.60333225  0.74242628  1
  O  O50  1  0.25202219  0.93611676  0.72630319  1
  O  O51  1  0.75637260  0.28351347  0.77875400  1
  O  O52  1  0.76100937  0.61916796  0.77511692  1
  O  O53  1  0.74317702  0.95247103  0.74479481  1
  O  O54  1  0.73329552  0.04848704  0.23448981  1
  O  O55  1  0.72550146  0.38912785  0.25153555  1
  O  O56  1  0.72210363  0.72580037  0.23296451  1
  O  O57  1  0.25235947  0.06220200  0.24013648  1
  O  O58  1  0.25394268  0.39953275  0.25709692  1
  O  O59  1  0.25056668  0.73119164  0.23434489  1
  O  O60  1  0.75502129  0.10333225  0.74242628  1
  O  O61  1  0.75202219  0.43611676  0.72630319  1
  O  O62  1  0.75523298  0.76998635  0.75369058  1
  O  O63  1  0.26100937  0.11916796  0.77511692  1
  O  O64  1  0.24317702  0.45247103  0.74479481  1
  O  O65  1  0.25637260  0.78351347  0.77875400  1
  O  O66  1  0.22210363  0.22580037  0.23296451  1
  O  O67  1  0.23329552  0.54848704  0.23448981  1
  O  O68  1  0.22550146  0.88912785  0.25153555  1
  O  O69  1  0.75056668  0.23119164  0.23434489  1
  O  O70  1  0.75235947  0.56220200  0.24013648  1
  O  O71  1  0.75394268  0.89953275  0.25709692  1
  O  O72  1  0.34307097  0.27474402  0.58279845  1
  O  O73  1  0.35764593  0.62963003  0.59590306  1
  O  O74  1  0.34351109  0.96803558  0.56737253  1
  O  O75  1  0.63079579  0.28322347  0.90093242  1
  O  O76  1  0.63657651  0.61622500  0.90690006  1
  O  O77  1  0.64362239  0.95355244  0.92117536  1
  O  O78  1  0.64653548  0.04877545  0.42973072  1
  O  O79  1  0.63090231  0.37911372  0.40076033  1
  O  O80  1  0.64102791  0.71296483  0.42945955  1
  O  O81  1  0.35336053  0.06382646  0.09021262  1
  O  O82  1  0.32841779  0.39154169  0.06987051  1
  O  O83  1  0.35548746  0.73396133  0.09696680  1
  O  O84  1  0.85764593  0.12963003  0.59590306  1
  O  O85  1  0.84351109  0.46803558  0.56737253  1
  O  O86  1  0.84307097  0.77474402  0.58279845  1
  O  O87  1  0.13657651  0.11622500  0.90690006  1
  O  O88  1  0.14362239  0.45355244  0.92117536  1
  O  O89  1  0.13079579  0.78322347  0.90093242  1
  O  O90  1  0.14102791  0.21296483  0.42945955  1
  O  O91  1  0.14653548  0.54877545  0.42973072  1
  O  O92  1  0.13090231  0.87911372  0.40076033  1
  O  O93  1  0.85548746  0.23396133  0.09696680  1
  O  O94  1  0.85336053  0.56382646  0.09021262  1
  O  O95  1  0.82841779  0.89154169  0.06987051  1
  O  O96  1  0.46262774  0.27414853  0.93683502  1
  O  O97  1  0.46106067  0.60677788  0.93756611  1
  O  O98  1  0.46014578  0.94177686  0.91711365  1
  O  O99  1  0.55314893  0.27987085  0.54918516  1
  O  O100  1  0.55607508  0.61399977  0.55446238  1
  O  O101  1  0.54137478  0.95158856  0.56519901  1
  O  O102  1  0.52860370  0.05076531  0.08282025  1
  O  O103  1  0.53840956  0.37286916  0.06247022  1
  O  O104  1  0.52143912  0.71311970  0.08013369  1
  O  O105  1  0.46277612  0.05856100  0.43476298  1
  O  O106  1  0.46035446  0.39427350  0.42725104  1
  O  O107  1  0.46130498  0.72598694  0.44512572  1
  O  O108  1  0.96106067  0.10677788  0.93756611  1
  O  O109  1  0.96014578  0.44177686  0.91711365  1
  O  O110  1  0.96262774  0.77414853  0.93683502  1
  O  O111  1  0.05607508  0.11399977  0.55446238  1
  O  O112  1  0.04137478  0.45158856  0.56519901  1
  O  O113  1  0.05314893  0.77987085  0.54918516  1
  O  O114  1  0.02143912  0.21311970  0.08013369  1
  O  O115  1  0.02860370  0.55076531  0.08282025  1
  O  O116  1  0.03840956  0.87286916  0.06247022  1
  O  O117  1  0.96130498  0.22598694  0.44512572  1
  O  O118  1  0.96277612  0.55856100  0.43476298  1
  O  O119  1  0.96035446  0.89427350  0.42725104  1
  O  O120  1  0.09055200  0.28789329  0.74938591  1
  O  O121  1  0.08527355  0.62287589  0.74454674  1
  O  O122  1  0.09026198  0.95643846  0.74048378  1
  O  O123  1  0.94029427  0.27405716  0.78801585  1
  O  O124  1  0.94434356  0.60944605  0.78553008  1
  O  O125  1  0.93972649  0.94931515  0.75789821  1
  O  O126  1  0.93583632  0.04821422  0.25792967  1
  O  O127  1  0.92851085  0.37885839  0.23898765  1
  O  O128  1  0.92697347  0.71256743  0.22798761  1
  O  O129  1  0.09708810  0.04445923  0.25982019  1
  O  O130  1  0.09190531  0.37610857  0.25589762  1
  O  O131  1  0.09089915  0.71100847  0.24864816  1
  O  O132  1  0.58527355  0.12287589  0.74454674  1
  O  O133  1  0.59026198  0.45643846  0.74048378  1
  O  O134  1  0.59055200  0.78789329  0.74938591  1
  O  O135  1  0.44434356  0.10944605  0.78553008  1
  O  O136  1  0.43972649  0.44931515  0.75789821  1
  O  O137  1  0.44029427  0.77405716  0.78801585  1
  O  O138  1  0.42697347  0.21256743  0.22798761  1
  O  O139  1  0.43583632  0.54821422  0.25792967  1
  O  O140  1  0.42851085  0.87885839  0.23898765  1
  O  O141  1  0.59089915  0.21100847  0.24864816  1
  O  O142  1  0.59708810  0.54445923  0.25982019  1
  O  O143  1  0.59190531  0.87610857  0.25589762  1
loop_
_geom_bond_atom_site_label_1
_geom_bond_atom_site_label_2
_geom_bond_distance
_geom_bond_site_symmetry_2
Na0 O66 2.343913 1_555
Na0 O0 2.462494 1_554
Na0 O138 2.478547 1_555
Na0 O48 2.537988 1_554
Na0 O18 2.561442 1_555
Na0 O120 2.591587 1_554
Na1 O19 2.314814 1_555
Na1 O121 2.407490 1_554
Na1 O67 2.489586 1_555
Na1 O49 2.567366 1_554
Na1 O1 2.584184 1_554
Na1 O139 2.856243 1_555
Na2 O20 2.431989 1_555
Na2 O140 2.479765 1_555
Na2 O2 2.528480 1_554
Na2 O50 2.604715 1_554
Na2 O122 2.644991 1_554
Na2 O68 2.649946 1_555
Na3 O21 2.377949 1_555
Na3 O141 2.509554 1_555
Na3 O69 2.536244 1_555
Na3 O51 2.598343 1_555
Na3 O123 2.698960 1_555
Na3 O3 2.724625 1_555
Na4 O142 2.335246 1_555
Na4 O70 2.525375 1_555
Na4 O22 2.526775 1_555
Na4 O52 2.567884 1_555
Na4 O4 2.681678 1_555
Na4 O124 2.824732 1_555
Na5 O71 2.400328 1_555
Na5 O53 2.414554 1_555
Na5 O5 2.426466 1_555
Na5 O143 2.492309 1_555
Na5 O23 2.545852 1_555
Na5 O125 2.693865 1_555
Na6 O6 2.314814 1_555
Na6 O132 2.407490 1_554
Na6 O54 2.489586 1_555
Na6 O60 2.567366 1_554
Na6 O12 2.584184 1_554
Na6 O126 2.856243 1_555
Na7 O7 2.431989 1_555
Na7 O127 2.479765 1_555
Na7 O13 2.528480 1_554
Na7 O61 2.604715 1_554
Na7 O133 2.644991 1_554
Na7 O55 2.649946 1_555
Na8 O56 2.343913 1_555
Na8 O14 2.462494 1_554
Na8 O128 2.478547 1_555
Na8 O62 2.537988 1_554
Na8 O8 2.561442 1_555
Na8 O134 2.591587 1_554
Na9 O129 2.335246 1_555
Na9 O57 2.525375 1_555
Na9 O9 2.526775 1_555
Na9 O63 2.567884 1_555
Na9 O15 2.681678 1_555
Na9 O135 2.824732 1_555
Na10 O58 2.400328 1_555
Na10 O64 2.414554 1_555
Na10 O16 2.426466 1_555
Na10 O130 2.492309 1_555
Na10 O10 2.545852 1_555
Na10 O136 2.693865 1_555
Na11 O11 2.377949 1_555
Na11 O131 2.509554 1_555
Na11 O59 2.536244 1_555
Na11 O65 2.598343 1_555
Na11 O137 2.698960 1_555
Na11 O17 2.724625 1_555
Na12 O12 2.429274 1_555
Na12 O74 2.433544 1_545
Na12 O105 2.510512 1_555
Na12 O135 2.538150 1_555
Na13 O136 2.411584 1_555
Na13 O16 2.470780 1_555
Na13 O13 2.490067 1_555
Na13 O103 2.509111 1_556
Na13 O106 2.795653 1_555
Na14 O137 2.422638 1_555
Na14 O73 2.461946 1_555
Na14 O14 2.488880 1_555
Na14 O107 2.519412 1_555
Na15 O99 2.297844 1_555
Na15 O18 2.468582 1_555
Na15 O138 2.487400 1_555
Na15 O21 2.540491 1_555
Na15 O96 2.755210 1_554
Na15 O141 2.855839 1_555
Na15 O79 2.905327 1_555
Na16 O100 2.300044 1_555
Na16 O19 2.341646 1_555
Na16 O139 2.423969 1_555
Na16 O22 2.457601 1_555
Na16 O97 2.734670 1_554
Na16 O142 2.791591 1_555
Na16 O80 2.975296 1_555
Na16 O104 3.009149 1_555
Na17 O101 2.320733 1_555
Na17 O23 2.366243 1_555
Na17 O140 2.389666 1_555
Na17 O20 2.416845 1_555
Na17 O143 2.743916 1_555
Na18 O123 2.422638 1_555
Na18 O84 2.461946 1_555
Na18 O0 2.488880 1_655
Na18 O117 2.519412 1_555
Na19 O1 2.429274 1_655
Na19 O85 2.433544 1_555
Na19 O118 2.510512 1_555
Na19 O124 2.538150 1_555
Na20 O125 2.411584 1_555
Na20 O5 2.470780 1_555
Na20 O2 2.490067 1_655
Na20 O116 2.509111 1_656
Na20 O119 2.795653 1_555
Na21 O111 2.300044 1_655
Na21 O6 2.341646 1_555
Na21 O126 2.423969 1_555
Na21 O9 2.457601 1_655
Na21 O108 2.734670 1_554
Na21 O129 2.791591 1_655
Na21 O90 2.975296 1_655
Na21 O114 3.009149 1_655
Na22 O112 2.320733 1_555
Na22 O10 2.366243 1_555
Na22 O127 2.389666 1_455
Na22 O7 2.416845 1_455
Na22 O130 2.743916 1_555
Na23 O113 2.297844 1_655
Na23 O8 2.468582 1_555
Na23 O128 2.487400 1_555
Na23 O11 2.540491 1_655
Na23 O110 2.755210 1_554
Na23 O131 2.855839 1_655
Na23 O92 2.905327 1_655
Na24 O54 2.380927 1_565
Na24 O126 2.471123 1_565
Na24 O77 2.614850 1_554
Na24 O71 2.630951 1_555
Na24 O95 2.817375 1_555
Na24 O36 2.928433 1_565
Na25 O18 2.368545 1_555
Na25 O66 2.371810 1_555
Na25 O72 2.386543 1_555
Na25 O130 2.508348 1_555
Na25 O58 2.725887 1_555
Na26 O74 2.330350 1_555
Na26 O68 2.416018 1_555
Na26 O129 2.439383 1_565
Na26 O20 2.601233 1_555
Na26 O57 2.683667 1_565
Na26 O44 2.927385 1_555
Na26 O39 2.971107 1_564
Na27 O82 2.362638 1_556
Na27 O120 2.479253 1_555
Na27 O16 2.487091 1_555
Na27 O48 2.693708 1_555
Na27 O64 2.774806 1_555
Na27 O40 2.945781 1_555
Na27 O42 3.019076 1_555
Na28 O53 2.350693 1_545
Na28 O125 2.569741 1_545
Na28 O60 2.582694 1_555
Na28 O78 2.671815 1_555
Na28 O47 2.735863 1_546
Na28 O36 2.812885 1_555
Na29 O38 2.409923 1_555
Na29 O80 2.438553 1_555
Na29 O62 2.527264 1_555
Na29 O52 2.540781 1_555
Na29 O86 2.562343 1_555
Na29 O124 2.876170 1_555
Na30 O67 2.380927 1_555
Na30 O139 2.471123 1_555
Na30 O88 2.614850 1_554
Na30 O58 2.630951 1_555
Na30 O82 2.817375 1_555
Na30 O25 2.928433 1_555
Na31 O85 2.330350 1_555
Na31 O55 2.416018 1_555
Na31 O142 2.439383 1_555
Na31 O7 2.601233 1_555
Na31 O70 2.683667 1_555
Na31 O31 2.927385 1_555
Na31 O28 2.971107 1_554
Na32 O8 2.368545 1_555
Na32 O56 2.371810 1_555
Na32 O86 2.386543 1_555
Na32 O143 2.508348 1_555
Na32 O71 2.725887 1_555
Na33 O95 2.362638 1_556
Na33 O134 2.479253 1_555
Na33 O5 2.487091 1_555
Na33 O62 2.693708 1_555
Na33 O53 2.774806 1_555
Na33 O29 2.945781 1_555
Na33 O32 3.019076 1_555
Na34 O24 2.409923 1_555
Na34 O90 2.438553 1_555
Na34 O48 2.527264 1_555
Na34 O63 2.540781 1_555
Na34 O72 2.562343 1_555
Na34 O135 2.876170 1_555
Na35 O64 2.350693 1_555
Na35 O136 2.569741 1_555
Na35 O49 2.582694 1_555
Na35 O91 2.671815 1_555
Na35 O34 2.735863 1_556
Na35 O25 2.812885 1_555
Ca0 O95 2.151515 1_556
Ca0 O47 2.186340 1_556
Ca0 O116 2.201603 1_656
Ca0 O53 2.274984 1_555
Ca0 O5 2.282624 1_555
Ca0 O125 2.315259 1_555
Ca1 O84 2.185377 1_555
Ca1 O36 2.253727 1_555
Ca1 O111 2.285003 1_655
Ca1 O6 2.317531 1_555
Ca1 O126 2.344188 1_555
Ca1 O54 2.375697 1_555
Ca2 O37 2.134974 1_555
Ca2 O112 2.205178 1_655
Ca2 O85 2.297636 1_555
Ca2 O55 2.313289 1_555
Ca2 O127 2.413238 1_555
Ca2 O7 2.480407 1_555
Ca3 O86 2.188058 1_555
Ca3 O38 2.248180 1_555
Ca3 O113 2.254996 1_655
Ca3 O128 2.330396 1_555
Ca3 O8 2.349143 1_555
Ca3 O56 2.393679 1_555
Ca4 O82 2.151515 1_556
Ca4 O34 2.186340 1_556
Ca4 O103 2.201603 1_556
Ca4 O64 2.274984 1_555
Ca4 O16 2.282624 1_555
Ca4 O136 2.315259 1_555
Ca5 O72 2.188058 1_555
Ca5 O24 2.248180 1_555
Ca5 O99 2.254996 1_555
Ca5 O138 2.330396 1_555
Ca5 O18 2.349143 1_555
Ca5 O66 2.393679 1_555
Ca6 O73 2.185377 1_555
Ca6 O25 2.253727 1_555
Ca6 O100 2.285003 1_555
Ca6 O19 2.317531 1_555
Ca6 O139 2.344188 1_555
Ca6 O67 2.375697 1_555
Ca7 O26 2.134974 1_555
Ca7 O101 2.205178 1_555
Ca7 O74 2.297636 1_555
Ca7 O68 2.313289 1_555
Ca7 O140 2.413238 1_555
Ca7 O20 2.480407 1_555
Nb0 O117 1.985455 1_455
Nb0 O120 2.006852 1_555
Nb0 O90 2.017402 1_555
Nb0 O0 2.025680 1_555
Nb0 O48 2.057168 1_555
Nb0 O42 2.085145 1_555
Nb1 O91 1.950392 1_555
Nb1 O118 2.009515 1_455
Nb1 O49 2.026090 1_555
Nb1 O1 2.026408 1_555
Nb1 O43 2.035798 1_555
Nb1 O121 2.131958 1_555
Nb2 O119 1.978789 1_455
Nb2 O50 2.007959 1_555
Nb2 O2 2.030982 1_555
Nb2 O92 2.031740 1_555
Nb2 O44 2.053785 1_555
Nb2 O122 2.076857 1_555
Nb3 O93 1.898241 1_556
Nb3 O3 1.977313 1_555
Nb3 O114 1.982928 1_656
Nb3 O51 1.996339 1_555
Nb3 O45 2.031608 1_556
Nb3 O123 2.044185 1_555
Nb4 O94 1.874707 1_556
Nb4 O115 1.934228 1_656
Nb4 O4 1.961989 1_555
Nb4 O46 2.028774 1_556
Nb4 O52 2.057902 1_555
Nb4 O124 2.151241 1_555
Nb5 O87 1.913353 1_554
Nb5 O108 2.003692 1_454
Nb5 O9 2.021934 1_555
Nb5 O57 2.029568 1_555
Nb5 O39 2.072113 1_554
Nb5 O129 2.237681 1_555
Nb6 O40 1.942946 1_554
Nb6 O88 1.952218 1_554
Nb6 O109 1.997947 1_454
Nb6 O58 2.064966 1_555
Nb6 O10 2.087174 1_555
Nb6 O130 2.260176 1_555
Nb7 O89 1.928126 1_554
Nb7 O59 1.986997 1_555
Nb7 O110 1.988086 1_454
Nb7 O41 2.035548 1_554
Nb7 O11 2.164211 1_555
Nb7 O131 2.182623 1_555
Nb8 O78 1.950392 1_555
Nb8 O105 2.009515 1_555
Nb8 O60 2.026090 1_555
Nb8 O12 2.026408 1_555
Nb8 O30 2.035798 1_555
Nb8 O132 2.131958 1_555
Nb9 O106 1.978789 1_555
Nb9 O61 2.007959 1_555
Nb9 O13 2.030982 1_555
Nb9 O79 2.031740 1_555
Nb9 O31 2.053785 1_555
Nb9 O133 2.076857 1_555
Nb10 O107 1.985455 1_555
Nb10 O134 2.006852 1_555
Nb10 O80 2.017402 1_555
Nb10 O14 2.025680 1_555
Nb10 O62 2.057168 1_555
Nb10 O32 2.085145 1_555
Nb11 O81 1.874707 1_556
Nb11 O102 1.934228 1_556
Nb11 O15 1.961989 1_555
Nb11 O33 2.028774 1_556
Nb11 O63 2.057902 1_555
Nb11 O135 2.151241 1_555
Nb12 O83 1.898241 1_556
Nb12 O17 1.977313 1_555
Nb12 O104 1.982928 1_556
Nb12 O65 1.996339 1_555
Nb12 O35 2.031608 1_556
Nb12 O137 2.044185 1_555
Nb13 O75 1.928126 1_554
Nb13 O69 1.986997 1_555
Nb13 O96 1.988086 1_554
Nb13 O27 2.035548 1_554
Nb13 O21 2.164211 1_555
Nb13 O141 2.182623 1_555
Nb14 O76 1.913353 1_554
Nb14 O97 2.003692 1_554
Nb14 O22 2.021934 1_555
Nb14 O70 2.029568 1_555
Nb14 O28 2.072113 1_554
Nb14 O142 2.237681 1_555
Nb15 O29 1.942946 1_554
Nb15 O77 1.952218 1_554
Nb15 O98 1.997947 1_554
Nb15 O71 2.064966 1_555
Nb15 O23 2.087174 1_555
Nb15 O143 2.260176 1_555
O0 Si16 1.668983 1_555
O1 Si17 1.682448 1_555
O2 Si18 1.677958 1_555
O3 Si13 1.648778 1_555
O4 Si14 1.682421 1_555
O5 Si15 1.609512 1_555
O6 Si21 1.597177 1_555
O7 Si22 1.604681 1_555
O8 Si23 1.608623 1_555
O9 Si19 1.675883 1_555
O10 Si20 1.657087 1_555
O11 P11 1.578727 1_555
O12 Si7 1.682448 1_545
O13 Si5 1.677958 1_555
O14 Si6 1.668983 1_555
O15 Si4 1.682421 1_545
O16 Si2 1.609512 1_555
O17 Si3 1.648778 1_555
O18 Si11 1.608623 1_555
O19 Si12 1.597177 1_555
O20 Si10 1.604681 1_565
O21 P10 1.578727 1_555
O22 Si9 1.675883 1_555
O23 Si8 1.657087 1_565
O24 P5 1.510421 1_555
O25 P6 1.505345 1_555
O26 Si1 1.563647 1_555
O27 P5 1.579988 1_555
O28 P6 1.600412 1_555
O29 Si1 1.711521 1_555
O30 P7 1.583173 1_555
O31 P8 1.596732 1_555
O32 P9 1.585526 1_555
O33 P7 1.547329 1_555
O34 P8 1.511366 1_555
O35 P9 1.540838 1_555
O36 P1 1.505345 1_645
O37 Si0 1.563647 1_555
O38 P0 1.510421 1_655
O39 P1 1.600412 1_545
O40 Si0 1.711521 1_455
O41 P0 1.579988 1_555
O42 P3 1.585526 1_555
O43 P4 1.583173 1_555
O44 P2 1.596732 1_565
O45 P3 1.540838 1_655
O46 P4 1.547329 1_655
O47 P2 1.511366 1_665
O48 Si2 1.678570 1_555
O49 Si3 1.655065 1_555
O50 Si4 1.643822 1_555
O51 Si5 1.641438 1_555
O52 Si6 1.661168 1_555
O53 Si7 1.602253 1_555
O54 Si8 1.593279 1_555
O55 P10 1.520674 1_555
O56 Si9 1.588628 1_555
O57 Si10 1.653029 1_555
O58 Si11 1.686862 1_555
O59 Si12 1.654485 1_555
O60 Si13 1.655065 1_555
O61 Si14 1.643822 1_555
O62 Si15 1.678570 1_555
O63 Si16 1.661168 1_555
O64 Si17 1.602253 1_555
O65 Si18 1.641438 1_555
O66 Si19 1.588628 1_555
O67 Si20 1.593279 1_555
O68 P11 1.520674 1_555
O69 Si21 1.654485 1_555
O70 Si22 1.653029 1_555
O71 Si23 1.686862 1_555
O72 Si2 1.591158 1_555
O73 Si3 1.584138 1_555
O74 Si4 1.599743 1_555
O75 Si5 1.725834 1_555
O76 Si6 1.718558 1_555
O77 Si7 1.750027 1_555
O78 Si8 1.705552 1_555
O79 P10 1.608239 1_555
O80 Si9 1.702128 1_555
O81 Si10 1.656644 1_555
O82 Si11 1.591923 1_555
O83 Si12 1.635827 1_555
O84 Si13 1.584138 1_555
O85 Si14 1.599743 1_555
O86 Si15 1.591158 1_555
O87 Si16 1.718558 1_555
O88 Si17 1.750027 1_555
O89 Si18 1.725834 1_555
O90 Si19 1.702128 1_555
O91 Si20 1.705552 1_555
O92 P11 1.608239 1_555
O93 Si21 1.635827 1_555
O94 Si22 1.656644 1_555
O95 Si23 1.591923 1_555
O96 Si2 1.723514 1_555
O97 Si3 1.703900 1_555
O98 Si4 1.680396 1_555
O99 Si5 1.582387 1_555
O100 Si6 1.575330 1_555
O101 Si7 1.584996 1_555
O102 Si8 1.642212 1_555
O103 P10 1.512724 1_555
O104 Si9 1.627718 1_555
O105 Si10 1.680299 1_555
O106 Si11 1.716975 1_555
O107 Si12 1.689268 1_555
O108 Si13 1.703900 1_555
O109 Si14 1.680396 1_555
O110 Si15 1.723514 1_555
O111 Si16 1.575330 1_555
O112 Si17 1.584996 1_555
O113 Si18 1.582387 1_555
O114 Si19 1.627718 1_555
O115 Si20 1.642212 1_555
O116 P11 1.512724 1_555
O117 Si21 1.689268 1_555
O118 Si22 1.680299 1_555
O119 Si23 1.716975 1_555
O120 Si0 1.677050 1_455
O121 P0 1.548403 1_555
O122 P1 1.579854 1_555
O123 Si0 1.646160 1_555
O124 P0 1.570763 1_655
O125 P1 1.537164 1_655
O126 P2 1.523738 1_655
O127 P3 1.517417 1_655
O128 P4 1.522566 1_655
O129 P2 1.575578 1_555
O130 P3 1.569052 1_555
O131 P4 1.557860 1_555
O132 P5 1.548403 1_555
O133 P6 1.579854 1_555
O134 Si1 1.677050 1_555
O135 P5 1.570763 1_555
O136 P6 1.537164 1_555
O137 Si1 1.646160 1_555
O138 P7 1.522566 1_555
O139 P8 1.523738 1_555
O140 P9 1.517417 1_555
O141 P7 1.557860 1_555
O142 P8 1.575578 1_555
O143 P9 1.569052 1_555
