# generated using pymatgen
data_La11V4O26
_symmetry_space_group_name_H-M   'P 1'
_cell_length_a   7.11665600
_cell_length_b   10.29017609
_cell_length_c   10.36712888
_cell_angle_alpha   77.29430046
_cell_angle_beta   71.41691718
_cell_angle_gamma   69.79231829
_symmetry_Int_Tables_number   1
_chemical_formula_structural   La11V4O26
_chemical_formula_sum   'La11 V4 O26'
_cell_volume   670.15345221
_cell_formula_units_Z   1
loop_
 _symmetry_equiv_pos_site_id
 _symmetry_equiv_pos_as_xyz
  1  'x, y, z'
loop_
 _atom_site_type_symbol
 _atom_site_label
 _atom_site_symmetry_multiplicity
 _atom_site_fract_x
 _atom_site_fract_y
 _atom_site_fract_z
 _atom_site_occupancy
  La  La0  1  0.17748200  0.63871000  0.66095400  1
  La  La1  1  0.27868500  0.98509900  0.40505300  1
  La  La2  1  0.82251800  0.36129000  0.33904600  1
  La  La3  1  0.72131500  0.01490100  0.59494700  1
  La  La4  1  0.12355700  0.97004400  0.80784400  1
  La  La5  1  0.87644300  0.02995600  0.19215600  1
  La  La6  1  0.01896000  0.33117300  0.95334100  1
  La  La7  1  0.98104000  0.66882700  0.04665900  1
  La  La8  1  0.59036500  0.65716900  0.84291500  1
  La  La9  1  0.40963500  0.34283100  0.15708500  1
  La  La10  1  0.50000000  0.00000000  0.00000000  1
  V  V0  1  0.59959000  0.31738000  0.80511300  1
  V  V1  1  0.40041000  0.68262000  0.19488700  1
  V  V2  1  0.72344000  0.72822100  0.45760800  1
  V  V3  1  0.27656000  0.27177900  0.54239200  1
  O  O0  1  0.86316400  0.63137200  0.32378200  1
  O  O1  1  0.13683600  0.36862800  0.67621800  1
  O  O2  1  0.39547100  0.26367300  0.93736000  1
  O  O3  1  0.60452900  0.73632700  0.06264000  1
  O  O4  1  0.32428800  0.60572100  0.08685600  1
  O  O5  1  0.67571200  0.39427900  0.91314400  1
  O  O6  1  0.17508600  0.31554300  0.39910600  1
  O  O7  1  0.82491400  0.68445700  0.60089400  1
  O  O8  1  0.23074400  0.84860300  0.24795100  1
  O  O9  1  0.76925600  0.15139700  0.75204900  1
  O  O10  1  0.53472800  0.26666200  0.49831400  1
  O  O11  1  0.46527200  0.73333800  0.50168600  1
  O  O12  1  0.76339800  0.27351200  0.16746400  1
  O  O13  1  0.23660200  0.72648800  0.83253600  1
  O  O14  1  0.51650400  0.46145400  0.69080600  1
  O  O15  1  0.13645300  0.08157400  0.98912900  1
  O  O16  1  0.86354700  0.91842600  0.01087100  1
  O  O17  1  0.30119400  0.09214700  0.59456200  1
  O  O18  1  0.69880600  0.90785300  0.40543800  1
  O  O19  1  0.04912900  0.89249700  0.61599500  1
  O  O20  1  0.48349600  0.53854600  0.30919400  1
  O  O21  1  0.05450600  0.42011200  0.13257400  1
  O  O22  1  0.94549400  0.57988800  0.86742600  1
  O  O23  1  0.51628400  0.90629300  0.80120500  1
  O  O24  1  0.48371600  0.09370700  0.19879500  1
  O  O25  1  0.95087100  0.10750300  0.38400500  1
loop_
_geom_bond_atom_site_label_1
_geom_bond_atom_site_label_2
_geom_bond_distance
_geom_bond_site_symmetry_2
La0 O22 2.354142 1_455
La0 O13 2.367146 1_555
La0 O19 2.441218 1_555
La0 O11 2.526726 1_555
La0 O14 2.535983 1_555
La0 O7 2.637369 1_455
La0 O1 2.857512 1_555
La1 O25 2.291337 1_465
La1 O24 2.457069 1_565
La1 O19 2.498201 1_555
La1 O17 2.524567 1_565
La1 O8 2.536412 1_555
La1 O11 2.609224 1_555
La1 O18 2.816993 1_555
La2 O21 2.354142 1_655
La2 O12 2.367146 1_555
La2 O25 2.441218 1_555
La2 O10 2.526726 1_555
La2 O20 2.535983 1_555
La2 O6 2.637369 1_655
La2 O0 2.857512 1_555
La3 O19 2.291337 1_645
La3 O23 2.457069 1_545
La3 O25 2.498201 1_555
La3 O18 2.524567 1_545
La3 O9 2.536412 1_555
La3 O10 2.609224 1_555
La3 O17 2.816993 1_555
La4 O13 2.334538 1_555
La4 O16 2.416857 1_456
La4 O15 2.447288 1_565
La4 O17 2.481850 1_565
La4 O19 2.556312 1_555
La4 O23 2.622435 1_555
La4 O9 2.716395 1_465
La5 O12 2.334538 1_555
La5 O15 2.416857 1_654
La5 O16 2.447288 1_545
La5 O18 2.481850 1_545
La5 O25 2.556312 1_555
La5 O24 2.622435 1_555
La5 O8 2.716395 1_645
La6 O21 2.358351 1_556
La6 O15 2.393421 1_555
La6 O22 2.446721 1_455
La6 O5 2.448757 1_455
La6 O2 2.484255 1_555
La6 O12 2.486060 1_456
La6 O1 2.703039 1_555
La7 O22 2.358351 1_554
La7 O16 2.393421 1_555
La7 O21 2.446721 1_655
La7 O4 2.448757 1_655
La7 O3 2.484255 1_555
La7 O13 2.486060 1_654
La7 O0 2.703039 1_555
La8 O13 2.399374 1_555
La8 O23 2.400127 1_555
La8 O22 2.452819 1_555
La8 O5 2.548994 1_555
La8 O7 2.550496 1_555
La8 O3 2.623324 1_556
La8 O4 2.704260 1_556
La8 O14 3.078254 1_555
La9 O12 2.399374 1_555
La9 O24 2.400127 1_555
La9 O21 2.452819 1_555
La9 O4 2.548994 1_555
La9 O6 2.550496 1_555
La9 O2 2.623324 1_554
La9 O5 2.704260 1_554
La9 O20 3.078254 1_555
La10 O24 2.415663 1_555
La10 O23 2.415663 1_544
La10 O16 2.460690 1_545
La10 O15 2.460690 1_554
La10 O2 2.544646 1_554
La10 O3 2.544646 1_545
O0 V2 1.717886 1_555
O1 V3 1.717886 1_555
O2 V0 1.802014 1_555
O3 V1 1.802014 1_555
O4 V1 1.801852 1_555
O5 V0 1.801852 1_555
O6 V3 1.759459 1_555
O7 V2 1.759459 1_555
O8 V1 1.800841 1_555
O9 V0 1.800841 1_555
O10 V3 1.730859 1_555
O11 V2 1.730859 1_555
O14 V0 1.737828 1_555
O17 V3 1.771100 1_555
O18 V2 1.771100 1_555
O20 V1 1.737828 1_555
