# generated using pymatgen
data_MgCu3(SnO3)4
_symmetry_space_group_name_H-M   'P 1'
_cell_length_a   6.66901447
_cell_length_b   6.98531189
_cell_length_c   6.98560324
_cell_angle_alpha   111.26758031
_cell_angle_beta   110.95211433
_cell_angle_gamma   108.05773235
_symmetry_Int_Tables_number   1
_chemical_formula_structural   MgCu3(SnO3)4
_chemical_formula_sum   'Mg1 Cu3 Sn4 O12'
_cell_volume   244.40869763
_cell_formula_units_Z   1
loop_
 _symmetry_equiv_pos_site_id
 _symmetry_equiv_pos_as_xyz
  1  'x, y, z'
loop_
 _atom_site_type_symbol
 _atom_site_label
 _atom_site_symmetry_multiplicity
 _atom_site_fract_x
 _atom_site_fract_y
 _atom_site_fract_z
 _atom_site_occupancy
  Mg  Mg0  1  0.41345900  0.54562600  0.86781200  1
  Cu  Cu0  1  0.57447300  0.43789700  0.13659200  1
  Cu  Cu1  1  0.00434000  0.51185000  0.49247100  1
  Cu  Cu2  1  0.49595700  0.00635300  0.48959500  1
  Sn  Sn0  1  0.49435400  0.50614100  0.49065200  1
  Sn  Sn1  1  0.99090600  0.51041300  0.98493000  1
  Sn  Sn2  1  0.99083100  0.00599600  0.48046900  1
  Sn  Sn3  1  0.49432900  0.00368200  0.98825100  1
  O  O0  1  0.81794700  0.33917200  0.13121600  1
  O  O1  1  0.17968100  0.67652600  0.84930500  1
  O  O2  1  0.81792500  0.68670800  0.47875200  1
  O  O3  1  0.32373100  0.51116400  0.17288900  1
  O  O4  1  0.49389600  0.19003200  0.30387700  1
  O  O5  1  0.13593200  0.83282800  0.30311100  1
  O  O6  1  0.67787400  0.87506900  0.16225100  1
  O  O7  1  0.48520500  0.81416800  0.67103800  1
  O  O8  1  0.17969600  0.33036900  0.50313800  1
  O  O9  1  0.67787600  0.51561900  0.80279700  1
  O  O10  1  0.85787600  0.17956200  0.67830600  1
  O  O11  1  0.32371000  0.15082600  0.81254700  1
loop_
_geom_bond_atom_site_label_1
_geom_bond_atom_site_label_2
_geom_bond_distance
_geom_bond_site_symmetry_2
Mg0 O6 2.022976 1_556
Mg0 O9 2.023029 1_555
Mg0 O8 2.026967 1_555
Mg0 O1 2.027039 1_555
Mg0 O11 2.480285 1_555
Mg0 O3 2.480470 1_556
Cu0 O2 1.957384 1_555
Cu0 O0 1.957682 1_555
Cu0 O3 1.965233 1_555
Cu0 O11 1.965355 1_554
Cu0 Mg0 2.308406 1_554
Cu0 O4 2.447909 1_555
Cu1 O1 1.976231 1_555
Cu1 O8 1.976241 1_555
Cu1 O0 1.996834 1_455
Cu1 O2 1.996936 1_455
Cu2 O5 1.935056 1_545
Cu2 O10 1.945329 1_555
Cu2 O4 2.129621 1_555
Cu2 O7 2.157225 1_545
O0 Sn1 2.163322 1_554
O0 Sn3 2.184571 1_554
O1 Sn3 2.128188 1_565
O1 Sn1 2.138661 1_455
O2 Sn2 2.163440 1_565
O2 Sn0 2.184339 1_555
O3 Sn0 2.120899 1_555
O3 Sn1 2.134058 1_454
O4 Sn3 2.116737 1_554
O4 Sn0 2.116857 1_555
O5 Sn1 2.104446 1_454
O5 Sn2 2.104879 1_465
O6 Sn2 2.039033 1_565
O6 Sn3 2.047625 1_564
O7 Sn0 2.095400 1_555
O7 Sn3 2.095723 1_565
O8 Sn0 2.128368 1_555
O8 Sn2 2.138538 1_455
O9 Sn1 2.039423 1_555
O9 Sn0 2.047783 1_555
O10 Sn2 2.119763 1_555
O10 Sn1 2.120118 1_555
O11 Sn3 2.121121 1_555
O11 Sn2 2.134290 1_455
