# generated using pymatgen
data_Na6La4Nb4Si7S5O48
_symmetry_space_group_name_H-M   'P 1'
_cell_length_a   18.48656515
_cell_length_b   9.21461317
_cell_length_c   23.68319946
_cell_angle_alpha   90.24802382
_cell_angle_beta   89.50146519
_cell_angle_gamma   119.99057791
_symmetry_Int_Tables_number   1
_chemical_formula_structural   Na6La4Nb4Si7S5O48
_chemical_formula_sum   'Na18 La12 Nb12 Si21 S15 O144'
_cell_volume   3494.05006334
_cell_formula_units_Z   3
loop_
 _symmetry_equiv_pos_site_id
 _symmetry_equiv_pos_as_xyz
  1  'x, y, z'
loop_
 _atom_site_type_symbol
 _atom_site_label
 _atom_site_symmetry_multiplicity
 _atom_site_fract_x
 _atom_site_fract_y
 _atom_site_fract_z
 _atom_site_occupancy
  Na  Na0  1  0.00304397  0.61472883  0.25832768  1
  Na  Na1  1  0.49846507  0.62949469  0.26363426  1
  Na  Na2  1  0.99760819  0.37221668  0.75334991  1
  Na  Na3  1  0.50357106  0.39188111  0.75387508  1
  Na  Na4  1  0.33099385  0.98450866  0.57232138  1
  Na  Na5  1  0.82962140  0.67436753  0.07554423  1
  Na  Na6  1  0.00223457  0.97596543  0.50354425  1
  Na  Na7  1  0.50094296  0.01672492  0.49326073  1
  Na  Na8  1  0.99472774  0.98122652  0.99479657  1
  Na  Na9  1  0.50360013  0.02997279  0.00718446  1
  Na  Na10  1  0.32357296  0.36010539  0.82818575  1
  Na  Na11  1  0.83155443  0.33394675  0.83788456  1
  Na  Na12  1  0.33302751  0.33204225  0.34120198  1
  Na  Na13  1  0.82161875  0.28764826  0.33033687  1
  Na  Na14  1  0.17293313  0.65232531  0.17793631  1
  Na  Na15  1  0.66420129  0.66510192  0.16941685  1
  Na  Na16  1  0.16331113  0.66708687  0.66058697  1
  Na  Na17  1  0.67292504  0.69537440  0.66761537  1
  La  La0  1  0.50743889  0.99416579  0.64113810  1
  La  La1  1  0.00630689  0.01786461  0.14312858  1
  La  La2  1  0.33662436  0.34955029  0.68701045  1
  La  La3  1  0.82067716  0.32932389  0.68423037  1
  La  La4  1  0.32145597  0.31561465  0.18746923  1
  La  La5  1  0.83629373  0.32502850  0.18857996  1
  La  La6  1  0.66451134  0.64339713  0.00506641  1
  La  La7  1  0.16094109  0.68179292  0.50462565  1
  La  La8  1  0.17741711  0.66848067  0.31989966  1
  La  La9  1  0.66806885  0.68300465  0.32537027  1
  La  La10  1  0.16632776  0.64191404  0.82125511  1
  La  La11  1  0.67661580  0.68486698  0.81840232  1
  Nb  Nb0  1  0.98916034  0.00788626  0.35770069  1
  Nb  Nb1  1  0.50187318  0.98045488  0.35938355  1
  Nb  Nb2  1  0.99349411  0.01768851  0.85363723  1
  Nb  Nb3  1  0.49022008  0.97194713  0.85755136  1
  Nb  Nb4  1  0.00003696  0.99973482  0.64304974  1
  Nb  Nb5  1  0.50061119  0.00491393  0.14613389  1
  Nb  Nb6  1  0.34314373  0.33043520  0.98069385  1
  Nb  Nb7  1  0.83494613  0.34788908  0.98547825  1
  Nb  Nb8  1  0.33546720  0.32102187  0.48615381  1
  Nb  Nb9  1  0.83481723  0.35530021  0.47636208  1
  Nb  Nb10  1  0.16845503  0.67013250  0.01457174  1
  Nb  Nb11  1  0.66631908  0.65020387  0.51095385  1
  Si  Si0  1  0.63952310  0.99833989  0.24931255  1
  Si  Si1  1  0.36219981  0.72257213  0.24975048  1
  Si  Si2  1  0.00246993  0.30084167  0.25392761  1
  Si  Si3  1  0.13938760  0.27468878  0.74883696  1
  Si  Si4  1  0.50264656  0.70456003  0.75317971  1
  Si  Si5  1  0.85815289  0.00308102  0.74638591  1
  Si  Si6  1  0.48718994  0.34278766  0.58387404  1
  Si  Si7  1  0.18511775  0.03939025  0.58559117  1
  Si  Si8  1  0.83071302  0.63240717  0.58210607  1
  Si  Si9  1  0.98651715  0.63249682  0.08262007  1
  Si  Si10  1  0.33222310  0.03110413  0.08251644  1
  Si  Si11  1  0.68479076  0.32861974  0.08523056  1
  Si  Si12  1  0.31426449  0.65012820  0.91954363  1
  Si  Si13  1  0.82876152  0.67050768  0.91863176  1
  Si  Si14  1  0.01225946  0.36754911  0.91840358  1
  Si  Si15  1  0.51156131  0.34926822  0.90915720  1
  Si  Si16  1  0.32592439  0.98231742  0.41876707  1
  Si  Si17  1  0.81380694  0.97781686  0.42075072  1
  Si  Si18  1  0.66557669  0.36274779  0.41408406  1
  Si  Si19  1  0.01020783  0.67245479  0.40882991  1
  Si  Si20  1  0.51154256  0.65313313  0.41904637  1
  S  S0  1  0.14165013  0.00144181  0.25748712  1
  S  S1  1  0.85723397  0.71812610  0.25378998  1
  S  S2  1  0.50227889  0.28028801  0.24823758  1
  S  S3  1  0.64133345  0.27907088  0.75814915  1
  S  S4  1  0.00179311  0.72698778  0.74882585  1
  S  S5  1  0.35828683  0.99822477  0.75462211  1
  S  S6  1  0.98132863  0.32454899  0.58493009  1
  S  S7  1  0.69040903  0.02918475  0.57340260  1
  S  S8  1  0.32842070  0.63006950  0.57664915  1
  S  S9  1  0.47854526  0.63373621  0.08250549  1
  S  S10  1  0.83005762  0.02965462  0.07637149  1
  S  S11  1  0.18946304  0.34866277  0.07353952  1
  S  S12  1  0.16977652  0.97444280  0.92158239  1
  S  S13  1  0.66555300  0.99470077  0.91751605  1
  S  S14  1  0.16595191  0.33582739  0.41771257  1
  O  O0  1  0.08666004  0.99449022  0.30404198  1
  O  O1  1  0.58544558  0.99321673  0.30678706  1
  O  O2  1  0.41576290  0.82388657  0.30698568  1
  O  O3  1  0.90527904  0.83264747  0.30189177  1
  O  O4  1  0.50085293  0.18498295  0.29724917  1
  O  O5  1  0.00432219  0.18525855  0.30957171  1
  O  O6  1  0.08430287  0.16973276  0.80657594  1
  O  O7  1  0.58691856  0.17638798  0.80520197  1
  O  O8  1  0.50409868  0.82308621  0.80983072  1
  O  O9  1  0.00007671  0.82041855  0.79894735  1
  O  O10  1  0.40616536  0.97999100  0.80286126  1
  O  O11  1  0.90990123  0.00611624  0.80727896  1
  O  O12  1  0.39699834  0.99431921  0.70059464  1
  O  O13  1  0.91597001  0.99979085  0.69288516  1
  O  O14  1  0.08416558  0.16273994  0.69301074  1
  O  O15  1  0.60548137  0.20285112  0.70296491  1
  O  O16  1  0.00076021  0.81037218  0.69494272  1
  O  O17  1  0.49945601  0.80200437  0.69735618  1
  O  O18  1  0.41577413  0.83446657  0.19228538  1
  O  O19  1  0.89795337  0.79739827  0.19959200  1
  O  O20  1  0.99976106  0.19862516  0.19715288  1
  O  O21  1  0.50013977  0.19170887  0.19309571  1
  O  O22  1  0.10718914  0.00872936  0.20192862  1
  O  O23  1  0.58412669  0.00646447  0.19306468  1
  O  O24  1  0.45872165  0.36675742  0.64607418  1
  O  O25  1  0.94418770  0.33978663  0.63893746  1
  O  O26  1  0.24433665  0.12365344  0.63901257  1
  O  O27  1  0.72431175  0.08709330  0.63104537  1
  O  O28  1  0.32895644  0.55586917  0.63119804  1
  O  O29  1  0.80969171  0.52463888  0.63958696  1
  O  O30  1  0.44011599  0.53999501  0.13469180  1
  O  O31  1  0.96161133  0.55076438  0.14426801  1
  O  O32  1  0.30837940  0.09702807  0.13855983  1
  O  O33  1  0.83107344  0.10675288  0.13070544  1
  O  O34  1  0.22497888  0.36420703  0.13008602  1
  O  O35  1  0.74617357  0.36711082  0.13752306  1
  O  O36  1  0.24483067  0.34340722  0.02986078  1
  O  O37  1  0.73719215  0.31332649  0.02820737  1
  O  O38  1  0.42651114  0.53499769  0.03239730  1
  O  O39  1  0.91375321  0.49910195  0.03609772  1
  O  O40  1  0.34446705  0.16853840  0.03076323  1
  O  O41  1  0.82726694  0.12934976  0.02852388  1
  O  O42  1  0.23650127  0.15900188  0.52918795  1
  O  O43  1  0.74726736  0.15010484  0.53155347  1
  O  O44  1  0.32600284  0.52382541  0.52908956  1
  O  O45  1  0.84568208  0.52319493  0.53114638  1
  O  O46  1  0.41363847  0.32880038  0.53742955  1
  O  O47  1  0.93057550  0.31360934  0.53613273  1
  O  O48  1  0.26278568  0.68938934  0.96817945  1
  O  O49  1  0.79959519  0.71764330  0.97711356  1
  O  O50  1  0.08659408  0.48732935  0.96420229  1
  O  O51  1  0.56477172  0.40994089  0.96606029  1
  O  O52  1  0.15894784  0.85934690  0.96906897  1
  O  O53  1  0.64688638  0.88699150  0.96698332  1
  O  O54  1  0.29460960  0.87786693  0.47729089  1
  O  O55  1  0.76227555  0.83243355  0.46791482  1
  O  O56  1  0.14765303  0.40705031  0.46740048  1
  O  O57  1  0.65300725  0.46454683  0.46819821  1
  O  O58  1  0.06495095  0.72465148  0.46538563  1
  O  O59  1  0.58455217  0.68206263  0.46475255  1
  O  O60  1  0.04668533  0.62619248  0.35474667  1
  O  O61  1  0.53202246  0.60494038  0.35756575  1
  O  O62  1  0.26174838  0.90641418  0.36763502  1
  O  O63  1  0.76616920  0.93074777  0.36169314  1
  O  O64  1  0.18125757  0.43660287  0.36676092  1
  O  O65  1  0.69150186  0.47849738  0.35962673  1
  O  O66  1  0.03513807  0.45974982  0.85750907  1
  O  O67  1  0.54574666  0.46670032  0.85496833  1
  O  O68  1  0.18910028  0.91621137  0.86914136  1
  O  O69  1  0.68065530  0.92428086  0.86634517  1
  O  O70  1  0.26447481  0.60364645  0.86129214  1
  O  O71  1  0.76591136  0.62679061  0.86714615  1
  O  O72  1  0.99000938  0.82550285  0.39679930  1
  O  O73  1  0.50614574  0.82921802  0.41357632  1
  O  O74  1  0.41864883  0.00860530  0.40296935  1
  O  O75  1  0.90959130  0.99940588  0.41051112  1
  O  O76  1  0.09001222  0.16270225  0.40924042  1
  O  O77  1  0.58437770  0.17674594  0.40716037  1
  O  O78  1  0.00684746  0.17941904  0.91127230  1
  O  O79  1  0.48960266  0.15491274  0.89807086  1
  O  O80  1  0.09496052  0.99117261  0.91784706  1
  O  O81  1  0.59013335  0.01746059  0.90934046  1
  O  O82  1  0.40940606  0.81818039  0.91027270  1
  O  O83  1  0.92460377  0.82687956  0.90280038  1
  O  O84  1  0.48335803  0.16345760  0.57495224  1
  O  O85  1  0.98511010  0.16273017  0.58683533  1
  O  O86  1  0.09095804  0.02296738  0.59119732  1
  O  O87  1  0.60773329  0.01769870  0.56819735  1
  O  O88  1  0.40517495  0.79828886  0.57097374  1
  O  O89  1  0.91796902  0.81647773  0.59121941  1
  O  O90  1  0.47969862  0.79761566  0.08305369  1
  O  O91  1  0.98344454  0.80424175  0.07387823  1
  O  O92  1  0.41765936  0.01947275  0.08963394  1
  O  O93  1  0.90668842  0.01481838  0.07043283  1
  O  O94  1  0.10650024  0.19805742  0.06842005  1
  O  O95  1  0.59130309  0.15630167  0.09037804  1
  O  O96  1  0.36217081  0.16097747  0.76212930  1
  O  O97  1  0.86025488  0.18144564  0.74976615  1
  O  O98  1  0.22997748  0.29520269  0.75352712  1
  O  O99  1  0.72480136  0.29440454  0.76422295  1
  O  O100  1  0.41968996  0.52304580  0.76228689  1
  O  O101  1  0.92700262  0.55512166  0.75009374  1
  O  O102  1  0.36215732  0.54458060  0.24905208  1
  O  O103  1  0.86057926  0.56272229  0.26141444  1
  O  O104  1  0.42679411  0.30033145  0.24836941  1
  O  O105  1  0.91967785  0.31697786  0.26272307  1
  O  O106  1  0.22525856  0.15337202  0.26434840  1
  O  O107  1  0.72982278  0.16255450  0.25214462  1
  O  O108  1  0.33244658  0.49968343  0.93791155  1
  O  O109  1  0.84032264  0.50341498  0.93031953  1
  O  O110  1  0.41709092  0.32854757  0.92796722  1
  O  O111  1  0.91869520  0.32149893  0.93942127  1
  O  O112  1  0.24289775  0.14573130  0.93527474  1
  O  O113  1  0.73907104  0.16376138  0.92529916  1
  O  O114  1  0.34038321  0.17516431  0.43129191  1
  O  O115  1  0.83598240  0.16609243  0.44028479  1
  O  O116  1  0.23896847  0.31282896  0.42543117  1
  O  O117  1  0.74310326  0.33214559  0.43567669  1
  O  O118  1  0.41729076  0.51151510  0.44016184  1
  O  O119  1  0.91617246  0.50747415  0.42596618  1
  O  O120  1  0.17990039  0.50055873  0.06681390  1
  O  O121  1  0.67562086  0.49413538  0.07674199  1
  O  O122  1  0.07776445  0.65422465  0.06097147  1
  O  O123  1  0.56345277  0.66234916  0.07593574  1
  O  O124  1  0.25228838  0.84971805  0.06176652  1
  O  O125  1  0.75619741  0.85885950  0.07621714  1
  O  O126  1  0.17495444  0.85444949  0.57804026  1
  O  O127  1  0.68096272  0.86126690  0.56669099  1
  O  O128  1  0.25481756  0.65338082  0.57635726  1
  O  O129  1  0.75209757  0.65727587  0.56413554  1
  O  O130  1  0.06774683  0.46537145  0.58042474  1
  O  O131  1  0.57766877  0.50635135  0.56565234  1
  O  O132  1  0.14782173  0.84809544  0.25634784  1
  O  O133  1  0.63550281  0.81785526  0.24456764  1
  O  O134  1  0.27141678  0.70400948  0.24666636  1
  O  O135  1  0.77212499  0.69083208  0.25411062  1
  O  O136  1  0.08521014  0.48509550  0.25153086  1
  O  O137  1  0.57714914  0.44874728  0.24509576  1
  O  O138  1  0.13551665  0.44908272  0.74713654  1
  O  O139  1  0.64747722  0.44457167  0.75807652  1
  O  O140  1  0.07738572  0.70944205  0.74823208  1
  O  O141  1  0.58518036  0.68564704  0.75117360  1
  O  O142  1  0.27198991  0.85716852  0.75713989  1
  O  O143  1  0.76894505  0.83751101  0.74485016  1
loop_
_geom_bond_atom_site_label_1
_geom_bond_atom_site_label_2
_geom_bond_distance
_geom_bond_site_symmetry_2
Na0 O136 2.359675 1_555
Na0 O105 2.384564 1_455
Na0 O60 2.412725 1_555
Na0 O103 2.430325 1_455
Na0 O132 2.456552 1_555
Na0 O31 2.793203 1_455
Na1 O102 2.263383 1_555
Na1 O133 2.285916 1_555
Na1 O61 2.356602 1_555
Na1 O104 2.658425 1_555
Na1 O137 2.736256 1_555
Na2 O97 2.254989 1_555
Na2 O138 2.283019 1_655
Na2 O66 2.582684 1_655
Na2 O101 2.598524 1_555
Na2 O140 2.695242 1_655
Na2 O25 2.855052 1_555
Na3 O141 2.350491 1_555
Na3 O100 2.402346 1_555
Na3 O96 2.415119 1_555
Na3 O139 2.456806 1_555
Na3 O67 2.509239 1_555
Na3 O24 2.664398 1_555
Na4 O54 2.414495 1_555
Na4 O84 2.452665 1_565
Na4 O126 2.512815 1_555
Na4 O128 2.647027 1_555
Na4 O88 2.679058 1_555
Na4 O46 2.870020 1_565
Na4 O26 2.949051 1_565
Na5 O91 2.473147 1_555
Na5 O121 2.477150 1_555
Na5 O49 2.480577 1_554
Na5 O125 2.653115 1_555
Na5 O93 2.723612 1_565
Na5 O35 2.860166 1_555
Na5 O39 2.893572 1_555
Na6 O86 2.555090 1_565
Na6 O89 2.565044 1_455
Na6 O85 2.730839 1_465
Na6 O76 2.785849 1_565
Na6 O72 2.833862 1_455
Na6 O75 2.876470 1_455
Na7 O84 2.466326 1_555
Na7 O77 2.531593 1_555
Na7 O73 2.586650 1_545
Na7 O74 2.614231 1_555
Na7 O88 2.643115 1_545
Na7 O87 2.662764 1_555
Na8 O91 2.427039 1_556
Na8 O93 2.530140 1_566
Na8 O80 2.556550 1_655
Na8 O83 2.574771 1_555
Na8 O78 2.629243 1_665
Na8 O94 2.684609 1_666
Na9 O95 2.452496 1_555
Na9 O92 2.477978 1_555
Na9 O90 2.661157 1_545
Na9 O81 2.838942 1_554
Na9 O79 2.899222 1_554
Na9 O82 2.956712 1_544
Na10 O100 2.269864 1_555
Na10 O98 2.342526 1_555
Na10 O96 2.754633 1_555
Na10 O108 2.863860 1_555
Na11 O99 2.531091 1_555
Na11 O113 2.637121 1_555
Na11 O109 2.642111 1_555
Na11 O97 2.704103 1_555
Na11 O101 2.822723 1_555
Na11 O111 2.940313 1_555
Na12 O116 2.582460 1_555
Na12 O106 2.598208 1_555
Na12 O114 2.624644 1_555
Na12 O102 2.801900 1_555
Na12 O118 2.847620 1_555
Na12 O104 2.891079 1_555
Na13 O105 2.320958 1_555
Na13 O107 2.391329 1_555
Na13 O103 2.792517 1_555
Na13 O115 2.905189 1_555
Na13 O119 2.962656 1_555
Na13 O117 3.003660 1_555
Na13 O63 3.009236 1_545
Na14 O134 2.317128 1_555
Na14 O136 2.349075 1_555
Na14 O132 2.776958 1_555
Na14 O120 3.006766 1_555
Na15 O133 2.477672 1_555
Na15 O137 2.559317 1_555
Na15 O121 2.763733 1_555
Na15 O135 2.766356 1_555
Na15 O125 2.808074 1_555
Na15 O123 2.897423 1_555
Na16 O126 2.549381 1_555
Na16 O130 2.631588 1_555
Na16 O128 2.647569 1_555
Na16 O138 2.736125 1_555
Na16 O140 2.745821 1_555
Na16 O142 2.976663 1_555
Na17 O143 2.433866 1_555
Na17 O141 2.521053 1_555
Na17 O127 2.805405 1_555
Na17 O129 2.952179 1_555
Na17 O131 2.989538 1_555
Na17 O139 3.015063 1_555
La0 O17 2.164619 1_555
La0 O15 2.379989 1_565
La0 O84 2.411690 1_565
La0 O87 2.452432 1_565
La0 O12 2.470637 1_555
La0 O88 2.492095 1_555
La1 O20 2.146250 1_455
La1 O22 2.372256 1_555
La1 O19 2.415856 1_445
La1 O91 2.428096 1_445
La1 O94 2.492406 1_555
La1 O93 2.521807 1_455
La2 O26 2.235786 1_555
La2 O98 2.363289 1_555
La2 O100 2.379270 1_555
La2 O24 2.380190 1_555
La2 O28 2.382455 1_555
La2 O96 2.696143 1_555
La3 O29 2.187199 1_555
La3 O27 2.404534 1_555
La3 O97 2.415758 1_555
La3 O25 2.472152 1_555
La3 O99 2.492136 1_555
La3 O101 2.561737 1_555
La4 O32 2.225991 1_555
La4 O102 2.355868 1_555
La4 O106 2.453983 1_555
La4 O34 2.464592 1_555
La4 O30 2.467723 1_555
La4 O104 2.493397 1_555
La5 O35 2.252348 1_555
La5 O107 2.324613 1_555
La5 O105 2.372252 1_555
La5 O33 2.391197 1_555
La5 O31 2.440118 1_555
La5 O103 2.640448 1_555
La6 O51 2.219892 1_554
La6 O121 2.263643 1_555
La6 O49 2.325869 1_554
La6 O125 2.512114 1_555
La6 O123 2.570388 1_555
La6 O53 2.590711 1_554
La7 O58 2.213831 1_555
La7 O126 2.278856 1_555
La7 O54 2.304036 1_555
La7 O128 2.544751 1_555
La7 O56 2.570903 1_555
La7 O130 2.590403 1_555
La8 O62 2.260000 1_555
La8 O134 2.349203 1_555
La8 O136 2.351089 1_555
La8 O60 2.387546 1_555
La8 O64 2.444512 1_555
La8 O132 2.499029 1_555
La9 O63 2.260896 1_555
La9 O65 2.287466 1_555
La9 O61 2.363675 1_555
La9 O133 2.521331 1_555
La9 O135 2.521831 1_555
La9 O137 2.737142 1_555
La10 O70 2.233369 1_555
La10 O66 2.311512 1_555
La10 O138 2.354058 1_555
La10 O142 2.481246 1_555
La10 O68 2.602234 1_555
La10 O140 2.676416 1_555
La11 O71 2.294723 1_555
La11 O141 2.334826 1_555
La11 O143 2.344249 1_555
La11 O67 2.400177 1_555
La11 O69 2.444749 1_555
La11 O139 2.455154 1_555
Nb0 O75 1.894213 1_545
Nb0 O5 1.897821 1_655
Nb0 O72 1.929294 1_545
Nb0 O3 2.067113 1_545
Nb0 O76 2.089645 1_655
Nb0 O0 2.249483 1_645
Nb1 O73 1.929478 1_555
Nb1 O1 1.933533 1_555
Nb1 O74 1.966959 1_565
Nb1 O2 1.969358 1_555
Nb1 O77 2.032865 1_565
Nb1 O4 2.403687 1_565
Nb2 O11 1.862430 1_555
Nb2 O6 1.911274 1_655
Nb2 O78 1.940498 1_655
Nb2 O83 1.955084 1_545
Nb2 O9 2.279193 1_645
Nb2 O80 2.530167 1_645
Nb3 O8 1.886277 1_555
Nb3 O82 1.914481 1_555
Nb3 O79 1.941266 1_565
Nb3 O10 2.061233 1_555
Nb3 O81 2.086248 1_565
Nb3 O7 2.212821 1_565
Nb4 O14 1.938095 1_565
Nb4 O13 1.943490 1_455
Nb4 O86 1.996415 1_565
Nb4 O89 2.028129 1_455
Nb4 O85 2.131306 1_465
Nb4 O16 2.144170 1_555
Nb5 O23 1.904447 1_555
Nb5 O18 1.908841 1_545
Nb5 O95 2.034661 1_555
Nb5 O21 2.048905 1_555
Nb5 O92 2.098342 1_555
Nb5 O90 2.297207 1_545
Nb6 O110 1.849943 1_555
Nb6 O40 1.919518 1_556
Nb6 O108 1.955359 1_555
Nb6 O112 2.086571 1_555
Nb6 O38 2.129870 1_556
Nb6 O36 2.202847 1_556
Nb7 O39 1.867538 1_556
Nb7 O109 1.908336 1_555
Nb7 O37 1.945977 1_556
Nb7 O111 1.997662 1_555
Nb7 O41 2.200936 1_556
Nb7 O113 2.251239 1_555
Nb8 O46 1.869343 1_555
Nb8 O114 1.899416 1_555
Nb8 O42 1.965948 1_555
Nb8 O118 1.972089 1_555
Nb8 O44 2.205489 1_555
Nb8 O116 2.272734 1_555
Nb9 O117 1.874464 1_555
Nb9 O119 1.878204 1_555
Nb9 O45 1.947753 1_555
Nb9 O115 1.947959 1_555
Nb9 O43 2.197358 1_555
Nb9 O47 2.452210 1_555
Nb10 O122 1.939986 1_555
Nb10 O124 1.959543 1_555
Nb10 O48 1.984610 1_554
Nb10 O50 2.004047 1_554
Nb10 O120 2.090211 1_555
Nb10 O52 2.134961 1_554
Nb11 O57 1.892366 1_555
Nb11 O131 1.981717 1_555
Nb11 O55 2.002711 1_555
Nb11 O129 2.008970 1_555
Nb11 O59 2.010854 1_555
Nb11 O127 2.248537 1_555
O0 S0 1.472819 1_565
O1 Si0 1.668578 1_555
O2 Si1 1.666646 1_555
O3 S1 1.506801 1_555
O4 S2 1.450662 1_555
O5 Si2 1.709264 1_555
O6 Si3 1.686676 1_555
O7 S3 1.478875 1_555
O8 Si4 1.718223 1_555
O9 S4 1.472776 1_555
O10 S5 1.511551 1_555
O11 Si5 1.729926 1_555
O12 S5 1.469723 1_555
O13 Si5 1.660511 1_565
O14 Si3 1.677274 1_555
O15 S3 1.477298 1_555
O16 S4 1.497601 1_555
O17 Si4 1.619321 1_555
O18 Si1 1.692339 1_555
O19 S1 1.479663 1_555
O20 Si2 1.625016 1_655
O21 S2 1.527303 1_555
O22 S0 1.483179 1_555
O23 Si0 1.711778 1_545
O24 Si6 1.611110 1_555
O25 S6 1.485496 1_555
O26 Si7 1.602462 1_555
O27 S7 1.488443 1_555
O28 S8 1.466699 1_555
O29 Si8 1.614644 1_555
O30 S9 1.469306 1_555
O31 Si9 1.600631 1_555
O32 Si10 1.604843 1_555
O33 S10 1.462905 1_555
O34 S11 1.471286 1_555
O35 Si11 1.601728 1_555
O36 S11 1.466561 1_555
O37 Si11 1.701226 1_555
O38 S9 1.515583 1_555
O39 Si9 1.701584 1_555
O40 Si10 1.696865 1_555
O41 S10 1.479223 1_555
O42 Si7 1.686860 1_555
O43 S7 1.466034 1_555
O44 S8 1.475368 1_555
O45 Si8 1.675700 1_555
O46 Si6 1.710243 1_555
O47 S6 1.466075 1_555
O48 Si12 1.638543 1_555
O49 Si13 1.616667 1_555
O50 Si14 1.668046 1_555
O51 Si15 1.600966 1_555
O52 S12 1.491252 1_555
O53 S13 1.461946 1_555
O54 Si16 1.619608 1_555
O55 Si17 1.633544 1_555
O56 S14 1.462284 1_555
O57 Si18 1.666948 1_555
O58 Si19 1.606534 1_555
O59 Si20 1.651580 1_555
O60 Si19 1.595212 1_555
O61 Si20 1.616644 1_555
O62 Si16 1.597274 1_555
O63 Si17 1.598214 1_555
O64 S14 1.462729 1_555
O65 Si18 1.587706 1_555
O66 Si14 1.619052 1_555
O67 Si15 1.591097 1_555
O68 S12 1.461561 1_555
O69 S13 1.461541 1_555
O70 Si12 1.598989 1_555
O71 Si13 1.597353 1_555
O72 Si19 1.655679 1_655
O73 Si20 1.680267 1_555
O74 Si16 1.646666 1_545
O75 Si17 1.695475 1_555
O76 S14 1.522901 1_555
O77 Si18 1.627128 1_555
O78 Si14 1.693542 1_555
O79 Si15 1.646838 1_555
O80 S12 1.469671 1_555
O81 S13 1.524067 1_545
O82 Si12 1.677219 1_555
O83 Si13 1.672393 1_555
O84 Si6 1.631101 1_555
O85 S6 1.528117 1_555
O86 Si7 1.674317 1_555
O87 S7 1.484528 1_555
O88 S8 1.494596 1_555
O89 Si8 1.671267 1_555
O90 S9 1.499543 1_555
O91 Si9 1.625886 1_555
O92 Si10 1.645752 1_555
O93 S10 1.495099 1_555
O94 S11 1.472005 1_555
O95 Si11 1.666610 1_555
O96 S5 1.475174 1_545
O97 Si5 1.626124 1_555
O98 Si3 1.593505 1_555
O99 S3 1.485712 1_555
O100 Si4 1.621414 1_555
O101 S4 1.493742 1_655
O102 Si1 1.639742 1_555
O103 S1 1.475798 1_555
O104 S2 1.496325 1_555
O105 Si2 1.621650 1_655
O106 S0 1.488116 1_555
O107 Si0 1.598956 1_545
O108 Si12 1.642441 1_555
O109 Si13 1.681266 1_555
O110 Si15 1.714287 1_555
O111 Si14 1.634846 1_655
O112 S12 1.514552 1_545
O113 S13 1.480941 1_545
O114 Si16 1.684982 1_545
O115 Si17 1.636232 1_545
O116 S14 1.480189 1_555
O117 Si18 1.677237 1_555
O118 Si20 1.645087 1_555
O119 Si19 1.687862 1_655
O120 S11 1.505145 1_555
O121 Si11 1.630029 1_555
O122 Si9 1.672310 1_455
O123 S9 1.462838 1_555
O124 Si10 1.659850 1_565
O125 S10 1.480880 1_565
O126 Si7 1.627663 1_565
O127 S7 1.475845 1_565
O128 S8 1.479859 1_555
O129 Si8 1.640234 1_555
O130 S6 1.474189 1_455
O131 Si6 1.651777 1_555
O132 S0 1.473491 1_565
O133 Si0 1.630644 1_555
O134 Si1 1.601941 1_555
O135 S1 1.463908 1_555
O136 Si2 1.621283 1_555
O137 S2 1.477212 1_555
O138 Si3 1.644590 1_555
O139 S3 1.471553 1_555
O140 S4 1.484825 1_555
O141 Si4 1.620212 1_555
O142 S5 1.471086 1_555
O143 Si5 1.591821 1_565
