# generated using pymatgen
data_Na2YZr(PO4)3
_symmetry_space_group_name_H-M   'P 1'
_cell_length_a   9.14887530
_cell_length_b   9.14887497
_cell_length_c   23.51959897
_cell_angle_alpha   89.78703095
_cell_angle_beta   90.21296903
_cell_angle_gamma   120.51225473
_symmetry_Int_Tables_number   1
_chemical_formula_structural   Na2YZr(PO4)3
_chemical_formula_sum   'Na12 Y6 Zr6 P18 O72'
_cell_volume   1696.00446958
_cell_formula_units_Z   6
loop_
 _symmetry_equiv_pos_site_id
 _symmetry_equiv_pos_as_xyz
  1  'x, y, z'
loop_
 _atom_site_type_symbol
 _atom_site_label
 _atom_site_symmetry_multiplicity
 _atom_site_fract_x
 _atom_site_fract_y
 _atom_site_fract_z
 _atom_site_occupancy
  Na  Na0  1  0.36256882  0.35579748  0.24898700  1
  Na  Na1  1  0.64420252  0.63743118  0.74898700  1
  Na  Na2  1  0.02923582  0.68913048  0.58232000  1
  Na  Na3  1  0.31086952  0.97076418  0.08232000  1
  Na  Na4  1  0.69590182  0.02246448  0.91565400  1
  Na  Na5  1  0.97753552  0.30409818  0.41565400  1
  Na  Na6  1  0.99950403  0.99811966  0.49859749  1
  Na  Na7  1  0.00188034  0.00049597  0.99859749  1
  Na  Na8  1  0.66617103  0.33145266  0.83193049  1
  Na  Na9  1  0.66854734  0.33382897  0.33193049  1
  Na  Na10  1  0.33283703  0.66478666  0.16526449  1
  Na  Na11  1  0.33521334  0.66716297  0.66526449  1
  Y  Y0  1  0.99590072  0.98491663  0.35188256  1
  Y  Y1  1  0.01508337  0.00409928  0.85188256  1
  Y  Y2  1  0.66256772  0.31824963  0.68521556  1
  Y  Y3  1  0.68175037  0.33743228  0.18521556  1
  Y  Y4  1  0.32923372  0.65158363  0.01854956  1
  Y  Y5  1  0.34841637  0.67076628  0.51854956  1
  Zr  Zr0  1  0.00361237  0.01133288  0.64913534  1
  Zr  Zr1  1  0.98866712  0.99638763  0.14913534  1
  Zr  Zr2  1  0.67027937  0.34466588  0.98246834  1
  Zr  Zr3  1  0.65533412  0.32972063  0.48246834  1
  Zr  Zr4  1  0.33694537  0.67799988  0.31580234  1
  Zr  Zr5  1  0.32200012  0.66305463  0.81580234  1
  P  P0  1  0.29006335  0.99417840  0.24757852  1
  P  P1  1  0.69280097  0.70275123  0.24987045  1
  P  P2  1  0.01041006  0.29860997  0.25356840  1
  P  P3  1  0.29724877  0.30719903  0.74987045  1
  P  P4  1  0.00582160  0.70993665  0.74757852  1
  P  P5  1  0.70139003  0.98958994  0.75356840  1
  P  P6  1  0.95673035  0.32751140  0.58091152  1
  P  P7  1  0.35946797  0.03608423  0.58320345  1
  P  P8  1  0.67707706  0.63194297  0.58690140  1
  P  P9  1  0.96391577  0.64053203  0.08320345  1
  P  P10  1  0.67248860  0.04326965  0.08091152  1
  P  P11  1  0.36805703  0.32292294  0.08690140  1
  P  P12  1  0.62339635  0.66084540  0.91424552  1
  P  P13  1  0.02613397  0.36941823  0.91653745  1
  P  P14  1  0.34374306  0.96527697  0.92023540  1
  P  P15  1  0.63058177  0.97386603  0.41653745  1
  P  P16  1  0.33915460  0.37660365  0.41424552  1
  P  P17  1  0.03472303  0.65625694  0.42023540  1
  O  O0  1  0.20468992  0.02112609  0.29889594  1
  O  O1  1  0.79572665  0.78152995  0.30338532  1
  O  O2  1  0.99263959  0.20259320  0.30878040  1
  O  O3  1  0.21847005  0.20427335  0.80338532  1
  O  O4  1  0.97887391  0.79531008  0.79889594  1
  O  O5  1  0.79740680  0.00736041  0.80878040  1
  O  O6  1  0.80210139  0.97227810  0.70195652  1
  O  O7  1  0.18651723  0.21106273  0.69661143  1
  O  O8  1  0.02757879  0.81842972  0.69290752  1
  O  O9  1  0.78893727  0.81348277  0.19661143  1
  O  O10  1  0.02772190  0.19789861  0.20195652  1
  O  O11  1  0.18157028  0.97242121  0.19290752  1
  O  O12  1  0.87135692  0.35445909  0.63222894  1
  O  O13  1  0.46239365  0.11486295  0.63671832  1
  O  O14  1  0.65930659  0.53592620  0.64211340  1
  O  O15  1  0.88513705  0.53760635  0.13671832  1
  O  O16  1  0.64554091  0.12864308  0.13222894  1
  O  O17  1  0.46407380  0.34069341  0.14211340  1
  O  O18  1  0.46876839  0.30561110  0.03528952  1
  O  O19  1  0.85318423  0.54439573  0.02994443  1
  O  O20  1  0.69424579  0.15176272  0.02624052  1
  O  O21  1  0.45560427  0.14681577  0.52994443  1
  O  O22  1  0.69438890  0.53123161  0.53528952  1
  O  O23  1  0.84823728  0.30575421  0.52624052  1
  O  O24  1  0.53802292  0.68779309  0.96556294  1
  O  O25  1  0.12905965  0.44819695  0.97005232  1
  O  O26  1  0.32597259  0.86926020  0.97544740  1
  O  O27  1  0.55180305  0.87094035  0.47005232  1
  O  O28  1  0.31220691  0.46197708  0.46556294  1
  O  O29  1  0.13073980  0.67402741  0.47544740  1
  O  O30  1  0.13543439  0.63894510  0.36862352  1
  O  O31  1  0.51985023  0.87772973  0.36327843  1
  O  O32  1  0.36091179  0.48509672  0.35957452  1
  O  O33  1  0.12227027  0.48014977  0.86327843  1
  O  O34  1  0.36105490  0.86456561  0.86862352  1
  O  O35  1  0.51490328  0.63908821  0.85957452  1
  O  O36  1  0.00656053  0.80637217  0.41357633  1
  O  O37  1  0.81391687  0.00951134  0.41117283  1
  O  O38  1  0.17869612  0.19949048  0.40987591  1
  O  O39  1  0.99048866  0.18608313  0.91117283  1
  O  O40  1  0.19362783  0.99343947  0.91357633  1
  O  O41  1  0.80050952  0.82130388  0.90987591  1
  O  O42  1  0.97055293  0.16547271  0.58831684  1
  O  O43  1  0.18327501  0.02526472  0.58680728  1
  O  O44  1  0.84824855  0.80652647  0.58809393  1
  O  O45  1  0.97473528  0.81672499  0.08680728  1
  O  O46  1  0.83452729  0.02944707  0.08831684  1
  O  O47  1  0.19347353  0.15175145  0.08809393  1
  O  O48  1  0.67322753  0.13970517  0.74690933  1
  O  O49  1  0.48058387  0.34284434  0.74450583  1
  O  O50  1  0.84536312  0.53282348  0.74320891  1
  O  O51  1  0.65715566  0.51941613  0.24450583  1
  O  O52  1  0.86029483  0.32677247  0.24690933  1
  O  O53  1  0.46717652  0.15463688  0.24320891  1
  O  O54  1  0.63721993  0.49880571  0.92164984  1
  O  O55  1  0.84994201  0.35859772  0.92014028  1
  O  O56  1  0.51491555  0.13985947  0.92142693  1
  O  O57  1  0.64140228  0.15005799  0.42014028  1
  O  O58  1  0.50119429  0.36278007  0.42164984  1
  O  O59  1  0.86014053  0.48508445  0.42142693  1
  O  O60  1  0.33989353  0.47303917  0.08024333  1
  O  O61  1  0.14724987  0.67617834  0.07783983  1
  O  O62  1  0.51202912  0.86615748  0.07654291  1
  O  O63  1  0.32382166  0.85275013  0.57783983  1
  O  O64  1  0.52696083  0.66010647  0.58024333  1
  O  O65  1  0.13384252  0.48797088  0.57654291  1
  O  O66  1  0.30388593  0.83213971  0.25498384  1
  O  O67  1  0.51660801  0.69193172  0.25347428  1
  O  O68  1  0.18158155  0.47319347  0.25476093  1
  O  O69  1  0.30806828  0.48339199  0.75347428  1
  O  O70  1  0.16786029  0.69611407  0.75498384  1
  O  O71  1  0.52680653  0.81841845  0.75476093  1
loop_
_geom_bond_atom_site_label_1
_geom_bond_atom_site_label_2
_geom_bond_distance
_geom_bond_site_symmetry_2
Na0 O51 2.328061 1_555
Na0 O68 2.392161 1_555
Na0 O53 2.472410 1_555
Na0 O67 2.656097 1_555
Na0 O17 2.711097 1_555
Na0 O10 2.861489 1_555
Na0 O32 2.864616 1_555
Na0 O0 2.886907 1_555
Na1 O49 2.328061 1_555
Na1 O71 2.392161 1_555
Na1 O50 2.472410 1_555
Na1 O69 2.656097 1_555
Na1 O14 2.711097 1_555
Na1 O6 2.861489 1_555
Na1 O35 2.864616 1_555
Na1 O4 2.886907 1_555
Na2 O63 2.328053 1_555
Na2 O44 2.392161 1_455
Na2 O65 2.472393 1_555
Na2 O43 2.656097 1_565
Na2 O29 2.711070 1_555
Na2 O22 2.861489 1_455
Na2 O8 2.864616 1_555
Na2 O12 2.886907 1_455
Na3 O61 2.328053 1_555
Na3 O47 2.392161 1_565
Na3 O62 2.472393 1_555
Na3 O45 2.656097 1_455
Na3 O26 2.711070 1_554
Na3 O18 2.861489 1_565
Na3 O11 2.864616 1_555
Na3 O16 2.886907 1_565
Na4 O39 2.328061 1_555
Na4 O56 2.392144 1_555
Na4 O41 2.472410 1_545
Na4 O55 2.656087 1_555
Na4 O5 2.711097 1_555
Na4 O34 2.861489 1_545
Na4 O20 2.864589 1_556
Na4 O24 2.886907 1_545
Na5 O37 2.328061 1_555
Na5 O59 2.392144 1_555
Na5 O38 2.472410 1_655
Na5 O57 2.656087 1_555
Na5 O2 2.711097 1_555
Na5 O30 2.861489 1_655
Na5 O23 2.864589 1_555
Na5 O28 2.886907 1_655
Na6 O43 2.597413 1_665
Na6 O44 2.636150 1_555
Na6 O36 2.687441 1_655
Na6 O37 2.697007 1_565
Na6 O42 2.703177 1_565
Na6 O38 2.714034 1_665
Na7 O45 2.597413 1_446
Na7 O47 2.636150 1_556
Na7 O40 2.687441 1_545
Na7 O39 2.697007 1_455
Na7 O46 2.703177 1_456
Na7 O41 2.714034 1_445
Na8 O55 2.597413 1_555
Na8 O56 2.636150 1_555
Na8 O48 2.687441 1_555
Na8 O49 2.697007 1_555
Na8 O54 2.703177 1_555
Na8 O50 2.714034 1_555
Na9 O57 2.597413 1_555
Na9 O59 2.636150 1_555
Na9 O52 2.687441 1_555
Na9 O51 2.697007 1_555
Na9 O58 2.703177 1_555
Na9 O53 2.714034 1_555
Na10 O67 2.597413 1_555
Na10 O68 2.636150 1_555
Na10 O60 2.687441 1_555
Na10 O61 2.697007 1_555
Na10 O66 2.703177 1_555
Na10 O62 2.714034 1_555
Na11 O69 2.597413 1_555
Na11 O71 2.636150 1_555
Na11 O64 2.687441 1_555
Na11 O63 2.697007 1_555
Na11 O70 2.703177 1_555
Na11 O65 2.714034 1_555
O0 P0 1.527213 1_545
O0 Y0 2.164182 1_445
O1 P1 1.516290 1_555
O1 Y0 2.158069 1_555
O2 P2 1.527231 1_655
O2 Y0 2.244934 1_545
O3 P3 1.516290 1_555
O3 Y1 2.158069 1_555
O4 P4 1.527213 1_655
O4 Y1 2.164182 1_665
O5 P5 1.527231 1_545
O5 Y1 2.244934 1_655
O6 P5 1.582883 1_555
O6 Zr0 2.101128 1_665
O7 P3 1.569376 1_555
O7 Zr0 2.069382 1_555
O8 P4 1.571631 1_555
O8 Zr0 2.144855 1_565
O9 P1 1.569376 1_555
O9 Zr1 2.069382 1_555
O10 P2 1.582883 1_555
O10 Zr1 2.101128 1_445
O11 P0 1.571631 1_555
O11 Zr1 2.144855 1_455
O12 P6 1.527213 1_555
O12 Y2 2.164182 1_555
O13 P7 1.516290 1_555
O13 Y2 2.158069 1_555
O14 P8 1.527231 1_555
O14 Y2 2.244934 1_555
O15 P9 1.516290 1_555
O15 Y3 2.158069 1_555
O16 P10 1.527213 1_555
O16 Y3 2.164182 1_555
O17 P11 1.527231 1_555
O17 Y3 2.244934 1_555
O18 P11 1.582883 1_555
O18 Zr2 2.101128 1_554
O19 P9 1.569376 1_555
O19 Zr2 2.069382 1_554
O20 P10 1.571631 1_555
O20 Zr2 2.144855 1_554
O21 P7 1.569376 1_555
O21 Zr3 2.069382 1_555
O22 P8 1.582883 1_555
O22 Zr3 2.101128 1_555
O23 P6 1.571631 1_555
O23 Zr3 2.144855 1_555
O24 P12 1.527213 1_555
O24 Y4 2.164182 1_556
O25 P13 1.516290 1_555
O25 Y4 2.158069 1_556
O26 P14 1.527231 1_555
O26 Y4 2.244934 1_556
O27 P15 1.516290 1_555
O27 Y5 2.158069 1_555
O28 P16 1.527213 1_555
O28 Y5 2.164182 1_555
O29 P17 1.527231 1_555
O29 Y5 2.244934 1_555
O30 P17 1.582883 1_555
O30 Zr4 2.101128 1_555
O31 P15 1.569376 1_555
O31 Zr4 2.069382 1_555
O32 P16 1.571631 1_555
O32 Zr4 2.144855 1_555
O33 P13 1.569376 1_555
O33 Zr5 2.069382 1_555
O34 P14 1.582883 1_555
O34 Zr5 2.101128 1_555
O35 P12 1.571631 1_555
O35 Zr5 2.144855 1_555
O36 P17 1.527917 1_555
O36 Y0 2.219528 1_455
O37 P15 1.543199 1_545
O37 Y0 2.273165 1_545
O38 P16 1.541397 1_555
O38 Y0 2.276019 1_445
O39 P13 1.543199 1_655
O39 Y1 2.273165 1_655
O40 P14 1.527917 1_555
O40 Y1 2.219528 1_565
O41 P12 1.541397 1_555
O41 Y1 2.276019 1_665
O42 P6 1.559595 1_555
O42 Zr0 2.131005 1_655
O43 P7 1.566636 1_555
O43 Zr0 2.161195 1_555
O44 P8 1.569859 1_555
O44 Zr0 2.211969 1_665
O45 P9 1.566636 1_555
O45 Zr1 2.161195 1_555
O46 P10 1.559595 1_555
O46 Zr1 2.131005 1_545
O47 P11 1.569859 1_555
O47 Zr1 2.211969 1_445
O48 P5 1.527917 1_545
O48 Y2 2.219528 1_555
O49 P3 1.543199 1_555
O49 Y2 2.273165 1_555
O50 P4 1.541397 1_655
O50 Y2 2.276019 1_555
O51 P1 1.543199 1_555
O51 Y3 2.273165 1_555
O52 P2 1.527917 1_655
O52 Y3 2.219528 1_555
O53 P0 1.541397 1_545
O53 Y3 2.276019 1_555
O54 P12 1.559607 1_555
O54 Zr2 2.131005 1_555
O55 P13 1.566621 1_655
O55 Zr2 2.161195 1_555
O56 P14 1.569859 1_545
O56 Zr2 2.211969 1_555
O57 P15 1.566621 1_545
O57 Zr3 2.161195 1_555
O58 P16 1.559607 1_555
O58 Zr3 2.131005 1_555
O59 P17 1.569859 1_655
O59 Zr3 2.211969 1_555
O60 P11 1.527929 1_555
O60 Y4 2.219528 1_555
O61 P9 1.543185 1_455
O61 Y4 2.273165 1_555
O62 P10 1.541394 1_565
O62 Y4 2.276019 1_555
O63 P7 1.543185 1_565
O63 Y5 2.273165 1_555
O64 P8 1.527929 1_555
O64 Y5 2.219528 1_555
O65 P6 1.541394 1_455
O65 Y5 2.276019 1_555
O66 P0 1.559595 1_555
O66 Zr4 2.131005 1_555
O67 P1 1.566636 1_555
O67 Zr4 2.161195 1_555
O68 P2 1.569859 1_555
O68 Zr4 2.211969 1_555
O69 P3 1.566636 1_555
O69 Zr5 2.161195 1_555
O70 P4 1.559595 1_555
O70 Zr5 2.131005 1_555
O71 P5 1.569859 1_555
O71 Zr5 2.211969 1_555
