# generated using pymatgen
data_Na14Al4In4Si7S5O48
_symmetry_space_group_name_H-M   'P 1'
_cell_length_a   18.00873353
_cell_length_b   8.98847057
_cell_length_c   22.14180241
_cell_angle_alpha   89.83701509
_cell_angle_beta   89.84016259
_cell_angle_gamma   120.04772089
_symmetry_Int_Tables_number   1
_chemical_formula_structural   Na14Al4In4Si7S5O48
_chemical_formula_sum   'Na42 Al12 In12 Si21 S15 O144'
_cell_volume   3102.39171913
_cell_formula_units_Z   3
loop_
 _symmetry_equiv_pos_site_id
 _symmetry_equiv_pos_as_xyz
  1  'x, y, z'
loop_
 _atom_site_type_symbol
 _atom_site_label
 _atom_site_symmetry_multiplicity
 _atom_site_fract_x
 _atom_site_fract_y
 _atom_site_fract_z
 _atom_site_occupancy
  Na  Na0  1  0.81291820  0.98987052  0.23986767  1
  Na  Na1  1  0.18648844  0.36819005  0.25773152  1
  Na  Na2  1  0.68772501  0.36606800  0.25462597  1
  Na  Na3  1  0.99597565  0.64050416  0.23979410  1
  Na  Na4  1  0.50440496  0.65007401  0.24457622  1
  Na  Na5  1  0.31287006  0.63773580  0.75150362  1
  Na  Na6  1  0.00286522  0.35637815  0.74910154  1
  Na  Na7  1  0.49863329  0.35317109  0.74674304  1
  Na  Na8  1  0.18428298  0.00492353  0.75962318  1
  Na  Na9  1  0.68813681  0.00685472  0.76112483  1
  Na  Na10  1  0.14192027  0.33506460  0.58326268  1
  Na  Na11  1  0.64046385  0.33533544  0.58442440  1
  Na  Na12  1  0.33646688  0.97003415  0.58057023  1
  Na  Na13  1  0.83751312  0.97270013  0.58301853  1
  Na  Na14  1  0.13774234  0.94333940  0.08516618  1
  Na  Na15  1  0.65003395  0.95499196  0.08593172  1
  Na  Na16  1  0.33736363  0.70226257  0.08325513  1
  Na  Na17  1  0.83727663  0.71772060  0.08031284  1
  Na  Na18  1  0.48908420  0.68426774  0.92513859  1
  Na  Na19  1  0.98632375  0.67800962  0.92658076  1
  Na  Na20  1  0.34259492  0.01586630  0.91446689  1
  Na  Na21  1  0.84283873  0.02150045  0.92061786  1
  Na  Na22  1  0.16787606  0.29983027  0.90932568  1
  Na  Na23  1  0.67497272  0.31238941  0.91006387  1
  Na  Na24  1  0.48852454  0.29572133  0.42029480  1
  Na  Na25  1  0.98690051  0.28999958  0.42078999  1
  Na  Na26  1  0.17091069  0.03280430  0.40433512  1
  Na  Na27  1  0.66887652  0.03633956  0.40552658  1
  Na  Na28  1  0.34384283  0.66737647  0.40831707  1
  Na  Na29  1  0.84273371  0.67013268  0.41017619  1
  Na  Na30  1  0.99786387  0.00893513  0.49526299  1
  Na  Na31  1  0.49945154  0.01204810  0.49521007  1
  Na  Na32  1  0.99107531  0.98699068  0.00079893  1
  Na  Na33  1  0.50144373  0.98993662  0.99694276  1
  Na  Na34  1  0.32654665  0.32595489  0.83459329  1
  Na  Na35  1  0.82422542  0.33340408  0.83646101  1
  Na  Na36  1  0.32536537  0.31633697  0.33207960  1
  Na  Na37  1  0.82623473  0.32694964  0.32935348  1
  Na  Na38  1  0.16634854  0.67968317  0.17055296  1
  Na  Na39  1  0.66563738  0.67805638  0.16501593  1
  Na  Na40  1  0.15767667  0.65156228  0.67062397  1
  Na  Na41  1  0.66904546  0.65489145  0.67230478  1
  Al  Al0  1  0.99881879  0.99668795  0.34875354  1
  Al  Al1  1  0.50259280  0.00478462  0.34825083  1
  Al  Al2  1  0.00268151  0.00050787  0.84897668  1
  Al  Al3  1  0.49972286  0.00613707  0.85062663  1
  Al  Al4  1  0.33469728  0.32456647  0.69045287  1
  Al  Al5  1  0.83315565  0.33367004  0.18554267  1
  Al  Al6  1  0.33132448  0.34389648  0.97734139  1
  Al  Al7  1  0.83313400  0.33327143  0.98435890  1
  Al  Al8  1  0.33293801  0.32296344  0.48024528  1
  Al  Al9  1  0.83143477  0.31904385  0.47675518  1
  Al  Al10  1  0.68420074  0.68494325  0.31739893  1
  Al  Al11  1  0.18136434  0.67939631  0.81853372  1
  In  In0  1  0.00034681  0.02064278  0.65182362  1
  In  In1  1  0.49455396  0.01369616  0.65129632  1
  In  In2  1  0.99094059  0.98210054  0.14612421  1
  In  In3  1  0.50185539  0.98021334  0.15060929  1
  In  In4  1  0.83556233  0.33310497  0.69024295  1
  In  In5  1  0.33508558  0.33639653  0.18999143  1
  In  In6  1  0.16210794  0.67076668  0.01358475  1
  In  In7  1  0.67390409  0.69532413  0.01701743  1
  In  In8  1  0.16732381  0.65653452  0.51221001  1
  In  In9  1  0.66307623  0.65300540  0.51311728  1
  In  In10  1  0.18131107  0.68860723  0.31638702  1
  In  In11  1  0.68355980  0.67466918  0.81944559  1
  Si  Si0  1  0.14214679  0.99712320  0.25065441  1
  Si  Si1  1  0.65108489  0.99567245  0.25380482  1
  Si  Si2  1  0.35519488  0.71277508  0.25158492  1
  Si  Si3  1  0.85064604  0.69961329  0.25329058  1
  Si  Si4  1  0.15236357  0.30632600  0.75100505  1
  Si  Si5  1  0.64518794  0.29405842  0.75144140  1
  Si  Si6  1  0.34963314  0.99701462  0.75255032  1
  Si  Si7  1  0.85482487  0.99692997  0.75127503  1
  Si  Si8  1  0.47381425  0.34409807  0.58415416  1
  Si  Si9  1  0.97922490  0.34426932  0.57956234  1
  Si  Si10  1  0.47789640  0.61351276  0.07943774  1
  Si  Si11  1  0.97523255  0.60472078  0.08402287  1
  Si  Si12  1  0.83853391  0.06414884  0.08405778  1
  Si  Si13  1  0.31774567  0.66948343  0.91574115  1
  Si  Si14  1  0.82355176  0.66347246  0.91967192  1
  Si  Si15  1  0.16585230  0.96817708  0.91436142  1
  Si  Si16  1  0.66396855  0.97777222  0.91498886  1
  Si  Si17  1  0.32238272  0.97704365  0.42057314  1
  Si  Si18  1  0.81785056  0.96641189  0.41650537  1
  Si  Si19  1  0.16620902  0.35234770  0.41745899  1
  Si  Si20  1  0.66589647  0.36358876  0.41540250  1
  S  S0  1  0.99788022  0.28882070  0.25251077  1
  S  S1  1  0.50400192  0.29318468  0.25459715  1
  S  S2  1  0.00434789  0.71498221  0.75404660  1
  S  S3  1  0.49566228  0.70393366  0.74940768  1
  S  S4  1  0.19144823  0.05006146  0.58480071  1
  S  S5  1  0.68599621  0.03995252  0.57952170  1
  S  S6  1  0.33697614  0.61413562  0.58445190  1
  S  S7  1  0.83595645  0.62248165  0.57997484  1
  S  S8  1  0.33582357  0.04965042  0.07981861  1
  S  S9  1  0.18876517  0.33456944  0.07887673  1
  S  S10  1  0.68998707  0.33230950  0.08470899  1
  S  S11  1  0.02036610  0.36911194  0.91155493  1
  S  S12  1  0.51415282  0.36465723  0.91708006  1
  S  S13  1  0.01294733  0.66407555  0.41733416  1
  S  S14  1  0.51686898  0.66729302  0.41496983  1
  O  O0  1  0.09275155  0.02444428  0.30808528  1
  O  O1  1  0.59991547  0.03090758  0.30820868  1
  O  O2  1  0.41674172  0.82291692  0.30788452  1
  O  O3  1  0.91609513  0.79750116  0.30980360  1
  O  O4  1  0.49470083  0.18654297  0.30828316  1
  O  O5  1  0.98642647  0.18016349  0.30686456  1
  O  O6  1  0.10326328  0.16766157  0.80533920  1
  O  O7  1  0.59140964  0.16083634  0.80610333  1
  O  O8  1  0.48242522  0.78645890  0.80325154  1
  O  O9  1  0.99634590  0.80457728  0.80672453  1
  O  O10  1  0.41747727  0.03213318  0.80690276  1
  O  O11  1  0.91994514  0.01425146  0.80535395  1
  O  O12  1  0.37683054  0.93545392  0.68997709  1
  O  O13  1  0.88469324  0.96154902  0.68501095  1
  O  O14  1  0.10024971  0.24452705  0.68650407  1
  O  O15  1  0.59876665  0.22556400  0.68486933  1
  O  O16  1  0.01991389  0.81679887  0.69709802  1
  O  O17  1  0.51169863  0.80983270  0.69405771  1
  O  O18  1  0.38693553  0.81182656  0.18645636  1
  O  O19  1  0.87955487  0.81889445  0.19242365  1
  O  O20  1  0.01532168  0.21755230  0.19776110  1
  O  O21  1  0.51873799  0.22111039  0.19845834  1
  O  O22  1  0.09431121  0.98031376  0.18612666  1
  O  O23  1  0.59737197  0.95049865  0.19000316  1
  O  O24  1  0.42367889  0.34578916  0.64595663  1
  O  O25  1  0.94138163  0.36112175  0.64469904  1
  O  O26  1  0.24166541  0.13716306  0.64016482  1
  O  O27  1  0.73391445  0.11509007  0.63635228  1
  O  O28  1  0.32757771  0.51094895  0.63949820  1
  O  O29  1  0.82210805  0.51988666  0.63581430  1
  O  O30  1  0.43921338  0.52278511  0.14505451  1
  O  O31  1  0.92617949  0.50678235  0.14675229  1
  O  O32  1  0.32167179  0.12346882  0.13563047  1
  O  O33  1  0.82372945  0.15115774  0.14476523  1
  O  O34  1  0.23716122  0.35791610  0.13585391  1
  O  O35  1  0.73941791  0.34778749  0.14065432  1
  O  O36  1  0.23383198  0.31365264  0.02546097  1
  O  O37  1  0.73067061  0.31041413  0.02939178  1
  O  O38  1  0.41328618  0.51139461  0.02293946  1
  O  O39  1  0.91943048  0.51225744  0.02402347  1
  O  O40  1  0.33714684  0.14564711  0.02472784  1
  O  O41  1  0.83794471  0.15909244  0.02110006  1
  O  O42  1  0.23271303  0.15481297  0.52938644  1
  O  O43  1  0.73113215  0.15249716  0.52612894  1
  O  O44  1  0.33870348  0.52721949  0.52789414  1
  O  O45  1  0.83751330  0.53038835  0.52496453  1
  O  O46  1  0.41601829  0.32654732  0.52517471  1
  O  O47  1  0.91530401  0.31988609  0.52280526  1
  O  O48  1  0.28010475  0.71244291  0.97697990  1
  O  O49  1  0.78460361  0.71367739  0.97886401  1
  O  O50  1  0.07330448  0.43532908  0.96693797  1
  O  O51  1  0.57245520  0.44420638  0.96881080  1
  O  O52  1  0.13799973  0.85342746  0.97677675  1
  O  O53  1  0.63306200  0.84573358  0.97280126  1
  O  O54  1  0.28529345  0.85380531  0.48212742  1
  O  O55  1  0.78155439  0.85052274  0.47885081  1
  O  O56  1  0.13767064  0.42011589  0.47722927  1
  O  O57  1  0.63655632  0.41808798  0.47837195  1
  O  O58  1  0.07029668  0.70331825  0.47023753  1
  O  O59  1  0.57065340  0.70655649  0.46990737  1
  O  O60  1  0.04931017  0.62420618  0.36367224  1
  O  O61  1  0.55738591  0.63244451  0.36288061  1
  O  O62  1  0.24847052  0.89983035  0.36899405  1
  O  O63  1  0.74979362  0.87012280  0.36226301  1
  O  O64  1  0.19030972  0.48471811  0.36017507  1
  O  O65  1  0.68293284  0.50521779  0.36220176  1
  O  O66  1  0.06500747  0.48721690  0.85947122  1
  O  O67  1  0.54845935  0.47233180  0.86178749  1
  O  O68  1  0.18413104  0.86467475  0.86008430  1
  O  O69  1  0.68518620  0.89242586  0.85663903  1
  O  O70  1  0.25123394  0.62906352  0.85998159  1
  O  O71  1  0.75257363  0.58928257  0.86538859  1
  O  O72  1  0.00307912  0.81755216  0.41019720  1
  O  O73  1  0.50649175  0.82116302  0.40713597  1
  O  O74  1  0.41467629  0.98713390  0.40752641  1
  O  O75  1  0.91307147  0.98693243  0.40458562  1
  O  O76  1  0.08145515  0.16084187  0.40726384  1
  O  O77  1  0.58319908  0.16999419  0.40414744  1
  O  O78  1  0.00976444  0.19445810  0.90371034  1
  O  O79  1  0.50348318  0.18933276  0.91022255  1
  O  O80  1  0.08396265  0.99735125  0.90298084  1
  O  O81  1  0.57897922  0.00055971  0.90554628  1
  O  O82  1  0.41266763  0.84052059  0.90374162  1
  O  O83  1  0.91595416  0.84015573  0.90602435  1
  O  O84  1  0.48131285  0.16344886  0.58065987  1
  O  O85  1  0.98751406  0.16564613  0.57709329  1
  O  O86  1  0.10453646  0.02923236  0.58724496  1
  O  O87  1  0.59958793  0.02274187  0.58118495  1
  O  O88  1  0.41518873  0.78749013  0.58486375  1
  O  O89  1  0.91557104  0.79297967  0.58157037  1
  O  O90  1  0.48623000  0.80883142  0.07700078  1
  O  O91  1  0.98642314  0.80132421  0.08016609  1
  O  O92  1  0.41551068  0.03966775  0.08139222  1
  O  O93  1  0.92344205  0.04068497  0.08207657  1
  O  O94  1  0.10366482  0.17915889  0.08063790  1
  O  O95  1  0.60308869  0.17467452  0.08751121  1
  O  O96  1  0.34252400  0.17402257  0.74542513  1
  O  O97  1  0.85357604  0.18034480  0.75529795  1
  O  O98  1  0.24929584  0.32636098  0.74154620  1
  O  O99  1  0.73939909  0.30638209  0.75071058  1
  O  O100  1  0.41508696  0.53166021  0.74428785  1
  O  O101  1  0.92598381  0.54316727  0.75234822  1
  O  O102  1  0.35406780  0.52709784  0.25600383  1
  O  O103  1  0.84265969  0.50802771  0.24509137  1
  O  O104  1  0.42556155  0.30790628  0.25309091  1
  O  O105  1  0.91840980  0.30029343  0.24846007  1
  O  O106  1  0.23819597  0.17128092  0.25056121  1
  O  O107  1  0.74632612  0.17090563  0.24615315  1
  O  O108  1  0.32691749  0.49511125  0.92150656  1
  O  O109  1  0.83609545  0.49613832  0.92960284  1
  O  O110  1  0.42626517  0.34022032  0.92587658  1
  O  O111  1  0.93485893  0.35250756  0.91705275  1
  O  O112  1  0.25532069  0.15835580  0.92372616  1
  O  O113  1  0.75156060  0.16447697  0.92580849  1
  O  O114  1  0.33600472  0.17098480  0.42774888  1
  O  O115  1  0.82703271  0.15925424  0.42214611  1
  O  O116  1  0.25494737  0.34344518  0.43002477  1
  O  O117  1  0.75526206  0.35297630  0.42454544  1
  O  O118  1  0.42946071  0.51429626  0.42309154  1
  O  O119  1  0.92557665  0.51161092  0.42626652  1
  O  O120  1  0.18360230  0.49365699  0.07366311  1
  O  O121  1  0.68326171  0.48914546  0.08091778  1
  O  O122  1  0.07482639  0.63614957  0.08463912  1
  O  O123  1  0.57449961  0.64047419  0.07850960  1
  O  O124  1  0.25961532  0.87016536  0.07894387  1
  O  O125  1  0.75285662  0.86573189  0.08655759  1
  O  O126  1  0.18734625  0.88106530  0.58160550  1
  O  O127  1  0.68092353  0.87067724  0.57449483  1
  O  O128  1  0.25909425  0.63575636  0.58498272  1
  O  O129  1  0.75942174  0.64850367  0.57934950  1
  O  O130  1  0.07846209  0.51058594  0.57918574  1
  O  O131  1  0.57324587  0.50771847  0.58388071  1
  O  O132  1  0.14182710  0.81460780  0.25545486  1
  O  O133  1  0.65731780  0.81942507  0.26555608  1
  O  O134  1  0.25401271  0.66213821  0.24960656  1
  O  O135  1  0.75341343  0.67102340  0.26208942  1
  O  O136  1  0.07227349  0.46482316  0.25984306  1
  O  O137  1  0.57981223  0.46961025  0.26123985  1
  O  O138  1  0.15871794  0.49455929  0.76261476  1
  O  O139  1  0.64429778  0.47431677  0.75673146  1
  O  O140  1  0.08008085  0.68933794  0.75998828  1
  O  O141  1  0.56918022  0.67535915  0.75621796  1
  O  O142  1  0.25283771  0.83146954  0.76142286  1
  O  O143  1  0.75398070  0.84466467  0.75038358  1
loop_
_geom_bond_atom_site_label_1
_geom_bond_atom_site_label_2
_geom_bond_distance
_geom_bond_site_symmetry_2
Na0 O107 2.461712 1_565
Na0 O105 2.475337 1_565
Na0 O133 2.491933 1_555
Na0 O33 2.504282 1_565
Na0 O135 2.552945 1_555
Na0 O19 2.598940 1_555
Na0 O63 2.921657 1_555
Na1 O134 2.295765 1_555
Na1 O106 2.382472 1_555
Na1 O64 2.487795 1_555
Na1 O136 2.603105 1_555
Na1 O102 2.613722 1_555
Na1 O34 2.862820 1_555
Na1 O0 2.895833 1_555
Na1 O20 2.991929 1_555
Na2 O135 2.386763 1_555
Na2 O103 2.426441 1_555
Na2 O107 2.465946 1_555
Na2 O137 2.544560 1_555
Na2 O65 2.714638 1_555
Na2 O35 2.721084 1_555
Na2 O1 2.860467 1_555
Na2 O21 2.926619 1_555
Na3 O132 2.315182 1_655
Na3 O103 2.399973 1_555
Na3 O31 2.405043 1_555
Na3 O136 2.598242 1_655
Na3 O105 2.656442 1_555
Na3 O22 2.903123 1_655
Na3 O3 2.914906 1_555
Na3 O60 2.936109 1_655
Na4 O102 2.369261 1_555
Na4 O133 2.435045 1_555
Na4 O30 2.495351 1_555
Na4 O137 2.610902 1_555
Na4 O23 2.645313 1_555
Na4 O104 2.670708 1_555
Na4 O61 2.821362 1_555
Na5 O138 2.416602 1_555
Na5 O98 2.447155 1_555
Na5 O100 2.465769 1_555
Na5 O142 2.477009 1_555
Na5 O70 2.627675 1_555
Na5 O12 2.688393 1_555
Na5 O28 2.798927 1_555
Na5 O8 2.892065 1_555
Na6 O97 2.342458 1_455
Na6 O138 2.454697 1_555
Na6 O25 2.575378 1_455
Na6 O140 2.605171 1_555
Na6 O101 2.658764 1_455
Na6 O66 2.705761 1_555
Na6 O14 2.787048 1_555
Na6 O11 2.933792 1_455
Na7 O139 2.293471 1_555
Na7 O96 2.442252 1_555
Na7 O141 2.522931 1_555
Na7 O24 2.595075 1_555
Na7 O100 2.694043 1_555
Na7 O67 2.739864 1_555
Na7 O10 2.825078 1_555
Na7 O15 2.917321 1_555
Na8 O142 2.425707 1_545
Na8 O96 2.486883 1_555
Na8 O140 2.497401 1_545
Na8 O98 2.545948 1_555
Na8 O68 2.552968 1_545
Na8 O6 2.725930 1_555
Na8 O26 2.865948 1_555
Na8 O16 2.926024 1_545
Na9 O143 2.306393 1_545
Na9 O69 2.337863 1_545
Na9 O99 2.379098 1_555
Na9 O97 2.582425 1_555
Na9 O141 2.662724 1_545
Na9 O7 2.890391 1_555
Na9 O27 2.902994 1_555
Na10 O130 2.368229 1_555
Na10 O14 2.412312 1_555
Na10 O85 2.415049 1_455
Na10 O128 2.459406 1_555
Na10 O56 2.480262 1_555
Na10 O86 2.482488 1_555
Na11 O15 2.391640 1_555
Na11 O131 2.396795 1_555
Na11 O57 2.472980 1_555
Na11 O84 2.485174 1_555
Na11 O87 2.524241 1_555
Na11 O129 2.546276 1_555
Na12 O84 2.298970 1_565
Na12 O126 2.387614 1_555
Na12 O54 2.398295 1_555
Na12 O12 2.593286 1_555
Na12 O128 2.604586 1_555
Na12 O88 2.653374 1_555
Na13 O85 2.372178 1_565
Na13 O13 2.434453 1_555
Na13 O127 2.498614 1_555
Na13 O129 2.524663 1_555
Na13 O55 2.541735 1_555
Na13 O89 2.619310 1_555
Na14 O91 2.363604 1_455
Na14 O122 2.403163 1_555
Na14 O22 2.444218 1_555
Na14 O94 2.486251 1_565
Na14 O52 2.535268 1_554
Na14 O124 2.590964 1_555
Na15 O125 2.358088 1_555
Na15 O123 2.454033 1_555
Na15 O23 2.481915 1_555
Na15 O95 2.507403 1_565
Na15 O90 2.567230 1_555
Na15 O53 2.655208 1_554
Na16 O90 2.355715 1_555
Na16 O120 2.456520 1_555
Na16 O18 2.476302 1_555
Na16 O124 2.522547 1_555
Na16 O48 2.591461 1_554
Na16 O92 2.627663 1_565
Na17 O91 2.399503 1_555
Na17 O49 2.434056 1_554
Na17 O125 2.475028 1_555
Na17 O121 2.491418 1_555
Na17 O93 2.515239 1_565
Na17 O19 2.626535 1_555
Na18 O82 2.454845 1_555
Na18 O53 2.489672 1_555
Na18 O81 2.504295 1_565
Na18 O108 2.540793 1_555
Na18 O38 2.609093 1_556
Na18 O110 2.709149 1_555
Na18 O8 2.870475 1_555
Na18 O67 2.964218 1_555
Na19 O109 2.359129 1_555
Na19 O83 2.405486 1_555
Na19 O39 2.548684 1_556
Na19 O80 2.556543 1_655
Na19 O111 2.598585 1_555
Na19 O52 2.626077 1_655
Na19 O9 2.853800 1_555
Na20 O82 2.474899 1_545
Na20 O112 2.483585 1_555
Na20 O79 2.511641 1_555
Na20 O110 2.537928 1_555
Na20 O10 2.700905 1_555
Na20 O40 2.731341 1_556
Na20 O48 2.741666 1_545
Na20 O68 2.754137 1_545
Na21 O113 2.546023 1_555
Na21 O41 2.571187 1_556
Na21 O83 2.577804 1_545
Na21 O111 2.581642 1_555
Na21 O78 2.627555 1_655
Na21 O49 2.735850 1_545
Na21 O69 2.854217 1_545
Na21 O11 2.918506 1_555
Na22 O80 2.363092 1_545
Na22 O112 2.490892 1_555
Na22 O78 2.514368 1_555
Na22 O108 2.515832 1_555
Na22 O6 2.590892 1_555
Na22 O70 2.779986 1_555
Na22 O36 2.812413 1_556
Na22 O50 2.843445 1_555
Na23 O71 2.370856 1_555
Na23 O113 2.372312 1_555
Na23 O81 2.450462 1_555
Na23 O109 2.558551 1_555
Na23 O79 2.709270 1_555
Na23 O7 2.720873 1_555
Na23 O37 2.831899 1_556
Na23 O51 2.947929 1_555
Na24 O114 2.396043 1_555
Na24 O74 2.419626 1_545
Na24 O77 2.498062 1_555
Na24 O57 2.657255 1_555
Na24 O118 2.662359 1_555
Na24 O4 2.692234 1_555
Na24 O46 2.742910 1_555
Na24 O61 2.919757 1_555
Na25 O75 2.387126 1_545
Na25 O115 2.506342 1_555
Na25 O76 2.513134 1_655
Na25 O56 2.673732 1_655
Na25 O47 2.677849 1_555
Na25 O5 2.709922 1_555
Na25 O119 2.721363 1_555
Na25 O60 2.911359 1_655
Na26 O62 2.379687 1_545
Na26 O76 2.404263 1_555
Na26 O116 2.488430 1_555
Na26 O0 2.537783 1_555
Na26 O114 2.639156 1_555
Na26 O72 2.652459 1_545
Na26 O58 2.961425 1_545
Na26 O42 2.986661 1_555
Na27 O77 2.383524 1_555
Na27 O1 2.478436 1_555
Na27 O117 2.504825 1_555
Na27 O115 2.514981 1_555
Na27 O73 2.574627 1_545
Na27 O63 2.730178 1_545
Na27 O43 2.887589 1_555
Na27 O59 2.942565 1_545
Na28 O74 2.493219 1_555
Na28 O73 2.536868 1_555
Na28 O118 2.549999 1_555
Na28 O116 2.567364 1_555
Na28 O2 2.598298 1_555
Na28 O64 2.637617 1_555
Na28 O54 2.892415 1_555
Na28 O44 2.910087 1_555
Na29 O75 2.472509 1_555
Na29 O117 2.490852 1_555
Na29 O72 2.502467 1_655
Na29 O3 2.539636 1_555
Na29 O119 2.551829 1_555
Na29 O65 2.713199 1_555
Na29 O45 2.812237 1_555
Na29 O55 2.819356 1_555
Na30 O85 2.361632 1_555
Na30 O76 2.416003 1_655
Na30 O75 2.473639 1_545
Na30 O72 2.587451 1_645
Na30 O89 2.588120 1_545
Na30 O86 2.746737 1_655
Na31 O74 2.413897 1_545
Na31 O84 2.448414 1_555
Na31 O77 2.485575 1_555
Na31 O87 2.594549 1_555
Na31 O73 2.645448 1_545
Na31 O88 2.685228 1_545
Na32 O93 2.352978 1_565
Na32 O91 2.392237 1_555
Na32 O83 2.493839 1_554
Na32 O94 2.598038 1_665
Na32 O80 2.705642 1_654
Na32 O78 2.748947 1_664
Na33 O90 2.324098 1_556
Na33 O81 2.429758 1_565
Na33 O82 2.549949 1_555
Na33 O92 2.602397 1_566
Na33 O79 2.610482 1_565
Na33 O95 2.669255 1_566
Na34 O112 2.417336 1_555
Na34 O108 2.453928 1_555
Na34 O98 2.490181 1_555
Na34 O96 2.500294 1_555
Na34 O100 2.639692 1_555
Na34 O110 2.667890 1_555
Na35 O99 2.375874 1_555
Na35 O113 2.431114 1_555
Na35 O97 2.477636 1_555
Na35 O109 2.478905 1_555
Na35 O111 2.619588 1_555
Na35 O101 2.623457 1_555
Na36 O106 2.324146 1_555
Na36 O102 2.385319 1_555
Na36 O104 2.537821 1_555
Na36 O114 2.543226 1_555
Na36 O116 2.582215 1_555
Na36 O118 2.728051 1_555
Na37 O107 2.332389 1_555
Na37 O103 2.390613 1_555
Na37 O105 2.530839 1_555
Na37 O117 2.533385 1_555
Na37 O115 2.549086 1_555
Na37 O119 2.761908 1_555
Na38 O132 2.396755 1_555
Na38 O134 2.417492 1_555
Na38 O122 2.421617 1_555
Na38 O124 2.635954 1_555
Na38 O136 2.681730 1_555
Na38 O120 2.834043 1_555
Na39 O125 2.375991 1_555
Na39 O123 2.437759 1_555
Na39 O133 2.607237 1_555
Na39 O121 2.646843 1_555
Na39 O135 2.690877 1_555
Na39 O137 2.738160 1_555
Na40 O130 2.441356 1_555
Na40 O138 2.480115 1_555
Na40 O140 2.539053 1_555
Na40 O142 2.618441 1_555
Na40 O128 2.682119 1_555
Na40 O126 2.700575 1_555
Na41 O139 2.362462 1_555
Na41 O143 2.378379 1_555
Na41 O131 2.511509 1_555
Na41 O129 2.638939 1_555
Na41 O141 2.652362 1_555
Na41 O127 2.838305 1_555
Al0 O0 1.817199 1_665
Al0 O3 1.874429 1_555
Al0 O75 1.942581 1_555
Al0 O76 1.973018 1_665
Al0 O5 1.997706 1_565
Al0 O72 2.135700 1_655
Al1 O2 1.829334 1_545
Al1 O1 1.868430 1_555
Al1 O4 1.922869 1_555
Al1 O77 1.925069 1_555
Al1 O74 1.997534 1_545
Al1 O73 2.129151 1_545
Al2 O11 1.833005 1_455
Al2 O80 1.903788 1_545
Al2 O6 1.930934 1_555
Al2 O9 1.948980 1_445
Al2 O83 1.958714 1_445
Al2 O78 2.077094 1_555
Al3 O7 1.820868 1_555
Al3 O10 1.881208 1_555
Al3 O81 1.897213 1_555
Al3 O82 1.923431 1_545
Al3 O79 2.087695 1_555
Al3 O8 2.119889 1_545
Al4 O24 1.805241 1_555
Al4 O96 1.874843 1_555
Al4 O98 1.913294 1_555
Al4 O26 2.019663 1_555
Al4 O28 2.073911 1_555
Al4 O100 2.074916 1_555
Al5 O33 1.807119 1_555
Al5 O31 1.827352 1_555
Al5 O103 1.992062 1_555
Al5 O107 2.018087 1_555
Al5 O35 2.019107 1_555
Al5 O105 2.204262 1_555
Al6 O38 1.804495 1_556
Al6 O108 1.865772 1_555
Al6 O112 1.948949 1_555
Al6 O36 1.949763 1_556
Al6 O110 2.066110 1_555
Al6 O40 2.112895 1_556
Al7 O41 1.802610 1_556
Al7 O39 1.812896 1_556
Al7 O109 1.878079 1_555
Al7 O113 1.982531 1_555
Al7 O37 2.012523 1_556
Al7 O111 2.296284 1_555
Al8 O46 1.785903 1_555
Al8 O114 1.817822 1_555
Al8 O116 1.873372 1_555
Al8 O42 1.993438 1_555
Al8 O44 2.077334 1_555
Al8 O118 2.135944 1_555
Al9 O47 1.821575 1_555
Al9 O115 1.851366 1_555
Al9 O117 1.933133 1_555
Al9 O43 1.992651 1_555
Al9 O119 2.039526 1_555
Al9 O45 2.136370 1_555
Al10 O63 1.788737 1_555
Al10 O135 1.793754 1_555
Al10 O65 1.883649 1_555
Al10 O133 1.895906 1_555
Al10 O137 2.282403 1_555
Al10 O61 2.314666 1_555
Al11 O70 1.790054 1_555
Al11 O142 1.828488 1_555
Al11 O68 1.883673 1_555
Al11 O138 1.948220 1_555
Al11 O66 2.133543 1_555
Al11 O140 2.278393 1_555
In0 O13 2.010325 1_445
In0 O14 2.065653 1_555
In0 O85 2.186680 1_455
In0 O16 2.263693 1_545
In0 O86 2.326039 1_555
In0 O89 2.416759 1_445
In1 O15 2.034218 1_555
In1 O12 2.053301 1_545
In1 O84 2.150906 1_555
In1 O17 2.215377 1_545
In1 O88 2.336461 1_545
In1 O87 2.413151 1_555
In2 O19 2.063916 1_555
In2 O22 2.071059 1_655
In2 O93 2.100564 1_565
In2 O91 2.159067 1_555
In2 O20 2.250541 1_665
In2 O94 2.393507 1_665
In3 O18 2.012708 1_555
In3 O23 2.063529 1_555
In3 O90 2.165935 1_555
In3 O95 2.260849 1_565
In3 O21 2.293247 1_565
In3 O92 2.427577 1_565
In4 O25 2.054060 1_555
In4 O99 2.101896 1_555
In4 O97 2.121997 1_555
In4 O29 2.174218 1_555
In4 O27 2.246769 1_555
In4 O101 2.248526 1_555
In5 O30 2.036454 1_555
In5 O106 2.104301 1_555
In5 O102 2.149802 1_555
In5 O32 2.172982 1_555
In5 O34 2.221776 1_555
In5 O104 2.258516 1_555
In6 O52 2.063144 1_554
In6 O48 2.122318 1_554
In6 O122 2.129855 1_555
In6 O50 2.176041 1_554
In6 O120 2.249801 1_555
In6 O124 2.295047 1_555
In7 O53 2.078351 1_554
In7 O49 2.091797 1_554
In7 O123 2.097676 1_555
In7 O125 2.140843 1_555
In7 O51 2.338114 1_554
In7 O121 2.400809 1_555
In8 O56 2.067876 1_555
In8 O54 2.077041 1_555
In8 O130 2.086715 1_555
In8 O58 2.199176 1_555
In8 O128 2.384281 1_555
In8 O126 2.419923 1_555
In9 O57 2.068809 1_555
In9 O55 2.114208 1_555
In9 O131 2.153130 1_555
In9 O59 2.173917 1_555
In9 O127 2.272897 1_555
In9 O129 2.290603 1_555
In10 O62 2.035938 1_555
In10 O134 2.064049 1_555
In10 O132 2.100382 1_555
In10 O64 2.147808 1_555
In10 O136 2.354123 1_555
In10 O60 2.384702 1_555
In11 O71 2.031359 1_555
In11 O143 2.077669 1_555
In11 O139 2.101383 1_555
In11 O69 2.112339 1_555
In11 O67 2.377472 1_555
In11 O141 2.496338 1_555
O0 Si0 1.637942 1_545
O1 Si1 1.639746 1_545
O2 Si2 1.636586 1_555
O3 Si3 1.644713 1_555
O4 S1 1.480373 1_555
O5 S0 1.494988 1_555
O6 Si4 1.632339 1_555
O7 Si5 1.631120 1_555
O8 S3 1.486245 1_555
O9 S2 1.466420 1_655
O10 Si6 1.632440 1_545
O11 Si7 1.630757 1_545
O12 Si6 1.654578 1_555
O13 Si7 1.647033 1_555
O14 Si4 1.648918 1_555
O15 Si5 1.657491 1_555
O16 S2 1.496882 1_555
O17 S3 1.485774 1_555
O18 Si2 1.636277 1_555
O19 Si3 1.632710 1_555
O20 S0 1.477287 1_455
O21 S1 1.486645 1_555
O22 Si0 1.638305 1_555
O23 Si1 1.647354 1_555
O24 Si8 1.641630 1_555
O25 Si9 1.632976 1_555
O26 S4 1.495370 1_555
O27 S5 1.487093 1_555
O28 S6 1.486482 1_555
O29 S7 1.484159 1_555
O30 Si10 1.637031 1_555
O31 Si11 1.640702 1_555
O32 S8 1.484788 1_555
O33 Si12 1.643872 1_555
O34 S9 1.489865 1_555
O35 S10 1.493101 1_555
O36 S9 1.497192 1_555
O37 S10 1.488784 1_555
O38 Si10 1.645115 1_555
O39 Si11 1.625680 1_555
O40 S8 1.485359 1_555
O41 Si12 1.635241 1_555
O42 S4 1.493941 1_555
O43 S5 1.498684 1_555
O44 S6 1.486347 1_555
O45 S7 1.482694 1_555
O46 Si8 1.630321 1_555
O47 Si9 1.646035 1_555
O48 Si13 1.645341 1_555
O49 Si14 1.651832 1_555
O50 S11 1.486381 1_555
O51 S12 1.478233 1_555
O52 Si15 1.641719 1_555
O53 Si16 1.637920 1_555
O54 Si17 1.666170 1_555
O55 Si18 1.650109 1_555
O56 Si19 1.643448 1_555
O57 Si20 1.649875 1_555
O58 S13 1.485756 1_555
O59 S14 1.486296 1_555
O60 S13 1.483947 1_555
O61 S14 1.478843 1_555
O62 Si17 1.626517 1_555
O63 Si18 1.626502 1_555
O64 Si19 1.638283 1_555
O65 Si20 1.643362 1_555
O66 S11 1.495457 1_555
O67 S12 1.485760 1_555
O68 Si15 1.651972 1_555
O69 Si16 1.643203 1_555
O70 Si13 1.632784 1_555
O71 Si14 1.637897 1_555
O72 S13 1.484608 1_555
O73 S14 1.495162 1_555
O74 Si17 1.643299 1_555
O75 Si18 1.650664 1_555
O76 Si19 1.648225 1_555
O77 Si20 1.648437 1_555
O78 S11 1.494221 1_555
O79 S12 1.497236 1_555
O80 Si15 1.641969 1_555
O81 Si16 1.656423 1_545
O82 Si13 1.649107 1_555
O83 Si14 1.652402 1_555
O84 Si8 1.697370 1_555
O85 Si9 1.686278 1_555
O86 S4 1.481133 1_555
O87 S5 1.485033 1_555
O88 S6 1.488020 1_555
O89 S7 1.485153 1_555
O90 Si10 1.686173 1_555
O91 Si11 1.677252 1_555
O92 S8 1.482527 1_555
O93 Si12 1.645342 1_555
O94 S9 1.468677 1_555
O95 S10 1.496285 1_555
O96 Si6 1.665933 1_545
O97 Si7 1.662630 1_545
O98 Si4 1.675244 1_555
O99 Si5 1.643987 1_555
O100 S3 1.505970 1_555
O101 S2 1.481913 1_655
O102 Si2 1.661484 1_555
O103 Si3 1.665243 1_555
O104 S1 1.483754 1_555
O105 S0 1.488410 1_555
O106 Si0 1.652510 1_545
O107 Si1 1.656149 1_545
O108 Si13 1.660833 1_555
O109 Si14 1.643253 1_555
O110 S12 1.497047 1_555
O111 S11 1.475468 1_655
O112 Si15 1.675344 1_545
O113 Si16 1.647828 1_545
O114 Si17 1.642506 1_545
O115 Si18 1.661860 1_545
O116 Si19 1.663744 1_555
O117 Si20 1.671996 1_555
O118 S14 1.493494 1_555
O119 S13 1.493390 1_655
O120 S9 1.482904 1_555
O121 S10 1.476273 1_555
O122 Si11 1.670209 1_455
O123 Si10 1.631954 1_555
O124 S8 1.506533 1_565
O125 Si12 1.675616 1_565
O126 S4 1.485309 1_565
O127 S5 1.482430 1_565
O128 S6 1.509287 1_555
O129 S7 1.509147 1_555
O130 Si9 1.659245 1_455
O131 Si8 1.652869 1_555
O132 Si0 1.640802 1_555
O133 Si1 1.663090 1_555
O134 Si2 1.642974 1_555
O135 Si3 1.648425 1_555
O136 S0 1.484624 1_455
O137 S1 1.494859 1_555
O138 Si4 1.658477 1_555
O139 Si5 1.632868 1_555
O140 S2 1.498731 1_555
O141 S3 1.477505 1_555
O142 Si6 1.640186 1_555
O143 Si7 1.637957 1_555
