# generated using pymatgen
data_Na5Zr2Zn2P5SO24
_symmetry_space_group_name_H-M   'P 1'
_cell_length_a   9.03805019
_cell_length_b   9.04469066
_cell_length_c   22.54173029
_cell_angle_alpha   90.27262835
_cell_angle_beta   89.95911672
_cell_angle_gamma   120.04171113
_symmetry_Int_Tables_number   1
_chemical_formula_structural   Na5Zr2Zn2P5SO24
_chemical_formula_sum   'Na15 Zr6 Zn6 P15 S3 O72'
_cell_volume   1595.13679394
_cell_formula_units_Z   3
loop_
 _symmetry_equiv_pos_site_id
 _symmetry_equiv_pos_as_xyz
  1  'x, y, z'
loop_
 _atom_site_type_symbol
 _atom_site_label
 _atom_site_symmetry_multiplicity
 _atom_site_fract_x
 _atom_site_fract_y
 _atom_site_fract_z
 _atom_site_occupancy
  Na  Na0  1  0.63538424  0.00040225  0.25268686  1
  Na  Na1  1  0.37178138  0.37492014  0.24580595  1
  Na  Na2  1  0.99362274  0.62069624  0.25290912  1
  Na  Na3  1  0.64232034  0.62904087  0.74502359  1
  Na  Na4  1  0.98455471  0.35544069  0.74574822  1
  Na  Na5  1  0.37280407  0.01685705  0.74576219  1
  Na  Na6  1  0.30257188  0.96184105  0.07278941  1
  Na  Na7  1  0.04047926  0.34700335  0.07422512  1
  Na  Na8  1  0.70873660  0.67761467  0.41390846  1
  Na  Na9  1  0.00815285  0.00665706  0.49589554  1
  Na  Na10  1  0.99767446  0.99709082  0.98521668  1
  Na  Na11  1  0.66717973  0.32816661  0.83067972  1
  Na  Na12  1  0.68136863  0.32687973  0.33073322  1
  Na  Na13  1  0.34857119  0.66265389  0.16011003  1
  Na  Na14  1  0.33527359  0.66528605  0.66293639  1
  Zr  Zr0  1  0.99860613  0.99821627  0.64595581  1
  Zr  Zr1  1  0.98926541  0.99657013  0.14650898  1
  Zr  Zr2  1  0.66711078  0.33328222  0.98016670  1
  Zr  Zr3  1  0.67187655  0.32781188  0.48332046  1
  Zr  Zr4  1  0.32992183  0.67265583  0.51883734  1
  Zr  Zr5  1  0.32785926  0.66736326  0.81884768  1
  Zn  Zn0  1  0.98713991  0.99683591  0.35038167  1
  Zn  Zn1  1  0.01141223  0.01076299  0.85026698  1
  Zn  Zn2  1  0.66884188  0.33623404  0.67817574  1
  Zn  Zn3  1  0.67166006  0.34121361  0.17678940  1
  Zn  Zn4  1  0.33143475  0.66642534  0.01397638  1
  Zn  Zn5  1  0.32656238  0.66560150  0.31982998  1
  P  P0  1  0.70103969  0.69848139  0.25390589  1
  P  P1  1  -0.00011869  0.29523655  0.25216920  1
  P  P2  1  0.29696027  0.29413180  0.75103913  1
  P  P3  1  0.99658976  0.70743148  0.75243370  1
  P  P4  1  0.70872249  0.00099373  0.75277466  1
  P  P5  1  0.96441530  0.33427185  0.58729055  1
  P  P6  1  0.37314504  0.04119568  0.58663328  1
  P  P7  1  0.66457678  0.62694745  0.58422937  1
  P  P8  1  0.96552847  0.62813014  0.08594924  1
  P  P9  1  0.65969109  0.03723691  0.08607440  1
  P  P10  1  0.37435057  0.33787796  0.08713938  1
  P  P11  1  0.03616299  0.36350889  0.92014356  1
  P  P12  1  0.32613078  0.96334546  0.92030672  1
  P  P13  1  0.62783588  0.96095015  0.41243383  1
  P  P14  1  0.03687147  0.67087908  0.41258643  1
  S  S0  1  0.29230287  0.00036852  0.25121638  1
  S  S1  1  0.62981299  0.66956411  0.91823645  1
  S  S2  1  0.33174743  0.36895871  0.41483520  1
  O  O0  1  0.20636569  0.02107139  0.30278654  1
  O  O1  1  0.80711894  0.77478573  0.31056661  1
  O  O2  1  0.97571285  0.17959932  0.30462000  1
  O  O3  1  0.21963228  0.18428387  0.80529917  1
  O  O4  1  0.96793595  0.79028247  0.80616194  1
  O  O5  1  0.82029101  0.02886134  0.80637130  1
  O  O6  1  0.79154615  0.96924531  0.69632246  1
  O  O7  1  0.17851446  0.20868273  0.69580721  1
  O  O8  1  0.02931624  0.82155154  0.69634066  1
  O  O9  1  0.80230328  0.81968750  0.20010764  1
  O  O10  1  0.02254069  0.20858388  0.19396765  1
  O  O11  1  0.19145394  0.98392616  0.19560401  1
  O  O12  1  0.89136877  0.35970810  0.64483697  1
  O  O13  1  0.47048449  0.11431288  0.64433218  1
  O  O14  1  0.64056982  0.52674860  0.64104765  1
  O  O15  1  0.89201348  0.52868970  0.14388708  1
  O  O16  1  0.63571647  0.11537295  0.14364819  1
  O  O17  1  0.46876240  0.35570353  0.14581512  1
  O  O18  1  0.46712524  0.30809806  0.03432682  1
  O  O19  1  0.84766598  0.53500704  0.03245789  1
  O  O20  1  0.69043078  0.16035085  0.03338692  1
  O  O21  1  0.46991254  0.15430840  0.53265781  1
  O  O22  1  0.68383440  0.53535179  0.52847118  1
  O  O23  1  0.84944735  0.31534102  0.53295198  1
  O  O24  1  0.54197475  0.68474705  0.96992909  1
  O  O25  1  0.13853766  0.44982421  0.97637420  1
  O  O26  1  0.31484267  0.86319279  0.97622256  1
  O  O27  1  0.52458703  0.84097181  0.46504307  1
  O  O28  1  0.31658314  0.46248713  0.46692229  1
  O  O29  1  0.14924588  0.67925115  0.46635743  1
  O  O30  1  0.10755847  0.64106894  0.35447714  1
  O  O31  1  0.52876219  0.88531629  0.35424102  1
  O  O32  1  0.36259362  0.47162833  0.36014245  1
  O  O33  1  0.13100735  0.47860663  0.86413139  1
  O  O34  1  0.35167822  0.87142712  0.86413050  1
  O  O35  1  0.52681830  0.64690898  0.86224995  1
  O  O36  1  0.01772134  0.83037251  0.41382867  1
  O  O37  1  0.80444882  0.97434122  0.41421571  1
  O  O38  1  0.18288710  0.19843346  0.41272448  1
  O  O39  1  0.01088245  0.18553714  0.91295575  1
  O  O40  1  0.16837318  0.98002866  0.91318644  1
  O  O41  1  0.80101326  0.81781100  0.91286551  1
  O  O42  1  0.98103068  0.17195826  0.58778265  1
  O  O43  1  0.19317663  0.02264775  0.58717166  1
  O  O44  1  0.82763487  0.80721159  0.58639017  1
  O  O45  1  0.98590192  0.81106328  0.08895618  1
  O  O46  1  0.83015564  0.02946585  0.08897624  1
  O  O47  1  0.19328371  0.16606276  0.08897545  1
  O  O48  1  0.67982810  0.15440583  0.74543717  1
  O  O49  1  0.47949442  0.32415098  0.74290978  1
  O  O50  1  0.84399039  0.52495836  0.74439123  1
  O  O51  1  0.68051183  0.51925181  0.24538403  1
  O  O52  1  0.83789261  0.31224786  0.24658879  1
  O  O53  1  0.46593938  0.15298793  0.24706791  1
  O  O54  1  0.64115538  0.50897577  0.92053825  1
  O  O55  1  0.85824214  0.35643531  0.92161311  1
  O  O56  1  0.49295920  0.14438134  0.92210780  1
  O  O57  1  0.64653907  0.14092233  0.42180640  1
  O  O58  1  0.49330622  0.35965564  0.42227681  1
  O  O59  1  0.85194170  0.50970088  0.42132966  1
  O  O60  1  0.34246157  0.48707965  0.07920847  1
  O  O61  1  0.14561381  0.65204912  0.07847033  1
  O  O62  1  0.50536240  0.86028467  0.07707785  1
  O  O63  1  0.35052975  0.85955909  0.57705632  1
  O  O64  1  0.50614724  0.64947084  0.57525249  1
  O  O65  1  0.14443126  0.49198596  0.57715083  1
  O  O66  1  0.30552298  0.84263051  0.25219428  1
  O  O67  1  0.52508276  0.68935937  0.25435102  1
  O  O68  1  0.16485521  0.47347140  0.25506934  1
  O  O69  1  0.30965608  0.47513917  0.75574274  1
  O  O70  1  0.16489522  0.69303637  0.75666842  1
  O  O71  1  0.52691411  0.83294143  0.75673001  1
loop_
_geom_bond_atom_site_label_1
_geom_bond_atom_site_label_2
_geom_bond_distance
_geom_bond_site_symmetry_2
Na0 O67 2.470352 1_545
Na0 O52 2.481681 1_555
Na0 O31 2.503554 1_545
Na0 O53 2.526694 1_555
Na0 O66 2.581634 1_545
Na0 O16 2.672809 1_555
Na0 O2 2.907578 1_555
Na0 O9 2.966530 1_545
Na1 O51 2.417240 1_555
Na1 O68 2.450027 1_555
Na1 O17 2.454557 1_555
Na1 O67 2.468787 1_555
Na1 O53 2.542688 1_555
Na1 O32 2.732334 1_555
Na2 O52 2.418539 1_555
Na2 O30 2.479035 1_655
Na2 O68 2.496948 1_655
Na2 O51 2.505681 1_555
Na2 O66 2.512116 1_655
Na2 O15 2.606525 1_555
Na3 O49 2.389148 1_555
Na3 O50 2.434452 1_555
Na3 O14 2.512846 1_555
Na3 O71 2.545531 1_555
Na3 O69 2.616785 1_555
Na3 O35 2.873938 1_555
Na3 O6 2.892605 1_555
Na3 O4 2.894199 1_555
Na4 O48 2.424308 1_555
Na4 O50 2.432396 1_555
Na4 O12 2.433365 1_555
Na4 O69 2.582612 1_655
Na4 O70 2.655382 1_655
Na4 O7 2.900889 1_655
Na4 O5 2.905383 1_555
Na4 O33 2.935064 1_655
Na5 O48 2.406524 1_555
Na5 O49 2.444802 1_555
Na5 O13 2.453807 1_555
Na5 O70 2.581723 1_545
Na5 O71 2.663184 1_545
Na5 O3 2.843915 1_555
Na5 O8 2.914541 1_545
Na5 O34 2.944026 1_545
Na6 O26 2.372137 1_554
Na6 O62 2.428806 1_555
Na6 O61 2.429638 1_555
Na6 O45 2.505849 1_455
Na6 O47 2.518037 1_565
Na7 O60 2.367241 1_555
Na7 O25 2.388943 1_554
Na7 O61 2.428379 1_555
Na7 O46 2.552335 1_455
Na7 O47 2.639132 1_555
Na7 O20 2.889358 1_455
Na7 O10 2.950880 1_555
Na8 O37 2.372008 1_555
Na8 O36 2.417522 1_655
Na8 O59 2.445528 1_555
Na8 O1 2.494740 1_555
Na8 O58 2.548577 1_555
Na8 O22 2.848885 1_555
Na8 O27 2.953813 1_555
Na8 O32 2.979130 1_555
Na9 O36 2.466114 1_545
Na9 O38 2.510309 1_555
Na9 O37 2.515150 1_445
Na9 O43 2.609724 1_555
Na9 O42 2.631051 1_455
Na9 O44 2.675939 1_445
Na10 O40 2.296253 1_655
Na10 O39 2.322725 1_665
Na10 O41 2.354083 1_555
Na10 O45 2.858077 1_556
Na10 O47 2.863264 1_666
Na10 O46 2.877664 1_566
Na11 O48 2.515172 1_555
Na11 O50 2.585682 1_555
Na11 O49 2.595305 1_555
Na11 O55 2.609017 1_555
Na11 O56 2.626273 1_555
Na11 O54 2.680595 1_555
Na12 O52 2.407851 1_555
Na12 O57 2.577669 1_555
Na12 O59 2.588718 1_555
Na12 O53 2.594688 1_555
Na12 O51 2.602749 1_555
Na12 O58 2.780081 1_555
Na13 O60 2.394862 1_555
Na13 O62 2.489648 1_555
Na13 O61 2.566647 1_555
Na13 O67 2.594302 1_555
Na13 O68 2.729812 1_555
Na13 O66 2.776822 1_555
Na14 O65 2.537772 1_555
Na14 O64 2.554683 1_555
Na14 O63 2.577519 1_555
Na14 O69 2.650051 1_555
Na14 O71 2.667308 1_555
Na14 O70 2.697373 1_555
O0 S0 1.460122 1_555
O0 Zn0 2.165477 1_445
O1 P0 1.535470 1_555
O1 Zn0 2.049253 1_555
O2 P1 1.523872 1_655
O2 Zn0 1.998652 1_545
O3 P2 1.512176 1_555
O3 Zn1 2.021721 1_555
O4 P3 1.510187 1_555
O4 Zn1 2.077667 1_665
O5 P4 1.511402 1_555
O5 Zn1 2.068032 1_655
O6 P4 1.572427 1_565
O6 Zr0 2.090143 1_555
O7 P2 1.567720 1_555
O7 Zr0 2.100829 1_445
O8 P3 1.567762 1_455
O8 Zr0 2.093321 1_455
O9 P0 1.586371 1_555
O9 Zr1 2.045313 1_555
O10 P1 1.589966 1_555
O10 Zr1 2.077404 1_445
O11 S0 1.512796 1_565
O11 Zr1 2.188727 1_455
O12 P5 1.522998 1_555
O12 Zn2 2.055876 1_555
O13 P6 1.521144 1_555
O13 Zn2 2.051654 1_555
O14 P7 1.523997 1_555
O14 Zn2 2.046916 1_555
O15 P8 1.538727 1_555
O15 Zn3 2.005060 1_555
O16 P9 1.541076 1_555
O16 Zn3 2.038994 1_555
O17 P10 1.537972 1_555
O17 Zn3 2.027518 1_555
O18 P10 1.553883 1_555
O18 Zr2 2.096816 1_554
O19 P8 1.546578 1_555
O19 Zr2 2.093434 1_554
O20 P9 1.558859 1_555
O20 Zr2 2.068426 1_554
O21 P6 1.551248 1_555
O21 Zr3 2.043786 1_555
O22 P7 1.559021 1_555
O22 Zr3 2.085672 1_555
O23 P5 1.559180 1_555
O23 Zr3 2.006263 1_555
O24 S1 1.453691 1_555
O24 Zn4 2.077829 1_556
O25 P11 1.530113 1_555
O25 Zn4 2.040215 1_556
O26 P12 1.528996 1_555
O26 Zn4 2.048390 1_556
O27 P13 1.565728 1_555
O27 Zr4 2.053341 1_555
O28 S2 1.489760 1_555
O28 Zr4 2.178777 1_555
O29 P14 1.558947 1_555
O29 Zr4 2.042188 1_555
O30 P14 1.537715 1_555
O30 Zn5 2.033911 1_555
O31 P13 1.539583 1_555
O31 Zn5 2.059532 1_555
O32 S2 1.487012 1_555
O32 Zn5 2.144171 1_555
O33 P11 1.590656 1_555
O33 Zr5 2.023554 1_555
O34 P12 1.590536 1_555
O34 Zr5 2.019757 1_555
O35 S1 1.519693 1_555
O35 Zr5 2.135948 1_555
O36 P14 1.536668 1_555
O36 Zn0 2.196923 1_455
O37 P13 1.539715 1_555
O37 Zn0 2.121629 1_555
O38 S2 1.453586 1_555
O38 Zn0 2.275705 1_445
O39 P11 1.516213 1_555
O39 Zn1 2.117093 1_555
O40 P12 1.515742 1_555
O40 Zn1 2.121991 1_565
O41 S1 1.459680 1_555
O41 Zn1 2.312937 1_665
O42 P5 1.548812 1_555
O42 Zr0 2.117564 1_545
O43 P6 1.549443 1_555
O43 Zr0 2.123098 1_445
O44 P7 1.557582 1_555
O44 Zr0 2.117352 1_555
O45 P8 1.571628 1_555
O45 Zr1 2.104156 1_555
O46 P9 1.578444 1_555
O46 Zr1 2.067158 1_545
O47 P10 1.596545 1_555
O47 Zr1 2.148798 1_445
O48 P4 1.544654 1_555
O48 Zn2 2.280522 1_555
O49 P2 1.542897 1_555
O49 Zn2 2.209209 1_555
O50 P3 1.541854 1_555
O50 Zn2 2.218351 1_555
O51 P0 1.547630 1_555
O51 Zn3 2.199505 1_555
O52 P1 1.552085 1_655
O52 Zn3 2.280984 1_555
O53 S0 1.486282 1_555
O53 Zn3 2.391055 1_555
O54 S1 1.507543 1_555
O54 Zr2 2.186540 1_555
O55 P11 1.577331 1_655
O55 Zr2 2.099347 1_555
O56 P12 1.575972 1_545
O56 Zr2 2.097246 1_555
O57 P13 1.563390 1_545
O57 Zr3 2.103109 1_555
O58 S2 1.513551 1_555
O58 Zr3 2.248008 1_555
O59 P14 1.587528 1_655
O59 Zr3 2.155362 1_555
O60 P10 1.525757 1_555
O60 Zn4 2.233429 1_555
O61 P8 1.540054 1_455
O61 Zn4 2.175018 1_555
O62 P9 1.519972 1_565
O62 Zn4 2.188253 1_555
O63 P6 1.564544 1_565
O63 Zr4 2.068497 1_555
O64 P7 1.557448 1_555
O64 Zr4 2.130219 1_555
O65 P5 1.553371 1_455
O65 Zr4 2.117320 1_555
O66 S0 1.490368 1_565
O66 Zn5 2.291920 1_555
O67 P0 1.550676 1_555
O67 Zn5 2.248837 1_555
O68 P1 1.555220 1_555
O68 Zn5 2.173209 1_555
O69 P2 1.585862 1_555
O69 Zr5 2.182593 1_555
O70 P3 1.593298 1_455
O70 Zr5 2.129867 1_555
O71 P4 1.587037 1_565
O71 Zr5 2.181469 1_555
