# generated using pymatgen
data_Ho2Ni12P7
_symmetry_space_group_name_H-M   'P 1'
_cell_length_a   8.95961325
_cell_length_b   8.95974698
_cell_length_c   3.66121893
_cell_angle_alpha   89.99999385
_cell_angle_beta   90.00000517
_cell_angle_gamma   119.99702819
_symmetry_Int_Tables_number   1
_chemical_formula_structural   Ho2Ni12P7
_chemical_formula_sum   'Ho2 Ni12 P7'
_cell_volume   254.53900620
_cell_formula_units_Z   1
loop_
 _symmetry_equiv_pos_site_id
 _symmetry_equiv_pos_as_xyz
  1  'x, y, z'
loop_
 _atom_site_type_symbol
 _atom_site_label
 _atom_site_symmetry_multiplicity
 _atom_site_fract_x
 _atom_site_fract_y
 _atom_site_fract_z
 _atom_site_occupancy
  Ho  Ho0  1  0.66666748  0.33334262  0.49999998  1
  Ho  Ho1  1  0.33332325  0.66668931  0.00000017  1
  Ni  Ni0  1  0.61917681  0.56961497  -0.00000010  1
  Ni  Ni1  1  0.84800752  0.72568620  0.49999957  1
  Ni  Ni2  1  0.95043347  0.38083922  0.00000012  1
  Ni  Ni3  1  0.27429077  0.12234724  0.49999978  1
  Ni  Ni4  1  0.12103603  0.21436043  -0.00000041  1
  Ni  Ni5  1  0.09327593  0.87895686  -0.00000015  1
  Ni  Ni6  1  0.78566433  0.90667200  0.00000038  1
  Ni  Ni7  1  0.37192344  0.43351232  0.50000014  1
  Ni  Ni8  1  0.56645993  0.93834760  0.49999987  1
  Ni  Ni9  1  0.06162915  0.62812780  0.50000000  1
  Ni  Ni10  1  0.87767788  0.15196177  0.50000036  1
  Ni  Ni11  1  0.43043392  0.04956364  0.00000007  1
  P  P0  1  0.00000090  0.00000106  0.50000010  1
  P  P1  1  0.70505651  0.10972279  0.00000049  1
  P  P2  1  0.11187971  0.40767998  0.49999990  1
  P  P3  1  0.59230160  0.70422567  0.49999999  1
  P  P4  1  0.29581135  0.88806502  0.50000000  1
  P  P5  1  0.89027282  0.59532074  -0.00000032  1
  P  P6  1  0.40467620  0.29495976  0.00000001  1
loop_
_geom_bond_atom_site_label_1
_geom_bond_atom_site_label_2
_geom_bond_distance
_geom_bond_site_symmetry_2
Ho0 P6 2.858711 1_555
Ho0 P6 2.858711 1_556
Ho0 P5 2.858726 1_556
Ho0 P5 2.858727 1_555
Ho0 P1 2.858814 1_555
Ho0 P1 2.858816 1_556
Ho0 Ni0 2.985681 1_556
Ho0 Ni0 2.985681 1_555
Ho0 Ni2 2.985690 1_555
Ho0 Ni2 2.985690 1_556
Ho0 Ni11 2.985742 1_555
Ho0 Ni11 2.985742 1_556
Ho0 Ni1 3.047323 1_555
Ho0 Ni10 3.047530 1_555
Ho0 Ni3 3.047538 1_555
Ho0 Ni7 3.185776 1_555
Ho0 Ni9 3.186342 1_655
Ho0 Ni8 3.186510 1_545
Ho1 P4 2.839861 1_555
Ho1 P4 2.839862 1_554
Ho1 P3 2.840412 1_555
Ho1 P3 2.840413 1_554
Ho1 P2 2.840624 1_555
Ho1 P2 2.840625 1_554
Ho1 Ni8 2.924873 1_555
Ho1 Ni8 2.924874 1_554
Ho1 Ni9 2.924931 1_555
Ho1 Ni9 2.924932 1_554
Ho1 Ni7 2.925405 1_555
Ho1 Ni7 2.925405 1_554
Ho1 Ni11 3.088783 1_565
Ho1 Ni2 3.089137 1_455
Ho1 Ni0 3.089221 1_555
Ni0 P6 2.240601 1_555
Ni0 P3 2.270269 1_554
Ni0 P3 2.270270 1_555
Ni0 P5 2.322349 1_555
Ni1 P0 2.132726 1_665
Ni1 P3 2.201202 1_555
Ni1 P5 2.302417 1_555
Ni1 P5 2.302418 1_556
Ni2 P5 2.240358 1_555
Ni2 P2 2.270128 1_655
Ni2 P2 2.270129 1_654
Ni2 P1 2.322518 1_555
Ni3 P0 2.132466 1_555
Ni3 P4 2.201850 1_545
Ni3 P6 2.302422 1_555
Ni3 P6 2.302424 1_556
Ni4 P6 2.268193 1_555
Ni4 P0 2.476543 1_554
Ni4 P0 2.476545 1_555
Ni4 P2 2.549527 1_554
Ni4 P2 2.549529 1_555
Ni5 P5 2.268170 1_455
Ni5 P0 2.476287 1_564
Ni5 P0 2.476288 1_565
Ni5 P4 2.550026 1_554
Ni5 P4 2.550026 1_555
Ni6 P1 2.268300 1_565
Ni6 P0 2.476392 1_665
Ni6 P0 2.476393 1_664
Ni6 P3 2.549604 1_555
Ni6 P3 2.549606 1_554
Ni7 P2 2.223231 1_555
Ni7 P3 2.234514 1_555
Ni7 P6 2.311399 1_556
Ni7 P6 2.311400 1_555
Ni8 P3 2.222493 1_555
Ni8 P4 2.234003 1_555
Ni8 P1 2.311768 1_565
Ni8 P1 2.311772 1_566
Ni9 P4 2.222681 1_555
Ni9 P2 2.234532 1_555
Ni9 P5 2.311577 1_456
Ni9 P5 2.311579 1_455
Ni10 P0 2.132361 1_655
Ni10 P2 2.201205 1_655
Ni10 P1 2.302417 1_555
Ni10 P1 2.302418 1_556
Ni11 P1 2.240207 1_555
Ni11 P4 2.270372 1_545
Ni11 P4 2.270372 1_544
Ni11 P6 2.322682 1_555
