# generated using pymatgen
data_Na3YTaSi2PO12
_symmetry_space_group_name_H-M   'P 1'
_cell_length_a   9.24929034
_cell_length_b   9.24929000
_cell_length_c   22.59759464
_cell_angle_alpha   90.24314214
_cell_angle_beta   89.75685787
_cell_angle_gamma   119.79778765
_symmetry_Int_Tables_number   1
_chemical_formula_structural   Na3YTaSi2PO12
_chemical_formula_sum   'Na18 Y6 Ta6 Si12 P6 O72'
_cell_volume   1677.58972600
_cell_formula_units_Z   6
loop_
 _symmetry_equiv_pos_site_id
 _symmetry_equiv_pos_as_xyz
  1  'x, y, z'
loop_
 _atom_site_type_symbol
 _atom_site_label
 _atom_site_symmetry_multiplicity
 _atom_site_fract_x
 _atom_site_fract_y
 _atom_site_fract_z
 _atom_site_occupancy
  Na  Na0  1  0.98887487  0.98732832  0.49708303  1
  Na  Na1  1  0.01267168  0.01112513  0.99708303  1
  Na  Na2  1  0.65554187  0.32066132  0.83041603  1
  Na  Na3  1  0.67933868  0.34445813  0.33041603  1
  Na  Na4  1  0.32220787  0.65399532  0.16375003  1
  Na  Na5  1  0.34600468  0.67779213  0.66375003  1
  Na  Na6  1  0.66511499  0.01850805  0.25069838  1
  Na  Na7  1  0.97855138  0.62471201  0.24643572  1
  Na  Na8  1  0.98149195  0.33488501  0.75069838  1
  Na  Na9  1  0.37528799  0.02144862  0.74643572  1
  Na  Na10  1  0.33178199  0.35184105  0.58403138  1
  Na  Na11  1  0.64521838  0.95804501  0.57976872  1
  Na  Na12  1  0.64815895  0.66821801  0.08403138  1
  Na  Na13  1  0.04195499  0.35478162  0.07976872  1
  Na  Na14  1  0.99844799  0.68517505  0.91736538  1
  Na  Na15  1  0.31188438  0.29137901  0.91310272  1
  Na  Na16  1  0.31482495  0.00155201  0.41736538  1
  Na  Na17  1  0.70862099  0.68811562  0.41310272  1
  Y  Y0  1  0.00079978  0.01093072  0.35197679  1
  Y  Y1  1  0.98906928  0.99920022  0.85197679  1
  Y  Y2  1  0.66746678  0.34426372  0.68530979  1
  Y  Y3  1  0.65573628  0.33253322  0.18530979  1
  Y  Y4  1  0.33413278  0.67759772  0.01864379  1
  Y  Y5  1  0.32240228  0.66586722  0.51864379  1
  Ta  Ta0  1  0.99599502  0.99335202  0.64748566  1
  Ta  Ta1  1  0.00664798  0.00400498  0.14748566  1
  Ta  Ta2  1  0.66266202  0.32668502  0.98081866  1
  Ta  Ta3  1  0.67331498  0.33733798  0.48081866  1
  Ta  Ta4  1  0.32932802  0.66001902  0.31415266  1
  Ta  Ta5  1  0.33998098  0.67067198  0.81415266  1
  Si  Si0  1  0.69766422  0.71006652  0.25207356  1
  Si  Si1  1  0.01167284  0.30448489  0.24802739  1
  Si  Si2  1  0.28993348  0.30233578  0.75207356  1
  Si  Si3  1  0.69551511  0.98832716  0.74802739  1
  Si  Si4  1  0.36433122  0.04339952  0.58540656  1
  Si  Si5  1  0.67833984  0.63781789  0.58136039  1
  Si  Si6  1  0.95660048  0.63566878  0.08540656  1
  Si  Si7  1  0.36218211  0.32166016  0.08136039  1
  Si  Si8  1  0.03099722  0.37673352  0.91874056  1
  Si  Si9  1  0.34500584  0.97115189  0.91469439  1
  Si  Si10  1  0.62326648  0.96900278  0.41874056  1
  Si  Si11  1  0.02884811  0.65499416  0.41469439  1
  P  P0  1  0.28722333  0.98076877  0.25173163  1
  P  P1  1  0.01923123  0.71277667  0.75173163  1
  P  P2  1  0.95389033  0.31410177  0.58506463  1
  P  P3  1  0.68589823  0.04610967  0.08506463  1
  P  P4  1  0.62055633  0.64743577  0.91839863  1
  P  P5  1  0.35256423  0.37944367  0.41839863  1
  O  O0  1  0.22146975  0.00449236  0.31036831  1
  O  O1  1  0.80273683  0.79115024  0.31101805  1
  O  O2  1  0.97461417  0.18727946  0.30334962  1
  O  O3  1  0.20884976  0.19726317  0.81101805  1
  O  O4  1  0.99550764  0.77853025  0.81036831  1
  O  O5  1  0.81272054  0.02538583  0.80334962  1
  O  O6  1  0.79780239  0.96952802  0.68831439  1
  O  O7  1  0.15755618  0.19189250  0.69476723  1
  O  O8  1  0.02677760  0.83281791  0.69920907  1
  O  O9  1  0.80810750  0.84244382  0.19476723  1
  O  O10  1  0.03047198  0.20219761  0.18831439  1
  O  O11  1  0.16718209  0.97322240  0.19920907  1
  O  O12  1  0.88813675  0.33782536  0.64370131  1
  O  O13  1  0.46940383  0.12448324  0.64435105  1
  O  O14  1  0.64128117  0.52061246  0.63668262  1
  O  O15  1  0.87551676  0.53059617  0.14435105  1
  O  O16  1  0.66217464  0.11186325  0.14370131  1
  O  O17  1  0.47938754  0.35871883  0.13668262  1
  O  O18  1  0.46446939  0.30286102  0.02164739  1
  O  O19  1  0.82422318  0.52522550  0.02810023  1
  O  O20  1  0.69344460  0.16615091  0.03254207  1
  O  O21  1  0.47477450  0.17577682  0.52810023  1
  O  O22  1  0.69713898  0.53553061  0.52164739  1
  O  O23  1  0.83384909  0.30655540  0.53254207  1
  O  O24  1  0.55480275  0.67115936  0.97703531  1
  O  O25  1  0.13606983  0.45781724  0.97768505  1
  O  O26  1  0.30794717  0.85394646  0.97001662  1
  O  O27  1  0.54218276  0.86393017  0.47768505  1
  O  O28  1  0.32884064  0.44519725  0.47703531  1
  O  O29  1  0.14605354  0.69205283  0.47001662  1
  O  O30  1  0.13113539  0.63619502  0.35498139  1
  O  O31  1  0.49088918  0.85855950  0.36143423  1
  O  O32  1  0.36011060  0.49948491  0.36587607  1
  O  O33  1  0.14144050  0.50911082  0.86143423  1
  O  O34  1  0.36380498  0.86886461  0.85498139  1
  O  O35  1  0.50051509  0.63988940  0.86587607  1
  O  O36  1  0.99829522  0.81283964  0.41136728  1
  O  O37  1  0.80769995  0.99396267  0.41382664  1
  O  O38  1  0.21931314  0.19795156  0.40987433  1
  O  O39  1  0.00603733  0.19230005  0.91382664  1
  O  O40  1  0.18716036  0.00170478  0.91136728  1
  O  O41  1  0.80204844  0.78068686  0.90987433  1
  O  O42  1  0.94391659  0.13846675  0.58419617  1
  O  O43  1  0.18456282  0.04613676  0.58958210  1
  O  O44  1  0.85487432  0.81884620  0.58861465  1
  O  O45  1  0.95386324  0.81543718  0.08958210  1
  O  O46  1  0.86153325  0.05608341  0.08419617  1
  O  O47  1  0.18115380  0.14512568  0.08861465  1
  O  O48  1  0.66496222  0.14617264  0.74470028  1
  O  O49  1  0.47436695  0.32729567  0.74715964  1
  O  O50  1  0.88598014  0.53128456  0.74320733  1
  O  O51  1  0.67270433  0.52563305  0.24715964  1
  O  O52  1  0.85382736  0.33503778  0.24470028  1
  O  O53  1  0.46871544  0.11401986  0.24320733  1
  O  O54  1  0.61058359  0.47179975  0.91752917  1
  O  O55  1  0.85122982  0.37946976  0.92291510  1
  O  O56  1  0.52154132  0.15217920  0.92194765  1
  O  O57  1  0.62053024  0.14877018  0.42291510  1
  O  O58  1  0.52820025  0.38941641  0.41752917  1
  O  O59  1  0.84782080  0.47845868  0.42194765  1
  O  O60  1  0.33162822  0.47950664  0.07803428  1
  O  O61  1  0.14103295  0.66062967  0.08049364  1
  O  O62  1  0.55264614  0.86461856  0.07654133  1
  O  O63  1  0.33937033  0.85896705  0.58049364  1
  O  O64  1  0.52049336  0.66837178  0.57803428  1
  O  O65  1  0.13538144  0.44735386  0.57654133  1
  O  O66  1  0.27724959  0.80513375  0.25086317  1
  O  O67  1  0.51789582  0.71280376  0.25624910  1
  O  O68  1  0.18820732  0.48551320  0.25528165  1
  O  O69  1  0.28719624  0.48210418  0.75624910  1
  O  O70  1  0.19486625  0.72275041  0.75086317  1
  O  O71  1  0.51448680  0.81179268  0.75528165  1
loop_
_geom_bond_atom_site_label_1
_geom_bond_atom_site_label_2
_geom_bond_distance
_geom_bond_site_symmetry_2
Na0 O44 2.515713 1_555
Na0 O36 2.544779 1_555
Na0 O37 2.545869 1_555
Na0 O42 2.559243 1_565
Na0 O43 2.642919 1_665
Na0 O38 2.844611 1_665
Na1 O47 2.515713 1_556
Na1 O40 2.544779 1_555
Na1 O39 2.545869 1_555
Na1 O46 2.559243 1_456
Na1 O45 2.642919 1_446
Na1 O41 2.844611 1_445
Na2 O56 2.515713 1_555
Na2 O48 2.544779 1_555
Na2 O49 2.545869 1_555
Na2 O54 2.559243 1_555
Na2 O55 2.642919 1_555
Na2 O50 2.844611 1_555
Na3 O59 2.515713 1_555
Na3 O52 2.544779 1_555
Na3 O51 2.545869 1_555
Na3 O58 2.559243 1_555
Na3 O57 2.642919 1_555
Na3 O53 2.844611 1_555
Na4 O68 2.515713 1_555
Na4 O60 2.544779 1_555
Na4 O61 2.545869 1_555
Na4 O66 2.559243 1_555
Na4 O67 2.642919 1_555
Na4 O62 2.844611 1_555
Na5 O71 2.515713 1_555
Na5 O64 2.544779 1_555
Na5 O63 2.545869 1_555
Na5 O70 2.559243 1_555
Na5 O69 2.642919 1_555
Na5 O65 2.844611 1_555
Na6 O53 2.389099 1_555
Na6 O67 2.457608 1_545
Na6 O52 2.561010 1_555
Na6 O16 2.575667 1_555
Na6 O2 2.760249 1_555
Na6 O9 2.847374 1_545
Na6 O31 2.945346 1_545
Na7 O52 2.332051 1_555
Na7 O66 2.417917 1_655
Na7 O15 2.482886 1_555
Na7 O51 2.503151 1_555
Na7 O68 2.818656 1_655
Na8 O50 2.389099 1_555
Na8 O69 2.457608 1_655
Na8 O48 2.561010 1_555
Na8 O12 2.575667 1_555
Na8 O5 2.760249 1_555
Na8 O7 2.847374 1_655
Na8 O33 2.945346 1_655
Na9 O48 2.332051 1_555
Na9 O70 2.417917 1_545
Na9 O13 2.482886 1_555
Na9 O49 2.503151 1_555
Na9 O71 2.818656 1_545
Na10 O65 2.389113 1_555
Na10 O43 2.457608 1_555
Na10 O64 2.561015 1_555
Na10 O28 2.575651 1_555
Na10 O14 2.760249 1_555
Na10 O21 2.847374 1_555
Na10 O7 2.945346 1_555
Na11 O64 2.332041 1_555
Na11 O42 2.417917 1_565
Na11 O27 2.482866 1_555
Na11 O63 2.503162 1_555
Na11 O44 2.818656 1_555
Na12 O62 2.389113 1_555
Na12 O45 2.457608 1_555
Na12 O60 2.561015 1_555
Na12 O24 2.575651 1_554
Na12 O17 2.760249 1_555
Na12 O19 2.847374 1_555
Na12 O9 2.945346 1_555
Na13 O60 2.332042 1_555
Na13 O46 2.417917 1_455
Na13 O25 2.482866 1_554
Na13 O61 2.503161 1_555
Na13 O47 2.818656 1_555
Na14 O41 2.389099 1_555
Na14 O55 2.457615 1_555
Na14 O40 2.561010 1_665
Na14 O4 2.575667 1_555
Na14 O26 2.760249 1_655
Na14 O33 2.847374 1_655
Na14 O19 2.945327 1_556
Na15 O40 2.332051 1_555
Na15 O54 2.417923 1_555
Na15 O3 2.482886 1_555
Na15 O39 2.503151 1_555
Na15 O56 2.818670 1_555
Na16 O38 2.389099 1_555
Na16 O57 2.457615 1_555
Na16 O36 2.561010 1_445
Na16 O0 2.575667 1_555
Na16 O29 2.760249 1_545
Na16 O31 2.847374 1_545
Na16 O21 2.945327 1_555
Na17 O36 2.332051 1_555
Na17 O58 2.417923 1_555
Na17 O1 2.482886 1_555
Na17 O37 2.503151 1_555
Na17 O59 2.818670 1_555
O0 P0 1.515619 1_545
O0 Y0 2.271014 1_555
O1 Si0 1.599777 1_555
O1 Y0 2.154584 1_665
O2 Si1 1.579279 1_655
O2 Y0 2.082484 1_655
O3 Si2 1.599777 1_555
O3 Y1 2.154584 1_445
O4 P1 1.515619 1_655
O4 Y1 2.271014 1_555
O5 Si3 1.579279 1_545
O5 Y1 2.082484 1_545
O6 Si3 1.701993 1_555
O6 Ta0 1.961151 1_555
O7 Si2 1.725913 1_555
O7 Ta0 2.004091 1_445
O8 P1 1.606170 1_555
O8 Ta0 2.022288 1_455
O9 Si0 1.725913 1_555
O9 Ta1 2.004091 1_665
O10 Si1 1.701993 1_555
O10 Ta1 1.961151 1_555
O11 P0 1.606170 1_555
O11 Ta1 2.022288 1_565
O12 P2 1.515619 1_555
O12 Y2 2.271014 1_555
O13 Si4 1.599777 1_555
O13 Y2 2.154584 1_555
O14 Si5 1.579279 1_555
O14 Y2 2.082484 1_555
O15 Si6 1.599777 1_555
O15 Y3 2.154584 1_555
O16 P3 1.515619 1_555
O16 Y3 2.271014 1_555
O17 Si7 1.579279 1_555
O17 Y3 2.082484 1_555
O18 Si7 1.701993 1_555
O18 Ta2 1.961151 1_554
O19 Si6 1.725913 1_555
O19 Ta2 2.004091 1_554
O20 P3 1.606170 1_555
O20 Ta2 2.022288 1_554
O21 Si4 1.725913 1_555
O21 Ta3 2.004091 1_555
O22 Si5 1.701993 1_555
O22 Ta3 1.961151 1_555
O23 P2 1.606170 1_555
O23 Ta3 2.022288 1_555
O24 P4 1.515619 1_555
O24 Y4 2.271014 1_556
O25 Si8 1.599777 1_555
O25 Y4 2.154584 1_556
O26 Si9 1.579279 1_555
O26 Y4 2.082484 1_556
O27 Si10 1.599777 1_555
O27 Y5 2.154584 1_555
O28 P5 1.515619 1_555
O28 Y5 2.271014 1_555
O29 Si11 1.579279 1_555
O29 Y5 2.082484 1_555
O30 Si11 1.701993 1_555
O30 Ta4 1.961151 1_555
O31 Si10 1.725913 1_555
O31 Ta4 2.004091 1_555
O32 P5 1.606170 1_555
O32 Ta4 2.022288 1_555
O33 Si8 1.725913 1_555
O33 Ta5 2.004091 1_555
O34 Si9 1.701993 1_555
O34 Ta5 1.961151 1_555
O35 P4 1.606170 1_555
O35 Ta5 2.022288 1_555
O36 Si11 1.621157 1_655
O36 Y0 2.266519 1_665
O37 Si10 1.607124 1_555
O37 Y0 2.206828 1_665
O38 P5 1.522187 1_555
O38 Y0 2.305938 1_555
O39 Si8 1.607124 1_555
O39 Y1 2.206828 1_445
O40 Si9 1.621157 1_545
O40 Y1 2.266519 1_445
O41 P4 1.522187 1_555
O41 Y1 2.305938 1_555
O42 P2 1.580726 1_555
O42 Ta0 2.178004 1_545
O43 Si4 1.677708 1_555
O43 Ta0 2.032776 1_445
O44 Si5 1.667104 1_555
O44 Ta0 1.995330 1_555
O45 Si6 1.677707 1_555
O45 Ta1 2.032776 1_665
O46 P3 1.580726 1_555
O46 Ta1 2.178004 1_655
O47 Si7 1.667104 1_555
O47 Ta1 1.995330 1_555
O48 Si3 1.621157 1_545
O48 Y2 2.266519 1_555
O49 Si2 1.607124 1_555
O49 Y2 2.206828 1_555
O50 P1 1.522187 1_655
O50 Y2 2.305938 1_555
O51 Si0 1.607124 1_555
O51 Y3 2.206828 1_555
O52 Si1 1.621157 1_655
O52 Y3 2.266519 1_555
O53 P0 1.522187 1_545
O53 Y3 2.305938 1_555
O54 P4 1.580740 1_555
O54 Ta2 2.178004 1_555
O55 Si8 1.677692 1_655
O55 Ta2 2.032776 1_555
O56 Si9 1.667102 1_545
O56 Ta2 1.995330 1_555
O57 Si10 1.677692 1_545
O57 Ta3 2.032776 1_555
O58 P5 1.580740 1_555
O58 Ta3 2.178004 1_555
O59 Si11 1.667102 1_655
O59 Ta3 1.995330 1_555
O60 Si7 1.621171 1_555
O60 Y4 2.266519 1_555
O61 Si6 1.607110 1_455
O61 Y4 2.206828 1_555
O62 P3 1.522180 1_565
O62 Y4 2.305938 1_555
O63 Si4 1.607110 1_565
O63 Y5 2.206828 1_555
O64 Si5 1.621171 1_555
O64 Y5 2.266519 1_555
O65 P2 1.522180 1_455
O65 Y5 2.305938 1_555
O66 P0 1.580726 1_555
O66 Ta4 2.178004 1_555
O67 Si0 1.677708 1_555
O67 Ta4 2.032776 1_555
O68 Si1 1.667104 1_555
O68 Ta4 1.995330 1_555
O69 Si2 1.677707 1_555
O69 Ta5 2.032776 1_555
O70 P1 1.580726 1_555
O70 Ta5 2.178004 1_555
O71 Si3 1.667104 1_555
O71 Ta5 1.995330 1_555
