# generated using pymatgen
data_NaMgTaSi(SO6)2
_symmetry_space_group_name_H-M   'P 1'
_cell_length_a   8.75928641
_cell_length_b   8.75928612
_cell_length_c   22.79270968
_cell_angle_alpha   89.80942326
_cell_angle_beta   90.19057674
_cell_angle_gamma   119.76235225
_symmetry_Int_Tables_number   1
_chemical_formula_structural   NaMgTaSi(SO6)2
_chemical_formula_sum   'Na6 Mg6 Ta6 Si6 S12 O72'
_cell_volume   1518.08416224
_cell_formula_units_Z   6
loop_
 _symmetry_equiv_pos_site_id
 _symmetry_equiv_pos_as_xyz
  1  'x, y, z'
loop_
 _atom_site_type_symbol
 _atom_site_label
 _atom_site_symmetry_multiplicity
 _atom_site_fract_x
 _atom_site_fract_y
 _atom_site_fract_z
 _atom_site_occupancy
  Na  Na0  1  0.98148913  0.99285037  0.49317576  1
  Na  Na1  1  0.00714963  0.01851087  0.99317576  1
  Na  Na2  1  0.67465537  0.32120889  0.82668636  1
  Na  Na3  1  0.67879111  0.32534463  0.32668636  1
  Na  Na4  1  0.33006399  0.64741246  0.16058731  1
  Na  Na5  1  0.35258754  0.66993601  0.66058731  1
  Mg  Mg0  1  0.98849766  0.00440322  0.35309622  1
  Mg  Mg1  1  0.99559678  0.01150234  0.85309622  1
  Mg  Mg2  1  0.66317536  0.33089845  0.68619711  1
  Mg  Mg3  1  0.66910155  0.33682464  0.18619711  1
  Mg  Mg4  1  0.32736872  0.65139932  0.02017247  1
  Mg  Mg5  1  0.34860068  0.67263128  0.52017247  1
  Ta  Ta0  1  0.98021291  0.98878677  0.64589331  1
  Ta  Ta1  1  0.01121323  0.01978709  0.14589331  1
  Ta  Ta2  1  0.66562877  0.33317129  0.97960072  1
  Ta  Ta3  1  0.66682871  0.33437123  0.47960072  1
  Ta  Ta4  1  0.33815441  0.67191476  0.31272113  1
  Ta  Ta5  1  0.32808524  0.66184559  0.81272113  1
  Si  Si0  1  0.99142166  0.29431255  0.25377945  1
  Si  Si1  1  0.70568745  0.00857834  0.75377945  1
  Si  Si2  1  0.65257544  0.61307706  0.58684116  1
  Si  Si3  1  0.38692294  0.34742456  0.08684116  1
  Si  Si4  1  0.04421662  0.36848995  0.91981034  1
  Si  Si5  1  0.63151005  0.95578338  0.41981034  1
  S  S0  1  0.28728537  0.00179312  0.25210680  1
  S  S1  1  0.71451849  0.71058565  0.25124416  1
  S  S2  1  0.28941435  0.28548151  0.75124416  1
  S  S3  1  0.99820688  0.71271463  0.75210680  1
  S  S4  1  0.95882521  0.33812576  0.58415477  1
  S  S5  1  0.37611547  0.04315549  0.58456668  1
  S  S6  1  0.95684451  0.62388453  0.08456668  1
  S  S7  1  0.66187424  0.04117479  0.08415477  1
  S  S8  1  0.62400305  0.66952692  0.91807280  1
  S  S9  1  0.33087078  0.95206495  0.91804057  1
  S  S10  1  0.33047308  0.37599695  0.41807280  1
  S  S11  1  0.04793505  0.66912922  0.41804057  1
  O  O0  1  0.20229079  0.01764172  0.30385022  1
  O  O1  1  0.81838241  0.79017743  0.30333799  1
  O  O2  1  0.97800901  0.17695587  0.30712747  1
  O  O3  1  0.20982257  0.18161759  0.80333799  1
  O  O4  1  0.98235828  0.79770921  0.80385022  1
  O  O5  1  0.82304413  0.02199099  0.80712747  1
  O  O6  1  0.80176416  0.97091466  0.69226135  1
  O  O7  1  0.17852466  0.20815539  0.69719729  1
  O  O8  1  0.03316564  0.82692223  0.69722031  1
  O  O9  1  0.79184461  0.82147534  0.19719729  1
  O  O10  1  0.02908534  0.19823584  0.19226135  1
  O  O11  1  0.17307777  0.96683436  0.19722031  1
  O  O12  1  0.87612792  0.35597883  0.63631552  1
  O  O13  1  0.48469494  0.12212109  0.63583033  1
  O  O14  1  0.64839329  0.50677906  0.64258969  1
  O  O15  1  0.87787891  0.51530506  0.13583033  1
  O  O16  1  0.64402117  0.12387208  0.13631552  1
  O  O17  1  0.49322094  0.35160671  0.14258969  1
  O  O18  1  0.47422614  0.30600096  0.02644645  1
  O  O19  1  0.84218737  0.53638340  0.02993977  1
  O  O20  1  0.70160020  0.15797659  0.02982953  1
  O  O21  1  0.46361660  0.15781263  0.52993977  1
  O  O22  1  0.69399904  0.52577386  0.52644645  1
  O  O23  1  0.84202341  0.29839980  0.52982953  1
  O  O24  1  0.54591803  0.69799240  0.96957103  1
  O  O25  1  0.15672218  0.47267943  0.97389775  1
  O  O26  1  0.31475903  0.85262254  0.97050433  1
  O  O27  1  0.52732057  0.84327782  0.47389775  1
  O  O28  1  0.30200760  0.45408197  0.46957103  1
  O  O29  1  0.14737746  0.68524097  0.47050433  1
  O  O30  1  0.12725121  0.63341822  0.36363226  1
  O  O31  1  0.50032542  0.86249689  0.35903611  1
  O  O32  1  0.36267041  0.49030949  0.36388752  1
  O  O33  1  0.13750311  0.49967458  0.85903611  1
  O  O34  1  0.36658178  0.87274879  0.86363226  1
  O  O35  1  0.50969051  0.63732959  0.86388752  1
  O  O36  1  0.02627993  0.82100619  0.40765014  1
  O  O37  1  0.82326863  0.98195144  0.41296454  1
  O  O38  1  0.18876939  0.19765068  0.40886840  1
  O  O39  1  0.01804856  0.17673137  0.91296454  1
  O  O40  1  0.17899381  0.97372007  0.90765014  1
  O  O41  1  0.80234932  0.81123061  0.90886840  1
  O  O42  1  0.97904438  0.17441897  0.58923754  1
  O  O43  1  0.20277150  0.04014275  0.58937443  1
  O  O44  1  0.84720069  0.81553831  0.59134287  1
  O  O45  1  0.95985725  0.79722850  0.08937443  1
  O  O46  1  0.82558103  0.02095562  0.08923754  1
  O  O47  1  0.18446169  0.15279931  0.09134287  1
  O  O48  1  0.67804244  0.17154466  0.74190495  1
  O  O49  1  0.46692321  0.31684130  0.74385178  1
  O  O50  1  0.85000026  0.53770587  0.74360862  1
  O  O51  1  0.68315870  0.53307679  0.24385178  1
  O  O52  1  0.82845534  0.32195756  0.24190495  1
  O  O53  1  0.46229413  0.14999974  0.24360862  1
  O  O54  1  0.63173667  0.49886051  0.92313684  1
  O  O55  1  0.84386733  0.35715112  0.92537459  1
  O  O56  1  0.49696707  0.13311105  0.92246191  1
  O  O57  1  0.64284888  0.15613267  0.42537459  1
  O  O58  1  0.50113949  0.36826333  0.42313684  1
  O  O59  1  0.86688895  0.50303293  0.42246191  1
  O  O60  1  0.35296914  0.50802978  0.07996756  1
  O  O61  1  0.13460740  0.65711319  0.07552948  1
  O  O62  1  0.51033595  0.87005367  0.07347903  1
  O  O63  1  0.34288681  0.86539260  0.57552948  1
  O  O64  1  0.49197022  0.64703086  0.57996756  1
  O  O65  1  0.12994633  0.48966405  0.57347903  1
  O  O66  1  0.29949008  0.83310724  0.25577928  1
  O  O67  1  0.53242238  0.69781842  0.25714180  1
  O  O68  1  0.17981717  0.48985650  0.25910421  1
  O  O69  1  0.30218158  0.46757762  0.75714180  1
  O  O70  1  0.16689276  0.70050992  0.75577928  1
  O  O71  1  0.51014350  0.82018283  0.75910421  1
loop_
_geom_bond_atom_site_label_1
_geom_bond_atom_site_label_2
_geom_bond_distance
_geom_bond_site_symmetry_2
Na0 O37 2.263892 1_555
Na0 O36 2.613537 1_655
Na0 O38 2.640788 1_665
Na0 O44 2.642505 1_555
Na0 O42 2.716818 1_565
Na0 O43 2.813672 1_665
Na1 O39 2.263892 1_555
Na1 O40 2.613537 1_545
Na1 O41 2.640788 1_445
Na1 O47 2.642505 1_556
Na1 O46 2.716819 1_456
Na1 O45 2.813672 1_446
Na2 O48 2.347229 1_555
Na2 O50 2.577702 1_555
Na2 O49 2.604901 1_555
Na2 O55 2.622002 1_555
Na2 O56 2.712051 1_555
Na2 O54 2.829248 1_555
Na3 O52 2.347229 1_555
Na3 O53 2.577702 1_555
Na3 O51 2.604901 1_555
Na3 O57 2.622002 1_555
Na3 O59 2.712051 1_555
Na3 O58 2.829248 1_555
Na4 O60 2.273315 1_555
Na4 O61 2.611164 1_555
Na4 O68 2.621943 1_555
Na4 O62 2.678874 1_555
Na4 O67 2.717267 1_555
Na4 O66 2.807976 1_555
Na5 O64 2.273315 1_555
Na5 O63 2.611164 1_555
Na5 O71 2.621943 1_555
Na5 O65 2.678874 1_555
Na5 O69 2.717267 1_555
Na5 O70 2.807976 1_555
Mg0 O2 1.875462 1_555
Mg0 O37 1.929798 1_545
Mg0 O1 2.062681 1_545
Mg0 O0 2.139574 1_655
Mg0 O38 2.147088 1_655
Mg0 O36 2.179001 1_645
Mg1 O5 1.875462 1_555
Mg1 O39 1.929798 1_655
Mg1 O3 2.062681 1_655
Mg1 O4 2.139574 1_545
Mg1 O41 2.147088 1_545
Mg1 O40 2.179001 1_645
Mg2 O14 1.888141 1_555
Mg2 O48 1.935221 1_555
Mg2 O13 2.066372 1_555
Mg2 O12 2.103779 1_555
Mg2 O49 2.121534 1_555
Mg2 O50 2.174910 1_555
Mg3 O17 1.888141 1_555
Mg3 O52 1.935221 1_555
Mg3 O15 2.066372 1_555
Mg3 O16 2.103779 1_555
Mg3 O51 2.121534 1_555
Mg3 O53 2.174910 1_555
Mg4 O25 1.864063 1_554
Mg4 O60 1.936748 1_555
Mg4 O24 2.096984 1_554
Mg4 O61 2.131629 1_555
Mg4 O26 2.140004 1_554
Mg4 O62 2.160568 1_555
Mg5 O27 1.864063 1_555
Mg5 O64 1.936748 1_555
Mg5 O28 2.096984 1_555
Mg5 O63 2.131629 1_555
Mg5 O29 2.140004 1_555
Mg5 O65 2.160568 1_555
O0 S0 1.440138 1_555
O1 S1 1.446434 1_555
O2 Si0 1.556202 1_555
O3 S2 1.446434 1_555
O4 S3 1.440138 1_555
O5 Si1 1.556202 1_555
O6 Si1 1.752056 1_565
O6 Ta0 1.830746 1_555
O7 S2 1.504713 1_555
O7 Ta0 2.182810 1_445
O8 S3 1.532856 1_455
O8 Ta0 2.057235 1_455
O9 S1 1.504713 1_555
O9 Ta1 2.182810 1_665
O10 Si0 1.752056 1_455
O10 Ta1 1.830746 1_555
O11 S0 1.532856 1_565
O11 Ta1 2.057235 1_565
O12 S4 1.442928 1_555
O13 S5 1.446752 1_555
O14 Si2 1.562508 1_555
O15 S6 1.446752 1_555
O16 S7 1.442928 1_555
O17 Si3 1.562508 1_555
O18 Si3 1.702103 1_555
O18 Ta2 1.903054 1_554
O19 S6 1.542778 1_555
O19 Ta2 2.036011 1_554
O20 S7 1.530358 1_555
O20 Ta2 2.056904 1_554
O21 S5 1.542778 1_555
O21 Ta3 2.036011 1_555
O22 Si2 1.702103 1_555
O22 Ta3 1.903054 1_555
O23 S4 1.530358 1_555
O23 Ta3 2.056904 1_555
O24 S8 1.443729 1_555
O25 Si4 1.558953 1_555
O26 S9 1.442464 1_555
O27 Si5 1.558953 1_555
O28 S10 1.443729 1_555
O29 S11 1.442464 1_555
O30 S11 1.530515 1_555
O30 Ta4 2.065475 1_555
O31 Si5 1.723845 1_555
O31 Ta4 1.888506 1_555
O32 S10 1.523536 1_555
O32 Ta4 2.064400 1_555
O33 Si4 1.723845 1_555
O33 Ta5 1.888506 1_555
O34 S9 1.530515 1_555
O34 Ta5 2.065475 1_555
O35 S8 1.523536 1_555
O35 Ta5 2.064400 1_555
O36 S11 1.452579 1_555
O37 Si5 1.586645 1_555
O38 S10 1.449292 1_555
O39 Si4 1.586645 1_555
O40 S9 1.452579 1_555
O41 S8 1.449292 1_555
O42 S4 1.533593 1_555
O42 Ta0 2.077022 1_545
O43 S5 1.509787 1_555
O43 Ta0 2.191906 1_445
O44 Si2 1.749375 1_555
O44 Ta0 1.858450 1_555
O45 S6 1.509787 1_555
O45 Ta1 2.191905 1_665
O46 S7 1.533593 1_555
O46 Ta1 2.077022 1_655
O47 Si3 1.749375 1_555
O47 Ta1 1.858450 1_555
O48 Si1 1.584211 1_555
O49 S2 1.448727 1_555
O50 S3 1.448207 1_555
O51 S1 1.448727 1_555
O52 Si0 1.584212 1_555
O53 S0 1.448207 1_555
O54 S8 1.533631 1_555
O54 Ta2 2.064831 1_555
O55 Si4 1.712902 1_655
O55 Ta2 1.922168 1_555
O56 S9 1.533360 1_545
O56 Ta2 2.093240 1_555
O57 Si5 1.712902 1_545
O57 Ta3 1.922168 1_555
O58 S10 1.533631 1_555
O58 Ta3 2.064831 1_555
O59 S11 1.533360 1_655
O59 Ta3 2.093240 1_555
O60 Si3 1.582927 1_555
O61 S6 1.450318 1_455
O62 S7 1.446655 1_565
O63 S5 1.450318 1_565
O64 Si2 1.582927 1_555
O65 S4 1.446655 1_455
O66 S0 1.535442 1_565
O66 Ta4 2.062114 1_555
O67 S1 1.548850 1_555
O67 Ta4 2.044746 1_555
O68 Si0 1.692794 1_455
O68 Ta4 1.940608 1_555
O69 S2 1.548850 1_555
O69 Ta5 2.044746 1_555
O70 S3 1.535442 1_455
O70 Ta5 2.062114 1_555
O71 Si1 1.692794 1_565
O71 Ta5 1.940608 1_555
