# generated using pymatgen
data_MgV4FeNiO12
_symmetry_space_group_name_H-M   'P 1'
_cell_length_a   6.95981010
_cell_length_b   6.40720873
_cell_length_c   5.86431450
_cell_angle_alpha   75.99400513
_cell_angle_beta   101.62661938
_cell_angle_gamma   98.67891067
_symmetry_Int_Tables_number   1
_chemical_formula_structural   MgV4FeNiO12
_chemical_formula_sum   'Mg1 V4 Fe1 Ni1 O12'
_cell_volume   247.08747927
_cell_formula_units_Z   1
loop_
 _symmetry_equiv_pos_site_id
 _symmetry_equiv_pos_as_xyz
  1  'x, y, z'
loop_
 _atom_site_type_symbol
 _atom_site_label
 _atom_site_symmetry_multiplicity
 _atom_site_fract_x
 _atom_site_fract_y
 _atom_site_fract_z
 _atom_site_occupancy
  Mg  Mg0  1  0.26684938  0.40690646  0.38449737  1
  V  V0  1  0.23587266  0.68053032  0.73560995  1
  V  V1  1  0.39449726  0.86346869  0.18629797  1
  V  V2  1  0.60119679  0.17496731  0.80935056  1
  V  V3  1  0.74075673  0.37294457  0.25798445  1
  Fe  Fe0  1  0.08556970  0.08797010  0.79741722  1
  Ni  Ni0  1  0.91033874  0.94533890  0.25724171  1
  O  O0  1  0.03099702  0.83380359  0.62566387  1
  O  O1  1  0.17745854  0.38221486  0.70704953  1
  O  O2  1  0.17399341  0.00272063  0.14569104  1
  O  O3  1  0.37761158  0.69847448  0.49090427  1
  O  O4  1  0.37323883  0.98199461  0.81151357  1
  O  O5  1  0.31241228  0.60212514  0.07232531  1
  O  O6  1  0.65138064  0.41268942  0.93884826  1
  O  O7  1  0.62666422  0.02648167  0.20885816  1
  O  O8  1  0.56003521  0.30058484  0.47441744  1
  O  O9  1  0.82619872  0.05331520  0.86903355  1
  O  O10  1  0.81875516  0.63057602  0.26589066  1
  O  O11  1  0.96580713  0.25585618  0.32598712  1
loop_
_geom_bond_atom_site_label_1
_geom_bond_atom_site_label_2
_geom_bond_distance
_geom_bond_site_symmetry_2
Mg0 O5 2.005580 1_555
Mg0 O1 2.071188 1_555
Mg0 O3 2.099842 1_555
Mg0 O11 2.168698 1_455
Mg0 O8 2.172043 1_555
Fe0 O1 1.879700 1_555
Fe0 O9 1.903631 1_455
Fe0 O2 1.975668 1_556
Fe0 O0 2.064907 1_545
Fe0 O4 2.189241 1_545
Ni0 O10 2.012886 1_555
Ni0 O2 2.023388 1_665
Ni0 O7 2.064297 1_565
Ni0 O11 2.088918 1_565
Ni0 O0 2.141563 1_655
Ni0 O9 2.197018 1_564
O0 V0 1.777321 1_555
O1 V0 1.933822 1_555
O2 V1 1.836039 1_545
O3 V1 1.858850 1_555
O3 V0 1.871408 1_555
O4 V2 1.858634 1_565
O4 V1 2.126991 1_556
O4 V0 2.128463 1_555
O5 V0 1.900482 1_554
O5 V1 1.917320 1_555
O6 V3 1.817205 1_556
O6 V2 1.819636 1_555
O7 V1 1.786258 1_545
O7 V2 2.286927 1_554
O7 V3 2.307962 1_555
O8 V3 1.894878 1_555
O8 V2 1.914507 1_555
O9 V2 1.788214 1_555
O10 V3 1.666767 1_555
O11 V3 1.770089 1_555
