# generated using pymatgen
data_Na3TiSi2SnPO12
_symmetry_space_group_name_H-M   'P 1'
_cell_length_a   15.56827276
_cell_length_b   8.96615311
_cell_length_c   9.01056016
_cell_angle_alpha   90.09768525
_cell_angle_beta   125.15270095
_cell_angle_gamma   89.82738300
_symmetry_Int_Tables_number   1
_chemical_formula_structural   Na3TiSi2SnPO12
_chemical_formula_sum   'Na12 Ti4 Si8 Sn4 P4 O48'
_cell_volume   1028.36707318
_cell_formula_units_Z   4
loop_
 _symmetry_equiv_pos_site_id
 _symmetry_equiv_pos_as_xyz
  1  'x, y, z'
loop_
 _atom_site_type_symbol
 _atom_site_label
 _atom_site_symmetry_multiplicity
 _atom_site_fract_x
 _atom_site_fract_y
 _atom_site_fract_z
 _atom_site_occupancy
  Na  Na0  1  0.24413943  0.77167756  0.99356278  1
  Na  Na1  1  0.74781629  0.73381095  0.50211087  1
  Na  Na2  1  0.74849817  0.26581640  0.00124321  1
  Na  Na3  1  0.24344176  0.22361136  0.49332839  1
  Na  Na4  1  0.50180729  0.11289215  0.75337293  1
  Na  Na5  1  0.50538823  0.89057901  0.25147624  1
  Na  Na6  1  0.00370581  0.61992396  0.75723208  1
  Na  Na7  1  0.00391066  0.37621158  0.25016842  1
  Na  Na8  1  0.81063466  0.93967386  0.22417929  1
  Na  Na9  1  0.81123985  0.06225163  0.72461107  1
  Na  Na10  1  0.30246837  0.43408495  0.20644405  1
  Na  Na11  1  0.30978312  0.55699185  0.73126392  1
  Ti  Ti0  1  0.89505907  0.74162268  0.93852909  1
  Ti  Ti1  1  0.89364583  0.26048324  0.43421973  1
  Ti  Ti2  1  0.10456680  0.25175903  0.05631413  1
  Ti  Ti3  1  0.39400100  0.23842100  0.93662081  1
  Si  Si0  1  0.35430834  0.89464906  0.75423810  1
  Si  Si1  1  0.64881749  0.89218418  0.74340422  1
  Si  Si2  1  0.64822125  0.10938342  0.24479332  1
  Si  Si3  1  0.35340595  0.10608419  0.25367616  1
  Si  Si4  1  0.85627193  0.39730664  0.75295463  1
  Si  Si5  1  0.14514744  0.38988174  0.74247089  1
  Si  Si6  1  0.14628057  0.60461119  0.24444609  1
  Si  Si7  1  0.85512703  0.60430716  0.25371991  1
  Sn  Sn0  1  0.10394780  0.75223336  0.55935993  1
  Sn  Sn1  1  0.60450260  0.25167234  0.56140785  1
  Sn  Sn2  1  0.39597495  0.75419304  0.43230885  1
  Sn  Sn3  1  0.60405535  0.74841264  0.05988351  1
  P  P0  1  0.00020940  0.96562725  0.74479018  1
  P  P1  1  0.00195280  0.04010625  0.24498446  1
  P  P2  1  0.49897534  0.45594374  0.74640147  1
  P  P3  1  0.50150960  0.53908605  0.24577862  1
  O  O0  1  0.15024881  0.57467624  0.74634391  1
  O  O1  1  0.85492960  0.57963480  0.75844209  1
  O  O2  1  0.85521522  0.42183725  0.25716300  1
  O  O3  1  0.15061804  0.42094371  0.22968242  1
  O  O4  1  0.65522941  0.07689032  0.74481438  1
  O  O5  1  0.35135842  0.07763515  0.76752835  1
  O  O6  1  0.35274475  0.92399362  0.24476579  1
  O  O7  1  0.65560079  0.92494170  0.24280139  1
  O  O8  1  0.43032608  0.54886705  0.56995062  1
  O  O9  1  0.56296312  0.55412159  0.91591282  1
  O  O10  1  0.56575202  0.44949348  0.42377006  1
  O  O11  1  0.43952026  0.44182010  0.07478891  1
  O  O12  1  0.93404882  0.05808710  0.56800786  1
  O  O13  1  0.06079437  0.06897703  0.91173631  1
  O  O14  1  0.07240913  0.94931471  0.42181389  1
  O  O15  1  0.93668231  0.93765582  0.07744235  1
  O  O16  1  0.25655110  0.81383315  0.74103089  1
  O  O17  1  0.75466279  0.82908692  0.76529030  1
  O  O18  1  0.75107127  0.17477831  0.25916233  1
  O  O19  1  0.25010311  0.17894406  0.22837071  1
  O  O20  1  0.75864570  0.31965148  0.74267652  1
  O  O21  1  0.25069386  0.32848959  0.76296220  1
  O  O22  1  0.24686017  0.66957092  0.25043214  1
  O  O23  1  0.75513850  0.67836240  0.23881769  1
  O  O24  1  0.36223639  0.86769058  0.58396018  1
  O  O25  1  0.64619368  0.86330702  0.91957309  1
  O  O26  1  0.65064794  0.13550457  0.42699929  1
  O  O27  1  0.36446004  0.16047363  0.08921109  1
  O  O28  1  0.86053268  0.34979184  0.57838534  1
  O  O29  1  0.14301047  0.35078206  0.91928882  1
  O  O30  1  0.15083732  0.62666612  0.42924027  1
  O  O31  1  0.86303721  0.65287953  0.08462492  1
  O  O32  1  0.45608561  0.82450551  0.94216631  1
  O  O33  1  0.54635580  0.82661268  0.55355292  1
  O  O34  1  0.53818988  0.17254967  0.06343428  1
  O  O35  1  0.45506677  0.17424777  0.44311354  1
  O  O36  1  0.96370442  0.32919832  0.93331405  1
  O  O37  1  0.03747399  0.32600997  0.55859439  1
  O  O38  1  0.03787281  0.67396850  0.06613837  1
  O  O39  1  0.95561610  0.67689721  0.44097195  1
  O  O40  1  0.08125222  0.86127534  0.74740424  1
  O  O41  1  0.92278589  0.86573237  0.75615894  1
  O  O42  1  0.92081494  0.13616016  0.25215780  1
  O  O43  1  0.07584600  0.14673547  0.23400086  1
  O  O44  1  0.57997898  0.35346075  0.74795136  1
  O  O45  1  0.42013702  0.35704173  0.75371214  1
  O  O46  1  0.41654180  0.63484681  0.24434567  1
  O  O47  1  0.58034020  0.64656242  0.24869805  1
loop_
_geom_bond_atom_site_label_1
_geom_bond_atom_site_label_2
_geom_bond_distance
_geom_bond_site_symmetry_2
Na0 O6 2.333167 1_556
Na0 O40 2.347895 1_555
Na0 O16 2.422306 1_555
Na0 O22 2.468020 1_556
Na0 O0 2.543895 1_555
Na0 O46 2.611684 1_556
Na1 O1 2.363947 1_555
Na1 O47 2.403032 1_555
Na1 O17 2.463171 1_555
Na1 O23 2.489094 1_555
Na1 O7 2.567757 1_555
Na1 O41 2.624707 1_555
Na2 O2 2.371942 1_555
Na2 O44 2.410017 1_554
Na2 O18 2.442931 1_555
Na2 O20 2.472689 1_554
Na2 O4 2.540605 1_554
Na2 O42 2.581814 1_555
Na3 O43 2.393276 1_555
Na3 O5 2.420321 1_555
Na3 O19 2.480424 1_555
Na3 O21 2.544940 1_555
Na3 O3 2.628316 1_555
Na3 O45 2.661091 1_555
Na4 O5 2.439436 1_555
Na4 O4 2.454085 1_555
Na4 O44 2.494123 1_555
Na4 O35 2.511555 1_555
Na4 O45 2.529110 1_555
Na4 O34 2.566497 1_556
Na4 O24 2.843053 1_545
Na4 O25 2.899676 1_545
Na5 O6 2.360293 1_555
Na5 O7 2.405154 1_555
Na5 O33 2.479605 1_555
Na5 O47 2.483374 1_555
Na5 O32 2.498310 1_554
Na5 O46 2.662921 1_555
Na5 O26 2.887492 1_565
Na5 O27 3.015556 1_565
Na6 O1 2.351484 1_455
Na6 O0 2.373000 1_555
Na6 O40 2.507528 1_555
Na6 O41 2.532565 1_455
Na6 O39 2.547168 1_455
Na6 O38 2.560710 1_556
Na7 O43 2.383644 1_555
Na7 O2 2.385884 1_455
Na7 O3 2.429558 1_555
Na7 O42 2.519928 1_455
Na7 O37 2.555321 1_555
Na7 O36 2.580765 1_454
Na8 O42 2.372401 1_565
Na8 O18 2.392777 1_565
Na8 O7 2.517830 1_555
Na8 O23 2.529385 1_555
Na8 O25 2.543419 1_554
Na8 O12 2.750206 1_565
Na9 O41 2.369823 1_545
Na9 O17 2.380383 1_545
Na9 O26 2.479738 1_555
Na9 O20 2.482757 1_555
Na9 O4 2.540992 1_555
Na9 O15 2.831745 1_546
Na9 O12 2.958723 1_555
Na10 O22 2.397052 1_555
Na10 O46 2.414443 1_555
Na10 O29 2.454282 1_554
Na10 O19 2.476925 1_555
Na10 O3 2.493636 1_555
Na10 O8 2.871032 1_555
Na11 O21 2.332651 1_555
Na11 O45 2.406054 1_555
Na11 O16 2.463652 1_555
Na11 O30 2.482240 1_555
Na11 O0 2.568736 1_555
Na11 O11 2.743396 1_556
O0 Si5 1.658383 1_555
O0 Sn0 2.120489 1_555
O1 Si4 1.635880 1_555
O1 Ti0 1.990720 1_555
O2 Si7 1.636382 1_555
O2 Ti1 1.974773 1_555
O3 Si6 1.656232 1_555
O3 Ti2 1.991033 1_555
O4 Si1 1.658996 1_545
O4 Sn1 2.075848 1_555
O5 Si0 1.647269 1_545
O5 Ti3 1.916760 1_555
O6 Si3 1.634260 1_565
O6 Sn2 2.078329 1_555
O7 Si2 1.658156 1_565
O7 Sn3 2.083613 1_555
O8 P2 1.551355 1_555
O8 Sn2 2.109855 1_555
O9 P2 1.532577 1_555
O9 Sn3 2.042111 1_556
O10 P3 1.539560 1_555
O10 Sn1 2.046345 1_555
O11 P3 1.534283 1_555
O11 Ti3 2.088581 1_554
O12 P0 1.547768 1_645
O12 Ti1 2.066278 1_555
O13 P0 1.542032 1_545
O13 Ti2 1.955634 1_556
O14 P1 1.546312 1_565
O14 Sn0 2.049665 1_555
O15 P1 1.545910 1_665
O15 Ti0 2.035037 1_554
O16 Si0 1.628873 1_555
O16 Sn0 2.038505 1_555
O17 Si1 1.641602 1_555
O17 Ti0 1.973342 1_555
O18 Si2 1.640447 1_555
O18 Ti1 1.994960 1_555
O19 Si3 1.623922 1_555
O19 Ti2 1.978140 1_555
O20 Si4 1.627098 1_555
O20 Sn1 2.071233 1_555
O21 Si5 1.637879 1_555
O21 Ti3 2.012873 1_555
O22 Si6 1.643827 1_555
O22 Sn2 2.067865 1_555
O23 Si7 1.623408 1_555
O23 Sn3 2.038149 1_555
O24 Si0 1.626147 1_555
O24 Sn2 1.999304 1_555
O25 Si1 1.632364 1_555
O25 Sn3 2.013345 1_556
O26 Si2 1.636775 1_555
O26 Sn1 2.015146 1_555
O27 Si3 1.661375 1_555
O27 Ti3 1.823107 1_554
O28 Si4 1.666678 1_555
O28 Ti1 1.832890 1_555
O29 Si5 1.650878 1_555
O29 Ti2 1.878502 1_556
O30 Si6 1.636958 1_555
O30 Sn0 2.037443 1_555
O31 Si7 1.656792 1_555
O31 Ti0 1.837449 1_554
O32 Si0 1.637550 1_555
O32 Sn3 2.019060 1_556
O33 Si1 1.636014 1_555
O33 Sn2 2.039055 1_555
O34 Si2 1.642999 1_555
O34 Ti3 1.932397 1_554
O35 Si3 1.638124 1_555
O35 Sn1 2.045037 1_555
O36 Si4 1.636663 1_555
O36 Ti2 1.927256 1_656
O37 Si5 1.639334 1_555
O37 Ti1 1.931585 1_455
O38 Si6 1.640461 1_555
O38 Ti0 1.919330 1_454
O39 Si7 1.637297 1_555
O39 Sn0 2.024162 1_655
O40 P0 1.557751 1_555
O40 Sn0 2.152513 1_555
O41 P0 1.553896 1_655
O41 Ti0 2.225050 1_555
O42 P1 1.558457 1_655
O42 Ti1 2.214177 1_555
O43 P1 1.544436 1_555
O43 Ti2 2.117088 1_555
O44 P2 1.551662 1_555
O44 Sn1 2.129702 1_555
O45 P2 1.548229 1_555
O45 Ti3 2.189476 1_555
O46 P3 1.568663 1_555
O46 Sn2 2.175376 1_555
O47 P3 1.550914 1_555
O47 Sn3 2.143688 1_555
