# generated using pymatgen
data_LiYb2Cl5
_symmetry_space_group_name_H-M   'P 1'
_cell_length_a   8.19645846
_cell_length_b   8.19645846
_cell_length_c   7.17747104
_cell_angle_alpha   87.63891320
_cell_angle_beta   87.63891320
_cell_angle_gamma   44.44256514
_symmetry_Int_Tables_number   1
_chemical_formula_structural   LiYb2Cl5
_chemical_formula_sum   'Li2 Yb4 Cl10'
_cell_volume   337.29647256
_cell_formula_units_Z   2
loop_
 _symmetry_equiv_pos_site_id
 _symmetry_equiv_pos_as_xyz
  1  'x, y, z'
loop_
 _atom_site_type_symbol
 _atom_site_label
 _atom_site_symmetry_multiplicity
 _atom_site_fract_x
 _atom_site_fract_y
 _atom_site_fract_z
 _atom_site_occupancy
  Li  Li0  1  0.00000000  0.50000000  0.00000000  1
  Li  Li1  1  0.50000000  0.00000000  0.50000000  1
  Yb  Yb0  1  0.11387348  0.73784163  0.56449785  1
  Yb  Yb1  1  0.73784163  0.11387348  0.06449785  1
  Yb  Yb2  1  0.88612652  0.26215837  0.43550215  1
  Yb  Yb3  1  0.26215837  0.88612652  0.93550215  1
  Cl  Cl0  1  0.50537629  0.31464051  0.39894395  1
  Cl  Cl1  1  0.12007203  0.87992797  0.25000000  1
  Cl  Cl2  1  0.87992797  0.12007203  0.75000000  1
  Cl  Cl3  1  0.86055092  0.73380378  0.32736467  1
  Cl  Cl4  1  0.13944908  0.26619622  0.67263533  1
  Cl  Cl5  1  0.73380378  0.86055092  0.82736467  1
  Cl  Cl6  1  0.26619622  0.13944908  0.17263533  1
  Cl  Cl7  1  0.49462371  0.68535949  0.60105605  1
  Cl  Cl8  1  0.31464051  0.50537629  0.89894395  1
  Cl  Cl9  1  0.68535949  0.49462371  0.10105605  1
loop_
_geom_bond_atom_site_label_1
_geom_bond_atom_site_label_2
_geom_bond_distance
_geom_bond_site_symmetry_2
Cl0 Li1 2.680388 1_555
Cl0 Yb1 2.751762 1_555
Cl0 Yb0 2.805866 1_555
Cl0 Yb2 2.852115 1_555
Cl1 Yb0 2.512513 1_555
Cl1 Yb3 2.512513 1_554
Cl1 Yb1 2.611537 1_465
Cl1 Yb2 2.611537 1_465
Cl2 Yb1 2.512513 1_556
Cl2 Yb2 2.512513 1_555
Cl2 Yb0 2.611537 1_645
Cl2 Yb3 2.611537 1_645
Cl3 Li1 2.396521 1_565
Cl3 Li0 2.742589 1_655
Cl3 Yb0 2.757376 1_655
Cl3 Yb1 3.077994 1_565
Cl4 Li1 2.396521 1_555
Cl4 Li0 2.742589 1_556
Cl4 Yb2 2.757376 1_455
Cl4 Yb3 3.077994 1_545
Cl5 Li0 2.396521 1_656
Cl5 Li1 2.742589 1_565
Cl5 Yb1 2.757376 1_566
Cl5 Yb0 3.077994 1_655
Cl6 Li0 2.396521 1_555
Cl6 Li1 2.742589 1_555
Cl6 Yb3 2.757376 1_544
Cl6 Yb2 3.077994 1_455
Cl7 Li1 2.680388 1_565
Cl7 Yb3 2.751762 1_555
Cl7 Yb2 2.805866 1_555
Cl7 Yb0 2.852115 1_555
Cl8 Li0 2.680388 1_556
Cl8 Yb0 2.751762 1_555
Cl8 Yb1 2.805866 1_556
Cl8 Yb3 2.852115 1_555
Cl9 Li0 2.680388 1_655
Cl9 Yb2 2.751762 1_555
Cl9 Yb3 2.805866 1_554
Cl9 Yb1 2.852115 1_555
