# generated using pymatgen
data_MgNb4(CoO6)2
_symmetry_space_group_name_H-M   'P 1'
_cell_length_a   9.07325983
_cell_length_b   5.79039182
_cell_length_c   5.88919714
_cell_angle_alpha   75.28682595
_cell_angle_beta   58.86180817
_cell_angle_gamma   59.32062636
_symmetry_Int_Tables_number   1
_chemical_formula_structural   MgNb4(CoO6)2
_chemical_formula_sum   'Mg1 Nb4 Co2 O12'
_cell_volume   227.74011045
_cell_formula_units_Z   1
loop_
 _symmetry_equiv_pos_site_id
 _symmetry_equiv_pos_as_xyz
  1  'x, y, z'
loop_
 _atom_site_type_symbol
 _atom_site_label
 _atom_site_symmetry_multiplicity
 _atom_site_fract_x
 _atom_site_fract_y
 _atom_site_fract_z
 _atom_site_occupancy
  Mg  Mg0  1  0.40928500  0.99996600  0.51301700  1
  Nb  Nb0  1  0.00719000  0.96892900  0.98039700  1
  Nb  Nb1  1  0.30773000  0.03601500  0.06195100  1
  Nb  Nb2  1  0.68826600  0.99572600  0.96517400  1
  Nb  Nb3  1  0.80971400  0.49528400  0.50981200  1
  Co  Co0  1  0.16071300  0.54567300  0.48409500  1
  Co  Co1  1  0.50747600  0.45288600  0.49329100  1
  O  O0  1  0.47796800  0.27202900  0.27630300  1
  O  O1  1  0.16870700  0.81726600  0.18785200  1
  O  O2  1  0.17412900  0.18520400  0.82547500  1
  O  O3  1  0.81614800  0.28693600  0.29823300  1
  O  O4  1  0.85433700  0.71794800  0.69508800  1
  O  O5  1  0.49563300  0.80088700  0.20581600  1
  O  O6  1  0.49339000  0.18188700  0.79422000  1
  O  O7  1  0.12594800  0.31005500  0.32500300  1
  O  O8  1  0.19951700  0.71700400  0.69770600  1
  O  O9  1  0.84766200  0.22141600  0.78790500  1
  O  O10  1  0.83563100  0.78531900  0.20944000  1
  O  O11  1  0.53484100  0.69915300  0.69963900  1
loop_
_geom_bond_atom_site_label_1
_geom_bond_atom_site_label_2
_geom_bond_distance
_geom_bond_site_symmetry_2
Mg0 O2 1.922411 1_565
Mg0 O0 1.949688 1_565
Mg0 O11 1.958879 1_555
Mg0 O5 1.971691 1_555
Nb0 O8 1.891061 1_555
Nb0 O10 2.040017 1_456
Nb0 O9 2.052624 1_465
Nb0 O1 2.098786 1_556
Nb0 O2 2.149663 1_565
Nb0 O3 2.244338 1_466
Nb1 O7 1.890397 1_555
Nb1 O1 1.982767 1_545
Nb1 O5 2.004340 1_545
Nb1 O6 2.016370 1_554
Nb1 O2 2.054598 1_554
Nb1 O11 2.463517 1_544
Nb2 O4 1.932659 1_555
Nb2 O0 2.077469 1_566
Nb2 O9 2.136233 1_565
Nb2 O6 2.155634 1_565
Nb2 O10 2.185890 1_556
Nb2 O5 2.230345 1_556
Nb3 O3 1.904712 1_555
Nb3 O11 1.909400 1_555
Nb3 O9 2.005563 1_555
Nb3 O10 2.113922 1_555
Nb3 O4 2.172783 1_555
Nb3 O7 2.188725 1_655
Co0 O1 2.028307 1_555
Co0 O8 2.034497 1_555
Co0 O7 2.057379 1_555
Co0 O4 2.119931 1_455
Co0 O0 2.231956 1_555
Co0 O2 2.505122 1_555
Co1 O0 2.030049 1_555
Co1 O6 2.043839 1_555
Co1 O3 2.138647 1_555
Co1 O8 2.165933 1_555
Co1 O11 2.263942 1_555
Co1 O5 2.274322 1_555
