# generated using pymatgen
data_Na7CaGa3Si3(SO8)3
_symmetry_space_group_name_H-M   'P 1'
_cell_length_a   9.05466577
_cell_length_b   9.05529297
_cell_length_c   22.21128487
_cell_angle_alpha   90.74543089
_cell_angle_beta   90.05584281
_cell_angle_gamma   119.86405057
_symmetry_Int_Tables_number   1
_chemical_formula_structural   Na7CaGa3Si3(SO8)3
_chemical_formula_sum   'Na21 Ca3 Ga9 Si9 S9 O72'
_cell_volume   1579.13683746
_cell_formula_units_Z   3
loop_
 _symmetry_equiv_pos_site_id
 _symmetry_equiv_pos_as_xyz
  1  'x, y, z'
loop_
 _atom_site_type_symbol
 _atom_site_label
 _atom_site_symmetry_multiplicity
 _atom_site_fract_x
 _atom_site_fract_y
 _atom_site_fract_z
 _atom_site_occupancy
  Na  Na0  1  0.63518332  0.99339940  0.24338341  1
  Na  Na1  1  0.37788022  0.37685440  0.24213139  1
  Na  Na2  1  0.98567292  0.63654135  0.25413859  1
  Na  Na3  1  0.62187160  0.62463855  0.74307058  1
  Na  Na4  1  0.99550122  0.35490906  0.75207897  1
  Na  Na5  1  0.38334970  0.01372165  0.75646429  1
  Na  Na6  1  0.02252751  0.69837834  0.57746355  1
  Na  Na7  1  0.66575813  0.96032386  0.58321972  1
  Na  Na8  1  0.31111377  0.97603022  0.08144732  1
  Na  Na9  1  0.65466649  0.69036271  0.08758951  1
  Na  Na10  1  0.69746562  0.03546784  0.91568932  1
  Na  Na11  1  0.33245651  0.29074564  0.91684816  1
  Na  Na12  1  0.96110449  0.29715200  0.41521157  1
  Na  Na13  1  0.33272233  0.02489608  0.41790081  1
  Na  Na14  1  0.72064181  0.68358073  0.41616811  1
  Na  Na15  1  0.99332715  0.99116464  0.50039085  1
  Na  Na16  1  0.00670018  0.00474172  0.00143736  1
  Na  Na17  1  0.65950530  0.32538673  0.83398268  1
  Na  Na18  1  0.67401418  0.34659965  0.33304077  1
  Na  Na19  1  0.34152968  0.65954914  0.16073479  1
  Na  Na20  1  0.34991357  0.65102505  0.66609461  1
  Ca  Ca0  1  0.99468147  0.99219388  0.35400739  1
  Ca  Ca1  1  0.65791060  0.33409970  0.68374918  1
  Ca  Ca2  1  0.65917844  0.33412697  0.17444931  1
  Ga  Ga0  1  0.01718945  0.00680734  0.84907885  1
  Ga  Ga1  1  0.98319381  0.99949953  0.65408528  1
  Ga  Ga2  1  0.97761464  0.00823963  0.14285578  1
  Ga  Ga3  1  0.62428730  0.28440442  0.98975351  1
  Ga  Ga4  1  0.69229883  0.35639960  0.48023087  1
  Ga  Ga5  1  0.33088064  0.67245755  0.01739352  1
  Ga  Ga6  1  0.35267793  0.67727733  0.51408107  1
  Ga  Ga7  1  0.35289951  0.69025546  0.32083598  1
  Ga  Ga8  1  0.35177760  0.67608456  0.81446506  1
  Si  Si0  1  0.69635049  0.70198529  0.25104459  1
  Si  Si1  1  0.28263340  0.29202042  0.75267324  1
  Si  Si2  1  0.71142330  0.99339797  0.75551282  1
  Si  Si3  1  0.66375735  0.63566343  0.58248380  1
  Si  Si4  1  0.66386635  0.02665321  0.08133646  1
  Si  Si5  1  0.35002767  0.33458446  0.08209358  1
  Si  Si6  1  0.32162790  0.94811937  0.91591286  1
  Si  Si7  1  0.62636315  0.97432904  0.42108646  1
  Si  Si8  1  0.05450771  0.66165353  0.41911727  1
  S  S0  1  0.29448129  0.99475492  0.24966096  1
  S  S1  1  0.00810137  0.30222022  0.25020334  1
  S  S2  1  0.00766580  0.71600310  0.75074718  1
  S  S3  1  0.97152301  0.33500319  0.58189746  1
  S  S4  1  0.36258796  0.03180781  0.58117159  1
  S  S5  1  0.96473336  0.62786734  0.08056765  1
  S  S6  1  0.62979901  0.66509826  0.91660269  1
  S  S7  1  0.04088262  0.38109451  0.91584945  1
  S  S8  1  0.34201703  0.38450643  0.41766692  1
  O  O0  1  0.22405714  0.02434228  0.30538198  1
  O  O1  1  0.80274519  0.77539233  0.31246277  1
  O  O2  1  0.98727248  0.20815219  0.30611241  1
  O  O3  1  0.20552917  0.17584004  0.81264713  1
  O  O4  1  0.97787088  0.79689922  0.80399588  1
  O  O5  1  0.83112762  0.01341825  0.81419317  1
  O  O6  1  0.78379179  0.95668796  0.69192055  1
  O  O7  1  0.15627078  0.19587662  0.69375601  1
  O  O8  1  0.03253068  0.81647799  0.69471573  1
  O  O9  1  0.79368634  0.83057839  0.19211555  1
  O  O10  1  0.03244043  0.21265482  0.19743967  1
  O  O11  1  0.18838976  0.97565097  0.19611054  1
  O  O12  1  0.89723462  0.36335803  0.63696957  1
  O  O13  1  0.46699954  0.10179841  0.63632013  1
  O  O14  1  0.63716202  0.54000558  0.64462832  1
  O  O15  1  0.90446668  0.54117945  0.13860869  1
  O  O16  1  0.62316255  0.09090867  0.14340428  1
  O  O17  1  0.46788205  0.39197573  0.14187345  1
  O  O18  1  0.44327540  0.29275364  0.02388567  1
  O  O19  1  0.84425347  0.53563020  0.03015060  1
  O  O20  1  0.70152325  0.15245966  0.02301248  1
  O  O21  1  0.44809702  0.13704569  0.52796049  1
  O  O22  1  0.70285311  0.54064165  0.52389184  1
  O  O23  1  0.85524673  0.30409370  0.52830716  1
  O  O24  1  0.54720310  0.69419978  0.96979009  1
  O  O25  1  0.15521554  0.46524062  0.96820913  1
  O  O26  1  0.30245075  0.83909720  0.97575007  1
  O  O27  1  0.54023022  0.84542576  0.47648191  1
  O  O28  1  0.31301581  0.46433198  0.47110345  1
  O  O29  1  0.16452090  0.67450543  0.47925750  1
  O  O30  1  0.13877658  0.62767684  0.35712271  1
  O  O31  1  0.50953429  0.89441633  0.35912422  1
  O  O32  1  0.36608894  0.48410279  0.36171916  1
  O  O33  1  0.12003692  0.47657094  0.85952279  1
  O  O34  1  0.36317820  0.86442236  0.85634401  1
  O  O35  1  0.51918895  0.63118782  0.86108361  1
  O  O36  1  0.03909059  0.83250650  0.42088514  1
  O  O37  1  0.81833214  0.00607117  0.42005399  1
  O  O38  1  0.19123895  0.21221297  0.41359769  1
  O  O39  1  0.02188432  0.20459391  0.91387034  1
  O  O40  1  0.15706562  0.98148684  0.91044875  1
  O  O41  1  0.79774274  0.82271012  0.91108521  1
  O  O42  1  0.98076562  0.17537214  0.58479935  1
  O  O43  1  0.19004986  0.01272826  0.58655008  1
  O  O44  1  0.84620693  0.82995115  0.58663977  1
  O  O45  1  0.98263924  0.80256083  0.08446467  1
  O  O46  1  0.82994809  0.99852923  0.08237887  1
  O  O47  1  0.17414537  0.14692164  0.09183095  1
  O  O48  1  0.69652875  0.16470808  0.75363436  1
  O  O49  1  0.47387242  0.32031973  0.75158501  1
  O  O50  1  0.85756008  0.54286387  0.74701637  1
  O  O51  1  0.67344553  0.51177812  0.24767446  1
  O  O52  1  0.85418010  0.31949575  0.24439109  1
  O  O53  1  0.47012309  0.14162085  0.24620183  1
  O  O54  1  0.64579669  0.51042710  0.92218007  1
  O  O55  1  0.86842659  0.36099814  0.92100771  1
  O  O56  1  0.50057171  0.14496229  0.92051944  1
  O  O57  1  0.63108890  0.16090418  0.42872232  1
  O  O58  1  0.49731226  0.36737943  0.42263039  1
  O  O59  1  0.85898124  0.49087766  0.42034193  1
  O  O60  1  0.33600554  0.50347455  0.06666072  1
  O  O61  1  0.13874621  0.65166625  0.07322890  1
  O  O62  1  0.49158699  0.83796595  0.07214439  1
  O  O63  1  0.34133395  0.85533119  0.57621401  1
  O  O64  1  0.49566922  0.66175884  0.57360197  1
  O  O65  1  0.13994214  0.48854892  0.57480037  1
  O  O66  1  0.29998737  0.83096061  0.25268310  1
  O  O67  1  0.50209963  0.68852973  0.25655897  1
  O  O68  1  0.16399694  0.47367330  0.25216856  1
  O  O69  1  0.29336438  0.48266787  0.75903456  1
  O  O70  1  0.16354874  0.70060330  0.75570859  1
  O  O71  1  0.51820144  0.82043002  0.75687989  1
loop_
_geom_bond_atom_site_label_1
_geom_bond_atom_site_label_2
_geom_bond_distance
_geom_bond_site_symmetry_2
Na0 O67 2.422354 1_555
Na0 O16 2.422623 1_565
Na0 O53 2.456593 1_565
Na0 O52 2.611325 1_565
Na0 O66 2.642185 1_555
Na0 O9 2.756290 1_555
Na0 O31 2.785074 1_555
Na1 O51 2.325791 1_555
Na1 O17 2.354168 1_555
Na1 O67 2.479438 1_555
Na1 O68 2.501120 1_555
Na1 O53 2.649494 1_555
Na1 O32 2.836661 1_555
Na1 O10 2.881584 1_555
Na2 O51 2.470568 1_555
Na2 O66 2.492402 1_655
Na2 O52 2.507176 1_555
Na2 O68 2.674723 1_655
Na2 O15 2.679062 1_555
Na2 O30 2.696282 1_655
Na2 O1 2.835210 1_555
Na3 O14 2.334538 1_555
Na3 O49 2.400381 1_555
Na3 O71 2.400503 1_555
Na3 O50 2.585616 1_555
Na3 O69 2.613787 1_555
Na3 O35 2.791842 1_555
Na3 O6 2.860603 1_555
Na4 O69 2.350218 1_655
Na4 O48 2.377892 1_555
Na4 O50 2.567331 1_555
Na4 O33 2.620999 1_655
Na4 O70 2.714877 1_655
Na4 O12 2.720818 1_555
Na4 O7 2.813175 1_655
Na5 O48 2.460909 1_555
Na5 O49 2.476559 1_555
Na5 O70 2.525769 1_545
Na5 O34 2.572079 1_545
Na5 O71 2.585231 1_545
Na5 O13 2.790823 1_555
Na5 O3 2.935132 1_555
Na6 O44 2.428698 1_455
Na6 O43 2.475633 1_565
Na6 O63 2.503803 1_555
Na6 O29 2.593791 1_555
Na6 O65 2.598651 1_555
Na6 O22 2.768767 1_455
Na6 O8 2.786571 1_555
Na6 O12 2.986143 1_455
Na7 O64 2.358943 1_555
Na7 O44 2.447902 1_555
Na7 O42 2.528911 1_565
Na7 O27 2.597666 1_555
Na7 O63 2.602159 1_555
Na7 O6 2.646632 1_555
Na7 O13 2.920969 1_565
Na7 O23 2.984226 1_565
Na8 O47 2.426628 1_565
Na8 O62 2.510902 1_555
Na8 O61 2.552755 1_555
Na8 O45 2.582317 1_455
Na8 O26 2.623408 1_554
Na8 O11 2.779039 1_555
Na8 O18 2.823581 1_565
Na8 O16 2.826191 1_565
Na9 O46 2.432592 1_555
Na9 O62 2.461925 1_555
Na9 O60 2.553316 1_555
Na9 O45 2.617929 1_555
Na9 O9 2.629192 1_555
Na9 O17 2.674436 1_555
Na9 O24 2.797328 1_554
Na9 O19 2.981758 1_555
Na10 O56 2.435363 1_555
Na10 O41 2.506742 1_545
Na10 O39 2.549040 1_655
Na10 O55 2.558479 1_555
Na10 O20 2.588717 1_556
Na10 O5 2.611706 1_555
Na10 O34 2.927206 1_545
Na10 O24 2.959308 1_545
Na11 O40 2.438196 1_545
Na11 O56 2.463802 1_555
Na11 O39 2.516849 1_555
Na11 O54 2.528512 1_555
Na11 O3 2.549778 1_555
Na11 O18 2.575942 1_556
Na12 O37 2.290094 1_555
Na12 O59 2.357090 1_555
Na12 O38 2.555511 1_655
Na12 O2 2.591945 1_555
Na12 O57 2.623221 1_555
Na12 O23 2.700631 1_555
Na13 O36 2.344960 1_545
Na13 O57 2.355997 1_555
Na13 O38 2.587561 1_555
Na13 O21 2.640543 1_555
Na13 O0 2.684035 1_555
Na13 O58 2.690425 1_555
Na13 O31 2.740663 1_545
Na14 O1 2.446895 1_555
Na14 O36 2.503414 1_655
Na14 O58 2.559930 1_555
Na14 O37 2.595866 1_565
Na14 O59 2.608333 1_555
Na14 O22 2.701840 1_555
Na15 O44 2.390949 1_555
Na15 O36 2.425403 1_655
Na15 O37 2.434485 1_565
Na15 O42 2.533433 1_565
Na15 O43 2.551574 1_665
Na15 O38 2.732988 1_665
Na16 O46 2.390661 1_445
Na16 O47 2.443409 1_555
Na16 O40 2.502439 1_544
Na16 O45 2.547860 1_445
Na16 O39 2.630825 1_554
Na16 O41 2.669246 1_444
Na17 O48 2.415302 1_555
Na17 O49 2.468164 1_555
Na17 O56 2.486021 1_555
Na17 O54 2.604384 1_555
Na17 O55 2.605370 1_555
Na17 O50 2.722877 1_555
Na18 O51 2.431848 1_555
Na18 O59 2.453677 1_555
Na18 O58 2.617504 1_555
Na18 O57 2.634167 1_555
Na18 O52 2.644049 1_555
Na18 O53 2.657279 1_555
Na19 O60 2.493695 1_555
Na19 O62 2.495995 1_555
Na19 O67 2.512403 1_555
Na19 O68 2.634812 1_555
Na19 O61 2.648216 1_555
Na19 O66 2.687410 1_555
Na20 O64 2.419596 1_555
Na20 O69 2.480786 1_555
Na20 O71 2.515324 1_555
Na20 O65 2.649575 1_555
Na20 O63 2.766428 1_555
Na20 O70 2.783655 1_555
Ca0 O1 2.068306 1_555
Ca0 O37 2.217463 1_565
Ca0 O0 2.230524 1_665
Ca0 O36 2.256763 1_655
Ca0 O2 2.268275 1_565
Ca0 O38 2.298762 1_665
Ca1 O14 2.158128 1_555
Ca1 O13 2.200084 1_555
Ca1 O49 2.205762 1_555
Ca1 O12 2.299012 1_555
Ca1 O50 2.310618 1_555
Ca1 O48 2.340853 1_555
Ca2 O16 2.162688 1_555
Ca2 O17 2.170076 1_555
Ca2 O51 2.230327 1_555
Ca2 O15 2.230943 1_555
Ca2 O53 2.369569 1_555
Ca2 O52 2.404474 1_555
Ga0 O3 1.827911 1_555
Ga0 O5 1.881859 1_455
Ga0 O40 1.951588 1_545
Ga0 O4 2.004562 1_445
Ga0 O39 2.266617 1_555
Ga0 O41 2.321708 1_445
Ga1 O6 1.852235 1_555
Ga1 O7 1.890968 1_665
Ga1 O44 2.044472 1_555
Ga1 O8 2.129820 1_655
Ga1 O42 2.236888 1_565
Ga1 O43 2.357830 1_665
Ga2 O46 1.864458 1_545
Ga2 O47 1.960508 1_655
Ga2 O9 1.984931 1_545
Ga2 O10 2.041557 1_655
Ga2 O45 2.274778 1_545
Ga2 O11 2.386244 1_645
Ga3 O20 1.821110 1_556
Ga3 O18 1.841501 1_556
Ga3 O56 1.936870 1_555
Ga3 O19 2.319127 1_556
Ga3 O54 2.482563 1_555
Ga3 O55 2.491293 1_555
Ga4 O22 1.879352 1_555
Ga4 O57 1.928440 1_555
Ga4 O59 1.935442 1_555
Ga4 O23 2.060967 1_555
Ga4 O58 2.222060 1_555
Ga4 O21 2.375698 1_555
Ga5 O62 1.902558 1_555
Ga5 O26 1.903024 1_554
Ga5 O60 1.911881 1_555
Ga5 O25 2.053116 1_554
Ga5 O61 2.069824 1_555
Ga5 O24 2.149123 1_554
Ga6 O27 1.833173 1_555
Ga6 O29 1.858985 1_555
Ga6 O64 1.904354 1_555
Ga6 O28 2.005061 1_555
Ga6 O63 2.149887 1_555
Ga6 O65 2.288359 1_555
Ga7 O31 1.870313 1_555
Ga7 O30 1.910624 1_555
Ga7 O67 1.971748 1_555
Ga7 O32 2.142338 1_555
Ga7 O66 2.191144 1_555
Ga7 O68 2.382128 1_555
Ga8 O34 1.888831 1_555
Ga8 O71 1.923773 1_555
Ga8 O69 1.970581 1_555
Ga8 O35 2.038849 1_555
Ga8 O33 2.223590 1_555
Ga8 O70 2.244400 1_555
O0 S0 1.474176 1_545
O1 Si0 1.602191 1_555
O2 S1 1.473514 1_655
O3 Si1 1.635699 1_555
O4 S2 1.477538 1_655
O5 Si2 1.643727 1_545
O6 Si2 1.655736 1_555
O7 Si1 1.659820 1_555
O8 S2 1.501114 1_555
O9 Si0 1.692852 1_555
O10 S1 1.494522 1_555
O11 S0 1.481342 1_555
O12 S3 1.476516 1_555
O13 S4 1.475376 1_555
O14 Si3 1.592981 1_555
O15 S5 1.475478 1_555
O16 Si4 1.602693 1_555
O17 Si5 1.612096 1_555
O18 Si5 1.683978 1_555
O19 S5 1.485790 1_555
O20 Si4 1.656708 1_555
O21 S4 1.483493 1_555
O22 Si3 1.683581 1_555
O23 S3 1.516269 1_555
O24 S6 1.488043 1_555
O25 S7 1.481168 1_555
O26 Si6 1.623282 1_555
O27 Si7 1.617798 1_555
O28 S8 1.472242 1_555
O29 Si8 1.633424 1_555
O30 Si8 1.672650 1_555
O31 Si7 1.657010 1_555
O32 S8 1.496342 1_555
O33 S7 1.496385 1_555
O34 Si6 1.650879 1_555
O35 S6 1.516407 1_555
O36 Si8 1.621153 1_555
O37 Si7 1.614688 1_545
O38 S8 1.476830 1_555
O39 S7 1.519975 1_555
O40 Si6 1.665913 1_555
O41 S6 1.485911 1_555
O42 S3 1.491152 1_555
O43 S4 1.488932 1_555
O44 Si3 1.712869 1_555
O45 S5 1.509032 1_555
O46 Si4 1.645704 1_565
O47 Si5 1.669084 1_555
O48 Si2 1.623691 1_545
O49 Si1 1.619580 1_555
O50 S2 1.478680 1_655
O51 Si0 1.629749 1_555
O52 S1 1.483528 1_655
O53 S0 1.483376 1_545
O54 S6 1.484761 1_555
O55 S7 1.484089 1_655
O56 Si6 1.712215 1_545
O57 Si7 1.674967 1_545
O58 S8 1.493579 1_555
O59 Si8 1.673678 1_655
O60 Si5 1.636906 1_555
O61 S5 1.489587 1_455
O62 Si4 1.652387 1_565
O63 S4 1.513942 1_565
O64 Si3 1.664326 1_555
O65 S3 1.475867 1_455
O66 S0 1.510998 1_555
O67 Si0 1.706129 1_555
O68 S1 1.490125 1_555
O69 Si1 1.684140 1_555
O70 S2 1.489949 1_555
O71 Si2 1.669556 1_555
