# generated using pymatgen
data_U2Nb3Ge4
_symmetry_space_group_name_H-M   'P 1'
_cell_length_a   7.02219079
_cell_length_b   7.23387738
_cell_length_c   13.60369840
_cell_angle_alpha   90.00000000
_cell_angle_beta   90.00000000
_cell_angle_gamma   90.00000000
_symmetry_Int_Tables_number   1
_chemical_formula_structural   U2Nb3Ge4
_chemical_formula_sum   'U8 Nb12 Ge16'
_cell_volume   691.03614284
_cell_formula_units_Z   4
loop_
 _symmetry_equiv_pos_site_id
 _symmetry_equiv_pos_as_xyz
  1  'x, y, z'
loop_
 _atom_site_type_symbol
 _atom_site_label
 _atom_site_symmetry_multiplicity
 _atom_site_fract_x
 _atom_site_fract_y
 _atom_site_fract_z
 _atom_site_occupancy
  U  U0  1  0.49582645  0.33164131  0.40766965  1
  U  U1  1  0.99582645  0.16835869  0.09233035  1
  U  U2  1  0.00417355  0.83164131  0.59233035  1
  U  U3  1  0.50417355  0.66835869  0.90766965  1
  U  U4  1  0.50417355  0.66835869  0.59233035  1
  U  U5  1  0.00417355  0.83164131  0.90766965  1
  U  U6  1  0.99582645  0.16835869  0.40766965  1
  U  U7  1  0.49582645  0.33164131  0.09233035  1
  Nb  Nb0  1  0.83278501  0.50608433  0.25000000  1
  Nb  Nb1  1  0.33278501  0.99391567  0.25000000  1
  Nb  Nb2  1  0.66721499  0.00608433  0.75000000  1
  Nb  Nb3  1  0.16721499  0.49391567  0.75000000  1
  Nb  Nb4  1  0.16136442  0.67222938  0.12484073  1
  Nb  Nb5  1  0.33863558  0.17222938  0.87515927  1
  Nb  Nb6  1  0.33863558  0.17222938  0.62484073  1
  Nb  Nb7  1  0.83863558  0.32777062  0.87515927  1
  Nb  Nb8  1  0.16136442  0.67222938  0.37515927  1
  Nb  Nb9  1  0.66136442  0.82777062  0.12484073  1
  Nb  Nb10  1  0.83863558  0.32777062  0.62484073  1
  Nb  Nb11  1  0.66136442  0.82777062  0.37515927  1
  Ge  Ge0  1  0.80595734  0.63336940  0.75000000  1
  Ge  Ge1  1  0.30595734  0.86663060  0.75000000  1
  Ge  Ge2  1  0.69404266  0.13336940  0.25000000  1
  Ge  Ge3  1  0.19404266  0.36663060  0.25000000  1
  Ge  Ge4  1  0.04079126  0.12754202  0.75000000  1
  Ge  Ge5  1  0.54079126  0.37245798  0.75000000  1
  Ge  Ge6  1  0.45920874  0.62754202  0.25000000  1
  Ge  Ge7  1  0.95920874  0.87245798  0.25000000  1
  Ge  Ge8  1  0.16966116  0.46026548  0.54384713  1
  Ge  Ge9  1  0.66966116  0.03973452  0.95615287  1
  Ge  Ge10  1  0.66966116  0.03973452  0.54384713  1
  Ge  Ge11  1  0.16966116  0.46026548  0.95615287  1
  Ge  Ge12  1  0.83033884  0.53973452  0.45615287  1
  Ge  Ge13  1  0.83033884  0.53973452  0.04384713  1
  Ge  Ge14  1  0.33033884  0.96026548  0.04384713  1
  Ge  Ge15  1  0.33033884  0.96026548  0.45615287  1
loop_
_geom_bond_atom_site_label_1
_geom_bond_atom_site_label_2
_geom_bond_distance
_geom_bond_site_symmetry_2
Ge0 Ge5 2.651321 1_555
Ge0 Nb3 2.730040 1_655
Ge0 Nb7 2.799757 1_555
Ge0 Nb10 2.799757 1_555
Ge0 Nb2 2.866804 1_565
Ge0 U5 2.931743 1_655
Ge0 U2 2.931743 1_655
Ge0 U4 3.025815 1_555
Ge0 U3 3.025815 1_555
Ge1 Ge4 2.651321 1_565
Ge1 Nb2 2.730040 1_565
Ge1 Nb5 2.799757 1_565
Ge1 Nb6 2.799757 1_565
Ge1 Nb3 2.866804 1_555
Ge1 U4 2.931743 1_555
Ge1 U3 2.931743 1_555
Ge1 U2 3.025815 1_555
Ge1 U5 3.025815 1_555
Ge2 Ge7 2.651321 1_545
Ge2 Nb1 2.730040 1_545
Ge2 Nb9 2.799757 1_545
Ge2 Nb11 2.799757 1_545
Ge2 Nb0 2.866804 1_555
Ge2 U7 2.931743 1_555
Ge2 U0 2.931743 1_555
Ge2 U6 3.025815 1_555
Ge2 U1 3.025815 1_555
Ge3 Ge6 2.651321 1_555
Ge3 Nb0 2.730040 1_455
Ge3 Nb4 2.799757 1_555
Ge3 Nb8 2.799757 1_555
Ge3 Nb1 2.866804 1_545
Ge3 U1 2.931743 1_455
Ge3 U6 2.931743 1_455
Ge3 U7 3.025815 1_555
Ge3 U0 3.025815 1_555
Ge4 Nb10 2.648035 1_455
Ge4 Nb7 2.648035 1_455
Ge4 Nb5 2.716229 1_555
Ge4 Nb6 2.716229 1_555
Ge4 Nb2 2.766547 1_455
Ge4 Nb3 2.795038 1_555
Ge4 U5 3.041127 1_545
Ge4 U2 3.041127 1_545
Ge5 Nb5 2.648035 1_555
Ge5 Nb6 2.648035 1_555
Ge5 Nb7 2.716229 1_555
Ge5 Nb10 2.716229 1_555
Ge5 Nb3 2.766547 1_555
Ge5 Nb2 2.795038 1_555
Ge5 U4 3.041127 1_555
Ge5 U3 3.041127 1_555
Ge6 Nb9 2.648035 1_555
Ge6 Nb11 2.648035 1_555
Ge6 Nb4 2.716229 1_555
Ge6 Nb8 2.716229 1_555
Ge6 Nb0 2.766547 1_555
Ge6 Nb1 2.795038 1_555
Ge6 U7 3.041127 1_555
Ge6 U0 3.041127 1_555
Ge7 Nb4 2.648035 1_655
Ge7 Nb8 2.648035 1_655
Ge7 Nb11 2.716229 1_555
Ge7 Nb9 2.716229 1_555
Ge7 Nb1 2.766547 1_655
Ge7 Nb0 2.795038 1_555
Ge7 U1 3.041127 1_565
Ge7 U6 3.041127 1_565
Ge8 Nb6 2.638826 1_555
Ge8 Nb10 2.745184 1_455
Ge8 Nb8 2.760521 1_555
Ge8 Nb3 2.815038 1_555
Ge8 U4 2.866853 1_555
Ge8 U2 3.000444 1_555
Ge8 U6 3.062819 1_455
Ge8 U0 3.089251 1_555
Ge9 Nb7 2.638826 1_555
Ge9 Nb5 2.745184 1_555
Ge9 Nb9 2.760521 1_546
Ge9 Nb2 2.815038 1_555
Ge9 U5 2.866853 1_645
Ge9 U3 3.000444 1_545
Ge9 U7 3.062819 1_556
Ge9 U1 3.089251 1_556
Ge10 Nb10 2.638826 1_555
Ge10 Ge15 2.726043 1_545
Ge10 Nb6 2.745184 1_555
Ge10 Nb11 2.760521 1_545
Ge10 Nb2 2.815038 1_555
Ge10 U2 2.866853 1_645
Ge10 U4 3.000444 1_545
Ge10 U0 3.062819 1_555
Ge10 U6 3.089251 1_555
Ge11 Nb5 2.638826 1_555
Ge11 Ge13 2.726043 1_456
Ge11 Nb7 2.745184 1_455
Ge11 Nb4 2.760521 1_556
Ge11 Nb3 2.815038 1_555
Ge11 U3 2.866853 1_555
Ge11 U5 3.000444 1_555
Ge11 U1 3.062819 1_456
Ge11 U7 3.089251 1_556
Ge12 Nb11 2.638826 1_555
Ge12 Ge8 2.726043 1_655
Ge12 Nb8 2.745184 1_655
Ge12 Nb10 2.760521 1_555
Ge12 Nb0 2.815038 1_555
Ge12 U0 2.866853 1_555
Ge12 U6 3.000444 1_555
Ge12 U2 3.062819 1_655
Ge12 U4 3.089251 1_555
Ge13 Nb9 2.638826 1_555
Ge13 Nb4 2.745184 1_655
Ge13 Nb7 2.760521 1_554
Ge13 Nb0 2.815038 1_555
Ge13 U7 2.866853 1_555
Ge13 U1 3.000444 1_555
Ge13 U5 3.062819 1_654
Ge13 U3 3.089251 1_554
Ge14 Nb4 2.638826 1_555
Ge14 Ge9 2.726043 1_564
Ge14 Nb9 2.745184 1_555
Ge14 Nb5 2.760521 1_564
Ge14 Nb1 2.815038 1_555
Ge14 U1 2.866853 1_465
Ge14 U7 3.000444 1_565
Ge14 U3 3.062819 1_554
Ge14 U5 3.089251 1_554
Ge15 Nb8 2.638826 1_555
Ge15 Nb11 2.745184 1_555
Ge15 Nb6 2.760521 1_565
Ge15 Nb1 2.815038 1_555
Ge15 U6 2.866853 1_465
Ge15 U0 3.000444 1_565
Ge15 U4 3.062819 1_555
Ge15 U2 3.089251 1_555
