# generated using pymatgen
data_MgFe2(NiO2)4
_symmetry_space_group_name_H-M   'P 1'
_cell_length_a   6.24873273
_cell_length_b   6.24990391
_cell_length_c   6.25013704
_cell_angle_alpha   59.99545566
_cell_angle_beta   60.00336854
_cell_angle_gamma   59.99008701
_symmetry_Int_Tables_number   1
_chemical_formula_structural   MgFe2(NiO2)4
_chemical_formula_sum   'Mg1 Fe2 Ni4 O8'
_cell_volume   172.58514931
_cell_formula_units_Z   1
loop_
 _symmetry_equiv_pos_site_id
 _symmetry_equiv_pos_as_xyz
  1  'x, y, z'
loop_
 _atom_site_type_symbol
 _atom_site_label
 _atom_site_symmetry_multiplicity
 _atom_site_fract_x
 _atom_site_fract_y
 _atom_site_fract_z
 _atom_site_occupancy
  Mg  Mg0  1  0.37506000  0.37503800  0.37491200  1
  Fe  Fe0  1  0.12513000  0.12503800  0.12487400  1
  Fe  Fe1  1  0.87491300  0.87496300  0.87510100  1
  Ni  Ni0  1  0.51865600  0.51861700  0.94409000  1
  Ni  Ni1  1  0.94400500  0.51860300  0.51874400  1
  Ni  Ni2  1  0.51856100  0.94406400  0.51867200  1
  Ni  Ni3  1  0.51856600  0.51865500  0.51868100  1
  O  O0  1  0.26139800  0.74616000  0.74622600  1
  O  O1  1  0.25223600  0.74354800  0.25210100  1
  O  O2  1  0.74361300  0.25219200  0.25207500  1
  O  O3  1  0.25221300  0.25214300  0.25216800  1
  O  O4  1  0.25224200  0.25220800  0.74338200  1
  O  O5  1  0.74613400  0.26142000  0.74625300  1
  O  O6  1  0.74611600  0.74617700  0.26151200  1
  O  O7  1  0.74615800  0.74617400  0.74620800  1
loop_
_geom_bond_atom_site_label_1
_geom_bond_atom_site_label_2
_geom_bond_distance
_geom_bond_site_symmetry_2
Mg0 O1 1.880294 1_555
Mg0 O2 1.880311 1_555
Mg0 O3 1.880352 1_555
Mg0 O4 1.880412 1_555
Mg0 Ni0 2.198613 1_554
Mg0 Ni3 2.198804 1_555
Mg0 Ni2 2.199013 1_545
Mg0 Ni1 2.199189 1_455
Fe0 O2 1.946452 1_455
Fe0 O1 1.946524 1_545
Fe0 O3 1.946669 1_555
Fe0 O4 1.946867 1_554
Fe1 O0 1.971798 1_655
Fe1 O5 1.971868 1_565
Fe1 O7 1.971954 1_555
Fe1 O6 1.971970 1_556
Ni0 O0 2.019413 1_555
Ni0 O5 2.019464 1_555
Ni0 O7 2.019513 1_555
Ni0 O2 2.369090 1_556
Ni0 O3 2.369424 1_556
Ni0 O1 2.369577 1_556
Ni1 O6 2.019504 1_555
Ni1 O5 2.019527 1_555
Ni1 O7 2.019534 1_555
Ni1 O4 2.368838 1_655
Ni1 O3 2.369986 1_655
Ni1 O1 2.370520 1_655
Ni2 O7 2.019524 1_555
Ni2 O0 2.019527 1_555
Ni2 O6 2.019564 1_555
Ni2 O3 2.368688 1_565
Ni2 O4 2.369218 1_565
Ni2 O2 2.370525 1_565
Ni3 O0 2.019505 1_555
Ni3 O5 2.019511 1_555
Ni3 O6 2.019592 1_555
Ni3 O4 2.368786 1_555
Ni3 O1 2.368933 1_555
Ni3 O2 2.370103 1_555
