# generated using pymatgen
data_Na7La3NbSi3(PO8)3
_symmetry_space_group_name_H-M   'P 1'
_cell_length_a   9.57382711
_cell_length_b   9.59842689
_cell_length_c   23.24431677
_cell_angle_alpha   89.98270529
_cell_angle_beta   89.86954658
_cell_angle_gamma   119.92230334
_symmetry_Int_Tables_number   1
_chemical_formula_structural   Na7La3NbSi3(PO8)3
_chemical_formula_sum   'Na21 La9 Nb3 Si9 P9 O72'
_cell_volume   1851.27451490
_cell_formula_units_Z   3
loop_
 _symmetry_equiv_pos_site_id
 _symmetry_equiv_pos_as_xyz
  1  'x, y, z'
loop_
 _atom_site_type_symbol
 _atom_site_label
 _atom_site_symmetry_multiplicity
 _atom_site_fract_x
 _atom_site_fract_y
 _atom_site_fract_z
 _atom_site_occupancy
  Na  Na0  1  0.62938679  0.99824123  0.25352756  1
  Na  Na1  1  0.36948178  0.37242805  0.25374781  1
  Na  Na2  1  0.00297152  0.63235194  0.25754069  1
  Na  Na3  1  0.64656313  0.65094657  0.74637720  1
  Na  Na4  1  0.99481179  0.34483334  0.74040527  1
  Na  Na5  1  0.30022234  0.34768674  0.58010298  1
  Na  Na6  1  0.03483860  0.69385841  0.57861048  1
  Na  Na7  1  0.66529201  0.95720250  0.57434889  1
  Na  Na8  1  0.30888243  0.96622894  0.07740447  1
  Na  Na9  1  0.64967070  0.69226949  0.07807177  1
  Na  Na10  1  0.04699418  0.33949429  0.07280311  1
  Na  Na11  1  0.32079698  0.30119045  0.90762197  1
  Na  Na12  1  0.97973684  0.31167796  0.42151480  1
  Na  Na13  1  0.34080885  0.02733148  0.42343731  1
  Na  Na14  1  0.68539583  0.66645926  0.42134360  1
  Na  Na15  1  0.99461850  0.99847708  0.49906204  1
  Na  Na16  1  0.98718667  0.00152690  0.99678703  1
  Na  Na17  1  0.65454762  0.32268132  0.83259755  1
  Na  Na18  1  0.66306172  0.33048672  0.33964248  1
  Na  Na19  1  0.34362416  0.66683477  0.16658907  1
  Na  Na20  1  0.33505090  0.67195198  0.65859658  1
  La  La0  1  0.99999041  0.00069209  0.34880459  1
  La  La1  1  0.99923100  0.99490311  0.85127850  1
  La  La2  1  0.00298267  0.00396351  0.65249970  1
  La  La3  1  0.00253916  0.00528467  0.14415926  1
  La  La4  1  0.65567487  0.32817076  0.68630612  1
  La  La5  1  0.66358838  0.33112493  0.17763824  1
  La  La6  1  0.33534619  0.66968635  0.00536435  1
  La  La7  1  0.33254041  0.66253358  0.51137750  1
  La  La8  1  0.33552252  0.66747532  0.32747526  1
  Nb  Nb0  1  0.66848797  0.32423176  0.97986735  1
  Nb  Nb1  1  0.67260335  0.33973077  0.48554869  1
  Nb  Nb2  1  0.32500388  0.66497723  0.82280660  1
  Si  Si0  1  0.30843238  0.32528286  0.75716845  1
  Si  Si1  1  0.95995115  0.32741288  0.58620407  1
  Si  Si2  1  0.67351931  0.63575906  0.58508353  1
  Si  Si3  1  0.66932160  0.03525670  0.08008545  1
  Si  Si4  1  0.36984994  0.33069409  0.07713852  1
  Si  Si5  1  0.02225960  0.37079166  0.92134609  1
  Si  Si6  1  0.64952461  0.99387690  0.41944969  1
  Si  Si7  1  0.34460791  0.34987540  0.41830685  1
  Si  Si8  1  0.00918732  0.65856846  0.41875998  1
  P  P0  1  0.30941203  0.99200349  0.24832066  1
  P  P1  1  0.68518079  0.69113325  0.24799649  1
  P  P2  1  0.00804468  0.31874776  0.24871143  1
  P  P3  1  0.01654463  0.69133411  0.75092537  1
  P  P4  1  0.67633816  0.98030765  0.75296662  1
  P  P5  1  0.36842050  0.04226887  0.57813444  1
  P  P6  1  0.95395643  0.62735986  0.07736314  1
  P  P7  1  0.62332383  0.64186849  0.91772237  1
  P  P8  1  0.35471502  0.98350213  0.92033009  1
  O  O0  1  0.21734756  0.99496351  0.30244023  1
  O  O1  1  0.77800897  0.78226545  0.30247133  1
  O  O2  1  0.00132430  0.22332073  0.30316985  1
  O  O3  1  0.21669690  0.21632664  0.81204375  1
  O  O4  1  0.97884004  0.78105118  0.79690806  1
  O  O5  1  0.80088516  0.00285448  0.79890166  1
  O  O6  1  0.73161358  0.93932228  0.69513563  1
  O  O7  1  0.19897432  0.25335275  0.69810617  1
  O  O8  1  0.04379505  0.77581423  0.69210726  1
  O  O9  1  0.77776808  0.78611354  0.19320285  1
  O  O10  1  0.01189883  0.22545075  0.19417683  1
  O  O11  1  0.21515213  0.98897800  0.19327671  1
  O  O12  1  0.87964335  0.33265669  0.64679039  1
  O  O13  1  0.46211035  0.12029796  0.63309163  1
  O  O14  1  0.66027926  0.54640067  0.64562625  1
  O  O15  1  0.89254353  0.54811624  0.13631690  1
  O  O16  1  0.65854652  0.11076056  0.14118003  1
  O  O17  1  0.45775927  0.34797568  0.13874823  1
  O  O18  1  0.49547868  0.33108486  0.02423484  1
  O  O19  1  0.83816520  0.50719941  0.02917189  1
  O  O20  1  0.66878452  0.16292852  0.02726392  1
  O  O21  1  0.47202784  0.14361866  0.52497489  1
  O  O22  1  0.66423417  0.50807862  0.53172350  1
  O  O23  1  0.83848644  0.32976807  0.53264625  1
  O  O24  1  0.56791191  0.66434829  0.97703349  1
  O  O25  1  0.11282779  0.43507502  0.98188255  1
  O  O26  1  0.33242065  0.90780295  0.97993831  1
  O  O27  1  0.56823159  0.87085143  0.47323102  1
  O  O28  1  0.30129732  0.43033301  0.47209579  1
  O  O29  1  0.12969687  0.69713352  0.47276158  1
  O  O30  1  0.08203091  0.61800308  0.36091556  1
  O  O31  1  0.53599389  0.91859134  0.36169982  1
  O  O32  1  0.38432463  0.46431835  0.36071671  1
  O  O33  1  0.14721648  0.51226545  0.87129889  1
  O  O34  1  0.36278128  0.86836432  0.87362397  1
  O  O35  1  0.49556064  0.63665332  0.87155743  1
  O  O36  1  0.96280196  0.79950208  0.41408201  1
  O  O37  1  0.83603410  0.03505854  0.41473895  1
  O  O38  1  0.19988979  0.16406551  0.41369114  1
  O  O39  1  0.00844151  0.19882017  0.90943681  1
  O  O40  1  0.21991586  0.02130087  0.90983707  1
  O  O41  1  0.79310666  0.77789011  0.90611022  1
  O  O42  1  0.96394558  0.15827947  0.57938836  1
  O  O43  1  0.20663484  0.04388112  0.57686587  1
  O  O44  1  0.84733047  0.80330875  0.57853764  1
  O  O45  1  0.94766335  0.78491529  0.07183555  1
  O  O46  1  0.84061180  0.03815869  0.07227153  1
  O  O47  1  0.20215886  0.15612959  0.07183593  1
  O  O48  1  0.65939172  0.13033761  0.75181147  1
  O  O49  1  0.49767958  0.37358097  0.75609021  1
  O  O50  1  0.88162748  0.51240685  0.75155768  1
  O  O51  1  0.66690971  0.52063555  0.25077616  1
  O  O52  1  0.85744799  0.34043057  0.25021023  1
  O  O53  1  0.48032304  0.14457382  0.25103214  1
  O  O54  1  0.61215666  0.47235172  0.91487339  1
  O  O55  1  0.84408538  0.36381797  0.92374958  1
  O  O56  1  0.51891184  0.15079290  0.91966057  1
  O  O57  1  0.65838721  0.16958054  0.43022344  1
  O  O58  1  0.51286420  0.34354796  0.42927371  1
  O  O59  1  0.83326722  0.48959427  0.43020929  1
  O  O60  1  0.34224823  0.48533861  0.07365525  1
  O  O61  1  0.12847770  0.65903459  0.07140133  1
  O  O62  1  0.51107754  0.85653751  0.07631402  1
  O  O63  1  0.33951379  0.86910672  0.57583502  1
  O  O64  1  0.51790175  0.66280148  0.58079474  1
  O  O65  1  0.13922859  0.48754602  0.58163748  1
  O  O66  1  0.32445545  0.83776695  0.24787153  1
  O  O67  1  0.51552102  0.67671707  0.24713324  1
  O  O68  1  0.16437397  0.48615052  0.24798289  1
  O  O69  1  0.31424545  0.50589558  0.76924784  1
  O  O70  1  0.17838635  0.69039682  0.76770321  1
  O  O71  1  0.51031535  0.82569652  0.76925424  1
loop_
_geom_bond_atom_site_label_1
_geom_bond_atom_site_label_2
_geom_bond_distance
_geom_bond_site_symmetry_2
Na0 O53 2.452119 1_565
Na0 O66 2.535393 1_555
Na0 O31 2.648158 1_555
Na0 O67 2.716485 1_555
Na0 O16 2.785348 1_565
Na0 O52 2.899242 1_565
Na1 O51 2.468730 1_555
Na1 O67 2.536474 1_555
Na1 O32 2.618834 1_555
Na1 O68 2.684207 1_555
Na1 O17 2.846533 1_555
Na1 O53 2.868517 1_555
Na2 O52 2.434744 1_455
Na2 O30 2.545147 1_555
Na2 O68 2.562880 1_555
Na2 O66 2.711717 1_555
Na2 O51 2.843711 1_455
Na2 O15 2.978822 1_455
Na3 O49 2.320069 1_555
Na3 O14 2.576844 1_555
Na3 O71 2.641561 1_555
Na3 O6 2.736476 1_555
Na3 O69 2.813536 1_555
Na3 O4 3.018853 1_555
Na4 O50 2.359298 1_555
Na4 O12 2.418045 1_555
Na4 O7 2.694860 1_655
Na4 O69 2.735924 1_655
Na4 O48 2.832158 1_555
Na4 O70 2.946808 1_655
Na5 O65 2.498622 1_555
Na5 O43 2.589530 1_555
Na5 O28 2.631122 1_555
Na5 O64 2.683896 1_555
Na5 O42 2.798454 1_455
Na5 O7 2.897196 1_555
Na6 O44 2.491545 1_455
Na6 O63 2.538908 1_555
Na6 O29 2.615441 1_555
Na6 O65 2.626777 1_555
Na6 O8 2.742447 1_555
Na6 O43 2.912215 1_565
Na7 O64 2.453448 1_555
Na7 O27 2.513494 1_555
Na7 O42 2.531849 1_565
Na7 O44 2.792451 1_555
Na7 O63 2.795064 1_555
Na7 O6 2.903757 1_555
Na8 O26 2.371169 1_554
Na8 O47 2.498324 1_565
Na8 O61 2.572417 1_555
Na8 O62 2.624793 1_555
Na8 O11 2.879585 1_555
Na9 O24 2.449437 1_554
Na9 O62 2.517073 1_555
Na9 O45 2.533380 1_555
Na9 O60 2.605274 1_555
Na9 O46 2.885489 1_565
Na9 O9 2.896799 1_555
Na10 O25 2.263009 1_554
Na10 O60 2.450075 1_555
Na10 O46 2.562918 1_455
Na10 O61 2.762141 1_555
Na10 O47 2.813038 1_555
Na10 O10 2.982861 1_555
Na11 O40 2.358782 1_555
Na11 O3 2.407028 1_555
Na11 O54 2.436955 1_555
Na11 O39 2.641572 1_555
Na12 O37 2.307416 1_555
Na12 O57 2.679008 1_555
Na12 O59 2.703977 1_555
Na12 O2 2.915960 1_655
Na12 O28 2.945560 1_655
Na12 O30 2.950715 1_655
Na13 O38 2.315526 1_555
Na13 O58 2.637701 1_555
Na13 O57 2.644643 1_555
Na13 O21 2.647761 1_555
Na13 O31 2.928337 1_545
Na13 O29 3.006828 1_545
Na13 O0 3.008832 1_545
Na14 O36 2.308027 1_555
Na14 O58 2.694363 1_555
Na14 O59 2.706914 1_555
Na14 O32 2.915380 1_555
Na14 O22 2.936482 1_555
Na14 O1 2.942823 1_555
Na14 O27 2.958450 1_555
Na15 O44 2.502220 1_555
Na15 O42 2.524621 1_565
Na15 O43 2.591404 1_665
Na15 O37 2.610576 1_565
Na15 O36 2.658337 1_555
Na15 O38 2.681464 1_665
Na16 O46 2.377563 1_556
Na16 O47 2.540080 1_656
Na16 O45 2.592105 1_546
Na16 O39 2.713188 1_655
Na16 O41 2.923036 1_545
Na16 O40 2.939842 1_655
Na17 O56 2.520385 1_555
Na17 O49 2.529898 1_555
Na17 O54 2.542787 1_555
Na17 O48 2.650266 1_555
Na17 O55 2.690922 1_555
Na17 O50 2.760542 1_555
Na18 O58 2.567187 1_555
Na18 O57 2.597897 1_555
Na18 O59 2.637075 1_555
Na18 O53 2.718721 1_555
Na18 O51 2.744013 1_555
Na18 O52 2.756617 1_555
Na19 O67 2.465943 1_555
Na19 O68 2.558561 1_555
Na19 O66 2.568239 1_555
Na19 O62 2.712739 1_555
Na19 O60 2.771445 1_555
Na19 O61 3.001793 1_555
Na20 O64 2.545942 1_555
Na20 O65 2.560144 1_555
Na20 O63 2.683362 1_555
La0 O38 2.327445 1_655
La0 O37 2.329702 1_555
La0 O36 2.338390 1_545
La0 O0 2.366171 1_645
La0 O1 2.374572 1_545
La0 O2 2.379700 1_655
La1 O5 2.291077 1_565
La1 O3 2.293261 1_665
La1 O4 2.334859 1_555
La1 O39 2.344394 1_665
La1 O41 2.396578 1_555
La1 O40 2.420761 1_665
La2 O42 2.403182 1_455
La2 O7 2.429854 1_555
La2 O44 2.456830 1_445
La2 O43 2.505538 1_555
La2 O6 2.548857 1_445
La2 O8 2.578736 1_545
La3 O10 2.374570 1_555
La3 O46 2.407189 1_455
La3 O47 2.407943 1_555
La3 O11 2.408245 1_545
La3 O9 2.413897 1_445
La3 O45 2.544356 1_445
La4 O14 2.278194 1_555
La4 O13 2.295283 1_555
La4 O12 2.311314 1_555
La4 O49 2.399199 1_555
La4 O48 2.447722 1_555
La4 O50 2.511440 1_555
La5 O17 2.247771 1_555
La5 O16 2.256938 1_555
La5 O15 2.345162 1_555
La5 O53 2.458720 1_555
La5 O51 2.478777 1_555
La5 O52 2.479351 1_555
La6 O25 2.264363 1_554
La6 O24 2.345409 1_554
La6 O26 2.374219 1_554
La6 O60 2.402187 1_555
La6 O62 2.402293 1_555
La6 O61 2.464376 1_555
La7 O28 2.286467 1_555
La7 O29 2.310517 1_555
La7 O27 2.316142 1_555
La7 O64 2.400276 1_555
La7 O65 2.407662 1_555
La7 O63 2.459850 1_555
La8 O31 2.349263 1_555
La8 O32 2.351052 1_555
La8 O30 2.358161 1_555
La8 O66 2.505694 1_555
La8 O67 2.509546 1_555
La8 O68 2.509732 1_555
Nb0 O20 1.901111 1_556
Nb0 O18 1.977974 1_556
Nb0 O55 2.006129 1_555
Nb0 O19 2.049406 1_556
Nb0 O56 2.100651 1_555
Nb0 O54 2.315561 1_555
Nb1 O59 1.967799 1_555
Nb1 O23 1.972096 1_555
Nb1 O22 1.974657 1_555
Nb1 O58 2.028838 1_555
Nb1 O57 2.029749 1_555
Nb1 O21 2.110780 1_555
Nb2 O69 1.933088 1_555
Nb2 O33 1.953822 1_555
Nb2 O70 2.005021 1_555
Nb2 O71 2.082110 1_555
Nb2 O35 2.115520 1_555
Nb2 O34 2.153157 1_555
O0 P0 1.542770 1_555
O1 P1 1.545491 1_555
O2 P2 1.544543 1_555
O3 Si0 1.603064 1_555
O4 P3 1.524206 1_655
O5 P4 1.535308 1_545
O6 P4 1.564152 1_555
O7 Si0 1.656775 1_555
O8 P3 1.543191 1_555
O9 P1 1.557872 1_555
O10 P2 1.563198 1_555
O11 P0 1.559285 1_555
O12 Si1 1.615754 1_555
O13 P5 1.527394 1_555
O14 Si2 1.619300 1_555
O15 P6 1.533494 1_555
O16 Si3 1.620829 1_555
O17 Si4 1.628818 1_555
O18 Si4 1.716847 1_555
O19 P6 1.595242 1_555
O20 Si3 1.736275 1_555
O21 P5 1.577375 1_555
O22 Si2 1.714920 1_555
O23 Si1 1.713307 1_555
O24 P7 1.529609 1_555
O25 Si5 1.607759 1_555
O26 P8 1.528586 1_555
O27 Si6 1.625027 1_555
O28 Si7 1.627647 1_555
O29 Si8 1.620044 1_555
O30 Si8 1.647038 1_555
O31 Si6 1.652013 1_555
O32 Si7 1.650237 1_555
O33 Si5 1.732180 1_555
O34 P8 1.578426 1_555
O35 P7 1.610928 1_555
O36 Si8 1.624314 1_655
O37 Si6 1.628363 1_545
O38 Si7 1.627120 1_555
O39 Si5 1.612881 1_555
O40 P8 1.524835 1_545
O41 P7 1.516627 1_555
O42 Si1 1.650485 1_555
O43 P5 1.557031 1_555
O44 Si2 1.645413 1_555
O45 P6 1.548535 1_555
O46 Si3 1.635884 1_555
O47 Si4 1.648468 1_555
O48 P4 1.527703 1_545
O49 Si0 1.630968 1_555
O50 P3 1.550785 1_655
O51 P1 1.557957 1_555
O52 P2 1.556410 1_655
O53 P0 1.560728 1_545
O54 P7 1.577910 1_555
O55 Si5 1.674228 1_655
O56 P8 1.591030 1_545
O57 Si6 1.664847 1_545
O58 Si7 1.662226 1_555
O59 Si8 1.676442 1_655
O60 Si4 1.634323 1_555
O61 P6 1.547729 1_455
O62 Si3 1.628964 1_565
O63 P5 1.543760 1_565
O64 Si2 1.638123 1_555
O65 Si1 1.639149 1_455
O66 P0 1.557317 1_555
O67 P1 1.560064 1_555
O68 P2 1.556531 1_555
O69 Si0 1.729568 1_555
O70 P3 1.603000 1_555
O71 P4 1.586106 1_555
