# generated using pymatgen
data_Na15Mg7Ta5Si9(SO8)9
_symmetry_space_group_name_H-M   'P 1'
_cell_length_a   8.99028930
_cell_length_b   8.95640222
_cell_length_c   22.52219397
_cell_angle_alpha   89.88324742
_cell_angle_beta   90.45559809
_cell_angle_gamma   120.00912751
_symmetry_Int_Tables_number   1
_chemical_formula_structural   Na15Mg7Ta5Si9(SO8)9
_chemical_formula_sum   'Na15 Mg7 Ta5 Si9 S9 O72'
_cell_volume   1570.34042820
_cell_formula_units_Z   1
loop_
 _symmetry_equiv_pos_site_id
 _symmetry_equiv_pos_as_xyz
  1  'x, y, z'
loop_
 _atom_site_type_symbol
 _atom_site_label
 _atom_site_symmetry_multiplicity
 _atom_site_fract_x
 _atom_site_fract_y
 _atom_site_fract_z
 _atom_site_occupancy
  Na  Na0  1  0.63099996  0.00430283  0.23681400  1
  Na  Na1  1  0.99388004  0.64916867  0.25020882  1
  Na  Na2  1  0.65558096  0.64124417  0.75564661  1
  Na  Na3  1  0.34254010  0.99596122  0.74506257  1
  Na  Na4  1  0.97783617  0.69078414  0.91211618  1
  Na  Na5  1  0.70262623  0.01057317  0.91999325  1
  Na  Na6  1  0.31465662  0.30050597  0.91878901  1
  Na  Na7  1  0.30237688  0.01901228  0.41106354  1
  Na  Na8  1  0.70461091  0.67736950  0.40662234  1
  Na  Na9  1  0.01766785  0.01533662  0.49721432  1
  Na  Na10  1  0.99654268  0.00164954  0.99141483  1
  Na  Na11  1  0.69519755  0.35446484  0.82758925  1
  Na  Na12  1  0.64527025  0.33638617  0.32112851  1
  Na  Na13  1  0.35212193  0.67654111  0.15442079  1
  Na  Na14  1  0.30636740  0.65709840  0.66234636  1
  Mg  Mg0  1  0.00951418  0.99569403  0.35237210  1
  Mg  Mg1  1  0.99582018  0.99086939  0.85212268  1
  Mg  Mg2  1  0.00802346  0.99380480  0.64925701  1
  Mg  Mg3  1  0.68260069  0.34047703  0.68373874  1
  Mg  Mg4  1  0.64673844  0.32389646  0.18545762  1
  Mg  Mg5  1  0.34436596  0.67679979  0.01735633  1
  Mg  Mg6  1  0.32121528  0.65787176  0.51872372  1
  Ta  Ta0  1  0.99095781  0.98612985  0.14556655  1
  Ta  Ta1  1  0.66675341  0.32403218  0.97934361  1
  Ta  Ta2  1  0.66979058  0.34000674  0.47975413  1
  Ta  Ta3  1  0.32775662  0.65593724  0.31262526  1
  Ta  Ta4  1  0.32177024  0.66419778  0.81939611  1
  Si  Si0  1  0.29773066  0.00593917  0.25397227  1
  Si  Si1  1  0.70525976  0.70265888  0.25372000  1
  Si  Si2  1  0.99946912  0.70264659  0.74949457  1
  Si  Si3  1  0.66268522  0.03560400  0.08912827  1
  Si  Si4  1  0.62469313  0.66715438  0.91795982  1
  Si  Si5  1  0.04344839  0.37253038  0.92290985  1
  Si  Si6  1  0.32696007  0.95689801  0.92004027  1
  Si  Si7  1  0.32094597  0.37062233  0.42148052  1
  Si  Si8  1  0.04576501  0.66868453  0.41989617  1
  S  S0  1  0.00508675  0.28665708  0.25053998  1
  S  S1  1  0.29098334  0.29629228  0.74837601  1
  S  S2  1  0.70532184  0.99952730  0.74870579  1
  S  S3  1  0.95790028  0.32894306  0.58490382  1
  S  S4  1  0.37858685  0.04271591  0.58446431  1
  S  S5  1  0.66518065  0.62826257  0.58450872  1
  S  S6  1  0.95569632  0.62042675  0.08600889  1
  S  S7  1  0.37251706  0.33068242  0.08427156  1
  S  S8  1  0.62099067  0.95771400  0.41843834  1
  O  O0  1  0.21399770  0.02211267  0.31377385  1
  O  O1  1  0.81116238  0.79435597  0.31263616  1
  O  O2  1  0.97895858  0.18356426  0.30312650  1
  O  O3  1  0.21454026  0.19937774  0.80332685  1
  O  O4  1  0.97383437  0.78409362  0.81015412  1
  O  O5  1  0.80146745  0.02450876  0.80409170  1
  O  O6  1  0.79094978  0.97795043  0.69686156  1
  O  O7  1  0.18402491  0.21808459  0.69561284  1
  O  O8  1  0.05344191  0.83422409  0.69381695  1
  O  O9  1  0.80540452  0.83837521  0.19499878  1
  O  O10  1  0.03086382  0.20698628  0.19604475  1
  O  O11  1  0.16387822  0.97342782  0.19577230  1
  O  O12  1  0.87220957  0.34641329  0.63732969  1
  O  O13  1  0.47953926  0.13123571  0.63840352  1
  O  O14  1  0.64519702  0.52124009  0.63666905  1
  O  O15  1  0.87073868  0.52665977  0.13936207  1
  O  O16  1  0.66220336  0.13680134  0.14695316  1
  O  O17  1  0.47798487  0.35277209  0.13610273  1
  O  O18  1  0.45644080  0.30829488  0.02864219  1
  O  O19  1  0.84686191  0.54116616  0.03108522  1
  O  O20  1  0.68744431  0.16359862  0.02870489  1
  O  O21  1  0.47857811  0.15311670  0.53014858  1
  O  O22  1  0.68186062  0.52917380  0.52922703  1
  O  O23  1  0.84538843  0.31513779  0.53037650  1
  O  O24  1  0.53599505  0.70519934  0.97100707  1
  O  O25  1  0.16603029  0.45537632  0.97792880  1
  O  O26  1  0.28150432  0.82803098  0.97317026  1
  O  O27  1  0.54485974  0.85160788  0.47081422  1
  O  O28  1  0.32640150  0.47490431  0.47801870  1
  O  O29  1  0.17858492  0.71689220  0.47273143  1
  O  O30  1  0.13390937  0.63381252  0.35809418  1
  O  O31  1  0.50829525  0.87956482  0.36338430  1
  O  O32  1  0.37002678  0.50253389  0.36122386  1
  O  O33  1  0.13168585  0.50719600  0.86305542  1
  O  O34  1  0.37390878  0.87334985  0.85867729  1
  O  O35  1  0.50131276  0.62533472  0.85470131  1
  O  O36  1  0.99561173  0.81707857  0.41329938  1
  O  O37  1  0.79352960  0.98744407  0.40907535  1
  O  O38  1  0.16490088  0.17945784  0.41325879  1
  O  O39  1  0.00320792  0.18248295  0.90622186  1
  O  O40  1  0.18108395  0.00541288  0.90777320  1
  O  O41  1  0.81579278  0.82689999  0.90941921  1
  O  O42  1  0.96765418  0.16945975  0.58554032  1
  O  O43  1  0.21156587  0.03571589  0.58259856  1
  O  O44  1  0.82573243  0.79571269  0.58451153  1
  O  O45  1  0.97041189  0.80052006  0.08819030  1
  O  O46  1  0.85121219  0.03010297  0.09108431  1
  O  O47  1  0.20078438  0.16490580  0.08849024  1
  O  O48  1  0.66427474  0.14104328  0.74210198  1
  O  O49  1  0.46460432  0.31106090  0.74246224  1
  O  O50  1  0.82664958  0.51351716  0.74301394  1
  O  O51  1  0.69964971  0.52363632  0.24189739  1
  O  O52  1  0.86350726  0.32335916  0.24346521  1
  O  O53  1  0.49378693  0.15561175  0.24720616  1
  O  O54  1  0.63466961  0.48636676  0.92615911  1
  O  O55  1  0.85545040  0.37038638  0.92687512  1
  O  O56  1  0.51252992  0.14540917  0.92495705  1
  O  O57  1  0.62678249  0.13010669  0.42428295  1
  O  O58  1  0.50567075  0.35163683  0.42708512  1
  O  O59  1  0.85178049  0.48522915  0.42801762  1
  O  O60  1  0.34528714  0.47749272  0.07815989  1
  O  O61  1  0.12752741  0.64344656  0.08028122  1
  O  O62  1  0.50229765  0.84646449  0.08147275  1
  O  O63  1  0.36613864  0.87283300  0.57927452  1
  O  O64  1  0.51328335  0.64652375  0.57698495  1
  O  O65  1  0.12734431  0.48549633  0.57919529  1
  O  O66  1  0.30100755  0.81591237  0.25690085  1
  O  O67  1  0.51637026  0.69664748  0.25666926  1
  O  O68  1  0.16903578  0.46348229  0.25453312  1
  O  O69  1  0.32256038  0.47953437  0.75289853  1
  O  O70  1  0.18242092  0.68528010  0.75657550  1
  O  O71  1  0.53025868  0.83181473  0.75241096  1
loop_
_geom_bond_atom_site_label_1
_geom_bond_atom_site_label_2
_geom_bond_distance
_geom_bond_site_symmetry_2
Na0 O53 2.256350 1_555
Na0 O16 2.291123 1_555
Na0 O67 2.452868 1_545
Na0 O52 2.565063 1_555
Na0 O66 2.619964 1_545
Na0 O9 2.813167 1_545
Na1 O51 2.305298 1_555
Na1 O66 2.397214 1_655
Na1 O52 2.547516 1_555
Na1 O15 2.722916 1_555
Na1 O30 2.762416 1_655
Na1 O11 2.801569 1_655
Na1 O68 2.805617 1_655
Na1 O1 2.923529 1_555
Na2 O50 2.350126 1_555
Na2 O71 2.471792 1_555
Na2 O49 2.588059 1_555
Na2 O69 2.593304 1_555
Na2 O35 2.602137 1_555
Na2 O4 2.760302 1_555
Na2 O14 2.872588 1_555
Na2 O6 2.943900 1_555
Na3 O70 2.424569 1_555
Na3 O49 2.464703 1_565
Na3 O48 2.510487 1_565
Na3 O8 2.525624 1_555
Na3 O13 2.701477 1_565
Na3 O71 2.741035 1_555
Na3 O34 2.849572 1_555
Na3 O3 2.914847 1_565
Na4 O41 2.320997 1_555
Na4 O4 2.448296 1_555
Na4 O40 2.477988 1_665
Na4 O55 2.529715 1_555
Na4 O54 2.708028 1_555
Na4 O26 2.728638 1_655
Na4 O33 2.853834 1_655
Na4 O19 2.969653 1_556
Na5 O41 2.340427 1_545
Na5 O39 2.370415 1_655
Na5 O56 2.541595 1_555
Na5 O24 2.638356 1_545
Na5 O5 2.746597 1_555
Na5 O55 2.804785 1_555
Na5 O20 2.845690 1_556
Na5 O34 2.908623 1_545
Na6 O40 2.304808 1_555
Na6 O39 2.462840 1_555
Na6 O54 2.505751 1_555
Na6 O25 2.715377 1_555
Na6 O3 2.747694 1_555
Na6 O56 2.753298 1_555
Na6 O18 2.759098 1_556
Na6 O35 2.915713 1_555
Na7 O38 2.317942 1_555
Na7 O0 2.329695 1_555
Na7 O36 2.427372 1_445
Na7 O57 2.582502 1_555
Na7 O58 2.625506 1_555
Na7 O29 2.736154 1_545
Na7 O31 2.913768 1_545
Na8 O36 2.269967 1_555
Na8 O1 2.348497 1_555
Na8 O37 2.476675 1_555
Na8 O58 2.590514 1_555
Na8 O59 2.684817 1_555
Na8 O32 2.791358 1_555
Na9 O38 2.360170 1_555
Na9 O43 2.529822 1_555
Na9 O36 2.533728 1_445
Na9 O42 2.590599 1_455
Na9 O44 2.712094 1_445
Na9 O37 2.738308 1_445
Na10 O41 2.433236 1_545
Na10 O39 2.490054 1_655
Na10 O40 2.509156 1_655
Na10 O46 2.681995 1_556
Na10 O47 2.748329 1_656
Na10 O45 2.760379 1_546
Na11 O50 2.322725 1_555
Na11 O55 2.615506 1_555
Na11 O48 2.629264 1_555
Na11 O49 2.694142 1_555
Na11 O54 2.700577 1_555
Na11 O56 2.824275 1_555
Na12 O53 2.239944 1_555
Na12 O51 2.327546 1_555
Na12 O52 2.684589 1_555
Na12 O58 2.740256 1_555
Na12 O59 2.913046 1_555
Na12 O57 2.918905 1_555
Na13 O62 2.192730 1_555
Na13 O60 2.456267 1_555
Na13 O61 2.510542 1_555
Na13 O67 2.682850 1_555
Na13 O66 2.774696 1_555
Na13 O68 2.886909 1_555
Na14 O65 2.439098 1_555
Na14 O70 2.475978 1_555
Na14 O63 2.546634 1_555
Na14 O69 2.631215 1_555
Na14 O64 2.720184 1_555
Na14 O71 2.722542 1_555
Mg0 O0 1.944418 1_565
Mg0 O1 1.999321 1_455
Mg0 O38 2.054200 1_565
Mg0 O36 2.061937 1_455
Mg0 O2 2.141680 1_465
Mg0 O37 2.302690 1_455
Mg1 O4 2.000076 1_555
Mg1 O41 2.022238 1_555
Mg1 O40 2.027930 1_665
Mg1 O39 2.080250 1_665
Mg1 O5 2.192987 1_565
Mg1 O3 2.216909 1_665
Mg2 O8 1.946312 1_555
Mg2 O7 2.105158 1_565
Mg2 O6 2.175711 1_455
Mg2 O44 2.241443 1_455
Mg2 O43 2.257798 1_565
Mg2 O42 2.284684 1_465
Mg3 O50 1.958218 1_555
Mg3 O12 1.984587 1_555
Mg3 O14 2.095218 1_555
Mg3 O13 2.107921 1_555
Mg3 O48 2.155231 1_555
Mg3 O49 2.276612 1_555
Mg4 O16 1.954540 1_555
Mg4 O17 1.992161 1_555
Mg4 O53 2.011317 1_555
Mg4 O51 2.047162 1_555
Mg4 O15 2.190583 1_555
Mg4 O52 2.339572 1_555
Mg5 O24 1.926559 1_554
Mg5 O26 1.973737 1_554
Mg5 O25 2.023874 1_554
Mg5 O62 2.056339 1_555
Mg5 O60 2.250898 1_555
Mg5 O61 2.314678 1_555
Mg6 O28 1.900342 1_555
Mg6 O29 1.910847 1_555
Mg6 O65 2.147994 1_555
Mg6 O27 2.180569 1_555
Mg6 O64 2.202896 1_555
Mg6 O63 2.225702 1_555
O0 Si0 1.589874 1_555
O1 Si1 1.594961 1_555
O2 S0 1.446882 1_655
O3 S1 1.473051 1_555
O4 Si2 1.621401 1_555
O5 S2 1.464166 1_545
O6 S2 1.468806 1_555
O7 S1 1.462509 1_555
O8 Si2 1.621222 1_455
O9 Si1 1.718982 1_555
O9 Ta0 1.894439 1_555
O10 S0 1.497589 1_555
O10 Ta0 2.151004 1_445
O11 Si0 1.696183 1_565
O11 Ta0 1.963860 1_455
O12 S3 1.465582 1_555
O13 S4 1.481462 1_555
O14 S5 1.468895 1_555
O15 S6 1.449637 1_555
O16 Si3 1.589478 1_555
O17 S7 1.447965 1_555
O18 S7 1.531863 1_555
O18 Ta1 2.143326 1_554
O19 S6 1.510308 1_555
O19 Ta1 2.142731 1_554
O20 Si3 1.720142 1_555
O20 Ta1 1.895468 1_554
O21 S4 1.551047 1_555
O21 Ta2 2.047000 1_555
O22 S5 1.581419 1_555
O22 Ta2 1.986373 1_555
O23 S3 1.549960 1_555
O23 Ta2 2.040535 1_555
O24 Si4 1.570986 1_555
O25 Si5 1.569918 1_555
O26 Si6 1.568871 1_555
O27 S8 1.456274 1_555
O28 Si7 1.566599 1_555
O29 Si8 1.578631 1_555
O30 Si8 1.711675 1_555
O30 Ta3 1.951215 1_555
O31 S8 1.525802 1_555
O31 Ta3 2.163559 1_555
O32 Si7 1.706990 1_555
O32 Ta3 1.933829 1_555
O33 Si5 1.718892 1_555
O33 Ta4 1.866009 1_555
O34 Si6 1.725548 1_555
O34 Ta4 1.906128 1_555
O35 Si4 1.721035 1_555
O35 Ta4 1.974669 1_555
O36 Si8 1.609158 1_655
O37 S8 1.453731 1_555
O38 Si7 1.590088 1_555
O39 Si5 1.598097 1_555
O40 Si6 1.596512 1_545
O41 Si4 1.606572 1_555
O42 S3 1.474246 1_555
O43 S4 1.471476 1_555
O44 S5 1.472184 1_555
O45 S6 1.551907 1_555
O45 Ta0 2.040923 1_555
O46 Si3 1.720299 1_555
O46 Ta0 1.925530 1_545
O47 S7 1.518558 1_555
O47 Ta0 2.187154 1_445
O48 S2 1.493656 1_545
O49 S1 1.506109 1_555
O50 Si2 1.633854 1_555
O51 Si1 1.601551 1_555
O52 S0 1.472634 1_655
O53 Si0 1.602178 1_555
O54 Si4 1.675638 1_555
O54 Ta1 2.009682 1_555
O55 Si5 1.683717 1_655
O55 Ta1 1.942185 1_555
O56 Si6 1.681215 1_545
O56 Ta1 1.935052 1_555
O57 S8 1.524576 1_545
O57 Ta2 2.125874 1_555
O58 Si7 1.755540 1_555
O58 Ta2 1.928840 1_555
O59 Si8 1.706523 1_655
O59 Ta2 1.903133 1_555
O60 S7 1.458947 1_555
O61 S6 1.459473 1_455
O62 Si3 1.591376 1_565
O63 S4 1.473587 1_565
O64 S5 1.462856 1_555
O65 S3 1.472746 1_455
O66 Si0 1.718005 1_565
O66 Ta3 2.004594 1_555
O67 Si1 1.673744 1_555
O67 Ta3 2.002552 1_555
O68 S0 1.533716 1_555
O68 Ta3 2.058721 1_555
O69 S1 1.522712 1_555
O69 Ta4 2.236188 1_555
O70 Si2 1.733952 1_455
O70 Ta4 1.953024 1_555
O71 S2 1.541801 1_555
O71 Ta4 2.294365 1_555
