# generated using pymatgen
data_NiPbF6
_symmetry_space_group_name_H-M   'P 1'
_cell_length_a   5.56435700
_cell_length_b   5.56436344
_cell_length_c   5.56436210
_cell_angle_alpha   54.31326055
_cell_angle_beta   54.31329318
_cell_angle_gamma   54.31330974
_symmetry_Int_Tables_number   1
_chemical_formula_structural   NiPbF6
_chemical_formula_sum   'Ni1 Pb1 F6'
_cell_volume   105.66088101
_cell_formula_units_Z   1
loop_
 _symmetry_equiv_pos_site_id
 _symmetry_equiv_pos_as_xyz
  1  'x, y, z'
loop_
 _atom_site_type_symbol
 _atom_site_label
 _atom_site_symmetry_multiplicity
 _atom_site_fract_x
 _atom_site_fract_y
 _atom_site_fract_z
 _atom_site_occupancy
  Ni  Ni0  1  -0.00000000  -0.00000000  0.00000000  1
  Pb  Pb0  1  0.50000000  0.50000000  0.50000000  1
  F  F0  1  0.39328486  0.08912210  0.76110814  1
  F  F1  1  0.08911965  0.76110819  0.39328750  1
  F  F2  1  0.23889616  0.60671215  0.91087770  1
  F  F3  1  0.91088035  0.23889181  0.60671250  1
  F  F4  1  0.60671514  0.91087890  0.23889186  1
  F  F5  1  0.76110384  0.39328785  0.08912230  1
loop_
_geom_bond_atom_site_label_1
_geom_bond_atom_site_label_2
_geom_bond_distance
_geom_bond_site_symmetry_2
F0 Ni0 1.976120 1_556
F0 Pb0 2.095815 1_555
F1 Ni0 1.976127 1_565
F1 Pb0 2.095818 1_555
F2 Ni0 1.976136 1_566
F2 Pb0 2.095809 1_555
F3 Ni0 1.976127 1_656
F3 Pb0 2.095818 1_555
F4 Ni0 1.976118 1_665
F4 Pb0 2.095819 1_555
F5 Ni0 1.976136 1_655
F5 Pb0 2.095809 1_555
