# generated using pymatgen
data_MgZn2(AgO2)4
_symmetry_space_group_name_H-M   'P 1'
_cell_length_a   3.13383902
_cell_length_b   8.57078884
_cell_length_c   8.36927650
_cell_angle_alpha   77.57665965
_cell_angle_beta   84.75743942
_cell_angle_gamma   97.99986421
_symmetry_Int_Tables_number   1
_chemical_formula_structural   MgZn2(AgO2)4
_chemical_formula_sum   'Mg1 Zn2 Ag4 O8'
_cell_volume   215.67713624
_cell_formula_units_Z   1
loop_
 _symmetry_equiv_pos_site_id
 _symmetry_equiv_pos_as_xyz
  1  'x, y, z'
loop_
 _atom_site_type_symbol
 _atom_site_label
 _atom_site_symmetry_multiplicity
 _atom_site_fract_x
 _atom_site_fract_y
 _atom_site_fract_z
 _atom_site_occupancy
  Mg  Mg0  1  0.50138759  0.48895345  0.51649539  1
  Zn  Zn0  1  0.23916542  0.19149259  0.22148786  1
  Zn  Zn1  1  0.76228021  0.78638947  0.81161879  1
  Ag  Ag0  1  0.64803755  0.15734901  0.56819030  1
  Ag  Ag1  1  0.10048465  0.53335503  0.18792082  1
  Ag  Ag2  1  0.90187128  0.44466885  0.84523219  1
  Ag  Ag3  1  0.35436095  0.82056963  0.46490788  1
  O  O0  1  0.00762613  0.60280501  0.61103998  1
  O  O1  1  0.48760751  0.29733714  0.73471314  1
  O  O2  1  0.51542650  0.68070622  0.29843215  1
  O  O3  1  0.99516348  0.37496368  0.42203634  1
  O  O4  1  0.33753054  0.91792225  0.68674151  1
  O  O5  1  0.81227343  0.32400885  0.09932591  1
  O  O6  1  0.66366520  0.05986487  0.34620695  1
  O  O7  1  0.18943155  0.65391494  0.93376078  1
loop_
_geom_bond_atom_site_label_1
_geom_bond_atom_site_label_2
_geom_bond_distance
_geom_bond_site_symmetry_2
Mg0 O0 2.055700 1_655
Mg0 O3 2.055801 1_455
Mg0 O0 2.121646 1_555
Mg0 O3 2.122150 1_555
Mg0 O2 2.169872 1_555
Mg0 O1 2.170208 1_555
Ag0 O3 2.090164 1_555
Ag0 O1 2.096178 1_555
Ag0 O4 2.129333 1_545
Ag0 O6 2.194243 1_555
Ag1 O3 2.098484 1_455
Ag1 O2 2.099190 1_555
Ag1 O7 2.129758 1_554
Ag1 O5 2.197426 1_455
Ag1 O2 2.578611 1_455
Ag2 O1 2.097905 1_555
Ag2 O0 2.098034 1_655
Ag2 O5 2.129429 1_556
Ag2 O7 2.195737 1_655
Ag2 O1 2.580112 1_655
Ag3 O0 2.090574 1_555
Ag3 O2 2.095592 1_555
Ag3 O6 2.127650 1_565
Ag3 O4 2.192439 1_555
O4 Zn1 2.048449 1_455
O4 Zn1 2.073638 1_555
O5 Zn0 2.039123 1_555
O5 Zn0 2.073227 1_655
O6 Zn0 2.048889 1_655
O6 Zn0 2.072878 1_555
O7 Zn1 2.038340 1_555
O7 Zn1 2.073588 1_455
