# generated using pymatgen
data_Pr2Mg(BiO3)4
_symmetry_space_group_name_H-M   'P 1'
_cell_length_a   5.76534846
_cell_length_b   6.19309213
_cell_length_c   8.46337319
_cell_angle_alpha   88.24389304
_cell_angle_beta   88.75627838
_cell_angle_gamma   91.39441842
_symmetry_Int_Tables_number   1
_chemical_formula_structural   Pr2Mg(BiO3)4
_chemical_formula_sum   'Pr2 Mg1 Bi4 O12'
_cell_volume   301.87996658
_cell_formula_units_Z   1
loop_
 _symmetry_equiv_pos_site_id
 _symmetry_equiv_pos_as_xyz
  1  'x, y, z'
loop_
 _atom_site_type_symbol
 _atom_site_label
 _atom_site_symmetry_multiplicity
 _atom_site_fract_x
 _atom_site_fract_y
 _atom_site_fract_z
 _atom_site_occupancy
  Pr  Pr0  1  0.02724789  0.91586092  0.75516774  1
  Pr  Pr1  1  0.51858008  0.59650745  0.24643549  1
  Mg  Mg0  1  0.00483342  0.99910876  0.20619120  1
  Bi  Bi0  1  0.01134909  0.48199990  0.00903858  1
  Bi  Bi1  1  0.00678592  0.47378160  0.50953806  1
  Bi  Bi2  1  0.50072214  0.02757146  0.48748451  1
  Bi  Bi3  1  0.50623016  0.03339965  0.99120438  1
  O  O0  1  0.13326473  0.43198920  0.24886665  1
  O  O1  1  0.12732394  0.15244861  0.97383559  1
  O  O2  1  0.18394141  0.17802053  0.57292321  1
  O  O3  1  0.29267238  0.74256446  0.54650570  1
  O  O4  1  0.30396434  0.69847824  0.97852400  1
  O  O5  1  0.35074309  0.96801739  0.24865181  1
  O  O6  1  0.64608402  0.01438024  0.72031888  1
  O  O7  1  0.70354619  0.31493512  0.09630286  1
  O  O8  1  0.64685824  0.33875236  0.43854177  1
  O  O9  1  0.81823197  0.78863068  0.06322813  1
  O  O10  1  0.78711175  0.85645343  0.38752670  1
  O  O11  1  0.93054425  0.53918502  0.76971374  1
loop_
_geom_bond_atom_site_label_1
_geom_bond_atom_site_label_2
_geom_bond_distance
_geom_bond_site_symmetry_2
Mg0 O5 2.046697 1_555
Mg0 O9 2.098912 1_455
Mg0 O10 2.119150 1_455
Mg0 O1 2.249519 1_564
Bi0 O11 2.109530 1_454
Bi0 O4 2.135403 1_554
Bi0 O7 2.138232 1_455
Bi0 O0 2.178044 1_555
Bi0 O1 2.190050 1_554
Bi0 O9 2.278214 1_455
Bi1 O2 2.177295 1_555
Bi1 O11 2.286315 1_455
Bi1 O8 2.316656 1_455
Bi1 O0 2.332424 1_555
Bi1 O3 2.346535 1_555
Bi2 O8 2.110052 1_555
Bi2 O3 2.149574 1_545
Bi2 O10 2.155104 1_545
Bi2 O6 2.158078 1_555
Bi2 O2 2.189376 1_555
Bi2 O5 2.252893 1_545
Bi3 O7 2.273282 1_556
Bi3 O1 2.328741 1_555
Bi3 O5 2.357651 1_546
Bi3 O4 2.361152 1_545
Bi3 O6 2.420944 1_555
Bi3 O9 2.455362 1_546
O0 Pr1 2.420757 1_555
O1 Pr0 2.464977 1_545
O2 Pr0 2.354947 1_545
O3 Pr0 2.586705 1_555
O3 Pr1 3.003113 1_555
O4 Pr1 2.672663 1_556
O4 Pr0 2.830287 1_555
O5 Pr1 2.518044 1_555
O6 Pr0 2.317502 1_645
O7 Pr1 2.441317 1_555
O8 Pr1 2.385198 1_555
O9 Pr1 2.544625 1_555
O9 Pr0 2.926114 1_654
O10 Pr1 2.547784 1_555
O11 Pr0 2.384118 1_655
