# generated using pymatgen
data_KTe
_symmetry_space_group_name_H-M   'P 1'
_cell_length_a   5.62797144
_cell_length_b   5.62797206
_cell_length_c   12.28782515
_cell_angle_alpha   90.00000000
_cell_angle_beta   90.00000000
_cell_angle_gamma   119.99999638
_symmetry_Int_Tables_number   1
_chemical_formula_structural   KTe
_chemical_formula_sum   'K4 Te4'
_cell_volume   337.06176277
_cell_formula_units_Z   4
loop_
 _symmetry_equiv_pos_site_id
 _symmetry_equiv_pos_as_xyz
  1  'x, y, z'
loop_
 _atom_site_type_symbol
 _atom_site_label
 _atom_site_symmetry_multiplicity
 _atom_site_fract_x
 _atom_site_fract_y
 _atom_site_fract_z
 _atom_site_occupancy
  K  K0  1  -0.00000000  0.00000000  0.00000000  1
  K  K1  1  -0.00000000  0.00000000  0.50000000  1
  K  K2  1  0.33333300  0.66666700  0.25000000  1
  K  K3  1  0.66666700  0.33333300  0.75000000  1
  Te  Te0  1  0.33333300  0.66666700  0.63538675  1
  Te  Te1  1  0.66666700  0.33333300  0.13538675  1
  Te  Te2  1  0.66666700  0.33333300  0.36461325  1
  Te  Te3  1  0.33333300  0.66666700  0.86461325  1
loop_
_geom_bond_atom_site_label_1
_geom_bond_atom_site_label_2
_geom_bond_distance
_geom_bond_site_symmetry_2
K0 Te1 3.650424 1_455
K0 Te3 3.650424 1_544
K0 Te3 3.650428 1_444
K0 Te1 3.650428 1_555
K0 Te1 3.650429 1_445
K0 Te3 3.650429 1_554
K1 Te0 3.650424 1_545
K1 Te2 3.650424 1_455
K1 Te2 3.650428 1_555
K1 Te0 3.650428 1_445
K1 Te2 3.650429 1_445
K1 Te0 3.650429 1_555
K2 Te1 3.541390 1_455
K2 Te2 3.541390 1_455
K2 Te1 3.541390 1_565
K2 Te2 3.541390 1_565
K2 Te1 3.541399 1_555
K2 Te2 3.541399 1_555
K3 Te0 3.541390 1_655
K3 Te3 3.541390 1_655
K3 Te3 3.541390 1_545
K3 Te0 3.541390 1_545
K3 Te3 3.541399 1_555
K3 Te0 3.541399 1_555
Te0 Te3 2.816695 1_555
Te1 Te2 2.816695 1_555
