# generated using pymatgen
data_Li4Ge5O12
_symmetry_space_group_name_H-M   'P 1'
_cell_length_a   5.10473536
_cell_length_b   9.12500340
_cell_length_c   9.57456717
_cell_angle_alpha   73.11847882
_cell_angle_beta   78.25131870
_cell_angle_gamma   79.05848397
_symmetry_Int_Tables_number   1
_chemical_formula_structural   Li4Ge5O12
_chemical_formula_sum   'Li8 Ge10 O24'
_cell_volume   413.74599405
_cell_formula_units_Z   2
loop_
 _symmetry_equiv_pos_site_id
 _symmetry_equiv_pos_as_xyz
  1  'x, y, z'
loop_
 _atom_site_type_symbol
 _atom_site_label
 _atom_site_symmetry_multiplicity
 _atom_site_fract_x
 _atom_site_fract_y
 _atom_site_fract_z
 _atom_site_occupancy
  Li  Li0  1  0.68631159  0.23237476  0.44351167  1
  Li  Li1  1  0.31368841  0.76762524  0.55648833  1
  Li  Li2  1  0.27218264  0.90680030  0.02346437  1
  Li  Li3  1  0.72781736  0.09319970  0.97653563  1
  Li  Li4  1  0.86611481  0.59121218  0.59350334  1
  Li  Li5  1  0.13388519  0.40878782  0.40649666  1
  Li  Li6  1  0.34587082  0.57731858  0.11191663  1
  Li  Li7  1  0.65412918  0.42268142  0.88808337  1
  Ge  Ge0  1  0.88135905  0.40544962  0.14891962  1
  Ge  Ge1  1  0.11864095  0.59455038  0.85108038  1
  Ge  Ge2  1  0.73279112  0.90264094  0.72985505  1
  Ge  Ge3  1  0.26720888  0.09735906  0.27014495  1
  Ge  Ge4  1  0.58925495  0.58026127  0.35448177  1
  Ge  Ge5  1  0.41074505  0.41973873  0.64551823  1
  Ge  Ge6  1  0.81459558  0.90059704  0.31950691  1
  Ge  Ge7  1  0.18540442  0.09940296  0.68049309  1
  Ge  Ge8  1  0.81012070  0.74671316  0.06442567  1
  Ge  Ge9  1  0.18987930  0.25328684  0.93557433  1
  O  O0  1  0.10419231  0.93317858  0.37463784  1
  O  O1  1  0.89580769  0.06682142  0.62536216  1
  O  O2  1  0.26514610  0.56784405  0.48425869  1
  O  O3  1  0.73485390  0.43215595  0.51574131  1
  O  O4  1  0.31842253  0.26333413  0.56787124  1
  O  O5  1  0.68157747  0.73666587  0.43212876  1
  O  O6  1  0.44683343  0.57956413  0.73044655  1
  O  O7  1  0.55316657  0.42043587  0.26955345  1
  O  O8  1  0.05251260  0.43033561  0.77558845  1
  O  O9  1  0.94748740  0.56966439  0.22441155  1
  O  O10  1  0.95072109  0.73978057  0.69681466  1
  O  O11  1  0.04927891  0.26021943  0.30318534  1
  O  O12  1  0.51537074  0.26986190  0.81218476  1
  O  O13  1  0.48462926  0.73013810  0.18781524  1
  O  O14  1  0.23353587  0.42243908  0.01417102  1
  O  O15  1  0.76646413  0.57756092  0.98582898  1
  O  O16  1  0.14933493  0.73347565  0.95071857  1
  O  O17  1  0.85066507  0.26652435  0.04928143  1
  O  O18  1  0.42813141  0.93449979  0.65840893  1
  O  O19  1  0.57186859  0.06550021  0.34159107  1
  O  O20  1  0.10268991  0.09949619  0.86637834  1
  O  O21  1  0.89731009  0.90050381  0.13362166  1
  O  O22  1  0.34811974  0.09869982  0.08376109  1
  O  O23  1  0.65188026  0.90130018  0.91623891  1
loop_
_geom_bond_atom_site_label_1
_geom_bond_atom_site_label_2
_geom_bond_distance
_geom_bond_site_symmetry_2
Li0 O4 2.026743 1_555
Li0 O11 2.066262 1_655
Li0 O7 2.130534 1_555
Li0 O3 2.199204 1_555
Li0 O19 2.246142 1_555
Li0 O1 2.252715 1_555
Li1 O5 2.026743 1_555
Li1 O10 2.066262 1_455
Li1 O6 2.130534 1_555
Li1 O2 2.199204 1_555
Li1 O18 2.246142 1_555
Li1 O0 2.252715 1_555
Li2 O21 1.990547 1_455
Li2 O23 1.998994 1_554
Li2 O22 2.117970 1_565
Li2 O20 2.125785 1_564
Li2 O16 2.138687 1_554
Li2 O13 2.192944 1_555
Li3 O20 1.990547 1_655
Li3 O22 1.998994 1_556
Li3 O23 2.117970 1_545
Li3 O21 2.125785 1_546
Li3 O17 2.138687 1_556
Li3 O12 2.192944 1_555
Li4 O5 1.990826 1_555
Li4 O10 2.044000 1_555
Li4 O3 2.076001 1_555
Li4 O2 2.094201 1_655
Li4 O8 2.181441 1_655
Li4 O6 2.274646 1_555
Li5 O4 1.990826 1_555
Li5 O11 2.044000 1_555
Li5 O2 2.076001 1_555
Li5 O3 2.094201 1_455
Li5 O9 2.181441 1_455
Li5 O7 2.274646 1_555
Li6 O13 2.036544 1_555
Li6 O16 2.056615 1_554
Li6 O7 2.065814 1_555
Li6 O9 2.102120 1_455
Li6 O14 2.120475 1_555
Li6 O15 2.238708 1_554
Li7 O12 2.036544 1_555
Li7 O17 2.056615 1_556
Li7 O6 2.065814 1_555
Li7 O8 2.102120 1_655
Li7 O15 2.120475 1_555
Li7 O14 2.238708 1_556
Ge0 O7 1.837459 1_555
Ge0 O17 1.838576 1_555
Ge0 O11 1.902668 1_655
Ge0 O9 1.949925 1_555
Ge0 O15 1.961592 1_554
Ge0 O14 1.991383 1_655
Ge1 O6 1.837459 1_555
Ge1 O16 1.838576 1_555
Ge1 O10 1.902668 1_455
Ge1 O8 1.949925 1_555
Ge1 O14 1.961592 1_556
Ge1 O15 1.991383 1_455
Ge2 O23 1.744826 1_555
Ge2 O10 1.745938 1_555
Ge2 O18 1.765572 1_555
Ge2 O1 1.789295 1_565
Ge3 O22 1.744826 1_555
Ge3 O11 1.745938 1_555
Ge3 O19 1.765572 1_555
Ge3 O0 1.789295 1_545
Ge4 O2 1.856427 1_555
Ge4 O13 1.872000 1_555
Ge4 O3 1.907064 1_555
Ge4 O7 1.916732 1_555
Ge4 O5 1.955998 1_555
Ge4 O9 1.994929 1_555
Ge5 O3 1.856427 1_555
Ge5 O12 1.872000 1_555
Ge5 O2 1.907064 1_555
Ge5 O6 1.916732 1_555
Ge5 O4 1.955998 1_555
Ge5 O8 1.994929 1_555
Ge6 O5 1.735524 1_555
Ge6 O21 1.743725 1_555
Ge6 O0 1.768675 1_655
Ge6 O19 1.792914 1_565
Ge7 O4 1.735524 1_555
Ge7 O20 1.743725 1_555
Ge7 O1 1.768675 1_455
Ge7 O18 1.792914 1_545
Ge8 O13 1.836180 1_555
Ge8 O16 1.851362 1_654
Ge8 O21 1.871782 1_555
Ge8 O23 1.878075 1_554
Ge8 O15 1.967711 1_554
Ge8 O9 2.004560 1_555
Ge9 O12 1.836180 1_555
Ge9 O17 1.851362 1_456
Ge9 O20 1.871782 1_555
Ge9 O22 1.878075 1_556
Ge9 O14 1.967711 1_556
Ge9 O8 2.004560 1_555
