# generated using pymatgen
data_Na3Ti2Ga2P5SO24
_symmetry_space_group_name_H-M   'P 1'
_cell_length_a   8.61693536
_cell_length_b   8.60127704
_cell_length_c   22.16252990
_cell_angle_alpha   90.20007072
_cell_angle_beta   89.92068234
_cell_angle_gamma   119.98388994
_symmetry_Int_Tables_number   1
_chemical_formula_structural   Na3Ti2Ga2P5SO24
_chemical_formula_sum   'Na9 Ti6 Ga6 P15 S3 O72'
_cell_volume   1422.76617159
_cell_formula_units_Z   3
loop_
 _symmetry_equiv_pos_site_id
 _symmetry_equiv_pos_as_xyz
  1  'x, y, z'
loop_
 _atom_site_type_symbol
 _atom_site_label
 _atom_site_symmetry_multiplicity
 _atom_site_fract_x
 _atom_site_fract_y
 _atom_site_fract_z
 _atom_site_occupancy
  Na  Na0  1  0.00127504  0.36525624  0.75048737  1
  Na  Na1  1  0.66704527  0.96702996  0.58347252  1
  Na  Na2  1  0.03364019  0.33337810  0.08340966  1
  Na  Na3  1  0.00457005  0.99828098  0.50056778  1
  Na  Na4  1  0.00181265  0.99621583  0.00023876  1
  Na  Na5  1  0.66208015  0.33098007  0.83397811  1
  Na  Na6  1  0.67008750  0.33425397  0.33327402  1
  Na  Na7  1  0.33850340  0.66981718  0.16734289  1
  Na  Na8  1  0.33345908  0.66722211  0.66679297  1
  Ti  Ti0  1  0.98327291  0.98960737  0.35342448  1
  Ti  Ti1  1  0.00878411  0.00557660  0.85273374  1
  Ti  Ti2  1  0.66169234  0.33417551  0.68596652  1
  Ti  Ti3  1  0.67265949  0.33926939  0.18587889  1
  Ti  Ti4  1  0.66531972  0.32623893  0.98087635  1
  Ti  Ti5  1  0.67339120  0.33435630  0.48067883  1
  Ga  Ga0  1  0.00438443  0.99827767  0.64862607  1
  Ga  Ga1  1  0.99501053  0.99675131  0.14817908  1
  Ga  Ga2  1  0.33143231  0.67086759  0.01872797  1
  Ga  Ga3  1  0.32855315  0.66898501  0.51861055  1
  Ga  Ga4  1  0.33070475  0.66542602  0.31470069  1
  Ga  Ga5  1  0.33390331  0.67461545  0.81460062  1
  P  P0  1  0.70604254  0.71066361  0.24878480  1
  P  P1  1  0.00341587  0.29106848  0.24956253  1
  P  P2  1  0.29116423  0.29092526  0.74942571  1
  P  P3  1  0.00172584  0.71440092  0.74959258  1
  P  P4  1  0.70706174  0.99346446  0.74964403  1
  P  P5  1  0.96289180  0.33743911  0.58383736  1
  P  P6  1  0.37224632  0.04390868  0.58272978  1
  P  P7  1  0.66587302  0.62295650  0.58279261  1
  P  P8  1  0.95703800  0.62891101  0.08269512  1
  P  P9  1  0.66160485  0.03757507  0.08386458  1
  P  P10  1  0.37761246  0.33345640  0.08344122  1
  P  P11  1  0.04630355  0.38010038  0.91678354  1
  P  P12  1  0.33297704  0.95253568  0.91696761  1
  P  P13  1  0.61624744  0.95215927  0.41673648  1
  P  P14  1  0.04827359  0.66749540  0.41627617  1
  S  S0  1  0.28789182  0.99920234  0.24987643  1
  S  S1  1  0.62158999  0.66686240  0.91681342  1
  S  S2  1  0.33306143  0.37750585  0.41677462  1
  O  O0  1  0.20776559  0.03139292  0.30449805  1
  O  O1  1  0.82904102  0.79672404  0.30584100  1
  O  O2  1  0.97068172  0.16852676  0.30554934  1
  O  O3  1  0.20403462  0.17109397  0.80595795  1
  O  O4  1  0.96769281  0.79854919  0.80633107  1
  O  O5  1  0.83271109  0.03487292  0.80516744  1
  O  O6  1  0.78961616  0.96653346  0.69163232  1
  O  O7  1  0.16977226  0.21031433  0.69412993  1
  O  O8  1  0.03483590  0.82724244  0.69331664  1
  O  O9  1  0.79271850  0.82668739  0.19376640  1
  O  O10  1  0.03494322  0.21023771  0.19195519  1
  O  O11  1  0.17896720  0.96726963  0.19525090  1
  O  O12  1  0.87279749  0.36551954  0.64048806  1
  O  O13  1  0.49812274  0.13137450  0.63865908  1
  O  O14  1  0.63564999  0.50335339  0.63908357  1
  O  O15  1  0.86972996  0.50253812  0.13870281  1
  O  O16  1  0.63479273  0.13134320  0.13940267  1
  O  O17  1  0.49751827  0.36401997  0.13958603  1
  O  O18  1  0.46658256  0.30274884  0.02725000  1
  O  O19  1  0.83699709  0.53546893  0.02729946  1
  O  O20  1  0.70067896  0.16371516  0.02800553  1
  O  O21  1  0.46594661  0.16327187  0.52716962  1
  O  O22  1  0.69679053  0.53318401  0.52711898  1
  O  O23  1  0.83603575  0.29942117  0.52834546  1
  O  O24  1  0.54542748  0.70045488  0.97140750  1
  O  O25  1  0.15915049  0.45647597  0.97434523  1
  O  O26  1  0.29767368  0.83972231  0.97350439  1
  O  O27  1  0.54499396  0.84113615  0.47483557  1
  O  O28  1  0.29940333  0.45416689  0.47145031  1
  O  O29  1  0.16036539  0.70252791  0.47328935  1
  O  O30  1  0.12516148  0.62993160  0.35953841  1
  O  O31  1  0.50428116  0.87190643  0.36004149  1
  O  O32  1  0.36786246  0.48794981  0.36207695  1
  O  O33  1  0.12479654  0.49131695  0.85898143  1
  O  O34  1  0.37132199  0.87702256  0.86000122  1
  O  O35  1  0.51103595  0.63232881  0.86184505  1
  O  O36  1  0.02527507  0.83581847  0.40797978  1
  O  O37  1  0.80972274  0.97774263  0.40900915  1
  O  O38  1  0.17282516  0.19603402  0.40942910  1
  O  O39  1  0.02150094  0.18838643  0.90889859  1
  O  O40  1  0.16556642  0.97601238  0.90884652  1
  O  O41  1  0.80268054  0.82791159  0.90992579  1
  O  O42  1  0.97018471  0.16263697  0.58964308  1
  O  O43  1  0.18887559  0.02719847  0.58976373  1
  O  O44  1  0.83258364  0.81080900  0.58958772  1
  O  O45  1  0.97498197  0.81275847  0.09072046  1
  O  O46  1  0.83639040  0.03008901  0.08932378  1
  O  O47  1  0.18943036  0.16640814  0.09028077  1
  O  O48  1  0.69493810  0.16866344  0.74301079  1
  O  O49  1  0.47660927  0.30739033  0.74295468  1
  O  O50  1  0.83358826  0.52244400  0.74315064  1
  O  O51  1  0.69123762  0.52333215  0.24269899  1
  O  O52  1  0.83117807  0.30643369  0.24266626  1
  O  O53  1  0.46861923  0.16195120  0.24378457  1
  O  O54  1  0.64201182  0.50568400  0.92324195  1
  O  O55  1  0.85624240  0.35780221  0.92450117  1
  O  O56  1  0.49962297  0.14479887  0.92489340  1
  O  O57  1  0.64281427  0.14378389  0.42446024  1
  O  O58  1  0.49428430  0.35767973  0.42342536  1
  O  O59  1  0.85604274  0.50088932  0.42478033  1
  O  O60  1  0.35631662  0.50048422  0.07643379  1
  O  O61  1  0.13932467  0.63623947  0.07737900  1
  O  O62  1  0.49578812  0.85405021  0.07606828  1
  O  O63  1  0.36418482  0.86067096  0.57725409  1
  O  O64  1  0.49862987  0.64311390  0.57640290  1
  O  O65  1  0.14613292  0.50419421  0.57607928  1
  O  O66  1  0.30866660  0.83861450  0.25622946  1
  O  O67  1  0.52058834  0.68999603  0.25846077  1
  O  O68  1  0.16863436  0.47872175  0.25775807  1
  O  O69  1  0.30792808  0.47665005  0.75841971  1
  O  O70  1  0.16361287  0.68458234  0.75667678  1
  O  O71  1  0.52112040  0.82913380  0.75753617  1
loop_
_geom_bond_atom_site_label_1
_geom_bond_atom_site_label_2
_geom_bond_distance
_geom_bond_site_symmetry_2
Na0 O48 2.322189 1_455
Na0 O69 2.323966 1_555
Na0 O70 2.382677 1_555
Na0 O50 2.428390 1_455
Na0 O33 2.631645 1_555
Na0 O12 2.679334 1_455
Na0 O7 2.713234 1_555
Na0 O5 2.747233 1_455
Na1 O42 2.297680 1_565
Na1 O63 2.297916 1_555
Na1 O44 2.403369 1_555
Na1 O64 2.418515 1_555
Na1 O6 2.621679 1_555
Na1 O27 2.631737 1_555
Na1 O23 2.765006 1_565
Na1 O13 2.766304 1_565
Na2 O61 2.294370 1_555
Na2 O46 2.298107 1_455
Na2 O47 2.411837 1_555
Na2 O60 2.413864 1_555
Na2 O10 2.634166 1_555
Na2 O25 2.645638 1_554
Na2 O15 2.765931 1_455
Na2 O20 2.771542 1_455
Na3 O43 2.470281 1_565
Na3 O44 2.512846 1_455
Na3 O42 2.526067 1_465
Na3 O36 2.534425 1_555
Na3 O38 2.574113 1_565
Na3 O37 2.584223 1_455
Na4 O45 2.494162 1_455
Na4 O40 2.521621 1_554
Na4 O47 2.522284 1_565
Na4 O46 2.533396 1_465
Na4 O41 2.559828 1_454
Na4 O39 2.569230 1_564
Na5 O49 2.519299 1_555
Na5 O56 2.521520 1_555
Na5 O54 2.537653 1_555
Na5 O48 2.543173 1_555
Na5 O55 2.549042 1_555
Na5 O50 2.555483 1_555
Na6 O52 2.517435 1_555
Na6 O59 2.535324 1_555
Na6 O51 2.536373 1_555
Na6 O57 2.541711 1_555
Na6 O53 2.561477 1_555
Na6 O58 2.573189 1_555
Na7 O67 2.510787 1_555
Na7 O62 2.511602 1_555
Na7 O60 2.531071 1_555
Na7 O66 2.531099 1_555
Na7 O68 2.543554 1_555
Na7 O61 2.552349 1_555
Na8 O71 2.517424 1_555
Na8 O65 2.518071 1_555
Na8 O70 2.518103 1_555
Na8 O63 2.521476 1_555
Na8 O64 2.523089 1_555
Na8 O69 2.553525 1_555
Ga0 O8 1.900206 1_555
Ga0 O7 1.941005 1_565
Ga0 O43 1.972881 1_565
Ga0 O6 1.974782 1_455
Ga0 O44 2.026905 1_455
Ga0 O42 2.055378 1_465
Ga1 O9 1.912032 1_555
Ga1 O10 1.946393 1_665
Ga1 O45 1.967100 1_555
Ga1 O46 2.012740 1_565
Ga1 O11 2.018292 1_655
Ga1 O47 2.036230 1_665
Ga2 O26 1.905725 1_554
Ga2 O25 1.956282 1_554
Ga2 O62 1.965673 1_555
Ga2 O61 2.005631 1_555
Ga2 O24 2.022958 1_554
Ga2 O60 2.038935 1_555
Ga3 O29 1.901701 1_555
Ga3 O27 1.963906 1_555
Ga3 O65 1.970341 1_555
Ga3 O63 1.995491 1_555
Ga3 O28 2.023092 1_555
Ga3 O64 2.042299 1_555
Ga4 O30 1.916884 1_555
Ga4 O31 1.933305 1_555
Ga4 O68 1.967481 1_555
Ga4 O67 1.981412 1_555
Ga4 O32 2.008955 1_555
Ga4 O66 2.057009 1_555
Ga5 O34 1.890746 1_555
Ga5 O71 1.957402 1_555
Ga5 O33 1.966294 1_555
Ga5 O70 1.985009 1_555
Ga5 O69 2.026032 1_555
Ga5 O35 2.029854 1_555
O0 S0 1.485003 1_545
O0 Ti0 2.085427 1_445
O1 P0 1.575836 1_555
O1 Ti0 1.848961 1_555
O2 P1 1.562410 1_655
O2 Ti0 1.919505 1_545
O3 P2 1.558440 1_555
O3 Ti1 1.882435 1_555
O4 P3 1.547859 1_655
O4 Ti1 1.926626 1_665
O5 P4 1.558377 1_545
O5 Ti1 1.965999 1_655
O6 P4 1.540382 1_555
O7 P2 1.532792 1_555
O8 P3 1.519759 1_555
O9 P0 1.517081 1_555
O10 P1 1.539099 1_555
O11 S0 1.471463 1_555
O12 P5 1.555626 1_555
O12 Ti2 1.975923 1_555
O13 P6 1.568607 1_555
O13 Ti2 1.913770 1_555
O14 P7 1.556531 1_555
O14 Ti2 1.893412 1_555
O15 P8 1.574081 1_555
O15 Ti3 1.889636 1_555
O16 P9 1.548360 1_555
O16 Ti3 1.941831 1_555
O17 P10 1.553947 1_555
O17 Ti3 1.924187 1_555
O18 P10 1.551076 1_555
O18 Ti4 1.918469 1_554
O19 P8 1.545594 1_555
O19 Ti4 1.953457 1_554
O20 P9 1.570415 1_555
O20 Ti4 1.890708 1_554
O21 P6 1.549109 1_555
O21 Ti5 1.949023 1_555
O22 P7 1.545214 1_555
O22 Ti5 1.915277 1_555
O23 P5 1.567791 1_555
O23 Ti5 1.896771 1_555
O24 S1 1.470733 1_555
O25 P11 1.537416 1_555
O26 P12 1.522005 1_555
O27 P13 1.538579 1_555
O28 S2 1.473716 1_555
O29 P14 1.526475 1_555
O30 P14 1.527531 1_555
O31 P13 1.522425 1_555
O32 S2 1.477895 1_555
O33 P11 1.540484 1_555
O34 P12 1.527290 1_555
O35 S1 1.482467 1_555
O36 P14 1.567778 1_555
O36 Ti0 1.957940 1_455
O37 P13 1.577967 1_555
O37 Ti0 1.899382 1_555
O38 S2 1.487966 1_555
O38 Ti0 2.110099 1_445
O39 P11 1.562435 1_555
O39 Ti1 1.961721 1_555
O40 P12 1.564064 1_555
O40 Ti1 1.945918 1_565
O41 S1 1.489109 1_555
O41 Ti1 2.095377 1_665
O42 P5 1.541718 1_555
O43 P6 1.521228 1_555
O44 P7 1.541411 1_555
O45 P8 1.519819 1_555
O46 P9 1.544234 1_555
O47 P10 1.545629 1_555
O48 P4 1.569178 1_545
O48 Ti2 2.031815 1_555
O49 P2 1.538648 1_555
O49 Ti2 1.954737 1_555
O50 P3 1.566367 1_655
O50 Ti2 2.003967 1_555
O51 P0 1.556854 1_555
O51 Ti3 1.962438 1_555
O52 P1 1.562173 1_655
O52 Ti3 1.980495 1_555
O53 S0 1.491586 1_545
O53 Ti3 2.095598 1_555
O54 S1 1.489461 1_555
O54 Ti4 2.092480 1_555
O55 P11 1.560047 1_655
O55 Ti4 1.972709 1_555
O56 P12 1.566134 1_545
O56 Ti4 1.943643 1_555
O57 P13 1.555420 1_545
O57 Ti5 1.965614 1_555
O58 S2 1.489412 1_555
O58 Ti5 2.085403 1_555
O59 P14 1.568865 1_655
O59 Ti5 1.953795 1_555
O60 P10 1.544961 1_555
O61 P8 1.544569 1_455
O62 P9 1.519088 1_565
O63 P6 1.546879 1_565
O64 P7 1.541891 1_555
O65 P5 1.522269 1_455
O66 S0 1.486043 1_555
O67 P0 1.531900 1_555
O68 P1 1.538480 1_555
O69 P2 1.542634 1_555
O70 P3 1.547535 1_555
O71 P4 1.527412 1_555
