# generated using pymatgen
data_FeH18C3(N3F2)3
_symmetry_space_group_name_H-M   'P 1'
_cell_length_a   14.33583201
_cell_length_b   14.33583201
_cell_length_c   14.33583201
_cell_angle_alpha   90.00000000
_cell_angle_beta   90.00000000
_cell_angle_gamma   90.00000000
_symmetry_Int_Tables_number   1
_chemical_formula_structural   FeH18C3(N3F2)3
_chemical_formula_sum   'Fe8 H144 C24 N72 F48'
_cell_volume   2946.24398990
_cell_formula_units_Z   8
loop_
 _symmetry_equiv_pos_site_id
 _symmetry_equiv_pos_as_xyz
  1  'x, y, z'
loop_
 _atom_site_type_symbol
 _atom_site_label
 _atom_site_symmetry_multiplicity
 _atom_site_fract_x
 _atom_site_fract_y
 _atom_site_fract_z
 _atom_site_occupancy
  Fe  Fe0  1  0.00000000  -0.00000000  0.50000000  1
  Fe  Fe1  1  0.00000000  0.50000000  -0.00000000  1
  Fe  Fe2  1  0.50000000  -0.00000000  -0.00000000  1
  Fe  Fe3  1  0.50000000  0.50000000  0.50000000  1
  Fe  Fe4  1  0.50000000  0.50000000  -0.00000000  1
  Fe  Fe5  1  0.50000000  -0.00000000  0.50000000  1
  Fe  Fe6  1  0.00000000  0.50000000  0.50000000  1
  Fe  Fe7  1  0.00000000  -0.00000000  -0.00000000  1
  H  H0  1  0.46972260  0.75702699  0.39216711  1
  H  H1  1  0.53027740  0.25702699  0.10783289  1
  H  H2  1  0.03027740  0.24297301  0.89216711  1
  H  H3  1  0.96972260  0.74297301  0.60783289  1
  H  H4  1  0.39216711  0.46972260  0.75702699  1
  H  H5  1  0.10783289  0.53027740  0.25702699  1
  H  H6  1  0.89216711  0.03027740  0.24297301  1
  H  H7  1  0.60783289  0.96972260  0.74297301  1
  H  H8  1  0.75702699  0.39216711  0.46972260  1
  H  H9  1  0.25702699  0.10783289  0.53027740  1
  H  H10  1  0.24297301  0.89216711  0.03027740  1
  H  H11  1  0.74297301  0.60783289  0.96972260  1
  H  H12  1  0.53027740  0.24297301  0.60783289  1
  H  H13  1  0.46972260  0.74297301  0.89216711  1
  H  H14  1  0.96972260  0.75702699  0.10783289  1
  H  H15  1  0.03027740  0.25702699  0.39216711  1
  H  H16  1  0.60783289  0.53027740  0.24297301  1
  H  H17  1  0.89216711  0.46972260  0.74297301  1
  H  H18  1  0.10783289  0.96972260  0.75702699  1
  H  H19  1  0.39216711  0.03027740  0.25702699  1
  H  H20  1  0.24297301  0.60783289  0.53027740  1
  H  H21  1  0.74297301  0.89216711  0.46972260  1
  H  H22  1  0.75702699  0.10783289  0.96972260  1
  H  H23  1  0.25702699  0.39216711  0.03027740  1
  H  H24  1  0.47475223  0.64722068  0.33796002  1
  H  H25  1  0.52524777  0.14722068  0.16203998  1
  H  H26  1  0.02524777  0.35277932  0.83796002  1
  H  H27  1  0.97475223  0.85277932  0.66203998  1
  H  H28  1  0.33796002  0.47475223  0.64722068  1
  H  H29  1  0.16203998  0.52524777  0.14722068  1
  H  H30  1  0.83796002  0.02524777  0.35277932  1
  H  H31  1  0.66203998  0.97475223  0.85277932  1
  H  H32  1  0.64722068  0.33796002  0.47475223  1
  H  H33  1  0.14722068  0.16203998  0.52524777  1
  H  H34  1  0.35277932  0.83796002  0.02524777  1
  H  H35  1  0.85277932  0.66203998  0.97475223  1
  H  H36  1  0.52524777  0.35277932  0.66203998  1
  H  H37  1  0.47475223  0.85277932  0.83796002  1
  H  H38  1  0.97475223  0.64722068  0.16203998  1
  H  H39  1  0.02524777  0.14722068  0.33796002  1
  H  H40  1  0.66203998  0.52524777  0.35277932  1
  H  H41  1  0.83796002  0.47475223  0.85277932  1
  H  H42  1  0.16203998  0.97475223  0.64722068  1
  H  H43  1  0.33796002  0.02524777  0.14722068  1
  H  H44  1  0.35277932  0.66203998  0.52524777  1
  H  H45  1  0.85277932  0.83796002  0.47475223  1
  H  H46  1  0.64722068  0.16203998  0.97475223  1
  H  H47  1  0.14722068  0.33796002  0.02524777  1
  H  H48  1  0.49463053  0.64623351  0.16614082  1
  H  H49  1  0.50536947  0.14623351  0.33385918  1
  H  H50  1  0.00536947  0.35376649  0.66614082  1
  H  H51  1  0.99463053  0.85376649  0.83385918  1
  H  H52  1  0.16614082  0.49463053  0.64623351  1
  H  H53  1  0.33385918  0.50536947  0.14623351  1
  H  H54  1  0.66614082  0.00536947  0.35376649  1
  H  H55  1  0.83385918  0.99463053  0.85376649  1
  H  H56  1  0.64623351  0.16614082  0.49463053  1
  H  H57  1  0.14623351  0.33385918  0.50536947  1
  H  H58  1  0.35376649  0.66614082  0.00536947  1
  H  H59  1  0.85376649  0.83385918  0.99463053  1
  H  H60  1  0.50536947  0.35376649  0.83385918  1
  H  H61  1  0.49463053  0.85376649  0.66614082  1
  H  H62  1  0.99463053  0.64623351  0.33385918  1
  H  H63  1  0.00536947  0.14623351  0.16614082  1
  H  H64  1  0.83385918  0.50536947  0.35376649  1
  H  H65  1  0.66614082  0.49463053  0.85376649  1
  H  H66  1  0.33385918  0.99463053  0.64623351  1
  H  H67  1  0.16614082  0.00536947  0.14623351  1
  H  H68  1  0.35376649  0.83385918  0.50536947  1
  H  H69  1  0.85376649  0.66614082  0.49463053  1
  H  H70  1  0.64623351  0.33385918  0.99463053  1
  H  H71  1  0.14623351  0.16614082  0.00536947  1
  H  H72  1  0.50313167  0.75573186  0.11263719  1
  H  H73  1  0.49686833  0.25573186  0.38736281  1
  H  H74  1  0.99686833  0.24426814  0.61263719  1
  H  H75  1  0.00313167  0.74426814  0.88736281  1
  H  H76  1  0.11263719  0.50313167  0.75573186  1
  H  H77  1  0.38736281  0.49686833  0.25573186  1
  H  H78  1  0.61263719  0.99686833  0.24426814  1
  H  H79  1  0.88736281  0.00313167  0.74426814  1
  H  H80  1  0.75573186  0.11263719  0.50313167  1
  H  H81  1  0.25573186  0.38736281  0.49686833  1
  H  H82  1  0.24426814  0.61263719  0.99686833  1
  H  H83  1  0.74426814  0.88736281  0.00313167  1
  H  H84  1  0.49686833  0.24426814  0.88736281  1
  H  H85  1  0.50313167  0.74426814  0.61263719  1
  H  H86  1  0.00313167  0.75573186  0.38736281  1
  H  H87  1  0.99686833  0.25573186  0.11263719  1
  H  H88  1  0.88736281  0.49686833  0.24426814  1
  H  H89  1  0.61263719  0.50313167  0.74426814  1
  H  H90  1  0.38736281  0.00313167  0.75573186  1
  H  H91  1  0.11263719  0.99686833  0.25573186  1
  H  H92  1  0.24426814  0.88736281  0.49686833  1
  H  H93  1  0.74426814  0.61263719  0.50313167  1
  H  H94  1  0.75573186  0.38736281  0.00313167  1
  H  H95  1  0.25573186  0.11263719  0.99686833  1
  H  H96  1  0.48988373  0.89282851  0.18999889  1
  H  H97  1  0.51011627  0.39282851  0.31000111  1
  H  H98  1  0.01011627  0.10717149  0.68999889  1
  H  H99  1  0.98988373  0.60717149  0.81000111  1
  H  H100  1  0.18999889  0.48988373  0.89282851  1
  H  H101  1  0.31000111  0.51011627  0.39282851  1
  H  H102  1  0.68999889  0.01011627  0.10717149  1
  H  H103  1  0.81000111  0.98988373  0.60717149  1
  H  H104  1  0.89282851  0.18999889  0.48988373  1
  H  H105  1  0.39282851  0.31000111  0.51011627  1
  H  H106  1  0.10717149  0.68999889  0.01011627  1
  H  H107  1  0.60717149  0.81000111  0.98988373  1
  H  H108  1  0.51011627  0.10717149  0.81000111  1
  H  H109  1  0.48988373  0.60717149  0.68999889  1
  H  H110  1  0.98988373  0.89282851  0.31000111  1
  H  H111  1  0.01011627  0.39282851  0.18999889  1
  H  H112  1  0.81000111  0.51011627  0.10717149  1
  H  H113  1  0.68999889  0.48988373  0.60717149  1
  H  H114  1  0.31000111  0.98988373  0.89282851  1
  H  H115  1  0.18999889  0.01011627  0.39282851  1
  H  H116  1  0.10717149  0.81000111  0.51011627  1
  H  H117  1  0.60717149  0.68999889  0.48988373  1
  H  H118  1  0.89282851  0.31000111  0.98988373  1
  H  H119  1  0.39282851  0.18999889  0.01011627  1
  H  H120  1  0.48448411  0.89357290  0.31180054  1
  H  H121  1  0.51551589  0.39357290  0.18819946  1
  H  H122  1  0.01551589  0.10642710  0.81180054  1
  H  H123  1  0.98448411  0.60642710  0.68819946  1
  H  H124  1  0.31180054  0.48448411  0.89357290  1
  H  H125  1  0.18819946  0.51551589  0.39357290  1
  H  H126  1  0.81180054  0.01551589  0.10642710  1
  H  H127  1  0.68819946  0.98448411  0.60642710  1
  H  H128  1  0.89357290  0.31180054  0.48448411  1
  H  H129  1  0.39357290  0.18819946  0.51551589  1
  H  H130  1  0.10642710  0.81180054  0.01551589  1
  H  H131  1  0.60642710  0.68819946  0.98448411  1
  H  H132  1  0.51551589  0.10642710  0.68819946  1
  H  H133  1  0.48448411  0.60642710  0.81180054  1
  H  H134  1  0.98448411  0.89357290  0.18819946  1
  H  H135  1  0.01551589  0.39357290  0.31180054  1
  H  H136  1  0.68819946  0.51551589  0.10642710  1
  H  H137  1  0.81180054  0.48448411  0.60642710  1
  H  H138  1  0.18819946  0.98448411  0.89357290  1
  H  H139  1  0.31180054  0.01551589  0.39357290  1
  H  H140  1  0.10642710  0.68819946  0.51551589  1
  H  H141  1  0.60642710  0.81180054  0.48448411  1
  H  H142  1  0.89357290  0.18819946  0.98448411  1
  H  H143  1  0.39357290  0.31180054  0.01551589  1
  C  C0  1  0.48235222  0.76331061  0.25177991  1
  C  C1  1  0.51764778  0.26331061  0.24822009  1
  C  C2  1  0.01764778  0.23668939  0.75177991  1
  C  C3  1  0.98235222  0.73668939  0.74822009  1
  C  C4  1  0.25177991  0.48235222  0.76331061  1
  C  C5  1  0.24822009  0.51764778  0.26331061  1
  C  C6  1  0.75177991  0.01764778  0.23668939  1
  C  C7  1  0.74822009  0.98235222  0.73668939  1
  C  C8  1  0.76331061  0.25177991  0.48235222  1
  C  C9  1  0.26331061  0.24822009  0.51764778  1
  C  C10  1  0.23668939  0.75177991  0.01764778  1
  C  C11  1  0.73668939  0.74822009  0.98235222  1
  C  C12  1  0.51764778  0.23668939  0.74822009  1
  C  C13  1  0.48235222  0.73668939  0.75177991  1
  C  C14  1  0.98235222  0.76331061  0.24822009  1
  C  C15  1  0.01764778  0.26331061  0.25177991  1
  C  C16  1  0.74822009  0.51764778  0.23668939  1
  C  C17  1  0.75177991  0.48235222  0.73668939  1
  C  C18  1  0.24822009  0.98235222  0.76331061  1
  C  C19  1  0.25177991  0.01764778  0.26331061  1
  C  C20  1  0.23668939  0.74822009  0.51764778  1
  C  C21  1  0.73668939  0.75177991  0.48235222  1
  C  C22  1  0.76331061  0.24822009  0.98235222  1
  C  C23  1  0.26331061  0.25177991  0.01764778  1
  N  N0  1  0.47056328  0.71837097  0.33247422  1
  N  N1  1  0.52943672  0.21837097  0.16752578  1
  N  N2  1  0.02943672  0.28162903  0.83247422  1
  N  N3  1  0.97056328  0.78162903  0.66752578  1
  N  N4  1  0.33247422  0.47056328  0.71837097  1
  N  N5  1  0.16752578  0.52943672  0.21837097  1
  N  N6  1  0.83247422  0.02943672  0.28162903  1
  N  N7  1  0.66752578  0.97056328  0.78162903  1
  N  N8  1  0.71837097  0.33247422  0.47056328  1
  N  N9  1  0.21837097  0.16752578  0.52943672  1
  N  N10  1  0.28162903  0.83247422  0.02943672  1
  N  N11  1  0.78162903  0.66752578  0.97056328  1
  N  N12  1  0.52943672  0.28162903  0.66752578  1
  N  N13  1  0.47056328  0.78162903  0.83247422  1
  N  N14  1  0.97056328  0.71837097  0.16752578  1
  N  N15  1  0.02943672  0.21837097  0.33247422  1
  N  N16  1  0.66752578  0.52943672  0.28162903  1
  N  N17  1  0.83247422  0.47056328  0.78162903  1
  N  N18  1  0.16752578  0.97056328  0.71837097  1
  N  N19  1  0.33247422  0.02943672  0.21837097  1
  N  N20  1  0.28162903  0.66752578  0.52943672  1
  N  N21  1  0.78162903  0.83247422  0.47056328  1
  N  N22  1  0.71837097  0.16752578  0.97056328  1
  N  N23  1  0.21837097  0.33247422  0.02943672  1
  N  N24  1  0.48430021  0.85673557  0.25103200  1
  N  N25  1  0.51569979  0.35673557  0.24896800  1
  N  N26  1  0.01569979  0.14326443  0.75103200  1
  N  N27  1  0.98430021  0.64326443  0.74896800  1
  N  N28  1  0.25103200  0.48430021  0.85673557  1
  N  N29  1  0.24896800  0.51569979  0.35673557  1
  N  N30  1  0.75103200  0.01569979  0.14326443  1
  N  N31  1  0.74896800  0.98430021  0.64326443  1
  N  N32  1  0.85673557  0.25103200  0.48430021  1
  N  N33  1  0.35673557  0.24896800  0.51569979  1
  N  N34  1  0.14326443  0.75103200  0.01569979  1
  N  N35  1  0.64326443  0.74896800  0.98430021  1
  N  N36  1  0.51569979  0.14326443  0.74896800  1
  N  N37  1  0.48430021  0.64326443  0.75103200  1
  N  N38  1  0.98430021  0.85673557  0.24896800  1
  N  N39  1  0.01569979  0.35673557  0.25103200  1
  N  N40  1  0.74896800  0.51569979  0.14326443  1
  N  N41  1  0.75103200  0.48430021  0.64326443  1
  N  N42  1  0.24896800  0.98430021  0.85673557  1
  N  N43  1  0.25103200  0.01569979  0.35673557  1
  N  N44  1  0.14326443  0.74896800  0.51569979  1
  N  N45  1  0.64326443  0.75103200  0.48430021  1
  N  N46  1  0.85673557  0.24896800  0.98430021  1
  N  N47  1  0.35673557  0.25103200  0.01569979  1
  N  N48  1  0.49077301  0.71739831  0.17101292  1
  N  N49  1  0.50922699  0.21739831  0.32898708  1
  N  N50  1  0.00922699  0.28260169  0.67101292  1
  N  N51  1  0.99077301  0.78260169  0.82898708  1
  N  N52  1  0.17101292  0.49077301  0.71739831  1
  N  N53  1  0.32898708  0.50922699  0.21739831  1
  N  N54  1  0.67101292  0.00922699  0.28260169  1
  N  N55  1  0.82898708  0.99077301  0.78260169  1
  N  N56  1  0.71739831  0.17101292  0.49077301  1
  N  N57  1  0.21739831  0.32898708  0.50922699  1
  N  N58  1  0.28260169  0.67101292  0.00922699  1
  N  N59  1  0.78260169  0.82898708  0.99077301  1
  N  N60  1  0.50922699  0.28260169  0.82898708  1
  N  N61  1  0.49077301  0.78260169  0.67101292  1
  N  N62  1  0.99077301  0.71739831  0.32898708  1
  N  N63  1  0.00922699  0.21739831  0.17101292  1
  N  N64  1  0.82898708  0.50922699  0.28260169  1
  N  N65  1  0.67101292  0.49077301  0.78260169  1
  N  N66  1  0.32898708  0.99077301  0.71739831  1
  N  N67  1  0.17101292  0.00922699  0.21739831  1
  N  N68  1  0.28260169  0.82898708  0.50922699  1
  N  N69  1  0.78260169  0.67101292  0.49077301  1
  N  N70  1  0.71739831  0.32898708  0.99077301  1
  N  N71  1  0.21739831  0.17101292  0.00922699  1
  F  F0  1  0.02017922  0.36654379  0.02714531  1
  F  F1  1  0.97982078  0.86654379  0.47285469  1
  F  F2  1  0.47982078  0.63345621  0.52714531  1
  F  F3  1  0.52017922  0.13345621  0.97285469  1
  F  F4  1  0.02714531  0.02017922  0.36654379  1
  F  F5  1  0.47285469  0.97982078  0.86654379  1
  F  F6  1  0.52714531  0.47982078  0.63345621  1
  F  F7  1  0.97285469  0.52017922  0.13345621  1
  F  F8  1  0.36654379  0.02714531  0.02017922  1
  F  F9  1  0.86654379  0.47285469  0.97982078  1
  F  F10  1  0.63345621  0.52714531  0.47982078  1
  F  F11  1  0.13345621  0.97285469  0.52017922  1
  F  F12  1  0.97982078  0.63345621  0.97285469  1
  F  F13  1  0.02017922  0.13345621  0.52714531  1
  F  F14  1  0.52017922  0.36654379  0.47285469  1
  F  F15  1  0.47982078  0.86654379  0.02714531  1
  F  F16  1  0.97285469  0.97982078  0.63345621  1
  F  F17  1  0.52714531  0.02017922  0.13345621  1
  F  F18  1  0.47285469  0.52017922  0.36654379  1
  F  F19  1  0.02714531  0.47982078  0.86654379  1
  F  F20  1  0.63345621  0.97285469  0.97982078  1
  F  F21  1  0.13345621  0.52714531  0.02017922  1
  F  F22  1  0.36654379  0.47285469  0.52017922  1
  F  F23  1  0.86654379  0.02714531  0.47982078  1
  F  F24  1  0.47486539  0.02675871  0.36744919  1
  F  F25  1  0.52513461  0.52675871  0.13255081  1
  F  F26  1  0.02513461  0.97324129  0.86744919  1
  F  F27  1  0.97486539  0.47324129  0.63255081  1
  F  F28  1  0.36744919  0.47486539  0.02675871  1
  F  F29  1  0.13255081  0.52513461  0.52675871  1
  F  F30  1  0.86744919  0.02513461  0.97324129  1
  F  F31  1  0.63255081  0.97486539  0.47324129  1
  F  F32  1  0.02675871  0.36744919  0.47486539  1
  F  F33  1  0.52675871  0.13255081  0.52513461  1
  F  F34  1  0.97324129  0.86744919  0.02513461  1
  F  F35  1  0.47324129  0.63255081  0.97486539  1
  F  F36  1  0.52513461  0.97324129  0.63255081  1
  F  F37  1  0.47486539  0.47324129  0.86744919  1
  F  F38  1  0.97486539  0.02675871  0.13255081  1
  F  F39  1  0.02513461  0.52675871  0.36744919  1
  F  F40  1  0.63255081  0.52513461  0.97324129  1
  F  F41  1  0.86744919  0.47486539  0.47324129  1
  F  F42  1  0.13255081  0.97486539  0.02675871  1
  F  F43  1  0.36744919  0.02513461  0.52675871  1
  F  F44  1  0.97324129  0.63255081  0.52513461  1
  F  F45  1  0.47324129  0.86744919  0.47486539  1
  F  F46  1  0.02675871  0.13255081  0.97486539  1
  F  F47  1  0.52675871  0.36744919  0.02513461  1
loop_
_geom_bond_atom_site_label_1
_geom_bond_atom_site_label_2
_geom_bond_distance
_geom_bond_site_symmetry_2
H0 N0 1.019583 1_555
H1 N1 1.019583 1_555
H2 N2 1.019583 1_555
H3 N3 1.019583 1_555
H4 N4 1.019583 1_555
H5 N5 1.019583 1_555
H6 N6 1.019583 1_555
H7 N7 1.019583 1_555
H8 N8 1.019583 1_555
H9 N9 1.019583 1_555
H10 N10 1.019583 1_555
H11 N11 1.019583 1_555
H12 N12 1.019583 1_555
H13 N13 1.019583 1_555
H14 N14 1.019583 1_555
H15 N15 1.019583 1_555
H16 N16 1.019583 1_555
H17 N17 1.019583 1_555
H18 N18 1.019583 1_555
H19 N19 1.019583 1_555
H20 N20 1.019583 1_555
H21 N21 1.019583 1_555
H22 N22 1.019583 1_555
H23 N23 1.019583 1_555
H24 N0 1.024787 1_555
H25 N1 1.024787 1_555
H26 N2 1.024787 1_555
H27 N3 1.024787 1_555
H28 N4 1.024787 1_555
H29 N5 1.024787 1_555
H30 N6 1.024787 1_555
H31 N7 1.024787 1_555
H32 N8 1.024787 1_555
H33 N9 1.024787 1_555
H34 N10 1.024787 1_555
H35 N11 1.024787 1_555
H36 N12 1.024787 1_555
H37 N13 1.024787 1_555
H38 N14 1.024787 1_555
H39 N15 1.024787 1_555
H40 N16 1.024787 1_555
H41 N17 1.024787 1_555
H42 N18 1.024787 1_555
H43 N19 1.024787 1_555
H44 N20 1.024787 1_555
H45 N21 1.024787 1_555
H46 N22 1.024787 1_555
H47 N23 1.024787 1_555
H48 N48 1.024089 1_555
H49 N49 1.024089 1_555
H50 N50 1.024089 1_555
H51 N51 1.024089 1_555
H52 N52 1.024089 1_555
H53 N53 1.024089 1_555
H54 N54 1.024089 1_555
H55 N55 1.024089 1_555
H56 N56 1.024089 1_555
H57 N57 1.024089 1_555
H58 N58 1.024089 1_555
H59 N59 1.024089 1_555
H60 N60 1.024089 1_555
H61 N61 1.024089 1_555
H62 N62 1.024089 1_555
H63 N63 1.024089 1_555
H64 N64 1.024089 1_555
H65 N65 1.024089 1_555
H66 N66 1.024089 1_555
H67 N67 1.024089 1_555
H68 N68 1.024089 1_555
H69 N69 1.024089 1_555
H70 N70 1.024089 1_555
H71 N71 1.024089 1_555
H72 N48 1.016725 1_555
H73 N49 1.016725 1_555
H74 N50 1.016725 1_655
H75 N51 1.016725 1_455
H76 N52 1.016725 1_555
H77 N53 1.016725 1_555
H78 N54 1.016725 1_565
H79 N55 1.016725 1_545
H80 N56 1.016725 1_555
H81 N57 1.016725 1_555
H82 N58 1.016725 1_556
H83 N59 1.016725 1_554
H84 N60 1.016725 1_555
H85 N61 1.016725 1_555
H86 N62 1.016725 1_455
H87 N63 1.016725 1_655
H88 N64 1.016725 1_555
H89 N65 1.016725 1_555
H90 N66 1.016725 1_545
H91 N67 1.016725 1_565
H92 N68 1.016725 1_555
H93 N69 1.016725 1_555
H94 N70 1.016725 1_554
H95 N71 1.016725 1_556
H96 N24 1.019651 1_555
H97 N25 1.019651 1_555
H98 N26 1.019651 1_555
H99 N27 1.019651 1_555
H100 N28 1.019651 1_555
H101 N29 1.019651 1_555
H102 N30 1.019651 1_555
H103 N31 1.019651 1_555
H104 N32 1.019651 1_555
H105 N33 1.019651 1_555
H106 N34 1.019651 1_555
H107 N35 1.019651 1_555
H108 N36 1.019651 1_555
H109 N37 1.019651 1_555
H110 N38 1.019651 1_555
H111 N39 1.019651 1_555
H112 N40 1.019651 1_555
H113 N41 1.019651 1_555
H114 N42 1.019651 1_555
H115 N43 1.019651 1_555
H116 N44 1.019651 1_555
H117 N45 1.019651 1_555
H118 N46 1.019651 1_555
H119 N47 1.019651 1_555
H120 N24 1.018736 1_555
H121 N25 1.018736 1_555
H122 N26 1.018736 1_555
H123 N27 1.018736 1_555
H124 N28 1.018736 1_555
H125 N29 1.018736 1_555
H126 N30 1.018736 1_555
H127 N31 1.018736 1_555
H128 N32 1.018736 1_555
H129 N33 1.018736 1_555
H130 N34 1.018736 1_555
H131 N35 1.018736 1_555
H132 N36 1.018736 1_555
H133 N37 1.018736 1_555
H134 N38 1.018736 1_555
H135 N39 1.018736 1_555
H136 N40 1.018736 1_555
H137 N41 1.018736 1_555
H138 N42 1.018736 1_555
H139 N43 1.018736 1_555
H140 N44 1.018736 1_555
H141 N45 1.018736 1_555
H142 N46 1.018736 1_555
H143 N47 1.018736 1_555
C0 N0 1.334859 1_555
C0 N48 1.337323 1_555
C0 N24 1.339659 1_555
C1 N1 1.334859 1_555
C1 N49 1.337323 1_555
C1 N25 1.339659 1_555
C2 N2 1.334859 1_555
C2 N50 1.337323 1_555
C2 N26 1.339659 1_555
C3 N3 1.334859 1_555
C3 N51 1.337323 1_555
C3 N27 1.339659 1_555
C4 N4 1.334859 1_555
C4 N52 1.337323 1_555
C4 N28 1.339659 1_555
C5 N5 1.334859 1_555
C5 N53 1.337323 1_555
C5 N29 1.339659 1_555
C6 N6 1.334859 1_555
C6 N54 1.337323 1_555
C6 N30 1.339659 1_555
C7 N7 1.334859 1_555
C7 N55 1.337323 1_555
C7 N31 1.339659 1_555
C8 N8 1.334859 1_555
C8 N56 1.337323 1_555
C8 N32 1.339659 1_555
C9 N9 1.334859 1_555
C9 N57 1.337323 1_555
C9 N33 1.339659 1_555
C10 N10 1.334859 1_555
C10 N58 1.337323 1_555
C10 N34 1.339659 1_555
C11 N11 1.334859 1_555
C11 N59 1.337323 1_555
C11 N35 1.339659 1_555
C12 N12 1.334859 1_555
C12 N60 1.337323 1_555
C12 N36 1.339659 1_555
C13 N13 1.334859 1_555
C13 N61 1.337323 1_555
C13 N37 1.339659 1_555
C14 N14 1.334859 1_555
C14 N62 1.337323 1_555
C14 N38 1.339659 1_555
C15 N15 1.334859 1_555
C15 N63 1.337323 1_555
C15 N39 1.339659 1_555
C16 N16 1.334859 1_555
C16 N64 1.337323 1_555
C16 N40 1.339659 1_555
C17 N17 1.334859 1_555
C17 N65 1.337323 1_555
C17 N41 1.339659 1_555
C18 N18 1.334859 1_555
C18 N66 1.337323 1_555
C18 N42 1.339659 1_555
C19 N19 1.334859 1_555
C19 N67 1.337323 1_555
C19 N43 1.339659 1_555
C20 N20 1.334859 1_555
C20 N68 1.337323 1_555
C20 N44 1.339659 1_555
C21 N21 1.334859 1_555
C21 N69 1.337323 1_555
C21 N45 1.339659 1_555
C22 N22 1.334859 1_555
C22 N70 1.337323 1_555
C22 N46 1.339659 1_555
C23 N23 1.334859 1_555
C23 N71 1.337323 1_555
C23 N47 1.339659 1_555
F0 Fe1 1.973697 1_555
F1 Fe0 1.973697 1_665
F2 Fe3 1.973697 1_555
F3 Fe2 1.973697 1_556
F4 Fe0 1.973697 1_555
F5 Fe2 1.973697 1_566
F6 Fe3 1.973697 1_555
F7 Fe1 1.973697 1_655
F8 Fe2 1.973697 1_555
F9 Fe1 1.973697 1_656
F10 Fe3 1.973697 1_555
F11 Fe0 1.973697 1_565
F12 Fe1 1.973697 1_656
F13 Fe0 1.973697 1_555
F14 Fe3 1.973697 1_555
F15 Fe2 1.973697 1_565
F16 Fe0 1.973697 1_665
F17 Fe2 1.973697 1_555
F18 Fe3 1.973697 1_555
F19 Fe1 1.973697 1_556
F20 Fe2 1.973697 1_566
F21 Fe1 1.973697 1_555
F22 Fe3 1.973697 1_555
F23 Fe0 1.973697 1_655
F24 Fe5 1.971763 1_555
F25 Fe4 1.971763 1_555
F26 Fe7 1.971763 1_566
F27 Fe6 1.971763 1_655
F28 Fe4 1.971763 1_555
F29 Fe6 1.971763 1_555
F30 Fe7 1.971763 1_656
F31 Fe5 1.971763 1_565
F32 Fe6 1.971763 1_555
F33 Fe5 1.971763 1_555
F34 Fe7 1.971763 1_665
F35 Fe4 1.971763 1_556
F36 Fe5 1.971763 1_565
F37 Fe4 1.971763 1_556
F38 Fe7 1.971763 1_655
F39 Fe6 1.971763 1_555
F40 Fe4 1.971763 1_556
F41 Fe6 1.971763 1_655
F42 Fe7 1.971763 1_565
F43 Fe5 1.971763 1_555
F44 Fe6 1.971763 1_655
F45 Fe5 1.971763 1_565
F46 Fe7 1.971763 1_556
F47 Fe4 1.971763 1_555
