# generated using pymatgen
data_Na5Mg2In2P3(SO8)3
_symmetry_space_group_name_H-M   'P 1'
_cell_length_a   9.02554058
_cell_length_b   8.95038517
_cell_length_c   22.59671366
_cell_angle_alpha   90.58338132
_cell_angle_beta   90.23510539
_cell_angle_gamma   120.20833706
_symmetry_Int_Tables_number   1
_chemical_formula_structural   Na5Mg2In2P3(SO8)3
_chemical_formula_sum   'Na15 Mg6 In6 P9 S9 O72'
_cell_volume   1577.34985261
_cell_formula_units_Z   3
loop_
 _symmetry_equiv_pos_site_id
 _symmetry_equiv_pos_as_xyz
  1  'x, y, z'
loop_
 _atom_site_type_symbol
 _atom_site_label
 _atom_site_symmetry_multiplicity
 _atom_site_fract_x
 _atom_site_fract_y
 _atom_site_fract_z
 _atom_site_occupancy
  Na  Na0  1  0.63704942  0.01233736  0.25396167  1
  Na  Na1  1  0.00370785  0.63402121  0.24296098  1
  Na  Na2  1  0.63032256  0.63246727  0.74407892  1
  Na  Na3  1  0.99715838  0.35293082  0.74576301  1
  Na  Na4  1  0.30324242  0.34469143  0.58660018  1
  Na  Na5  1  0.67115226  0.96661567  0.57901953  1
  Na  Na6  1  0.29594817  0.95799743  0.08069903  1
  Na  Na7  1  0.69051994  0.02672004  0.91086379  1
  Na  Na8  1  0.96176126  0.29060889  0.41441846  1
  Na  Na9  1  0.98031112  0.97062616  0.49613395  1
  Na  Na10  1  0.00843279  0.98673673  0.99641764  1
  Na  Na11  1  0.63256056  0.30964104  0.82989824  1
  Na  Na12  1  0.63897169  0.31705087  0.33119021  1
  Na  Na13  1  0.31348750  0.63717941  0.16292062  1
  Na  Na14  1  0.32826878  0.67060914  0.66350711  1
  Mg  Mg0  1  0.00477095  0.00415226  0.34901018  1
  Mg  Mg1  1  0.02192470  0.01096628  0.85084687  1
  Mg  Mg2  1  0.66453889  0.32948755  0.68359018  1
  Mg  Mg3  1  0.66917297  0.33597636  0.18371711  1
  Mg  Mg4  1  0.31810393  0.66355785  0.01771290  1
  Mg  Mg5  1  0.33753102  0.67009459  0.51686646  1
  In  In0  1  0.99625621  0.00054471  0.65287674  1
  In  In1  1  0.00431916  0.00236601  0.15260950  1
  In  In2  1  0.66934460  0.34293652  0.98574480  1
  In  In3  1  0.66910996  0.33361055  0.48565101  1
  In  In4  1  0.33535767  0.67020980  0.31918022  1
  In  In5  1  0.33576249  0.67482748  0.81931287  1
  P  P0  1  0.30062609  0.00372924  0.25053193  1
  P  P1  1  0.99792806  0.29686583  0.25250146  1
  P  P2  1  0.30172861  0.29949000  0.75051455  1
  P  P3  1  0.70220207  0.00134906  0.75287722  1
  P  P4  1  0.97013802  0.33872488  0.58479224  1
  P  P5  1  0.66546699  0.62908315  0.58535975  1
  P  P6  1  0.96585238  0.63202802  0.08661245  1
  P  P7  1  0.33325352  0.96744009  0.92160719  1
  P  P8  1  0.63680100  0.96653314  0.41859043  1
  S  S0  1  0.70474776  0.70327867  0.25105547  1
  S  S1  1  0.99794597  0.70357357  0.75099677  1
  S  S2  1  0.36888102  0.03514041  0.58398487  1
  S  S3  1  0.66630779  0.03301117  0.08343138  1
  S  S4  1  0.37234948  0.33792270  0.08425418  1
  S  S5  1  0.63082494  0.66875066  0.91711687  1
  S  S6  1  0.03641448  0.36687249  0.91639009  1
  S  S7  1  0.33233821  0.36811703  0.41819857  1
  S  S8  1  0.03754901  0.66996816  0.41724302  1
  O  O0  1  0.20284413  0.01842410  0.30272789  1
  O  O1  1  0.81517695  0.78982116  0.30279585  1
  O  O2  1  0.97227515  0.18746190  0.30741392  1
  O  O3  1  0.20608466  0.18420411  0.80168534  1
  O  O4  1  0.97866193  0.79254816  0.80248246  1
  O  O5  1  0.81484374  0.02190190  0.80721957  1
  O  O6  1  0.77367281  0.96209229  0.69507204  1
  O  O7  1  0.19930259  0.22987265  0.69045115  1
  O  O8  1  0.02934786  0.80414696  0.69593055  1
  O  O9  1  0.77504821  0.80969669  0.19682573  1
  O  O10  1  0.02351320  0.21567741  0.19574918  1
  O  O11  1  0.19435631  0.96197035  0.19135951  1
  O  O12  1  0.87948250  0.35307867  0.64002751  1
  O  O13  1  0.48096377  0.12146583  0.63573884  1
  O  O14  1  0.64094375  0.51967533  0.64033218  1
  O  O15  1  0.87786742  0.53109928  0.14244406  1
  O  O16  1  0.64411544  0.12256849  0.13537321  1
  O  O17  1  0.47742395  0.35631528  0.13663128  1
  O  O18  1  0.44199532  0.29957916  0.02989967  1
  O  O19  1  0.85890041  0.55071037  0.02965206  1
  O  O20  1  0.69067668  0.13338779  0.02823137  1
  O  O21  1  0.43880366  0.14144060  0.52980542  1
  O  O22  1  0.68732979  0.54594149  0.52853002  1
  O  O23  1  0.85739802  0.29846287  0.52759840  1
  O  O24  1  0.53577076  0.68599792  0.96701900  1
  O  O25  1  0.14588465  0.46030470  0.96701685  1
  O  O26  1  0.31810935  0.86396689  0.97714586  1
  O  O27  1  0.54219404  0.86174033  0.47302539  1
  O  O28  1  0.31211368  0.45438286  0.47129545  1
  O  O29  1  0.14622664  0.68585417  0.46820581  1
  O  O30  1  0.10507272  0.63523898  0.36111061  1
  O  O31  1  0.53576472  0.88950790  0.35934120  1
  O  O32  1  0.35704049  0.47193684  0.36422147  1
  O  O33  1  0.10675807  0.46132664  0.85987335  1
  O  O34  1  0.37389595  0.89010758  0.86553910  1
  O  O35  1  0.53364749  0.63905240  0.85981665  1
  O  O36  1  0.02164938  0.82536682  0.41192514  1
  O  O37  1  0.81818189  0.98899074  0.41439237  1
  O  O38  1  0.17363962  0.19721774  0.41225512  1
  O  O39  1  0.01239479  0.19007386  0.91259788  1
  O  O40  1  0.17470679  0.98470729  0.91337223  1
  O  O41  1  0.79971673  0.83069609  0.91328305  1
  O  O42  1  0.99042389  0.17241124  0.58693879  1
  O  O43  1  0.19662718  0.01687050  0.59033356  1
  O  O44  1  0.82627051  0.81521129  0.58827572  1
  O  O45  1  0.99322246  0.82165853  0.08749039  1
  O  O46  1  0.81974274  0.01392883  0.08885600  1
  O  O47  1  0.19688905  0.17902387  0.08783669  1
  O  O48  1  0.69408349  0.16861212  0.74579402  1
  O  O49  1  0.48516711  0.33159610  0.74548058  1
  O  O50  1  0.83923252  0.53047782  0.74518232  1
  O  O51  1  0.68977162  0.53158342  0.24375218  1
  O  O52  1  0.83628594  0.31708128  0.24589631  1
  O  O53  1  0.48235529  0.16161769  0.24469099  1
  O  O54  1  0.65480579  0.51619151  0.92101006  1
  O  O55  1  0.85974394  0.34478804  0.92101851  1
  O  O56  1  0.50519051  0.15050759  0.92427376  1
  O  O57  1  0.66058225  0.15503130  0.42043182  1
  O  O58  1  0.48522566  0.34680732  0.42228887  1
  O  O59  1  0.86342532  0.51022423  0.42112369  1
  O  O60  1  0.35747067  0.49385198  0.07711293  1
  O  O61  1  0.14702166  0.65288785  0.08129282  1
  O  O62  1  0.50813251  0.86062307  0.07800088  1
  O  O63  1  0.35546913  0.86409339  0.57664927  1
  O  O64  1  0.50412193  0.65069647  0.57956627  1
  O  O65  1  0.15054731  0.49722323  0.57795576  1
  O  O66  1  0.32208735  0.83804532  0.25456649  1
  O  O67  1  0.53133747  0.68448901  0.25644064  1
  O  O68  1  0.15827363  0.48385206  0.25656309  1
  O  O69  1  0.31184914  0.48215442  0.75585711  1
  O  O70  1  0.14518083  0.67171204  0.75623490  1
  O  O71  1  0.52069143  0.83532716  0.75539420  1
loop_
_geom_bond_atom_site_label_1
_geom_bond_atom_site_label_2
_geom_bond_distance
_geom_bond_site_symmetry_2
Na0 O53 2.378861 1_555
Na0 O52 2.404922 1_555
Na0 O66 2.460280 1_545
Na0 O67 2.590453 1_545
Na0 O31 2.602769 1_545
Na0 O16 2.854862 1_555
Na0 O2 2.868651 1_555
Na0 O9 2.957445 1_545
Na1 O68 2.395592 1_555
Na1 O52 2.454786 1_455
Na1 O15 2.486161 1_455
Na1 O51 2.501178 1_455
Na1 O66 2.522766 1_555
Na1 O30 2.816778 1_555
Na1 O11 2.817783 1_555
Na2 O49 2.328313 1_555
Na2 O50 2.474108 1_555
Na2 O71 2.478229 1_555
Na2 O69 2.503022 1_555
Na2 O14 2.564232 1_555
Na2 O35 2.769820 1_555
Na2 O6 2.800276 1_555
Na3 O48 2.379717 1_555
Na3 O70 2.475784 1_655
Na3 O69 2.477983 1_655
Na3 O12 2.611000 1_555
Na3 O50 2.614711 1_555
Na3 O33 2.744250 1_655
Na3 O7 2.848993 1_655
Na3 O5 2.934471 1_555
Na4 O65 2.387013 1_555
Na4 O64 2.414140 1_555
Na4 O42 2.443065 1_455
Na4 O7 2.557374 1_555
Na4 O43 2.589729 1_555
Na4 O28 2.780949 1_555
Na4 O14 2.888649 1_555
Na4 O21 2.942543 1_555
Na5 O44 2.398481 1_555
Na5 O64 2.445296 1_555
Na5 O63 2.515891 1_555
Na5 O42 2.525137 1_565
Na5 O27 2.608512 1_555
Na5 O6 2.784741 1_555
Na5 O23 2.838975 1_565
Na5 O13 2.980954 1_565
Na6 O61 2.360420 1_555
Na6 O45 2.372772 1_455
Na6 O62 2.471894 1_555
Na6 O26 2.521283 1_554
Na6 O47 2.552143 1_565
Na6 O11 2.672946 1_555
Na6 O18 2.903578 1_565
Na6 O16 2.973880 1_565
Na7 O41 2.407093 1_545
Na7 O56 2.445307 1_555
Na7 O55 2.469464 1_555
Na7 O39 2.510475 1_655
Na7 O5 2.610402 1_555
Na7 O34 2.672974 1_545
Na7 O20 2.809321 1_556
Na7 O24 2.944171 1_545
Na8 O37 2.333824 1_545
Na8 O57 2.359492 1_555
Na8 O38 2.442647 1_655
Na8 O59 2.534761 1_555
Na8 O2 2.598535 1_555
Na8 O23 2.741478 1_555
Na9 O37 2.409577 1_555
Na9 O36 2.427740 1_655
Na9 O44 2.517866 1_555
Na9 O42 2.690267 1_565
Na9 O38 2.700857 1_665
Na9 O43 2.765643 1_665
Na10 O40 2.413249 1_555
Na10 O45 2.509413 1_456
Na10 O41 2.509630 1_455
Na10 O39 2.627960 1_565
Na10 O47 2.659984 1_566
Na10 O46 2.785422 1_466
Na11 O49 2.386836 1_555
Na11 O48 2.485677 1_555
Na11 O56 2.516423 1_555
Na11 O54 2.691169 1_555
Na11 O50 2.728927 1_555
Na11 O55 2.801062 1_555
Na12 O53 2.386848 1_555
Na12 O57 2.558990 1_555
Na12 O58 2.572587 1_555
Na12 O52 2.629431 1_555
Na12 O51 2.645712 1_555
Na12 O59 2.755571 1_555
Na13 O61 2.423730 1_555
Na13 O60 2.455806 1_555
Na13 O68 2.544048 1_555
Na13 O66 2.703564 1_555
Na13 O62 2.708951 1_555
Na13 O67 2.760611 1_555
Na14 O65 2.475268 1_555
Na14 O64 2.539912 1_555
Na14 O63 2.560626 1_555
Na14 O71 2.613900 1_555
Na14 O69 2.654147 1_555
Na14 O70 2.676868 1_555
Mg0 O0 2.023431 1_555
Mg0 O2 2.043219 1_455
Mg0 O1 2.083266 1_445
Mg0 O38 2.152430 1_555
Mg0 O37 2.198137 1_445
Mg0 O36 2.212429 1_545
Mg1 O3 1.964121 1_555
Mg1 O40 2.066353 1_545
Mg1 O4 2.086488 1_445
Mg1 O39 2.149073 1_555
Mg1 O5 2.155367 1_455
Mg1 O41 2.330098 1_445
Mg2 O13 2.054500 1_555
Mg2 O14 2.072552 1_555
Mg2 O12 2.093993 1_555
Mg2 O48 2.131816 1_555
Mg2 O49 2.150797 1_555
Mg2 O50 2.176235 1_555
Mg3 O15 2.050620 1_555
Mg3 O16 2.100884 1_555
Mg3 O17 2.113333 1_555
Mg3 O52 2.126454 1_555
Mg3 O51 2.135907 1_555
Mg3 O53 2.142838 1_555
Mg4 O26 2.022671 1_554
Mg4 O25 2.033546 1_554
Mg4 O61 2.080890 1_555
Mg4 O62 2.190035 1_555
Mg4 O60 2.194472 1_555
Mg4 O24 2.199577 1_554
Mg5 O27 2.048657 1_555
Mg5 O28 2.086268 1_555
Mg5 O29 2.107806 1_555
Mg5 O63 2.129235 1_555
Mg5 O64 2.132709 1_555
Mg5 O65 2.140712 1_555
In0 O6 2.095241 1_545
In0 O7 2.111615 1_655
In0 O44 2.146559 1_545
In0 O8 2.164816 1_645
In0 O42 2.171775 1_555
In0 O43 2.246878 1_655
In1 O10 2.062348 1_555
In1 O11 2.111272 1_545
In1 O45 2.139763 1_445
In1 O9 2.171456 1_445
In1 O47 2.228392 1_555
In1 O46 2.240124 1_455
In2 O19 2.028938 1_556
In2 O56 2.111274 1_555
In2 O18 2.140092 1_556
In2 O54 2.193405 1_555
In2 O20 2.207932 1_556
In2 O55 2.255002 1_555
In3 O22 2.055300 1_555
In3 O23 2.101479 1_555
In3 O57 2.135385 1_555
In3 O21 2.174590 1_555
In3 O59 2.231330 1_555
In3 O58 2.235978 1_555
In4 O31 2.079782 1_555
In4 O68 2.142291 1_555
In4 O32 2.146644 1_555
In4 O66 2.151041 1_555
In4 O30 2.164069 1_555
In4 O67 2.225253 1_555
In5 O34 2.052071 1_555
In5 O71 2.141233 1_555
In5 O69 2.156174 1_555
In5 O35 2.167514 1_555
In5 O33 2.200085 1_555
In5 O70 2.218551 1_555
O0 P0 1.519696 1_555
O1 S0 1.468136 1_555
O2 P1 1.533329 1_555
O3 P2 1.510980 1_555
O4 S1 1.462965 1_555
O5 P3 1.540215 1_555
O6 P3 1.572064 1_565
O7 P2 1.574098 1_555
O8 S1 1.485910 1_455
O9 S0 1.494473 1_555
O10 P1 1.542164 1_455
O11 P0 1.570365 1_565
O12 P4 1.534509 1_555
O13 S2 1.474228 1_555
O14 P5 1.536190 1_555
O15 P6 1.532277 1_555
O16 S3 1.484782 1_555
O17 S4 1.468668 1_555
O18 S4 1.495426 1_555
O19 P6 1.543354 1_555
O20 S3 1.495860 1_555
O21 S2 1.492713 1_555
O22 P5 1.540181 1_555
O23 P4 1.564053 1_555
O24 S5 1.472769 1_555
O25 S6 1.457414 1_555
O26 P7 1.532673 1_555
O27 P8 1.532335 1_555
O28 S7 1.481146 1_555
O29 S8 1.468178 1_555
O30 S8 1.505270 1_555
O31 P8 1.561377 1_555
O32 S7 1.489190 1_555
O33 S6 1.495754 1_555
O34 P7 1.568522 1_555
O35 S5 1.505154 1_555
O36 S8 1.474343 1_555
O37 P8 1.549163 1_555
O38 S7 1.482863 1_555
O39 S6 1.486693 1_555
O40 P7 1.525494 1_555
O41 S5 1.487394 1_555
O42 P4 1.589772 1_555
O43 S2 1.486891 1_555
O44 P5 1.565237 1_555
O45 P6 1.587290 1_555
O46 S3 1.482903 1_555
O47 S4 1.508004 1_555
O48 P3 1.545113 1_555
O49 P2 1.536257 1_555
O50 S1 1.493502 1_555
O51 S0 1.480777 1_555
O52 P1 1.564551 1_555
O53 P0 1.542023 1_555
O54 S5 1.489552 1_555
O55 S6 1.509043 1_655
O56 P7 1.592192 1_545
O57 P8 1.590065 1_545
O58 S7 1.487675 1_555
O59 S8 1.504763 1_655
O60 S4 1.478125 1_555
O61 P6 1.554955 1_455
O62 S3 1.487257 1_565
O63 S2 1.481242 1_565
O64 P5 1.567668 1_555
O65 P4 1.539399 1_455
O66 P0 1.592666 1_565
O67 S0 1.493254 1_555
O68 P1 1.569160 1_455
O69 P2 1.594203 1_555
O70 S1 1.497324 1_455
O71 P3 1.564589 1_565
