# generated using pymatgen
data_NaZr2In2P3(SO8)3
_symmetry_space_group_name_H-M   'P 1'
_cell_length_a   8.91146054
_cell_length_b   8.92989919
_cell_length_c   23.38442779
_cell_angle_alpha   90.11110154
_cell_angle_beta   89.81967244
_cell_angle_gamma   120.03751683
_symmetry_Int_Tables_number   1
_chemical_formula_structural   NaZr2In2P3(SO8)3
_chemical_formula_sum   'Na3 Zr6 In6 P9 S9 O72'
_cell_volume   1610.96582436
_cell_formula_units_Z   3
loop_
 _symmetry_equiv_pos_site_id
 _symmetry_equiv_pos_as_xyz
  1  'x, y, z'
loop_
 _atom_site_type_symbol
 _atom_site_label
 _atom_site_symmetry_multiplicity
 _atom_site_fract_x
 _atom_site_fract_y
 _atom_site_fract_z
 _atom_site_occupancy
  Na  Na0  1  0.68016997  0.33510109  0.83386758  1
  Na  Na1  1  0.66202393  0.34105506  0.33054070  1
  Na  Na2  1  0.34681965  0.67569172  0.17134308  1
  Zr  Zr0  1  0.00742458  0.99282305  0.35517540  1
  Zr  Zr1  1  0.99318306  0.00168921  0.85575599  1
  Zr  Zr2  1  0.99397642  0.99205601  0.64916278  1
  Zr  Zr3  1  0.99853753  0.99907190  0.14575834  1
  Zr  Zr4  1  0.33305492  0.65964557  0.02084609  1
  Zr  Zr5  1  0.32661384  0.66094033  0.51667775  1
  In  In0  1  0.67281733  0.33402856  0.68769125  1
  In  In1  1  0.65183071  0.32766514  0.18611864  1
  In  In2  1  0.66745785  0.32464952  0.98505863  1
  In  In3  1  0.66519464  0.33784608  0.48015066  1
  In  In4  1  0.33553992  0.66659946  0.31315908  1
  In  In5  1  0.32571512  0.66772900  0.81069239  1
  P  P0  1  0.29197310  0.99736944  0.24973446  1
  P  P1  1  0.70944357  0.70777765  0.25024957  1
  P  P2  1  0.99676193  0.70875389  0.75153253  1
  P  P3  1  0.70646348  0.99910569  0.75123652  1
  P  P4  1  0.66472678  0.04088847  0.08444195  1
  P  P5  1  0.37657648  0.33252672  0.08301508  1
  P  P6  1  0.03982645  0.38083799  0.91504693  1
  P  P7  1  0.33519973  0.37646383  0.41471516  1
  P  P8  1  0.04029059  0.65999771  0.41522139  1
  S  S0  1  0.99797158  0.28987149  0.25021551  1
  S  S1  1  0.29084415  0.28859382  0.75023678  1
  S  S2  1  0.95698707  0.33155889  0.58307522  1
  S  S3  1  0.37755487  0.04362824  0.58370331  1
  S  S4  1  0.66442287  0.62312845  0.58392521  1
  S  S5  1  0.95847497  0.62413485  0.08392205  1
  S  S6  1  0.62131690  0.66021782  0.91544262  1
  S  S7  1  0.33609898  0.96055472  0.91562562  1
  S  S8  1  0.62547949  0.96068741  0.41663080  1
  O  O0  1  0.20001666  0.01804315  0.30380913  1
  O  O1  1  0.81914496  0.80312408  0.30402291  1
  O  O2  1  0.97889987  0.18617005  0.30187627  1
  O  O3  1  0.20699881  0.18014539  0.80132655  1
  O  O4  1  0.97554299  0.80339377  0.80373717  1
  O  O5  1  0.82595636  0.02765825  0.80345497  1
  O  O6  1  0.80127665  0.98269415  0.69703676  1
  O  O7  1  0.18510317  0.20323769  0.69819639  1
  O  O8  1  0.01633076  0.82008846  0.69697022  1
  O  O9  1  0.80089022  0.81906044  0.19677035  1
  O  O10  1  0.01798687  0.20481609  0.19831324  1
  O  O11  1  0.18221710  0.98203497  0.19672478  1
  O  O12  1  0.88462003  0.36827067  0.63437875  1
  O  O13  1  0.48571981  0.11926405  0.63496618  1
  O  O14  1  0.63051706  0.51503754  0.63511867  1
  O  O15  1  0.88562495  0.51589554  0.13476870  1
  O  O16  1  0.62770023  0.11714081  0.13748832  1
  O  O17  1  0.49099047  0.37911228  0.13587146  1
  O  O18  1  0.45238404  0.30392982  0.02804020  1
  O  O19  1  0.85645093  0.55281311  0.03143335  1
  O  O20  1  0.70284456  0.14692661  0.02956754  1
  O  O21  1  0.45219043  0.15177313  0.53254072  1
  O  O22  1  0.70174526  0.55124269  0.53298939  1
  O  O23  1  0.84850067  0.29748701  0.53224448  1
  O  O24  1  0.54088266  0.68878795  0.96705563  1
  O  O25  1  0.15388237  0.46849361  0.96845280  1
  O  O26  1  0.31188776  0.85415429  0.96707892  1
  O  O27  1  0.54049405  0.85158568  0.46860904  1
  O  O28  1  0.31340048  0.46770868  0.46957252  1
  O  O29  1  0.15460968  0.68798216  0.46983247  1
  O  O30  1  0.12272454  0.63245701  0.36246258  1
  O  O31  1  0.51846663  0.88644787  0.36561973  1
  O  O32  1  0.37090093  0.49109729  0.36264263  1
  O  O33  1  0.12281665  0.48941126  0.86137064  1
  O  O34  1  0.36815683  0.88477981  0.86424211  1
  O  O35  1  0.51683484  0.63509092  0.86401500  1
  O  O36  1  0.02496308  0.82430919  0.40976200  1
  O  O37  1  0.79609502  0.97512802  0.41033289  1
  O  O38  1  0.16803270  0.20072644  0.40787071  1
  O  O39  1  0.02664689  0.20136893  0.90665529  1
  O  O40  1  0.17717259  0.97294158  0.90795040  1
  O  O41  1  0.79458499  0.81950768  0.90925306  1
  O  O42  1  0.98052556  0.18046933  0.59292523  1
  O  O43  1  0.20304248  0.02337201  0.59331489  1
  O  O44  1  0.81937884  0.79813800  0.59291047  1
  O  O45  1  0.98077745  0.79824803  0.09175509  1
  O  O46  1  0.82154084  0.01548218  0.09496958  1
  O  O47  1  0.19555733  0.17537566  0.09377317  1
  O  O48  1  0.69141879  0.16325948  0.74603022  1
  O  O49  1  0.46269519  0.30225392  0.74477204  1
  O  O50  1  0.82903473  0.53136878  0.74624428  1
  O  O51  1  0.70004791  0.53067305  0.24675661  1
  O  O52  1  0.84171865  0.30656378  0.24559487  1
  O  O53  1  0.47178590  0.16202845  0.24869624  1
  O  O54  1  0.64470431  0.50953486  0.92262299  1
  O  O55  1  0.85676910  0.35648511  0.92190460  1
  O  O56  1  0.48710662  0.13703516  0.92129101  1
  O  O57  1  0.64561417  0.13403781  0.42492450  1
  O  O58  1  0.49161233  0.34994887  0.42323963  1
  O  O59  1  0.85995790  0.50053137  0.42356274  1
  O  O60  1  0.35090393  0.49362161  0.07412825  1
  O  O61  1  0.13648251  0.64777249  0.07585598  1
  O  O62  1  0.50224685  0.85697352  0.07414686  1
  O  O63  1  0.35691181  0.86984004  0.57397952  1
  O  O64  1  0.51337872  0.64684238  0.57424414  1
  O  O65  1  0.13179704  0.48618062  0.57393167  1
  O  O66  1  0.30353325  0.83127444  0.25346426  1
  O  O67  1  0.52868067  0.69166362  0.25330702  1
  O  O68  1  0.15676298  0.46222854  0.25277705  1
  O  O69  1  0.30621154  0.45875970  0.75526210  1
  O  O70  1  0.15956849  0.69557206  0.75468038  1
  O  O71  1  0.53392310  0.83377121  0.75787363  1
loop_
_geom_bond_atom_site_label_1
_geom_bond_atom_site_label_2
_geom_bond_distance
_geom_bond_site_symmetry_2
Na0 O55 2.543503 1_555
Na0 O50 2.588292 1_555
Na0 O48 2.593132 1_555
Na0 O56 2.685728 1_555
Na0 O54 2.703723 1_555
Na0 O49 2.763448 1_555
Na1 O51 2.500977 1_555
Na1 O53 2.527456 1_555
Na1 O52 2.660145 1_555
Na1 O58 2.666615 1_555
Na1 O59 2.714494 1_555
Na1 O57 2.837843 1_555
Na2 O67 2.471353 1_555
Na2 O66 2.507660 1_555
Na2 O68 2.624899 1_555
Na2 O62 2.730336 1_555
Na2 O60 2.803054 1_555
Na2 O61 2.849176 1_555
In0 O50 2.113023 1_555
In0 O48 2.115803 1_555
In0 O12 2.149216 1_555
In0 O13 2.186474 1_555
In0 O49 2.195966 1_555
In0 O14 2.210615 1_555
In1 O17 2.077989 1_555
In1 O16 2.112399 1_555
In1 O53 2.126310 1_555
In1 O51 2.166963 1_555
In1 O15 2.257009 1_555
In1 O52 2.273413 1_555
In2 O20 2.052065 1_556
In2 O18 2.086017 1_556
In2 O55 2.147957 1_555
In2 O19 2.175176 1_556
In2 O56 2.218836 1_555
In2 O54 2.290189 1_555
In3 O59 2.083906 1_555
In3 O58 2.087221 1_555
In3 O22 2.153175 1_555
In3 O57 2.164479 1_555
In3 O21 2.168082 1_555
In3 O23 2.210404 1_555
In4 O32 2.097188 1_555
In4 O30 2.104195 1_555
In4 O67 2.138174 1_555
In4 O66 2.150072 1_555
In4 O31 2.194503 1_555
In4 O68 2.226187 1_555
In5 O33 2.078634 1_555
In5 O70 2.086059 1_555
In5 O71 2.098846 1_555
In5 O34 2.174297 1_555
In5 O69 2.204525 1_555
In5 O35 2.247716 1_555
O0 P0 1.564803 1_545
O0 Zr0 2.010036 1_545
O1 P1 1.559527 1_555
O1 Zr0 2.067583 1_655
O2 S0 1.480312 1_555
O2 Zr0 2.246958 1_645
O3 S1 1.482537 1_555
O3 Zr1 2.177812 1_455
O4 P2 1.547520 1_555
O4 Zr1 2.086665 1_565
O5 P3 1.557296 1_545
O5 Zr1 2.031976 1_555
O6 P3 1.567884 1_555
O6 Zr2 2.013385 1_555
O7 S1 1.494796 1_555
O7 Zr2 2.135495 1_445
O8 P2 1.573768 1_455
O8 Zr2 1.990490 1_455
O9 P1 1.550239 1_555
O9 Zr3 2.066144 1_555
O10 S0 1.487441 1_455
O10 Zr3 2.142373 1_445
O11 P0 1.544313 1_555
O11 Zr3 2.094079 1_455
O12 S2 1.472385 1_555
O13 S3 1.474677 1_555
O14 S4 1.471846 1_555
O15 S5 1.463171 1_555
O16 P4 1.526550 1_555
O17 P5 1.523704 1_555
O18 P5 1.529776 1_555
O19 S5 1.470744 1_555
O20 P4 1.529247 1_555
O21 S3 1.470652 1_555
O22 S4 1.466191 1_555
O23 S2 1.466784 1_555
O24 S6 1.487286 1_555
O24 Zr4 2.141052 1_556
O25 P6 1.553432 1_555
O25 Zr4 2.059091 1_556
O26 S7 1.481418 1_555
O26 Zr4 2.229656 1_556
O27 S8 1.503419 1_555
O27 Zr5 2.130734 1_555
O28 P7 1.581167 1_555
O28 Zr5 1.998687 1_555
O29 P8 1.575828 1_555
O29 Zr5 1.997494 1_555
O30 P8 1.515329 1_555
O31 S8 1.463906 1_555
O32 P7 1.519282 1_555
O33 P6 1.530849 1_555
O34 S7 1.473595 1_555
O35 S6 1.469822 1_555
O36 P8 1.545756 1_555
O36 Zr0 2.040207 1_555
O37 S8 1.467111 1_555
O37 Zr0 2.218750 1_655
O38 P7 1.538716 1_555
O38 Zr0 2.087041 1_545
O39 P6 1.559244 1_555
O39 Zr1 2.036369 1_455
O40 S7 1.486194 1_555
O40 Zr1 2.163134 1_465
O41 S6 1.492983 1_555
O41 Zr1 2.110767 1_565
O42 S2 1.484008 1_555
O42 Zr2 2.187724 1_545
O43 S3 1.489326 1_555
O43 Zr2 2.172406 1_445
O44 S4 1.494464 1_555
O44 Zr2 2.111059 1_555
O45 S5 1.476569 1_555
O45 Zr3 2.131709 1_555
O46 P4 1.544251 1_555
O46 Zr3 2.040531 1_545
O47 P5 1.538619 1_555
O47 Zr3 2.065361 1_445
O48 P3 1.542446 1_545
O49 S1 1.479303 1_555
O50 P2 1.545521 1_555
O51 P1 1.543334 1_555
O52 S0 1.477021 1_555
O53 P0 1.539928 1_545
O54 S6 1.471082 1_555
O55 P6 1.541916 1_655
O56 S7 1.479606 1_545
O57 S8 1.478885 1_545
O58 P7 1.539805 1_555
O59 P8 1.535085 1_655
O60 P5 1.579851 1_555
O60 Zr4 2.005064 1_555
O61 S5 1.503181 1_455
O61 Zr4 2.129560 1_555
O62 P4 1.572170 1_565
O62 Zr4 2.067696 1_555
O63 S3 1.485616 1_565
O63 Zr5 2.199244 1_555
O64 S4 1.481668 1_555
O64 Zr5 2.196035 1_555
O65 S2 1.491521 1_455
O65 Zr5 2.126749 1_555
O66 P0 1.540021 1_555
O67 P1 1.545298 1_555
O68 S0 1.481437 1_455
O69 S1 1.460381 1_555
O70 P2 1.515225 1_455
O71 P3 1.514849 1_555
