# generated using pymatgen
data_Na2ScTa3Si4(SO12)2
_symmetry_space_group_name_H-M   'P 1'
_cell_length_a   8.87882569
_cell_length_b   8.89659629
_cell_length_c   23.02280982
_cell_angle_alpha   90.19041802
_cell_angle_beta   90.22030672
_cell_angle_gamma   120.01836759
_symmetry_Int_Tables_number   1
_chemical_formula_structural   Na2ScTa3Si4(SO12)2
_chemical_formula_sum   'Na6 Sc3 Ta9 Si12 S6 O72'
_cell_volume   1574.62367098
_cell_formula_units_Z   3
loop_
 _symmetry_equiv_pos_site_id
 _symmetry_equiv_pos_as_xyz
  1  'x, y, z'
loop_
 _atom_site_type_symbol
 _atom_site_label
 _atom_site_symmetry_multiplicity
 _atom_site_fract_x
 _atom_site_fract_y
 _atom_site_fract_z
 _atom_site_occupancy
  Na  Na0  1  0.99140436  0.98829203  0.49927863  1
  Na  Na1  1  0.00136454  0.99608261  0.99897476  1
  Na  Na2  1  0.66024781  0.32428772  0.83198898  1
  Na  Na3  1  0.66859991  0.32361150  0.32668438  1
  Na  Na4  1  0.32489931  0.65825447  0.16360116  1
  Na  Na5  1  0.34469030  0.66464325  0.66696341  1
  Sc  Sc0  1  0.65255423  0.33316865  0.69042057  1
  Sc  Sc1  1  0.67160935  0.33648704  0.18593147  1
  Sc  Sc2  1  0.34790001  0.68043163  0.51816680  1
  Ta  Ta0  1  0.99812735  0.00203257  0.35247151  1
  Ta  Ta1  1  0.00509752  0.01449974  0.85779497  1
  Ta  Ta2  1  0.98735812  0.99600424  0.64915187  1
  Ta  Ta3  1  0.02126031  0.01092363  0.14331624  1
  Ta  Ta4  1  0.66264597  0.34362110  0.97652442  1
  Ta  Ta5  1  0.67836624  0.34403570  0.47783082  1
  Ta  Ta6  1  0.32420647  0.65957464  0.01877791  1
  Ta  Ta7  1  0.32062637  0.67608465  0.31085619  1
  Ta  Ta8  1  0.34216497  0.66534900  0.81439036  1
  Si  Si0  1  0.29390787  0.00987055  0.25044704  1
  Si  Si1  1  0.99859674  0.28939572  0.24961019  1
  Si  Si2  1  0.28670333  0.29018047  0.75063903  1
  Si  Si3  1  0.70704243  0.00191432  0.75232781  1
  Si  Si4  1  0.66377975  0.62354998  0.58511533  1
  Si  Si5  1  0.95449218  0.62124133  0.08451628  1
  Si  Si6  1  0.38652213  0.34231672  0.08397516  1
  Si  Si7  1  0.62387226  0.67213660  0.91802300  1
  Si  Si8  1  0.04257280  0.38329925  0.91542195  1
  Si  Si9  1  0.33460245  0.95314501  0.91638820  1
  Si  Si10  1  0.62278318  0.95617061  0.41660777  1
  Si  Si11  1  0.04815824  0.67330307  0.41835416  1
  S  S0  1  0.71073475  0.71377430  0.25008778  1
  S  S1  1  0.00199914  0.71463152  0.75074413  1
  S  S2  1  0.95611158  0.33346124  0.58417114  1
  S  S3  1  0.37630683  0.04537967  0.58329798  1
  S  S4  1  0.66637295  0.04275300  0.08294692  1
  S  S5  1  0.33356175  0.37687519  0.41656680  1
  O  O0  1  0.18627219  0.01807779  0.30694313  1
  O  O1  1  0.82029111  0.79961084  0.30369615  1
  O  O2  1  0.97894044  0.16760095  0.30670614  1
  O  O3  1  0.18857128  0.16457773  0.80619625  1
  O  O4  1  0.97590328  0.79615858  0.80237572  1
  O  O5  1  0.83280075  0.01842184  0.80666928  1
  O  O6  1  0.80160803  0.96640838  0.69347917  1
  O  O7  1  0.16326494  0.18889189  0.69227846  1
  O  O8  1  0.02745568  0.82495854  0.69680095  1
  O  O9  1  0.78869232  0.82169323  0.19836554  1
  O  O10  1  0.02514542  0.18863740  0.19354929  1
  O  O11  1  0.16449181  0.96687482  0.19324453  1
  O  O12  1  0.87434285  0.35491711  0.63533702  1
  O  O13  1  0.48284677  0.12295687  0.63542252  1
  O  O14  1  0.64660426  0.50709565  0.63987642  1
  O  O15  1  0.87762771  0.50681709  0.14143231  1
  O  O16  1  0.63646037  0.11631787  0.13572808  1
  O  O17  1  0.49317857  0.36618218  0.14205405  1
  O  O18  1  0.46939849  0.30233933  0.02601042  1
  O  O19  1  0.83324646  0.52607954  0.02629437  1
  O  O20  1  0.69674991  0.15039309  0.03067061  1
  O  O21  1  0.46030894  0.15405911  0.53051890  1
  O  O22  1  0.69232844  0.52328957  0.52649723  1
  O  O23  1  0.84303747  0.30146202  0.52989232  1
  O  O24  1  0.53206981  0.70029014  0.97426760  1
  O  O25  1  0.16568476  0.46802958  0.97291197  1
  O  O26  1  0.30430853  0.83265438  0.97324070  1
  O  O27  1  0.54621822  0.84064834  0.47332341  1
  O  O28  1  0.30197128  0.44866537  0.46907596  1
  O  O29  1  0.15835174  0.69671603  0.47521917  1
  O  O30  1  0.13334942  0.63435779  0.35979703  1
  O  O31  1  0.49943290  0.85814153  0.35915920  1
  O  O32  1  0.36499553  0.48316549  0.36426480  1
  O  O33  1  0.13512247  0.50172320  0.85853407  1
  O  O34  1  0.36242603  0.86031096  0.85880466  1
  O  O35  1  0.50088913  0.63441201  0.85980402  1
  O  O36  1  0.01743243  0.83627788  0.40606755  1
  O  O37  1  0.81863971  0.98550634  0.40589655  1
  O  O38  1  0.17895928  0.19835345  0.40887696  1
  O  O39  1  0.02657852  0.19158302  0.90957224  1
  O  O40  1  0.16227534  0.97217617  0.90685914  1
  O  O41  1  0.81598367  0.83659833  0.90717874  1
  O  O42  1  0.97007271  0.17001853  0.58836060  1
  O  O43  1  0.20063810  0.03048771  0.58886332  1
  O  O44  1  0.84772668  0.81825416  0.59046652  1
  O  O45  1  0.96856663  0.81461658  0.09177825  1
  O  O46  1  0.82322061  0.02163140  0.09030429  1
  O  O47  1  0.18576572  0.16606706  0.08971315  1
  O  O48  1  0.69859484  0.17464305  0.74314803  1
  O  O49  1  0.47625687  0.31063285  0.74656433  1
  O  O50  1  0.84945654  0.54233873  0.74327765  1
  O  O51  1  0.69571169  0.54316401  0.24725059  1
  O  O52  1  0.83316980  0.31361124  0.24723164  1
  O  O53  1  0.48187081  0.17410214  0.24685245  1
  O  O54  1  0.63967445  0.49686108  0.92387126  1
  O  O55  1  0.85009565  0.35439213  0.92589350  1
  O  O56  1  0.50609132  0.14390800  0.92599378  1
  O  O57  1  0.63991571  0.14885590  0.42721952  1
  O  O58  1  0.48975796  0.35317183  0.42428413  1
  O  O59  1  0.85079056  0.49533081  0.42518309  1
  O  O60  1  0.35711658  0.50808067  0.07395153  1
  O  O61  1  0.15294555  0.65481295  0.07378427  1
  O  O62  1  0.51139969  0.86631872  0.07558334  1
  O  O63  1  0.35258325  0.87000889  0.57714903  1
  O  O64  1  0.49574046  0.64559799  0.57758966  1
  O  O65  1  0.12894149  0.48321552  0.57539436  1
  O  O66  1  0.30440265  0.82747317  0.25748981  1
  O  O67  1  0.53613319  0.69637108  0.25888847  1
  O  O68  1  0.18323753  0.47614000  0.26037348  1
  O  O69  1  0.29612856  0.47834437  0.75682747  1
  O  O70  1  0.16185445  0.70234382  0.75434537  1
  O  O71  1  0.51664020  0.82499143  0.75710940  1
loop_
_geom_bond_atom_site_label_1
_geom_bond_atom_site_label_2
_geom_bond_distance
_geom_bond_site_symmetry_2
Na0 O44 2.536559 1_555
Na0 O36 2.604781 1_655
Na0 O37 2.629069 1_555
Na0 O43 2.667140 1_665
Na0 O42 2.672702 1_565
Na0 O38 2.745202 1_665
Na1 O41 2.608729 1_455
Na1 O47 2.609041 1_566
Na1 O45 2.610278 1_456
Na1 O40 2.628379 1_555
Na1 O39 2.636205 1_565
Na1 O46 2.712337 1_466
Na2 O49 2.515272 1_555
Na2 O48 2.551996 1_555
Na2 O56 2.642129 1_555
Na2 O55 2.665238 1_555
Na2 O54 2.669723 1_555
Na2 O50 2.747504 1_555
Na3 O52 2.374572 1_555
Na3 O53 2.376950 1_555
Na3 O51 2.602759 1_555
Na3 O57 2.733441 1_555
Na3 O59 2.751238 1_555
Na3 O58 2.842719 1_555
Na4 O60 2.548618 1_555
Na4 O61 2.556634 1_555
Na4 O68 2.679081 1_555
Na4 O66 2.688403 1_555
Na4 O62 2.694193 1_555
Na4 O67 2.787878 1_555
Na5 O64 2.511478 1_555
Na5 O71 2.539696 1_555
Na5 O69 2.555002 1_555
Na5 O70 2.713023 1_555
Na5 O63 2.741691 1_555
Na5 O65 2.751703 1_555
O0 Si0 1.639883 1_555
O0 Ta0 1.919775 1_455
O1 S0 1.514570 1_555
O1 Ta0 2.031036 1_565
O2 Si1 1.659672 1_555
O2 Ta0 1.889158 1_555
O3 Si2 1.639448 1_555
O3 Ta1 1.922717 1_555
O4 S1 1.468781 1_655
O4 Ta1 2.223870 1_665
O5 Si3 1.630193 1_555
O5 Ta1 1.940820 1_655
O6 Si3 1.706366 1_565
O6 Ta2 1.846908 1_555
O7 Si2 1.676603 1_555
O7 Ta2 1.914439 1_445
O8 S1 1.531391 1_555
O8 Ta2 2.048413 1_455
O9 S0 1.472381 1_555
O9 Ta3 2.293570 1_665
O10 Si1 1.652583 1_455
O10 Ta3 1.942004 1_555
O11 Si0 1.657193 1_565
O11 Ta3 1.892773 1_565
O12 S2 1.447381 1_555
O12 Sc0 2.272258 1_555
O13 S3 1.464179 1_555
O13 Sc0 2.126340 1_555
O14 Si4 1.593182 1_555
O14 Sc0 1.960744 1_555
O15 Si5 1.593654 1_555
O15 Sc1 1.985743 1_555
O16 S4 1.465138 1_555
O16 Sc1 2.154204 1_555
O17 Si6 1.586505 1_555
O17 Sc1 2.002090 1_555
O18 Si6 1.647768 1_555
O18 Ta4 1.940158 1_554
O19 Si5 1.655858 1_555
O19 Ta4 1.938160 1_554
O20 S4 1.479884 1_555
O20 Ta4 2.265628 1_554
O21 S3 1.503627 1_555
O21 Ta5 2.198653 1_555
O22 Si4 1.703532 1_555
O22 Ta5 1.898215 1_555
O23 S2 1.533830 1_555
O23 Ta5 2.064324 1_555
O24 Si7 1.616831 1_555
O24 Ta6 1.983839 1_556
O25 Si8 1.634854 1_555
O25 Ta6 1.891246 1_556
O26 Si9 1.630403 1_555
O26 Ta6 1.944965 1_556
O27 Si10 1.593767 1_555
O27 Sc2 1.926304 1_555
O28 S5 1.457660 1_555
O28 Sc2 2.198837 1_555
O29 Si11 1.580837 1_555
O29 Sc2 2.015726 1_555
O30 Si11 1.666329 1_555
O30 Ta7 1.889936 1_555
O31 Si10 1.653762 1_555
O31 Ta7 1.944777 1_555
O32 S5 1.472458 1_555
O32 Ta7 2.302115 1_555
O33 Si8 1.628445 1_555
O33 Ta8 1.969265 1_555
O34 Si9 1.643202 1_555
O34 Ta8 1.939338 1_555
O35 Si7 1.649435 1_555
O35 Ta8 1.879811 1_555
O36 Si11 1.629299 1_555
O36 Ta0 1.997484 1_465
O37 Si10 1.643955 1_555
O37 Ta0 1.963677 1_565
O38 S5 1.501003 1_555
O38 Ta0 2.116102 1_455
O39 Si8 1.644210 1_555
O39 Ta1 1.903815 1_555
O40 Si9 1.635468 1_555
O40 Ta1 1.970231 1_565
O41 Si7 1.619019 1_555
O41 Ta1 1.996165 1_665
O42 S2 1.523225 1_555
O42 Ta2 2.151650 1_545
O43 S3 1.503870 1_555
O43 Ta2 2.246880 1_445
O44 Si4 1.688055 1_555
O44 Ta2 1.968381 1_555
O45 Si5 1.669162 1_555
O45 Ta3 1.959932 1_665
O46 S4 1.504537 1_555
O46 Ta3 2.177695 1_655
O47 Si6 1.691168 1_555
O47 Ta3 1.889318 1_555
O48 Si3 1.590312 1_555
O48 Sc0 2.052854 1_555
O49 Si2 1.602923 1_555
O49 Sc0 1.965823 1_555
O50 S1 1.460390 1_655
O50 Sc0 2.171106 1_555
O51 S0 1.456925 1_555
O51 Sc1 2.237502 1_555
O52 Si1 1.588346 1_555
O52 Sc1 2.090294 1_555
O53 Si0 1.577642 1_555
O53 Sc1 2.118694 1_555
O54 Si7 1.639988 1_555
O54 Ta4 1.912331 1_555
O55 Si8 1.615139 1_655
O55 Ta4 1.998512 1_555
O56 Si9 1.630014 1_545
O56 Ta4 1.986245 1_555
O57 Si10 1.660566 1_545
O57 Ta5 1.969730 1_555
O58 S5 1.513384 1_555
O58 Ta5 2.109911 1_555
O59 Si11 1.682312 1_655
O59 Ta5 1.894199 1_555
O60 Si6 1.638082 1_555
O60 Ta6 1.979395 1_555
O61 Si5 1.652964 1_455
O61 Ta6 1.966848 1_555
O62 S4 1.490409 1_565
O62 Ta6 2.182766 1_555
O63 S3 1.472456 1_565
O63 Sc2 2.145807 1_555
O64 Si4 1.607978 1_555
O64 Sc2 2.021573 1_555
O65 S2 1.459184 1_455
O65 Sc2 2.283861 1_555
O66 Si0 1.679614 1_565
O66 Ta7 1.883628 1_555
O67 S0 1.493582 1_555
O67 Ta7 2.190625 1_555
O68 Si1 1.666789 1_455
O68 Ta7 1.951241 1_555
O69 Si2 1.639449 1_555
O69 Ta8 1.998015 1_555
O70 S1 1.479093 1_555
O70 Ta8 2.257345 1_555
O71 Si3 1.639435 1_565
O71 Ta8 1.995718 1_555
