# generated using pymatgen
data_Yb2InPd2
_symmetry_space_group_name_H-M   'P 1'
_cell_length_a   15.33946040
_cell_length_b   15.33946040
_cell_length_c   7.10327298
_cell_angle_alpha   90.00000000
_cell_angle_beta   90.00000000
_cell_angle_gamma   90.00000000
_symmetry_Int_Tables_number   1
_chemical_formula_structural   Yb2InPd2
_chemical_formula_sum   'Yb32 In16 Pd32'
_cell_volume   1671.39335107
_cell_formula_units_Z   16
loop_
 _symmetry_equiv_pos_site_id
 _symmetry_equiv_pos_as_xyz
  1  'x, y, z'
loop_
 _atom_site_type_symbol
 _atom_site_label
 _atom_site_symmetry_multiplicity
 _atom_site_fract_x
 _atom_site_fract_y
 _atom_site_fract_z
 _atom_site_occupancy
  Yb  Yb0_0  1  0.16414813  0.41414813  0.25000000  1
  Yb  Yb0_1  1  0.16414813  0.41414813  0.75000000  1
  Yb  Yb0_2  1  0.16414813  0.91414813  0.25000000  1
  Yb  Yb0_3  1  0.16414813  0.91414813  0.75000000  1
  Yb  Yb0_4  1  0.66414813  0.41414813  0.25000000  1
  Yb  Yb0_5  1  0.66414813  0.41414813  0.75000000  1
  Yb  Yb0_6  1  0.66414813  0.91414813  0.25000000  1
  Yb  Yb0_7  1  0.66414813  0.91414813  0.75000000  1
  Yb  Yb1_0  1  0.41414813  0.33585187  0.25000000  1
  Yb  Yb1_1  1  0.41414813  0.33585187  0.75000000  1
  Yb  Yb1_2  1  0.41414813  0.83585187  0.25000000  1
  Yb  Yb1_3  1  0.41414813  0.83585187  0.75000000  1
  Yb  Yb1_4  1  0.91414813  0.33585187  0.25000000  1
  Yb  Yb1_5  1  0.91414813  0.33585187  0.75000000  1
  Yb  Yb1_6  1  0.91414813  0.83585187  0.25000000  1
  Yb  Yb1_7  1  0.91414813  0.83585187  0.75000000  1
  Yb  Yb2_0  1  0.08585187  0.16414813  0.25000000  1
  Yb  Yb2_1  1  0.08585187  0.16414813  0.75000000  1
  Yb  Yb2_2  1  0.08585187  0.66414813  0.25000000  1
  Yb  Yb2_3  1  0.08585187  0.66414813  0.75000000  1
  Yb  Yb2_4  1  0.58585187  0.16414813  0.25000000  1
  Yb  Yb2_5  1  0.58585187  0.16414813  0.75000000  1
  Yb  Yb2_6  1  0.58585187  0.66414813  0.25000000  1
  Yb  Yb2_7  1  0.58585187  0.66414813  0.75000000  1
  Yb  Yb3_0  1  0.33585187  0.08585187  0.25000000  1
  Yb  Yb3_1  1  0.33585187  0.08585187  0.75000000  1
  Yb  Yb3_2  1  0.33585187  0.58585187  0.25000000  1
  Yb  Yb3_3  1  0.33585187  0.58585187  0.75000000  1
  Yb  Yb3_4  1  0.83585187  0.08585187  0.25000000  1
  Yb  Yb3_5  1  0.83585187  0.08585187  0.75000000  1
  Yb  Yb3_6  1  0.83585187  0.58585187  0.25000000  1
  Yb  Yb3_7  1  0.83585187  0.58585187  0.75000000  1
  In  In0_0  1  0.00000000  0.00000000  0.00000000  1
  In  In0_1  1  0.00000000  0.00000000  0.50000000  1
  In  In0_2  1  0.00000000  0.50000000  0.00000000  1
  In  In0_3  1  0.00000000  0.50000000  0.50000000  1
  In  In0_4  1  0.50000000  0.00000000  0.00000000  1
  In  In0_5  1  0.50000000  0.00000000  0.50000000  1
  In  In0_6  1  0.50000000  0.50000000  0.00000000  1
  In  In0_7  1  0.50000000  0.50000000  0.50000000  1
  In  In1_0  1  0.25000000  0.25000000  0.00000000  1
  In  In1_1  1  0.25000000  0.25000000  0.50000000  1
  In  In1_2  1  0.25000000  0.75000000  0.00000000  1
  In  In1_3  1  0.25000000  0.75000000  0.50000000  1
  In  In1_4  1  0.75000000  0.25000000  0.00000000  1
  In  In1_5  1  0.75000000  0.25000000  0.50000000  1
  In  In1_6  1  0.75000000  0.75000000  0.00000000  1
  In  In1_7  1  0.75000000  0.75000000  0.50000000  1
  Pd  Pd0_0  1  0.18566277  0.06433723  0.00000000  1
  Pd  Pd0_1  1  0.18566277  0.06433723  0.50000000  1
  Pd  Pd0_2  1  0.18566277  0.56433723  0.00000000  1
  Pd  Pd0_3  1  0.18566277  0.56433723  0.50000000  1
  Pd  Pd0_4  1  0.68566277  0.06433723  0.00000000  1
  Pd  Pd0_5  1  0.68566277  0.06433723  0.50000000  1
  Pd  Pd0_6  1  0.68566277  0.56433723  0.00000000  1
  Pd  Pd0_7  1  0.68566277  0.56433723  0.50000000  1
  Pd  Pd1_0  1  0.43566277  0.18566277  0.00000000  1
  Pd  Pd1_1  1  0.43566277  0.18566277  0.50000000  1
  Pd  Pd1_2  1  0.43566277  0.68566277  0.00000000  1
  Pd  Pd1_3  1  0.43566277  0.68566277  0.50000000  1
  Pd  Pd1_4  1  0.93566277  0.18566277  0.00000000  1
  Pd  Pd1_5  1  0.93566277  0.18566277  0.50000000  1
  Pd  Pd1_6  1  0.93566277  0.68566277  0.00000000  1
  Pd  Pd1_7  1  0.93566277  0.68566277  0.50000000  1
  Pd  Pd2_0  1  0.06433723  0.31433723  0.00000000  1
  Pd  Pd2_1  1  0.06433723  0.31433723  0.50000000  1
  Pd  Pd2_2  1  0.06433723  0.81433723  0.00000000  1
  Pd  Pd2_3  1  0.06433723  0.81433723  0.50000000  1
  Pd  Pd2_4  1  0.56433723  0.31433723  0.00000000  1
  Pd  Pd2_5  1  0.56433723  0.31433723  0.50000000  1
  Pd  Pd2_6  1  0.56433723  0.81433723  0.00000000  1
  Pd  Pd2_7  1  0.56433723  0.81433723  0.50000000  1
  Pd  Pd3_0  1  0.31433723  0.43566277  0.00000000  1
  Pd  Pd3_1  1  0.31433723  0.43566277  0.50000000  1
  Pd  Pd3_2  1  0.31433723  0.93566277  0.00000000  1
  Pd  Pd3_3  1  0.31433723  0.93566277  0.50000000  1
  Pd  Pd3_4  1  0.81433723  0.43566277  0.00000000  1
  Pd  Pd3_5  1  0.81433723  0.43566277  0.50000000  1
  Pd  Pd3_6  1  0.81433723  0.93566277  0.00000000  1
  Pd  Pd3_7  1  0.81433723  0.93566277  0.50000000  1
loop_
_geom_bond_atom_site_label_1
_geom_bond_atom_site_label_2
_geom_bond_distance
_geom_bond_site_symmetry_2
In0_0 Pd0_0 3.014114 1_555
In0_0 Pd1_4 3.014114 1_455
In0_0 Pd2_2 3.014114 1_545
In0_0 Pd3_6 3.014114 1_445
In0_0 Yb2_1 3.350799 1_554
In0_0 Yb2_0 3.350799 1_555
In0_0 Yb0_2 3.350799 1_545
In0_0 Yb0_3 3.350799 1_544
In0_0 Yb3_4 3.350799 1_455
In0_0 Yb3_5 3.350799 1_454
In0_0 Yb1_6 3.350799 1_445
In0_0 Yb1_7 3.350799 1_444
In0_0 In0_1 3.551636 1_554
In0_0 In0_1 3.551636 1_555
In0_1 Pd0_1 3.014114 1_555
In0_1 Pd1_5 3.014114 1_455
In0_1 Pd2_3 3.014114 1_545
In0_1 Pd3_7 3.014114 1_445
In0_1 Yb2_0 3.350799 1_555
In0_1 Yb2_1 3.350799 1_555
In0_1 Yb0_2 3.350799 1_545
In0_1 Yb0_3 3.350799 1_545
In0_1 Yb3_4 3.350799 1_455
In0_1 Yb3_5 3.350799 1_455
In0_1 Yb1_6 3.350799 1_445
In0_1 Yb1_7 3.350799 1_445
In0_2 Pd0_2 3.014114 1_555
In0_2 Pd1_6 3.014114 1_455
In0_2 Pd2_0 3.014114 1_555
In0_2 Pd3_4 3.014114 1_455
In0_2 Yb2_2 3.350799 1_555
In0_2 Yb2_3 3.350799 1_554
In0_2 Yb0_1 3.350799 1_554
In0_2 Yb0_0 3.350799 1_555
In0_2 Yb3_6 3.350799 1_455
In0_2 Yb3_7 3.350799 1_454
In0_2 Yb1_4 3.350799 1_455
In0_2 Yb1_5 3.350799 1_454
In0_2 In0_3 3.551636 1_554
In0_2 In0_3 3.551636 1_555
In0_3 Pd0_3 3.014114 1_555
In0_3 Pd1_7 3.014114 1_455
In0_3 Pd2_1 3.014114 1_555
In0_3 Pd3_5 3.014114 1_455
In0_3 Yb2_2 3.350799 1_555
In0_3 Yb2_3 3.350799 1_555
In0_3 Yb0_1 3.350799 1_555
In0_3 Yb0_0 3.350799 1_555
In0_3 Yb3_6 3.350799 1_455
In0_3 Yb3_7 3.350799 1_455
In0_3 Yb1_4 3.350799 1_455
In0_3 Yb1_5 3.350799 1_455
In0_4 Pd0_4 3.014114 1_555
In0_4 Pd1_0 3.014114 1_555
In0_4 Pd2_6 3.014114 1_545
In0_4 Pd3_2 3.014114 1_545
In0_4 Yb2_5 3.350799 1_554
In0_4 Yb2_4 3.350799 1_555
In0_4 Yb0_7 3.350799 1_544
In0_4 Yb0_6 3.350799 1_545
In0_4 Yb3_1 3.350799 1_554
In0_4 Yb3_0 3.350799 1_555
In0_4 Yb1_3 3.350799 1_544
In0_4 Yb1_2 3.350799 1_545
In0_4 In0_5 3.551636 1_555
In0_4 In0_5 3.551636 1_554
In0_5 Pd0_5 3.014114 1_555
In0_5 Pd1_1 3.014114 1_555
In0_5 Pd2_7 3.014114 1_545
In0_5 Pd3_3 3.014114 1_545
In0_5 Yb2_4 3.350799 1_555
In0_5 Yb2_5 3.350799 1_555
In0_5 Yb0_7 3.350799 1_545
In0_5 Yb0_6 3.350799 1_545
In0_5 Yb3_1 3.350799 1_555
In0_5 Yb3_0 3.350799 1_555
In0_5 Yb1_3 3.350799 1_545
In0_5 Yb1_2 3.350799 1_545
In0_6 Pd0_6 3.014114 1_555
In0_6 Pd1_2 3.014114 1_555
In0_6 Pd2_4 3.014114 1_555
In0_6 Pd3_0 3.014114 1_555
In0_6 Yb2_7 3.350799 1_554
In0_6 Yb2_6 3.350799 1_555
In0_6 Yb0_4 3.350799 1_555
In0_6 Yb0_5 3.350799 1_554
In0_6 Yb3_3 3.350799 1_554
In0_6 Yb3_2 3.350799 1_555
In0_6 Yb1_0 3.350799 1_555
In0_6 Yb1_1 3.350799 1_554
In0_6 In0_7 3.551636 1_554
In0_6 In0_7 3.551636 1_555
In0_7 Pd0_7 3.014114 1_555
In0_7 Pd1_3 3.014114 1_555
In0_7 Pd2_5 3.014114 1_555
In0_7 Pd3_1 3.014114 1_555
In0_7 Yb2_7 3.350799 1_555
In0_7 Yb2_6 3.350799 1_555
In0_7 Yb0_5 3.350799 1_555
In0_7 Yb0_4 3.350799 1_555
In0_7 Yb3_2 3.350799 1_555
In0_7 Yb3_3 3.350799 1_555
In0_7 Yb1_0 3.350799 1_555
In0_7 Yb1_1 3.350799 1_555
In1_0 Pd3_0 3.014114 1_555
In1_0 Pd1_0 3.014114 1_555
In1_0 Pd2_0 3.014114 1_555
In1_0 Pd0_0 3.014114 1_555
In1_0 Yb1_0 3.350799 1_555
In1_0 Yb1_1 3.350799 1_554
In1_0 Yb0_1 3.350799 1_554
In1_0 Yb0_0 3.350799 1_555
In1_0 Yb3_0 3.350799 1_555
In1_0 Yb3_1 3.350799 1_554
In1_0 Yb2_1 3.350799 1_554
In1_0 Yb2_0 3.350799 1_555
In1_0 In1_1 3.551636 1_555
In1_0 In1_1 3.551636 1_554
In1_1 Pd3_1 3.014114 1_555
In1_1 Pd1_1 3.014114 1_555
In1_1 Pd2_1 3.014114 1_555
In1_1 Pd0_1 3.014114 1_555
In1_1 Yb1_1 3.350799 1_555
In1_1 Yb1_0 3.350799 1_555
In1_1 Yb0_1 3.350799 1_555
In1_1 Yb0_0 3.350799 1_555
In1_1 Yb3_0 3.350799 1_555
In1_1 Yb3_1 3.350799 1_555
In1_1 Yb2_0 3.350799 1_555
In1_1 Yb2_1 3.350799 1_555
In1_2 Pd1_2 3.014114 1_555
In1_2 Pd3_2 3.014114 1_555
In1_2 Pd2_2 3.014114 1_555
In1_2 Pd0_2 3.014114 1_555
In1_2 Yb1_2 3.350799 1_555
In1_2 Yb1_3 3.350799 1_554
In1_2 Yb0_2 3.350799 1_555
In1_2 Yb0_3 3.350799 1_554
In1_2 Yb3_2 3.350799 1_555
In1_2 Yb3_3 3.350799 1_554
In1_2 Yb2_2 3.350799 1_555
In1_2 Yb2_3 3.350799 1_554
In1_2 In1_3 3.551636 1_555
In1_2 In1_3 3.551636 1_554
In1_3 Pd3_3 3.014114 1_555
In1_3 Pd1_3 3.014114 1_555
In1_3 Pd2_3 3.014114 1_555
In1_3 Pd0_3 3.014114 1_555
In1_3 Yb1_2 3.350799 1_555
In1_3 Yb1_3 3.350799 1_555
In1_3 Yb0_2 3.350799 1_555
In1_3 Yb0_3 3.350799 1_555
In1_3 Yb3_2 3.350799 1_555
In1_3 Yb3_3 3.350799 1_555
In1_3 Yb2_3 3.350799 1_555
In1_3 Yb2_2 3.350799 1_555
In1_4 Pd3_4 3.014114 1_555
In1_4 Pd1_4 3.014114 1_555
In1_4 Pd2_4 3.014114 1_555
In1_4 Pd0_4 3.014114 1_555
In1_4 Yb1_5 3.350799 1_554
In1_4 Yb1_4 3.350799 1_555
In1_4 Yb0_4 3.350799 1_555
In1_4 Yb0_5 3.350799 1_554
In1_4 Yb3_5 3.350799 1_554
In1_4 Yb3_4 3.350799 1_555
In1_4 Yb2_5 3.350799 1_554
In1_4 Yb2_4 3.350799 1_555
In1_4 In1_5 3.551636 1_554
In1_4 In1_5 3.551636 1_555
In1_5 Pd3_5 3.014114 1_555
In1_5 Pd1_5 3.014114 1_555
In1_5 Pd2_5 3.014114 1_555
In1_5 Pd0_5 3.014114 1_555
In1_5 Yb1_4 3.350799 1_555
In1_5 Yb1_5 3.350799 1_555
In1_5 Yb0_5 3.350799 1_555
In1_5 Yb0_4 3.350799 1_555
In1_5 Yb3_5 3.350799 1_555
In1_5 Yb3_4 3.350799 1_555
In1_5 Yb2_5 3.350799 1_555
In1_5 Yb2_4 3.350799 1_555
In1_6 Pd3_6 3.014114 1_555
In1_6 Pd1_6 3.014114 1_555
In1_6 Pd2_6 3.014114 1_555
In1_6 Pd0_6 3.014114 1_555
In1_6 Yb1_6 3.350799 1_555
In1_6 Yb1_7 3.350799 1_554
In1_6 Yb0_7 3.350799 1_554
In1_6 Yb0_6 3.350799 1_555
In1_6 Yb3_7 3.350799 1_554
In1_6 Yb3_6 3.350799 1_555
In1_6 Yb2_6 3.350799 1_555
In1_6 Yb2_7 3.350799 1_554
In1_6 In1_7 3.551636 1_554
In1_6 In1_7 3.551636 1_555
In1_7 Pd3_7 3.014114 1_555
In1_7 Pd1_7 3.014114 1_555
In1_7 Pd2_7 3.014114 1_555
In1_7 Pd0_7 3.014114 1_555
In1_7 Yb1_6 3.350799 1_555
In1_7 Yb1_7 3.350799 1_555
In1_7 Yb0_6 3.350799 1_555
In1_7 Yb0_7 3.350799 1_555
In1_7 Yb3_7 3.350799 1_555
In1_7 Yb3_6 3.350799 1_555
In1_7 Yb2_7 3.350799 1_555
In1_7 Yb2_6 3.350799 1_555
Pd0_0 Pd3_2 2.791370 1_545
Pd0_0 Yb2_1 2.800309 1_554
Pd0_0 Yb2_0 2.800309 1_555
Pd0_0 Yb0_3 2.927462 1_544
Pd0_0 Yb0_2 2.927462 1_545
Pd0_0 Yb3_0 2.927462 1_555
Pd0_0 Yb3_1 2.927462 1_554
Pd0_1 Pd3_3 2.791370 1_545
Pd0_1 Yb2_1 2.800309 1_555
Pd0_1 Yb2_0 2.800309 1_555
Pd0_1 Yb0_2 2.927462 1_545
Pd0_1 Yb0_3 2.927462 1_545
Pd0_1 Yb3_0 2.927462 1_555
Pd0_1 Yb3_1 2.927462 1_555
Pd0_2 Pd3_0 2.791370 1_555
Pd0_2 Yb2_2 2.800309 1_555
Pd0_2 Yb2_3 2.800309 1_554
Pd0_2 Yb0_1 2.927462 1_554
Pd0_2 Yb0_0 2.927462 1_555
Pd0_2 Yb3_3 2.927462 1_554
Pd0_2 Yb3_2 2.927462 1_555
Pd0_3 Pd3_1 2.791370 1_555
Pd0_3 Yb2_2 2.800309 1_555
Pd0_3 Yb2_3 2.800309 1_555
Pd0_3 Yb0_1 2.927462 1_555
Pd0_3 Yb0_0 2.927462 1_555
Pd0_3 Yb3_3 2.927462 1_555
Pd0_3 Yb3_2 2.927462 1_555
Pd0_4 Pd3_6 2.791370 1_545
Pd0_4 Yb2_5 2.800309 1_554
Pd0_4 Yb2_4 2.800309 1_555
Pd0_4 Yb0_7 2.927462 1_544
Pd0_4 Yb0_6 2.927462 1_545
Pd0_4 Yb3_4 2.927462 1_555
Pd0_4 Yb3_5 2.927462 1_554
Pd0_5 Pd3_7 2.791370 1_545
Pd0_5 Yb2_5 2.800309 1_555
Pd0_5 Yb2_4 2.800309 1_555
Pd0_5 Yb0_7 2.927462 1_545
Pd0_5 Yb0_6 2.927462 1_545
Pd0_5 Yb3_4 2.927462 1_555
Pd0_5 Yb3_5 2.927462 1_555
Pd0_6 Pd3_4 2.791370 1_555
Pd0_6 Yb2_6 2.800309 1_555
Pd0_6 Yb2_7 2.800309 1_554
Pd0_6 Yb0_5 2.927462 1_554
Pd0_6 Yb0_4 2.927462 1_555
Pd0_6 Yb3_6 2.927462 1_555
Pd0_6 Yb3_7 2.927462 1_554
Pd0_7 Pd3_5 2.791370 1_555
Pd0_7 Yb2_6 2.800309 1_555
Pd0_7 Yb2_7 2.800309 1_555
Pd0_7 Yb0_5 2.927462 1_555
Pd0_7 Yb0_4 2.927462 1_555
Pd0_7 Yb3_6 2.927462 1_555
Pd0_7 Yb3_7 2.927462 1_555
Pd1_0 Pd2_4 2.791370 1_555
Pd1_0 Yb3_1 2.800309 1_554
Pd1_0 Yb3_0 2.800309 1_555
Pd1_0 Yb2_5 2.927462 1_554
Pd1_0 Yb2_4 2.927462 1_555
Pd1_0 Yb1_0 2.927462 1_555
Pd1_0 Yb1_1 2.927462 1_554
Pd1_1 Pd2_5 2.791370 1_555
Pd1_1 Yb3_0 2.800309 1_555
Pd1_1 Yb3_1 2.800309 1_555
Pd1_1 Yb2_5 2.927462 1_555
Pd1_1 Yb2_4 2.927462 1_555
Pd1_1 Yb1_0 2.927462 1_555
Pd1_1 Yb1_1 2.927462 1_555
Pd1_2 Pd2_6 2.791370 1_555
Pd1_2 Yb3_2 2.800309 1_555
Pd1_2 Yb3_3 2.800309 1_554
Pd1_2 Yb2_6 2.927462 1_555
Pd1_2 Yb2_7 2.927462 1_554
Pd1_2 Yb1_3 2.927462 1_554
Pd1_2 Yb1_2 2.927462 1_555
Pd1_3 Pd2_7 2.791370 1_555
Pd1_3 Yb3_2 2.800309 1_555
Pd1_3 Yb3_3 2.800309 1_555
Pd1_3 Yb2_6 2.927462 1_555
Pd1_3 Yb2_7 2.927462 1_555
Pd1_3 Yb1_3 2.927462 1_555
Pd1_3 Yb1_2 2.927462 1_555
Pd1_4 Pd2_0 2.791370 1_655
Pd1_4 Yb3_4 2.800309 1_555
Pd1_4 Yb3_5 2.800309 1_554
Pd1_4 Yb2_0 2.927462 1_655
Pd1_4 Yb2_1 2.927462 1_654
Pd1_4 Yb1_5 2.927462 1_554
Pd1_4 Yb1_4 2.927462 1_555
Pd1_5 Pd2_1 2.791370 1_655
Pd1_5 Yb3_4 2.800309 1_555
Pd1_5 Yb3_5 2.800309 1_555
Pd1_5 Yb2_0 2.927462 1_655
Pd1_5 Yb2_1 2.927462 1_655
Pd1_5 Yb1_4 2.927462 1_555
Pd1_5 Yb1_5 2.927462 1_555
Pd1_6 Pd2_2 2.791370 1_655
Pd1_6 Yb3_6 2.800309 1_555
Pd1_6 Yb3_7 2.800309 1_554
Pd1_6 Yb2_2 2.927462 1_655
Pd1_6 Yb2_3 2.927462 1_654
Pd1_6 Yb1_6 2.927462 1_555
Pd1_6 Yb1_7 2.927462 1_554
Pd1_7 Pd2_3 2.791370 1_655
Pd1_7 Yb3_7 2.800309 1_555
Pd1_7 Yb3_6 2.800309 1_555
Pd1_7 Yb2_2 2.927462 1_655
Pd1_7 Yb2_3 2.927462 1_655
Pd1_7 Yb1_6 2.927462 1_555
Pd1_7 Yb1_7 2.927462 1_555
Pd2_0 Yb0_0 2.800309 1_555
Pd2_0 Yb0_1 2.800309 1_554
Pd2_0 Yb1_4 2.927462 1_455
Pd2_0 Yb1_5 2.927462 1_454
Pd2_0 Yb2_1 2.927462 1_554
Pd2_0 Yb2_0 2.927462 1_555
Pd2_1 Yb0_0 2.800309 1_555
Pd2_1 Yb0_1 2.800309 1_555
Pd2_1 Yb1_4 2.927462 1_455
Pd2_1 Yb1_5 2.927462 1_455
Pd2_1 Yb2_0 2.927462 1_555
Pd2_1 Yb2_1 2.927462 1_555
Pd2_2 Yb0_3 2.800309 1_554
Pd2_2 Yb0_2 2.800309 1_555
Pd2_2 Yb1_7 2.927462 1_454
Pd2_2 Yb1_6 2.927462 1_455
Pd2_2 Yb2_3 2.927462 1_554
Pd2_2 Yb2_2 2.927462 1_555
Pd2_3 Yb0_3 2.800309 1_555
Pd2_3 Yb0_2 2.800309 1_555
Pd2_3 Yb1_7 2.927462 1_455
Pd2_3 Yb1_6 2.927462 1_455
Pd2_3 Yb2_2 2.927462 1_555
Pd2_3 Yb2_3 2.927462 1_555
Pd2_4 Yb0_4 2.800309 1_555
Pd2_4 Yb0_5 2.800309 1_554
Pd2_4 Yb1_1 2.927462 1_554
Pd2_4 Yb1_0 2.927462 1_555
Pd2_4 Yb2_5 2.927462 1_554
Pd2_4 Yb2_4 2.927462 1_555
Pd2_5 Yb0_5 2.800309 1_555
Pd2_5 Yb0_4 2.800309 1_555
Pd2_5 Yb1_1 2.927462 1_555
Pd2_5 Yb1_0 2.927462 1_555
Pd2_5 Yb2_5 2.927462 1_555
Pd2_5 Yb2_4 2.927462 1_555
Pd2_6 Yb0_6 2.800309 1_555
Pd2_6 Yb0_7 2.800309 1_554
Pd2_6 Yb1_3 2.927462 1_554
Pd2_6 Yb1_2 2.927462 1_555
Pd2_6 Yb2_7 2.927462 1_554
Pd2_6 Yb2_6 2.927462 1_555
Pd2_7 Yb0_6 2.800309 1_555
Pd2_7 Yb0_7 2.800309 1_555
Pd2_7 Yb1_2 2.927462 1_555
Pd2_7 Yb1_3 2.927462 1_555
Pd2_7 Yb2_6 2.927462 1_555
Pd2_7 Yb2_7 2.927462 1_555
Pd3_0 Yb1_1 2.800309 1_554
Pd3_0 Yb1_0 2.800309 1_555
Pd3_0 Yb3_3 2.927462 1_554
Pd3_0 Yb3_2 2.927462 1_555
Pd3_0 Yb0_0 2.927462 1_555
Pd3_0 Yb0_1 2.927462 1_554
Pd3_1 Yb1_0 2.800309 1_555
Pd3_1 Yb1_1 2.800309 1_555
Pd3_1 Yb3_2 2.927462 1_555
Pd3_1 Yb3_3 2.927462 1_555
Pd3_1 Yb0_0 2.927462 1_555
Pd3_1 Yb0_1 2.927462 1_555
Pd3_2 Yb1_2 2.800309 1_555
Pd3_2 Yb1_3 2.800309 1_554
Pd3_2 Yb3_1 2.927462 1_564
Pd3_2 Yb3_0 2.927462 1_565
Pd3_2 Yb0_2 2.927462 1_555
Pd3_2 Yb0_3 2.927462 1_554
Pd3_3 Yb1_2 2.800309 1_555
Pd3_3 Yb1_3 2.800309 1_555
Pd3_3 Yb3_1 2.927462 1_565
Pd3_3 Yb3_0 2.927462 1_565
Pd3_3 Yb0_2 2.927462 1_555
Pd3_3 Yb0_3 2.927462 1_555
Pd3_4 Yb1_5 2.800309 1_554
Pd3_4 Yb1_4 2.800309 1_555
Pd3_4 Yb3_7 2.927462 1_554
Pd3_4 Yb3_6 2.927462 1_555
Pd3_4 Yb0_5 2.927462 1_554
Pd3_4 Yb0_4 2.927462 1_555
Pd3_5 Yb1_4 2.800309 1_555
Pd3_5 Yb1_5 2.800309 1_555
Pd3_5 Yb3_7 2.927462 1_555
Pd3_5 Yb3_6 2.927462 1_555
Pd3_5 Yb0_5 2.927462 1_555
Pd3_5 Yb0_4 2.927462 1_555
Pd3_6 Yb1_7 2.800309 1_554
Pd3_6 Yb1_6 2.800309 1_555
Pd3_6 Yb3_4 2.927462 1_565
Pd3_6 Yb3_5 2.927462 1_564
Pd3_6 Yb0_7 2.927462 1_554
Pd3_6 Yb0_6 2.927462 1_555
Pd3_7 Yb1_7 2.800309 1_555
Pd3_7 Yb1_6 2.800309 1_555
Pd3_7 Yb3_4 2.927462 1_565
Pd3_7 Yb3_5 2.927462 1_565
Pd3_7 Yb0_6 2.927462 1_555
Pd3_7 Yb0_7 2.927462 1_555
