# generated using pymatgen
data_Na4ScZn(PO4)3
_symmetry_space_group_name_H-M   'P 1'
_cell_length_a   9.12757647
_cell_length_b   9.12757615
_cell_length_c   21.87579713
_cell_angle_alpha   90.00000000
_cell_angle_beta   90.00000000
_cell_angle_gamma   120.00000113
_symmetry_Int_Tables_number   1
_chemical_formula_structural   Na4ScZn(PO4)3
_chemical_formula_sum   'Na24 Sc6 Zn6 P18 O72'
_cell_volume   1578.35779305
_cell_formula_units_Z   6
loop_
 _symmetry_equiv_pos_site_id
 _symmetry_equiv_pos_as_xyz
  1  'x, y, z'
loop_
 _atom_site_type_symbol
 _atom_site_label
 _atom_site_symmetry_multiplicity
 _atom_site_fract_x
 _atom_site_fract_y
 _atom_site_fract_z
 _atom_site_occupancy
  Na  Na0  1  0.63808422  0.01088032  0.24731075  1
  Na  Na1  1  0.37279610  0.36191578  0.24731075  1
  Na  Na2  1  0.98911968  0.62720390  0.24731075  1
  Na  Na3  1  0.63808422  0.62720390  0.74731075  1
  Na  Na4  1  0.98911968  0.36191578  0.74731075  1
  Na  Na5  1  0.37279610  0.01088032  0.74731075  1
  Na  Na6  1  0.30475122  0.34421332  0.58064375  1
  Na  Na7  1  0.03946310  0.69524878  0.58064375  1
  Na  Na8  1  0.65578668  0.96053690  0.58064375  1
  Na  Na9  1  0.30475122  0.96053690  0.08064375  1
  Na  Na10  1  0.65578668  0.69524878  0.08064375  1
  Na  Na11  1  0.03946310  0.34421332  0.08064375  1
  Na  Na12  1  0.97141722  0.67754732  0.91397775  1
  Na  Na13  1  0.70612910  0.02858278  0.91397775  1
  Na  Na14  1  0.32245268  0.29387090  0.91397775  1
  Na  Na15  1  0.97141722  0.29387090  0.41397775  1
  Na  Na16  1  0.32245268  0.02858278  0.41397775  1
  Na  Na17  1  0.70612910  0.67754732  0.41397775  1
  Na  Na18  1  -0.00000000  -0.00000000  0.49512863  1
  Na  Na19  1  -0.00000000  -0.00000000  0.99512863  1
  Na  Na20  1  0.66666700  0.33333300  0.82846163  1
  Na  Na21  1  0.66666700  0.33333300  0.32846163  1
  Na  Na22  1  0.33333300  0.66666700  0.16179563  1
  Na  Na23  1  0.33333300  0.66666700  0.66179563  1
  Sc  Sc0  1  -0.00000000  -0.00000000  0.65019913  1
  Sc  Sc1  1  -0.00000000  -0.00000000  0.15019913  1
  Sc  Sc2  1  0.66666700  0.33333300  0.98353213  1
  Sc  Sc3  1  0.66666700  0.33333300  0.48353213  1
  Sc  Sc4  1  0.33333300  0.66666700  0.31686613  1
  Sc  Sc5  1  0.33333300  0.66666700  0.81686613  1
  Zn  Zn0  1  -0.00000000  -0.00000000  0.34390938  1
  Zn  Zn1  1  -0.00000000  -0.00000000  0.84390938  1
  Zn  Zn2  1  0.66666700  0.33333300  0.67724238  1
  Zn  Zn3  1  0.66666700  0.33333300  0.17724238  1
  Zn  Zn4  1  0.33333300  0.66666700  0.01057638  1
  Zn  Zn5  1  0.33333300  0.66666700  0.51057638  1
  P  P0  1  0.29975235  0.00058820  0.25153171  1
  P  P1  1  0.70083585  0.70024765  0.25153171  1
  P  P2  1  0.99941180  0.29916415  0.25153171  1
  P  P3  1  0.29975235  0.29916415  0.75153171  1
  P  P4  1  0.99941180  0.70024765  0.75153171  1
  P  P5  1  0.70083585  0.00058820  0.75153171  1
  P  P6  1  0.96641935  0.33392120  0.58486471  1
  P  P7  1  0.36750285  0.03358065  0.58486471  1
  P  P8  1  0.66607880  0.63249715  0.58486471  1
  P  P9  1  0.96641935  0.63249715  0.08486471  1
  P  P10  1  0.66607880  0.03358065  0.08486471  1
  P  P11  1  0.36750285  0.33392120  0.08486471  1
  P  P12  1  0.63308535  0.66725520  0.91819871  1
  P  P13  1  0.03416885  0.36691465  0.91819871  1
  P  P14  1  0.33274480  0.96583115  0.91819871  1
  P  P15  1  0.63308535  0.96583115  0.41819871  1
  P  P16  1  0.33274480  0.36691465  0.41819871  1
  P  P17  1  0.03416885  0.66725520  0.41819871  1
  O  O0  1  0.21839681  0.02507009  0.30929412  1
  O  O1  1  0.80667329  0.78160319  0.30929412  1
  O  O2  1  0.97492991  0.19332671  0.30929412  1
  O  O3  1  0.21839681  0.19332671  0.80929412  1
  O  O4  1  0.97492991  0.78160319  0.80929412  1
  O  O5  1  0.80667329  0.02507009  0.80929412  1
  O  O6  1  0.78887201  0.97665364  0.69461361  1
  O  O7  1  0.18778163  0.21112799  0.69461361  1
  O  O8  1  0.02334636  0.81221837  0.69461361  1
  O  O9  1  0.78887201  0.81221837  0.19461361  1
  O  O10  1  0.02334636  0.21112799  0.19461361  1
  O  O11  1  0.18778163  0.97665364  0.19461361  1
  O  O12  1  0.88506381  0.35840309  0.64262712  1
  O  O13  1  0.47334029  0.11493619  0.64262712  1
  O  O14  1  0.64159691  0.52665971  0.64262712  1
  O  O15  1  0.88506381  0.52665971  0.14262712  1
  O  O16  1  0.64159691  0.11493619  0.14262712  1
  O  O17  1  0.47334029  0.35840309  0.14262712  1
  O  O18  1  0.45553901  0.30998664  0.02794661  1
  O  O19  1  0.85444863  0.54446099  0.02794661  1
  O  O20  1  0.69001336  0.14555137  0.02794661  1
  O  O21  1  0.45553901  0.14555137  0.52794661  1
  O  O22  1  0.69001336  0.54446099  0.52794661  1
  O  O23  1  0.85444863  0.30998664  0.52794661  1
  O  O24  1  0.55172981  0.69173709  0.97596112  1
  O  O25  1  0.14000629  0.44827019  0.97596112  1
  O  O26  1  0.30826291  0.85999371  0.97596112  1
  O  O27  1  0.55172981  0.85999371  0.47596112  1
  O  O28  1  0.30826291  0.44827019  0.47596112  1
  O  O29  1  0.14000629  0.69173709  0.47596112  1
  O  O30  1  0.12220501  0.64332064  0.36128061  1
  O  O31  1  0.52111463  0.87779499  0.36128061  1
  O  O32  1  0.35667936  0.47888537  0.36128061  1
  O  O33  1  0.12220501  0.47888537  0.86128061  1
  O  O34  1  0.35667936  0.87779499  0.86128061  1
  O  O35  1  0.52111463  0.64332064  0.86128061  1
  O  O36  1  0.01157052  0.82356255  0.41340281  1
  O  O37  1  0.81199203  0.98842948  0.41340281  1
  O  O38  1  0.17643745  0.18800797  0.41340281  1
  O  O39  1  0.01157052  0.18800797  0.91340281  1
  O  O40  1  0.17643745  0.98842948  0.91340281  1
  O  O41  1  0.81199203  0.82356255  0.91340281  1
  O  O42  1  0.98039653  0.17014868  0.58743461  1
  O  O43  1  0.18975215  0.01960347  0.58743461  1
  O  O44  1  0.82985132  0.81024785  0.58743461  1
  O  O45  1  0.98039653  0.81024785  0.08743461  1
  O  O46  1  0.82985132  0.01960347  0.08743461  1
  O  O47  1  0.18975215  0.17014868  0.08743461  1
  O  O48  1  0.67823752  0.15689555  0.74673581  1
  O  O49  1  0.47865903  0.32176248  0.74673581  1
  O  O50  1  0.84310445  0.52134097  0.74673581  1
  O  O51  1  0.67823752  0.52134097  0.24673581  1
  O  O52  1  0.84310445  0.32176248  0.24673581  1
  O  O53  1  0.47865903  0.15689555  0.24673581  1
  O  O54  1  0.64706353  0.50348168  0.92076761  1
  O  O55  1  0.85641915  0.35293647  0.92076761  1
  O  O56  1  0.49651832  0.14358085  0.92076761  1
  O  O57  1  0.64706353  0.14358085  0.42076761  1
  O  O58  1  0.49651832  0.35293647  0.42076761  1
  O  O59  1  0.85641915  0.50348168  0.42076761  1
  O  O60  1  0.34490352  0.49022955  0.08006981  1
  O  O61  1  0.14532503  0.65509648  0.08006981  1
  O  O62  1  0.50977045  0.85467497  0.08006981  1
  O  O63  1  0.34490352  0.85467497  0.58006981  1
  O  O64  1  0.50977045  0.65509648  0.58006981  1
  O  O65  1  0.14532503  0.49022955  0.58006981  1
  O  O66  1  0.31372953  0.83681568  0.25410161  1
  O  O67  1  0.52308515  0.68627047  0.25410161  1
  O  O68  1  0.16318432  0.47691485  0.25410161  1
  O  O69  1  0.31372953  0.47691485  0.75410161  1
  O  O70  1  0.16318432  0.68627047  0.75410161  1
  O  O71  1  0.52308515  0.83681568  0.75410161  1
loop_
_geom_bond_atom_site_label_1
_geom_bond_atom_site_label_2
_geom_bond_distance
_geom_bond_site_symmetry_2
Na0 O53 2.415227 1_555
Na0 O16 2.473242 1_555
Na0 O52 2.498786 1_555
Na0 O66 2.570522 1_545
Na0 O67 2.606261 1_545
Na0 O31 2.744907 1_545
Na1 O51 2.415235 1_555
Na1 O17 2.473246 1_555
Na1 O53 2.498793 1_555
Na1 O67 2.570522 1_555
Na1 O68 2.606270 1_555
Na1 O32 2.744909 1_555
Na2 O52 2.415235 1_555
Na2 O15 2.473244 1_555
Na2 O51 2.498784 1_555
Na2 O68 2.570514 1_655
Na2 O66 2.606263 1_655
Na2 O30 2.744906 1_655
Na3 O49 2.415235 1_555
Na3 O14 2.473246 1_555
Na3 O50 2.498793 1_555
Na3 O69 2.570522 1_555
Na3 O71 2.606270 1_555
Na3 O35 2.744909 1_555
Na4 O50 2.415227 1_555
Na4 O12 2.473242 1_555
Na4 O48 2.498786 1_555
Na4 O70 2.570522 1_655
Na4 O69 2.606261 1_655
Na4 O33 2.744907 1_655
Na5 O48 2.415235 1_555
Na5 O13 2.473244 1_555
Na5 O49 2.498784 1_555
Na5 O71 2.570514 1_545
Na5 O70 2.606263 1_545
Na5 O34 2.744905 1_545
Na6 O65 2.415243 1_555
Na6 O28 2.473227 1_555
Na6 O64 2.498791 1_555
Na6 O42 2.570522 1_455
Na6 O43 2.606261 1_555
Na6 O7 2.744907 1_555
Na7 O63 2.415227 1_555
Na7 O29 2.473220 1_555
Na7 O65 2.498777 1_555
Na7 O43 2.570522 1_565
Na7 O44 2.606270 1_455
Na7 O8 2.744909 1_555
Na8 O64 2.415227 1_555
Na8 O27 2.473224 1_555
Na8 O63 2.498795 1_555
Na8 O44 2.570514 1_555
Na8 O42 2.606263 1_565
Na8 O6 2.744906 1_555
Na9 O61 2.415227 1_555
Na9 O26 2.473220 1_554
Na9 O62 2.498777 1_555
Na9 O45 2.570522 1_455
Na9 O47 2.606270 1_565
Na9 O11 2.744909 1_555
Na10 O62 2.415243 1_555
Na10 O24 2.473227 1_554
Na10 O60 2.498791 1_555
Na10 O46 2.570522 1_565
Na10 O45 2.606261 1_555
Na10 O9 2.744907 1_555
Na11 O60 2.415227 1_555
Na11 O25 2.473224 1_554
Na11 O61 2.498794 1_555
Na11 O47 2.570514 1_555
Na11 O46 2.606263 1_455
Na11 O10 2.744905 1_555
Na12 O41 2.415227 1_555
Na12 O4 2.473242 1_555
Na12 O40 2.498786 1_655
Na12 O54 2.570513 1_555
Na12 O55 2.606270 1_555
Na12 O19 2.744888 1_556
Na13 O39 2.415235 1_655
Na13 O5 2.473246 1_555
Na13 O41 2.498793 1_545
Na13 O55 2.570512 1_555
Na13 O56 2.606253 1_555
Na13 O20 2.744883 1_556
Na14 O40 2.415235 1_545
Na14 O3 2.473244 1_555
Na14 O39 2.498784 1_555
Na14 O56 2.570529 1_555
Na14 O54 2.606267 1_555
Na14 O18 2.744891 1_556
Na15 O37 2.415235 1_545
Na15 O2 2.473246 1_555
Na15 O38 2.498793 1_655
Na15 O57 2.570512 1_555
Na15 O59 2.606253 1_555
Na15 O23 2.744883 1_555
Na16 O38 2.415227 1_555
Na16 O0 2.473242 1_555
Na16 O36 2.498786 1_545
Na16 O58 2.570513 1_555
Na16 O57 2.606270 1_555
Na16 O21 2.744888 1_555
Na17 O36 2.415235 1_655
Na17 O1 2.473244 1_555
Na17 O37 2.498784 1_555
Na17 O59 2.570529 1_555
Na17 O58 2.606267 1_555
Na17 O22 2.744891 1_555
Na18 O38 2.443576 1_555
Na18 O36 2.443576 1_545
Na18 O37 2.443576 1_445
Na18 O44 2.607546 1_445
Na18 O42 2.607546 1_455
Na18 O43 2.607546 1_555
Na19 O39 2.443576 1_555
Na19 O41 2.443576 1_445
Na19 O40 2.443576 1_545
Na19 O45 2.607546 1_446
Na19 O47 2.607546 1_556
Na19 O46 2.607546 1_456
Na20 O50 2.443576 1_555
Na20 O48 2.443576 1_555
Na20 O49 2.443576 1_555
Na20 O56 2.607546 1_555
Na20 O54 2.607546 1_555
Na20 O55 2.607546 1_555
Na21 O51 2.443576 1_555
Na21 O53 2.443576 1_555
Na21 O52 2.443576 1_555
Na21 O57 2.607546 1_555
Na21 O59 2.607546 1_555
Na21 O58 2.607546 1_555
Na22 O62 2.443576 1_555
Na22 O60 2.443576 1_555
Na22 O61 2.443576 1_555
Na22 O68 2.607546 1_555
Na22 O66 2.607546 1_555
Na22 O67 2.607546 1_555
Na23 O63 2.443576 1_555
Na23 O65 2.443576 1_555
Na23 O64 2.443576 1_555
Na23 O69 2.607546 1_555
Na23 O71 2.607546 1_555
Na23 O70 2.607546 1_555
O0 P0 1.537523 1_555
O0 Zn0 2.035532 1_555
O1 P1 1.537523 1_555
O1 Zn0 2.035532 1_665
O2 P2 1.537523 1_555
O2 Zn0 2.035532 1_655
O3 P3 1.537523 1_555
O3 Zn1 2.035532 1_555
O4 P4 1.537523 1_555
O4 Zn1 2.035532 1_665
O5 P5 1.537523 1_555
O5 Zn1 2.035532 1_655
O6 P5 1.555418 1_565
O6 Sc0 2.071818 1_665
O7 P3 1.555418 1_555
O7 Sc0 2.071818 1_555
O8 P4 1.555418 1_455
O8 Sc0 2.071818 1_565
O9 P1 1.555418 1_555
O9 Sc1 2.071818 1_665
O10 P2 1.555418 1_455
O10 Sc1 2.071818 1_555
O11 P0 1.555418 1_565
O11 Sc1 2.071818 1_565
O12 P6 1.537523 1_555
O12 Zn2 2.035532 1_555
O13 P7 1.537523 1_555
O13 Zn2 2.035532 1_555
O14 P8 1.537523 1_555
O14 Zn2 2.035532 1_555
O15 P9 1.537523 1_555
O15 Zn3 2.035532 1_555
O16 P10 1.537523 1_555
O16 Zn3 2.035532 1_555
O17 P11 1.537523 1_555
O17 Zn3 2.035532 1_555
O18 P11 1.555418 1_555
O18 Sc2 2.071818 1_554
O19 P9 1.555418 1_555
O19 Sc2 2.071818 1_554
O20 P10 1.555418 1_555
O20 Sc2 2.071818 1_554
O21 P7 1.555418 1_555
O21 Sc3 2.071818 1_555
O22 P8 1.555418 1_555
O22 Sc3 2.071818 1_555
O23 P6 1.555418 1_555
O23 Sc3 2.071818 1_555
O24 P12 1.537523 1_555
O24 Zn4 2.035532 1_556
O25 P13 1.537523 1_555
O25 Zn4 2.035532 1_556
O26 P14 1.537523 1_555
O26 Zn4 2.035532 1_556
O27 P15 1.537523 1_555
O27 Zn5 2.035532 1_555
O28 P16 1.537523 1_555
O28 Zn5 2.035532 1_555
O29 P17 1.537523 1_555
O29 Zn5 2.035532 1_555
O30 P17 1.555418 1_555
O30 Sc4 2.071818 1_555
O31 P15 1.555418 1_555
O31 Sc4 2.071818 1_555
O32 P16 1.555418 1_555
O32 Sc4 2.071818 1_555
O33 P13 1.555418 1_555
O33 Sc5 2.071818 1_555
O34 P14 1.555418 1_555
O34 Sc5 2.071818 1_555
O35 P12 1.555418 1_555
O35 Sc5 2.071818 1_555
O36 P17 1.543804 1_555
O36 Zn0 2.255184 1_565
O37 P15 1.543813 1_555
O37 Zn0 2.255184 1_665
O38 P16 1.543810 1_555
O38 Zn0 2.255184 1_555
O39 P13 1.543813 1_555
O39 Zn1 2.255184 1_555
O40 P14 1.543804 1_555
O40 Zn1 2.255184 1_565
O41 P12 1.543810 1_555
O41 Zn1 2.255184 1_665
O42 P6 1.563557 1_555
O42 Sc0 2.146404 1_655
O43 P7 1.563566 1_555
O43 Sc0 2.146404 1_555
O44 P8 1.563562 1_555
O44 Sc0 2.146404 1_665
O45 P9 1.563566 1_555
O45 Sc1 2.146404 1_665
O46 P10 1.563557 1_555
O46 Sc1 2.146404 1_655
O47 P11 1.563562 1_555
O47 Sc1 2.146404 1_555
O48 P5 1.543804 1_555
O48 Zn2 2.255184 1_555
O49 P3 1.543813 1_555
O49 Zn2 2.255184 1_555
O50 P4 1.543810 1_555
O50 Zn2 2.255184 1_555
O51 P1 1.543813 1_555
O51 Zn3 2.255184 1_555
O52 P2 1.543804 1_555
O52 Zn3 2.255184 1_555
O53 P0 1.543810 1_555
O53 Zn3 2.255184 1_555
O54 P12 1.563571 1_555
O54 Sc2 2.146404 1_555
O55 P13 1.563552 1_655
O55 Sc2 2.146404 1_555
O56 P14 1.563560 1_545
O56 Sc2 2.146404 1_555
O57 P15 1.563552 1_545
O57 Sc3 2.146404 1_555
O58 P16 1.563571 1_555
O58 Sc3 2.146404 1_555
O59 P17 1.563560 1_655
O59 Sc3 2.146404 1_555
O60 P11 1.543817 1_555
O60 Zn4 2.255184 1_555
O61 P9 1.543799 1_455
O61 Zn4 2.255184 1_555
O62 P10 1.543806 1_565
O62 Zn4 2.255184 1_555
O63 P7 1.543799 1_565
O63 Zn5 2.255184 1_555
O64 P8 1.543817 1_555
O64 Zn5 2.255184 1_555
O65 P6 1.543806 1_455
O65 Zn5 2.255184 1_555
O66 P0 1.563557 1_565
O66 Sc4 2.146404 1_555
O67 P1 1.563566 1_555
O67 Sc4 2.146404 1_555
O68 P2 1.563562 1_455
O68 Sc4 2.146404 1_555
O69 P3 1.563566 1_555
O69 Sc5 2.146404 1_555
O70 P4 1.563557 1_455
O70 Sc5 2.146404 1_555
O71 P5 1.563562 1_565
O71 Sc5 2.146404 1_555
