# generated using pymatgen
data_Ba(Ag3O2)2
_symmetry_space_group_name_H-M   'P 1'
_cell_length_a   6.64008391
_cell_length_b   9.11018522
_cell_length_c   12.86301610
_cell_angle_alpha   90.00000000
_cell_angle_beta   90.00000000
_cell_angle_gamma   90.00000000
_symmetry_Int_Tables_number   1
_chemical_formula_structural   Ba(Ag3O2)2
_chemical_formula_sum   'Ba4 Ag24 O16'
_cell_volume   778.11464176
_cell_formula_units_Z   4
loop_
 _symmetry_equiv_pos_site_id
 _symmetry_equiv_pos_as_xyz
  1  'x, y, z'
loop_
 _atom_site_type_symbol
 _atom_site_label
 _atom_site_symmetry_multiplicity
 _atom_site_fract_x
 _atom_site_fract_y
 _atom_site_fract_z
 _atom_site_occupancy
  Ba  Ba0  1  0.25000000  0.87754033  0.50000000  1
  Ba  Ba1  1  0.25000000  0.62245967  -0.00000000  1
  Ba  Ba2  1  0.75000000  0.12245967  0.50000000  1
  Ba  Ba3  1  0.75000000  0.37754033  -0.00000000  1
  Ag  Ag0  1  0.29284088  0.23789227  0.37420835  1
  Ag  Ag1  1  0.07597610  0.53449920  0.26314793  1
  Ag  Ag2  1  0.42402390  0.96550080  0.76314793  1
  Ag  Ag3  1  0.07597610  0.96550080  0.23685207  1
  Ag  Ag4  1  0.92402390  0.03449920  0.76314793  1
  Ag  Ag5  1  0.92402390  0.46550080  0.73685207  1
  Ag  Ag6  1  0.57597610  0.03449920  0.23685207  1
  Ag  Ag7  1  0.57597610  0.46550080  0.26314793  1
  Ag  Ag8  1  0.39853888  0.75000000  0.25000000  1
  Ag  Ag9  1  0.10146112  0.75000000  0.75000000  1
  Ag  Ag10  1  0.60146112  0.25000000  0.75000000  1
  Ag  Ag11  1  0.89853888  0.25000000  0.25000000  1
  Ag  Ag12  1  0.20715912  0.23789227  0.62579165  1
  Ag  Ag13  1  0.20715912  0.26210773  0.87420835  1
  Ag  Ag14  1  0.70715912  0.76210773  0.62579165  1
  Ag  Ag15  1  0.70715912  0.73789227  0.87420835  1
  Ag  Ag16  1  0.79284088  0.76210773  0.37420835  1
  Ag  Ag17  1  0.79284088  0.73789227  0.12579165  1
  Ag  Ag18  1  0.50000000  0.50000000  0.50000000  1
  Ag  Ag19  1  0.50000000  -0.00000000  -0.00000000  1
  Ag  Ag20  1  -0.00000000  0.50000000  0.50000000  1
  Ag  Ag21  1  -0.00000000  -0.00000000  -0.00000000  1
  Ag  Ag22  1  0.42402390  0.53449920  0.73685207  1
  Ag  Ag23  1  0.29284088  0.26210773  0.12579165  1
  O  O0  1  0.57726754  0.33588811  0.39434905  1
  O  O1  1  0.57726754  0.16411189  0.10565095  1
  O  O2  1  0.92273246  0.33588811  0.60565095  1
  O  O3  1  0.92273246  0.16411189  0.89434905  1
  O  O4  1  0.07726754  0.66411189  0.39434905  1
  O  O5  1  0.07726754  0.83588811  0.10565095  1
  O  O6  1  0.05177733  0.09137775  0.37046152  1
  O  O7  1  0.05177733  0.40862225  0.12953848  1
  O  O8  1  0.44822267  0.09137775  0.62953848  1
  O  O9  1  0.44822267  0.40862225  0.87046152  1
  O  O10  1  0.94822267  0.90862225  0.62953848  1
  O  O11  1  0.94822267  0.59137775  0.87046152  1
  O  O12  1  0.55177733  0.90862225  0.37046152  1
  O  O13  1  0.55177733  0.59137775  0.12953848  1
  O  O14  1  0.42273246  0.66411189  0.60565095  1
  O  O15  1  0.42273246  0.83588811  0.89434905  1
loop_
_geom_bond_atom_site_label_1
_geom_bond_atom_site_label_2
_geom_bond_distance
_geom_bond_site_symmetry_2
Ba0 O10 2.621433 1_455
Ba0 O12 2.621433 1_555
Ba0 O4 2.634948 1_555
Ba0 O14 2.634948 1_555
Ba0 O6 2.881652 1_565
Ba0 O8 2.881652 1_565
Ba1 O11 2.621433 1_454
Ba1 O13 2.621433 1_555
Ba1 O5 2.634948 1_555
Ba1 O15 2.634948 1_554
Ba1 O9 2.881652 1_554
Ba1 O7 2.881652 1_555
Ba2 O6 2.621433 1_655
Ba2 O8 2.621433 1_555
Ba2 O0 2.634948 1_555
Ba2 O2 2.634948 1_555
Ba2 O12 2.881652 1_545
Ba2 O10 2.881652 1_545
Ba3 O7 2.621433 1_655
Ba3 O9 2.621433 1_554
Ba3 O1 2.634948 1_555
Ba3 O3 2.634948 1_554
Ba3 O13 2.881652 1_555
Ba3 O11 2.881652 1_554
Ag0 O6 2.084737 1_555
Ag0 O0 2.104997 1_555
Ag1 O4 2.059730 1_555
Ag1 O7 2.072327 1_555
Ag2 O15 2.059730 1_555
Ag2 O8 2.072327 1_565
Ag3 O5 2.059730 1_555
Ag3 O6 2.072327 1_565
Ag4 O3 2.059730 1_555
Ag4 O10 2.072327 1_545
Ag5 O2 2.059730 1_555
Ag5 O11 2.072327 1_555
Ag6 O1 2.059730 1_555
Ag6 O12 2.072327 1_545
Ag7 O0 2.059730 1_555
Ag7 O13 2.072327 1_555
Ag8 O13 2.350433 1_555
Ag8 O12 2.350433 1_555
Ag9 O11 2.350433 1_455
Ag9 O10 2.350433 1_455
Ag10 O8 2.350433 1_555
Ag10 O9 2.350433 1_555
Ag11 O6 2.350433 1_655
Ag11 O7 2.350433 1_655
Ag12 O8 2.084737 1_555
Ag12 O2 2.104997 1_455
Ag13 O9 2.084737 1_555
Ag13 O3 2.104997 1_455
Ag14 O10 2.084737 1_555
Ag14 O14 2.104997 1_555
Ag15 O11 2.084737 1_555
Ag15 O15 2.104997 1_555
Ag16 O12 2.084737 1_555
Ag16 O4 2.104997 1_655
Ag17 O13 2.084737 1_555
Ag17 O5 2.104997 1_655
Ag18 O0 2.084558 1_555
Ag18 O14 2.084558 1_555
Ag19 O1 2.084558 1_555
Ag19 O15 2.084558 1_544
Ag20 O4 2.084558 1_555
Ag20 O2 2.084558 1_455
Ag21 O5 2.084558 1_545
Ag21 O3 2.084558 1_454
Ag22 O14 2.059730 1_555
Ag22 O9 2.072327 1_555
Ag23 O7 2.084737 1_555
Ag23 O1 2.104997 1_555
