# generated using pymatgen
data_In7Cl9
_symmetry_space_group_name_H-M   'P 1'
_cell_length_a   12.23176280
_cell_length_b   12.23176280
_cell_length_c   12.23176280
_cell_angle_alpha   90.00000000
_cell_angle_beta   90.00000000
_cell_angle_gamma   90.00000000
_symmetry_Int_Tables_number   1
_chemical_formula_structural   In7Cl9
_chemical_formula_sum   'In28 Cl36'
_cell_volume   1830.06768234
_cell_formula_units_Z   4
loop_
 _symmetry_equiv_pos_site_id
 _symmetry_equiv_pos_as_xyz
  1  'x, y, z'
loop_
 _atom_site_type_symbol
 _atom_site_label
 _atom_site_symmetry_multiplicity
 _atom_site_fract_x
 _atom_site_fract_y
 _atom_site_fract_z
 _atom_site_occupancy
  In  In0  1  0.81806715  0.43170652  0.32755390  1
  In  In1  1  0.31806715  0.06829348  0.67244610  1
  In  In2  1  0.18193285  0.93170652  0.17244610  1
  In  In3  1  0.06829348  0.67244610  0.31806715  1
  In  In4  1  0.17244610  0.18193285  0.93170652  1
  In  In5  1  0.67244610  0.31806715  0.06829348  1
  In  In6  1  0.43170652  0.32755390  0.81806715  1
  In  In7  1  0.32755390  0.81806715  0.43170652  1
  In  In8  1  0.93170652  0.17244610  0.18193285  1
  In  In9  1  0.56829348  0.82755390  0.68193285  1
  In  In10  1  0.82755390  0.68193285  0.56829348  1
  In  In11  1  0.68193285  0.56829348  0.82755390  1
  In  In12  1  0.18193285  0.56829348  0.67244610  1
  In  In13  1  0.68193285  0.93170652  0.32755390  1
  In  In14  1  0.81806715  0.06829348  0.82755390  1
  In  In15  1  0.93170652  0.32755390  0.68193285  1
  In  In16  1  0.82755390  0.81806715  0.06829348  1
  In  In17  1  0.32755390  0.68193285  0.93170652  1
  In  In18  1  0.56829348  0.67244610  0.18193285  1
  In  In19  1  0.67244610  0.18193285  0.56829348  1
  In  In20  1  0.06829348  0.82755390  0.81806715  1
  In  In21  1  0.43170652  0.17244610  0.31806715  1
  In  In22  1  0.17244610  0.31806715  0.43170652  1
  In  In23  1  0.31806715  0.43170652  0.17244610  1
  In  In24  1  0.50000000  0.50000000  0.50000000  1
  In  In25  1  0.50000000  0.00000000  0.00000000  1
  In  In26  1  -0.00000000  0.00000000  0.50000000  1
  In  In27  1  -0.00000000  0.50000000  0.00000000  1
  Cl  Cl0  1  0.94990462  0.19644830  0.45557074  1
  Cl  Cl1  1  0.44990462  0.30355170  0.54442926  1
  Cl  Cl2  1  0.05009538  0.69644830  0.04442926  1
  Cl  Cl3  1  0.30355170  0.54442926  0.44990462  1
  Cl  Cl4  1  0.04442926  0.05009538  0.69644830  1
  Cl  Cl5  1  0.54442926  0.44990462  0.30355170  1
  Cl  Cl6  1  0.19644830  0.45557074  0.94990462  1
  Cl  Cl7  1  0.45557074  0.94990462  0.19644830  1
  Cl  Cl8  1  0.69644830  0.04442926  0.05009538  1
  Cl  Cl9  1  0.80355170  0.95557074  0.55009538  1
  Cl  Cl10  1  0.95557074  0.55009538  0.80355170  1
  Cl  Cl11  1  0.55009538  0.80355170  0.95557074  1
  Cl  Cl12  1  0.05009538  0.80355170  0.54442926  1
  Cl  Cl13  1  0.55009538  0.69644830  0.45557074  1
  Cl  Cl14  1  0.94990462  0.30355170  0.95557074  1
  Cl  Cl15  1  0.83398699  0.66601301  0.33398699  1
  Cl  Cl16  1  0.69644830  0.45557074  0.55009538  1
  Cl  Cl17  1  0.45557074  0.55009538  0.69644830  1
  Cl  Cl18  1  0.80355170  0.54442926  0.05009538  1
  Cl  Cl19  1  0.54442926  0.05009538  0.80355170  1
  Cl  Cl20  1  0.30355170  0.95557074  0.94990462  1
  Cl  Cl21  1  0.19644830  0.04442926  0.44990462  1
  Cl  Cl22  1  0.04442926  0.44990462  0.19644830  1
  Cl  Cl23  1  0.44990462  0.19644830  0.04442926  1
  Cl  Cl24  1  0.16601301  0.33398699  0.66601301  1
  Cl  Cl25  1  0.33398699  0.66601301  0.16601301  1
  Cl  Cl26  1  0.66601301  0.16601301  0.33398699  1
  Cl  Cl27  1  0.83398699  0.83398699  0.83398699  1
  Cl  Cl28  1  -0.00000000  0.00000000  0.00000000  1
  Cl  Cl29  1  0.50000000  0.00000000  0.50000000  1
  Cl  Cl30  1  0.50000000  0.50000000  0.00000000  1
  Cl  Cl31  1  -0.00000000  0.50000000  0.50000000  1
  Cl  Cl32  1  0.16601301  0.16601301  0.16601301  1
  Cl  Cl33  1  0.33398699  0.83398699  0.66601301  1
  Cl  Cl34  1  0.66601301  0.33398699  0.83398699  1
  Cl  Cl35  1  0.95557074  0.94990462  0.30355170  1
loop_
_geom_bond_atom_site_label_1
_geom_bond_atom_site_label_2
_geom_bond_distance
_geom_bond_site_symmetry_2
Cl0 In26 2.538656 1_655
Cl0 In22 3.115749 1_655
Cl0 In15 3.207420 1_555
Cl1 In24 2.538656 1_555
Cl1 In19 3.115749 1_555
Cl1 In21 3.207420 1_555
Cl2 In27 2.538656 1_555
Cl2 In16 3.115749 1_455
Cl2 In20 3.207420 1_554
Cl3 In24 2.538656 1_555
Cl3 In12 3.115749 1_555
Cl3 In22 3.207420 1_555
Cl4 In26 2.538656 1_555
Cl4 In20 3.115749 1_545
Cl4 In14 3.207420 1_455
Cl5 In24 2.538656 1_555
Cl5 In18 3.115749 1_555
Cl5 In23 3.207420 1_555
Cl6 In27 2.538656 1_556
Cl6 In23 3.115749 1_556
Cl6 In17 3.207420 1_555
Cl7 In25 2.538656 1_565
Cl7 In21 3.115749 1_565
Cl7 In13 3.207420 1_555
Cl8 In25 2.538656 1_555
Cl8 In14 3.115749 1_554
Cl8 In16 3.207420 1_545
Cl9 In26 2.538656 1_665
Cl9 In13 3.115749 1_555
Cl9 In19 3.207420 1_565
Cl10 In27 2.538656 1_656
Cl10 In15 3.115749 1_555
Cl10 In12 3.207420 1_655
Cl11 In25 2.538656 1_566
Cl11 In17 3.115749 1_555
Cl11 In18 3.207420 1_556
Cl12 In26 2.538656 1_565
Cl12 In10 3.115749 1_455
Cl12 In3 3.207420 1_555
Cl13 In24 2.538656 1_555
Cl13 In7 3.115749 1_555
Cl13 In9 3.207420 1_555
Cl14 In27 2.538656 1_656
Cl14 In4 3.115749 1_655
Cl14 In8 3.207420 1_556
Cl15 In3 2.873667 1_655
Cl15 In0 2.873667 1_555
Cl15 In10 2.873667 1_555
Cl16 In24 2.538656 1_555
Cl16 In0 3.115749 1_555
Cl16 In10 3.207420 1_555
Cl17 In24 2.538656 1_555
Cl17 In6 3.115749 1_555
Cl17 In11 3.207420 1_555
Cl18 In27 2.538656 1_655
Cl18 In11 3.115749 1_554
Cl18 In5 3.207420 1_555
Cl19 In25 2.538656 1_556
Cl19 In9 3.115749 1_545
Cl19 In1 3.207420 1_555
Cl20 In25 2.538656 1_566
Cl20 In2 3.115749 1_556
Cl20 In4 3.207420 1_565
Cl21 In26 2.538656 1_555
Cl21 In1 3.115749 1_555
Cl21 In7 3.207420 1_545
Cl22 In27 2.538656 1_555
Cl22 In3 3.115749 1_555
Cl22 In0 3.207420 1_455
Cl23 In25 2.538656 1_555
Cl23 In5 3.115749 1_555
Cl23 In6 3.207420 1_554
Cl24 In12 2.873667 1_555
Cl24 In22 2.873667 1_555
Cl24 In15 2.873667 1_455
Cl25 In18 2.873667 1_555
Cl25 In17 2.873667 1_554
Cl25 In23 2.873667 1_555
Cl26 In19 2.873667 1_555
Cl26 In21 2.873667 1_555
Cl26 In13 2.873667 1_545
Cl27 In14 2.873667 1_565
Cl27 In16 2.873667 1_556
Cl27 In20 2.873667 1_655
Cl28 In2 3.177934 1_545
Cl28 In4 3.177934 1_554
Cl28 In8 3.177934 1_455
Cl28 In14 3.177934 1_454
Cl28 In16 3.177934 1_445
Cl28 In20 3.177934 1_544
Cl29 In19 3.177934 1_555
Cl29 In1 3.177934 1_555
Cl29 In13 3.177934 1_545
Cl29 In7 3.177934 1_545
Cl29 In21 3.177934 1_555
Cl29 In9 3.177934 1_545
Cl30 In5 3.177934 1_555
Cl30 In18 3.177934 1_555
Cl30 In6 3.177934 1_554
Cl30 In17 3.177934 1_554
Cl30 In23 3.177934 1_555
Cl30 In11 3.177934 1_554
Cl31 In3 3.177934 1_555
Cl31 In12 3.177934 1_555
Cl31 In22 3.177934 1_555
Cl31 In15 3.177934 1_455
Cl31 In0 3.177934 1_455
Cl31 In10 3.177934 1_455
Cl32 In8 2.873667 1_455
Cl32 In2 2.873667 1_545
Cl32 In4 2.873667 1_554
Cl33 In1 2.873667 1_565
Cl33 In9 2.873667 1_555
Cl33 In7 2.873667 1_555
Cl34 In5 2.873667 1_556
Cl34 In6 2.873667 1_555
Cl34 In11 2.873667 1_555
Cl35 In26 2.538656 1_665
Cl35 In8 3.115749 1_565
Cl35 In2 3.207420 1_655
