# generated using pymatgen
data_SrMgSi2
_symmetry_space_group_name_H-M   'P 1'
_cell_length_a   4.46055814
_cell_length_b   11.37030616
_cell_length_c   14.37672762
_cell_angle_alpha   89.99931581
_cell_angle_beta   90.00000537
_cell_angle_gamma   90.00000153
_symmetry_Int_Tables_number   1
_chemical_formula_structural   SrMgSi2
_chemical_formula_sum   'Sr8 Mg8 Si16'
_cell_volume   729.15760189
_cell_formula_units_Z   8
loop_
 _symmetry_equiv_pos_site_id
 _symmetry_equiv_pos_as_xyz
  1  'x, y, z'
loop_
 _atom_site_type_symbol
 _atom_site_label
 _atom_site_symmetry_multiplicity
 _atom_site_fract_x
 _atom_site_fract_y
 _atom_site_fract_z
 _atom_site_occupancy
  Sr  Sr0  1  0.24999968  0.52224844  0.19497394  1
  Sr  Sr1  1  0.25000050  0.73930358  0.93817399  1
  Sr  Sr2  1  0.74999997  0.26070176  0.06182670  1
  Sr  Sr3  1  0.75000024  0.23914387  0.56172646  1
  Sr  Sr4  1  0.24999916  0.76085618  0.43827383  1
  Sr  Sr5  1  0.25000017  0.97778390  0.69471725  1
  Sr  Sr6  1  0.74999996  0.02221613  0.30528439  1
  Sr  Sr7  1  0.74999997  0.47775030  0.80502248  1
  Mg  Mg0  1  0.25000027  0.44044221  0.44067035  1
  Mg  Mg1  1  0.75000032  0.55955484  0.55932856  1
  Mg  Mg2  1  0.75000015  0.94049697  0.05934550  1
  Mg  Mg3  1  0.25000010  0.05950475  0.94065418  1
  Mg  Mg4  1  0.25000009  0.68035184  0.68948633  1
  Mg  Mg5  1  0.74999997  0.31964871  0.31051341  1
  Mg  Mg6  1  0.75000009  0.18030219  0.81043113  1
  Mg  Mg7  1  0.24999998  0.81969771  0.18956922  1
  Si  Si0  1  0.75000004  0.95307074  0.86795703  1
  Si  Si1  1  0.25000010  0.45306613  0.63194893  1
  Si  Si2  1  0.75000004  0.54693114  0.36805010  1
  Si  Si3  1  0.25000001  0.02941010  0.47130535  1
  Si  Si4  1  0.25000006  0.04692966  0.13204400  1
  Si  Si5  1  0.25000008  0.27580674  0.72348575  1
  Si  Si6  1  0.74999970  0.72419186  0.27651435  1
  Si  Si7  1  0.75000001  0.77585308  0.77639103  1
  Si  Si8  1  0.25000002  0.21038275  0.39313379  1
  Si  Si9  1  0.74999991  0.97058826  0.52869720  1
  Si  Si10  1  0.74999986  0.52945170  0.02876902  1
  Si  Si11  1  0.24999993  0.47054985  0.97123053  1
  Si  Si12  1  0.25000003  0.28954089  0.89305415  1
  Si  Si13  1  0.74999971  0.78961483  0.60686640  1
  Si  Si14  1  0.74999999  0.71046104  0.10694534  1
  Si  Si15  1  0.24999992  0.22414785  0.22360933  1
loop_
_geom_bond_atom_site_label_1
_geom_bond_atom_site_label_2
_geom_bond_distance
_geom_bond_site_symmetry_2
Mg0 Si8 2.703657 1_555
Mg0 Si2 2.744121 1_555
Mg0 Si2 2.744122 1_455
Mg0 Si1 2.753705 1_555
Mg0 Sr3 3.638918 1_555
Mg0 Sr3 3.638918 1_455
Mg0 Sr4 3.643367 1_555
Mg0 Sr0 3.652717 1_555
Mg1 Si13 2.703667 1_555
Mg1 Si1 2.744120 1_655
Mg1 Si1 2.744122 1_555
Mg1 Si2 2.753703 1_555
Mg1 Sr4 3.638927 1_655
Mg1 Sr4 3.638933 1_555
Mg1 Sr3 3.643334 1_555
Mg1 Sr7 3.652677 1_555
Mg2 Si14 2.703612 1_555
Mg2 Si4 2.744278 1_665
Mg2 Si4 2.744279 1_565
Mg2 Si0 2.755250 1_554
Mg2 Sr1 3.638986 1_554
Mg2 Sr1 3.638989 1_654
Mg2 Sr2 3.641002 1_565
Mg2 Sr6 3.655858 1_565
Mg3 Si12 2.703615 1_555
Mg3 Si0 2.744278 1_545
Mg3 Si0 2.744278 1_445
Mg3 Si4 2.755270 1_556
Mg3 Sr2 3.639020 1_556
Mg3 Sr2 3.639021 1_456
Mg3 Sr1 3.640960 1_545
Mg3 Sr5 3.655835 1_545
Mg4 Si1 2.713477 1_555
Mg4 Si7 2.777466 1_555
Mg4 Si7 2.777467 1_455
Mg4 Si13 2.815746 1_555
Mg4 Si13 2.815748 1_455
Mg4 Sr5 3.382731 1_555
Mg4 Sr7 3.611072 1_555
Mg4 Sr7 3.611073 1_455
Mg4 Sr1 3.637614 1_555
Mg4 Sr4 3.725796 1_555
Mg5 Si2 2.713439 1_555
Mg5 Si15 2.777461 1_655
Mg5 Si15 2.777461 1_555
Mg5 Si8 2.815764 1_555
Mg5 Si8 2.815765 1_655
Mg5 Sr6 3.382736 1_555
Mg5 Sr0 3.611081 1_655
Mg5 Sr0 3.611082 1_555
Mg5 Sr2 3.637590 1_555
Mg5 Sr3 3.725805 1_555
Mg6 Si0 2.712820 1_545
Mg6 Si5 2.777733 1_555
Mg6 Si5 2.777733 1_655
Mg6 Si12 2.815656 1_655
Mg6 Si12 2.815657 1_555
Mg6 Sr7 3.382969 1_555
Mg6 Sr5 3.611670 1_545
Mg6 Sr5 3.611671 1_645
Mg6 Sr3 3.637608 1_555
Mg6 Sr2 3.728076 1_556
Mg7 Si4 2.712823 1_565
Mg7 Si6 2.777736 1_555
Mg7 Si6 2.777738 1_455
Mg7 Si14 2.815651 1_455
Mg7 Si14 2.815652 1_555
Mg7 Sr0 3.382981 1_555
Mg7 Sr6 3.611680 1_565
Mg7 Sr6 3.611680 1_465
Mg7 Sr4 3.637607 1_555
Mg7 Sr1 3.728056 1_554
Si0 Si7 2.406933 1_555
Si0 Sr5 3.355038 1_555
Si0 Sr5 3.355039 1_655
Si0 Sr1 3.449776 1_555
Si0 Sr1 3.449779 1_655
Si1 Si5 2.407074 1_555
Si1 Sr7 3.353241 1_555
Si1 Sr7 3.353242 1_455
Si1 Sr3 3.451060 1_455
Si1 Sr3 3.451061 1_555
Si2 Si6 2.407079 1_555
Si2 Sr0 3.353267 1_655
Si2 Sr0 3.353269 1_555
Si2 Sr4 3.451085 1_655
Si2 Sr4 3.451090 1_555
Si3 Si8 2.344606 1_555
Si3 Si9 2.470274 1_545
Si3 Si9 2.470275 1_445
Si3 Sr4 3.090252 1_545
Si3 Sr5 3.265125 1_545
Si3 Sr6 3.267696 1_455
Si3 Sr6 3.267696 1_555
Si3 Sr3 3.514411 1_455
Si3 Sr3 3.514412 1_555
Si4 Sr6 3.355044 1_555
Si4 Sr6 3.355045 1_455
Si4 Sr2 3.449818 1_555
Si4 Sr2 3.449819 1_455
Si5 Sr3 3.249033 1_455
Si5 Sr3 3.249034 1_555
Si5 Sr7 3.408912 1_555
Si5 Sr7 3.408913 1_455
Si5 Sr5 3.413763 1_545
Si6 Sr4 3.249036 1_655
Si6 Sr4 3.249039 1_555
Si6 Sr0 3.408930 1_555
Si6 Sr0 3.408930 1_655
Si6 Sr6 3.413782 1_565
Si7 Sr1 3.249104 1_555
Si7 Sr1 3.249106 1_655
Si7 Sr5 3.409474 1_555
Si7 Sr5 3.409475 1_655
Si7 Sr7 3.414418 1_555
Si8 Sr3 3.309979 1_455
Si8 Sr3 3.309980 1_555
Si8 Sr6 3.338691 1_555
Si8 Sr6 3.338691 1_455
Si9 Sr3 3.090266 1_565
Si9 Sr6 3.265141 1_565
Si9 Sr5 3.267686 1_555
Si9 Sr5 3.267687 1_655
Si9 Sr4 3.514408 1_655
Si9 Sr4 3.514412 1_555
Si10 Si14 2.345028 1_555
Si10 Si11 2.471231 1_554
Si10 Si11 2.471232 1_654
Si10 Sr2 3.092501 1_555
Si10 Sr0 3.269629 1_655
Si10 Sr0 3.269630 1_555
Si10 Sr7 3.270025 1_554
Si10 Sr1 3.516225 1_554
Si10 Sr1 3.516229 1_654
Si11 Si12 2.345025 1_555
Si11 Sr1 3.092541 1_555
Si11 Sr7 3.269661 1_455
Si11 Sr7 3.269662 1_555
Si11 Sr0 3.269975 1_556
Si11 Sr2 3.516204 1_456
Si11 Sr2 3.516204 1_556
Si12 Si5 2.442837 1_555
Si12 Sr2 3.311956 1_556
Si12 Sr2 3.311956 1_456
Si12 Sr7 3.339975 1_555
Si12 Sr7 3.339976 1_455
Si13 Si9 2.344597 1_555
Si13 Si7 2.442225 1_555
Si13 Sr4 3.309975 1_655
Si13 Sr4 3.309978 1_555
Si13 Sr5 3.338715 1_555
Si13 Sr5 3.338718 1_655
Si14 Si6 2.442843 1_555
Si14 Sr1 3.311946 1_554
Si14 Sr1 3.311949 1_654
Si14 Sr0 3.339981 1_655
Si14 Sr0 3.339983 1_555
Si15 Si4 2.406933 1_555
Si15 Si8 2.442225 1_555
Si15 Sr2 3.249108 1_455
Si15 Sr2 3.249108 1_555
Si15 Sr6 3.409488 1_455
Si15 Sr6 3.409488 1_555
Si15 Sr0 3.414400 1_555
