# generated using pymatgen
data_KCN
_symmetry_space_group_name_H-M   'P 1'
_cell_length_a   3.95768825
_cell_length_b   3.95768825
_cell_length_c   3.95998018
_cell_angle_alpha   88.87418197
_cell_angle_beta   88.87418197
_cell_angle_gamma   86.96775934
_symmetry_Int_Tables_number   1
_chemical_formula_structural   KCN
_chemical_formula_sum   'K1 C1 N1'
_cell_volume   61.91678739
_cell_formula_units_Z   1
loop_
 _symmetry_equiv_pos_site_id
 _symmetry_equiv_pos_as_xyz
  1  'x, y, z'
loop_
 _atom_site_type_symbol
 _atom_site_label
 _atom_site_symmetry_multiplicity
 _atom_site_fract_x
 _atom_site_fract_y
 _atom_site_fract_z
 _atom_site_occupancy
  K  K0  1  0.01781500  0.01781500  0.03274500  1
  C  C0  1  0.57449000  0.57449000  0.63680700  1
  N  N0  1  0.40869500  0.40869600  0.46644800  1
loop_
_geom_bond_atom_site_label_1
_geom_bond_atom_site_label_2
_geom_bond_distance
_geom_bond_site_symmetry_2
K0 N0 2.863208 1_555
K0 N0 3.129820 1_554
K0 N0 3.271308 1_545
K0 N0 3.271312 1_455
C0 N0 1.181757 1_555
C0 K0 3.026062 1_666
C0 K0 3.154997 1_566
C0 K0 3.154997 1_656
C0 K0 3.445967 1_665
