# generated using pymatgen
data_Ce3Sn7
_symmetry_space_group_name_H-M   'P 1'
_cell_length_a   4.57738084
_cell_length_b   4.64156202
_cell_length_c   13.18240275
_cell_angle_alpha   90.00000000
_cell_angle_beta   100.05769004
_cell_angle_gamma   90.00000000
_symmetry_Int_Tables_number   1
_chemical_formula_structural   Ce3Sn7
_chemical_formula_sum   'Ce3 Sn7'
_cell_volume   275.77183454
_cell_formula_units_Z   1
loop_
 _symmetry_equiv_pos_site_id
 _symmetry_equiv_pos_as_xyz
  1  'x, y, z'
loop_
 _atom_site_type_symbol
 _atom_site_label
 _atom_site_symmetry_multiplicity
 _atom_site_fract_x
 _atom_site_fract_y
 _atom_site_fract_z
 _atom_site_occupancy
  Ce  Ce0  1  0.18382176  -0.00000000  0.36614499  1
  Ce  Ce1  1  0.81607519  -0.00000000  0.63379017  1
  Ce  Ce2  1  0.00009427  -0.00000000  0.00013454  1
  Sn  Sn0  1  0.28778803  0.50000000  0.57625933  1
  Sn  Sn1  1  0.71206828  0.50000000  0.42352920  1
  Sn  Sn2  1  0.09395429  0.50000000  0.18863540  1
  Sn  Sn3  1  0.50005929  0.50000000  0.00000492  1
  Sn  Sn4  1  0.59362916  -0.00000000  0.18664790  1
  Sn  Sn5  1  0.40642614  0.00000000  0.81344386  1
  Sn  Sn6  1  0.90608860  0.50000000  0.81140768  1
loop_
_geom_bond_atom_site_label_1
_geom_bond_atom_site_label_2
_geom_bond_distance
_geom_bond_site_symmetry_2
Ce0 Sn4 3.265653 1_455
Ce0 Sn4 3.266195 1_555
Ce0 Sn2 3.270267 1_545
Ce0 Sn2 3.270267 1_555
Ce0 Sn1 3.341563 1_555
Ce0 Sn1 3.341563 1_545
Ce0 Sn1 3.345414 1_455
Ce0 Sn1 3.345414 1_445
Ce0 Sn0 3.581056 1_545
Ce0 Sn0 3.581056 1_555
Ce1 Sn5 3.267358 1_655
Ce1 Sn5 3.267390 1_555
Ce1 Sn6 3.271254 1_545
Ce1 Sn6 3.271254 1_555
Ce1 Sn0 3.341884 1_545
Ce1 Sn0 3.341884 1_555
Ce1 Sn0 3.345942 1_645
Ce1 Sn0 3.345942 1_655
Ce1 Sn1 3.582506 1_545
Ce1 Sn1 3.582506 1_555
Ce2 Sn3 3.259371 1_455
Ce2 Sn3 3.259371 1_445
Ce2 Sn3 3.259565 1_545
Ce2 Sn3 3.259565 1_555
Ce2 Sn4 3.330650 1_555
Ce2 Sn4 3.332355 1_455
Ce2 Sn5 3.332462 1_454
Ce2 Sn5 3.333889 1_554
Ce2 Sn2 3.372302 1_555
Ce2 Sn2 3.372302 1_545
Ce2 Sn6 3.374431 1_454
Ce2 Sn6 3.374431 1_444
Sn0 Sn1 3.024092 1_455
Sn0 Sn1 3.031670 1_555
Sn2 Sn4 3.257403 1_455
Sn2 Sn4 3.257403 1_465
Sn2 Sn4 3.261738 1_565
Sn2 Sn4 3.261738 1_555
Sn2 Sn3 3.348476 1_455
Sn2 Sn3 3.354576 1_555
Sn3 Sn6 3.348449 1_454
Sn3 Sn6 3.353972 1_554
Sn3 Sn5 3.354076 1_554
Sn3 Sn5 3.354076 1_564
Sn3 Sn4 3.354844 1_555
Sn3 Sn4 3.354844 1_565
Sn5 Sn6 3.257369 1_455
Sn5 Sn6 3.257369 1_445
Sn5 Sn6 3.261782 1_545
Sn5 Sn6 3.261782 1_555
