# generated using pymatgen
data_CaP2(HO2)4
_symmetry_space_group_name_H-M   'P 1'
_cell_length_a   5.57982900
_cell_length_b   7.81037975
_cell_length_c   8.38143118
_cell_angle_alpha   111.19955181
_cell_angle_beta   108.54335670
_cell_angle_gamma   93.67031768
_symmetry_Int_Tables_number   1
_chemical_formula_structural   CaP2(HO2)4
_chemical_formula_sum   'Ca2 P4 H8 O16'
_cell_volume   316.17773282
_cell_formula_units_Z   2
loop_
 _symmetry_equiv_pos_site_id
 _symmetry_equiv_pos_as_xyz
  1  'x, y, z'
loop_
 _atom_site_type_symbol
 _atom_site_label
 _atom_site_symmetry_multiplicity
 _atom_site_fract_x
 _atom_site_fract_y
 _atom_site_fract_z
 _atom_site_occupancy
  Ca  Ca0  1  0.80846300  0.68235200  0.58015000  1
  Ca  Ca1  1  0.19153700  0.31764800  0.41985000  1
  P  P0  1  0.17256000  0.73214600  0.31320300  1
  P  P1  1  0.82744000  0.26785400  0.68679700  1
  P  P2  1  0.47753700  0.74462400  0.84293900  1
  P  P3  1  0.52246300  0.25537600  0.15706100  1
  H  H0  1  0.00000000  0.50000000  0.00000000  1
  H  H1  1  0.50000000  0.00000000  0.50000000  1
  H  H2  1  0.15079100  0.14382100  0.78083800  1
  H  H3  1  0.84920900  0.85617900  0.21916200  1
  H  H4  1  0.75598200  0.01761900  0.99857100  1
  H  H5  1  0.24401800  0.98238100  0.00142900  1
  H  H6  1  0.59493400  0.32244900  0.93767400  1
  H  H7  1  0.40506600  0.67755100  0.06232600  1
  O  O0  1  0.55743400  0.71397300  0.03003000  1
  O  O1  1  0.22427900  0.81473000  0.81579600  1
  O  O2  1  0.44256600  0.28602700  0.96997000  1
  O  O3  1  0.77572100  0.18527000  0.18420400  1
  O  O4  1  0.28638500  0.10130600  0.11860100  1
  O  O5  1  0.71361500  0.89869400  0.88139900  1
  O  O6  1  0.48520800  0.57844100  0.68115100  1
  O  O7  1  0.95566700  0.39620300  0.62465700  1
  O  O8  1  0.82990000  0.37020200  0.88472000  1
  O  O9  1  0.17010000  0.62979800  0.11528000  1
  O  O10  1  0.04433300  0.60379700  0.37534300  1
  O  O11  1  0.54511500  0.16872200  0.55566800  1
  O  O12  1  0.02581300  0.90294600  0.31578300  1
  O  O13  1  0.97418700  0.09705400  0.68421700  1
  O  O14  1  0.45488500  0.83127800  0.44433200  1
  O  O15  1  0.51479200  0.42155900  0.31884900  1
loop_
_geom_bond_atom_site_label_1
_geom_bond_atom_site_label_2
_geom_bond_distance
_geom_bond_site_symmetry_2
Ca0 O1 2.377897 1_655
Ca0 O15 2.386263 1_555
Ca0 O10 2.415339 1_655
Ca0 O6 2.430903 1_555
Ca0 O14 2.522722 1_555
Ca0 O7 2.540046 1_555
Ca0 O5 2.718303 1_555
Ca0 O13 3.027731 1_565
Ca1 O3 2.377897 1_455
Ca1 O6 2.386263 1_555
Ca1 O7 2.415339 1_455
Ca1 O15 2.430903 1_555
Ca1 O11 2.522722 1_555
Ca1 O10 2.540046 1_555
Ca1 O4 2.718303 1_555
Ca1 O12 3.027731 1_545
H0 O8 1.203013 1_454
H0 O9 1.203013 1_555
H1 O11 1.206549 1_555
H1 O14 1.206549 1_545
H2 O13 0.996341 1_455
H3 O12 0.996341 1_655
H4 O5 1.023522 1_545
H4 O3 1.595790 1_556
H5 O4 1.023522 1_565
H5 O1 1.595790 1_554
H6 O2 1.023775 1_555
H6 O8 1.575506 1_555
H7 O0 1.023775 1_555
H7 O9 1.575506 1_555
O0 P2 1.598589 1_554
O1 P2 1.527483 1_555
O2 P3 1.598589 1_556
O3 P3 1.527483 1_555
O4 P3 1.591727 1_555
O5 P2 1.591727 1_555
O6 P2 1.515386 1_555
O7 P1 1.520157 1_555
O8 P1 1.554388 1_555
O9 P0 1.554388 1_555
O10 P0 1.520157 1_555
O11 P1 1.554419 1_555
O12 P0 1.606480 1_555
O13 P1 1.606480 1_555
O14 P0 1.554419 1_555
O15 P3 1.515386 1_555
