# generated using pymatgen
data_TbNiGe
_symmetry_space_group_name_H-M   'P 1'
_cell_length_a   4.21783926
_cell_length_b   6.94368921
_cell_length_c   7.23859412
_cell_angle_alpha   90.00000000
_cell_angle_beta   90.00000000
_cell_angle_gamma   90.00000000
_symmetry_Int_Tables_number   1
_chemical_formula_structural   TbNiGe
_chemical_formula_sum   'Tb4 Ni4 Ge4'
_cell_volume   211.99934778
_cell_formula_units_Z   4
loop_
 _symmetry_equiv_pos_site_id
 _symmetry_equiv_pos_as_xyz
  1  'x, y, z'
loop_
 _atom_site_type_symbol
 _atom_site_label
 _atom_site_symmetry_multiplicity
 _atom_site_fract_x
 _atom_site_fract_y
 _atom_site_fract_z
 _atom_site_occupancy
  Tb  Tb0  1  0.25000000  0.49146416  0.79237824  1
  Tb  Tb1  1  0.25000000  0.99146416  0.70762176  1
  Tb  Tb2  1  0.75000000  0.00853584  0.29237824  1
  Tb  Tb3  1  0.75000000  0.50853584  0.20762176  1
  Ni  Ni0  1  0.75000000  0.80878063  0.91877976  1
  Ni  Ni1  1  0.25000000  0.19121937  0.08122024  1
  Ni  Ni2  1  0.75000000  0.30878063  0.58122024  1
  Ni  Ni3  1  0.25000000  0.69121937  0.41877976  1
  Ge  Ge0  1  0.75000000  0.19754735  0.91149507  1
  Ge  Ge1  1  0.25000000  0.30245265  0.41149507  1
  Ge  Ge2  1  0.25000000  0.80245265  0.08850493  1
  Ge  Ge3  1  0.75000000  0.69754735  0.58850493  1
loop_
_geom_bond_atom_site_label_1
_geom_bond_atom_site_label_2
_geom_bond_distance
_geom_bond_site_symmetry_2
Ni0 Tb1 2.897050 1_555
Ni0 Tb1 2.897050 1_655
Ni0 Tb3 2.952610 1_556
Ni0 Tb2 3.039287 1_566
Ni0 Tb0 3.184250 1_655
Ni0 Tb0 3.184250 1_555
Ni1 Tb2 2.897050 1_455
Ni1 Tb2 2.897050 1_555
Ni1 Tb0 2.952610 1_554
Ni1 Tb1 3.039287 1_544
Ni1 Tb3 3.184250 1_455
Ni1 Tb3 3.184250 1_555
Ni2 Tb0 2.897050 1_655
Ni2 Tb0 2.897050 1_555
Ni2 Tb2 2.952610 1_555
Ni2 Tb3 3.039287 1_555
Ni2 Tb1 3.184250 1_545
Ni2 Tb1 3.184250 1_645
Ni3 Tb3 2.897050 1_455
Ni3 Tb3 2.897050 1_555
Ni3 Tb1 2.952610 1_555
Ni3 Tb0 3.039287 1_555
Ni3 Tb2 3.184250 1_465
Ni3 Tb2 3.184250 1_565
Ge0 Ni1 2.441078 1_556
Ge0 Ni1 2.441078 1_656
Ge0 Ni2 2.512394 1_555
Ge0 Ni0 2.699990 1_545
Ge0 Tb1 2.945012 1_545
Ge0 Tb1 2.945012 1_645
Ge0 Tb3 3.042665 1_556
Ge0 Tb2 3.053500 1_556
Ge0 Tb0 3.058780 1_555
Ge0 Tb0 3.058780 1_655
Ge1 Ni2 2.441078 1_455
Ge1 Ni2 2.441078 1_555
Ge1 Ni1 2.512394 1_555
Ge1 Ni3 2.699990 1_555
Ge1 Tb3 2.945012 1_555
Ge1 Tb3 2.945012 1_455
Ge1 Tb1 3.042665 1_545
Ge1 Tb0 3.053500 1_555
Ge1 Tb2 3.058780 1_455
Ge1 Tb2 3.058780 1_555
Ge2 Ni0 2.441078 1_554
Ge2 Ni0 2.441078 1_454
Ge2 Ni3 2.512394 1_555
Ge2 Ni1 2.699990 1_565
Ge2 Tb2 2.945012 1_565
Ge2 Tb2 2.945012 1_465
Ge2 Tb0 3.042665 1_554
Ge2 Tb1 3.053500 1_554
Ge2 Tb3 3.058780 1_555
Ge2 Tb3 3.058780 1_455
Ge3 Ni3 2.441078 1_655
Ge3 Ni3 2.441078 1_555
Ge3 Ni0 2.512394 1_555
Ge3 Ni2 2.699990 1_555
Ge3 Tb0 2.945012 1_555
Ge3 Tb0 2.945012 1_655
Ge3 Tb2 3.042665 1_565
Ge3 Tb3 3.053500 1_555
Ge3 Tb1 3.058780 1_655
Ge3 Tb1 3.058780 1_555
