# generated using pymatgen
data_Na3MgAlSi(SO6)2
_symmetry_space_group_name_H-M   'P 1'
_cell_length_a   8.83470650
_cell_length_b   8.83976564
_cell_length_c   21.73092638
_cell_angle_alpha   90.49306294
_cell_angle_beta   90.00000000
_cell_angle_gamma   119.98106976
_symmetry_Int_Tables_number   1
_chemical_formula_structural   Na3MgAlSi(SO6)2
_chemical_formula_sum   'Na18 Mg6 Al6 Si6 S12 O72'
_cell_volume   1469.95191148
_cell_formula_units_Z   6
loop_
 _symmetry_equiv_pos_site_id
 _symmetry_equiv_pos_as_xyz
  1  'x, y, z'
loop_
 _atom_site_type_symbol
 _atom_site_label
 _atom_site_symmetry_multiplicity
 _atom_site_fract_x
 _atom_site_fract_y
 _atom_site_fract_z
 _atom_site_occupancy
  Na  Na0  1  0.63407084  0.00469761  0.25437695  1
  Na  Na1  1  0.00390587  0.64033485  0.23716396  1
  Na  Na2  1  0.63642898  0.64033485  0.73716396  1
  Na  Na3  1  0.37062676  0.00469761  0.75437695  1
  Na  Na4  1  0.31980037  0.34771177  0.58657195  1
  Na  Na5  1  0.66118032  0.95107211  0.58002599  1
  Na  Na6  1  0.28989279  0.95107211  0.08002599  1
  Na  Na7  1  0.02791241  0.34771177  0.08657195  1
  Na  Na8  1  0.98882885  0.68258652  0.92669202  1
  Na  Na9  1  0.69189602  0.03002407  0.90621472  1
  Na  Na10  1  0.33812704  0.03002407  0.40621472  1
  Na  Na11  1  0.69375667  0.68258652  0.42669202  1
  Na  Na12  1  0.97988004  0.99444472  0.49800353  1
  Na  Na13  1  0.01456468  0.99444472  0.99800353  1
  Na  Na14  1  0.66495343  0.31262090  0.83224037  1
  Na  Na15  1  0.64766847  0.31262090  0.33224037  1
  Na  Na16  1  0.32953316  0.66174515  0.16514479  1
  Na  Na17  1  0.33221099  0.66174515  0.66514479  1
  Mg  Mg0  1  0.00597689  0.01006874  0.35160803  1
  Mg  Mg1  1  0.00409184  0.01006874  0.85160803  1
  Mg  Mg2  1  0.67279131  0.32995053  0.68494880  1
  Mg  Mg3  1  0.65716022  0.32995053  0.18494880  1
  Mg  Mg4  1  0.32730788  0.67398540  0.01816601  1
  Mg  Mg5  1  0.34667652  0.67398540  0.51816601  1
  Al  Al0  1  0.97507107  0.97074961  0.64975162  1
  Al  Al1  1  0.99567854  0.97074961  0.14975162  1
  Al  Al2  1  0.65153933  0.33861062  0.98297163  1
  Al  Al3  1  0.68707229  0.33861062  0.48297163  1
  Al  Al4  1  0.33849878  0.69220165  0.31775079  1
  Al  Al5  1  0.35370188  0.69220165  0.81775079  1
  Si  Si0  1  0.29443196  0.99782833  0.25251421  1
  Si  Si1  1  0.70339637  0.99782833  0.75251421  1
  Si  Si2  1  0.67401530  0.62226256  0.58392806  1
  Si  Si3  1  0.94824826  0.62226256  0.08392806  1
  Si  Si4  1  0.34003454  0.97675619  0.91989546  1
  Si  Si5  1  0.63672066  0.97675619  0.41989546  1
  S  S0  1  0.70315779  0.70952406  0.25166781  1
  S  S1  1  0.01193518  0.29386435  0.24846687  1
  S  S2  1  0.28192917  0.29386435  0.74846687  1
  S  S3  1  0.00636628  0.70952406  0.75166781  1
  S  S4  1  0.96082228  0.33214402  0.58339176  1
  S  S5  1  0.36216560  0.03922704  0.58390897  1
  S  S6  1  0.67706244  0.03922704  0.08390897  1
  S  S7  1  0.37132274  0.33214402  0.08339176  1
  S  S8  1  0.61487391  0.65436395  0.91632981  1
  S  S9  1  0.05023736  0.38369851  0.91541670  1
  S  S10  1  0.33346015  0.38369851  0.41541670  1
  S  S11  1  0.03948904  0.65436395  0.41632981  1
  O  O0  1  0.20776560  0.01361921  0.31499228  1
  O  O1  1  0.80538286  0.78879026  0.30783860  1
  O  O2  1  0.97892941  0.18091249  0.30095572  1
  O  O3  1  0.20198307  0.18091249  0.80095572  1
  O  O4  1  0.98340739  0.78879026  0.80783860  1
  O  O5  1  0.80585362  0.01361921  0.81499228  1
  O  O6  1  0.79955717  0.96283816  0.69235268  1
  O  O7  1  0.18256024  0.20826550  0.69019476  1
  O  O8  1  0.03941065  0.82802277  0.69747825  1
  O  O9  1  0.78861213  0.82802277  0.19747825  1
  O  O10  1  0.02570526  0.20826550  0.19019476  1
  O  O11  1  0.16328099  0.96283816  0.19235268  1
  O  O12  1  0.88182818  0.35122867  0.63944024  1
  O  O13  1  0.47350201  0.11460228  0.63919994  1
  O  O14  1  0.64343625  0.50776127  0.64446789  1
  O  O15  1  0.86432602  0.50776127  0.14446789  1
  O  O16  1  0.64110126  0.11460228  0.13919994  1
  O  O17  1  0.46940149  0.35122867  0.13944024  1
  O  O18  1  0.45466734  0.29799591  0.02873522  1
  O  O19  1  0.82955079  0.51945831  0.02133184  1
  O  O20  1  0.70145966  0.14945136  0.02885075  1
  O  O21  1  0.44799270  0.14945136  0.52885075  1
  O  O22  1  0.68990853  0.51945831  0.52133184  1
  O  O23  1  0.84332957  0.29799591  0.52873522  1
  O  O24  1  0.52554333  0.67295608  0.96935414  1
  O  O25  1  0.13984525  0.45680903  0.97429535  1
  O  O26  1  0.30689854  0.85896683  0.97999320  1
  O  O27  1  0.55206729  0.85896683  0.47999320  1
  O  O28  1  0.31696277  0.45680903  0.47429535  1
  O  O29  1  0.14741174  0.67295608  0.46935414  1
  O  O30  1  0.11975480  0.63564691  0.35784487  1
  O  O31  1  0.50210468  0.87934755  0.35943057  1
  O  O32  1  0.34694759  0.49878938  0.36301619  1
  O  O33  1  0.15184078  0.49878938  0.86301619  1
  O  O34  1  0.37724187  0.87934755  0.85943057  1
  O  O35  1  0.51589111  0.63564691  0.85784487  1
  O  O36  1  0.01691499  0.81017396  0.41383646  1
  O  O37  1  0.82468568  0.98973501  0.41039270  1
  O  O38  1  0.18544789  0.20426524  0.41092848  1
  O  O39  1  0.01881735  0.20426524  0.91092848  1
  O  O40  1  0.16504934  0.98973501  0.91039270  1
  O  O41  1  0.79325896  0.81017396  0.91383646  1
  O  O42  1  0.98163911  0.17307907  0.58601241  1
  O  O43  1  0.19223584  0.03780154  0.59136099  1
  O  O44  1  0.85038631  0.82141549  0.58775955  1
  O  O45  1  0.97102917  0.82141549  0.08775955  1
  O  O46  1  0.84556570  0.03780154  0.09136099  1
  O  O47  1  0.19143997  0.17307907  0.08601241  1
  O  O48  1  0.66586295  0.15897398  0.74497035  1
  O  O49  1  0.46359294  0.32264156  0.74517975  1
  O  O50  1  0.84942376  0.53778629  0.74328936  1
  O  O51  1  0.68836353  0.53778629  0.24328936  1
  O  O52  1  0.85904963  0.32264156  0.24517975  1
  O  O53  1  0.49311203  0.15897398  0.24497035  1
  O  O54  1  0.63490968  0.49604689  0.91936567  1
  O  O55  1  0.87540575  0.37452897  0.91453851  1
  O  O56  1  0.52779165  0.16662030  0.92724527  1
  O  O57  1  0.63882966  0.16662030  0.42724527  1
  O  O58  1  0.49912422  0.37452897  0.41453851  1
  O  O59  1  0.86113821  0.49604689  0.41936567  1
  O  O60  1  0.35192580  0.48648526  0.07525863  1
  O  O61  1  0.14700621  0.64811047  0.08078015  1
  O  O62  1  0.53024964  0.85967559  0.07681001  1
  O  O63  1  0.32942495  0.85967559  0.57681001  1
  O  O64  1  0.50110325  0.64811047  0.58078015  1
  O  O65  1  0.13455846  0.48648526  0.57525863  1
  O  O66  1  0.30623059  0.81083254  0.25490825  1
  O  O67  1  0.52640840  0.69251561  0.25573320  1
  O  O68  1  0.17371769  0.46807699  0.25470697  1
  O  O69  1  0.29435830  0.46807699  0.75470697  1
  O  O70  1  0.16610621  0.69251561  0.75573320  1
  O  O71  1  0.50460095  0.81083254  0.75490825  1
loop_
_geom_bond_atom_site_label_1
_geom_bond_atom_site_label_2
_geom_bond_distance
_geom_bond_site_symmetry_2
Na0 O53 2.270387 1_555
Na0 O67 2.428809 1_545
Na0 O52 2.513231 1_555
Na0 O66 2.523005 1_545
Na0 O31 2.559528 1_545
Na0 O16 2.682126 1_555
Na0 O9 2.816012 1_545
Na0 O2 2.821915 1_555
Na1 O15 2.338116 1_455
Na1 O66 2.349669 1_555
Na1 O52 2.443635 1_455
Na1 O51 2.467248 1_455
Na1 O68 2.647233 1_555
Na1 O11 2.663489 1_555
Na1 O30 2.823307 1_555
Na2 O14 2.338119 1_555
Na2 O71 2.349676 1_555
Na2 O49 2.443634 1_555
Na2 O50 2.467256 1_555
Na2 O69 2.647241 1_555
Na2 O6 2.663489 1_555
Na2 O35 2.823310 1_555
Na3 O48 2.270395 1_555
Na3 O70 2.428811 1_545
Na3 O49 2.513229 1_555
Na3 O71 2.522998 1_545
Na3 O34 2.559526 1_545
Na3 O13 2.682127 1_555
Na3 O8 2.816012 1_545
Na3 O3 2.821915 1_555
Na4 O64 2.321141 1_555
Na4 O43 2.388562 1_555
Na4 O65 2.501053 1_555
Na4 O7 2.571831 1_555
Na4 O42 2.588257 1_455
Na4 O28 2.635969 1_555
Na4 O14 2.772397 1_555
Na4 O21 2.805962 1_555
Na5 O64 2.321217 1_555
Na5 O27 2.345787 1_555
Na5 O44 2.460512 1_555
Na5 O42 2.515237 1_565
Na5 O63 2.623080 1_555
Na5 O6 2.707807 1_555
Na5 O23 2.891943 1_565
Na5 O13 2.975897 1_565
Na6 O61 2.321216 1_555
Na6 O26 2.345783 1_554
Na6 O45 2.460520 1_455
Na6 O47 2.515243 1_565
Na6 O62 2.623063 1_555
Na6 O11 2.707811 1_555
Na6 O18 2.891943 1_565
Na6 O16 2.975897 1_565
Na7 O61 2.321144 1_555
Na7 O46 2.388563 1_455
Na7 O60 2.501037 1_555
Na7 O10 2.571829 1_555
Na7 O47 2.588249 1_555
Na7 O25 2.635966 1_554
Na7 O15 2.772397 1_455
Na7 O20 2.805962 1_455
Na8 O40 2.390200 1_655
Na8 O55 2.397890 1_555
Na8 O41 2.507663 1_555
Na8 O19 2.512416 1_556
Na8 O26 2.694272 1_655
Na8 O54 2.713601 1_555
Na8 O4 2.764267 1_555
Na9 O5 2.259493 1_555
Na9 O56 2.347114 1_555
Na9 O39 2.505209 1_655
Na9 O41 2.520153 1_545
Na9 O34 2.609898 1_545
Na9 O55 2.644119 1_555
Na9 O20 2.843640 1_556
Na10 O0 2.259489 1_555
Na10 O57 2.347130 1_555
Na10 O38 2.505201 1_555
Na10 O36 2.520146 1_545
Na10 O31 2.609898 1_545
Na10 O58 2.644118 1_555
Na10 O21 2.843642 1_555
Na11 O37 2.390199 1_555
Na11 O58 2.397887 1_555
Na11 O36 2.507671 1_655
Na11 O22 2.512421 1_555
Na11 O27 2.694272 1_555
Na11 O59 2.713616 1_555
Na11 O1 2.764269 1_555
Na12 O37 2.334079 1_555
Na12 O44 2.398997 1_555
Na12 O42 2.464744 1_565
Na12 O36 2.566541 1_655
Na12 O38 2.648173 1_665
Na12 O43 2.655266 1_665
Na13 O40 2.334079 1_555
Na13 O45 2.398997 1_456
Na13 O47 2.464744 1_566
Na13 O41 2.566541 1_455
Na13 O39 2.648173 1_565
Na13 O46 2.655266 1_466
Na14 O48 2.325491 1_555
Na14 O56 2.424717 1_555
Na14 O55 2.433329 1_555
Na14 O54 2.580980 1_555
Na14 O49 2.629114 1_555
Na14 O50 2.679263 1_555
Na15 O53 2.325491 1_555
Na15 O57 2.424717 1_555
Na15 O58 2.433329 1_555
Na15 O59 2.580980 1_555
Na15 O52 2.629114 1_555
Na15 O51 2.679263 1_555
Na16 O61 2.403733 1_555
Na16 O66 2.410635 1_555
Na16 O68 2.513133 1_555
Na16 O67 2.548036 1_555
Na16 O60 2.551271 1_555
Na16 O62 2.616794 1_555
Na17 O64 2.403733 1_555
Na17 O71 2.410635 1_555
Na17 O69 2.513133 1_555
Na17 O70 2.548036 1_555
Na17 O65 2.551271 1_555
Na17 O63 2.616794 1_555
Mg0 O0 1.938247 1_555
Mg0 O2 1.984623 1_455
Mg0 O37 1.986378 1_445
Mg0 O38 2.089086 1_555
Mg0 O1 2.091637 1_445
Mg0 O36 2.274238 1_545
Mg1 O5 1.938247 1_455
Mg1 O3 1.984623 1_555
Mg1 O40 1.986379 1_545
Mg1 O39 2.089086 1_555
Mg1 O4 2.091637 1_445
Mg1 O41 2.274238 1_445
Mg2 O14 1.934653 1_555
Mg2 O48 1.982621 1_555
Mg2 O12 2.019905 1_555
Mg2 O13 2.080816 1_555
Mg2 O50 2.124242 1_555
Mg2 O49 2.239488 1_555
Mg3 O15 1.934653 1_555
Mg3 O53 1.982621 1_555
Mg3 O17 2.019905 1_555
Mg3 O16 2.080816 1_555
Mg3 O51 2.124242 1_555
Mg3 O52 2.239488 1_555
Mg4 O26 1.926787 1_554
Mg4 O61 2.020473 1_555
Mg4 O25 2.031796 1_554
Mg4 O24 2.051394 1_554
Mg4 O62 2.134411 1_555
Mg4 O60 2.174721 1_555
Mg5 O27 1.926787 1_555
Mg5 O64 2.020473 1_555
Mg5 O28 2.031796 1_555
Mg5 O29 2.051394 1_555
Mg5 O63 2.134411 1_555
Mg5 O65 2.174721 1_555
Al0 O6 1.777375 1_555
Al0 O44 1.812985 1_555
Al0 O8 1.931284 1_655
Al0 O43 2.125738 1_665
Al0 O7 2.159311 1_665
Al0 O42 2.249380 1_565
Al1 O11 1.777375 1_655
Al1 O45 1.812985 1_555
Al1 O9 1.931284 1_555
Al1 O46 2.125738 1_565
Al1 O10 2.159311 1_665
Al1 O47 2.249380 1_665
Al2 O19 1.785563 1_556
Al2 O56 1.811163 1_555
Al2 O18 1.877534 1_556
Al2 O54 2.026423 1_555
Al2 O20 2.179504 1_556
Al2 O55 2.367385 1_555
Al3 O22 1.785563 1_555
Al3 O57 1.811163 1_555
Al3 O23 1.877534 1_555
Al3 O59 2.026423 1_555
Al3 O21 2.179504 1_555
Al3 O58 2.367385 1_555
Al4 O31 1.797434 1_555
Al4 O66 1.835578 1_555
Al4 O30 1.945683 1_555
Al4 O32 2.013153 1_555
Al4 O67 2.137237 1_555
Al4 O68 2.234308 1_555
Al5 O34 1.797434 1_555
Al5 O71 1.835578 1_555
Al5 O35 1.945683 1_555
Al5 O33 2.013153 1_555
Al5 O70 2.137237 1_555
Al5 O69 2.234308 1_555
O0 Si0 1.597705 1_545
O1 S0 1.466086 1_555
O2 S1 1.453143 1_655
O3 S2 1.453143 1_555
O4 S3 1.466086 1_655
O5 Si1 1.597705 1_545
O6 Si1 1.668015 1_555
O7 S2 1.505456 1_555
O8 S3 1.511556 1_555
O9 S0 1.511556 1_555
O10 S1 1.505456 1_555
O11 Si0 1.668015 1_555
O12 S4 1.453662 1_555
O13 S5 1.478628 1_555
O14 Si2 1.605572 1_555
O15 Si3 1.605572 1_555
O16 S6 1.478628 1_555
O17 S7 1.453662 1_555
O18 S7 1.503325 1_555
O19 Si3 1.673968 1_555
O20 S6 1.495838 1_555
O21 S5 1.495838 1_555
O22 Si2 1.673968 1_555
O23 S4 1.503325 1_555
O24 S8 1.450502 1_555
O25 S9 1.468305 1_555
O26 Si4 1.610654 1_555
O27 Si5 1.610654 1_555
O28 S10 1.468305 1_555
O29 S11 1.450502 1_555
O30 S11 1.503044 1_555
O31 Si5 1.685050 1_555
O32 S10 1.498231 1_555
O33 S9 1.498231 1_555
O34 Si4 1.685050 1_555
O35 S8 1.503044 1_555
O36 S11 1.488471 1_555
O37 Si5 1.619706 1_555
O38 S10 1.469598 1_555
O39 S9 1.469602 1_555
O40 Si4 1.619697 1_555
O41 S8 1.488476 1_555
O42 S4 1.507979 1_555
O43 S5 1.503779 1_555
O44 Si2 1.670338 1_555
O45 Si3 1.670342 1_555
O46 S6 1.503770 1_555
O47 S7 1.507984 1_555
O48 Si1 1.625456 1_545
O49 S2 1.495975 1_555
O50 S3 1.466918 1_655
O51 S0 1.466922 1_555
O52 S1 1.495966 1_655
O53 Si0 1.625462 1_545
O54 S8 1.497804 1_555
O55 S9 1.505831 1_655
O56 Si4 1.675378 1_545
O57 Si5 1.675369 1_545
O58 S10 1.505848 1_555
O59 S11 1.497793 1_655
O60 S7 1.469642 1_555
O61 Si3 1.655171 1_455
O62 S6 1.470922 1_565
O63 S5 1.470916 1_565
O64 Si2 1.655188 1_555
O65 S4 1.469631 1_455
O66 Si0 1.708702 1_555
O67 S0 1.494781 1_555
O68 S1 1.493128 1_555
O69 S2 1.493131 1_555
O70 S3 1.494772 1_555
O71 Si1 1.708707 1_555
