# generated using pymatgen
data_Na6La2Ta2Si5SO24
_symmetry_space_group_name_H-M   'P 1'
_cell_length_a   9.39970229
_cell_length_b   9.38055212
_cell_length_c   22.84659061
_cell_angle_alpha   89.83531588
_cell_angle_beta   90.42641522
_cell_angle_gamma   119.98085704
_symmetry_Int_Tables_number   1
_chemical_formula_structural   Na6La2Ta2Si5SO24
_chemical_formula_sum   'Na18 La6 Ta6 Si15 S3 O72'
_cell_volume   1744.88190354
_cell_formula_units_Z   3
loop_
 _symmetry_equiv_pos_site_id
 _symmetry_equiv_pos_as_xyz
  1  'x, y, z'
loop_
 _atom_site_type_symbol
 _atom_site_label
 _atom_site_symmetry_multiplicity
 _atom_site_fract_x
 _atom_site_fract_y
 _atom_site_fract_z
 _atom_site_occupancy
  Na  Na0  1  0.66314121  0.02189339  0.24838254  1
  Na  Na1  1  0.35372882  0.33219144  0.25634003  1
  Na  Na2  1  0.99184162  0.64124073  0.24935305  1
  Na  Na3  1  0.98554932  0.34647207  0.74514811  1
  Na  Na4  1  0.30207735  0.34508281  0.58169832  1
  Na  Na5  1  0.65578030  0.95010486  0.57933707  1
  Na  Na6  1  0.69202786  0.69205308  0.07038363  1
  Na  Na7  1  0.01508022  0.33507478  0.08034296  1
  Na  Na8  1  0.95285506  0.66564632  0.90400033  1
  Na  Na9  1  0.72684939  0.03736592  0.91123786  1
  Na  Na10  1  0.32360752  0.30663016  0.90366423  1
  Na  Na11  1  0.69677329  0.68130817  0.41529958  1
  Na  Na12  1  0.01638589  0.03000488  0.49882994  1
  Na  Na13  1  0.98431922  0.99590081  0.99595666  1
  Na  Na14  1  0.66117117  0.34882732  0.82776999  1
  Na  Na15  1  0.66142704  0.31463469  0.33705797  1
  Na  Na16  1  0.33668083  0.70633188  0.16386541  1
  Na  Na17  1  0.33057500  0.68400384  0.66598104  1
  La  La0  1  0.00846355  0.01772240  0.35546354  1
  La  La1  1  0.99294072  0.99562544  0.82859283  1
  La  La2  1  0.66630323  0.32851631  0.17809537  1
  La  La3  1  0.68680982  0.34310866  0.98256644  1
  La  La4  1  0.33940865  0.68049696  0.01422057  1
  La  La5  1  0.31765674  0.66432521  0.52542405  1
  Ta  Ta0  1  0.99285923  0.98889442  0.64991994  1
  Ta  Ta1  1  0.99627763  0.99432705  0.15606866  1
  Ta  Ta2  1  0.66580783  0.33693854  0.68547230  1
  Ta  Ta3  1  0.65273255  0.31985143  0.48332989  1
  Ta  Ta4  1  0.34842184  0.67097411  0.31583238  1
  Ta  Ta5  1  0.33714186  0.65410239  0.80466077  1
  Si  Si0  1  0.29726559  0.98803463  0.25425492  1
  Si  Si1  1  0.69478725  0.70222988  0.25591310  1
  Si  Si2  1  0.01464613  0.31067920  0.24943020  1
  Si  Si3  1  0.30871893  0.30044642  0.74833488  1
  Si  Si4  1  0.00261777  0.69052287  0.75007087  1
  Si  Si5  1  0.68702091  0.99866821  0.74752141  1
  Si  Si6  1  0.93998854  0.31016562  0.58732555  1
  Si  Si7  1  0.36706788  0.05543064  0.58777462  1
  Si  Si8  1  0.68829986  0.62778030  0.58325731  1
  Si  Si9  1  0.98523246  0.66381698  0.08862723  1
  Si  Si10  1  0.67999853  0.01452743  0.08841805  1
  Si  Si11  1  0.63070021  0.66465204  0.91214095  1
  Si  Si12  1  0.03865165  0.37069870  0.91088825  1
  Si  Si13  1  0.61825104  0.96942640  0.42347813  1
  Si  Si14  1  0.35670146  0.38005727  0.42315591  1
  S  S0  1  0.33469234  0.31411998  0.08427404  1
  S  S1  1  0.33662351  0.96724851  0.90596680  1
  S  S2  1  0.01854457  0.63650706  0.41178069  1
  O  O0  1  0.22965972  0.03803284  0.30959015  1
  O  O1  1  0.80134756  0.75889705  0.31465351  1
  O  O2  1  0.94874748  0.18006190  0.30198142  1
  O  O3  1  0.25656702  0.21441608  0.81121844  1
  O  O4  1  0.96780364  0.74127874  0.81292519  1
  O  O5  1  0.78960195  0.05490622  0.80836646  1
  O  O6  1  0.80718759  0.97357585  0.69798929  1
  O  O7  1  0.15961786  0.18900465  0.69921694  1
  O  O8  1  0.02077067  0.83419670  0.70094027  1
  O  O9  1  0.81025686  0.83997630  0.20199831  1
  O  O10  1  0.04249239  0.20965576  0.19233568  1
  O  O11  1  0.16791314  0.97293056  0.19854236  1
  O  O12  1  0.83956653  0.31741361  0.64368712  1
  O  O13  1  0.48670721  0.17810091  0.63815253  1
  O  O14  1  0.68764209  0.51453186  0.63745048  1
  O  O15  1  0.88772977  0.56037912  0.14569136  1
  O  O16  1  0.66280727  0.09706996  0.14772537  1
  O  O17  1  0.42798566  0.33308435  0.13869417  1
  O  O18  1  0.42268786  0.30761676  0.03181555  1
  O  O19  1  0.86684842  0.58243475  0.02957514  1
  O  O20  1  0.69964595  0.12680479  0.02932304  1
  O  O21  1  0.46266971  0.17151118  0.52695982  1
  O  O22  1  0.70227490  0.53282198  0.52320535  1
  O  O23  1  0.82164211  0.29997183  0.52940025  1
  O  O24  1  0.56215893  0.67884502  0.97559167  1
  O  O25  1  0.12121758  0.45063434  0.97392960  1
  O  O26  1  0.32539882  0.89154161  0.96373813  1
  O  O27  1  0.53576786  0.87766905  0.48364727  1
  O  O28  1  0.34909282  0.46643388  0.48261499  1
  O  O29  1  0.11214922  0.65398841  0.46581221  1
  O  O30  1  0.11490480  0.63789784  0.35890925  1
  O  O31  1  0.49055500  0.85792731  0.36581826  1
  O  O32  1  0.36624886  0.50791826  0.36558930  1
  O  O33  1  0.16005894  0.49438915  0.85583676  1
  O  O34  1  0.33601347  0.85937845  0.85800553  1
  O  O35  1  0.50407029  0.66764920  0.85873456  1
  O  O36  1  0.98426884  0.77327602  0.41100612  1
  O  O37  1  0.79179398  0.97280694  0.41900975  1
  O  O38  1  0.20601554  0.19459110  0.42129582  1
  O  O39  1  0.02233051  0.18895059  0.90741103  1
  O  O40  1  0.19372423  0.99295571  0.90304851  1
  O  O41  1  0.81506121  0.82480748  0.90672171  1
  O  O42  1  0.94719069  0.13493792  0.59132644  1
  O  O43  1  0.18566035  0.04399064  0.59361735  1
  O  O44  1  0.85258206  0.81493108  0.59284751  1
  O  O45  1  0.99425916  0.84469608  0.09525207  1
  O  O46  1  0.86159147  0.02180311  0.09305829  1
  O  O47  1  0.17255273  0.15760069  0.08638287  1
  O  O48  1  0.65659885  0.15232044  0.73311893  1
  O  O49  1  0.49704499  0.34532667  0.73560389  1
  O  O50  1  0.85107066  0.50178181  0.73760300  1
  O  O51  1  0.62971164  0.51169246  0.24131842  1
  O  O52  1  0.87648037  0.36372547  0.24141608  1
  O  O53  1  0.48675569  0.13045436  0.24589213  1
  O  O54  1  0.62299723  0.48618915  0.90714646  1
  O  O55  1  0.86023569  0.36435529  0.90509675  1
  O  O56  1  0.49387998  0.12814622  0.90333596  1
  O  O57  1  0.63309776  0.15456408  0.42429247  1
  O  O58  1  0.53910633  0.38674006  0.42101735  1
  O  O59  1  0.86092323  0.47582558  0.41248142  1
  O  O60  1  0.30351239  0.45430480  0.08209414  1
  O  O61  1  0.16162318  0.67357399  0.08658912  1
  O  O62  1  0.53920977  0.82056077  0.08740381  1
  O  O63  1  0.36449286  0.88323609  0.59165128  1
  O  O64  1  0.52654823  0.64816428  0.58715838  1
  O  O65  1  0.12815404  0.45894836  0.58994828  1
  O  O66  1  0.28502039  0.80367748  0.25990920  1
  O  O67  1  0.52655269  0.72357003  0.26115397  1
  O  O68  1  0.19764456  0.47906805  0.26169210  1
  O  O69  1  0.31239612  0.48284970  0.75144063  1
  O  O70  1  0.17324239  0.67773995  0.75224785  1
  O  O71  1  0.50965687  0.82552909  0.75283678  1
loop_
_geom_bond_atom_site_label_1
_geom_bond_atom_site_label_2
_geom_bond_distance
_geom_bond_site_symmetry_2
Na0 O53 2.339844 1_555
Na0 O16 2.403870 1_555
Na0 O67 2.444349 1_545
Na0 O2 2.624634 1_555
Na0 O52 2.811421 1_555
Na0 O9 2.887558 1_545
Na1 O51 2.308039 1_555
Na1 O68 2.467718 1_555
Na1 O0 2.690710 1_555
Na1 O53 2.752029 1_555
Na1 O17 2.780921 1_555
Na1 O10 2.933157 1_555
Na1 O32 2.964187 1_555
Na2 O52 2.272482 1_555
Na2 O66 2.402058 1_655
Na2 O15 2.525061 1_555
Na2 O30 2.756214 1_655
Na3 O50 2.363459 1_555
Na3 O12 2.629256 1_555
Na3 O69 2.676282 1_655
Na3 O70 2.704578 1_655
Na3 O48 2.704679 1_555
Na3 O5 2.818018 1_555
Na3 O7 2.900028 1_655
Na3 O33 2.948697 1_655
Na4 O65 2.366432 1_555
Na4 O28 2.472414 1_555
Na4 O43 2.481935 1_555
Na4 O64 2.559956 1_555
Na5 O27 2.391534 1_555
Na5 O42 2.414397 1_565
Na5 O64 2.468108 1_555
Na5 O63 2.502663 1_555
Na5 O44 2.731063 1_555
Na6 O62 2.325800 1_555
Na6 O24 2.450858 1_554
Na6 O19 2.518727 1_555
Na6 O45 2.521688 1_555
Na6 O46 2.728820 1_565
Na7 O60 2.360317 1_555
Na7 O46 2.562358 1_455
Na7 O25 2.649747 1_554
Na7 O47 2.727644 1_555
Na7 O61 2.762010 1_555
Na7 O20 2.852909 1_455
Na7 O10 2.876299 1_555
Na8 O4 2.179192 1_555
Na8 O41 2.417638 1_555
Na8 O55 2.507429 1_555
Na8 O54 2.690476 1_555
Na8 O40 2.757976 1_655
Na8 O19 2.980729 1_556
Na9 O39 2.408224 1_655
Na9 O5 2.412497 1_555
Na9 O41 2.515679 1_545
Na9 O55 2.675224 1_555
Na9 O56 2.722155 1_555
Na9 O20 2.878425 1_556
Na10 O3 2.247690 1_555
Na10 O54 2.454195 1_555
Na10 O39 2.474750 1_555
Na10 O40 2.560937 1_545
Na10 O56 2.836070 1_555
Na11 O36 2.393774 1_555
Na11 O58 2.399339 1_555
Na11 O37 2.416880 1_555
Na11 O1 2.468257 1_555
Na11 O22 2.840906 1_555
Na11 O32 2.914705 1_555
Na12 O38 2.445314 1_555
Na12 O42 2.555377 1_455
Na12 O37 2.624209 1_445
Na12 O43 2.642028 1_555
Na12 O44 2.823935 1_445
Na12 O36 3.034623 1_445
Na13 O46 2.575394 1_566
Na13 O41 2.584956 1_555
Na13 O39 2.615818 1_665
Na13 O47 2.642117 1_666
Na13 O45 2.697723 1_556
Na13 O40 2.915063 1_655
Na14 O54 2.358598 1_555
Na14 O55 2.514628 1_555
Na14 O56 2.550518 1_555
Na14 O49 2.591606 1_555
Na14 O50 2.639434 1_555
Na14 O48 2.831664 1_555
Na15 O57 2.426673 1_555
Na15 O59 2.430047 1_555
Na15 O58 2.505286 1_555
Na15 O53 2.674628 1_555
Na15 O52 2.864004 1_555
Na15 O51 2.967835 1_555
Na16 O61 2.318099 1_555
Na16 O62 2.413285 1_555
Na16 O66 2.520919 1_555
Na16 O67 2.794007 1_555
Na16 O60 2.908030 1_555
Na16 O68 2.911982 1_555
Na17 O63 2.423345 1_555
Na17 O70 2.455782 1_555
Na17 O71 2.503135 1_555
Na17 O65 2.655562 1_555
Na17 O69 2.657701 1_555
Na17 O64 2.724171 1_555
La0 O2 2.227214 1_455
La0 O0 2.256784 1_555
La0 O38 2.314457 1_555
La0 O37 2.369818 1_445
La0 O1 2.411691 1_445
La0 O36 2.527132 1_445
La1 O5 2.285509 1_565
La1 O4 2.305812 1_555
La1 O3 2.331831 1_665
La1 O41 2.428932 1_555
La1 O39 2.473535 1_665
La1 O40 2.540739 1_655
La2 O15 2.258334 1_555
La2 O16 2.265652 1_555
La2 O52 2.326586 1_555
La2 O53 2.363884 1_555
La2 O51 2.401987 1_555
La2 O17 2.428163 1_555
La3 O19 2.290674 1_556
La3 O20 2.345850 1_556
La3 O55 2.354981 1_555
La3 O54 2.430261 1_555
La3 O18 2.598815 1_556
La3 O56 2.636076 1_555
La4 O24 2.285403 1_554
La4 O25 2.294906 1_554
La4 O61 2.337218 1_555
La4 O26 2.347765 1_554
La4 O62 2.355574 1_555
La4 O60 2.508761 1_555
La5 O27 2.244301 1_555
La5 O28 2.247841 1_555
La5 O29 2.317358 1_555
La5 O65 2.377119 1_555
La5 O63 2.409251 1_555
La5 O64 2.474411 1_555
O0 Si0 1.592261 1_545
O1 Si1 1.593366 1_555
O2 Si2 1.603287 1_655
O3 Si3 1.601265 1_555
O4 Si4 1.600791 1_655
O5 Si5 1.617502 1_545
O6 Si5 1.702388 1_555
O6 Ta0 2.012372 1_555
O7 Si3 1.683864 1_555
O7 Ta0 2.072279 1_445
O8 Si4 1.694039 1_555
O8 Ta0 1.974744 1_455
O9 Si1 1.724536 1_555
O9 Ta1 1.934745 1_555
O10 Si2 1.711184 1_555
O10 Ta1 2.020537 1_445
O11 Si0 1.710083 1_555
O11 Ta1 1.970770 1_455
O12 Si6 1.623721 1_555
O12 Ta2 1.983857 1_555
O13 Si7 1.615104 1_555
O13 Ta2 1.923074 1_555
O14 Si8 1.627127 1_555
O14 Ta2 1.916315 1_555
O15 Si9 1.613348 1_555
O16 Si10 1.611188 1_555
O17 S0 1.474996 1_555
O18 S0 1.479821 1_555
O19 Si9 1.666074 1_555
O20 Si10 1.663535 1_555
O21 Si7 1.719196 1_555
O21 Ta3 1.911962 1_555
O22 Si8 1.679196 1_555
O22 Ta3 2.027880 1_555
O23 Si6 1.694256 1_555
O23 Ta3 1.983263 1_555
O24 Si11 1.623262 1_555
O25 Si12 1.626945 1_555
O26 S1 1.476263 1_555
O27 Si13 1.604299 1_555
O28 Si14 1.603957 1_555
O29 S2 1.471621 1_555
O30 S2 1.511308 1_555
O30 Ta4 2.287481 1_555
O31 Si13 1.731974 1_555
O31 Ta4 1.952387 1_555
O32 Si14 1.749713 1_555
O32 Ta4 1.975652 1_555
O33 Si12 1.708836 1_555
O33 Ta5 1.977073 1_555
O34 S1 1.491673 1_555
O34 Ta5 2.286372 1_555
O35 Si11 1.708207 1_555
O35 Ta5 1.943487 1_555
O36 S2 1.470720 1_655
O37 Si13 1.619621 1_555
O38 Si14 1.603606 1_555
O39 Si12 1.635762 1_555
O40 S1 1.479565 1_555
O41 Si11 1.635728 1_555
O42 Si6 1.680789 1_555
O42 Ta0 2.102797 1_545
O43 Si7 1.660538 1_555
O43 Ta0 2.073849 1_445
O44 Si8 1.674037 1_555
O44 Ta0 1.984429 1_555
O45 Si9 1.663267 1_555
O45 Ta1 1.971114 1_555
O46 Si10 1.676422 1_555
O46 Ta1 2.009585 1_545
O47 S0 1.498368 1_555
O47 Ta1 2.261616 1_445
O48 Si5 1.635638 1_545
O48 Ta2 2.008085 1_555
O49 Si3 1.630218 1_555
O49 Ta2 1.996674 1_555
O50 Si4 1.649618 1_655
O50 Ta2 2.032394 1_555
O51 Si1 1.608624 1_555
O52 Si2 1.615428 1_655
O53 Si0 1.618405 1_545
O54 Si11 1.643363 1_555
O55 Si12 1.652445 1_655
O56 S1 1.495888 1_545
O57 Si13 1.671481 1_545
O57 Ta3 1.994910 1_555
O58 Si14 1.685174 1_555
O58 Ta3 2.050158 1_555
O59 S2 1.495193 1_655
O59 Ta3 2.400475 1_555
O60 S0 1.483988 1_555
O61 Si9 1.615251 1_455
O62 Si10 1.629653 1_565
O63 Si7 1.605520 1_565
O64 Si8 1.627527 1_555
O65 Si6 1.616041 1_455
O66 Si0 1.679483 1_555
O66 Ta4 2.063522 1_555
O67 Si1 1.695413 1_555
O67 Ta4 1.951785 1_555
O68 Si2 1.676980 1_555
O68 Ta4 2.053319 1_555
O69 Si3 1.695716 1_555
O69 Ta5 1.935652 1_555
O70 Si4 1.667356 1_555
O70 Ta5 2.041802 1_555
O71 Si5 1.651594 1_555
O71 Ta5 2.007193 1_555
