# generated using pymatgen
data_MgTe4Mo2W2(SeS)2
_symmetry_space_group_name_H-M   'P 1'
_cell_length_a   6.78249000
_cell_length_b   6.78269363
_cell_length_c   77.34007400
_cell_angle_alpha   89.99948823
_cell_angle_beta   89.99966511
_cell_angle_gamma   120.00109806
_symmetry_Int_Tables_number   1
_chemical_formula_structural   MgTe4Mo2W2(SeS)2
_chemical_formula_sum   'Mg8 Te32 Mo16 W16 Se16 S16'
_cell_volume   3081.21336207
_cell_formula_units_Z   8
loop_
 _symmetry_equiv_pos_site_id
 _symmetry_equiv_pos_as_xyz
  1  'x, y, z'
loop_
 _atom_site_type_symbol
 _atom_site_label
 _atom_site_symmetry_multiplicity
 _atom_site_fract_x
 _atom_site_fract_y
 _atom_site_fract_z
 _atom_site_occupancy
  Mg  Mg0_0  1  0.27674750  0.09274250  0.44040850  1
  Mg  Mg0_1  1  0.27674750  0.09274250  0.94040850  1
  Mg  Mg0_2  1  0.27674750  0.59274250  0.44040850  1
  Mg  Mg0_3  1  0.27674750  0.59274250  0.94040850  1
  Mg  Mg0_4  1  0.77674750  0.09274250  0.44040850  1
  Mg  Mg0_5  1  0.77674750  0.09274250  0.94040850  1
  Mg  Mg0_6  1  0.77674750  0.59274250  0.44040850  1
  Mg  Mg0_7  1  0.77674750  0.59274250  0.94040850  1
  Te  Te0_0  1  0.16668450  0.33336250  0.16518950  1
  Te  Te0_1  1  0.16668450  0.33336250  0.66518950  1
  Te  Te0_2  1  0.16668450  0.83336250  0.16518950  1
  Te  Te0_3  1  0.16668450  0.83336250  0.66518950  1
  Te  Te0_4  1  0.66668450  0.33336250  0.16518950  1
  Te  Te0_5  1  0.66668450  0.33336250  0.66518950  1
  Te  Te0_6  1  0.66668450  0.83336250  0.16518950  1
  Te  Te0_7  1  0.66668450  0.83336250  0.66518950  1
  Te  Te1_0  1  0.16666550  0.33333750  0.35316150  1
  Te  Te1_1  1  0.16666550  0.33333750  0.85316150  1
  Te  Te1_2  1  0.16666550  0.83333750  0.35316150  1
  Te  Te1_3  1  0.16666550  0.83333750  0.85316150  1
  Te  Te1_4  1  0.66666550  0.33333750  0.35316150  1
  Te  Te1_5  1  0.66666550  0.33333750  0.85316150  1
  Te  Te1_6  1  0.66666550  0.83333750  0.35316150  1
  Te  Te1_7  1  0.66666550  0.83333750  0.85316150  1
  Te  Te2_0  1  0.16672050  0.33343700  0.11667450  1
  Te  Te2_1  1  0.16672050  0.33343700  0.61667450  1
  Te  Te2_2  1  0.16672050  0.83343700  0.11667450  1
  Te  Te2_3  1  0.16672050  0.83343700  0.61667450  1
  Te  Te2_4  1  0.66672050  0.33343700  0.11667450  1
  Te  Te2_5  1  0.66672050  0.33343700  0.61667450  1
  Te  Te2_6  1  0.66672050  0.83343700  0.11667450  1
  Te  Te2_7  1  0.66672050  0.83343700  0.61667450  1
  Te  Te3_0  1  0.16667700  0.33334850  0.30434500  1
  Te  Te3_1  1  0.16667700  0.33334850  0.80434500  1
  Te  Te3_2  1  0.16667700  0.83334850  0.30434500  1
  Te  Te3_3  1  0.16667700  0.83334850  0.80434500  1
  Te  Te3_4  1  0.66667700  0.33334850  0.30434500  1
  Te  Te3_5  1  0.66667700  0.33334850  0.80434500  1
  Te  Te3_6  1  0.66667700  0.83334850  0.30434500  1
  Te  Te3_7  1  0.66667700  0.83334850  0.80434500  1
  Mo  Mo0_0  1  0.16664150  0.33330450  0.23483900  1
  Mo  Mo0_1  1  0.16664150  0.33330450  0.73483900  1
  Mo  Mo0_2  1  0.16664150  0.83330450  0.23483900  1
  Mo  Mo0_3  1  0.16664150  0.83330450  0.73483900  1
  Mo  Mo0_4  1  0.66664150  0.33330450  0.23483900  1
  Mo  Mo0_5  1  0.66664150  0.33330450  0.73483900  1
  Mo  Mo0_6  1  0.66664150  0.83330450  0.23483900  1
  Mo  Mo0_7  1  0.66664150  0.83330450  0.73483900  1
  Mo  Mo1_0  1  0.33336150  0.16672350  0.14091200  1
  Mo  Mo1_1  1  0.33336150  0.16672350  0.64091200  1
  Mo  Mo1_2  1  0.33336150  0.66672350  0.14091200  1
  Mo  Mo1_3  1  0.33336150  0.66672350  0.64091200  1
  Mo  Mo1_4  1  0.83336150  0.16672350  0.14091200  1
  Mo  Mo1_5  1  0.83336150  0.16672350  0.64091200  1
  Mo  Mo1_6  1  0.83336150  0.66672350  0.14091200  1
  Mo  Mo1_7  1  0.83336150  0.66672350  0.64091200  1
  W  W0_0  1  0.16664600  0.33328250  0.04692350  1
  W  W0_1  1  0.16664600  0.33328250  0.54692350  1
  W  W0_2  1  0.16664600  0.83328250  0.04692350  1
  W  W0_3  1  0.16664600  0.83328250  0.54692350  1
  W  W0_4  1  0.66664600  0.33328250  0.04692350  1
  W  W0_5  1  0.66664600  0.33328250  0.54692350  1
  W  W0_6  1  0.66664600  0.83328250  0.04692350  1
  W  W0_7  1  0.66664600  0.83328250  0.54692350  1
  W  W1_0  1  0.33333400  0.16667450  0.32878100  1
  W  W1_1  1  0.33333400  0.16667450  0.82878100  1
  W  W1_2  1  0.33333400  0.66667450  0.32878100  1
  W  W1_3  1  0.33333400  0.66667450  0.82878100  1
  W  W1_4  1  0.83333400  0.16667450  0.32878100  1
  W  W1_5  1  0.83333400  0.16667450  0.82878100  1
  W  W1_6  1  0.83333400  0.66667450  0.32878100  1
  W  W1_7  1  0.83333400  0.66667450  0.82878100  1
  Se  Se0_0  1  0.33329500  0.16658400  0.02549700  1
  Se  Se0_1  1  0.33329500  0.16658400  0.52549700  1
  Se  Se0_2  1  0.33329500  0.66658400  0.02549700  1
  Se  Se0_3  1  0.33329500  0.66658400  0.52549700  1
  Se  Se0_4  1  0.83329500  0.16658400  0.02549700  1
  Se  Se0_5  1  0.83329500  0.16658400  0.52549700  1
  Se  Se0_6  1  0.83329500  0.66658400  0.02549700  1
  Se  Se0_7  1  0.83329500  0.66658400  0.52549700  1
  Se  Se1_0  1  0.33332100  0.16663650  0.06839850  1
  Se  Se1_1  1  0.33332100  0.16663650  0.56839850  1
  Se  Se1_2  1  0.33332100  0.66663650  0.06839850  1
  Se  Se1_3  1  0.33332100  0.66663650  0.56839850  1
  Se  Se1_4  1  0.83332100  0.16663650  0.06839850  1
  Se  Se1_5  1  0.83332100  0.16663650  0.56839850  1
  Se  Se1_6  1  0.83332100  0.66663650  0.06839850  1
  Se  Se1_7  1  0.83332100  0.66663650  0.56839850  1
  S  S0_0  1  0.33333100  0.16664750  0.21538900  1
  S  S0_1  1  0.33333100  0.16664750  0.71538900  1
  S  S0_2  1  0.33333100  0.66664750  0.21538900  1
  S  S0_3  1  0.33333100  0.66664750  0.71538900  1
  S  S0_4  1  0.83333100  0.16664750  0.21538900  1
  S  S0_5  1  0.83333100  0.16664750  0.71538900  1
  S  S0_6  1  0.83333100  0.66664750  0.21538900  1
  S  S0_7  1  0.83333100  0.66664750  0.71538900  1
  S  S1_0  1  0.33333200  0.16664700  0.25428500  1
  S  S1_1  1  0.33333200  0.16664700  0.75428500  1
  S  S1_2  1  0.33333200  0.66664700  0.25428500  1
  S  S1_3  1  0.33333200  0.66664700  0.75428500  1
  S  S1_4  1  0.83333200  0.16664700  0.25428500  1
  S  S1_5  1  0.83333200  0.16664700  0.75428500  1
  S  S1_6  1  0.83333200  0.66664700  0.25428500  1
  S  S1_7  1  0.83333200  0.66664700  0.75428500  1
loop_
_geom_bond_atom_site_label_1
_geom_bond_atom_site_label_2
_geom_bond_distance
_geom_bond_site_symmetry_2
Mg0_0 Mg0_6 3.391240 1_445
Mg0_0 Mg0_6 3.391240 1_555
Mg0_0 Mg0_4 3.391245 1_455
Mg0_0 Mg0_4 3.391245 1_555
Mg0_0 Mg0_2 3.391347 1_545
Mg0_0 Mg0_2 3.391347 1_555
Mg0_1 Mg0_7 3.391240 1_445
Mg0_1 Mg0_7 3.391240 1_555
Mg0_1 Mg0_5 3.391245 1_555
Mg0_1 Mg0_5 3.391245 1_455
Mg0_1 Mg0_3 3.391347 1_545
Mg0_1 Mg0_3 3.391347 1_555
Mg0_2 Mg0_4 3.391240 1_565
Mg0_2 Mg0_4 3.391240 1_455
Mg0_2 Mg0_6 3.391245 1_455
Mg0_2 Mg0_6 3.391245 1_555
Mg0_3 Mg0_5 3.391240 1_565
Mg0_3 Mg0_5 3.391240 1_455
Mg0_3 Mg0_7 3.391245 1_555
Mg0_3 Mg0_7 3.391245 1_455
Mg0_4 Mg0_6 3.391347 1_545
Mg0_4 Mg0_6 3.391347 1_555
Mg0_5 Mg0_7 3.391347 1_545
Mg0_5 Mg0_7 3.391347 1_555
Te1_0 W1_4 2.718257 1_455
Te1_0 W1_0 2.718288 1_555
Te1_0 W1_2 2.718288 1_555
Te1_1 W1_5 2.718257 1_455
Te1_1 W1_1 2.718288 1_555
Te1_1 W1_3 2.718288 1_555
Te1_2 W1_6 2.718257 1_455
Te1_2 W1_2 2.718288 1_555
Te1_2 W1_0 2.718288 1_565
Te1_3 W1_7 2.718257 1_455
Te1_3 W1_3 2.718288 1_555
Te1_3 W1_1 2.718288 1_565
Te1_4 W1_0 2.718257 1_555
Te1_4 W1_4 2.718288 1_555
Te1_4 W1_6 2.718288 1_555
Te1_5 W1_1 2.718257 1_555
Te1_5 W1_5 2.718288 1_555
Te1_5 W1_7 2.718288 1_555
Te1_6 W1_2 2.718257 1_555
Te1_6 W1_6 2.718288 1_555
Te1_6 W1_4 2.718288 1_565
Te1_7 W1_3 2.718257 1_555
Te1_7 W1_7 2.718288 1_555
Te1_7 W1_5 2.718288 1_565
Te3_0 W1_4 2.721253 1_455
Te3_0 W1_2 2.721258 1_555
Te3_0 W1_0 2.721261 1_555
Te3_1 W1_5 2.721253 1_455
Te3_1 W1_3 2.721258 1_555
Te3_1 W1_1 2.721261 1_555
Te3_2 W1_6 2.721253 1_455
Te3_2 W1_0 2.721258 1_565
Te3_2 W1_2 2.721261 1_555
Te3_3 W1_7 2.721253 1_455
Te3_3 W1_1 2.721258 1_565
Te3_3 W1_3 2.721261 1_555
Te3_4 W1_0 2.721253 1_555
Te3_4 W1_6 2.721258 1_555
Te3_4 W1_4 2.721261 1_555
Te3_5 W1_1 2.721253 1_555
Te3_5 W1_7 2.721258 1_555
Te3_5 W1_5 2.721261 1_555
Te3_6 W1_2 2.721253 1_555
Te3_6 W1_4 2.721258 1_565
Te3_6 W1_6 2.721261 1_555
Te3_7 W1_3 2.721253 1_555
Te3_7 W1_5 2.721258 1_565
Te3_7 W1_7 2.721261 1_555
Mo0_0 S1_4 2.468743 1_455
Mo0_0 S0_4 2.468965 1_455
Mo0_0 S1_2 2.468974 1_555
Mo0_0 S1_0 2.468983 1_555
Mo0_0 S0_2 2.469132 1_555
Mo0_0 S0_0 2.469169 1_555
Mo0_1 S1_5 2.468743 1_455
Mo0_1 S0_5 2.468965 1_455
Mo0_1 S1_3 2.468974 1_555
Mo0_1 S1_1 2.468983 1_555
Mo0_1 S0_3 2.469132 1_555
Mo0_1 S0_1 2.469169 1_555
Mo0_2 S1_6 2.468743 1_455
Mo0_2 S0_6 2.468965 1_455
Mo0_2 S1_0 2.468974 1_565
Mo0_2 S1_2 2.468983 1_555
Mo0_2 S0_0 2.469132 1_565
Mo0_2 S0_2 2.469169 1_555
Mo0_3 S1_7 2.468743 1_455
Mo0_3 S0_7 2.468965 1_455
Mo0_3 S1_1 2.468974 1_565
Mo0_3 S1_3 2.468983 1_555
Mo0_3 S0_1 2.469132 1_565
Mo0_3 S0_3 2.469169 1_555
Mo0_4 S1_0 2.468743 1_555
Mo0_4 S0_0 2.468965 1_555
Mo0_4 S1_6 2.468974 1_555
Mo0_4 S1_4 2.468983 1_555
Mo0_4 S0_6 2.469132 1_555
Mo0_4 S0_4 2.469169 1_555
Mo0_5 S1_1 2.468743 1_555
Mo0_5 S0_1 2.468965 1_555
Mo0_5 S1_7 2.468974 1_555
Mo0_5 S1_5 2.468983 1_555
Mo0_5 S0_7 2.469132 1_555
Mo0_5 S0_5 2.469169 1_555
Mo0_6 S1_2 2.468743 1_555
Mo0_6 S0_2 2.468965 1_555
Mo0_6 S1_4 2.468974 1_565
Mo0_6 S1_6 2.468983 1_555
Mo0_6 S0_4 2.469132 1_565
Mo0_6 S0_6 2.469169 1_555
Mo0_7 S1_3 2.468743 1_555
Mo0_7 S0_3 2.468965 1_555
Mo0_7 S1_5 2.468974 1_565
Mo0_7 S1_7 2.468983 1_555
Mo0_7 S0_5 2.469132 1_565
Mo0_7 S0_7 2.469169 1_555
Mo1_0 Te2_2 2.710451 1_545
Mo1_0 Te2_4 2.710682 1_555
Mo1_0 Te2_0 2.710721 1_555
Mo1_0 Te0_4 2.712702 1_555
Mo1_0 Te0_0 2.712703 1_555
Mo1_0 Te0_2 2.712870 1_545
Mo1_1 Te2_3 2.710451 1_545
Mo1_1 Te2_5 2.710682 1_555
Mo1_1 Te2_1 2.710721 1_555
Mo1_1 Te0_5 2.712702 1_555
Mo1_1 Te0_1 2.712703 1_555
Mo1_1 Te0_3 2.712870 1_545
Mo1_2 Te2_0 2.710451 1_555
Mo1_2 Te2_6 2.710682 1_555
Mo1_2 Te2_2 2.710721 1_555
Mo1_2 Te0_6 2.712702 1_555
Mo1_2 Te0_2 2.712703 1_555
Mo1_2 Te0_0 2.712870 1_555
Mo1_3 Te2_1 2.710451 1_555
Mo1_3 Te2_7 2.710682 1_555
Mo1_3 Te2_3 2.710721 1_555
Mo1_3 Te0_7 2.712702 1_555
Mo1_3 Te0_3 2.712703 1_555
Mo1_3 Te0_1 2.712870 1_555
Mo1_4 Te2_6 2.710451 1_545
Mo1_4 Te2_0 2.710682 1_655
Mo1_4 Te2_4 2.710721 1_555
Mo1_4 Te0_0 2.712702 1_655
Mo1_4 Te0_4 2.712703 1_555
Mo1_4 Te0_6 2.712870 1_545
Mo1_5 Te2_7 2.710451 1_545
Mo1_5 Te2_1 2.710682 1_655
Mo1_5 Te2_5 2.710721 1_555
Mo1_5 Te0_1 2.712702 1_655
Mo1_5 Te0_5 2.712703 1_555
Mo1_5 Te0_7 2.712870 1_545
Mo1_6 Te2_4 2.710451 1_555
Mo1_6 Te2_2 2.710682 1_655
Mo1_6 Te2_6 2.710721 1_555
Mo1_6 Te0_2 2.712702 1_655
Mo1_6 Te0_6 2.712703 1_555
Mo1_6 Te0_4 2.712870 1_555
Mo1_7 Te2_5 2.710451 1_555
Mo1_7 Te2_3 2.710682 1_655
Mo1_7 Te2_7 2.710721 1_555
Mo1_7 Te0_3 2.712702 1_655
Mo1_7 Te0_7 2.712703 1_555
Mo1_7 Te0_5 2.712870 1_555
Se0_0 W0_2 2.564938 1_545
Se0_0 W0_4 2.565148 1_555
Se0_0 W0_0 2.565167 1_555
Se0_1 W0_3 2.564938 1_545
Se0_1 W0_5 2.565148 1_555
Se0_1 W0_1 2.565167 1_555
Se0_2 W0_0 2.564938 1_555
Se0_2 W0_6 2.565148 1_555
Se0_2 W0_2 2.565167 1_555
Se0_3 W0_1 2.564938 1_555
Se0_3 W0_7 2.565148 1_555
Se0_3 W0_3 2.565167 1_555
Se0_4 W0_6 2.564938 1_545
Se0_4 W0_0 2.565148 1_655
Se0_4 W0_4 2.565167 1_555
Se0_5 W0_7 2.564938 1_545
Se0_5 W0_1 2.565148 1_655
Se0_5 W0_5 2.565167 1_555
Se0_6 W0_4 2.564938 1_555
Se0_6 W0_2 2.565148 1_655
Se0_6 W0_6 2.565167 1_555
Se0_7 W0_5 2.564938 1_555
Se0_7 W0_3 2.565148 1_655
Se0_7 W0_7 2.565167 1_555
Se1_0 W0_4 2.567426 1_555
Se1_0 W0_0 2.567468 1_555
Se1_0 W0_2 2.567633 1_545
Se1_1 W0_5 2.567426 1_555
Se1_1 W0_1 2.567468 1_555
Se1_1 W0_3 2.567633 1_545
Se1_2 W0_6 2.567426 1_555
Se1_2 W0_2 2.567468 1_555
Se1_2 W0_0 2.567633 1_555
Se1_3 W0_7 2.567426 1_555
Se1_3 W0_3 2.567468 1_555
Se1_3 W0_1 2.567633 1_555
Se1_4 W0_0 2.567426 1_655
Se1_4 W0_4 2.567468 1_555
Se1_4 W0_6 2.567633 1_545
Se1_5 W0_1 2.567426 1_655
Se1_5 W0_5 2.567468 1_555
Se1_5 W0_7 2.567633 1_545
Se1_6 W0_2 2.567426 1_655
Se1_6 W0_6 2.567468 1_555
Se1_6 W0_4 2.567633 1_555
Se1_7 W0_3 2.567426 1_655
Se1_7 W0_7 2.567468 1_555
Se1_7 W0_5 2.567633 1_555
