# generated using pymatgen
data_MgFe2(HO2)2
_symmetry_space_group_name_H-M   'P 1'
_cell_length_a   3.26056411
_cell_length_b   5.18783110
_cell_length_c   5.69397302
_cell_angle_alpha   79.25319113
_cell_angle_beta   90.00000000
_cell_angle_gamma   90.00000000
_symmetry_Int_Tables_number   1
_chemical_formula_structural   MgFe2(HO2)2
_chemical_formula_sum   'Mg1 Fe2 H2 O4'
_cell_volume   94.62572109
_cell_formula_units_Z   1
loop_
 _symmetry_equiv_pos_site_id
 _symmetry_equiv_pos_as_xyz
  1  'x, y, z'
loop_
 _atom_site_type_symbol
 _atom_site_label
 _atom_site_symmetry_multiplicity
 _atom_site_fract_x
 _atom_site_fract_y
 _atom_site_fract_z
 _atom_site_occupancy
  Mg  Mg0  1  0.50000000  0.92059838  0.22258643  1
  Fe  Fe0  1  0.00000000  0.54549260  0.98989030  1
  Fe  Fe1  1  0.50000000  0.27365942  0.52069719  1
  H  H0  1  0.00000000  0.72358575  0.55777980  1
  H  H1  1  0.50000000  0.24875443  0.91896972  1
  O  O0  1  0.00000000  0.03589265  0.37827395  1
  O  O1  1  0.50000000  0.07584446  0.87344797  1
  O  O2  1  0.00000000  0.53504462  0.64546049  1
  O  O3  1  0.50000000  0.54390470  0.18149216  1
loop_
_geom_bond_atom_site_label_1
_geom_bond_atom_site_label_2
_geom_bond_distance
_geom_bond_site_symmetry_2
Mg0 O0 1.999791 1_565
Mg0 O0 1.999791 1_665
Mg0 O1 2.000906 1_564
Mg0 O3 2.011038 1_555
Fe0 O3 1.960807 1_556
Fe0 O3 1.960807 1_456
Fe0 O2 1.972000 1_555
Fe1 O1 2.078153 1_555
Fe1 O3 2.164743 1_555
Fe1 O0 2.282548 1_555
Fe1 O0 2.282548 1_655
Fe1 O2 2.315284 1_655
Fe1 O2 2.315284 1_555
H0 O2 1.011857 1_555
H0 O0 1.747037 1_565
H1 O1 0.979058 1_555
