# generated using pymatgen
data_Ba3MgMn3O9
_symmetry_space_group_name_H-M   'P 1'
_cell_length_a   8.39474782
_cell_length_b   8.39474474
_cell_length_c   8.39424347
_cell_angle_alpha   40.85801873
_cell_angle_beta   40.85802821
_cell_angle_gamma   40.85176241
_symmetry_Int_Tables_number   1
_chemical_formula_structural   Ba3MgMn3O9
_chemical_formula_sum   'Ba3 Mg1 Mn3 O9'
_cell_volume   228.46650158
_cell_formula_units_Z   1
loop_
 _symmetry_equiv_pos_site_id
 _symmetry_equiv_pos_as_xyz
  1  'x, y, z'
loop_
 _atom_site_type_symbol
 _atom_site_label
 _atom_site_symmetry_multiplicity
 _atom_site_fract_x
 _atom_site_fract_y
 _atom_site_fract_z
 _atom_site_occupancy
  Ba  Ba0  1  0.77766000  0.77765900  0.77645000  1
  Ba  Ba1  1  0.23754900  0.23755000  0.23783300  1
  Ba  Ba2  1  0.96894400  0.96894300  0.96903600  1
  Mg  Mg0  1  0.10703000  0.10703000  0.10565800  1
  Mn  Mn0  1  0.62039300  0.62039400  0.62040600  1
  Mn  Mn1  1  0.38099400  0.38099600  0.38050500  1
  Mn  Mn2  1  0.50478200  0.50478200  0.50382600  1
  O  O0  1  0.50304000  0.98805800  0.50328600  1
  O  O1  1  0.98806000  0.50303900  0.50328600  1
  O  O2  1  0.50288200  0.50288100  0.98828500  1
  O  O3  1  0.29975400  0.29975200  0.75261000  1
  O  O4  1  0.29965500  0.75435700  0.29840600  1
  O  O5  1  0.75435900  0.29965300  0.29840600  1
  O  O6  1  0.70375500  0.26399500  0.70331200  1
  O  O7  1  0.70381700  0.70382000  0.26371600  1
  O  O8  1  0.26399200  0.70375700  0.70331200  1
loop_
_geom_bond_atom_site_label_1
_geom_bond_atom_site_label_2
_geom_bond_distance
_geom_bond_site_symmetry_2
Ba0 O3 2.938007 1_565
Ba0 O3 2.938013 1_655
Ba0 O4 2.938244 1_556
Ba0 O5 2.938245 1_556
Ba0 O5 2.938465 1_565
Ba0 O4 2.938469 1_655
Ba0 O1 3.066304 1_555
Ba0 O0 3.066309 1_555
Ba0 O2 3.073089 1_555
Ba0 O8 3.222221 1_655
Ba0 O6 3.222236 1_565
Ba0 O7 3.226333 1_556
Ba1 O2 2.774940 1_554
Ba1 O1 2.776707 1_455
Ba1 O0 2.776710 1_545
Ba1 O8 2.952690 1_545
Ba1 O6 2.952694 1_455
Ba1 O7 2.953982 1_545
Ba1 O7 2.953994 1_455
Ba1 O6 2.956895 1_554
Ba1 O8 2.956897 1_554
Ba2 O7 2.619909 1_556
Ba2 O8 2.622727 1_655
Ba2 O6 2.622735 1_565
Ba2 O2 3.005630 1_565
Ba2 O2 3.005630 1_655
Ba2 O0 3.006193 1_655
Ba2 O1 3.006193 1_565
Ba2 O0 3.006924 1_556
Ba2 O1 3.006925 1_556
Ba2 Mg0 3.171355 1_666
Mg0 O5 1.861998 1_455
Mg0 O4 1.862007 1_545
Mg0 O3 1.863342 1_554
Mn0 O0 1.933496 1_555
Mn0 O1 1.933513 1_555
Mn0 O2 1.933518 1_555
Mn0 O7 2.084227 1_555
Mn0 O6 2.084485 1_555
Mn0 O8 2.084498 1_555
Mn1 O2 2.079868 1_554
Mn1 O1 2.081996 1_455
Mn1 O0 2.082015 1_545
Mn1 O3 2.223879 1_555
Mn1 O4 2.229720 1_555
Mn1 O5 2.229735 1_555
Mn2 O7 1.918595 1_555
Mn2 O6 1.919129 1_555
Mn2 O8 1.919134 1_555
Mn2 O3 1.973157 1_555
Mn2 O4 1.974085 1_555
Mn2 O5 1.974093 1_555
