# generated using pymatgen
data_LiAs(HO2)2
_symmetry_space_group_name_H-M   'P 1'
_cell_length_a   6.59029100
_cell_length_b   7.36320600
_cell_length_c   7.84564800
_cell_angle_alpha   90.00000000
_cell_angle_beta   90.00000000
_cell_angle_gamma   90.00000000
_symmetry_Int_Tables_number   1
_chemical_formula_structural   LiAs(HO2)2
_chemical_formula_sum   'Li4 As4 H8 O16'
_cell_volume   380.71532761
_cell_formula_units_Z   4
loop_
 _symmetry_equiv_pos_site_id
 _symmetry_equiv_pos_as_xyz
  1  'x, y, z'
loop_
 _atom_site_type_symbol
 _atom_site_label
 _atom_site_symmetry_multiplicity
 _atom_site_fract_x
 _atom_site_fract_y
 _atom_site_fract_z
 _atom_site_occupancy
  Li  Li0  1  0.51891200  0.00677000  0.78840400  1
  Li  Li1  1  0.01891200  0.00677000  0.71159600  1
  Li  Li2  1  0.98108800  0.50677000  0.28840400  1
  Li  Li3  1  0.48108800  0.50677000  0.21159600  1
  As  As0  1  0.19652700  0.83362400  0.08071800  1
  As  As1  1  0.80347300  0.33362400  0.91928200  1
  As  As2  1  0.30347300  0.33362400  0.58071800  1
  As  As3  1  0.69652700  0.83362400  0.41928200  1
  H  H0  1  0.01879000  0.67793200  0.86464500  1
  H  H1  1  0.98121000  0.17793200  0.13535500  1
  H  H2  1  0.48121000  0.17793200  0.36464500  1
  H  H3  1  0.51879000  0.67793200  0.63535500  1
  H  H4  1  0.99012300  0.45092800  0.62884700  1
  H  H5  1  0.00987700  0.95092800  0.37115300  1
  H  H6  1  0.49012300  0.45092800  0.87115300  1
  H  H7  1  0.50987700  0.95092800  0.12884700  1
  O  O0  1  0.21778300  0.63634700  0.18797000  1
  O  O1  1  0.42573600  0.49915300  0.69120300  1
  O  O2  1  0.56256300  0.41302500  0.98352900  1
  O  O3  1  0.43743700  0.91302500  0.01647100  1
  O  O4  1  0.57426400  0.99915300  0.30879700  1
  O  O5  1  0.93743700  0.91302500  0.48352900  1
  O  O6  1  0.92573600  0.49915300  0.80879700  1
  O  O7  1  0.07426400  0.99915300  0.19120300  1
  O  O8  1  0.58146200  0.80635100  0.61972100  1
  O  O9  1  0.08146200  0.80635100  0.88027900  1
  O  O10  1  0.91853800  0.30635100  0.11972100  1
  O  O11  1  0.41853800  0.30635100  0.38027900  1
  O  O12  1  0.28221700  0.13634700  0.68797000  1
  O  O13  1  0.71778300  0.63634700  0.31203000  1
  O  O14  1  0.06256300  0.41302500  0.51647100  1
  O  O15  1  0.78221700  0.13634700  0.81203000  1
loop_
_geom_bond_atom_site_label_1
_geom_bond_atom_site_label_2
_geom_bond_distance
_geom_bond_site_symmetry_2
Li0 O15 1.988916 1_555
Li0 O12 1.991095 1_555
Li0 O3 1.991604 1_546
Li0 O8 2.024637 1_545
Li1 O12 1.988916 1_555
Li1 O15 1.991095 1_455
Li1 O5 1.991604 1_445
Li1 O9 2.024637 1_545
Li2 O13 1.988916 1_555
Li2 O0 1.991095 1_655
Li2 O14 1.991604 1_655
Li2 O10 2.024637 1_555
Li3 O0 1.988916 1_555
Li3 O13 1.991095 1_555
Li3 O2 1.991604 1_554
Li3 O11 2.024637 1_555
As0 O0 1.684548 1_555
As0 O7 1.698868 1_555
As0 O9 1.757371 1_554
As0 O3 1.765382 1_555
As1 O15 1.684548 1_555
As1 O6 1.698868 1_555
As1 O10 1.757371 1_556
As1 O2 1.765382 1_555
As2 O12 1.684548 1_555
As2 O1 1.698868 1_555
As2 O11 1.757371 1_555
As2 O14 1.765382 1_555
As3 O13 1.684548 1_555
As3 O4 1.698868 1_555
As3 O8 1.757371 1_555
As3 O5 1.765382 1_555
H0 O9 1.039110 1_555
H0 O6 1.516885 1_455
H1 O10 1.039110 1_555
H1 O7 1.516885 1_645
H2 O11 1.039110 1_555
H2 O4 1.516885 1_545
H3 O8 1.039110 1_555
H3 O1 1.516885 1_555
H4 O14 1.040735 1_655
H4 O6 1.516375 1_555
H5 O5 1.040735 1_455
H5 O7 1.516375 1_555
H6 O2 1.040735 1_555
H6 O1 1.516375 1_555
H7 O3 1.040735 1_555
H7 O4 1.516375 1_555
