# generated using pymatgen
data_LiFeP2O7
_symmetry_space_group_name_H-M   'P 1'
_cell_length_a   8.20617500
_cell_length_b   6.81021500
_cell_length_c   9.43635693
_cell_angle_alpha   72.50445173
_cell_angle_beta   90.00000000
_cell_angle_gamma   90.00000000
_symmetry_Int_Tables_number   1
_chemical_formula_structural   LiFeP2O7
_chemical_formula_sum   'Li4 Fe4 P8 O28'
_cell_volume   502.96306765
_cell_formula_units_Z   4
loop_
 _symmetry_equiv_pos_site_id
 _symmetry_equiv_pos_as_xyz
  1  'x, y, z'
loop_
 _atom_site_type_symbol
 _atom_site_label
 _atom_site_symmetry_multiplicity
 _atom_site_fract_x
 _atom_site_fract_y
 _atom_site_fract_z
 _atom_site_occupancy
  Li  Li0  1  0.89235100  0.78199000  0.54657400  1
  Li  Li1  1  0.10764900  0.21801000  0.45342600  1
  Li  Li2  1  0.39235100  0.21801000  0.95342600  1
  Li  Li3  1  0.60764900  0.78199000  0.04657400  1
  Fe  Fe0  1  0.77662800  0.28126200  0.00325300  1
  Fe  Fe1  1  0.72337200  0.28126200  0.50325300  1
  Fe  Fe2  1  0.27662800  0.71873800  0.49674700  1
  Fe  Fe3  1  0.22337200  0.71873800  0.99674700  1
  P  P0  1  0.08647400  0.46186500  0.79514400  1
  P  P1  1  0.91352600  0.53813500  0.20485600  1
  P  P2  1  0.41352600  0.46186500  0.29514400  1
  P  P3  1  0.96745500  0.05447400  0.78806400  1
  P  P4  1  0.46745500  0.94552600  0.71193600  1
  P  P5  1  0.03254500  0.94552600  0.21193600  1
  P  P6  1  0.53254500  0.05447400  0.28806400  1
  P  P7  1  0.58647400  0.53813500  0.70485600  1
  O  O0  1  0.41239200  0.60590500  0.13411800  1
  O  O1  1  0.67234600  0.07136200  0.39104900  1
  O  O2  1  0.93725400  0.14532500  0.15544700  1
  O  O3  1  0.58448400  0.08923800  0.12428600  1
  O  O4  1  0.41551600  0.91076200  0.87571400  1
  O  O5  1  0.06274600  0.85467500  0.84455300  1
  O  O6  1  0.32765400  0.92863800  0.60895100  1
  O  O7  1  0.60521100  0.77024300  0.71668200  1
  O  O8  1  0.08448400  0.91076200  0.37571400  1
  O  O9  1  0.43725400  0.85467500  0.34455300  1
  O  O10  1  0.17234600  0.92863800  0.10895100  1
  O  O11  1  0.08760800  0.60590500  0.63411800  1
  O  O12  1  0.23319100  0.48449300  0.89033200  1
  O  O13  1  0.89478900  0.77024300  0.21668200  1
  O  O14  1  0.92189900  0.47290100  0.86627300  1
  O  O15  1  0.91551600  0.08923800  0.62428600  1
  O  O16  1  0.73319100  0.51550700  0.60966800  1
  O  O17  1  0.58760800  0.39409500  0.86588200  1
  O  O18  1  0.42189900  0.52709900  0.63372700  1
  O  O19  1  0.26680900  0.48449300  0.39033200  1
  O  O20  1  0.57810100  0.47290100  0.36627300  1
  O  O21  1  0.07810100  0.52709900  0.13372700  1
  O  O22  1  0.10521100  0.22975700  0.78331800  1
  O  O23  1  0.76680900  0.51550700  0.10966800  1
  O  O24  1  0.91239200  0.39409500  0.36588200  1
  O  O25  1  0.82765400  0.07136200  0.89104900  1
  O  O26  1  0.56274600  0.14532500  0.65544700  1
  O  O27  1  0.39478900  0.22975700  0.28331800  1
loop_
_geom_bond_atom_site_label_1
_geom_bond_atom_site_label_2
_geom_bond_distance
_geom_bond_site_symmetry_2
Li0 O11 2.022927 1_655
Li0 O16 2.168921 1_555
Li0 O8 2.237037 1_655
Li0 O15 2.423782 1_565
Li1 O24 2.022927 1_455
Li1 O19 2.168921 1_555
Li1 O15 2.237037 1_455
Li1 O8 2.423782 1_545
Li2 O17 2.022927 1_555
Li2 O12 2.168921 1_555
Li2 O3 2.237037 1_556
Li2 O4 2.423782 1_545
Li3 O0 2.022927 1_555
Li3 O23 2.168921 1_555
Li3 O4 2.237037 1_554
Li3 O3 2.423782 1_565
Fe0 O14 1.944460 1_554
Fe0 O2 1.964085 1_555
Fe0 O17 2.019383 1_554
Fe0 O25 2.061497 1_554
Fe0 O23 2.126704 1_555
Fe0 O3 2.145397 1_555
Fe1 O20 1.944460 1_555
Fe1 O26 1.964085 1_555
Fe1 O24 2.019383 1_555
Fe1 O1 2.061497 1_555
Fe1 O16 2.126704 1_555
Fe1 O15 2.145397 1_555
Fe2 O18 1.944460 1_555
Fe2 O9 1.964085 1_555
Fe2 O11 2.019383 1_555
Fe2 O6 2.061497 1_555
Fe2 O19 2.126704 1_555
Fe2 O8 2.145397 1_555
Fe3 O21 1.944460 1_556
Fe3 O5 1.964085 1_555
Fe3 O0 2.019383 1_556
Fe3 O10 2.061497 1_556
Fe3 O12 2.126704 1_555
Fe3 O4 2.145397 1_555
O0 P2 1.541105 1_555
O1 P6 1.530023 1_555
O2 P5 1.520184 1_645
O3 P6 1.551189 1_555
O4 P4 1.551189 1_555
O5 P3 1.520184 1_465
O6 P4 1.530023 1_555
O7 P7 1.625050 1_555
O7 P4 1.634850 1_555
O8 P5 1.551189 1_555
O9 P6 1.520184 1_565
O10 P5 1.530023 1_555
O11 P0 1.541105 1_555
O12 P0 1.537325 1_555
O13 P1 1.625050 1_555
O13 P5 1.634850 1_655
O14 P0 1.520007 1_655
O15 P3 1.551189 1_555
O16 P7 1.537325 1_555
O17 P7 1.541105 1_555
O18 P7 1.520007 1_555
O19 P2 1.537325 1_555
O20 P2 1.520007 1_555
O21 P1 1.520007 1_455
O22 P0 1.625050 1_555
O22 P3 1.634850 1_455
O23 P1 1.537325 1_555
O24 P1 1.541105 1_555
O25 P3 1.530023 1_555
O26 P4 1.520184 1_545
O27 P2 1.625050 1_555
O27 P6 1.634850 1_555
