# generated using pymatgen
data_Na5Mg2Ga2P3(SO8)3
_symmetry_space_group_name_H-M   'P 1'
_cell_length_a   8.82736148
_cell_length_b   8.75216284
_cell_length_c   21.92420493
_cell_angle_alpha   91.21291019
_cell_angle_beta   90.26495352
_cell_angle_gamma   120.30599857
_symmetry_Int_Tables_number   1
_chemical_formula_structural   Na5Mg2Ga2P3(SO8)3
_chemical_formula_sum   'Na15 Mg6 Ga6 P9 S9 O72'
_cell_volume   1461.79938787
_cell_formula_units_Z   3
loop_
 _symmetry_equiv_pos_site_id
 _symmetry_equiv_pos_as_xyz
  1  'x, y, z'
loop_
 _atom_site_type_symbol
 _atom_site_label
 _atom_site_symmetry_multiplicity
 _atom_site_fract_x
 _atom_site_fract_y
 _atom_site_fract_z
 _atom_site_occupancy
  Na  Na0  1  0.63936039  0.01096030  0.25350307  1
  Na  Na1  1  0.00151188  0.63360617  0.24429220  1
  Na  Na2  1  0.63423860  0.63324052  0.74524284  1
  Na  Na3  1  0.99719176  0.35625676  0.74742719  1
  Na  Na4  1  0.30510531  0.34266541  0.58618384  1
  Na  Na5  1  0.66808649  0.96627223  0.57942247  1
  Na  Na6  1  0.29887873  0.96100697  0.08087012  1
  Na  Na7  1  0.69310297  0.02743615  0.91236348  1
  Na  Na8  1  0.96537769  0.29476879  0.41461155  1
  Na  Na9  1  0.98547214  0.97300523  0.49756791  1
  Na  Na10  1  0.00704160  0.99092920  0.99836368  1
  Na  Na11  1  0.63722695  0.31443622  0.83209528  1
  Na  Na12  1  0.64019377  0.32252763  0.33331950  1
  Na  Na13  1  0.31751920  0.63885546  0.16403514  1
  Na  Na14  1  0.32650729  0.67272803  0.66496686  1
  Mg  Mg0  1  0.00296188  0.00234040  0.35140043  1
  Mg  Mg1  1  0.01638917  0.00905212  0.85278062  1
  Mg  Mg2  1  0.66489682  0.33045682  0.68509266  1
  Mg  Mg3  1  0.66816570  0.33470118  0.18460931  1
  Mg  Mg4  1  0.32500435  0.66502712  0.01908367  1
  Mg  Mg5  1  0.33612507  0.66901151  0.51779254  1
  Ga  Ga0  1  0.98874204  0.00155403  0.65121084  1
  Ga  Ga1  1  0.00518344  0.99748591  0.15220454  1
  Ga  Ga2  1  0.66434745  0.34118366  0.98431634  1
  Ga  Ga3  1  0.66930684  0.32979628  0.48536858  1
  Ga  Ga4  1  0.33231502  0.67164829  0.31661101  1
  Ga  Ga5  1  0.34188496  0.67842392  0.81673918  1
  P  P0  1  0.29551642  0.00020901  0.25087419  1
  P  P1  1  0.00683776  0.29486630  0.25180735  1
  P  P2  1  0.29385316  0.29601707  0.75093352  1
  P  P3  1  0.70081309  0.99714141  0.75291774  1
  P  P4  1  0.96376176  0.33476908  0.58480460  1
  P  P5  1  0.67419135  0.62765762  0.58468067  1
  P  P6  1  0.95632151  0.62952538  0.08581692  1
  P  P7  1  0.33740759  0.96626808  0.92113790  1
  P  P8  1  0.62677992  0.96447302  0.41858840  1
  S  S0  1  0.70314569  0.70678009  0.25026636  1
  S  S1  1  0.00572261  0.71303102  0.75011522  1
  S  S2  1  0.36796006  0.03901195  0.58299445  1
  S  S3  1  0.67458914  0.03860161  0.08296387  1
  S  S4  1  0.37236737  0.33440778  0.08351552  1
  S  S5  1  0.62452284  0.66111129  0.91715158  1
  S  S6  1  0.03810872  0.37596363  0.91605971  1
  S  S7  1  0.34057115  0.37568526  0.41698543  1
  S  S8  1  0.03694857  0.66647490  0.41680034  1
  O  O0  1  0.20396357  0.02051343  0.30555215  1
  O  O1  1  0.81452062  0.78922378  0.30466114  1
  O  O2  1  0.97094519  0.18471211  0.30879849  1
  O  O3  1  0.20547636  0.18323382  0.80440068  1
  O  O4  1  0.97668689  0.79364095  0.80417197  1
  O  O5  1  0.81389271  0.02224147  0.80935242  1
  O  O6  1  0.77787004  0.95509871  0.69382068  1
  O  O7  1  0.17973445  0.21728233  0.68986210  1
  O  O8  1  0.03399123  0.81864981  0.69451167  1
  O  O9  1  0.78057556  0.81968424  0.19558796  1
  O  O10  1  0.03292155  0.20480823  0.19395711  1
  O  O11  1  0.18081924  0.95701263  0.19044217  1
  O  O12  1  0.87913158  0.35514069  0.64227753  1
  O  O13  1  0.48092853  0.12080003  0.63722732  1
  O  O14  1  0.64019670  0.51748199  0.64152984  1
  O  O15  1  0.87516293  0.52859328  0.14360436  1
  O  O16  1  0.64436682  0.12245468  0.13724618  1
  O  O17  1  0.47830542  0.35707790  0.13828421  1
  O  O18  1  0.44811709  0.29363877  0.02793979  1
  O  O19  1  0.83895304  0.53949347  0.02749250  1
  O  O20  1  0.69769603  0.14398765  0.02694958  1
  O  O21  1  0.44544153  0.15176327  0.52821376  1
  O  O22  1  0.69728721  0.53631210  0.52668699  1
  O  O23  1  0.84414544  0.29327041  0.52617370  1
  O  O24  1  0.53748004  0.68742979  0.96906988  1
  O  O25  1  0.14802575  0.46217816  0.96900448  1
  O  O26  1  0.32067409  0.86439420  0.97840143  1
  O  O27  1  0.54076966  0.86021068  0.47523846  1
  O  O28  1  0.31271259  0.45573560  0.47284591  1
  O  O29  1  0.14631274  0.68724100  0.47020220  1
  O  O30  1  0.11082747  0.62952575  0.35949143  1
  O  O31  1  0.51571852  0.87875128  0.35819501  1
  O  O32  1  0.36338708  0.48499224  0.36269476  1
  O  O33  1  0.11566865  0.47615762  0.85852569  1
  O  O34  1  0.38010929  0.88142597  0.86370715  1
  O  O35  1  0.52068974  0.63010661  0.85836882  1
  O  O36  1  0.01932291  0.82282988  0.41133251  1
  O  O37  1  0.81304798  0.99144692  0.41327193  1
  O  O38  1  0.18071283  0.19839675  0.41106147  1
  O  O39  1  0.00877228  0.19308083  0.91174195  1
  O  O40  1  0.17743632  0.98627141  0.91306959  1
  O  O41  1  0.79992303  0.82299085  0.91235638  1
  O  O42  1  0.97961235  0.16147638  0.58726398  1
  O  O43  1  0.19333095  0.02418273  0.58877240  1
  O  O44  1  0.84338913  0.81607845  0.58930573  1
  O  O45  1  0.97788811  0.82157178  0.08841271  1
  O  O46  1  0.83441265  0.02477122  0.08884068  1
  O  O47  1  0.19416108  0.16985366  0.08694406  1
  O  O48  1  0.68898329  0.16470888  0.74597979  1
  O  O49  1  0.48173221  0.33098478  0.74476980  1
  O  O50  1  0.84768823  0.53249720  0.74382360  1
  O  O51  1  0.68374655  0.53023141  0.24294778  1
  O  O52  1  0.84642886  0.32181991  0.24445449  1
  O  O53  1  0.48196624  0.15916517  0.24449890  1
  O  O54  1  0.64276242  0.50101106  0.92126891  1
  O  O55  1  0.85897874  0.35729783  0.92002046  1
  O  O56  1  0.51485174  0.15469364  0.92495384  1
  O  O57  1  0.64609074  0.15569837  0.42178469  1
  O  O58  1  0.49958983  0.35934907  0.42171622  1
  O  O59  1  0.85976381  0.50122881  0.42037556  1
  O  O60  1  0.35660836  0.49115102  0.07620936  1
  O  O61  1  0.14242821  0.65587579  0.07988405  1
  O  O62  1  0.51593678  0.86037663  0.07724799  1
  O  O63  1  0.34977874  0.86277700  0.57552192  1
  O  O64  1  0.51367877  0.65528960  0.57819898  1
  O  O65  1  0.14928471  0.49427925  0.57795009  1
  O  O66  1  0.31353727  0.82782752  0.25462071  1
  O  O67  1  0.52733968  0.69160842  0.25539207  1
  O  O68  1  0.17546221  0.48408282  0.25745213  1
  O  O69  1  0.30442299  0.48401907  0.75621939  1
  O  O70  1  0.16143223  0.68806513  0.75549627  1
  O  O71  1  0.51590326  0.82480828  0.75579451  1
loop_
_geom_bond_atom_site_label_1
_geom_bond_atom_site_label_2
_geom_bond_distance
_geom_bond_site_symmetry_2
Na0 O53 2.340718 1_555
Na0 O52 2.406208 1_555
Na0 O67 2.451035 1_545
Na0 O66 2.488310 1_545
Na0 O31 2.580604 1_545
Na0 O16 2.741090 1_555
Na0 O2 2.783265 1_555
Na0 O9 2.828330 1_545
Na1 O52 2.356006 1_455
Na1 O66 2.404156 1_555
Na1 O15 2.412162 1_455
Na1 O51 2.474762 1_455
Na1 O68 2.488686 1_555
Na1 O30 2.706919 1_555
Na1 O11 2.747388 1_555
Na1 O1 2.923046 1_455
Na2 O49 2.283648 1_555
Na2 O71 2.389385 1_555
Na2 O50 2.450441 1_555
Na2 O14 2.481300 1_555
Na2 O69 2.534203 1_555
Na2 O35 2.674871 1_555
Na2 O6 2.712358 1_555
Na2 O4 2.895201 1_555
Na3 O69 2.359687 1_655
Na3 O48 2.367971 1_555
Na3 O50 2.487130 1_555
Na3 O70 2.508662 1_655
Na3 O12 2.523343 1_555
Na3 O33 2.624587 1_655
Na3 O7 2.756929 1_655
Na3 O5 2.902044 1_555
Na4 O65 2.352709 1_555
Na4 O64 2.417855 1_555
Na4 O43 2.444987 1_555
Na4 O42 2.484874 1_455
Na4 O7 2.549316 1_555
Na4 O28 2.682697 1_555
Na4 O14 2.807774 1_555
Na4 O21 2.820478 1_555
Na5 O64 2.349267 1_555
Na5 O42 2.398383 1_565
Na5 O63 2.479660 1_555
Na5 O27 2.485100 1_555
Na5 O44 2.496289 1_555
Na5 O6 2.706064 1_555
Na5 O23 2.763740 1_565
Na5 O13 2.892499 1_565
Na6 O61 2.305360 1_555
Na6 O26 2.426259 1_554
Na6 O47 2.430918 1_565
Na6 O45 2.463412 1_455
Na6 O62 2.480888 1_555
Na6 O11 2.616906 1_555
Na6 O18 2.800720 1_565
Na6 O16 2.892634 1_565
Na7 O56 2.356325 1_555
Na7 O39 2.406409 1_655
Na7 O41 2.407006 1_545
Na7 O55 2.493565 1_555
Na7 O5 2.511244 1_555
Na7 O34 2.599297 1_545
Na7 O20 2.683696 1_556
Na7 O24 2.887014 1_545
Na8 O37 2.291329 1_545
Na8 O59 2.417000 1_555
Na8 O38 2.438724 1_655
Na8 O57 2.449476 1_555
Na8 O2 2.503248 1_555
Na8 O23 2.671947 1_555
Na8 O30 2.839128 1_655
Na8 O28 2.922970 1_655
Na9 O36 2.384902 1_655
Na9 O44 2.430315 1_555
Na9 O37 2.448018 1_555
Na9 O42 2.557446 1_565
Na9 O43 2.581537 1_665
Na9 O38 2.686292 1_665
Na10 O40 2.417783 1_555
Na10 O45 2.429930 1_456
Na10 O47 2.486616 1_566
Na10 O41 2.489460 1_455
Na10 O46 2.608312 1_466
Na10 O39 2.617708 1_565
Na11 O49 2.399703 1_555
Na11 O56 2.425467 1_555
Na11 O48 2.449090 1_555
Na11 O54 2.504906 1_555
Na11 O55 2.623327 1_555
Na11 O50 2.729547 1_555
Na12 O53 2.372486 1_555
Na12 O58 2.408272 1_555
Na12 O57 2.468216 1_555
Na12 O59 2.574053 1_555
Na12 O51 2.613859 1_555
Na12 O52 2.674664 1_555
Na13 O60 2.418421 1_555
Na13 O68 2.455396 1_555
Na13 O61 2.456114 1_555
Na13 O66 2.569278 1_555
Na13 O67 2.592081 1_555
Na13 O62 2.684571 1_555
Na14 O65 2.430351 1_555
Na14 O71 2.478567 1_555
Na14 O70 2.508712 1_555
Na14 O63 2.539965 1_555
Na14 O69 2.566501 1_555
Na14 O64 2.577449 1_555
Mg0 O0 1.980489 1_555
Mg0 O2 2.003968 1_455
Mg0 O1 2.016962 1_445
Mg0 O38 2.070268 1_555
Mg0 O37 2.127153 1_445
Mg0 O36 2.128467 1_545
Mg1 O3 1.936976 1_555
Mg1 O4 2.014350 1_445
Mg1 O40 2.021812 1_545
Mg1 O39 2.071639 1_555
Mg1 O5 2.076590 1_455
Mg1 O41 2.232000 1_445
Mg2 O13 2.000213 1_555
Mg2 O14 2.015820 1_555
Mg2 O12 2.029001 1_555
Mg2 O48 2.078992 1_555
Mg2 O49 2.086372 1_555
Mg2 O50 2.096001 1_555
Mg3 O15 1.994265 1_555
Mg3 O16 2.023761 1_555
Mg3 O17 2.050044 1_555
Mg3 O51 2.061935 1_555
Mg3 O53 2.083934 1_555
Mg3 O52 2.092036 1_555
Mg4 O25 1.974962 1_554
Mg4 O26 1.993623 1_554
Mg4 O61 2.067579 1_555
Mg4 O62 2.090354 1_555
Mg4 O24 2.101341 1_554
Mg4 O60 2.113812 1_555
Mg5 O27 1.991194 1_555
Mg5 O28 2.007227 1_555
Mg5 O29 2.045047 1_555
Mg5 O63 2.047889 1_555
Mg5 O65 2.087677 1_555
Mg5 O64 2.098188 1_555
Ga0 O6 1.941990 1_545
Ga0 O7 1.957507 1_655
Ga0 O44 1.977886 1_545
Ga0 O42 2.031500 1_555
Ga0 O8 2.080749 1_645
Ga0 O43 2.201835 1_655
Ga1 O10 1.915616 1_565
Ga1 O11 1.945980 1_555
Ga1 O45 1.978859 1_455
Ga1 O9 2.055139 1_455
Ga1 O46 2.148796 1_465
Ga1 O47 2.163195 1_565
Ga2 O19 1.871154 1_556
Ga2 O56 1.954414 1_555
Ga2 O18 1.990805 1_556
Ga2 O54 2.062066 1_555
Ga2 O20 2.125450 1_556
Ga2 O55 2.178310 1_555
Ga3 O22 1.904359 1_555
Ga3 O23 1.944682 1_555
Ga3 O57 1.974677 1_555
Ga3 O21 2.046199 1_555
Ga3 O58 2.155431 1_555
Ga3 O59 2.162174 1_555
Ga4 O31 1.921590 1_555
Ga4 O68 1.973197 1_555
Ga4 O66 2.012029 1_555
Ga4 O30 2.036314 1_555
Ga4 O32 2.069871 1_555
Ga4 O67 2.126846 1_555
Ga5 O34 1.909239 1_555
Ga5 O71 1.972728 1_555
Ga5 O69 2.024196 1_555
Ga5 O35 2.044445 1_555
Ga5 O70 2.113773 1_555
Ga5 O33 2.116277 1_555
O0 P0 1.505542 1_555
O1 S0 1.464994 1_555
O2 P1 1.528870 1_655
O3 P2 1.495776 1_555
O4 S1 1.455312 1_655
O5 P3 1.526856 1_545
O6 P3 1.586625 1_555
O7 P2 1.590688 1_555
O8 S1 1.490170 1_555
O9 S0 1.502260 1_555
O10 P1 1.557708 1_555
O11 P0 1.582255 1_565
O12 P4 1.520274 1_555
O13 S2 1.467368 1_555
O14 P5 1.528276 1_555
O15 P6 1.521780 1_555
O16 S3 1.479752 1_555
O17 S4 1.465596 1_555
O18 S4 1.512942 1_555
O19 P6 1.565437 1_555
O20 S3 1.503627 1_555
O21 S2 1.503550 1_555
O22 P5 1.556022 1_555
O23 P4 1.574743 1_555
O24 S5 1.454199 1_555
O25 S6 1.439375 1_555
O26 P7 1.519591 1_555
O27 P8 1.519607 1_555
O28 S7 1.480392 1_555
O29 S8 1.462614 1_555
O30 S8 1.520454 1_555
O31 P8 1.575060 1_555
O32 S7 1.492823 1_555
O33 S6 1.509210 1_555
O34 P7 1.589388 1_555
O35 S5 1.515886 1_555
O36 S8 1.460435 1_555
O37 P8 1.544044 1_555
O38 S7 1.481808 1_555
O39 S6 1.487628 1_555
O40 P7 1.518072 1_555
O41 S5 1.486458 1_555
O42 P4 1.593859 1_555
O43 S2 1.486520 1_555
O44 P5 1.570437 1_555
O45 P6 1.592969 1_555
O46 S3 1.480877 1_555
O47 S4 1.507857 1_555
O48 P3 1.532564 1_545
O49 P2 1.534287 1_555
O50 S1 1.492021 1_655
O51 S0 1.471347 1_555
O52 P1 1.556688 1_655
O53 P0 1.537313 1_555
O54 S5 1.493456 1_555
O55 S6 1.508552 1_655
O56 P7 1.601898 1_545
O57 P8 1.594371 1_545
O58 S7 1.484403 1_555
O59 S8 1.505697 1_655
O60 S4 1.458992 1_555
O61 P6 1.545921 1_455
O62 S3 1.481747 1_565
O63 S2 1.473408 1_565
O64 P5 1.559395 1_555
O65 P4 1.535350 1_455
O66 P0 1.598625 1_565
O67 S0 1.494301 1_555
O68 P1 1.573306 1_555
O69 P2 1.602012 1_555
O70 S1 1.501209 1_555
O71 P3 1.569559 1_555
