# generated using pymatgen
data_CsGeI3
_symmetry_space_group_name_H-M   'P 1'
_cell_length_a   8.70673270
_cell_length_b   6.12808183
_cell_length_c   6.06593398
_cell_angle_alpha   92.17638737
_cell_angle_beta   135.86282611
_cell_angle_gamma   86.96676119
_symmetry_Int_Tables_number   1
_chemical_formula_structural   CsGeI3
_chemical_formula_sum   'Cs1 Ge1 I3'
_cell_volume   225.06811679
_cell_formula_units_Z   1
loop_
 _symmetry_equiv_pos_site_id
 _symmetry_equiv_pos_as_xyz
  1  'x, y, z'
loop_
 _atom_site_type_symbol
 _atom_site_label
 _atom_site_symmetry_multiplicity
 _atom_site_fract_x
 _atom_site_fract_y
 _atom_site_fract_z
 _atom_site_occupancy
  Cs  Cs0  1  0.08901338  0.58661240  0.00000000  1
  Ge  Ge0  1  0.62735016  0.13413902  0.00000000  1
  I  I0  1  0.58837884  0.58076908  -0.00000000  1
  I  I1  1  0.08007179  0.09323975  0.48888596  1
  I  I2  1  0.59118583  0.09323975  0.51111404  1
loop_
_geom_bond_atom_site_label_1
_geom_bond_atom_site_label_2
_geom_bond_distance
_geom_bond_site_symmetry_2
Cs0 I2 4.210233 1_555
Cs0 I1 4.210233 1_554
Cs0 I0 4.224344 1_454
Cs0 I0 4.224344 1_556
Cs0 I2 4.248051 1_464
Cs0 I1 4.248051 1_565
Cs0 I0 4.346094 1_555
Cs0 I2 4.356484 1_454
Cs0 I1 4.356484 1_555
Cs0 I0 4.360933 1_455
Cs0 I2 4.429037 1_565
Cs0 I1 4.429037 1_564
Ge0 I0 2.740062 1_555
Ge0 I1 2.751010 1_655
Ge0 I2 2.751011 1_554
