# generated using pymatgen
data_Rb2CoI4
_symmetry_space_group_name_H-M   'P 1'
_cell_length_a   7.71296899
_cell_length_b   8.15719131
_cell_length_c   10.43412223
_cell_angle_alpha   90.00000000
_cell_angle_beta   109.44846029
_cell_angle_gamma   90.00000000
_symmetry_Int_Tables_number   1
_chemical_formula_structural   Rb2CoI4
_chemical_formula_sum   'Rb4 Co2 I8'
_cell_volume   619.01738804
_cell_formula_units_Z   2
loop_
 _symmetry_equiv_pos_site_id
 _symmetry_equiv_pos_as_xyz
  1  'x, y, z'
loop_
 _atom_site_type_symbol
 _atom_site_label
 _atom_site_symmetry_multiplicity
 _atom_site_fract_x
 _atom_site_fract_y
 _atom_site_fract_z
 _atom_site_occupancy
  Rb  Rb0  1  0.30150765  0.75000000  0.96265943  1
  Rb  Rb1  1  0.69849380  0.25000000  0.03735159  1
  Rb  Rb2  1  0.79760015  0.25000000  0.58579651  1
  Rb  Rb3  1  0.20250318  0.75000000  0.41434198  1
  Co  Co0  1  0.30335496  0.25000000  0.21508352  1
  Co  Co1  1  0.69668401  0.75000000  0.78499912  1
  I  I0  1  0.86178049  0.75000000  0.04698279  1
  I  I1  1  0.13821716  0.25000000  0.95303470  1
  I  I2  1  0.91630513  0.75000000  0.64419545  1
  I  I3  1  0.08348015  0.25000000  0.35567043  1
  I  I4  1  0.48183522  0.00153455  0.72226301  1
  I  I5  1  0.51820095  0.50151063  0.27767873  1
  I  I6  1  0.51820095  0.99848937  0.27767873  1
  I  I7  1  0.48183522  0.49846545  0.72226301  1
loop_
_geom_bond_atom_site_label_1
_geom_bond_atom_site_label_2
_geom_bond_distance
_geom_bond_site_symmetry_2
Co0 I5 2.580888 1_555
Co0 I6 2.580888 1_545
Co0 I3 2.585428 1_555
Co0 I1 2.603709 1_554
Co0 Rb1 4.060936 1_555
Co1 I4 2.581113 1_565
Co1 I7 2.581113 1_555
Co1 I2 2.585553 1_555
Co1 I0 2.603061 1_556
Co1 Rb0 4.060670 1_555
I0 Rb0 3.776801 1_654
I0 Rb3 3.858857 1_655
I0 Rb0 4.112960 1_554
I0 Rb1 4.259919 1_555
I0 Rb1 4.259919 1_565
I1 Rb1 3.776737 1_456
I1 Rb2 3.857604 1_455
I1 Rb1 4.112998 1_556
I1 Rb0 4.259933 1_555
I1 Rb0 4.259933 1_545
I2 Rb0 3.646164 1_655
I2 Rb3 3.761671 1_655
I2 Rb2 4.180071 1_565
I2 Rb2 4.180071 1_555
I3 Rb1 3.644342 1_455
I3 Rb2 3.762082 1_455
I3 Rb3 4.180697 1_545
I3 Rb3 4.180697 1_555
I4 Rb1 3.748415 1_556
I4 Rb2 3.791607 1_555
I4 Rb3 3.816388 1_545
I4 Rb0 3.841789 1_545
I5 Rb0 3.748035 1_554
I5 Rb3 3.792524 1_555
I5 Rb2 3.817773 1_555
I5 Rb1 3.840971 1_555
I6 Rb0 3.748035 1_554
I6 Rb3 3.792524 1_555
I6 Rb2 3.817773 1_565
I6 Rb1 3.840971 1_565
I7 Rb1 3.748415 1_556
I7 Rb2 3.791607 1_555
I7 Rb3 3.816388 1_555
I7 Rb0 3.841789 1_555
