# generated using pymatgen
data_Sr2MgZn2Sn2(PO4)4
_symmetry_space_group_name_H-M   'P 1'
_cell_length_a   6.08174676
_cell_length_b   7.35465941
_cell_length_c   9.32234693
_cell_angle_alpha   111.21985733
_cell_angle_beta   105.20269476
_cell_angle_gamma   88.99055786
_symmetry_Int_Tables_number   1
_chemical_formula_structural   Sr2MgZn2Sn2(PO4)4
_chemical_formula_sum   'Sr2 Mg1 Zn2 Sn2 P4 O16'
_cell_volume   373.71837673
_cell_formula_units_Z   1
loop_
 _symmetry_equiv_pos_site_id
 _symmetry_equiv_pos_as_xyz
  1  'x, y, z'
loop_
 _atom_site_type_symbol
 _atom_site_label
 _atom_site_symmetry_multiplicity
 _atom_site_fract_x
 _atom_site_fract_y
 _atom_site_fract_z
 _atom_site_occupancy
  Sr  Sr0  1  0.11538696  0.76038915  0.96247207  1
  Sr  Sr1  1  0.88461304  0.23961085  0.03752793  1
  Mg  Mg0  1  0.50000000  0.50000000  -0.00000000  1
  Zn  Zn0  1  0.94878356  0.35569578  0.52838256  1
  Zn  Zn1  1  0.05121644  0.64430422  0.47161744  1
  Sn  Sn0  1  0.60986632  0.85999942  0.58742586  1
  Sn  Sn1  1  0.39013368  0.14000058  0.41257414  1
  P  P0  1  0.39156902  0.45637868  0.23593953  1
  P  P1  1  0.60843098  0.54362132  0.76406047  1
  P  P2  1  0.77526171  0.90976499  0.24075904  1
  P  P3  1  0.22473829  0.09023501  0.75924096  1
  O  O0  1  0.77357568  0.50311767  0.90390435  1
  O  O1  1  0.62285834  0.43461066  0.20064424  1
  O  O2  1  0.71041061  0.73526620  0.76474864  1
  O  O3  1  0.07810856  0.20719946  0.67133684  1
  O  O4  1  0.37714166  0.56538934  0.79935576  1
  O  O5  1  0.27909997  0.89259620  0.63718195  1
  O  O6  1  0.72090003  0.10740380  0.36281805  1
  O  O7  1  0.09621523  0.03098357  0.85896208  1
  O  O8  1  0.28958939  0.26473380  0.23525136  1
  O  O9  1  0.90378477  0.96901643  0.14103792  1
  O  O10  1  0.22642432  0.49688133  0.09609565  1
  O  O11  1  0.39256255  0.61551826  0.39875599  1
  O  O12  1  0.60743745  0.38448174  0.60124401  1
  O  O13  1  0.54087101  0.79897595  0.13731151  1
  O  O14  1  0.92189144  0.79280054  0.32866316  1
  O  O15  1  0.45912899  0.20102405  0.86268849  1
loop_
_geom_bond_atom_site_label_1
_geom_bond_atom_site_label_2
_geom_bond_distance
_geom_bond_site_symmetry_2
Mg0 O1 2.047869 1_555
Mg0 O4 2.047869 1_554
Mg0 O13 2.085714 1_555
Mg0 O15 2.085714 1_554
Mg0 O0 2.090282 1_554
Mg0 O10 2.090284 1_555
O0 P1 1.543023 1_555
O0 Sr0 2.644850 1_655
O0 Sr1 2.650265 1_556
O1 P0 1.519610 1_555
O1 Sr1 2.552217 1_555
O2 P1 1.547100 1_555
O2 Sn0 2.120368 1_555
O2 Sr0 2.624189 1_655
O3 P3 1.518810 1_555
O3 Zn0 2.015191 1_455
O4 P1 1.519610 1_555
O4 Sr0 2.552217 1_555
O5 P3 1.581135 1_565
O5 Zn1 2.136508 1_555
O5 Sn0 2.170528 1_555
O6 P2 1.581135 1_545
O6 Zn0 2.136508 1_555
O6 Sn1 2.170528 1_555
O7 P3 1.533444 1_555
O7 Sr1 2.446739 1_456
O7 Sr0 2.495662 1_545
O8 P0 1.547100 1_555
O8 Sn1 2.120368 1_555
O8 Sr1 2.624189 1_455
O9 P2 1.533444 1_555
O9 Sr0 2.446739 1_654
O9 Sr1 2.495662 1_565
O10 P0 1.543019 1_555
O10 Sr1 2.644845 1_455
O10 Sr0 2.650271 1_554
O11 P0 1.543751 1_555
O11 Sn0 2.156032 1_555
O11 Zn1 2.331490 1_555
O12 P1 1.543751 1_555
O12 Sn1 2.156032 1_555
O12 Zn0 2.331490 1_555
O13 P2 1.541787 1_555
O13 Sr0 2.629116 1_554
O14 P2 1.518810 1_555
O14 Zn1 2.015191 1_655
O15 P3 1.541787 1_555
O15 Sr1 2.629116 1_556
