# generated using pymatgen
data_MgZn2(NiO2)4
_symmetry_space_group_name_H-M   'P 1'
_cell_length_a   6.30027808
_cell_length_b   6.07024284
_cell_length_c   6.14429999
_cell_angle_alpha   60.39622365
_cell_angle_beta   55.88108375
_cell_angle_gamma   61.20092768
_symmetry_Int_Tables_number   1
_chemical_formula_structural   MgZn2(NiO2)4
_chemical_formula_sum   'Mg1 Zn2 Ni4 O8'
_cell_volume   162.16273344
_cell_formula_units_Z   1
loop_
 _symmetry_equiv_pos_site_id
 _symmetry_equiv_pos_as_xyz
  1  'x, y, z'
loop_
 _atom_site_type_symbol
 _atom_site_label
 _atom_site_symmetry_multiplicity
 _atom_site_fract_x
 _atom_site_fract_y
 _atom_site_fract_z
 _atom_site_occupancy
  Mg  Mg0  1  0.18841965  0.78425449  0.24297069  1
  Zn  Zn0  1  0.91295360  0.06920126  0.94865088  1
  Zn  Zn1  1  0.16769736  0.54771537  0.73691792  1
  Ni  Ni0  1  0.28133104  0.21731534  0.28403074  1
  Ni  Ni1  1  0.62822880  0.11811274  0.62078111  1
  Ni  Ni2  1  0.66770642  0.60034116  0.13163030  1
  Ni  Ni3  1  0.62823108  0.63287200  0.62078784  1
  O  O0  1  0.39756674  0.40880035  0.36969194  1
  O  O1  1  0.43840122  0.34441008  0.87282340  1
  O  O2  1  0.39753703  0.82394399  0.36967106  1
  O  O3  1  0.87654963  0.36908953  0.38536099  1
  O  O4  1  0.35651802  0.90136291  0.84069905  1
  O  O5  1  0.85737445  0.43678896  0.85221721  1
  O  O6  1  0.81288166  0.91297675  0.36113777  1
  O  O7  1  0.85735529  0.85364707  0.85221209  1
loop_
_geom_bond_atom_site_label_1
_geom_bond_atom_site_label_2
_geom_bond_distance
_geom_bond_site_symmetry_2
Mg0 O6 1.894153 1_455
Mg0 O4 1.946533 1_554
Mg0 O0 2.010244 1_555
Mg0 O2 2.010377 1_555
Ni0 O1 1.990719 1_554
Ni0 O2 2.005284 1_545
Ni0 O0 2.005332 1_555
Ni0 O3 2.064439 1_455
Ni1 O6 1.983426 1_545
Ni1 O1 2.038808 1_555
Ni1 O4 2.075102 1_545
Ni1 O3 2.107474 1_555
Ni1 O7 2.120773 1_545
Ni1 O0 2.227222 1_555
Ni2 O7 1.897411 1_554
Ni2 O5 1.897499 1_554
Ni2 O2 1.954833 1_555
Ni2 O0 1.954893 1_555
Ni2 O3 2.119359 1_555
Ni3 O6 1.983254 1_555
Ni3 O1 2.038514 1_555
Ni3 O4 2.074917 1_555
Ni3 O3 2.107139 1_555
Ni3 O5 2.120860 1_555
Ni3 O2 2.227519 1_555
O0 Zn1 2.221923 1_555
O1 Zn1 1.918510 1_555
O2 Zn1 2.221654 1_555
O4 Zn0 2.265538 1_465
O5 Zn0 1.904287 1_555
O5 Zn1 2.005260 1_655
O6 Zn0 2.032014 1_564
O7 Zn0 1.904302 1_565
O7 Zn1 2.005256 1_655
