# generated using pymatgen
data_Na7ZnGa3(PO4)6
_symmetry_space_group_name_H-M   'P 1'
_cell_length_a   8.82060026
_cell_length_b   8.83392438
_cell_length_c   21.78085270
_cell_angle_alpha   90.08284461
_cell_angle_beta   90.03344386
_cell_angle_gamma   119.95804681
_symmetry_Int_Tables_number   1
_chemical_formula_structural   Na7ZnGa3(PO4)6
_chemical_formula_sum   'Na21 Zn3 Ga9 P18 O72'
_cell_volume   1470.41465599
_cell_formula_units_Z   3
loop_
 _symmetry_equiv_pos_site_id
 _symmetry_equiv_pos_as_xyz
  1  'x, y, z'
loop_
 _atom_site_type_symbol
 _atom_site_label
 _atom_site_symmetry_multiplicity
 _atom_site_fract_x
 _atom_site_fract_y
 _atom_site_fract_z
 _atom_site_occupancy
  Na  Na0  1  0.63734715  0.00649355  0.24581158  1
  Na  Na1  1  0.36839121  0.36108704  0.24600738  1
  Na  Na2  1  0.99290838  0.63109556  0.24564556  1
  Na  Na3  1  0.63306972  0.62630908  0.74739690  1
  Na  Na4  1  0.99340867  0.36682204  0.74780663  1
  Na  Na5  1  0.37518241  0.00650436  0.74753823  1
  Na  Na6  1  0.02754883  0.69499411  0.58438142  1
  Na  Na7  1  0.66484455  0.97133673  0.58396363  1
  Na  Na8  1  0.30723865  0.97169353  0.08408641  1
  Na  Na9  1  0.66745991  0.69384894  0.08443870  1
  Na  Na10  1  0.69811961  0.03300915  0.91923433  1
  Na  Na11  1  0.33194656  0.30039749  0.91870698  1
  Na  Na12  1  0.96654280  0.29347994  0.41411507  1
  Na  Na13  1  0.32688433  0.03370773  0.41413641  1
  Na  Na14  1  0.70785635  0.67378616  0.41391641  1
  Na  Na15  1  0.01095091  0.01205555  0.49975445  1
  Na  Na16  1  0.99982922  0.99913258  0.00097739  1
  Na  Na17  1  0.67806709  0.34621969  0.83401627  1
  Na  Na18  1  0.66679691  0.33330485  0.32955187  1
  Na  Na19  1  0.31993303  0.65203220  0.16355732  1
  Na  Na20  1  0.33188941  0.65250281  0.66457284  1
  Zn  Zn0  1  0.00017380  0.00086262  0.34803868  1
  Zn  Zn1  1  0.66462581  0.33405064  0.67994231  1
  Zn  Zn2  1  0.67058098  0.33493788  0.17776208  1
  Ga  Ga0  1  0.99971387  0.99454401  0.85292786  1
  Ga  Ga1  1  0.00590341  0.00585036  0.64816843  1
  Ga  Ga2  1  0.00092753  0.00668229  0.14884248  1
  Ga  Ga3  1  0.67501693  0.34000865  0.98427148  1
  Ga  Ga4  1  0.66394717  0.33258227  0.48517292  1
  Ga  Ga5  1  0.32709101  0.66232768  0.01631498  1
  Ga  Ga6  1  0.33273673  0.66155695  0.51841326  1
  Ga  Ga7  1  0.33334702  0.66585896  0.31569138  1
  Ga  Ga8  1  0.32989480  0.66463253  0.81747551  1
  P  P0  1  0.29336912  0.99644531  0.25105293  1
  P  P1  1  0.70302590  0.70673085  0.25115643  1
  P  P2  1  0.00347927  0.29617897  0.25221270  1
  P  P3  1  0.28669615  0.29120942  0.75261991  1
  P  P4  1  0.00423344  0.71299885  0.75042931  1
  P  P5  1  0.70862490  0.99554410  0.75152597  1
  P  P6  1  0.96533329  0.33323488  0.58363661  1
  P  P7  1  0.36839725  0.03712433  0.58320462  1
  P  P8  1  0.66456508  0.62976026  0.58406220  1
  P  P9  1  0.96518194  0.63010043  0.08408151  1
  P  P10  1  0.66823496  0.03644932  0.08199639  1
  P  P11  1  0.36806720  0.33378273  0.08222311  1
  P  P12  1  0.62735387  0.66558803  0.91672792  1
  P  P13  1  0.03862277  0.37558937  0.91548271  1
  P  P14  1  0.33170857  0.95870343  0.91684562  1
  P  P15  1  0.62123462  0.96015351  0.41847279  1
  P  P16  1  0.33880484  0.37907759  0.41742675  1
  P  P17  1  0.04002140  0.66144218  0.41854318  1
  O  O0  1  0.21681887  0.02543657  0.30999361  1
  O  O1  1  0.80885377  0.78392310  0.31008472  1
  O  O2  1  0.97316834  0.19398644  0.31226612  1
  O  O3  1  0.20538594  0.18241310  0.81166451  1
  O  O4  1  0.97438636  0.80215865  0.80587514  1
  O  O5  1  0.82206844  0.02375911  0.80935695  1
  O  O6  1  0.79127410  0.96512432  0.69276193  1
  O  O7  1  0.16714977  0.20491132  0.69625442  1
  O  O8  1  0.03499197  0.82247448  0.69065257  1
  O  O9  1  0.79143858  0.82413981  0.19358097  1
  O  O10  1  0.03689254  0.20500323  0.19712995  1
  O  O11  1  0.17572718  0.96705001  0.19341610  1
  O  O12  1  0.88914295  0.36768534  0.64171866  1
  O  O13  1  0.47921265  0.11196051  0.64106915  1
  O  O14  1  0.63970741  0.52914500  0.64323842  1
  O  O15  1  0.89514545  0.53327663  0.14421592  1
  O  O16  1  0.63217165  0.11076996  0.13976267  1
  O  O17  1  0.47828947  0.36910010  0.14036495  1
  O  O18  1  0.45604754  0.30051040  0.02507704  1
  O  O19  1  0.83865135  0.54028737  0.02963468  1
  O  O20  1  0.69121222  0.14747852  0.02373245  1
  O  O21  1  0.45582001  0.14784235  0.52483178  1
  O  O22  1  0.69739182  0.54263668  0.52700675  1
  O  O23  1  0.84466594  0.30058783  0.52631050  1
  O  O24  1  0.54184789  0.69880601  0.97337619  1
  O  O25  1  0.16405967  0.46354544  0.96931798  1
  O  O26  1  0.30979215  0.85064981  0.97460536  1
  O  O27  1  0.53379613  0.84763398  0.47593842  1
  O  O28  1  0.30839165  0.46883379  0.47238091  1
  O  O29  1  0.15371372  0.68903747  0.47602215  1
  O  O30  1  0.12312170  0.63093893  0.35988342  1
  O  O31  1  0.50798208  0.87637147  0.35973491  1
  O  O32  1  0.37077882  0.48897773  0.35763369  1
  O  O33  1  0.11623208  0.47926358  0.85493005  1
  O  O34  1  0.36400925  0.87555583  0.85862274  1
  O  O35  1  0.51078451  0.63208963  0.85828054  1
  O  O36  1  0.01840982  0.82420786  0.41530634  1
  O  O37  1  0.80551165  0.98111517  0.41570858  1
  O  O38  1  0.17721193  0.19382859  0.41447520  1
  O  O39  1  0.01797887  0.18786140  0.91225869  1
  O  O40  1  0.16936972  0.98451804  0.91238573  1
  O  O41  1  0.80962922  0.83495369  0.91146951  1
  O  O42  1  0.97613025  0.16233298  0.58791833  1
  O  O43  1  0.18100427  0.01349697  0.58720534  1
  O  O44  1  0.83435077  0.81633814  0.58648762  1
  O  O45  1  0.98367451  0.81748679  0.08714592  1
  O  O46  1  0.83143994  0.01166865  0.08695703  1
  O  O47  1  0.18620011  0.16313668  0.08726549  1
  O  O48  1  0.68685227  0.15831264  0.74774326  1
  O  O49  1  0.47095410  0.31201986  0.74789951  1
  O  O50  1  0.84257477  0.52778676  0.74716170  1
  O  O51  1  0.67783871  0.52140646  0.24543315  1
  O  O52  1  0.84205057  0.31907309  0.24498690  1
  O  O53  1  0.47849950  0.15685406  0.24483969  1
  O  O54  1  0.64106688  0.49744209  0.92268873  1
  O  O55  1  0.85194412  0.35053481  0.92232628  1
  O  O56  1  0.49939546  0.14531731  0.92059258  1
  O  O57  1  0.63754265  0.14559794  0.42217973  1
  O  O58  1  0.50849458  0.36399553  0.42279945  1
  O  O59  1  0.85477311  0.49221984  0.42287254  1
  O  O60  1  0.35215454  0.50073083  0.07395106  1
  O  O61  1  0.15318232  0.65807903  0.07513286  1
  O  O62  1  0.50221376  0.84839370  0.07567067  1
  O  O63  1  0.34611780  0.84920600  0.57751569  1
  O  O64  1  0.50530894  0.65936989  0.57699535  1
  O  O65  1  0.14827016  0.49958079  0.57635816  1
  O  O66  1  0.30611868  0.82461243  0.25416655  1
  O  O67  1  0.51838102  0.69428368  0.25396159  1
  O  O68  1  0.17398973  0.48156594  0.25488829  1
  O  O69  1  0.30513174  0.47802449  0.75583571  1
  O  O70  1  0.17450882  0.69808706  0.75526250  1
  O  O71  1  0.52310444  0.82604183  0.75575712  1
loop_
_geom_bond_atom_site_label_1
_geom_bond_atom_site_label_2
_geom_bond_distance
_geom_bond_site_symmetry_2
Na0 O53 2.363620 1_555
Na0 O67 2.418797 1_545
Na0 O52 2.430229 1_555
Na0 O16 2.496800 1_555
Na0 O66 2.542397 1_545
Na0 O31 2.735330 1_545
Na0 O9 2.814212 1_545
Na0 O2 2.949710 1_555
Na1 O51 2.365477 1_555
Na1 O68 2.435766 1_555
Na1 O53 2.439038 1_555
Na1 O17 2.484703 1_555
Na1 O67 2.559918 1_555
Na1 O32 2.675139 1_555
Na1 O10 2.747711 1_555
Na1 O0 2.928582 1_555
Na2 O15 2.370450 1_555
Na2 O52 2.388559 1_555
Na2 O66 2.423016 1_655
Na2 O51 2.443941 1_555
Na2 O68 2.538535 1_655
Na2 O30 2.740179 1_655
Na2 O11 2.816830 1_655
Na2 O1 2.935041 1_555
Na3 O50 2.403910 1_555
Na3 O49 2.405896 1_555
Na3 O71 2.407426 1_555
Na3 O14 2.435510 1_555
Na3 O69 2.516724 1_555
Na3 O35 2.656435 1_555
Na3 O6 2.857042 1_555
Na3 O4 2.901421 1_555
Na4 O50 2.383629 1_555
Na4 O48 2.393767 1_555
Na4 O69 2.420149 1_655
Na4 O12 2.487916 1_555
Na4 O70 2.543889 1_655
Na4 O33 2.553419 1_655
Na4 O7 2.800297 1_655
Na4 O5 2.950519 1_555
Na5 O48 2.382019 1_555
Na5 O49 2.391787 1_555
Na5 O70 2.402022 1_545
Na5 O13 2.498510 1_555
Na5 O71 2.520685 1_545
Na5 O34 2.663914 1_545
Na5 O8 2.880969 1_545
Na5 O3 2.988205 1_555
Na6 O44 2.424780 1_455
Na6 O43 2.438901 1_565
Na6 O63 2.439686 1_555
Na6 O65 2.445324 1_555
Na6 O8 2.559042 1_555
Na6 O29 2.621591 1_555
Na6 O12 2.810186 1_455
Na6 O22 2.816075 1_455
Na7 O64 2.392395 1_555
Na7 O42 2.401187 1_565
Na7 O63 2.461153 1_555
Na7 O44 2.481545 1_555
Na7 O27 2.606569 1_555
Na7 O6 2.630710 1_555
Na7 O13 2.792970 1_565
Na7 O23 2.820969 1_565
Na8 O61 2.407937 1_555
Na8 O47 2.409938 1_565
Na8 O62 2.459342 1_555
Na8 O45 2.474503 1_455
Na8 O26 2.616659 1_554
Na8 O11 2.640805 1_555
Na8 O16 2.769369 1_565
Na8 O18 2.831470 1_565
Na9 O46 2.433389 1_565
Na9 O45 2.435804 1_555
Na9 O60 2.440705 1_555
Na9 O62 2.452078 1_555
Na9 O9 2.627500 1_555
Na9 O24 2.669624 1_554
Na9 O19 2.754717 1_555
Na9 O17 2.780244 1_555
Na10 O41 2.403164 1_545
Na10 O56 2.407187 1_555
Na10 O55 2.431420 1_555
Na10 O39 2.449678 1_655
Na10 O20 2.502348 1_556
Na10 O5 2.649758 1_555
Na10 O24 2.820372 1_545
Na10 O34 2.873825 1_545
Na11 O54 2.393972 1_555
Na11 O40 2.421606 1_545
Na11 O39 2.434545 1_555
Na11 O56 2.465966 1_555
Na11 O18 2.561620 1_556
Na11 O3 2.568307 1_555
Na11 O25 2.759379 1_555
Na11 O35 2.864192 1_555
Na12 O37 2.391424 1_545
Na12 O2 2.396421 1_555
Na12 O59 2.412170 1_555
Na12 O38 2.421110 1_655
Na12 O57 2.524667 1_555
Na12 O23 2.683541 1_555
Na12 O30 2.844241 1_655
Na12 O28 2.902952 1_655
Na13 O38 2.368293 1_555
Na13 O36 2.408358 1_545
Na13 O57 2.410442 1_555
Na13 O0 2.453416 1_555
Na13 O58 2.538689 1_555
Na13 O21 2.639634 1_555
Na13 O31 2.846458 1_545
Na13 O29 2.964821 1_545
Na14 O36 2.373748 1_655
Na14 O37 2.403818 1_555
Na14 O58 2.411369 1_555
Na14 O1 2.449057 1_555
Na14 O59 2.523201 1_555
Na14 O22 2.705528 1_555
Na14 O32 2.854868 1_555
Na14 O27 2.981939 1_555
Na15 O38 2.416447 1_555
Na15 O43 2.419853 1_555
Na15 O42 2.438181 1_455
Na15 O37 2.491884 1_445
Na15 O36 2.498322 1_545
Na15 O44 2.511498 1_445
Na16 O46 2.427412 1_565
Na16 O45 2.428645 1_555
Na16 O47 2.437938 1_665
Na16 O40 2.484325 1_654
Na16 O41 2.505346 1_554
Na16 O39 2.506471 1_664
Na17 O50 2.438137 1_555
Na17 O55 2.447727 1_555
Na17 O54 2.459669 1_555
Na17 O49 2.527858 1_555
Na17 O56 2.531618 1_555
Na17 O48 2.532211 1_555
Na18 O51 2.444362 1_555
Na18 O52 2.448423 1_555
Na18 O53 2.448501 1_555
Na18 O57 2.543518 1_555
Na18 O59 2.552358 1_555
Na18 O58 2.555002 1_555
Na19 O61 2.439469 1_555
Na19 O68 2.440821 1_555
Na19 O60 2.459445 1_555
Na19 O66 2.532021 1_555
Na19 O67 2.534155 1_555
Na19 O62 2.546793 1_555
Na20 O64 2.427596 1_555
Na20 O65 2.437942 1_555
Na20 O69 2.455355 1_555
Na20 O63 2.534307 1_555
Na20 O71 2.558182 1_555
Na20 O70 2.559343 1_555
Ga0 O4 1.898442 1_555
Ga0 O5 1.955861 1_565
Ga0 O3 1.962772 1_665
Ga0 O40 2.013662 1_655
Ga0 O41 2.017801 1_555
Ga0 O39 2.081091 1_665
Ga1 O7 1.925401 1_555
Ga1 O8 1.991338 1_545
Ga1 O6 1.994943 1_445
Ga1 O43 2.012861 1_555
Ga1 O42 2.017279 1_455
Ga1 O44 2.087684 1_445
Ga2 O10 1.927523 1_555
Ga2 O11 1.995183 1_545
Ga2 O9 1.998759 1_445
Ga2 O46 2.029134 1_455
Ga2 O47 2.032687 1_555
Ga2 O45 2.088440 1_445
Ga3 O19 1.905942 1_556
Ga3 O20 1.974483 1_556
Ga3 O18 1.992981 1_556
Ga3 O55 2.030373 1_555
Ga3 O54 2.060073 1_555
Ga3 O56 2.147352 1_555
Ga4 O21 1.947672 1_555
Ga4 O22 1.951569 1_555
Ga4 O23 1.967928 1_555
Ga4 O58 2.044932 1_555
Ga4 O57 2.067381 1_555
Ga4 O59 2.073824 1_555
Ga5 O25 1.915845 1_554
Ga5 O26 1.968242 1_554
Ga5 O61 1.985109 1_555
Ga5 O24 1.990006 1_554
Ga5 O60 1.995674 1_555
Ga5 O62 2.053026 1_555
Ga6 O28 1.891973 1_555
Ga6 O29 1.945963 1_555
Ga6 O27 1.948823 1_555
Ga6 O65 1.992523 1_555
Ga6 O64 1.993165 1_555
Ga6 O63 2.053586 1_555
Ga7 O31 1.970667 1_555
Ga7 O30 1.972757 1_555
Ga7 O32 1.975899 1_555
Ga7 O68 2.021447 1_555
Ga7 O67 2.031951 1_555
Ga7 O66 2.040018 1_555
Ga8 O34 1.949477 1_555
Ga8 O33 1.955070 1_555
Ga8 O35 1.968641 1_555
Ga8 O69 2.049715 1_555
Ga8 O70 2.050751 1_555
Ga8 O71 2.079875 1_555
O0 P0 1.530480 1_545
O0 Zn0 1.993375 1_555
O1 P1 1.531043 1_555
O1 Zn0 1.991918 1_665
O2 P2 1.536271 1_655
O2 Zn0 1.995971 1_655
O3 P3 1.551843 1_555
O4 P4 1.533892 1_655
O5 P5 1.548724 1_545
O6 P5 1.561298 1_555
O7 P3 1.547007 1_555
O8 P4 1.563991 1_555
O9 P1 1.566403 1_555
O10 P2 1.552319 1_555
O11 P0 1.564798 1_555
O12 P6 1.532588 1_555
O12 Zn1 2.029351 1_555
O13 P7 1.526992 1_555
O13 Zn1 2.007427 1_555
O14 P8 1.519336 1_555
O14 Zn1 2.009925 1_555
O15 P9 1.518291 1_555
O15 Zn2 2.016563 1_555
O16 P10 1.523798 1_555
O16 Zn2 2.011516 1_555
O17 P11 1.529953 1_555
O17 Zn2 2.035120 1_555
O18 P11 1.570274 1_555
O19 P9 1.546877 1_555
O20 P10 1.555286 1_555
O21 P7 1.555386 1_555
O22 P8 1.562292 1_555
O23 P6 1.570318 1_555
O24 P12 1.548679 1_555
O25 P13 1.529738 1_555
O26 P14 1.533193 1_555
O27 P15 1.545496 1_555
O28 P16 1.530819 1_555
O29 P17 1.544654 1_555
O30 P17 1.561944 1_555
O31 P15 1.561991 1_555
O32 P16 1.564868 1_555
O33 P13 1.557324 1_555
O34 P14 1.560647 1_555
O35 P12 1.568089 1_555
O36 P17 1.543624 1_555
O36 Zn0 2.205651 1_565
O37 P15 1.542560 1_555
O37 Zn0 2.203542 1_665
O38 P16 1.543956 1_555
O38 Zn0 2.184023 1_555
O39 P13 1.576817 1_555
O40 P14 1.561372 1_555
O41 P12 1.560396 1_555
O42 P6 1.562389 1_555
O43 P7 1.561716 1_555
O44 P8 1.580078 1_555
O45 P9 1.581539 1_555
O46 P10 1.564151 1_555
O47 P11 1.563145 1_555
O48 P5 1.545089 1_545
O48 Zn1 2.222532 1_555
O49 P3 1.545218 1_555
O49 Zn1 2.195176 1_555
O50 P4 1.544277 1_655
O50 Zn1 2.200794 1_555
O51 P1 1.543130 1_555
O51 Zn2 2.185763 1_555
O52 P2 1.542919 1_655
O52 Zn2 2.158894 1_555
O53 P0 1.543585 1_545
O53 Zn2 2.197162 1_555
O54 P12 1.554942 1_555
O55 P13 1.555299 1_655
O56 P14 1.573618 1_545
O57 P15 1.573267 1_545
O58 P16 1.571865 1_555
O59 P17 1.573084 1_655
O60 P11 1.560352 1_555
O61 P9 1.562093 1_455
O62 P10 1.578829 1_565
O63 P7 1.575855 1_565
O64 P8 1.559559 1_555
O65 P6 1.555978 1_455
O66 P0 1.578678 1_555
O67 P1 1.577877 1_555
O68 P2 1.577059 1_555
O69 P3 1.576865 1_555
O70 P4 1.575336 1_555
O71 P5 1.575375 1_555
