# generated using pymatgen
data_Na3InGe3(PO4)6
_symmetry_space_group_name_H-M   'P 1'
_cell_length_a   8.55945684
_cell_length_b   8.56778456
_cell_length_c   21.91351469
_cell_angle_alpha   89.93123783
_cell_angle_beta   90.04025766
_cell_angle_gamma   120.26008727
_symmetry_Int_Tables_number   1
_chemical_formula_structural   Na3InGe3(PO4)6
_chemical_formula_sum   'Na9 In3 Ge9 P18 O72'
_cell_volume   1388.07495566
_cell_formula_units_Z   3
loop_
 _symmetry_equiv_pos_site_id
 _symmetry_equiv_pos_as_xyz
  1  'x, y, z'
loop_
 _atom_site_type_symbol
 _atom_site_label
 _atom_site_symmetry_multiplicity
 _atom_site_fract_x
 _atom_site_fract_y
 _atom_site_fract_z
 _atom_site_occupancy
  Na  Na0  1  0.36310325  0.35638171  0.24821090  1
  Na  Na1  1  0.63322528  0.62860371  0.74946074  1
  Na  Na2  1  0.96775969  0.29605746  0.41550250  1
  Na  Na3  1  0.00074217  0.99103566  0.50107535  1
  Na  Na4  1  -0.00000977  0.00018550  0.00016718  1
  Na  Na5  1  0.66756791  0.32385066  0.83531194  1
  Na  Na6  1  0.66697771  0.33407230  0.33050666  1
  Na  Na7  1  0.33229539  0.67672139  0.16313449  1
  Na  Na8  1  0.32322360  0.66814095  0.66485682  1
  In  In0  1  0.99883408  0.99123100  0.35531215  1
  In  In1  1  0.66710651  0.32671615  0.68502402  1
  In  In2  1  0.67298385  0.33293721  0.17850142  1
  Ge  Ge0  1  0.00140999  0.00136249  0.85660124  1
  Ge  Ge1  1  0.00216769  0.00144998  0.64580181  1
  Ge  Ge2  1  0.99811962  0.99687250  0.14540060  1
  Ge  Ge3  1  0.66678946  0.33311908  0.98139150  1
  Ge  Ge4  1  0.66144901  0.33369672  0.48248249  1
  Ge  Ge5  1  0.33309937  0.66624811  0.01636140  1
  Ge  Ge6  1  0.33508669  0.66797921  0.52019665  1
  Ge  Ge7  1  0.33489372  0.67320622  0.31249099  1
  Ge  Ge8  1  0.32838069  0.66768780  0.81535660  1
  P  P0  1  0.28770225  0.99152490  0.24904580  1
  P  P1  1  0.70504898  0.71194115  0.24936405  1
  P  P2  1  0.00170397  0.29458753  0.25194541  1
  P  P3  1  0.27563518  0.28501880  0.75282343  1
  P  P4  1  0.01190499  0.72496925  0.75249813  1
  P  P5  1  0.71611554  0.99687510  0.75354463  1
  P  P6  1  0.96436578  0.33356789  0.58119414  1
  P  P7  1  0.36935736  0.03528597  0.58168515  1
  P  P8  1  0.66599601  0.62957226  0.58300110  1
  P  P9  1  0.96657602  0.63158752  0.07949076  1
  P  P10  1  0.66548370  0.03413746  0.07975356  1
  P  P11  1  0.36879975  0.33483989  0.08082084  1
  P  P12  1  0.62106288  0.66473665  0.91604501  1
  P  P13  1  0.04388381  0.37866277  0.91661072  1
  P  P14  1  0.33458583  0.95554927  0.91653232  1
  P  P15  1  0.60970518  0.95420216  0.41939437  1
  P  P16  1  0.34684830  0.39025330  0.41846357  1
  P  P17  1  0.04712876  0.66156749  0.42008827  1
  O  O0  1  0.22135016  0.03741691  0.30692114  1
  O  O1  1  0.80747929  0.77765157  0.30862624  1
  O  O2  1  0.97663839  0.19669865  0.31265665  1
  O  O3  1  0.19292483  0.16905494  0.80990802  1
  O  O4  1  0.97269775  0.80734851  0.80888004  1
  O  O5  1  0.83068620  0.02286588  0.81057417  1
  O  O6  1  0.79365208  0.95530441  0.69495780  1
  O  O7  1  0.16450102  0.20490219  0.69340529  1
  O  O8  1  0.04215080  0.83614161  0.69313187  1
  O  O9  1  0.79358111  0.83238126  0.19194839  1
  O  O10  1  0.04254524  0.20532009  0.19610241  1
  O  O11  1  0.16659914  0.95941847  0.19172708  1
  O  O12  1  0.89822073  0.37889664  0.63861294  1
  O  O13  1  0.47739925  0.09929162  0.64008063  1
  O  O14  1  0.62499814  0.52549949  0.64293725  1
  O  O15  1  0.90685306  0.52698363  0.13842689  1
  O  O16  1  0.61891112  0.09379172  0.13822130  1
  O  O17  1  0.47080060  0.37603670  0.14085690  1
  O  O18  1  0.46129274  0.29623643  0.02624104  1
  O  O19  1  0.83666337  0.54132632  0.02414209  1
  O  O20  1  0.70572507  0.16380840  0.02431555  1
  O  O21  1  0.45691802  0.16243920  0.52555514  1
  O  O22  1  0.70441553  0.53907518  0.52785517  1
  O  O23  1  0.84155710  0.29599614  0.52354013  1
  O  O24  1  0.53571629  0.70216614  0.97104670  1
  O  O25  1  0.16507841  0.46181000  0.97243695  1
  O  O26  1  0.29638960  0.83430043  0.97222621  1
  O  O27  1  0.52602437  0.83760228  0.47556698  1
  O  O28  1  0.30974532  0.47725029  0.47320007  1
  O  O29  1  0.16234060  0.68654728  0.47609431  1
  O  O30  1  0.12567193  0.62107480  0.36156057  1
  O  O31  1  0.49831431  0.87315057  0.36008285  1
  O  O32  1  0.37457413  0.49760159  0.35797517  1
  O  O33  1  0.12481301  0.49794401  0.85868569  1
  O  O34  1  0.37359622  0.87544782  0.85877946  1
  O  O35  1  0.50604614  0.62906398  0.85677299  1
  O  O36  1  0.02611191  0.82607912  0.41939222  1
  O  O37  1  0.80204896  0.98421524  0.41808648  1
  O  O38  1  0.17674022  0.20249623  0.41764358  1
  O  O39  1  0.02533146  0.18896973  0.91043003  1
  O  O40  1  0.16357381  0.97437816  0.91003215  1
  O  O41  1  0.81216204  0.83633890  0.91035355  1
  O  O42  1  0.97810309  0.15965809  0.58815304  1
  O  O43  1  0.18104720  0.02057144  0.58793323  1
  O  O44  1  0.83955107  0.81902371  0.58866044  1
  O  O45  1  0.98055646  0.81944297  0.08611443  1
  O  O46  1  0.83965065  0.02040241  0.08706260  1
  O  O47  1  0.17929372  0.16106509  0.08723180  1
  O  O48  1  0.69522267  0.16183653  0.75082750  1
  O  O49  1  0.46810514  0.31473744  0.74972446  1
  O  O50  1  0.84140852  0.53713698  0.74916808  1
  O  O51  1  0.66878342  0.51921914  0.24302988  1
  O  O52  1  0.84229206  0.32161887  0.24615782  1
  O  O53  1  0.47612722  0.15559871  0.24249759  1
  O  O54  1  0.63867892  0.49398055  0.92357897  1
  O  O55  1  0.85465639  0.35982559  0.92382267  1
  O  O56  1  0.50506011  0.14569271  0.92410483  1
  O  O57  1  0.62840018  0.14544428  0.42466712  1
  O  O58  1  0.52027511  0.37704442  0.42506335  1
  O  O59  1  0.85736109  0.48441786  0.42543733  1
  O  O60  1  0.34805741  0.50173190  0.06984362  1
  O  O61  1  0.15554914  0.65379046  0.06915184  1
  O  O62  1  0.49933195  0.84420971  0.06896471  1
  O  O63  1  0.34471440  0.84545054  0.57248252  1
  O  O64  1  0.50021298  0.65249973  0.57286348  1
  O  O65  1  0.15603921  0.49845438  0.57233625  1
  O  O66  1  0.29483338  0.81438334  0.25590694  1
  O  O67  1  0.51546441  0.69955896  0.25461978  1
  O  O68  1  0.18403839  0.48203797  0.25603053  1
  O  O69  1  0.29492212  0.47698729  0.75823512  1
  O  O70  1  0.18441331  0.70960240  0.75868777  1
  O  O71  1  0.52593364  0.81918584  0.75887051  1
loop_
_geom_bond_atom_site_label_1
_geom_bond_atom_site_label_2
_geom_bond_distance
_geom_bond_site_symmetry_2
Na0 O51 2.264112 1_555
Na0 O68 2.280669 1_555
Na0 O53 2.364081 1_555
Na0 O17 2.501608 1_555
Na0 O67 2.549861 1_555
Na0 O10 2.632018 1_555
Na0 O32 2.673217 1_555
Na0 O0 2.692135 1_555
Na1 O71 2.250458 1_555
Na1 O50 2.279673 1_555
Na1 O49 2.323466 1_555
Na1 O14 2.485218 1_555
Na1 O69 2.513670 1_555
Na1 O35 2.592865 1_555
Na1 O6 2.695829 1_555
Na1 O4 2.828153 1_555
Na2 O59 2.254525 1_555
Na2 O38 2.299867 1_655
Na2 O37 2.309519 1_545
Na2 O2 2.424817 1_555
Na2 O57 2.522980 1_555
Na2 O23 2.602861 1_555
Na2 O30 2.679465 1_655
Na2 O28 2.827850 1_655
Na3 O36 2.358921 1_555
Na3 O43 2.381607 1_565
Na3 O44 2.388906 1_455
Na3 O42 2.460732 1_465
Na3 O37 2.469572 1_455
Na3 O38 2.477826 1_565
Na4 O45 2.388883 1_445
Na4 O47 2.401155 1_555
Na4 O46 2.404893 1_455
Na4 O41 2.481227 1_444
Na4 O39 2.483859 1_554
Na4 O40 2.495535 1_544
Na5 O48 2.397562 1_555
Na5 O56 2.430548 1_555
Na5 O55 2.433309 1_555
Na5 O54 2.509550 1_555
Na5 O49 2.509986 1_555
Na5 O50 2.524303 1_555
Na6 O52 2.417730 1_555
Na6 O51 2.481776 1_555
Na6 O53 2.492256 1_555
Na6 O57 2.536448 1_555
Na6 O58 2.545040 1_555
Na6 O59 2.555070 1_555
Na7 O66 2.452498 1_555
Na7 O67 2.490540 1_555
Na7 O61 2.503169 1_555
Na7 O62 2.508196 1_555
Na7 O68 2.529575 1_555
Na7 O60 2.580100 1_555
Na8 O63 2.480066 1_555
Na8 O65 2.485597 1_555
Na8 O70 2.489228 1_555
Na8 O69 2.553600 1_555
Na8 O64 2.566393 1_555
Na8 O71 2.582230 1_555
In0 O1 2.014769 1_555
In0 O0 2.037369 1_665
In0 O2 2.083677 1_565
In0 O36 2.087168 1_655
In0 O37 2.152681 1_555
In0 O38 2.164703 1_665
In1 O13 2.053516 1_555
In1 O12 2.063477 1_555
In1 O48 2.114258 1_555
In1 O14 2.120279 1_555
In1 O50 2.178111 1_555
In1 O49 2.179212 1_555
In2 O15 2.046262 1_555
In2 O16 2.059010 1_555
In2 O52 2.108527 1_555
In2 O17 2.110234 1_555
In2 O53 2.128934 1_555
In2 O51 2.147424 1_555
Ge0 O3 1.850277 1_555
Ge0 O5 1.858891 1_455
Ge0 O4 1.873284 1_445
Ge0 O40 1.916115 1_545
Ge0 O39 1.920808 1_555
Ge0 O41 1.923766 1_445
Ge1 O7 1.902267 1_555
Ge1 O8 1.919197 1_545
Ge1 O43 1.930971 1_555
Ge1 O42 1.937164 1_455
Ge1 O44 1.938530 1_445
Ge1 O6 1.947452 1_445
Ge2 O9 1.898436 1_555
Ge2 O11 1.917485 1_655
Ge2 O46 1.946101 1_565
Ge2 O45 1.948210 1_555
Ge2 O47 1.951522 1_665
Ge2 O10 1.971882 1_665
Ge3 O19 1.887315 1_556
Ge3 O20 1.893051 1_556
Ge3 O18 1.897666 1_556
Ge3 O56 1.957777 1_555
Ge3 O55 1.964928 1_555
Ge3 O54 1.972809 1_555
Ge4 O21 1.875843 1_555
Ge4 O22 1.889875 1_555
Ge4 O58 1.905348 1_555
Ge4 O23 1.946707 1_555
Ge4 O57 1.957340 1_555
Ge4 O59 1.964390 1_555
Ge5 O62 1.869095 1_555
Ge5 O61 1.870272 1_555
Ge5 O25 1.877791 1_554
Ge5 O24 1.884758 1_554
Ge5 O60 1.885324 1_555
Ge5 O26 1.886652 1_554
Ge6 O27 1.828819 1_555
Ge6 O29 1.838560 1_555
Ge6 O28 1.850543 1_555
Ge6 O63 1.873330 1_555
Ge6 O65 1.875851 1_555
Ge6 O64 1.879763 1_555
Ge7 O66 1.879349 1_555
Ge7 O31 1.888410 1_555
Ge7 O67 1.923125 1_555
Ge7 O68 1.936973 1_555
Ge7 O30 1.938606 1_555
Ge7 O32 1.970634 1_555
Ge8 O33 1.870218 1_555
Ge8 O34 1.879629 1_555
Ge8 O70 1.905878 1_555
Ge8 O35 1.936575 1_555
Ge8 O69 1.962454 1_555
Ge8 O71 1.965522 1_555
O0 P0 1.520819 1_545
O1 P1 1.508243 1_555
O2 P2 1.528319 1_655
O3 P3 1.530525 1_555
O4 P4 1.542307 1_655
O5 P5 1.533602 1_545
O6 P5 1.567194 1_555
O7 P3 1.553618 1_555
O8 P4 1.554238 1_555
O9 P1 1.559552 1_555
O10 P2 1.573835 1_555
O11 P0 1.561875 1_555
O12 P6 1.509417 1_555
O13 P7 1.510746 1_555
O14 P8 1.525041 1_555
O15 P9 1.506290 1_555
O16 P10 1.506430 1_555
O17 P11 1.518737 1_555
O18 P11 1.559760 1_555
O19 P9 1.561829 1_555
O20 P10 1.562196 1_555
O21 P7 1.560974 1_555
O22 P8 1.558667 1_555
O23 P6 1.569347 1_555
O24 P12 1.525606 1_555
O25 P13 1.528299 1_555
O26 P14 1.526688 1_555
O27 P15 1.517686 1_555
O28 P16 1.528535 1_555
O29 P17 1.520116 1_555
O30 P17 1.566719 1_555
O31 P15 1.553608 1_555
O32 P16 1.561010 1_555
O33 P13 1.555680 1_555
O34 P14 1.554924 1_555
O35 P12 1.563825 1_555
O36 P17 1.508237 1_555
O37 P15 1.533236 1_555
O38 P16 1.532163 1_555
O39 P13 1.557363 1_555
O40 P14 1.557749 1_555
O41 P12 1.558458 1_555
O42 P6 1.559889 1_555
O43 P7 1.558240 1_555
O44 P8 1.557854 1_555
O45 P9 1.559589 1_555
O46 P10 1.561518 1_555
O47 P11 1.559928 1_555
O48 P5 1.512487 1_545
O49 P3 1.536504 1_555
O50 P4 1.535596 1_655
O51 P1 1.525122 1_555
O52 P2 1.499902 1_655
O53 P0 1.520763 1_545
O54 P12 1.553087 1_555
O55 P13 1.552817 1_655
O56 P14 1.554091 1_545
O57 P15 1.568402 1_545
O58 P16 1.551212 1_555
O59 P17 1.571914 1_655
O60 P11 1.545626 1_555
O61 P9 1.547302 1_455
O62 P10 1.547409 1_565
O63 P7 1.544514 1_565
O64 P8 1.543348 1_555
O65 P6 1.545618 1_455
O66 P0 1.556465 1_555
O67 P1 1.576241 1_555
O68 P2 1.580206 1_555
O69 P3 1.572669 1_555
O70 P4 1.552939 1_555
O71 P5 1.575872 1_555
