# generated using pymatgen
data_Na8MgCr2O8
_symmetry_space_group_name_H-M   'P 1'
_cell_length_a   5.56732645
_cell_length_b   6.04470989
_cell_length_c   9.27393148
_cell_angle_alpha   69.06391447
_cell_angle_beta   79.75116054
_cell_angle_gamma   70.55293520
_symmetry_Int_Tables_number   1
_chemical_formula_structural   Na8MgCr2O8
_chemical_formula_sum   'Na8 Mg1 Cr2 O8'
_cell_volume   274.24362421
_cell_formula_units_Z   1
loop_
 _symmetry_equiv_pos_site_id
 _symmetry_equiv_pos_as_xyz
  1  'x, y, z'
loop_
 _atom_site_type_symbol
 _atom_site_label
 _atom_site_symmetry_multiplicity
 _atom_site_fract_x
 _atom_site_fract_y
 _atom_site_fract_z
 _atom_site_occupancy
  Na  Na0  1  0.76528052  0.00023865  0.42393815  1
  Na  Na1  1  0.74163056  0.41778100  0.58669171  1
  Na  Na2  1  0.26085569  0.33190862  0.77261003  1
  Na  Na3  1  0.41294777  0.88157405  0.06111808  1
  Na  Na4  1  0.75969908  0.23581494  0.98439890  1
  Na  Na5  1  0.25149254  0.52129995  0.42187875  1
  Na  Na6  1  0.24887333  0.90859574  0.58713760  1
  Na  Na7  1  0.76542935  0.56248317  0.21756839  1
  Mg  Mg0  1  0.19220543  0.60005852  0.96532180  1
  Cr  Cr0  1  0.26936949  0.19179141  0.24207728  1
  Cr  Cr1  1  0.71102464  0.80148524  0.75772425  1
  O  O0  1  0.14043616  0.26290373  0.04215210  1
  O  O1  1  0.01843221  0.25488018  0.39991588  1
  O  O2  1  0.96610787  0.65159517  0.62791277  1
  O  O3  1  0.47934821  0.59842498  0.80199176  1
  O  O4  1  0.38089867  0.49170988  0.15885197  1
  O  O5  1  0.47266356  0.85598689  0.33432780  1
  O  O6  1  0.84549334  0.84681075  0.93667295  1
  O  O7  1  0.52614459  0.11590611  0.63485383  1
loop_
_geom_bond_atom_site_label_1
_geom_bond_atom_site_label_2
_geom_bond_distance
_geom_bond_site_symmetry_2
Na0 O1 2.343703 1_655
Na0 O7 2.349085 1_555
Na0 O2 2.367359 1_545
Na0 O5 2.459753 1_545
Na1 O2 2.331903 1_555
Na1 O1 2.367149 1_655
Na1 O7 2.377595 1_555
Na1 O3 2.601959 1_555
Na1 O5 2.985242 1_555
Na2 O7 2.180560 1_555
Na2 O2 2.246464 1_455
Na2 O0 2.390968 1_556
Na2 O3 2.426075 1_555
Na3 O4 2.258971 1_555
Na3 O0 2.263286 1_565
Na3 O6 2.454086 1_554
Na3 O5 2.557280 1_555
Na4 O0 2.346175 1_656
Na4 O6 2.423611 1_545
Na4 O3 2.472601 1_555
Na4 O4 2.803531 1_556
Na5 O2 2.440814 1_455
Na5 O1 2.457312 1_555
Na5 O4 2.470186 1_555
Na5 O5 2.529303 1_555
Na5 O7 2.713820 1_555
Na6 O1 2.334363 1_565
Na6 O3 2.402072 1_555
Na6 O2 2.455887 1_455
Na6 O7 2.465053 1_565
Na6 O5 2.525835 1_555
Na7 O1 2.271034 1_655
Na7 O5 2.407506 1_555
Na7 O4 2.500746 1_555
Na7 O6 2.614554 1_554
Mg0 O3 1.997133 1_555
Mg0 O6 2.000849 1_455
Mg0 O0 2.006115 1_556
Mg0 O4 2.031386 1_556
Cr0 O1 1.885821 1_555
Cr0 O5 1.925333 1_545
Cr0 O0 1.958636 1_555
Cr0 O4 1.961370 1_555
Cr1 O7 1.880723 1_565
Cr1 O2 1.897717 1_555
Cr1 O3 1.960721 1_555
Cr1 O6 2.072020 1_555
