# generated using pymatgen
data_Na6Nb3Ga(SiO4)6
_symmetry_space_group_name_H-M   'P 1'
_cell_length_a   15.70970351
_cell_length_b   9.05302587
_cell_length_c   9.01988603
_cell_angle_alpha   90.66793568
_cell_angle_beta   124.91984653
_cell_angle_gamma   89.74057681
_symmetry_Int_Tables_number   1
_chemical_formula_structural   Na6Nb3Ga(SiO4)6
_chemical_formula_sum   'Na12 Nb6 Ga2 Si12 O48'
_cell_volume   1051.77078175
_cell_formula_units_Z   2
loop_
 _symmetry_equiv_pos_site_id
 _symmetry_equiv_pos_as_xyz
  1  'x, y, z'
loop_
 _atom_site_type_symbol
 _atom_site_label
 _atom_site_symmetry_multiplicity
 _atom_site_fract_x
 _atom_site_fract_y
 _atom_site_fract_z
 _atom_site_occupancy
  Na  Na0  1  0.24971655  0.75031908  0.99830663  1
  Na  Na1  1  0.74353137  0.74852403  0.48058807  1
  Na  Na2  1  0.74971655  0.25031908  0.99830663  1
  Na  Na3  1  0.24353137  0.24852403  0.48058807  1
  Na  Na4  1  0.50341741  0.08927572  0.76243828  1
  Na  Na5  1  0.50095209  0.88925543  0.23573439  1
  Na  Na6  1  0.00341741  0.58927572  0.76243828  1
  Na  Na7  1  0.00095209  0.38925543  0.23573439  1
  Na  Na8  1  0.80476951  0.92806264  0.20571777  1
  Na  Na9  1  0.18520410  0.07575043  0.80609396  1
  Na  Na10  1  0.30476951  0.42806264  0.20571777  1
  Na  Na11  1  0.68520410  0.57575043  0.80609396  1
  Nb  Nb0  1  0.10586143  0.75239603  0.56421858  1
  Nb  Nb1  1  0.89366668  0.75268403  0.92657122  1
  Nb  Nb2  1  0.89270253  0.24858688  0.43295398  1
  Nb  Nb3  1  0.60586143  0.25239603  0.56421858  1
  Nb  Nb4  1  0.39366668  0.25268403  0.92657122  1
  Nb  Nb5  1  0.39270253  0.74858688  0.43295398  1
  Ga  Ga0  1  0.10482200  0.24766802  0.06809096  1
  Ga  Ga1  1  0.60482200  0.74766802  0.06809096  1
  Si  Si0  1  0.99987341  0.96556713  0.75550877  1
  Si  Si1  1  0.00500036  0.04472765  0.25075335  1
  Si  Si2  1  0.49987341  0.46556713  0.75550877  1
  Si  Si3  1  0.50500036  0.54472765  0.25075335  1
  Si  Si4  1  0.35799571  0.88766960  0.76398773  1
  Si  Si5  1  0.64590680  0.89530077  0.75266501  1
  Si  Si6  1  0.64549441  0.10441563  0.24217812  1
  Si  Si7  1  0.35167956  0.10477865  0.24998965  1
  Si  Si8  1  0.85799571  0.38766960  0.76398773  1
  Si  Si9  1  0.14590680  0.39530077  0.75266501  1
  Si  Si10  1  0.14549441  0.60441563  0.24217812  1
  Si  Si11  1  0.85167956  0.60477865  0.24998965  1
  O  O0  1  0.14892519  0.57544855  0.73568839  1
  O  O1  1  0.84880475  0.57126849  0.75813825  1
  O  O2  1  0.85268745  0.42357585  0.25723739  1
  O  O3  1  0.15423259  0.42691980  0.24555490  1
  O  O4  1  0.64892519  0.07544855  0.73568839  1
  O  O5  1  0.34880475  0.07126849  0.75813825  1
  O  O6  1  0.35268745  0.92357585  0.25723739  1
  O  O7  1  0.65423259  0.92691980  0.24555490  1
  O  O8  1  0.42944238  0.56502245  0.56859861  1
  O  O9  1  0.57671253  0.57110826  0.92583843  1
  O  O10  1  0.56757250  0.43738817  0.43042729  1
  O  O11  1  0.43411693  0.42726481  0.07861819  1
  O  O12  1  0.92944238  0.06502245  0.56859861  1
  O  O13  1  0.07671253  0.07110826  0.92583843  1
  O  O14  1  0.06757250  0.93738817  0.43042729  1
  O  O15  1  0.93411693  0.92726481  0.07861819  1
  O  O16  1  0.25392820  0.82704807  0.74429922  1
  O  O17  1  0.74061257  0.81140885  0.75784625  1
  O  O18  1  0.74385841  0.17796600  0.25222582  1
  O  O19  1  0.25998427  0.19034736  0.24379458  1
  O  O20  1  0.75392820  0.32704807  0.74429922  1
  O  O21  1  0.24061257  0.31140885  0.75784625  1
  O  O22  1  0.24385841  0.67796600  0.25222582  1
  O  O23  1  0.75998427  0.69034736  0.24379458  1
  O  O24  1  0.36093745  0.84943515  0.58555964  1
  O  O25  1  0.64761118  0.86774163  0.93123990  1
  O  O26  1  0.64059918  0.15325015  0.41467753  1
  O  O27  1  0.35352370  0.14155284  0.07123583  1
  O  O28  1  0.86093745  0.34943515  0.58555964  1
  O  O29  1  0.14761118  0.36774163  0.93123990  1
  O  O30  1  0.14059918  0.65325015  0.41467753  1
  O  O31  1  0.85352370  0.64155284  0.07123583  1
  O  O32  1  0.46289706  0.83217996  0.94624465  1
  O  O33  1  0.53768264  0.82630171  0.57044861  1
  O  O34  1  0.53639620  0.16825961  0.06057195  1
  O  O35  1  0.46309551  0.16879472  0.42813253  1
  O  O36  1  0.96289706  0.33217996  0.94624465  1
  O  O37  1  0.03768264  0.32630171  0.57044861  1
  O  O38  1  0.03639620  0.66825961  0.06057195  1
  O  O39  1  0.96309551  0.66879472  0.42813253  1
  O  O40  1  0.07810988  0.85497799  0.73731831  1
  O  O41  1  0.91943966  0.85242630  0.75959169  1
  O  O42  1  0.91597672  0.13970011  0.25507288  1
  O  O43  1  0.08225914  0.15563146  0.24584268  1
  O  O44  1  0.57810988  0.35497799  0.73731831  1
  O  O45  1  0.41943966  0.35242630  0.75959169  1
  O  O46  1  0.41597672  0.63970011  0.25507288  1
  O  O47  1  0.58225914  0.65563146  0.24584268  1
loop_
_geom_bond_atom_site_label_1
_geom_bond_atom_site_label_2
_geom_bond_distance
_geom_bond_site_symmetry_2
Na0 O16 2.438684 1_555
Na0 O22 2.441295 1_556
Na0 O6 2.478683 1_556
Na0 O0 2.503145 1_555
Na0 O46 2.508725 1_556
Na0 O40 2.543706 1_555
Na1 O47 2.333569 1_555
Na1 O23 2.347470 1_555
Na1 O7 2.392710 1_555
Na1 O17 2.584230 1_555
Na1 O41 2.619379 1_555
Na1 O1 2.628140 1_555
Na2 O20 2.438684 1_555
Na2 O18 2.441295 1_556
Na2 O2 2.478683 1_556
Na2 O4 2.503145 1_555
Na2 O42 2.508725 1_556
Na2 O44 2.543706 1_555
Na3 O43 2.333569 1_555
Na3 O19 2.347470 1_555
Na3 O3 2.392710 1_555
Na3 O21 2.584230 1_555
Na3 O45 2.619379 1_555
Na3 O5 2.628140 1_555
Na4 O5 2.413154 1_555
Na4 O4 2.434603 1_555
Na4 O34 2.524803 1_556
Na4 O45 2.711218 1_555
Na4 O25 2.748314 1_545
Na4 O44 2.748971 1_555
Na4 O35 2.805677 1_555
Na4 O24 2.853908 1_545
Na5 O32 2.372074 1_554
Na5 O7 2.384338 1_555
Na5 O47 2.441265 1_555
Na5 O6 2.463440 1_555
Na5 O46 2.686949 1_555
Na5 O33 2.795591 1_555
Na6 O1 2.413154 1_455
Na6 O0 2.434603 1_555
Na6 O38 2.524803 1_556
Na6 O41 2.711218 1_455
Na6 O29 2.748314 1_555
Na6 O40 2.748971 1_555
Na6 O39 2.805677 1_455
Na6 O28 2.853908 1_455
Na7 O36 2.372074 1_454
Na7 O3 2.384338 1_555
Na7 O43 2.441265 1_555
Na7 O2 2.463440 1_455
Na7 O42 2.686949 1_455
Na7 O37 2.795591 1_555
Na8 O25 2.346472 1_554
Na8 O23 2.356232 1_555
Na8 O42 2.457891 1_565
Na8 O18 2.574457 1_565
Na8 O7 2.587490 1_555
Na8 O15 2.847820 1_555
Na8 O12 2.945312 1_565
Na9 O27 2.409888 1_556
Na9 O21 2.443504 1_555
Na9 O40 2.452890 1_545
Na9 O13 2.486454 1_555
Na9 O16 2.680158 1_545
Na9 O5 2.840011 1_555
Na10 O29 2.346472 1_554
Na10 O19 2.356232 1_555
Na10 O46 2.457891 1_555
Na10 O22 2.574457 1_555
Na10 O3 2.587490 1_555
Na10 O11 2.847820 1_555
Na10 O8 2.945312 1_555
Na11 O31 2.409888 1_556
Na11 O17 2.443504 1_555
Na11 O44 2.452890 1_555
Na11 O9 2.486454 1_555
Na11 O20 2.680158 1_555
Na11 O1 2.840011 1_555
Nb0 O30 1.932066 1_555
Nb0 O14 1.956998 1_555
Nb0 O39 1.987870 1_455
Nb0 O16 2.041772 1_555
Nb0 O40 2.057212 1_555
Nb0 O0 2.065413 1_555
Nb1 O15 1.934792 1_556
Nb1 O38 1.993983 1_656
Nb1 O41 1.995220 1_555
Nb1 O31 2.022618 1_556
Nb1 O17 2.048905 1_555
Nb1 O1 2.056366 1_555
Nb2 O28 1.931383 1_555
Nb2 O12 1.954982 1_555
Nb2 O37 1.995203 1_655
Nb2 O18 2.039377 1_555
Nb2 O42 2.076342 1_555
Nb2 O2 2.079831 1_555
Nb3 O26 1.932066 1_555
Nb3 O10 1.956998 1_555
Nb3 O35 1.987870 1_555
Nb3 O20 2.041772 1_555
Nb3 O44 2.057212 1_555
Nb3 O4 2.065413 1_555
Nb4 O11 1.934792 1_556
Nb4 O34 1.993983 1_556
Nb4 O45 1.995220 1_555
Nb4 O27 2.022618 1_556
Nb4 O21 2.048905 1_555
Nb4 O5 2.056366 1_555
Nb5 O24 1.931383 1_555
Nb5 O8 1.954982 1_555
Nb5 O33 1.995203 1_555
Nb5 O22 2.039377 1_555
Nb5 O46 2.076342 1_555
Nb5 O6 2.079831 1_555
Ga0 O13 1.925130 1_554
Ga0 O36 1.990762 1_454
Ga0 O43 2.018636 1_555
Ga0 O29 2.035939 1_554
Ga0 O19 2.075485 1_555
Ga0 O3 2.080027 1_555
Ga1 O9 1.925130 1_554
Ga1 O32 1.990762 1_554
Ga1 O47 2.018636 1_555
Ga1 O25 2.035939 1_554
Ga1 O23 2.075485 1_555
Ga1 O7 2.080027 1_555
O0 Si9 1.643262 1_555
O1 Si8 1.666566 1_555
O2 Si11 1.642141 1_555
O3 Si10 1.611265 1_555
O4 Si5 1.643262 1_545
O5 Si4 1.666566 1_545
O6 Si7 1.642141 1_565
O7 Si6 1.611265 1_565
O8 Si2 1.663721 1_555
O9 Si2 1.607309 1_555
O10 Si3 1.655673 1_555
O11 Si3 1.665631 1_555
O12 Si0 1.663721 1_545
O13 Si0 1.607309 1_445
O14 Si1 1.655673 1_565
O15 Si1 1.665631 1_665
O16 Si4 1.636762 1_555
O17 Si5 1.644241 1_555
O18 Si6 1.639210 1_555
O19 Si7 1.605310 1_555
O20 Si8 1.636762 1_555
O21 Si9 1.644241 1_555
O22 Si10 1.639210 1_555
O23 Si11 1.605310 1_555
O24 Si4 1.668573 1_555
O25 Si5 1.617817 1_555
O26 Si6 1.656174 1_555
O27 Si7 1.666550 1_555
O28 Si8 1.668573 1_555
O29 Si9 1.617817 1_555
O30 Si10 1.656174 1_555
O31 Si11 1.666550 1_555
O32 Si4 1.606498 1_555
O33 Si5 1.663921 1_555
O34 Si6 1.659430 1_555
O35 Si7 1.658001 1_555
O36 Si8 1.606498 1_555
O37 Si9 1.663921 1_555
O38 Si10 1.659430 1_555
O39 Si11 1.658001 1_555
O40 Si0 1.660052 1_455
O41 Si0 1.647123 1_555
O42 Si1 1.657518 1_655
O43 Si1 1.598976 1_555
O44 Si2 1.660052 1_555
O45 Si2 1.647123 1_555
O46 Si3 1.657518 1_555
O47 Si3 1.598976 1_555
