# generated using pymatgen
data_CoPO4
_symmetry_space_group_name_H-M   'P 1'
_cell_length_a   5.29572245
_cell_length_b   6.41133900
_cell_length_c   7.77035630
_cell_angle_alpha   90.00055776
_cell_angle_beta   90.00001146
_cell_angle_gamma   89.99999454
_symmetry_Int_Tables_number   1
_chemical_formula_structural   CoPO4
_chemical_formula_sum   'Co4 P4 O16'
_cell_volume   263.82435780
_cell_formula_units_Z   4
loop_
 _symmetry_equiv_pos_site_id
 _symmetry_equiv_pos_as_xyz
  1  'x, y, z'
loop_
 _atom_site_type_symbol
 _atom_site_label
 _atom_site_symmetry_multiplicity
 _atom_site_fract_x
 _atom_site_fract_y
 _atom_site_fract_z
 _atom_site_occupancy
  Co  Co0  1  0.50000000  0.00000000  0.50000000  1
  Co  Co1  1  0.50000000  0.50000000  0.50000000  1
  Co  Co2  1  0.00000000  0.00000000  0.00000000  1
  Co  Co3  1  0.00000000  0.50000000  0.00000000  1
  P  P0  1  0.00000000  0.75000500  0.65136900  1
  P  P1  1  0.50000000  0.74999800  0.15138000  1
  P  P2  1  0.00000000  0.24999500  0.34863100  1
  P  P3  1  0.50000000  0.25000300  0.84862000  1
  O  O0  1  0.24286900  0.75000000  0.53765800  1
  O  O1  1  0.74276800  0.74999600  0.03763700  1
  O  O2  1  0.75713100  0.25000000  0.46234200  1
  O  O3  1  0.25723100  0.25000300  0.96236300  1
  O  O4  1  0.75713100  0.74999900  0.53765700  1
  O  O5  1  0.25723200  0.74999700  0.03763700  1
  O  O6  1  0.24286900  0.25000000  0.46234300  1
  O  O7  1  0.74276800  0.25000400  0.96236300  1
  O  O8  1  0.00000000  0.55121100  0.76336600  1
  O  O9  1  0.50000000  0.55130900  0.26353400  1
  O  O10  1  0.00000000  0.05121300  0.23664100  1
  O  O11  1  0.50000000  0.05132500  0.73646800  1
  O  O12  1  0.00000000  0.44878900  0.23663400  1
  O  O13  1  0.49999900  0.44869100  0.73646600  1
  O  O14  1  0.00000000  0.94878700  0.76335900  1
  O  O15  1  0.50000000  0.94867500  0.26353200  1
loop_
_geom_bond_atom_site_label_1
_geom_bond_atom_site_label_2
_geom_bond_distance
_geom_bond_site_symmetry_2
Co0 O11 1.866670 1_555
Co0 O15 1.866670 1_545
Co0 O6 2.123422 1_555
Co0 O0 2.123423 1_545
Co0 O2 2.123423 1_555
Co0 O4 2.123426 1_545
Co1 O9 1.866643 1_555
Co1 O13 1.866643 1_555
Co1 O4 2.123413 1_555
Co1 O6 2.123417 1_555
Co1 O0 2.123418 1_555
Co1 O2 2.123418 1_555
Co2 O10 1.867867 1_555
Co2 O14 1.867867 1_544
Co2 O3 2.123755 1_554
Co2 O5 2.123758 1_545
Co2 O7 2.123763 1_454
Co2 O1 2.123763 1_445
Co3 O12 1.867818 1_555
Co3 O8 1.867818 1_554
Co3 O1 2.123720 1_455
Co3 O7 2.123720 1_454
Co3 O3 2.123721 1_554
Co3 O5 2.123725 1_555
O0 P0 1.560426 1_555
O1 P1 1.560126 1_555
O2 P2 1.560426 1_655
O3 P3 1.560131 1_555
O4 P0 1.560430 1_655
O5 P1 1.560126 1_555
O6 P2 1.560430 1_555
O7 P3 1.560126 1_555
O8 P0 1.543311 1_555
O9 P1 1.543444 1_555
O10 P2 1.543203 1_555
O11 P3 1.543363 1_555
O12 P2 1.543311 1_555
O13 P3 1.543438 1_555
O14 P0 1.543203 1_555
O15 P1 1.543358 1_555
