# generated using pymatgen
data_Ba2YbMgSbO6
_symmetry_space_group_name_H-M   'P 1'
_cell_length_a   6.49439583
_cell_length_b   6.49433270
_cell_length_c   6.18967127
_cell_angle_alpha   61.53967368
_cell_angle_beta   61.53984922
_cell_angle_gamma   55.41536833
_symmetry_Int_Tables_number   1
_chemical_formula_structural   Ba2YbMgSbO6
_chemical_formula_sum   'Ba2 Yb1 Mg1 Sb1 O6'
_cell_volume   181.13516552
_cell_formula_units_Z   1
loop_
 _symmetry_equiv_pos_site_id
 _symmetry_equiv_pos_as_xyz
  1  'x, y, z'
loop_
 _atom_site_type_symbol
 _atom_site_label
 _atom_site_symmetry_multiplicity
 _atom_site_fract_x
 _atom_site_fract_y
 _atom_site_fract_z
 _atom_site_occupancy
  Ba  Ba0  1  0.69440822  0.69443056  0.80558361  1
  Ba  Ba1  1  0.30558464  0.30558460  0.19441588  1
  Yb  Yb0  1  0.50001345  0.50001125  0.49998665  1
  Mg  Mg0  1  0.00000383  0.99999779  0.49999719  1
  Sb  Sb0  1  0.00000246  0.00000878  0.99999488  1
  O  O0  1  0.23588993  0.76411009  0.72959800  1
  O  O1  1  0.23589093  0.76411509  0.27039898  1
  O  O2  1  0.76410996  0.23588250  0.72960018  1
  O  O3  1  0.26015895  0.26015330  0.73984037  1
  O  O4  1  0.76411396  0.23588250  0.27040636  1
  O  O5  1  0.73982366  0.73982253  0.26017591  1
loop_
_geom_bond_atom_site_label_1
_geom_bond_atom_site_label_2
_geom_bond_distance
_geom_bond_site_symmetry_2
Ba0 Mg0 2.961482 1_655
Ba0 O1 2.982476 1_556
Ba0 O0 2.982532 1_555
Ba0 O4 2.982576 1_556
Ba0 O2 2.982615 1_555
Ba0 O3 3.086007 1_565
Ba0 O3 3.086188 1_655
Ba0 O5 3.125940 1_556
Ba0 O5 3.125980 1_555
Ba1 Mg0 2.961506 1_545
Ba1 O0 2.982490 1_554
Ba1 O2 2.982506 1_554
Ba1 O1 2.982527 1_555
Ba1 O4 2.982548 1_555
Ba1 O5 3.086142 1_545
Ba1 O5 3.086152 1_455
Ba1 O3 3.125965 1_555
Ba1 O3 3.126022 1_554
Mg0 O1 2.012207 1_555
Mg0 O4 2.012210 1_465
Mg0 O2 2.012236 1_465
Mg0 O0 2.012237 1_555
O0 Yb0 2.136298 1_555
O0 Sb0 2.197909 1_565
O1 Yb0 2.136303 1_555
O1 Sb0 2.197901 1_564
O2 Yb0 2.136302 1_555
O2 Sb0 2.197882 1_655
O3 Yb0 2.324520 1_555
O3 Sb0 2.521198 1_555
O4 Yb0 2.136294 1_555
O4 Sb0 2.197870 1_654
O5 Yb0 2.324079 1_555
O5 Sb0 2.521508 1_664
