# generated using pymatgen
data_HfZrSi(SO6)2
_symmetry_space_group_name_H-M   'P 1'
_cell_length_a   9.01541417
_cell_length_b   9.01194576
_cell_length_c   23.15957543
_cell_angle_alpha   90.04047368
_cell_angle_beta   89.98992563
_cell_angle_gamma   119.98977411
_symmetry_Int_Tables_number   1
_chemical_formula_structural   HfZrSi(SO6)2
_chemical_formula_sum   'Hf6 Zr6 Si6 S12 O72'
_cell_volume   1629.70914127
_cell_formula_units_Z   6
loop_
 _symmetry_equiv_pos_site_id
 _symmetry_equiv_pos_as_xyz
  1  'x, y, z'
loop_
 _atom_site_type_symbol
 _atom_site_label
 _atom_site_symmetry_multiplicity
 _atom_site_fract_x
 _atom_site_fract_y
 _atom_site_fract_z
 _atom_site_occupancy
  Hf  Hf0  1  0.01875873  0.00820545  0.85585453  1
  Hf  Hf1  1  0.66541462  0.33670375  0.18867136  1
  Hf  Hf2  1  0.64772573  0.32387252  0.97754656  1
  Hf  Hf3  1  0.32967435  0.66802741  0.02226504  1
  Hf  Hf4  1  0.33798937  0.66786158  0.52232411  1
  Hf  Hf5  1  0.33547070  0.67113591  0.81132846  1
  Zr  Zr0  1  0.98949253  0.00847211  0.35574887  1
  Zr  Zr1  1  0.00748193  0.01873430  0.64446613  1
  Zr  Zr2  1  0.01177826  0.01894875  0.14401164  1
  Zr  Zr3  1  0.67040586  0.33655809  0.68917814  1
  Zr  Zr4  1  0.67613236  0.32400572  0.47760853  1
  Zr  Zr5  1  0.33533959  0.67062189  0.31083935  1
  Si  Si0  1  0.99821898  0.29474129  0.24975481  1
  Si  Si1  1  0.29341298  0.29510669  0.75082489  1
  Si  Si2  1  0.96118227  0.33894825  0.58392739  1
  Si  Si3  1  0.38028954  0.33910841  0.08378929  1
  Si  Si4  1  0.33345861  0.95305960  0.91673786  1
  Si  Si5  1  0.61891846  0.95217830  0.41720985  1
  S  S0  1  0.29031805  0.00154643  0.25003695  1
  S  S1  1  0.71139585  0.71004715  0.24948611  1
  S  S2  1  0.00128804  0.71239667  0.75042574  1
  S  S3  1  0.71087851  0.99886390  0.75092910  1
  S  S4  1  0.37682043  0.04245468  0.58298255  1
  S  S5  1  0.66722378  0.62367353  0.58281295  1
  S  S6  1  0.95424744  0.62137171  0.08279941  1
  S  S7  1  0.66553934  0.04472117  0.08293883  1
  S  S8  1  0.62348028  0.66839253  0.91668210  1
  S  S9  1  0.04304598  0.37790593  0.91668571  1
  S  S10  1  0.33505658  0.37826588  0.41709708  1
  S  S11  1  0.04537966  0.66867248  0.41700388  1
  O  O0  1  0.21302835  0.02909104  0.30175261  1
  O  O1  1  0.81861789  0.78570114  0.30156065  1
  O  O2  1  0.96994511  0.17004574  0.30535774  1
  O  O3  1  0.19629664  0.16809024  0.80569846  1
  O  O4  1  0.96959952  0.79018073  0.80213613  1
  O  O5  1  0.81751469  0.02650867  0.80229256  1
  O  O6  1  0.78603848  0.96714910  0.69861124  1
  O  O7  1  0.16998558  0.19978730  0.69470076  1
  O  O8  1  0.02908186  0.81640107  0.69842326  1
  O  O9  1  0.78872302  0.81604427  0.19792426  1
  O  O10  1  0.02914006  0.19905166  0.19443998  1
  O  O11  1  0.18150658  0.96882380  0.19817009  1
  O  O12  1  0.86466290  0.36346023  0.63963171  1
  O  O13  1  0.48448832  0.12058927  0.63484844  1
  O  O14  1  0.63507776  0.51460735  0.63506337  1
  O  O15  1  0.87646376  0.51242637  0.13514194  1
  O  O16  1  0.63702017  0.12368023  0.13490918  1
  O  O17  1  0.50034977  0.36238238  0.13962829  1
  O  O18  1  0.47084228  0.30545328  0.02773022  1
  O  O19  1  0.84867168  0.54053154  0.03111802  1
  O  O20  1  0.69769639  0.15438323  0.03145104  1
  O  O21  1  0.45326820  0.15194263  0.53163028  1
  O  O22  1  0.69270025  0.54339310  0.53124444  1
  O  O23  1  0.83673128  0.30417267  0.52790717  1
  O  O24  1  0.54153914  0.69464241  0.96846594  1
  O  O25  1  0.15393779  0.45614684  0.96844483  1
  O  O26  1  0.30493951  0.83267643  0.97301676  1
  O  O27  1  0.52768711  0.83262256  0.47329098  1
  O  O28  1  0.30298227  0.45734905  0.46873725  1
  O  O29  1  0.15353056  0.69408852  0.46869869  1
  O  O30  1  0.12175760  0.63551290  0.36498621  1
  O  O31  1  0.50099264  0.86356633  0.36039205  1
  O  O32  1  0.36139636  0.48521430  0.36508711  1
  O  O33  1  0.12506024  0.48629400  0.86492209  1
  O  O34  1  0.36188478  0.86133818  0.86038768  1
  O  O35  1  0.51273326  0.63553836  0.86486909  1
  O  O36  1  0.02826278  0.82043094  0.40841775  1
  O  O37  1  0.80796774  0.97259182  0.40844084  1
  O  O38  1  0.18302124  0.20627968  0.40912086  1
  O  O39  1  0.02270230  0.20536620  0.90793744  1
  O  O40  1  0.16462234  0.97318811  0.90726819  1
  O  O41  1  0.79266737  0.82007005  0.90742473  1
  O  O42  1  0.97320121  0.16496323  0.59175955  1
  O  O43  1  0.20442697  0.02026392  0.59121431  1
  O  O44  1  0.81815654  0.79313083  0.59232445  1
  O  O45  1  0.97351126  0.79136653  0.09215424  1
  O  O46  1  0.81553404  0.02199590  0.09100612  1
  O  O47  1  0.19316951  0.16574478  0.09173188  1
  O  O48  1  0.69026137  0.15043717  0.74219213  1
  O  O49  1  0.47831663  0.31027876  0.73903171  1
  O  O50  1  0.84788337  0.54004082  0.74315482  1
  O  O51  1  0.69208082  0.53722086  0.24169831  1
  O  O52  1  0.82956909  0.31055297  0.23793254  1
  O  O53  1  0.46280549  0.15304686  0.24082250  1
  O  O54  1  0.64399472  0.51612914  0.92534449  1
  O  O55  1  0.87392843  0.36065534  0.92591356  1
  O  O56  1  0.50221065  0.14198364  0.92614468  1
  O  O57  1  0.63947328  0.14129909  0.42520086  1
  O  O58  1  0.48667572  0.36096516  0.42565672  1
  O  O59  1  0.87298115  0.51691754  0.42488739  1
  O  O60  1  0.35626985  0.50291274  0.07127346  1
  O  O61  1  0.12685187  0.63899712  0.07505686  1
  O  O62  1  0.51287388  0.87244804  0.07460585  1
  O  O63  1  0.35803636  0.87068183  0.57451271  1
  O  O64  1  0.51198267  0.64053761  0.57494324  1
  O  O65  1  0.14762592  0.50320567  0.57141601  1
  O  O66  1  0.30880217  0.84783827  0.25730988  1
  O  O67  1  0.53919034  0.68931233  0.25811144  1
  O  O68  1  0.16794671  0.47899592  0.26108687  1
  O  O69  1  0.31068896  0.48058876  0.76225060  1
  O  O70  1  0.15260385  0.69072240  0.75941299  1
  O  O71  1  0.53799276  0.84535102  0.75860226  1
loop_
_geom_bond_atom_site_label_1
_geom_bond_atom_site_label_2
_geom_bond_distance
_geom_bond_site_symmetry_2
Hf0 O40 1.913797 1_545
Hf0 O3 1.919234 1_555
Hf0 O39 2.132390 1_555
Hf0 O4 2.175075 1_445
Hf0 O41 2.236728 1_445
Hf0 O5 2.271103 1_455
Hf1 O52 1.974062 1_555
Hf1 O17 1.975700 1_555
Hf1 O51 2.096207 1_555
Hf1 O53 2.124711 1_555
Hf1 O15 2.157478 1_555
Hf1 O16 2.192429 1_555
Hf2 O18 1.912154 1_556
Hf2 O56 1.916543 1_555
Hf2 O54 2.127420 1_555
Hf2 O20 2.187533 1_556
Hf2 O55 2.241097 1_555
Hf2 O19 2.257175 1_556
Hf3 O26 1.971185 1_554
Hf3 O60 1.979660 1_555
Hf3 O61 2.104337 1_555
Hf3 O62 2.132343 1_555
Hf3 O25 2.163987 1_554
Hf3 O24 2.190854 1_554
Hf4 O27 1.970325 1_555
Hf4 O65 1.973763 1_555
Hf4 O64 2.096073 1_555
Hf4 O63 2.121585 1_555
Hf4 O28 2.153406 1_555
Hf4 O29 2.181246 1_555
Hf5 O34 1.968511 1_555
Hf5 O69 1.975956 1_555
Hf5 O71 2.103792 1_555
Hf5 O70 2.118168 1_555
Hf5 O35 2.169826 1_555
Hf5 O33 2.181051 1_555
O0 S0 1.467604 1_555
O0 Zr0 2.298858 1_455
O1 S1 1.481265 1_555
O1 Zr0 2.209963 1_565
O2 Si0 1.643665 1_555
O2 Zr0 1.942225 1_555
O3 Si1 1.640628 1_555
O4 S2 1.485299 1_655
O5 S3 1.470337 1_545
O6 S3 1.483838 1_555
O6 Zr1 2.201441 1_665
O7 Si1 1.645899 1_555
O7 Zr1 1.941740 1_555
O8 S2 1.469170 1_555
O8 Zr1 2.298391 1_565
O9 S1 1.469718 1_555
O9 Zr2 2.296268 1_665
O10 Si0 1.643510 1_455
O10 Zr2 1.940691 1_555
O11 S0 1.484223 1_565
O11 Zr2 2.193442 1_565
O12 Si2 1.631462 1_555
O12 Zr3 2.004441 1_555
O13 S4 1.482166 1_555
O13 Zr3 2.217369 1_555
O14 S5 1.493722 1_555
O14 Zr3 2.181894 1_555
O15 S6 1.496097 1_555
O16 S7 1.484151 1_555
O17 Si3 1.631290 1_555
O18 Si3 1.640318 1_555
O19 S6 1.474880 1_555
O20 S7 1.482480 1_555
O21 S4 1.478022 1_555
O21 Zr4 2.212230 1_555
O22 S5 1.472191 1_555
O22 Zr4 2.275008 1_555
O23 Si2 1.639735 1_555
O23 Zr4 1.935157 1_555
O24 S8 1.487945 1_555
O25 S9 1.492681 1_555
O26 Si4 1.632469 1_555
O27 Si5 1.624797 1_555
O28 S10 1.492171 1_555
O29 S11 1.487703 1_555
O30 S11 1.489855 1_555
O30 Zr5 2.184262 1_555
O31 Si5 1.627821 1_555
O31 Zr5 1.993141 1_555
O32 S10 1.486255 1_555
O32 Zr5 2.195660 1_555
O33 S9 1.489070 1_555
O34 Si4 1.631624 1_555
O35 S8 1.492931 1_555
O36 S11 1.464640 1_555
O36 Zr0 2.253217 1_465
O37 Si5 1.632914 1_555
O37 Zr0 1.934630 1_565
O38 S10 1.480214 1_555
O38 Zr0 2.153636 1_455
O39 S9 1.485575 1_555
O40 Si4 1.635261 1_555
O41 S8 1.468649 1_555
O42 Si2 1.635036 1_555
O42 Zr1 1.931761 1_655
O43 S4 1.476856 1_555
O43 Zr1 2.156044 1_555
O44 S5 1.467823 1_555
O44 Zr1 2.243495 1_665
O45 S6 1.468891 1_555
O45 Zr2 2.248813 1_665
O46 S7 1.477318 1_555
O46 Zr2 2.165006 1_655
O47 Si3 1.638932 1_555
O47 Zr2 1.931114 1_555
O48 S3 1.481751 1_545
O48 Zr3 2.157778 1_555
O49 Si1 1.626088 1_555
O49 Zr3 1.994454 1_555
O50 S2 1.485224 1_655
O50 Zr3 2.133026 1_555
O51 S1 1.489009 1_555
O52 Si0 1.619822 1_555
O53 S0 1.485131 1_555
O54 S8 1.487098 1_555
O55 S9 1.468817 1_655
O56 Si4 1.634299 1_545
O57 Si5 1.630097 1_545
O57 Zr4 1.935666 1_555
O58 S10 1.464664 1_555
O58 Zr4 2.246324 1_555
O59 S11 1.481443 1_655
O59 Zr4 2.140240 1_555
O60 Si3 1.621808 1_555
O61 S6 1.493881 1_455
O62 S7 1.485061 1_565
O63 S4 1.483576 1_565
O64 S5 1.492601 1_555
O65 Si2 1.616648 1_455
O66 S0 1.485277 1_565
O66 Zr5 2.128293 1_555
O67 S1 1.481560 1_555
O67 Zr5 2.141761 1_555
O68 Si0 1.620803 1_455
O68 Zr5 1.994955 1_555
O69 Si1 1.620956 1_555
O70 S2 1.486265 1_555
O71 S3 1.489793 1_555
