# generated using pymatgen
data_TeSeO4
_symmetry_space_group_name_H-M   'P 1'
_cell_length_a   4.41660653
_cell_length_b   6.74026870
_cell_length_c   7.44082380
_cell_angle_alpha   116.82285101
_cell_angle_beta   107.11124140
_cell_angle_gamma   90.32096332
_symmetry_Int_Tables_number   1
_chemical_formula_structural   TeSeO4
_chemical_formula_sum   'Te2 Se2 O8'
_cell_volume   186.42124298
_cell_formula_units_Z   2
loop_
 _symmetry_equiv_pos_site_id
 _symmetry_equiv_pos_as_xyz
  1  'x, y, z'
loop_
 _atom_site_type_symbol
 _atom_site_label
 _atom_site_symmetry_multiplicity
 _atom_site_fract_x
 _atom_site_fract_y
 _atom_site_fract_z
 _atom_site_occupancy
  Te  Te0  1  0.13815541  0.88897635  0.77759772  1
  Te  Te1  1  0.86068971  0.11128075  0.22260084  1
  Se  Se0  1  0.60953455  0.62462297  0.24325402  1
  Se  Se1  1  0.86659348  0.38160418  0.75678186  1
  O  O0  1  0.81186868  0.94793754  0.90556680  1
  O  O1  1  0.14379045  0.21132469  0.79097982  1
  O  O2  1  0.67342909  0.75162417  0.50914759  1
  O  O3  1  0.85302849  0.42050182  0.20974359  1
  O  O4  1  0.40647911  0.04246284  0.09465617  1
  O  O5  1  0.87070005  0.80148091  0.22312079  1
  O  O6  1  0.66485805  0.24222213  0.49097268  1
  O  O7  1  0.14787292  0.57846165  0.77667912  1
loop_
_geom_bond_atom_site_label_1
_geom_bond_atom_site_label_2
_geom_bond_distance
_geom_bond_site_symmetry_2
O0 Te0 1.900975 1_655
O0 Te1 2.043926 1_566
O1 Se1 1.725358 1_455
O1 Te0 2.129299 1_545
O2 Se0 1.693240 1_555
O2 Te0 2.226452 1_655
O3 Se0 1.725219 1_555
O3 Te1 2.129121 1_555
O4 Te1 1.900794 1_555
O4 Te0 2.044220 1_544
O5 Se0 1.738217 1_555
O5 Te1 2.090574 1_565
O6 Se1 1.692644 1_555
O6 Te1 2.224641 1_555
O7 Se1 1.738342 1_455
O7 Te0 2.090600 1_555
