# generated using pymatgen
data_BaPd5
_symmetry_space_group_name_H-M   'P 1'
_cell_length_a   5.58697950
_cell_length_b   5.58698484
_cell_length_c   4.32517331
_cell_angle_alpha   90.00000000
_cell_angle_beta   90.00000000
_cell_angle_gamma   119.99994657
_symmetry_Int_Tables_number   1
_chemical_formula_structural   BaPd5
_chemical_formula_sum   'Ba1 Pd5'
_cell_volume   116.92003883
_cell_formula_units_Z   1
loop_
 _symmetry_equiv_pos_site_id
 _symmetry_equiv_pos_as_xyz
  1  'x, y, z'
loop_
 _atom_site_type_symbol
 _atom_site_label
 _atom_site_symmetry_multiplicity
 _atom_site_fract_x
 _atom_site_fract_y
 _atom_site_fract_z
 _atom_site_occupancy
  Ba  Ba0  1  -0.00000000  -0.00000000  0.00000000  1
  Pd  Pd0  1  -0.00000000  0.50000000  0.50000000  1
  Pd  Pd1  1  0.33333650  0.66666887  -0.00000000  1
  Pd  Pd2  1  0.66666350  0.33333113  0.00000000  1
  Pd  Pd3  1  0.50000000  -0.00000000  0.50000000  1
  Pd  Pd4  1  0.50000000  0.50000000  0.50000000  1
loop_
_geom_bond_atom_site_label_1
_geom_bond_atom_site_label_2
_geom_bond_distance
_geom_bond_site_symmetry_2
Ba0 Pd2 3.225631 1_555
Ba0 Pd1 3.225631 1_445
Ba0 Pd1 3.225649 1_545
Ba0 Pd2 3.225649 1_455
Ba0 Pd1 3.225660 1_555
Ba0 Pd2 3.225660 1_445
Ba0 Pd3 3.532756 1_454
Ba0 Pd3 3.532756 1_554
Ba0 Pd3 3.532756 1_555
Ba0 Pd3 3.532756 1_455
Ba0 Pd0 3.532758 1_544
Ba0 Pd0 3.532758 1_545
Ba0 Pd0 3.532758 1_555
Ba0 Pd0 3.532758 1_554
Ba0 Pd4 3.532759 1_554
Ba0 Pd4 3.532759 1_445
Ba0 Pd4 3.532759 1_444
Ba0 Pd4 3.532759 1_555
Pd0 Pd1 2.697782 1_556
Pd0 Pd2 2.697782 1_456
Pd0 Pd2 2.697782 1_455
Pd0 Pd1 2.697782 1_555
Pd0 Pd4 2.793490 1_455
Pd0 Pd4 2.793490 1_555
Pd0 Pd3 2.793493 1_565
Pd0 Pd3 2.793493 1_455
Pd1 Pd3 2.697767 1_565
Pd1 Pd3 2.697767 1_564
Pd1 Pd4 2.697770 1_555
Pd1 Pd4 2.697770 1_554
Pd2 Pd3 2.697767 1_555
Pd2 Pd3 2.697767 1_554
Pd2 Pd4 2.697770 1_555
Pd2 Pd4 2.697770 1_554
Pd3 Pd4 2.793492 1_555
Pd3 Pd4 2.793492 1_545
