# generated using pymatgen
data_Ce(NiSn)2
_symmetry_space_group_name_H-M   'P 1'
_cell_length_a   6.07296792
_cell_length_b   6.07296792
_cell_length_c   6.07296792
_cell_angle_alpha   137.21611141
_cell_angle_beta   137.21611141
_cell_angle_gamma   62.10570692
_symmetry_Int_Tables_number   1
_chemical_formula_structural   Ce(NiSn)2
_chemical_formula_sum   'Ce1 Ni2 Sn2'
_cell_volume   102.11001886
_cell_formula_units_Z   1
loop_
 _symmetry_equiv_pos_site_id
 _symmetry_equiv_pos_as_xyz
  1  'x, y, z'
loop_
 _atom_site_type_symbol
 _atom_site_label
 _atom_site_symmetry_multiplicity
 _atom_site_fract_x
 _atom_site_fract_y
 _atom_site_fract_z
 _atom_site_occupancy
  Ce  Ce0  1  0.00000000  0.00000000  0.00000000  1
  Ni  Ni0  1  0.25000000  0.75000000  0.50000000  1
  Ni  Ni1  1  0.75000000  0.25000000  0.50000000  1
  Sn  Sn0  1  0.63616200  0.63616200  0.00000000  1
  Sn  Sn1  1  0.36383800  0.36383800  0.00000000  1
loop_
_geom_bond_atom_site_label_1
_geom_bond_atom_site_label_2
_geom_bond_distance
_geom_bond_site_symmetry_2
Ce0 Ni1 3.416657 1_555
Ce0 Ni1 3.416657 1_444
Ce0 Ni0 3.416657 1_544
Ce0 Ni0 3.416657 1_545
Ce0 Ni0 3.416657 1_444
Ce0 Ni1 3.416657 1_455
Ce0 Ni1 3.416657 1_454
Ce0 Ni0 3.416657 1_555
Ce0 Sn1 3.438110 1_444
Ce0 Sn0 3.438110 1_556
Ce0 Sn1 3.438110 1_455
Ce0 Sn1 3.438110 1_556
Ce0 Sn1 3.438110 1_545
Ce0 Sn0 3.438110 1_455
Ce0 Sn0 3.438110 1_545
Ce0 Sn0 3.438110 1_444
Ni0 Sn1 2.511914 1_566
Ni0 Sn0 2.511914 1_455
Ni0 Sn0 2.511914 1_556
Ni0 Sn1 2.511914 1_555
Ni1 Sn1 2.511914 1_656
Ni1 Sn0 2.511914 1_545
Ni1 Sn0 2.511914 1_556
Ni1 Sn1 2.511914 1_555
Sn0 Sn1 2.833619 1_555
