# generated using pymatgen
data_MgV3(OF)4
_symmetry_space_group_name_H-M   'P 1'
_cell_length_a   4.80118239
_cell_length_b   9.81924064
_cell_length_c   3.12067300
_cell_angle_alpha   90.00000000
_cell_angle_beta   90.00000000
_cell_angle_gamma   87.74921290
_symmetry_Int_Tables_number   1
_chemical_formula_structural   MgV3(OF)4
_chemical_formula_sum   'Mg1 V3 O4 F4'
_cell_volume   147.00739516
_cell_formula_units_Z   1
loop_
 _symmetry_equiv_pos_site_id
 _symmetry_equiv_pos_as_xyz
  1  'x, y, z'
loop_
 _atom_site_type_symbol
 _atom_site_label
 _atom_site_symmetry_multiplicity
 _atom_site_fract_x
 _atom_site_fract_y
 _atom_site_fract_z
 _atom_site_occupancy
  Mg  Mg0  1  0.49115100  0.09675200  0.25000000  1
  V  V0  1  0.00071500  0.84742500  0.75000000  1
  V  V1  1  0.48974200  0.38910600  0.75000000  1
  V  V2  1  0.52383100  0.64113100  0.25000000  1
  O  O0  1  0.30892100  0.48100100  0.25000000  1
  O  O1  1  0.32339100  0.72924200  0.75000000  1
  O  O2  1  0.71109300  0.54595900  0.75000000  1
  O  O3  1  0.80415300  0.77448200  0.25000000  1
  F  F0  1  0.30289300  0.19778000  0.75000000  1
  F  F1  1  0.18812100  0.96298800  0.25000000  1
  F  F2  1  0.69234700  0.27599600  0.25000000  1
  F  F3  1  0.70665200  0.01484000  0.75000000  1
loop_
_geom_bond_atom_site_label_1
_geom_bond_atom_site_label_2
_geom_bond_distance
_geom_bond_site_symmetry_2
O0 V2 1.914260 1_555
O0 V1 1.985202 1_555
O0 V1 1.985202 1_554
O1 V0 1.898835 1_555
O1 V2 2.010947 1_555
O1 V2 2.010947 1_556
O2 V1 1.905294 1_555
O2 V2 2.012540 1_555
O2 V2 2.012540 1_556
O3 V2 1.914250 1_555
O3 V0 1.972657 1_654
O3 V0 1.972657 1_655
F0 Mg0 2.040903 1_555
F0 Mg0 2.040903 1_556
F0 V1 2.113430 1_555
F1 Mg0 1.998004 1_565
F1 V0 2.147573 1_555
F1 V0 2.147573 1_554
F2 Mg0 2.040686 1_555
F2 V1 2.128279 1_554
F2 V1 2.128279 1_555
F3 Mg0 2.021565 1_555
F3 Mg0 2.021565 1_556
F3 V0 2.124473 1_645
