# generated using pymatgen
data_Mn2Tl2O7
_symmetry_space_group_name_H-M   'P 1'
_cell_length_a   7.00785699
_cell_length_b   7.00785699
_cell_length_c   7.00785699
_cell_angle_alpha   60.00000000
_cell_angle_beta   60.00000000
_cell_angle_gamma   60.00000000
_symmetry_Int_Tables_number   1
_chemical_formula_structural   Mn2Tl2O7
_chemical_formula_sum   'Mn4 Tl4 O14'
_cell_volume   243.35523553
_cell_formula_units_Z   2
loop_
 _symmetry_equiv_pos_site_id
 _symmetry_equiv_pos_as_xyz
  1  'x, y, z'
loop_
 _atom_site_type_symbol
 _atom_site_label
 _atom_site_symmetry_multiplicity
 _atom_site_fract_x
 _atom_site_fract_y
 _atom_site_fract_z
 _atom_site_occupancy
  Mn  Mn0  1  0.62500000  0.62500000  0.12500000  1
  Mn  Mn1  1  0.62500000  0.12500000  0.62500000  1
  Mn  Mn2  1  0.12500000  0.62500000  0.62500000  1
  Mn  Mn3  1  0.62500000  0.62500000  0.62500000  1
  Tl  Tl0  1  0.12500000  0.12500000  0.62500000  1
  Tl  Tl1  1  0.12500000  0.62500000  0.12500000  1
  Tl  Tl2  1  0.62500000  0.12500000  0.12500000  1
  Tl  Tl3  1  0.12500000  0.12500000  0.12500000  1
  O  O0  1  0.25000000  0.25000000  0.25000000  1
  O  O1  1  -0.00000000  0.00000000  0.00000000  1
  O  O2  1  0.55073876  0.94926124  0.55073876  1
  O  O3  1  0.30073876  0.69926124  0.30073876  1
  O  O4  1  0.55073876  0.55073876  0.94926124  1
  O  O5  1  0.94926124  0.55073876  0.55073876  1
  O  O6  1  0.55073876  0.94926124  0.94926124  1
  O  O7  1  0.94926124  0.94926124  0.55073876  1
  O  O8  1  0.94926124  0.55073876  0.94926124  1
  O  O9  1  0.69926124  0.30073876  0.30073876  1
  O  O10  1  0.30073876  0.69926124  0.69926124  1
  O  O11  1  0.69926124  0.30073876  0.69926124  1
  O  O12  1  0.30073876  0.30073876  0.69926124  1
  O  O13  1  0.69926124  0.69926124  0.30073876  1
loop_
_geom_bond_atom_site_label_1
_geom_bond_atom_site_label_2
_geom_bond_distance
_geom_bond_site_symmetry_2
Mn0 O9 1.900273 1_555
Mn0 O6 1.900273 1_554
Mn0 O3 1.900273 1_555
Mn0 O13 1.900273 1_555
Mn0 O4 1.900273 1_554
Mn0 O8 1.900273 1_554
Mn1 O9 1.900273 1_555
Mn1 O6 1.900273 1_545
Mn1 O11 1.900273 1_555
Mn1 O12 1.900273 1_555
Mn1 O2 1.900273 1_545
Mn1 O7 1.900273 1_545
Mn2 O3 1.900273 1_555
Mn2 O12 1.900273 1_555
Mn2 O7 1.900273 1_455
Mn2 O5 1.900273 1_455
Mn2 O8 1.900273 1_455
Mn2 O10 1.900273 1_555
Mn3 O11 1.900273 1_555
Mn3 O13 1.900273 1_555
Mn3 O4 1.900273 1_555
Mn3 O5 1.900273 1_555
Mn3 O10 1.900273 1_555
Mn3 O2 1.900273 1_555
O0 Tl2 2.145709 1_555
O0 Tl1 2.145709 1_555
O0 Tl0 2.145709 1_555
O0 Tl3 2.145709 1_555
O1 Tl0 2.145709 1_554
O1 Tl1 2.145709 1_545
O1 Tl2 2.145709 1_455
O1 Tl3 2.145709 1_555
O2 Tl2 2.470389 1_565
O2 Tl0 2.470389 1_565
O3 Tl3 2.470389 1_565
O3 Tl1 2.470389 1_555
O4 Tl1 2.470389 1_556
O4 Tl2 2.470389 1_556
O5 Tl0 2.470389 1_655
O5 Tl1 2.470389 1_655
O6 Tl2 2.470389 1_566
O6 Tl3 2.470389 1_566
O7 Tl0 2.470389 1_665
O7 Tl3 2.470389 1_665
O8 Tl3 2.470389 1_656
O8 Tl1 2.470389 1_656
O9 Tl3 2.470389 1_655
O9 Tl2 2.470389 1_555
O10 Tl1 2.470389 1_556
O10 Tl0 2.470389 1_565
O11 Tl2 2.470389 1_556
O11 Tl0 2.470389 1_655
O12 Tl3 2.470389 1_556
O12 Tl0 2.470389 1_555
O13 Tl1 2.470389 1_655
O13 Tl2 2.470389 1_565
