# generated using pymatgen
data_Na8Sc2Zn2Si3(SO8)3
_symmetry_space_group_name_H-M   'P 1'
_cell_length_a   9.16751494
_cell_length_b   9.22762197
_cell_length_c   22.37652039
_cell_angle_alpha   90.13150883
_cell_angle_beta   89.30624452
_cell_angle_gamma   120.06661355
_symmetry_Int_Tables_number   1
_chemical_formula_structural   Na8Sc2Zn2Si3(SO8)3
_chemical_formula_sum   'Na24 Sc6 Zn6 Si9 S9 O72'
_cell_volume   1638.08614508
_cell_formula_units_Z   3
loop_
 _symmetry_equiv_pos_site_id
 _symmetry_equiv_pos_as_xyz
  1  'x, y, z'
loop_
 _atom_site_type_symbol
 _atom_site_label
 _atom_site_symmetry_multiplicity
 _atom_site_fract_x
 _atom_site_fract_y
 _atom_site_fract_z
 _atom_site_occupancy
  Na  Na0  1  0.64137797  0.02054622  0.25957140  1
  Na  Na1  1  0.35330499  0.34740804  0.25308379  1
  Na  Na2  1  -0.00008885  0.62479404  0.24302398  1
  Na  Na3  1  0.62705612  0.62467979  0.73407784  1
  Na  Na4  1  0.99165184  0.35021430  0.73713390  1
  Na  Na5  1  0.38531896  0.02510386  0.75076142  1
  Na  Na6  1  0.30638778  0.35053034  0.59170186  1
  Na  Na7  1  0.02101426  0.68032185  0.58466500  1
  Na  Na8  1  0.66801417  0.95747810  0.57972406  1
  Na  Na9  1  0.28737236  0.94658746  0.08096935  1
  Na  Na10  1  0.67190198  0.69473479  0.08079259  1
  Na  Na11  1  0.03190477  0.34695437  0.09317820  1
  Na  Na12  1  0.98276691  0.68892710  0.91640874  1
  Na  Na13  1  0.68930800  0.02578876  0.90169146  1
  Na  Na14  1  0.32168967  0.27810426  0.90390101  1
  Na  Na15  1  0.95426084  0.27815219  0.41521263  1
  Na  Na16  1  0.33593890  0.02937092  0.40934644  1
  Na  Na17  1  0.69932265  0.68273160  0.42806683  1
  Na  Na18  1  0.97745221  0.99666525  0.50204538  1
  Na  Na19  1  0.00905682  0.98754674  0.99528537  1
  Na  Na20  1  0.64844531  0.31606828  0.82136707  1
  Na  Na21  1  0.66565040  0.31207207  0.33051122  1
  Na  Na22  1  0.31039708  0.66356638  0.16886289  1
  Na  Na23  1  0.33926928  0.65354716  0.66160007  1
  Sc  Sc0  1  0.99222632  0.01155157  0.64842234  1
  Sc  Sc1  1  0.01125323  0.00065280  0.15329707  1
  Sc  Sc2  1  0.66670074  0.33494890  0.98230665  1
  Sc  Sc3  1  0.67692320  0.33176710  0.48663074  1
  Sc  Sc4  1  0.33421650  0.67975743  0.31416533  1
  Sc  Sc5  1  0.34411992  0.67918378  0.81159678  1
  Zn  Zn0  1  0.00019456  0.01540529  0.34490907  1
  Zn  Zn1  1  0.01422532  0.01525060  0.83646144  1
  Zn  Zn2  1  0.67107378  0.33736538  0.68006129  1
  Zn  Zn3  1  0.68159439  0.32885273  0.18762027  1
  Zn  Zn4  1  0.30381563  0.67469554  0.01234761  1
  Zn  Zn5  1  0.35422351  0.66463907  0.52083866  1
  Si  Si0  1  0.29937207  0.00438896  0.25138833  1
  Si  Si1  1  0.00276744  0.29981609  0.25022531  1
  Si  Si2  1  0.30309296  0.30080148  0.75067905  1
  Si  Si3  1  0.70701571  0.00264878  0.75324795  1
  Si  Si4  1  0.97062453  0.34083307  0.58376062  1
  Si  Si5  1  0.67135053  0.62923755  0.58414507  1
  Si  Si6  1  0.95932418  0.62823574  0.08414101  1
  Si  Si7  1  0.33035692  0.96840708  0.91816907  1
  Si  Si8  1  0.63196795  0.96269226  0.41705354  1
  S  S0  1  0.70235324  0.70366667  0.25050485  1
  S  S1  1  0.00184636  0.70683250  0.75309977  1
  S  S2  1  0.36816181  0.03627648  0.58389427  1
  S  S3  1  0.66749367  0.03429821  0.08284992  1
  S  S4  1  0.37026537  0.33486560  0.08341870  1
  S  S5  1  0.62178845  0.66201289  0.92058629  1
  S  S6  1  0.03765946  0.37143445  0.91997208  1
  S  S7  1  0.33526176  0.37084912  0.41621072  1
  S  S8  1  0.03478052  0.66498077  0.41697160  1
  O  O0  1  0.20980102  0.02836350  0.31080178  1
  O  O1  1  0.80572825  0.78165188  0.30364740  1
  O  O2  1  0.96532020  0.18470459  0.30922570  1
  O  O3  1  0.22956170  0.19006923  0.81208897  1
  O  O4  1  0.98072460  0.78454975  0.80846579  1
  O  O5  1  0.81324440  0.02077942  0.81422522  1
  O  O6  1  0.79345983  0.96741290  0.69495143  1
  O  O7  1  0.17939815  0.20533972  0.69408143  1
  O  O8  1  0.02748961  0.81166825  0.69955617  1
  O  O9  1  0.78358149  0.80903723  0.19563618  1
  O  O10  1  0.02580510  0.20697748  0.18978860  1
  O  O11  1  0.18077125  0.96997342  0.19159762  1
  O  O12  1  0.88627614  0.37075027  0.64331304  1
  O  O13  1  0.47073902  0.11275340  0.63760227  1
  O  O14  1  0.63806602  0.51232466  0.64221080  1
  O  O15  1  0.86696223  0.51319842  0.14261229  1
  O  O16  1  0.63810221  0.10880589  0.13687006  1
  O  O17  1  0.46754812  0.35340441  0.13760750  1
  O  O18  1  0.45474947  0.31111398  0.02952639  1
  O  O19  1  0.84431926  0.53718642  0.02410574  1
  O  O20  1  0.68661103  0.13943959  0.02912829  1
  O  O21  1  0.45075866  0.14180214  0.52939034  1
  O  O22  1  0.69015538  0.53678222  0.52282460  1
  O  O23  1  0.84888898  0.30504017  0.52473076  1
  O  O24  1  0.53737390  0.67635094  0.97546589  1
  O  O25  1  0.13878670  0.44823732  0.97457349  1
  O  O26  1  0.30444551  0.86469846  0.98048910  1
  O  O27  1  0.54064654  0.84731064  0.47565839  1
  O  O28  1  0.31250846  0.45087182  0.46994839  1
  O  O29  1  0.13448111  0.68327065  0.47034156  1
  O  O30  1  0.11858532  0.64374915  0.36204645  1
  O  O31  1  0.51559912  0.87161823  0.35712110  1
  O  O32  1  0.35192876  0.47121133  0.36143265  1
  O  O33  1  0.12122060  0.47590255  0.86669507  1
  O  O34  1  0.36149912  0.87169389  0.86209277  1
  O  O35  1  0.51912967  0.64069555  0.86701045  1
  O  O36  1  0.01507039  0.81417544  0.41166357  1
  O  O37  1  0.82116948  0.98017838  0.41289527  1
  O  O38  1  0.18639304  0.19916530  0.41382130  1
  O  O39  1  0.01146649  0.20067063  0.91664016  1
  O  O40  1  0.15969958  0.98385179  0.91349444  1
  O  O41  1  0.79213228  0.81084541  0.91658797  1
  O  O42  1  0.98951722  0.17102708  0.58607934  1
  O  O43  1  0.19979949  0.02218788  0.58818933  1
  O  O44  1  0.84876414  0.81340545  0.58686930  1
  O  O45  1  0.97696043  0.81745224  0.08633473  1
  O  O46  1  0.82639281  0.02653832  0.08580722  1
  O  O47  1  0.19804047  0.18076146  0.08490617  1
  O  O48  1  0.68790885  0.16871258  0.74813428  1
  O  O49  1  0.49286527  0.32688025  0.74511109  1
  O  O50  1  0.85205816  0.53843211  0.74956919  1
  O  O51  1  0.67835292  0.53413712  0.24441373  1
  O  O52  1  0.83902908  0.32678914  0.24786967  1
  O  O53  1  0.48527185  0.17455168  0.24369041  1
  O  O54  1  0.63866349  0.50731478  0.92242475  1
  O  O55  1  0.86745278  0.35945735  0.92414947  1
  O  O56  1  0.50494082  0.15773564  0.92249923  1
  O  O57  1  0.64510944  0.15012422  0.41917304  1
  O  O58  1  0.49189684  0.35860991  0.41853433  1
  O  O59  1  0.86392294  0.50994406  0.41831144  1
  O  O60  1  0.35357732  0.48580457  0.07695624  1
  O  O61  1  0.14854370  0.64447682  0.08218480  1
  O  O62  1  0.52315317  0.86115105  0.07756382  1
  O  O63  1  0.34555004  0.86655990  0.57772513  1
  O  O64  1  0.50841744  0.65766395  0.58266195  1
  O  O65  1  0.15677673  0.51018592  0.57571564  1
  O  O66  1  0.31914325  0.83486129  0.25350711  1
  O  O67  1  0.53299245  0.68939947  0.25439267  1
  O  O68  1  0.17868919  0.48427820  0.25379582  1
  O  O69  1  0.30931762  0.48397324  0.75729063  1
  O  O70  1  0.15587118  0.68941447  0.75689160  1
  O  O71  1  0.51599827  0.83230169  0.75532359  1
loop_
_geom_bond_atom_site_label_1
_geom_bond_atom_site_label_2
_geom_bond_distance
_geom_bond_site_symmetry_2
Na0 O52 2.489706 1_555
Na0 O53 2.499271 1_555
Na0 O31 2.519501 1_545
Na0 O66 2.572496 1_545
Na0 O67 2.701266 1_545
Na0 O2 2.813020 1_555
Na0 O16 2.870443 1_555
Na1 O53 2.444976 1_555
Na1 O68 2.486577 1_555
Na1 O51 2.594023 1_555
Na1 O32 2.680355 1_555
Na1 O67 2.732235 1_555
Na1 O17 2.766558 1_555
Na1 O0 2.856830 1_555
Na1 O10 2.982530 1_555
Na2 O52 2.383788 1_455
Na2 O15 2.528318 1_455
Na2 O68 2.562398 1_555
Na2 O66 2.589882 1_555
Na2 O51 2.630156 1_455
Na2 O30 2.860907 1_555
Na2 O11 2.982874 1_555
Na3 O14 2.323981 1_555
Na3 O49 2.394606 1_555
Na3 O69 2.572400 1_555
Na3 O50 2.582991 1_555
Na3 O71 2.621393 1_555
Na3 O6 2.870867 1_555
Na4 O12 2.368737 1_555
Na4 O48 2.435507 1_555
Na4 O69 2.575920 1_655
Na4 O50 2.635883 1_555
Na4 O70 2.747182 1_655
Na4 O7 2.817296 1_655
Na5 O48 2.401579 1_555
Na5 O49 2.447458 1_555
Na5 O71 2.598137 1_545
Na5 O13 2.646829 1_555
Na5 O70 2.739475 1_545
Na5 O34 2.819755 1_545
Na5 O3 2.891414 1_555
Na6 O65 2.493710 1_555
Na6 O64 2.497464 1_555
Na6 O42 2.526762 1_455
Na6 O7 2.604830 1_555
Na6 O43 2.678624 1_555
Na6 O28 2.870321 1_555
Na6 O14 2.877274 1_555
Na7 O44 2.438248 1_455
Na7 O65 2.450369 1_555
Na7 O63 2.587662 1_555
Na7 O43 2.732267 1_565
Na7 O29 2.744901 1_555
Na7 O12 2.801880 1_455
Na7 O8 2.828276 1_555
Na8 O64 2.396140 1_555
Na8 O27 2.585522 1_555
Na8 O44 2.598749 1_555
Na8 O42 2.603760 1_565
Na8 O63 2.638722 1_555
Na8 O6 2.818532 1_555
Na9 O26 2.398536 1_554
Na9 O61 2.415886 1_555
Na9 O45 2.475273 1_455
Na9 O62 2.646278 1_555
Na9 O47 2.668030 1_565
Na9 O11 2.698125 1_555
Na10 O45 2.439943 1_555
Na10 O62 2.514778 1_555
Na10 O60 2.570652 1_555
Na10 O24 2.638828 1_554
Na10 O46 2.655190 1_565
Na10 O9 2.780970 1_555
Na10 O19 2.909717 1_555
Na10 O17 3.015715 1_555
Na11 O61 2.407575 1_555
Na11 O10 2.506474 1_555
Na11 O60 2.580674 1_555
Na11 O46 2.596599 1_455
Na11 O47 2.652931 1_555
Na11 O25 2.812096 1_554
Na11 O15 2.852957 1_455
Na12 O40 2.369944 1_655
Na12 O41 2.507955 1_555
Na12 O4 2.576908 1_555
Na12 O55 2.677325 1_555
Na12 O54 2.733395 1_555
Na12 O19 2.745854 1_556
Na13 O5 2.263187 1_555
Na13 O56 2.568336 1_555
Na13 O39 2.585425 1_655
Na13 O41 2.611070 1_545
Na13 O55 2.715509 1_555
Na13 O34 2.759553 1_545
Na14 O3 2.222794 1_555
Na14 O40 2.361905 1_545
Na14 O56 2.473440 1_555
Na14 O39 2.573930 1_555
Na14 O54 2.637429 1_555
Na15 O37 2.385565 1_545
Na15 O57 2.464825 1_555
Na15 O2 2.539844 1_555
Na15 O38 2.571653 1_655
Na15 O59 2.652996 1_555
Na15 O23 2.679620 1_555
Na16 O57 2.484503 1_555
Na16 O0 2.500114 1_555
Na16 O38 2.548083 1_555
Na16 O36 2.596633 1_545
Na16 O58 2.639745 1_555
Na16 O21 2.891582 1_555
Na16 O31 2.923250 1_545
Na17 O37 2.412366 1_555
Na17 O22 2.492409 1_555
Na17 O36 2.538315 1_655
Na17 O58 2.629617 1_555
Na17 O59 2.695929 1_555
Na17 O27 2.779420 1_555
Na17 O1 2.930788 1_555
Na18 O44 2.411553 1_555
Na18 O37 2.429971 1_555
Na18 O42 2.439186 1_565
Na18 O38 2.719715 1_665
Na18 O43 2.745562 1_665
Na18 O36 2.755760 1_655
Na19 O40 2.289909 1_555
Na19 O45 2.497676 1_456
Na19 O41 2.556747 1_455
Na19 O39 2.633712 1_565
Na19 O47 2.678543 1_566
Na19 O46 2.748601 1_466
Na20 O48 2.265711 1_555
Na20 O49 2.271155 1_555
Na20 O50 2.525936 1_555
Na20 O56 2.646428 1_555
Na20 O54 2.893319 1_555
Na20 O55 2.963628 1_555
Na21 O52 2.382885 1_555
Na21 O57 2.434603 1_555
Na21 O53 2.466352 1_555
Na21 O58 2.684546 1_555
Na21 O59 2.691125 1_555
Na21 O51 2.774479 1_555
Na22 O68 2.400858 1_555
Na22 O61 2.408478 1_555
Na22 O66 2.440329 1_555
Na22 O67 2.736599 1_555
Na22 O62 2.767565 1_555
Na22 O60 2.773479 1_555
Na23 O64 2.324005 1_555
Na23 O65 2.467955 1_555
Na23 O69 2.584441 1_555
Na23 O71 2.670690 1_555
Na23 O63 2.700056 1_555
Na23 O70 2.819668 1_555
O0 Si0 1.626327 1_555
O0 Zn0 2.005962 1_555
O1 S0 1.473109 1_555
O1 Zn0 2.204746 1_665
O2 Si1 1.618394 1_655
O2 Zn0 1.921642 1_655
O3 Si2 1.637246 1_555
O3 Zn1 1.893093 1_555
O4 S1 1.488596 1_655
O4 Zn1 2.088553 1_665
O5 Si3 1.644993 1_555
O5 Zn1 1.939452 1_655
O6 Si3 1.632972 1_565
O6 Sc0 1.944900 1_565
O7 Si2 1.641498 1_555
O7 Sc0 2.036014 1_455
O8 S1 1.482300 1_555
O8 Sc0 2.330621 1_465
O9 S0 1.505051 1_555
O9 Sc1 2.154575 1_665
O10 Si1 1.666268 1_555
O10 Sc1 2.012546 1_555
O11 Si0 1.661418 1_565
O11 Sc1 1.924565 1_565
O12 Si4 1.623936 1_555
O12 Zn2 2.004041 1_555
O13 S2 1.478227 1_555
O13 Zn2 2.188717 1_555
O14 Si5 1.616219 1_555
O14 Zn2 1.979239 1_555
O15 Si6 1.623134 1_555
O15 Zn3 1.966122 1_555
O16 S3 1.476610 1_555
O16 Zn3 2.181906 1_555
O17 S4 1.472175 1_555
O17 Zn3 2.377824 1_555
O18 S4 1.499470 1_555
O18 Sc2 2.112687 1_554
O19 Si6 1.662426 1_555
O19 Sc2 1.998217 1_554
O20 S3 1.498979 1_555
O20 Sc2 2.174625 1_554
O21 S2 1.501090 1_555
O21 Sc3 2.145919 1_555
O22 Si5 1.666316 1_555
O22 Sc3 2.003735 1_555
O23 Si4 1.662424 1_555
O23 Sc3 1.922527 1_555
O24 S5 1.484330 1_555
O24 Zn4 2.278232 1_556
O25 S6 1.489840 1_555
O25 Zn4 2.055500 1_556
O26 Si7 1.639272 1_555
O26 Zn4 1.891481 1_556
O27 Si8 1.625067 1_555
O27 Zn5 1.965604 1_555
O28 S7 1.476102 1_555
O28 Zn5 2.139710 1_555
O29 S8 1.470043 1_555
O29 Zn5 2.401577 1_555
O30 S8 1.505329 1_555
O30 Sc4 2.111460 1_555
O31 Si8 1.665524 1_555
O31 Sc4 1.975943 1_555
O32 S7 1.497447 1_555
O32 Sc4 2.274844 1_555
O33 S6 1.476669 1_555
O33 Sc5 2.307191 1_555
O34 Si7 1.641320 1_555
O34 Sc5 2.041886 1_555
O35 S5 1.484039 1_555
O35 Sc5 2.204295 1_555
O36 S8 1.480752 1_555
O36 Zn0 2.443199 1_565
O37 Si8 1.661005 1_555
O37 Zn0 2.126224 1_665
O38 S7 1.486656 1_555
O38 Zn0 2.306148 1_555
O39 S6 1.472055 1_555
O39 Zn1 2.484985 1_555
O40 Si7 1.645106 1_555
O40 Zn1 2.297591 1_565
O41 S5 1.476823 1_555
O42 Si4 1.661447 1_555
O42 Sc0 2.039394 1_555
O43 S2 1.484528 1_555
O43 Sc0 2.280068 1_455
O44 Si5 1.664161 1_555
O44 Sc0 2.143049 1_565
O45 Si6 1.671545 1_555
O45 Sc1 2.160798 1_665
O46 S3 1.496123 1_555
O46 Sc1 2.383069 1_655
O47 S4 1.505098 1_555
O47 Sc1 2.265596 1_555
O48 Si3 1.631622 1_555
O48 Zn2 2.241266 1_555
O49 Si2 1.635700 1_555
O49 Zn2 2.140524 1_555
O50 S1 1.473269 1_655
O50 Zn2 2.361995 1_555
O51 S0 1.472770 1_555
O51 Zn3 2.290999 1_555
O52 Si1 1.641430 1_655
O52 Zn3 1.993935 1_555
O53 Si0 1.646929 1_555
O53 Zn3 2.055836 1_555
O54 S5 1.511646 1_555
O54 Sc2 2.195237 1_555
O55 S6 1.509778 1_655
O55 Sc2 2.158248 1_555
O56 Si7 1.680587 1_545
O56 Sc2 2.066958 1_555
O57 Si8 1.673047 1_545
O57 Sc3 2.163836 1_555
O58 S7 1.497251 1_555
O58 Sc3 2.397023 1_555
O59 S8 1.501567 1_655
O59 Sc3 2.258982 1_555
O60 S4 1.482971 1_555
O60 Zn4 2.482054 1_555
O61 Si6 1.664681 1_455
O61 Zn4 2.023973 1_555
O62 S3 1.483981 1_565
O62 Zn4 2.392912 1_555
O63 S2 1.479542 1_565
O63 Zn5 2.287676 1_555
O64 Si5 1.641602 1_555
O64 Zn5 2.013712 1_555
O65 Si4 1.645736 1_455
O65 Zn5 2.045684 1_555
O66 Si0 1.663403 1_565
O66 Sc4 2.030146 1_555
O67 S0 1.492477 1_555
O67 Sc4 2.212828 1_555
O68 Si1 1.660273 1_555
O68 Sc4 2.137723 1_555
O69 Si2 1.668671 1_555
O69 Sc5 2.060756 1_555
O70 S1 1.502404 1_555
O70 Sc5 2.168085 1_555
O71 Si3 1.667259 1_565
O71 Sc5 1.947830 1_555
