# generated using pymatgen
data_Na3NbGaSi2PO12
_symmetry_space_group_name_H-M   'P 1'
_cell_length_a   8.96904775
_cell_length_b   8.96904744
_cell_length_c   22.10777163
_cell_angle_alpha   88.95930834
_cell_angle_beta   91.04069165
_cell_angle_gamma   119.64294961
_symmetry_Int_Tables_number   1
_chemical_formula_structural   Na3NbGaSi2PO12
_chemical_formula_sum   'Na18 Nb6 Ga6 Si12 P6 O72'
_cell_volume   1545.33878483
_cell_formula_units_Z   6
loop_
 _symmetry_equiv_pos_site_id
 _symmetry_equiv_pos_as_xyz
  1  'x, y, z'
loop_
 _atom_site_type_symbol
 _atom_site_label
 _atom_site_symmetry_multiplicity
 _atom_site_fract_x
 _atom_site_fract_y
 _atom_site_fract_z
 _atom_site_occupancy
  Na  Na0  1  0.99808462  0.99591142  0.49345941  1
  Na  Na1  1  0.00408858  0.00191538  0.99345941  1
  Na  Na2  1  0.66475162  0.32924442  0.82679241  1
  Na  Na3  1  0.67075558  0.33524838  0.32679241  1
  Na  Na4  1  0.33141762  0.66257842  0.16012641  1
  Na  Na5  1  0.33742158  0.66858238  0.66012641  1
  Na  Na6  1  0.64160654  0.00950692  0.24824099  1
  Na  Na7  1  0.98938001  0.62488708  0.24755124  1
  Na  Na8  1  0.99049308  0.35839346  0.74824099  1
  Na  Na9  1  0.37511292  0.01061999  0.74755124  1
  Na  Na10  1  0.30827354  0.34283992  0.58157399  1
  Na  Na11  1  0.65604701  0.95822008  0.58088424  1
  Na  Na12  1  0.65716008  0.69172646  0.08157399  1
  Na  Na13  1  0.04177992  0.34395299  0.08088424  1
  Na  Na14  1  0.97493954  0.67617392  0.91490799  1
  Na  Na15  1  0.32271301  0.29155408  0.91421824  1
  Na  Na16  1  0.32382608  0.02506046  0.41490799  1
  Na  Na17  1  0.70844592  0.67728699  0.41421824  1
  Nb  Nb0  1  0.99594402  0.99530984  0.64518546  1
  Nb  Nb1  1  0.00469016  0.00405598  0.14518546  1
  Nb  Nb2  1  0.66261102  0.32864284  0.97851846  1
  Nb  Nb3  1  0.67135716  0.33738898  0.47851846  1
  Nb  Nb4  1  0.32927702  0.66197684  0.31185246  1
  Nb  Nb5  1  0.33802316  0.67072298  0.81185246  1
  Ga  Ga0  1  0.98633483  0.99283891  0.35234550  1
  Ga  Ga1  1  0.00716109  0.01366517  0.85234550  1
  Ga  Ga2  1  0.65300183  0.32617191  0.68567850  1
  Ga  Ga3  1  0.67382809  0.34699817  0.18567850  1
  Ga  Ga4  1  0.31966783  0.65950591  0.01901250  1
  Ga  Ga5  1  0.34049409  0.68033217  0.51901250  1
  Si  Si0  1  0.70839507  0.70354168  0.25161822  1
  Si  Si1  1  0.99571663  0.28581305  0.25060513  1
  Si  Si2  1  0.29645832  0.29160493  0.75161822  1
  Si  Si3  1  0.71418695  0.00428337  0.75060513  1
  Si  Si4  1  0.37506207  0.03687468  0.58495122  1
  Si  Si5  1  0.66238363  0.61914605  0.58393813  1
  Si  Si6  1  0.96312532  0.62493793  0.08495122  1
  Si  Si7  1  0.38085395  0.33761637  0.08393813  1
  Si  Si8  1  0.04172807  0.37020868  0.91828522  1
  Si  Si9  1  0.32904963  0.95248005  0.91727213  1
  Si  Si10  1  0.62979132  0.95827193  0.41828522  1
  Si  Si11  1  0.04751995  0.67095037  0.41727213  1
  P  P0  1  0.29355606  0.00806803  0.25434650  1
  P  P1  1  0.99193197  0.70644394  0.75434650  1
  P  P2  1  0.96022306  0.34140103  0.58767950  1
  P  P3  1  0.65859897  0.03977694  0.08767950  1
  P  P4  1  0.62688906  0.67473503  0.92101350  1
  P  P5  1  0.32526497  0.37311094  0.42101350  1
  O  O0  1  0.21280284  0.02399125  0.31178532  1
  O  O1  1  0.82537556  0.78623110  0.31142326  1
  O  O2  1  0.96642854  0.15938566  0.30645705  1
  O  O3  1  0.21376890  0.17462444  0.81142326  1
  O  O4  1  0.97600875  0.78719716  0.81178532  1
  O  O5  1  0.84061434  0.03357146  0.80645705  1
  O  O6  1  0.79963209  0.97568433  0.68850811  1
  O  O7  1  0.16710115  0.19434564  0.69209624  1
  O  O8  1  0.01867447  0.82809425  0.69811959  1
  O  O9  1  0.80565436  0.83289885  0.19209624  1
  O  O10  1  0.02431567  0.20036791  0.18850811  1
  O  O11  1  0.17190575  0.98132553  0.19811959  1
  O  O12  1  0.87946984  0.35732425  0.64511832  1
  O  O13  1  0.49204256  0.11956410  0.64475626  1
  O  O14  1  0.63309554  0.49271866  0.63979005  1
  O  O15  1  0.88043590  0.50795744  0.14475626  1
  O  O16  1  0.64267575  0.12053016  0.14511832  1
  O  O17  1  0.50728134  0.36690446  0.13979005  1
  O  O18  1  0.46629909  0.30901733  0.02184111  1
  O  O19  1  0.83376815  0.52767864  0.02542924  1
  O  O20  1  0.68534147  0.16142725  0.03145259  1
  O  O21  1  0.47232136  0.16623185  0.52542924  1
  O  O22  1  0.69098267  0.53370091  0.52184111  1
  O  O23  1  0.83857275  0.31465853  0.53145259  1
  O  O24  1  0.54613584  0.69065825  0.97845232  1
  O  O25  1  0.15870856  0.45289810  0.97809026  1
  O  O26  1  0.29976154  0.82605266  0.97312405  1
  O  O27  1  0.54710190  0.84129144  0.47809026  1
  O  O28  1  0.30934175  0.45386416  0.47845232  1
  O  O29  1  0.17394734  0.70023846  0.47312405  1
  O  O30  1  0.13296509  0.64235133  0.35517511  1
  O  O31  1  0.50043415  0.86101264  0.35876324  1
  O  O32  1  0.35200747  0.49476125  0.36478659  1
  O  O33  1  0.13898736  0.49956585  0.85876324  1
  O  O34  1  0.35764867  0.86703491  0.85517511  1
  O  O35  1  0.50523875  0.64799253  0.86478659  1
  O  O36  1  0.02620150  0.84149525  0.41151486  1
  O  O37  1  0.81672697  0.97663969  0.41114883  1
  O  O38  1  0.17928443  0.19081199  0.41242783  1
  O  O39  1  0.02336031  0.18327303  0.91114883  1
  O  O40  1  0.15850475  0.97379850  0.91151486  1
  O  O41  1  0.80918801  0.82071557  0.91242783  1
  O  O42  1  0.96541447  0.16703608  0.58681989  1
  O  O43  1  0.18837782  0.03356629  0.58828687  1
  O  O44  1  0.83281086  0.81469003  0.58805971  1
  O  O45  1  0.96643371  0.81162218  0.08828687  1
  O  O46  1  0.83296392  0.03458553  0.08681989  1
  O  O47  1  0.18530997  0.16718914  0.08805971  1
  O  O48  1  0.69286850  0.17482825  0.74484786  1
  O  O49  1  0.48339397  0.30997269  0.74448183  1
  O  O50  1  0.84595143  0.52414499  0.74576083  1
  O  O51  1  0.69002731  0.51660603  0.24448183  1
  O  O52  1  0.82517175  0.30713150  0.24484786  1
  O  O53  1  0.47585501  0.15404857  0.24576083  1
  O  O54  1  0.63208147  0.50036908  0.92015289  1
  O  O55  1  0.85504482  0.36689929  0.92161987  1
  O  O56  1  0.49947786  0.14802303  0.92139271  1
  O  O57  1  0.63310071  0.14495518  0.42161987  1
  O  O58  1  0.49963092  0.36791853  0.42015289  1
  O  O59  1  0.85197697  0.50052214  0.42139271  1
  O  O60  1  0.35953450  0.50816225  0.07818186  1
  O  O61  1  0.15005997  0.64330669  0.07781583  1
  O  O62  1  0.51261743  0.85747899  0.07909483  1
  O  O63  1  0.35669331  0.84994003  0.57781583  1
  O  O64  1  0.49183775  0.64046550  0.57818186  1
  O  O65  1  0.14252101  0.48738257  0.57909483  1
  O  O66  1  0.29874747  0.83370308  0.25348689  1
  O  O67  1  0.52171082  0.70023329  0.25495387  1
  O  O68  1  0.16614386  0.48135703  0.25472671  1
  O  O69  1  0.29976671  0.47828918  0.75495387  1
  O  O70  1  0.16629692  0.70125253  0.75348689  1
  O  O71  1  0.51864297  0.83385614  0.75472671  1
loop_
_geom_bond_atom_site_label_1
_geom_bond_atom_site_label_2
_geom_bond_distance
_geom_bond_site_symmetry_2
Na0 O37 2.369141 1_555
Na0 O36 2.391001 1_655
Na0 O38 2.467384 1_665
Na0 O43 2.597615 1_665
Na0 O44 2.611320 1_555
Na0 O42 2.698801 1_565
Na1 O39 2.369141 1_555
Na1 O40 2.391001 1_545
Na1 O41 2.467384 1_445
Na1 O45 2.597615 1_446
Na1 O47 2.611320 1_556
Na1 O46 2.698801 1_456
Na2 O49 2.369141 1_555
Na2 O48 2.391001 1_555
Na2 O50 2.467384 1_555
Na2 O55 2.597615 1_555
Na2 O56 2.611320 1_555
Na2 O54 2.698801 1_555
Na3 O51 2.369141 1_555
Na3 O52 2.391001 1_555
Na3 O53 2.467384 1_555
Na3 O57 2.597615 1_555
Na3 O59 2.611320 1_555
Na3 O58 2.698801 1_555
Na4 O61 2.369141 1_555
Na4 O60 2.391001 1_555
Na4 O62 2.467384 1_555
Na4 O67 2.597615 1_555
Na4 O68 2.611320 1_555
Na4 O66 2.698801 1_555
Na5 O63 2.369141 1_555
Na5 O64 2.391001 1_555
Na5 O65 2.467384 1_555
Na5 O69 2.597615 1_555
Na5 O71 2.611320 1_555
Na5 O70 2.698801 1_555
Na6 O52 2.343465 1_555
Na6 O53 2.407204 1_555
Na6 O67 2.431679 1_545
Na6 O16 2.469430 1_555
Na6 O66 2.676939 1_545
Na6 O31 2.770071 1_545
Na6 O2 2.829089 1_555
Na6 O9 2.942416 1_545
Na7 O51 2.360714 1_555
Na7 O66 2.465601 1_655
Na7 O52 2.479104 1_555
Na7 O68 2.489617 1_655
Na7 O15 2.492277 1_555
Na7 O30 2.654599 1_655
Na7 O1 2.916688 1_555
Na7 O11 2.975839 1_655
Na8 O48 2.343465 1_555
Na8 O50 2.407204 1_555
Na8 O69 2.431679 1_655
Na8 O12 2.469430 1_555
Na8 O70 2.676939 1_655
Na8 O33 2.770071 1_655
Na8 O5 2.829089 1_555
Na8 O7 2.942416 1_655
Na9 O49 2.360714 1_555
Na9 O70 2.465601 1_545
Na9 O48 2.479105 1_555
Na9 O71 2.489617 1_545
Na9 O13 2.492277 1_555
Na9 O34 2.654599 1_545
Na9 O3 2.916688 1_555
Na9 O8 2.975839 1_545
Na10 O64 2.343470 1_555
Na10 O65 2.407219 1_555
Na10 O43 2.431679 1_555
Na10 O28 2.469415 1_555
Na10 O42 2.676939 1_455
Na10 O7 2.770071 1_555
Na10 O14 2.829089 1_555
Na10 O21 2.942416 1_555
Na11 O63 2.360724 1_555
Na11 O42 2.465601 1_565
Na11 O64 2.479096 1_555
Na11 O44 2.489617 1_555
Na11 O27 2.492256 1_555
Na11 O6 2.654599 1_555
Na11 O13 2.916688 1_565
Na11 O23 2.975839 1_565
Na12 O60 2.343470 1_555
Na12 O62 2.407219 1_555
Na12 O45 2.431679 1_555
Na12 O24 2.469415 1_554
Na12 O46 2.676939 1_565
Na12 O9 2.770071 1_555
Na12 O17 2.829089 1_555
Na12 O19 2.942416 1_555
Na13 O61 2.360724 1_555
Na13 O46 2.465601 1_455
Na13 O60 2.479096 1_555
Na13 O47 2.489617 1_555
Na13 O25 2.492256 1_554
Na13 O10 2.654599 1_555
Na13 O15 2.916688 1_455
Na13 O20 2.975839 1_455
Na14 O40 2.343465 1_655
Na14 O41 2.407204 1_555
Na14 O55 2.431687 1_555
Na14 O4 2.469430 1_555
Na14 O54 2.676930 1_555
Na14 O19 2.770051 1_556
Na14 O26 2.829089 1_655
Na14 O33 2.942416 1_655
Na15 O39 2.360714 1_555
Na15 O54 2.465605 1_555
Na15 O40 2.479104 1_545
Na15 O56 2.489632 1_555
Na15 O3 2.492277 1_555
Na15 O18 2.654585 1_556
Na15 O25 2.916688 1_555
Na15 O35 2.975839 1_555
Na16 O36 2.343465 1_545
Na16 O38 2.407204 1_555
Na16 O57 2.431687 1_555
Na16 O0 2.469430 1_555
Na16 O58 2.676930 1_555
Na16 O21 2.770051 1_555
Na16 O29 2.829089 1_545
Na16 O31 2.942416 1_545
Na17 O37 2.360714 1_555
Na17 O58 2.465605 1_555
Na17 O36 2.479105 1_655
Na17 O59 2.489632 1_555
Na17 O1 2.492277 1_555
Na17 O22 2.654585 1_555
Na17 O27 2.916688 1_555
Na17 O32 2.975839 1_555
Nb0 O6 1.948598 1_555
Nb0 O8 1.972406 1_655
Nb0 O7 1.979284 1_665
Nb0 O44 2.005662 1_555
Nb0 O43 2.038706 1_665
Nb0 O42 2.108168 1_565
Nb1 O10 1.948598 1_555
Nb1 O11 1.972406 1_545
Nb1 O9 1.979284 1_445
Nb1 O47 2.005662 1_555
Nb1 O45 2.038706 1_445
Nb1 O46 2.108169 1_455
Nb2 O18 1.948598 1_556
Nb2 O20 1.972406 1_556
Nb2 O19 1.979284 1_556
Nb2 O56 2.005662 1_555
Nb2 O55 2.038706 1_555
Nb2 O54 2.108168 1_555
Nb3 O22 1.948598 1_555
Nb3 O23 1.972406 1_555
Nb3 O21 1.979284 1_555
Nb3 O59 2.005662 1_555
Nb3 O57 2.038706 1_555
Nb3 O58 2.108169 1_555
Nb4 O30 1.948598 1_555
Nb4 O32 1.972406 1_555
Nb4 O31 1.979284 1_555
Nb4 O68 2.005662 1_555
Nb4 O67 2.038706 1_555
Nb4 O66 2.108168 1_555
Nb5 O34 1.948598 1_555
Nb5 O35 1.972406 1_555
Nb5 O33 1.979284 1_555
Nb5 O71 2.005662 1_555
Nb5 O69 2.038706 1_555
Nb5 O70 2.108169 1_555
Ga0 O2 1.869383 1_565
Ga0 O1 1.924496 1_555
Ga0 O37 1.967637 1_555
Ga0 O36 2.019943 1_655
Ga0 O0 2.122164 1_665
Ga0 O38 2.207858 1_665
Ga1 O5 1.869383 1_455
Ga1 O3 1.924496 1_555
Ga1 O39 1.967637 1_555
Ga1 O40 2.019943 1_545
Ga1 O4 2.122164 1_445
Ga1 O41 2.207858 1_445
Ga2 O14 1.869383 1_555
Ga2 O13 1.924496 1_555
Ga2 O49 1.967637 1_555
Ga2 O48 2.019943 1_555
Ga2 O12 2.122164 1_555
Ga2 O50 2.207858 1_555
Ga3 O17 1.869383 1_555
Ga3 O15 1.924496 1_555
Ga3 O51 1.967637 1_555
Ga3 O52 2.019943 1_555
Ga3 O16 2.122164 1_555
Ga3 O53 2.207858 1_555
Ga4 O26 1.869383 1_554
Ga4 O25 1.924496 1_554
Ga4 O61 1.967637 1_555
Ga4 O60 2.019943 1_555
Ga4 O24 2.122164 1_554
Ga4 O62 2.207858 1_555
Ga5 O29 1.869383 1_555
Ga5 O27 1.924496 1_555
Ga5 O63 1.967637 1_555
Ga5 O64 2.019943 1_555
Ga5 O28 2.122164 1_555
Ga5 O65 2.207858 1_555
O0 P0 1.516509 1_555
O1 Si0 1.616932 1_555
O2 Si1 1.595531 1_555
O3 Si2 1.616932 1_555
O4 P1 1.516509 1_555
O5 Si3 1.595531 1_555
O6 Si3 1.668298 1_565
O7 Si2 1.680395 1_555
O8 P1 1.579832 1_455
O9 Si0 1.680395 1_555
O10 Si1 1.668298 1_455
O11 P0 1.579832 1_565
O12 P2 1.516509 1_555
O13 Si4 1.616932 1_555
O14 Si5 1.595531 1_555
O15 Si6 1.616932 1_555
O16 P3 1.516509 1_555
O17 Si7 1.595531 1_555
O18 Si7 1.668298 1_555
O19 Si6 1.680395 1_555
O20 P3 1.579832 1_555
O21 Si4 1.680395 1_555
O22 Si5 1.668298 1_555
O23 P2 1.579832 1_555
O24 P4 1.516509 1_555
O25 Si8 1.616932 1_555
O26 Si9 1.595531 1_555
O27 Si10 1.616932 1_555
O28 P5 1.516509 1_555
O29 Si11 1.595531 1_555
O30 Si11 1.668298 1_555
O31 Si10 1.680395 1_555
O32 P5 1.579832 1_555
O33 Si8 1.680395 1_555
O34 Si9 1.668298 1_555
O35 P4 1.579832 1_555
O36 Si11 1.635197 1_555
O37 Si10 1.612010 1_555
O38 P5 1.519312 1_555
O39 Si8 1.612010 1_555
O40 Si9 1.635197 1_555
O41 P4 1.519312 1_555
O42 P2 1.587897 1_555
O43 Si4 1.662867 1_555
O44 Si5 1.664229 1_555
O45 Si6 1.662867 1_555
O46 P3 1.587897 1_555
O47 Si7 1.664229 1_555
O48 Si3 1.635197 1_555
O49 Si2 1.612010 1_555
O50 P1 1.519312 1_555
O51 Si0 1.612010 1_555
O52 Si1 1.635197 1_555
O53 P0 1.519312 1_555
O54 P4 1.587911 1_555
O55 Si8 1.662852 1_655
O56 Si9 1.664225 1_545
O57 Si10 1.662852 1_545
O58 P5 1.587911 1_555
O59 Si11 1.664225 1_655
O60 Si7 1.635209 1_555
O61 Si6 1.611995 1_455
O62 P3 1.519306 1_565
O63 Si4 1.611995 1_565
O64 Si5 1.635210 1_555
O65 P2 1.519306 1_455
O66 P0 1.587897 1_565
O67 Si0 1.662867 1_555
O68 Si1 1.664229 1_455
O69 Si2 1.662867 1_555
O70 P1 1.587897 1_455
O71 Si3 1.664229 1_565
