# generated using pymatgen
data_MgCu2WS4
_symmetry_space_group_name_H-M   'P 1'
_cell_length_a   5.41513865
_cell_length_b   5.41739107
_cell_length_c   7.38159341
_cell_angle_alpha   110.96578444
_cell_angle_beta   111.69257428
_cell_angle_gamma   90.49761162
_symmetry_Int_Tables_number   1
_chemical_formula_structural   MgCu2WS4
_chemical_formula_sum   'Mg1 Cu2 W1 S4'
_cell_volume   185.39353967
_cell_formula_units_Z   1
loop_
 _symmetry_equiv_pos_site_id
 _symmetry_equiv_pos_as_xyz
  1  'x, y, z'
loop_
 _atom_site_type_symbol
 _atom_site_label
 _atom_site_symmetry_multiplicity
 _atom_site_fract_x
 _atom_site_fract_y
 _atom_site_fract_z
 _atom_site_occupancy
  Mg  Mg0  1  0.73766800  0.74608900  0.48357200  1
  Cu  Cu0  1  0.49395600  0.99468200  0.98848600  1
  Cu  Cu1  1  0.99388200  0.49448500  0.98822400  1
  W  W0  1  0.01448200  0.01479200  0.02945000  1
  S  S0  1  0.84670800  0.84345300  0.20597000  1
  S  S1  1  0.36254800  0.35953300  0.20619500  1
  S  S2  1  0.10114100  0.66825700  0.76929200  1
  S  S3  1  0.66390200  0.10489900  0.76881000  1
loop_
_geom_bond_atom_site_label_1
_geom_bond_atom_site_label_2
_geom_bond_distance
_geom_bond_site_symmetry_2
Mg0 S3 2.465269 1_565
Mg0 S2 2.466175 1_655
Mg0 S1 2.546951 1_555
Mg0 S0 2.547230 1_555
Cu0 S1 2.364821 1_566
Cu0 S0 2.366159 1_556
Cu0 S2 2.369098 1_555
Cu0 S3 2.370526 1_565
Cu0 W0 2.718363 1_666
Cu0 W0 2.721474 1_566
Cu1 S0 2.364577 1_556
Cu1 S1 2.366723 1_656
Cu1 S2 2.368196 1_655
Cu1 S3 2.370520 1_555
Cu1 W0 2.721043 1_656
Cu1 W0 2.721353 1_666
S0 W0 2.260703 1_665
S1 W0 2.262731 1_555
S2 W0 2.352438 1_566
S3 W0 2.352014 1_656
