# generated using pymatgen
data_MgTe4Mo3W(SeS)2
_symmetry_space_group_name_H-M   'P 1'
_cell_length_a   3.39941200
_cell_length_b   3.39923261
_cell_length_c   45.55266002
_cell_angle_alpha   90.00382794
_cell_angle_beta   89.99825597
_cell_angle_gamma   119.99898180
_symmetry_Int_Tables_number   1
_chemical_formula_structural   MgTe4Mo3W(SeS)2
_chemical_formula_sum   'Mg1 Te4 Mo3 W1 Se2 S2'
_cell_volume   455.86213170
_cell_formula_units_Z   1
loop_
 _symmetry_equiv_pos_site_id
 _symmetry_equiv_pos_as_xyz
  1  'x, y, z'
loop_
 _atom_site_type_symbol
 _atom_site_label
 _atom_site_symmetry_multiplicity
 _atom_site_fract_x
 _atom_site_fract_y
 _atom_site_fract_z
 _atom_site_occupancy
  Mg  Mg0  1  0.00001000  0.99993800  0.55137900  1
  Te  Te0  1  0.33359200  0.66714800  0.70579300  1
  Te  Te1  1  0.66655400  0.33307800  0.05277000  1
  Te  Te2  1  0.66643800  0.33299100  0.13508600  1
  Te  Te3  1  0.33356500  0.66697000  0.62284700  1
  Mo  Mo0  1  0.33313800  0.66641700  0.09392100  1
  Mo  Mo1  1  0.33322900  0.66647600  0.46244600  1
  Mo  Mo2  1  0.66673600  0.33341600  0.28214600  1
  W  W0  1  0.66691100  0.33363400  0.66446400  1
  Se  Se0  1  0.33339800  0.66681300  0.31835500  1
  Se  Se1  1  0.33336900  0.66670500  0.24595700  1
  S  S0  1  0.66650300  0.33316600  0.42981200  1
  S  S1  1  0.66655600  0.33324800  0.49585600  1
loop_
_geom_bond_atom_site_label_1
_geom_bond_atom_site_label_2
_geom_bond_distance
_geom_bond_site_symmetry_2
Te0 W0 2.719261 1_565
Te0 W0 2.719665 1_455
Te0 W0 2.719857 1_555
Te3 W0 2.728575 1_565
Te3 W0 2.728715 1_455
Te3 W0 2.728787 1_555
Mo0 Te1 2.713852 1_455
Mo0 Te1 2.714026 1_565
Mo0 Te1 2.714085 1_555
Mo0 Te2 2.714120 1_565
Mo0 Te2 2.714548 1_455
Mo0 Te2 2.714616 1_555
Mo1 S0 2.461778 1_555
Mo1 S0 2.462147 1_565
Mo1 S0 2.462239 1_455
Mo1 S1 2.483350 1_555
Mo1 S1 2.483626 1_455
Mo1 S1 2.483698 1_565
Mo2 Se1 2.563061 1_655
Mo2 Se1 2.563078 1_545
Mo2 Se1 2.563117 1_555
Mo2 Se0 2.563571 1_545
Mo2 Se0 2.563704 1_655
Mo2 Se0 2.563739 1_555
