# generated using pymatgen
data_Ta2Se8I
_symmetry_space_group_name_H-M   'P 1'
_cell_length_a   9.44931485
_cell_length_b   9.44962847
_cell_length_c   9.42223304
_cell_angle_alpha   117.86823761
_cell_angle_beta   118.01311070
_cell_angle_gamma   93.76309224
_symmetry_Int_Tables_number   1
_chemical_formula_structural   Ta2Se8I
_chemical_formula_sum   'Ta4 Se16 I2'
_cell_volume   611.21773128
_cell_formula_units_Z   2
loop_
 _symmetry_equiv_pos_site_id
 _symmetry_equiv_pos_as_xyz
  1  'x, y, z'
loop_
 _atom_site_type_symbol
 _atom_site_label
 _atom_site_symmetry_multiplicity
 _atom_site_fract_x
 _atom_site_fract_y
 _atom_site_fract_z
 _atom_site_occupancy
  Ta  Ta0  1  0.25096119  0.75102079  0.50002547  1
  Ta  Ta1  1  0.74909753  0.24918199  0.50008024  1
  Ta  Ta2  1  0.00580313  0.50587270  0.50007164  1
  Ta  Ta3  1  0.49462092  0.99465324  0.50003837  1
  Se  Se0  1  0.34403734  0.67618546  0.75812894  1
  Se  Se1  1  0.91808808  0.58576495  0.24177396  1
  Se  Se2  1  0.32458143  0.65689712  0.24217030  1
  Se  Se3  1  0.58633453  0.33863598  0.66481849  1
  Se  Se4  1  0.67391030  0.92171710  0.33545229  1
  Se  Se5  1  0.66129036  0.41334566  0.33533335  1
  Se  Se6  1  0.19484350  -0.00109821  0.43507422  1
  Se  Se7  1  0.00019280  0.56589134  0.80253895  1
  Se  Se8  1  0.76338362  0.19783898  0.19767137  1
  Se  Se9  1  0.43332568  -0.00059900  0.19640126  1
  Se  Se10  1  0.80299435  0.23699027  0.80368879  1
  Se  Se11  1  0.56374992  0.75988435  0.56495104  1
  Se  Se12  1  0.00204320  0.80489938  0.56422232  1
  Se  Se13  1  0.24061274  0.43781044  0.43582385  1
  Se  Se14  1  0.41475841  0.08242701  0.75785924  1
  Se  Se15  1  0.07798514  0.32598964  0.66466315  1
  I  I0  1  0.84440146  0.84369942  -0.00001567  1
  I  I1  1  0.15298437  0.15299238  -0.00077257  1
loop_
_geom_bond_atom_site_label_1
_geom_bond_atom_site_label_2
_geom_bond_distance
_geom_bond_site_symmetry_2
Se0 Se13 2.404053 1_555
Se0 Ta0 2.620700 1_555
Se0 Ta2 2.661533 1_555
Se1 Se12 2.405533 1_655
Se1 Ta0 2.620412 1_655
Se1 Ta2 2.661772 1_655
Se2 Ta0 2.612756 1_555
Se2 Ta3 2.661158 1_555
Se3 Ta1 2.583760 1_555
Se3 Ta3 2.715814 1_545
Se4 Se9 2.396655 1_565
Se4 Ta1 2.583631 1_565
Se4 Ta3 2.715151 1_555
Se5 Se8 2.392510 1_555
Se5 Ta1 2.591301 1_555
Se5 Ta2 2.717081 1_655
Se6 Ta3 2.609518 1_545
Se6 Ta0 2.709398 1_545
Se7 Ta2 2.661069 1_555
Se7 Ta1 2.729594 1_455
Se8 Ta2 2.660578 1_655
Se8 Ta1 2.729471 1_555
Se9 Ta3 2.662578 1_545
Se9 Ta1 2.720918 1_555
Se10 Se3 2.396415 1_555
Se10 Ta3 2.662400 1_545
Se10 Ta1 2.720910 1_555
Se11 Se2 2.406667 1_555
Se11 Ta3 2.608806 1_555
Se11 Ta0 2.708916 1_555
Se12 Ta2 2.605331 1_555
Se12 Ta0 2.713524 1_555
Se13 Ta2 2.605411 1_555
Se13 Ta0 2.714421 1_555
Se14 Se6 2.407256 1_555
Se14 Ta0 2.612266 1_545
Se14 Ta3 2.660677 1_545
Se15 Se7 2.393685 1_555
Se15 Ta1 2.591222 1_455
Se15 Ta2 2.717115 1_555
I0 Se6 3.303385 1_665
I0 Se11 3.307578 1_554
I0 Se7 3.321717 1_654
I0 Se8 3.332100 1_565
I1 Se12 3.307907 1_544
I1 Se10 3.309081 1_454
I1 Se9 3.313296 1_555
I1 Se13 3.317994 1_555
