# generated using pymatgen
data_EuSbAu
_symmetry_space_group_name_H-M   'P 1'
_cell_length_a   4.69551121
_cell_length_b   4.69551186
_cell_length_c   8.48898125
_cell_angle_alpha   90.00000000
_cell_angle_beta   90.00000000
_cell_angle_gamma   120.00000254
_symmetry_Int_Tables_number   1
_chemical_formula_structural   EuSbAu
_chemical_formula_sum   'Eu2 Sb2 Au2'
_cell_volume   162.08843102
_cell_formula_units_Z   2
loop_
 _symmetry_equiv_pos_site_id
 _symmetry_equiv_pos_as_xyz
  1  'x, y, z'
loop_
 _atom_site_type_symbol
 _atom_site_label
 _atom_site_symmetry_multiplicity
 _atom_site_fract_x
 _atom_site_fract_y
 _atom_site_fract_z
 _atom_site_occupancy
  Eu  Eu0  1  -0.00000000  -0.00000000  0.50000000  1
  Eu  Eu1  1  -0.00000000  -0.00000000  -0.00000000  1
  Sb  Sb0  1  0.66666700  0.33333300  0.74999732  1
  Sb  Sb1  1  0.33333300  0.66666700  0.25000268  1
  Au  Au0  1  0.33333300  0.66666700  0.74999239  1
  Au  Au1  1  0.66666700  0.33333300  0.25000761  1
loop_
_geom_bond_atom_site_label_1
_geom_bond_atom_site_label_2
_geom_bond_distance
_geom_bond_site_symmetry_2
Eu0 Sb0 3.442832 1_455
Eu0 Sb1 3.442832 1_545
Eu0 Sb1 3.442835 1_445
Eu0 Sb0 3.442835 1_555
Eu0 Sb1 3.442835 1_555
Eu0 Sb0 3.442835 1_445
Eu1 Sb0 3.442860 1_454
Eu1 Sb1 3.442860 1_545
Eu1 Sb1 3.442863 1_445
Eu1 Sb0 3.442863 1_554
Eu1 Sb1 3.442863 1_555
Eu1 Sb0 3.442863 1_444
Au0 Sb0 2.710952 1_455
Au0 Sb0 2.710952 1_565
Au0 Sb0 2.710960 1_555
Au0 Eu0 3.442806 1_565
Au0 Eu0 3.442809 1_665
Au0 Eu0 3.442809 1_555
Au0 Eu1 3.442886 1_566
Au0 Eu1 3.442889 1_666
Au0 Eu1 3.442889 1_556
Au1 Sb1 2.710952 1_655
Au1 Sb1 2.710952 1_545
Au1 Sb1 2.710960 1_555
Au1 Eu0 3.442806 1_655
Au1 Eu0 3.442809 1_555
Au1 Eu0 3.442809 1_665
Au1 Eu1 3.442886 1_655
Au1 Eu1 3.442889 1_555
Au1 Eu1 3.442889 1_665
