# generated using pymatgen
data_MgZn2(SbO3)4
_symmetry_space_group_name_H-M   'P 1'
_cell_length_a   4.87164167
_cell_length_b   4.79976412
_cell_length_c   10.39419000
_cell_angle_alpha   90.00000000
_cell_angle_beta   90.00000000
_cell_angle_gamma   87.04146369
_symmetry_Int_Tables_number   1
_chemical_formula_structural   MgZn2(SbO3)4
_chemical_formula_sum   'Mg1 Zn2 Sb4 O12'
_cell_volume   242.72060548
_cell_formula_units_Z   1
loop_
 _symmetry_equiv_pos_site_id
 _symmetry_equiv_pos_as_xyz
  1  'x, y, z'
loop_
 _atom_site_type_symbol
 _atom_site_label
 _atom_site_symmetry_multiplicity
 _atom_site_fract_x
 _atom_site_fract_y
 _atom_site_fract_z
 _atom_site_occupancy
  Mg  Mg0  1  0.50000000  0.00000000  0.42628500  1
  Zn  Zn0  1  0.00000000  0.00000000  0.98238700  1
  Zn  Zn1  1  0.50000000  0.50000000  0.56727900  1
  Sb  Sb0  1  0.50000000  0.50000000  0.84607600  1
  Sb  Sb1  1  0.00000000  0.00000000  0.27965300  1
  Sb  Sb2  1  0.50000000  0.50000000  0.14842000  1
  Sb  Sb3  1  0.00000000  0.00000000  0.68209600  1
  O  O0  1  0.71212400  0.69762200  0.70126600  1
  O  O1  1  0.28787600  0.30237800  0.70126600  1
  O  O2  1  0.65756300  0.72339500  0.29211000  1
  O  O3  1  0.17475400  0.77856000  0.13789400  1
  O  O4  1  0.82524600  0.22144000  0.13789400  1
  O  O5  1  0.80110300  0.19603300  0.83121300  1
  O  O6  1  0.32585400  0.30699800  0.99472300  1
  O  O7  1  0.22790000  0.81967900  0.53741000  1
  O  O8  1  0.77210000  0.18032100  0.53741000  1
  O  O9  1  0.67414600  0.69300200  0.99472300  1
  O  O10  1  0.34243700  0.27660500  0.29211000  1
  O  O11  1  0.19889700  0.80396700  0.83121300  1
loop_
_geom_bond_atom_site_label_1
_geom_bond_atom_site_label_2
_geom_bond_distance
_geom_bond_site_symmetry_2
Mg0 O8 1.989677 1_555
Mg0 O7 1.989677 1_545
Mg0 O2 2.047351 1_545
Mg0 O10 2.047351 1_555
O0 Zn1 2.002095 1_555
O0 Sb3 2.079186 1_665
O0 Sb0 2.081918 1_555
O1 Zn1 2.002095 1_555
O1 Sb3 2.079186 1_555
O1 Sb0 2.081918 1_555
O2 Sb2 2.013585 1_555
O2 Sb1 2.188837 1_665
O3 Sb1 1.982967 1_565
O3 Sb2 2.022745 1_555
O3 Zn0 2.091338 1_564
O4 Sb1 1.982967 1_655
O4 Sb2 2.022745 1_555
O4 Zn0 2.091338 1_654
O5 Sb0 2.020703 1_555
O5 Sb3 2.032836 1_655
O5 Zn0 2.049185 1_655
O6 Sb0 2.011528 1_555
O6 Sb2 2.052122 1_556
O6 Zn0 2.224665 1_555
O7 Zn1 1.999478 1_555
O7 Sb3 2.035741 1_565
O8 Zn1 1.999478 1_555
O8 Sb3 2.035741 1_655
O9 Sb0 2.011528 1_555
O9 Sb2 2.052122 1_556
O9 Zn0 2.224665 1_665
O10 Sb2 2.013585 1_555
O10 Sb1 2.188837 1_555
O11 Sb0 2.020703 1_555
O11 Sb3 2.032836 1_565
O11 Zn0 2.049185 1_565
