# generated using pymatgen
data_Na2TeO4
_symmetry_space_group_name_H-M   'P 1'
_cell_length_a   5.20042247
_cell_length_b   5.70646932
_cell_length_c   12.12743457
_cell_angle_alpha   90.00000000
_cell_angle_beta   90.00000000
_cell_angle_gamma   90.00000000
_symmetry_Int_Tables_number   1
_chemical_formula_structural   Na2TeO4
_chemical_formula_sum   'Na8 Te4 O16'
_cell_volume   359.89437015
_cell_formula_units_Z   4
loop_
 _symmetry_equiv_pos_site_id
 _symmetry_equiv_pos_as_xyz
  1  'x, y, z'
loop_
 _atom_site_type_symbol
 _atom_site_label
 _atom_site_symmetry_multiplicity
 _atom_site_fract_x
 _atom_site_fract_y
 _atom_site_fract_z
 _atom_site_occupancy
  Na  Na0  1  0.75000000  0.00000000  0.64195247  1
  Na  Na1  1  0.25000000  0.50000000  0.85804753  1
  Na  Na2  1  0.25000000  0.00000000  0.35804753  1
  Na  Na3  1  0.75000000  0.50000000  0.14195247  1
  Na  Na4  1  0.75000000  0.00000000  0.22480962  1
  Na  Na5  1  0.25000000  0.50000000  0.27519038  1
  Na  Na6  1  0.25000000  0.00000000  0.77519038  1
  Na  Na7  1  0.75000000  0.50000000  0.72480962  1
  Te  Te0  1  0.75000000  0.00000000  0.92827164  1
  Te  Te1  1  0.25000000  0.50000000  0.57172836  1
  Te  Te2  1  0.25000000  0.00000000  0.07172836  1
  Te  Te3  1  0.75000000  0.50000000  0.42827164  1
  O  O0  1  0.11115481  0.29695648  0.67443133  1
  O  O1  1  0.61115481  0.20304352  0.82556867  1
  O  O2  1  0.88884519  0.79695648  0.82556867  1
  O  O3  1  0.38884519  0.70304352  0.67443133  1
  O  O4  1  0.88884519  0.70304352  0.32556867  1
  O  O5  1  0.38884519  0.79695648  0.17443133  1
  O  O6  1  0.11115481  0.20304352  0.17443133  1
  O  O7  1  0.61115481  0.29695648  0.32556867  1
  O  O8  1  0.07183300  0.32027006  0.44945666  1
  O  O9  1  0.57183300  0.17972994  0.05054334  1
  O  O10  1  0.92816700  0.82027006  0.05054334  1
  O  O11  1  0.42816700  0.67972994  0.44945666  1
  O  O12  1  0.57183300  0.32027006  0.55054334  1
  O  O13  1  0.07183300  0.17972994  0.94945666  1
  O  O14  1  0.42816700  0.82027006  0.94945666  1
  O  O15  1  0.92816700  0.67972994  0.55054334  1
loop_
_geom_bond_atom_site_label_1
_geom_bond_atom_site_label_2
_geom_bond_distance
_geom_bond_site_symmetry_2
Na0 O15 2.329710 1_545
Na0 O12 2.329710 1_555
Na0 O0 2.560117 1_655
Na0 O3 2.560117 1_545
Na0 O2 2.611985 1_545
Na0 O1 2.611985 1_555
Na1 O13 2.329710 1_555
Na1 O14 2.329710 1_555
Na1 O2 2.560117 1_455
Na1 O1 2.560117 1_555
Na1 O3 2.611985 1_555
Na1 O0 2.611985 1_555
Na2 O11 2.329710 1_545
Na2 O8 2.329710 1_555
Na2 O7 2.560117 1_555
Na2 O4 2.560117 1_445
Na2 O5 2.611985 1_545
Na2 O6 2.611985 1_555
Na3 O10 2.329710 1_555
Na3 O9 2.329710 1_555
Na3 O6 2.560117 1_655
Na3 O5 2.560117 1_555
Na3 O4 2.611985 1_555
Na3 O7 2.611985 1_555
Na4 O7 2.210452 1_555
Na4 O4 2.210452 1_545
Na4 O6 2.289813 1_655
Na4 O5 2.289813 1_545
Na4 O10 2.525244 1_545
Na4 O9 2.525244 1_555
Na5 O6 2.210452 1_555
Na5 O5 2.210452 1_555
Na5 O7 2.289813 1_555
Na5 O4 2.289813 1_455
Na5 O11 2.525244 1_555
Na5 O8 2.525244 1_555
Na6 O3 2.210452 1_545
Na6 O0 2.210452 1_555
Na6 O1 2.289813 1_555
Na6 O2 2.289813 1_445
Na6 O14 2.525244 1_545
Na6 O13 2.525244 1_555
Na7 O1 2.210452 1_555
Na7 O2 2.210452 1_555
Na7 O0 2.289813 1_655
Na7 O3 2.289813 1_555
Na7 O15 2.525244 1_555
Na7 O12 2.525244 1_555
O0 Te1 1.848022 1_555
O1 Te0 1.848022 1_555
O2 Te0 1.848022 1_565
O3 Te1 1.848022 1_555
O4 Te3 1.848022 1_555
O5 Te2 1.848022 1_565
O6 Te2 1.848022 1_555
O7 Te3 1.848022 1_555
O8 Te3 1.979665 1_455
O8 Te1 2.027118 1_555
O9 Te2 1.979665 1_555
O9 Te0 2.027118 1_554
O10 Te2 1.979665 1_665
O10 Te0 2.027118 1_564
O11 Te3 1.979665 1_555
O11 Te1 2.027118 1_555
O12 Te1 1.979665 1_555
O12 Te3 2.027118 1_555
O13 Te0 1.979665 1_455
O13 Te2 2.027118 1_556
O14 Te0 1.979665 1_565
O14 Te2 2.027118 1_566
O15 Te1 1.979665 1_655
O15 Te3 2.027118 1_555
