# generated using pymatgen
data_Ba2ErMgSbO6
_symmetry_space_group_name_H-M   'P 1'
_cell_length_a   7.40434463
_cell_length_b   7.40653285
_cell_length_c   7.40434424
_cell_angle_alpha   49.62141810
_cell_angle_beta   49.62738296
_cell_angle_gamma   49.62141915
_symmetry_Int_Tables_number   1
_chemical_formula_structural   Ba2ErMgSbO6
_chemical_formula_sum   'Ba2 Er1 Mg1 Sb1 O6'
_cell_volume   216.67884474
_cell_formula_units_Z   1
loop_
 _symmetry_equiv_pos_site_id
 _symmetry_equiv_pos_as_xyz
  1  'x, y, z'
loop_
 _atom_site_type_symbol
 _atom_site_label
 _atom_site_symmetry_multiplicity
 _atom_site_fract_x
 _atom_site_fract_y
 _atom_site_fract_z
 _atom_site_occupancy
  Ba  Ba0  1  0.72321390  0.72220458  0.72321390  1
  Ba  Ba1  1  0.17481883  0.17392518  0.17481883  1
  Er  Er0  1  0.99673760  0.99629952  0.99673760  1
  Mg  Mg0  1  0.40130131  0.40039399  0.40130131  1
  Sb  Sb0  1  0.55033411  0.55025709  0.55033411  1
  O  O0  1  0.28833340  0.75856559  0.75748472  1
  O  O1  1  0.22978352  0.75886392  0.22978352  1
  O  O2  1  0.75808104  0.28985960  0.75808104  1
  O  O3  1  0.22989693  0.22912647  0.75980665  1
  O  O4  1  0.75980665  0.22912647  0.22989693  1
  O  O5  1  0.75748472  0.75856559  0.28833340  1
loop_
_geom_bond_atom_site_label_1
_geom_bond_atom_site_label_2
_geom_bond_distance
_geom_bond_site_symmetry_2
Ba0 O2 2.886403 1_555
Ba0 O5 2.900306 1_555
Ba0 O0 2.900306 1_555
Ba0 O4 3.125415 1_556
Ba0 O3 3.125415 1_655
Ba0 O1 3.125943 1_556
Ba0 O1 3.125943 1_655
Ba0 O4 3.127135 1_565
Ba0 O3 3.127135 1_565
Ba1 O3 2.596315 1_554
Ba1 O4 2.596315 1_455
Ba1 O1 2.598896 1_545
Er0 O1 2.245354 1_656
Er0 O4 2.246268 1_566
Er0 O3 2.246268 1_665
Er0 O0 2.249650 1_655
Er0 O5 2.249650 1_556
Er0 O2 2.249845 1_565
Mg0 O3 1.903880 1_555
Mg0 O4 1.903880 1_555
Mg0 O1 1.904402 1_555
O0 Sb0 1.956952 1_555
O2 Sb0 1.956942 1_555
O5 Sb0 1.956953 1_555
