# generated using pymatgen
data_K3NaSi3(GeO6)2
_symmetry_space_group_name_H-M   'P 1'
_cell_length_a   9.07355459
_cell_length_b   9.07355428
_cell_length_c   21.81079688
_cell_angle_alpha   90.00000000
_cell_angle_beta   90.00000000
_cell_angle_gamma   120.00000116
_symmetry_Int_Tables_number   1
_chemical_formula_structural   K3NaSi3(GeO6)2
_chemical_formula_sum   'K18 Na6 Si18 Ge12 O72'
_cell_volume   1555.09547658
_cell_formula_units_Z   6
loop_
 _symmetry_equiv_pos_site_id
 _symmetry_equiv_pos_as_xyz
  1  'x, y, z'
loop_
 _atom_site_type_symbol
 _atom_site_label
 _atom_site_symmetry_multiplicity
 _atom_site_fract_x
 _atom_site_fract_y
 _atom_site_fract_z
 _atom_site_occupancy
  K  K0  1  0.64693195  -0.00000000  0.25000000  1
  K  K1  1  0.35306805  0.35306805  0.25000000  1
  K  K2  1  1.00000000  0.64693195  0.25000000  1
  K  K3  1  0.64693195  0.64693195  0.75000000  1
  K  K4  1  0.00000000  0.35306805  0.75000000  1
  K  K5  1  0.35306805  -0.00000000  0.75000000  1
  K  K6  1  0.31359895  0.33333300  0.58333300  1
  K  K7  1  0.01973505  0.68640105  0.58333300  1
  K  K8  1  0.66666700  0.98026495  0.58333300  1
  K  K9  1  0.31359895  0.98026495  0.08333300  1
  K  K10  1  0.66666700  0.68640105  0.08333300  1
  K  K11  1  0.01973505  0.33333300  0.08333300  1
  K  K12  1  0.98026495  0.66666700  0.91666700  1
  K  K13  1  0.68640105  0.01973505  0.91666700  1
  K  K14  1  0.33333300  0.31359895  0.91666700  1
  K  K15  1  0.98026495  0.31359895  0.41666700  1
  K  K16  1  0.33333300  0.01973505  0.41666700  1
  K  K17  1  0.68640105  0.66666700  0.41666700  1
  Na  Na0  1  -0.00000000  -0.00000000  0.50000000  1
  Na  Na1  1  -0.00000000  -0.00000000  -0.00000000  1
  Na  Na2  1  0.66666700  0.33333300  0.83333300  1
  Na  Na3  1  0.66666700  0.33333300  0.33333300  1
  Na  Na4  1  0.33333300  0.66666700  0.16666700  1
  Na  Na5  1  0.33333300  0.66666700  0.66666700  1
  Si  Si0  1  0.29089758  -0.00000000  0.25000000  1
  Si  Si1  1  0.70910242  0.70910242  0.25000000  1
  Si  Si2  1  0.00000000  0.29089758  0.25000000  1
  Si  Si3  1  0.29089758  0.29089758  0.75000000  1
  Si  Si4  1  1.00000000  0.70910242  0.75000000  1
  Si  Si5  1  0.70910242  -0.00000000  0.75000000  1
  Si  Si6  1  0.95756458  0.33333300  0.58333300  1
  Si  Si7  1  0.37576942  0.04243542  0.58333300  1
  Si  Si8  1  0.66666700  0.62423058  0.58333300  1
  Si  Si9  1  0.95756458  0.62423058  0.08333300  1
  Si  Si10  1  0.66666700  0.04243542  0.08333300  1
  Si  Si11  1  0.37576942  0.33333300  0.08333300  1
  Si  Si12  1  0.62423058  0.66666700  0.91666700  1
  Si  Si13  1  0.04243542  0.37576942  0.91666700  1
  Si  Si14  1  0.33333300  0.95756458  0.91666700  1
  Si  Si15  1  0.62423058  0.95756458  0.41666700  1
  Si  Si16  1  0.33333300  0.37576942  0.41666700  1
  Si  Si17  1  0.04243542  0.66666700  0.41666700  1
  Ge  Ge0  1  -0.00000000  -0.00000000  0.35135084  1
  Ge  Ge1  1  -0.00000000  -0.00000000  0.85135084  1
  Ge  Ge2  1  -0.00000000  -0.00000000  0.64864916  1
  Ge  Ge3  1  -0.00000000  -0.00000000  0.14864916  1
  Ge  Ge4  1  0.66666700  0.33333300  0.68468384  1
  Ge  Ge5  1  0.66666700  0.33333300  0.18468384  1
  Ge  Ge6  1  0.66666700  0.33333300  0.98198216  1
  Ge  Ge7  1  0.66666700  0.33333300  0.48198216  1
  Ge  Ge8  1  0.33333300  0.66666700  0.01801784  1
  Ge  Ge9  1  0.33333300  0.66666700  0.51801784  1
  Ge  Ge10  1  0.33333300  0.66666700  0.31531616  1
  Ge  Ge11  1  0.33333300  0.66666700  0.81531616  1
  O  O0  1  0.19820544  0.03411534  0.30915456  1
  O  O1  1  0.83590990  0.80179456  0.30915456  1
  O  O2  1  0.96588466  0.16409010  0.30915456  1
  O  O3  1  0.19820544  0.16409010  0.80915456  1
  O  O4  1  0.96588466  0.80179456  0.80915456  1
  O  O5  1  0.83590990  0.03411534  0.80915456  1
  O  O6  1  0.80179456  0.96588466  0.69084544  1
  O  O7  1  0.16409010  0.19820544  0.69084544  1
  O  O8  1  0.03411534  0.83590990  0.69084544  1
  O  O9  1  0.80179456  0.83590990  0.19084544  1
  O  O10  1  0.03411534  0.19820544  0.19084544  1
  O  O11  1  0.16409010  0.96588466  0.19084544  1
  O  O12  1  0.86487244  0.36744834  0.64248756  1
  O  O13  1  0.50257690  0.13512756  0.64248756  1
  O  O14  1  0.63255166  0.49742310  0.64248756  1
  O  O15  1  0.86487244  0.49742310  0.14248756  1
  O  O16  1  0.63255166  0.13512756  0.14248756  1
  O  O17  1  0.50257690  0.36744834  0.14248756  1
  O  O18  1  0.46846156  0.29921766  0.02417844  1
  O  O19  1  0.83075710  0.53153844  0.02417844  1
  O  O20  1  0.70078234  0.16924290  0.02417844  1
  O  O21  1  0.46846156  0.16924290  0.52417844  1
  O  O22  1  0.70078234  0.53153844  0.52417844  1
  O  O23  1  0.83075710  0.29921766  0.52417844  1
  O  O24  1  0.53153844  0.70078234  0.97582156  1
  O  O25  1  0.16924290  0.46846156  0.97582156  1
  O  O26  1  0.29921766  0.83075710  0.97582156  1
  O  O27  1  0.53153844  0.83075710  0.47582156  1
  O  O28  1  0.29921766  0.46846156  0.47582156  1
  O  O29  1  0.16924290  0.70078234  0.47582156  1
  O  O30  1  0.13512756  0.63255166  0.35751244  1
  O  O31  1  0.49742310  0.86487244  0.35751244  1
  O  O32  1  0.36744834  0.50257690  0.35751244  1
  O  O33  1  0.13512756  0.50257690  0.85751244  1
  O  O34  1  0.36744834  0.86487244  0.85751244  1
  O  O35  1  0.49742310  0.63255166  0.85751244  1
  O  O36  1  0.01744362  0.83570616  0.40980640  1
  O  O37  1  0.81826254  0.98255638  0.40980640  1
  O  O38  1  0.16429384  0.18173746  0.40980640  1
  O  O39  1  0.01744362  0.18173746  0.90980640  1
  O  O40  1  0.16429384  0.98255638  0.90980640  1
  O  O41  1  0.81826254  0.83570616  0.90980640  1
  O  O42  1  0.98255638  0.16429384  0.59019360  1
  O  O43  1  0.18173746  0.01744362  0.59019360  1
  O  O44  1  0.83570616  0.81826254  0.59019360  1
  O  O45  1  0.98255638  0.81826254  0.09019360  1
  O  O46  1  0.83570616  0.01744362  0.09019360  1
  O  O47  1  0.18173746  0.16429384  0.09019360  1
  O  O48  1  0.68411062  0.16903916  0.74313940  1
  O  O49  1  0.48492954  0.31588938  0.74313940  1
  O  O50  1  0.83096084  0.51507046  0.74313940  1
  O  O51  1  0.68411062  0.51507046  0.24313940  1
  O  O52  1  0.83096084  0.31588938  0.24313940  1
  O  O53  1  0.48492954  0.16903916  0.24313940  1
  O  O54  1  0.64922338  0.49762684  0.92352660  1
  O  O55  1  0.84840446  0.35077662  0.92352660  1
  O  O56  1  0.50237316  0.15159554  0.92352660  1
  O  O57  1  0.64922338  0.15159554  0.42352660  1
  O  O58  1  0.50237316  0.35077662  0.42352660  1
  O  O59  1  0.84840446  0.49762684  0.42352660  1
  O  O60  1  0.35077662  0.50237316  0.07647340  1
  O  O61  1  0.15159554  0.64922338  0.07647340  1
  O  O62  1  0.49762684  0.84840446  0.07647340  1
  O  O63  1  0.35077662  0.84840446  0.57647340  1
  O  O64  1  0.49762684  0.64922338  0.57647340  1
  O  O65  1  0.15159554  0.50237316  0.57647340  1
  O  O66  1  0.31588938  0.83096084  0.25686060  1
  O  O67  1  0.51507046  0.68411062  0.25686060  1
  O  O68  1  0.16903916  0.48492954  0.25686060  1
  O  O69  1  0.31588938  0.48492954  0.75686060  1
  O  O70  1  0.16903916  0.68411062  0.75686060  1
  O  O71  1  0.51507046  0.83096084  0.75686060  1
loop_
_geom_bond_atom_site_label_1
_geom_bond_atom_site_label_2
_geom_bond_distance
_geom_bond_site_symmetry_2
K0 O67 2.497979 1_545
K0 O52 2.497980 1_555
K0 O53 2.605797 1_555
K0 O66 2.605805 1_545
K0 O16 2.679366 1_555
K0 O31 2.679368 1_545
K0 O2 2.819214 1_555
K0 O9 2.819214 1_545
K1 O53 2.497987 1_555
K1 O68 2.497987 1_555
K1 O67 2.605805 1_555
K1 O51 2.605805 1_555
K1 O32 2.679370 1_555
K1 O17 2.679370 1_555
K1 O0 2.819214 1_555
K1 O10 2.819214 1_555
K2 O51 2.497979 1_555
K2 O66 2.497980 1_655
K2 O68 2.605797 1_655
K2 O52 2.605805 1_555
K2 O30 2.679366 1_655
K2 O15 2.679368 1_555
K2 O11 2.819214 1_655
K2 O1 2.819214 1_555
K3 O71 2.497987 1_555
K3 O50 2.497987 1_555
K3 O49 2.605805 1_555
K3 O69 2.605805 1_555
K3 O14 2.679370 1_555
K3 O35 2.679370 1_555
K3 O6 2.819214 1_555
K3 O4 2.819214 1_555
K4 O69 2.497979 1_555
K4 O48 2.497980 1_455
K4 O50 2.605797 1_455
K4 O70 2.605805 1_555
K4 O12 2.679366 1_455
K4 O33 2.679368 1_555
K4 O5 2.819214 1_455
K4 O7 2.819214 1_555
K5 O49 2.497979 1_555
K5 O70 2.497980 1_545
K5 O71 2.605797 1_545
K5 O48 2.605805 1_555
K5 O34 2.679366 1_545
K5 O13 2.679368 1_555
K5 O8 2.819214 1_545
K5 O3 2.819214 1_555
K6 O43 2.497979 1_555
K6 O64 2.497985 1_555
K6 O42 2.605805 1_455
K6 O65 2.605811 1_555
K6 O28 2.679354 1_555
K6 O7 2.679368 1_555
K6 O14 2.819214 1_555
K6 O21 2.819214 1_555
K7 O65 2.497970 1_555
K7 O44 2.497987 1_455
K7 O63 2.605795 1_555
K7 O43 2.605805 1_565
K7 O29 2.679345 1_555
K7 O8 2.679370 1_555
K7 O12 2.819214 1_455
K7 O22 2.819214 1_455
K8 O42 2.497980 1_565
K8 O63 2.497987 1_555
K8 O64 2.605796 1_555
K8 O44 2.605797 1_555
K8 O27 2.679349 1_555
K8 O6 2.679366 1_555
K8 O23 2.819214 1_565
K8 O13 2.819214 1_565
K9 O62 2.497970 1_555
K9 O47 2.497987 1_565
K9 O61 2.605795 1_555
K9 O45 2.605805 1_455
K9 O26 2.679345 1_554
K9 O11 2.679370 1_555
K9 O18 2.819214 1_565
K9 O16 2.819214 1_565
K10 O45 2.497979 1_555
K10 O60 2.497985 1_555
K10 O46 2.605805 1_565
K10 O62 2.605811 1_555
K10 O24 2.679354 1_554
K10 O9 2.679368 1_555
K10 O17 2.819214 1_555
K10 O19 2.819214 1_555
K11 O46 2.497980 1_455
K11 O61 2.497987 1_555
K11 O60 2.605796 1_555
K11 O47 2.605797 1_555
K11 O25 2.679349 1_554
K11 O10 2.679366 1_555
K11 O20 2.819214 1_455
K11 O15 2.819214 1_455
K12 O40 2.497980 1_655
K12 O55 2.497987 1_555
K12 O54 2.605796 1_555
K12 O41 2.605797 1_555
K12 O19 2.679349 1_556
K12 O4 2.679366 1_555
K12 O26 2.819214 1_655
K12 O33 2.819214 1_655
K13 O56 2.497970 1_555
K13 O41 2.497987 1_545
K13 O55 2.605795 1_555
K13 O39 2.605805 1_655
K13 O20 2.679345 1_556
K13 O5 2.679370 1_555
K13 O24 2.819214 1_545
K13 O34 2.819214 1_545
K14 O39 2.497979 1_555
K14 O54 2.497985 1_555
K14 O40 2.605805 1_545
K14 O56 2.605811 1_555
K14 O18 2.679354 1_556
K14 O3 2.679368 1_555
K14 O35 2.819214 1_555
K14 O25 2.819214 1_555
K15 O59 2.497970 1_555
K15 O38 2.497987 1_655
K15 O57 2.605795 1_555
K15 O37 2.605805 1_545
K15 O23 2.679345 1_555
K15 O2 2.679370 1_555
K15 O30 2.819214 1_655
K15 O28 2.819214 1_655
K16 O36 2.497980 1_545
K16 O57 2.497987 1_555
K16 O58 2.605796 1_555
K16 O38 2.605797 1_555
K16 O21 2.679349 1_555
K16 O0 2.679366 1_555
K16 O29 2.819214 1_545
K16 O31 2.819214 1_545
K17 O37 2.497979 1_555
K17 O58 2.497985 1_555
K17 O36 2.605805 1_655
K17 O59 2.605811 1_555
K17 O22 2.679354 1_555
K17 O1 2.679368 1_555
K17 O32 2.819214 1_555
K17 O27 2.819214 1_555
Na0 O38 2.520540 1_555
Na0 O44 2.520540 1_445
Na0 O42 2.520540 1_455
Na0 O36 2.520540 1_545
Na0 O43 2.520540 1_555
Na0 O37 2.520540 1_445
Na1 O39 2.520540 1_554
Na1 O45 2.520540 1_445
Na1 O41 2.520540 1_444
Na1 O47 2.520540 1_555
Na1 O40 2.520540 1_544
Na1 O46 2.520540 1_455
Na2 O56 2.520540 1_555
Na2 O50 2.520540 1_555
Na2 O48 2.520540 1_555
Na2 O54 2.520540 1_555
Na2 O55 2.520540 1_555
Na2 O49 2.520540 1_555
Na3 O51 2.520540 1_555
Na3 O57 2.520540 1_555
Na3 O59 2.520540 1_555
Na3 O53 2.520540 1_555
Na3 O52 2.520540 1_555
Na3 O58 2.520540 1_555
Na4 O68 2.520540 1_555
Na4 O62 2.520540 1_555
Na4 O66 2.520540 1_555
Na4 O60 2.520540 1_555
Na4 O67 2.520540 1_555
Na4 O61 2.520540 1_555
Na5 O63 2.520540 1_555
Na5 O69 2.520540 1_555
Na5 O71 2.520540 1_555
Na5 O65 2.520540 1_555
Na5 O70 2.520540 1_555
Na5 O64 2.520540 1_555
Ge0 O1 1.902756 1_445
Ge0 O2 1.902756 1_455
Ge0 O0 1.902756 1_555
Ge0 O38 2.027017 1_555
Ge0 O36 2.027017 1_545
Ge0 O37 2.027017 1_445
Ge1 O4 1.902756 1_445
Ge1 O3 1.902756 1_555
Ge1 O5 1.902756 1_455
Ge1 O39 2.027017 1_555
Ge1 O41 2.027017 1_445
Ge1 O40 2.027017 1_545
Ge2 O7 1.902756 1_555
Ge2 O8 1.902756 1_545
Ge2 O6 1.902756 1_445
Ge2 O44 2.027017 1_445
Ge2 O42 2.027017 1_455
Ge2 O43 2.027017 1_555
Ge3 O10 1.902756 1_555
Ge3 O9 1.902756 1_445
Ge3 O11 1.902756 1_545
Ge3 O45 2.027017 1_445
Ge3 O47 2.027017 1_555
Ge3 O46 2.027017 1_455
Ge4 O13 1.902756 1_555
Ge4 O14 1.902756 1_555
Ge4 O12 1.902756 1_555
Ge4 O50 2.027017 1_555
Ge4 O48 2.027017 1_555
Ge4 O49 2.027017 1_555
Ge5 O16 1.902756 1_555
Ge5 O15 1.902756 1_555
Ge5 O17 1.902756 1_555
Ge5 O51 2.027017 1_555
Ge5 O53 2.027017 1_555
Ge5 O52 2.027017 1_555
Ge6 O19 1.902756 1_556
Ge6 O20 1.902756 1_556
Ge6 O18 1.902756 1_556
Ge6 O56 2.027017 1_555
Ge6 O54 2.027017 1_555
Ge6 O55 2.027017 1_555
Ge7 O22 1.902756 1_555
Ge7 O21 1.902756 1_555
Ge7 O23 1.902756 1_555
Ge7 O57 2.027017 1_555
Ge7 O59 2.027017 1_555
Ge7 O58 2.027017 1_555
Ge8 O25 1.902756 1_554
Ge8 O26 1.902756 1_554
Ge8 O24 1.902756 1_554
Ge8 O62 2.027017 1_555
Ge8 O60 2.027017 1_555
Ge8 O61 2.027017 1_555
Ge9 O28 1.902756 1_555
Ge9 O27 1.902756 1_555
Ge9 O29 1.902756 1_555
Ge9 O63 2.027017 1_555
Ge9 O65 2.027017 1_555
Ge9 O64 2.027017 1_555
Ge10 O31 1.902756 1_555
Ge10 O32 1.902756 1_555
Ge10 O30 1.902756 1_555
Ge10 O68 2.027017 1_555
Ge10 O66 2.027017 1_555
Ge10 O67 2.027017 1_555
Ge11 O34 1.902756 1_555
Ge11 O33 1.902756 1_555
Ge11 O35 1.902756 1_555
Ge11 O69 2.027017 1_555
Ge11 O71 2.027017 1_555
Ge11 O70 2.027017 1_555
O0 Si0 1.651715 1_555
O1 Si1 1.651715 1_555
O2 Si2 1.651714 1_655
O3 Si3 1.651714 1_555
O4 Si4 1.651715 1_555
O5 Si5 1.651715 1_555
O6 Si5 1.651715 1_565
O7 Si3 1.651715 1_555
O8 Si4 1.651714 1_455
O9 Si1 1.651714 1_555
O10 Si2 1.651715 1_555
O11 Si0 1.651715 1_565
O12 Si6 1.651715 1_555
O13 Si7 1.651715 1_555
O14 Si8 1.651714 1_555
O15 Si9 1.651714 1_555
O16 Si10 1.651715 1_555
O17 Si11 1.651715 1_555
O18 Si11 1.651715 1_555
O19 Si9 1.651715 1_555
O20 Si10 1.651714 1_555
O21 Si7 1.651714 1_555
O22 Si8 1.651715 1_555
O23 Si6 1.651715 1_555
O24 Si12 1.651715 1_555
O25 Si13 1.651715 1_555
O26 Si14 1.651714 1_555
O27 Si15 1.651714 1_555
O28 Si16 1.651715 1_555
O29 Si17 1.651715 1_555
O30 Si17 1.651715 1_555
O31 Si15 1.651715 1_555
O32 Si16 1.651714 1_555
O33 Si13 1.651714 1_555
O34 Si14 1.651715 1_555
O35 Si12 1.651715 1_555
O36 Si17 1.665569 1_555
O37 Si15 1.665578 1_555
O38 Si16 1.665575 1_555
O39 Si13 1.665578 1_555
O40 Si14 1.665569 1_555
O41 Si12 1.665575 1_555
O42 Si6 1.665569 1_555
O43 Si7 1.665578 1_555
O44 Si8 1.665575 1_555
O45 Si9 1.665578 1_555
O46 Si10 1.665569 1_555
O47 Si11 1.665575 1_555
O48 Si5 1.665569 1_555
O49 Si3 1.665578 1_555
O50 Si4 1.665575 1_555
O51 Si1 1.665578 1_555
O52 Si2 1.665569 1_655
O53 Si0 1.665575 1_555
O54 Si12 1.665582 1_555
O55 Si13 1.665564 1_655
O56 Si14 1.665571 1_545
O57 Si15 1.665564 1_545
O58 Si16 1.665582 1_555
O59 Si17 1.665571 1_655
O60 Si11 1.665582 1_555
O61 Si9 1.665564 1_455
O62 Si10 1.665571 1_565
O63 Si7 1.665564 1_565
O64 Si8 1.665582 1_555
O65 Si6 1.665571 1_455
O66 Si0 1.665569 1_565
O67 Si1 1.665578 1_555
O68 Si2 1.665575 1_555
O69 Si3 1.665578 1_555
O70 Si4 1.665569 1_455
O71 Si5 1.665575 1_565
