# generated using pymatgen
data_MgFe6O11F
_symmetry_space_group_name_H-M   'P 1'
_cell_length_a   5.16245824
_cell_length_b   7.44104095
_cell_length_c   5.70147167
_cell_angle_alpha   98.77303468
_cell_angle_beta   97.50728815
_cell_angle_gamma   85.20976257
_symmetry_Int_Tables_number   1
_chemical_formula_structural   MgFe6O11F
_chemical_formula_sum   'Mg1 Fe6 O11 F1'
_cell_volume   214.14658486
_cell_formula_units_Z   1
loop_
 _symmetry_equiv_pos_site_id
 _symmetry_equiv_pos_as_xyz
  1  'x, y, z'
loop_
 _atom_site_type_symbol
 _atom_site_label
 _atom_site_symmetry_multiplicity
 _atom_site_fract_x
 _atom_site_fract_y
 _atom_site_fract_z
 _atom_site_occupancy
  Mg  Mg0  1  0.50402153  0.49683420  0.49668374  1
  Fe  Fe0  1  0.55917932  0.68682746  0.10151936  1
  Fe  Fe1  1  0.55032223  0.01010943  0.47178544  1
  Fe  Fe2  1  0.41632600  0.29525622  0.88405252  1
  Fe  Fe3  1  -0.00022204  0.67231973  0.67702523  1
  Fe  Fe4  1  0.98662138  0.31454125  0.32843433  1
  Fe  Fe5  1  0.98625266  0.99220431  0.00669549  1
  O  O0  1  0.87212106  0.44125319  0.62635300  1
  O  O1  1  0.85682369  0.76008062  0.97773788  1
  O  O2  1  0.83666964  0.08039046  0.29243735  1
  O  O3  1  0.65098912  0.08370354  0.80272794  1
  O  O4  1  0.67333744  0.75074205  0.46776746  1
  O  O5  1  0.63530173  0.42783158  0.16172618  1
  O  O6  1  0.34743807  0.56373937  0.81681967  1
  O  O7  1  0.34677986  0.24521006  0.51558525  1
  O  O8  1  0.34633643  0.90598020  0.19214041  1
  O  O9  1  0.13071879  0.22214064  0.02572348  1
  O  O10  1  0.13066951  0.90003024  0.72598624  1
  F  F0  1  0.15642557  0.57044745  0.34546704  1
loop_
_geom_bond_atom_site_label_1
_geom_bond_atom_site_label_2
_geom_bond_distance
_geom_bond_site_symmetry_2
Mg0 O0 1.980822 1_555
Mg0 O6 2.067354 1_555
Mg0 O5 2.085922 1_555
Mg0 O7 2.124733 1_555
Mg0 O4 2.183872 1_555
Fe0 O1 1.922716 1_554
Fe0 O8 1.930189 1_555
Fe0 O6 1.979552 1_554
Fe0 O5 2.006594 1_555
Fe0 O4 2.087150 1_555
Fe1 O8 1.889998 1_545
Fe1 O3 1.899028 1_555
Fe1 O7 1.963458 1_555
Fe1 O4 1.978433 1_545
Fe1 O2 2.047330 1_555
Fe2 O9 1.923959 1_556
Fe2 O3 1.940674 1_555
Fe2 O5 1.999915 1_556
Fe2 O7 2.065808 1_555
Fe2 O6 2.084206 1_555
Fe3 O10 1.844771 1_555
Fe3 O0 1.860645 1_455
Fe3 O1 1.954282 1_455
Fe3 O6 2.022310 1_555
Fe3 O4 2.031433 1_455
Fe4 O2 1.936944 1_555
Fe4 O0 1.950462 1_555
Fe4 O9 1.973049 1_655
Fe4 O7 2.085911 1_655
Fe4 O5 2.107624 1_555
Fe5 O10 1.865277 1_654
Fe5 O1 1.879897 1_554
Fe5 O2 1.897114 1_565
Fe5 O9 1.905452 1_665
Fe5 O3 2.080940 1_564
Fe5 O8 2.116430 1_655
F0 Mg0 1.959345 1_555
F0 Fe4 2.145698 1_455
F0 Fe3 2.159179 1_555
