# generated using pymatgen
data_Na2InGaSi(SO6)2
_symmetry_space_group_name_H-M   'P 1'
_cell_length_a   8.87720943
_cell_length_b   8.90688388
_cell_length_c   22.67839073
_cell_angle_alpha   89.75543407
_cell_angle_beta   89.45505113
_cell_angle_gamma   119.95268818
_symmetry_Int_Tables_number   1
_chemical_formula_structural   Na2InGaSi(SO6)2
_chemical_formula_sum   'Na12 In6 Ga6 Si6 S12 O72'
_cell_volume   1553.49122963
_cell_formula_units_Z   6
loop_
 _symmetry_equiv_pos_site_id
 _symmetry_equiv_pos_as_xyz
  1  'x, y, z'
loop_
 _atom_site_type_symbol
 _atom_site_label
 _atom_site_symmetry_multiplicity
 _atom_site_fract_x
 _atom_site_fract_y
 _atom_site_fract_z
 _atom_site_occupancy
  Na  Na0  1  0.00053452  0.62854471  0.25091111  1
  Na  Na1  1  0.37600684  0.00223809  0.74978871  1
  Na  Na2  1  0.66236239  0.96646857  0.59016387  1
  Na  Na3  1  0.03103075  0.33715508  0.09163839  1
  Na  Na4  1  0.98235297  0.67604274  0.92424712  1
  Na  Na5  1  0.32495846  0.02152395  0.42128847  1
  Na  Na6  1  0.00765398  0.99013162  0.50038700  1
  Na  Na7  1  0.01184904  0.98796394  0.00114949  1
  Na  Na8  1  0.66128565  0.31083918  0.83228842  1
  Na  Na9  1  0.68170399  0.33655573  0.33501822  1
  Na  Na10  1  0.33469370  0.66364366  0.16936932  1
  Na  Na11  1  0.33491855  0.66633297  0.66594297  1
  In  In0  1  0.99849626  0.00589808  0.84795136  1
  In  In1  1  0.00117849  0.99355582  0.15279643  1
  In  In2  1  0.66022240  0.32950888  0.98285725  1
  In  In3  1  0.32788943  0.68132889  0.01960627  1
  In  In4  1  0.31758955  0.67527635  0.51639826  1
  In  In5  1  0.35375530  0.68494598  0.81284586  1
  Ga  Ga0  1  0.98328827  0.99223197  0.34936631  1
  Ga  Ga1  1  0.01041744  0.00113377  0.64875443  1
  Ga  Ga2  1  0.66652621  0.31675050  0.68236837  1
  Ga  Ga3  1  0.68737604  0.32869112  0.18745498  1
  Ga  Ga4  1  0.66866586  0.34590621  0.48411907  1
  Ga  Ga5  1  0.30022111  0.63329701  0.31831428  1
  Si  Si0  1  0.00026518  0.28768672  0.25107182  1
  Si  Si1  1  0.71782156  0.00774338  0.74348929  1
  Si  Si2  1  0.37343329  0.05182359  0.58304052  1
  Si  Si3  1  0.95508797  0.62782413  0.08433662  1
  Si  Si4  1  0.33389311  0.97320662  0.91302360  1
  Si  Si5  1  0.02276639  0.66609472  0.41397387  1
  S  S0  1  0.30653626  0.00336052  0.25233832  1
  S  S1  1  0.69311808  0.69950079  0.25307524  1
  S  S2  1  0.30020547  0.29867484  0.74636986  1
  S  S3  1  0.98944250  0.69585665  0.74678688  1
  S  S4  1  0.95514501  0.33227198  0.58335315  1
  S  S5  1  0.66927028  0.62092471  0.58459866  1
  S  S6  1  0.66552197  0.03936079  0.08628484  1
  S  S7  1  0.37718598  0.33563816  0.08647012  1
  S  S8  1  0.62665029  0.66509563  0.91763195  1
  S  S9  1  0.04359219  0.37226643  0.91699204  1
  S  S10  1  0.62726218  0.95683051  0.41497918  1
  S  S11  1  0.33292251  0.37396185  0.41652176  1
  O  O0  1  0.22620388  0.03166298  0.30561408  1
  O  O1  1  0.81715194  0.78032639  0.30290139  1
  O  O2  1  0.97422107  0.16113909  0.30688445  1
  O  O3  1  0.23328666  0.19032359  0.80088057  1
  O  O4  1  0.96335429  0.76342374  0.80356280  1
  O  O5  1  0.82096404  0.03444176  0.80430893  1
  O  O6  1  0.81372140  0.98279502  0.68472251  1
  O  O7  1  0.18917948  0.21246077  0.69514266  1
  O  O8  1  0.03063553  0.82220622  0.69742386  1
  O  O9  1  0.76402636  0.80255308  0.19812873  1
  O  O10  1  0.03012654  0.21776439  0.18829236  1
  O  O11  1  0.19039647  0.95864600  0.20041318  1
  O  O12  1  0.87912141  0.36397158  0.63724240  1
  O  O13  1  0.49477972  0.13558283  0.64104730  1
  O  O14  1  0.64942669  0.51581917  0.63765514  1
  O  O15  1  0.86071217  0.50240593  0.14291119  1
  O  O16  1  0.63590400  0.12152617  0.13880231  1
  O  O17  1  0.48087686  0.34780352  0.13875618  1
  O  O18  1  0.44650688  0.30849360  0.03087881  1
  O  O19  1  0.85601490  0.54745007  0.02206070  1
  O  O20  1  0.69090040  0.13980253  0.03151680  1
  O  O21  1  0.46702484  0.16574566  0.52156246  1
  O  O22  1  0.69650230  0.54570369  0.52988278  1
  O  O23  1  0.84763982  0.30852749  0.53057703  1
  O  O24  1  0.54081501  0.67865366  0.97163298  1
  O  O25  1  0.14131038  0.44605223  0.97220844  1
  O  O26  1  0.28667271  0.84368292  0.96977175  1
  O  O27  1  0.56149503  0.85803771  0.47191802  1
  O  O28  1  0.30859675  0.45268366  0.47045082  1
  O  O29  1  0.15520836  0.72749228  0.46950222  1
  O  O30  1  0.11176414  0.63290801  0.35484133  1
  O  O31  1  0.50985330  0.86500399  0.36527843  1
  O  O32  1  0.36447418  0.48615615  0.36343222  1
  O  O33  1  0.13282572  0.48084223  0.86424085  1
  O  O34  1  0.35800525  0.89335515  0.85096552  1
  O  O35  1  0.52366031  0.63733778  0.86405499  1
  O  O36  1  0.01530279  0.84875338  0.40273229  1
  O  O37  1  0.80424729  0.98092190  0.40837302  1
  O  O38  1  0.17790867  0.19887081  0.41051757  1
  O  O39  1  0.01729115  0.19656055  0.91397970  1
  O  O40  1  0.14967484  0.97739519  0.90995637  1
  O  O41  1  0.79965956  0.82448635  0.91419272  1
  O  O42  1  0.96493931  0.17097699  0.58765254  1
  O  O43  1  0.17655712  0.02741730  0.59158718  1
  O  O44  1  0.82317973  0.79978534  0.58787272  1
  O  O45  1  0.97969640  0.82110644  0.08901312  1
  O  O46  1  0.82776498  0.03196373  0.09045306  1
  O  O47  1  0.19612311  0.18561621  0.08942127  1
  O  O48  1  0.68721492  0.17799868  0.74090239  1
  O  O49  1  0.47785827  0.32226271  0.73922290  1
  O  O50  1  0.83171731  0.52728266  0.73725189  1
  O  O51  1  0.67814428  0.52529918  0.24699578  1
  O  O52  1  0.82729277  0.31632844  0.24793109  1
  O  O53  1  0.47637108  0.16450328  0.24186690  1
  O  O54  1  0.65694276  0.51565567  0.91922303  1
  O  O55  1  0.87287211  0.36696901  0.91902603  1
  O  O56  1  0.50749943  0.16153579  0.91914627  1
  O  O57  1  0.63604148  0.12841459  0.41948886  1
  O  O58  1  0.48904937  0.35218061  0.41994990  1
  O  O59  1  0.83392013  0.48918111  0.42647660  1
  O  O60  1  0.36408287  0.49646521  0.08283428  1
  O  O61  1  0.14327488  0.62971937  0.08520052  1
  O  O62  1  0.51366377  0.86296056  0.08382301  1
  O  O63  1  0.36709749  0.86202462  0.58060610  1
  O  O64  1  0.51040702  0.63842115  0.58000469  1
  O  O65  1  0.13375884  0.48359799  0.57903824  1
  O  O66  1  0.32975351  0.84950752  0.25937490  1
  O  O67  1  0.52254691  0.68613791  0.26385960  1
  O  O68  1  0.17082048  0.48804816  0.25652242  1
  O  O69  1  0.30828000  0.46777982  0.75271684  1
  O  O70  1  0.14685881  0.67604485  0.74999540  1
  O  O71  1  0.51903034  0.83565907  0.74396090  1
loop_
_geom_bond_atom_site_label_1
_geom_bond_atom_site_label_2
_geom_bond_distance
_geom_bond_site_symmetry_2
Na0 O68 2.399700 1_555
Na0 O52 2.415773 1_455
Na0 O51 2.534096 1_455
Na0 O30 2.557054 1_555
Na0 O66 2.592641 1_555
Na0 O15 2.736896 1_455
Na0 O11 2.789800 1_555
Na0 O1 2.835965 1_455
Na1 O71 2.389646 1_545
Na1 O48 2.406583 1_555
Na1 O34 2.459713 1_545
Na1 O49 2.533047 1_555
Na1 O70 2.584027 1_545
Na1 O13 2.697946 1_555
Na1 O3 2.803978 1_555
Na1 O8 2.925366 1_545
Na2 O63 2.315245 1_555
Na2 O42 2.376242 1_565
Na2 O6 2.507490 1_555
Na2 O44 2.522018 1_555
Na2 O64 2.546755 1_555
Na2 O13 2.834337 1_565
Na2 O27 2.851292 1_555
Na2 O23 2.955042 1_565
Na3 O61 2.281610 1_555
Na3 O46 2.397800 1_455
Na3 O10 2.430391 1_555
Na3 O47 2.438577 1_555
Na3 O60 2.567437 1_555
Na3 O15 2.829816 1_455
Na3 O25 2.866004 1_554
Na3 O20 2.977341 1_455
Na4 O40 2.349049 1_655
Na4 O55 2.422863 1_555
Na4 O19 2.477620 1_556
Na4 O54 2.507065 1_555
Na4 O41 2.564388 1_555
Na4 O26 2.575225 1_655
Na4 O4 2.871693 1_555
Na5 O36 2.430012 1_545
Na5 O57 2.430300 1_555
Na5 O38 2.514101 1_555
Na5 O29 2.515630 1_545
Na5 O58 2.551668 1_555
Na5 O21 2.621776 1_555
Na5 O0 2.789127 1_555
Na5 O31 2.917433 1_545
Na6 O43 2.490749 1_565
Na6 O36 2.569300 1_555
Na6 O44 2.574799 1_455
Na6 O38 2.645351 1_565
Na6 O42 2.697742 1_465
Na6 O37 2.747160 1_455
Na7 O45 2.408525 1_455
Na7 O40 2.418980 1_554
Na7 O41 2.629372 1_454
Na7 O47 2.645623 1_565
Na7 O39 2.690634 1_564
Na7 O46 2.740266 1_465
Na8 O56 2.371898 1_555
Na8 O48 2.456004 1_555
Na8 O55 2.605434 1_555
Na8 O54 2.704796 1_555
Na8 O49 2.710222 1_555
Na8 O50 2.764190 1_555
Na9 O52 2.406329 1_555
Na9 O59 2.493794 1_555
Na9 O57 2.544694 1_555
Na9 O58 2.613711 1_555
Na9 O51 2.614879 1_555
Na9 O53 2.728598 1_555
Na10 O68 2.473025 1_555
Na10 O61 2.485212 1_555
Na10 O62 2.556385 1_555
Na10 O60 2.557293 1_555
Na10 O66 2.647369 1_555
Na10 O67 2.674144 1_555
Na11 O71 2.385937 1_555
Na11 O63 2.515661 1_555
Na11 O70 2.552080 1_555
Na11 O69 2.569028 1_555
Na11 O64 2.572973 1_555
Na11 O65 2.629496 1_555
In0 O5 1.988866 1_555
In0 O40 2.053272 1_645
In0 O3 2.169317 1_655
In0 O39 2.213037 1_655
In0 O41 2.250345 1_545
In0 O4 2.264223 1_545
In1 O10 2.051161 1_565
In1 O45 2.054194 1_455
In1 O11 2.153479 1_555
In1 O9 2.179609 1_455
In1 O47 2.227648 1_565
In1 O46 2.246994 1_465
In2 O56 2.048002 1_555
In2 O19 2.062665 1_556
In2 O18 2.103515 1_556
In2 O20 2.143895 1_556
In2 O54 2.204755 1_555
In2 O55 2.255069 1_555
In3 O26 2.006122 1_554
In3 O61 2.074984 1_555
In3 O24 2.182452 1_554
In3 O62 2.204420 1_555
In3 O25 2.208476 1_554
In3 O60 2.321071 1_555
In4 O29 2.029699 1_555
In4 O63 2.093575 1_555
In4 O65 2.179213 1_555
In4 O27 2.186409 1_555
In4 O28 2.209993 1_555
In4 O64 2.392153 1_555
In5 O34 2.034433 1_555
In5 O71 2.089708 1_555
In5 O35 2.114524 1_555
In5 O33 2.210877 1_555
In5 O69 2.239893 1_555
In5 O70 2.305773 1_555
Ga0 O2 1.818793 1_565
Ga0 O36 1.880065 1_655
Ga0 O1 2.028487 1_555
Ga0 O37 2.031137 1_555
Ga0 O0 2.226666 1_665
Ga0 O38 2.277655 1_665
Ga1 O6 1.851463 1_445
Ga1 O43 1.878052 1_555
Ga1 O8 2.016105 1_545
Ga1 O7 2.057639 1_555
Ga1 O44 2.230131 1_445
Ga1 O42 2.230297 1_455
Ga2 O13 1.841162 1_555
Ga2 O48 1.881614 1_555
Ga2 O12 1.988188 1_555
Ga2 O14 2.109845 1_555
Ga2 O49 2.124044 1_555
Ga2 O50 2.127134 1_555
Ga3 O15 1.833538 1_555
Ga3 O52 1.898306 1_555
Ga3 O16 2.003994 1_555
Ga3 O53 2.091702 1_555
Ga3 O17 2.226569 1_555
Ga3 O51 2.248992 1_555
Ga4 O59 1.889270 1_555
Ga4 O21 1.895087 1_555
Ga4 O22 1.971445 1_555
Ga4 O23 2.074172 1_555
Ga4 O58 2.189913 1_555
Ga4 O57 2.336001 1_555
Ga5 O30 1.858192 1_555
Ga5 O68 1.875930 1_555
Ga5 O32 1.958567 1_555
Ga5 O67 2.159385 1_555
Ga5 O66 2.243020 1_555
Ga5 O31 2.253461 1_555
O0 S0 1.482427 1_555
O1 S1 1.498850 1_555
O2 Si0 1.627280 1_655
O3 S2 1.488574 1_555
O4 S3 1.487887 1_555
O5 Si1 1.614543 1_555
O6 Si1 1.649292 1_565
O7 S2 1.477965 1_555
O8 S3 1.491289 1_455
O9 S1 1.479816 1_555
O10 Si0 1.628009 1_555
O11 S0 1.491756 1_565
O12 S4 1.485359 1_555
O13 Si2 1.637177 1_555
O14 S5 1.475427 1_555
O15 Si3 1.657099 1_555
O16 S6 1.488910 1_555
O17 S7 1.478963 1_555
O18 S7 1.470705 1_555
O19 Si3 1.638347 1_555
O20 S6 1.475712 1_555
O21 Si2 1.669669 1_555
O22 S5 1.486674 1_555
O23 S4 1.486729 1_555
O24 S8 1.473219 1_555
O25 S9 1.486898 1_555
O26 Si4 1.630046 1_555
O27 S10 1.498504 1_555
O28 S11 1.479036 1_555
O29 Si5 1.630703 1_555
O30 Si5 1.651165 1_555
O31 S10 1.484811 1_555
O32 S11 1.493471 1_555
O33 S9 1.483582 1_555
O34 Si4 1.639270 1_555
O35 S8 1.473534 1_555
O36 Si5 1.679485 1_555
O37 S10 1.481738 1_555
O38 S11 1.485486 1_555
O39 S9 1.464488 1_555
O40 Si4 1.656395 1_555
O41 S8 1.483194 1_555
O42 S4 1.484818 1_555
O43 Si2 1.659257 1_555
O44 S5 1.496538 1_555
O45 Si3 1.627618 1_555
O46 S6 1.478152 1_555
O47 S7 1.491980 1_555
O48 Si1 1.669683 1_555
O49 S2 1.490477 1_555
O50 S3 1.473383 1_555
O51 S1 1.496778 1_555
O52 Si0 1.679595 1_655
O53 S0 1.489604 1_555
O54 S8 1.484080 1_555
O55 S9 1.492781 1_655
O56 Si4 1.622578 1_545
O57 S10 1.494898 1_545
O58 S11 1.494997 1_555
O59 Si5 1.650177 1_655
O60 S7 1.495945 1_555
O61 Si3 1.662514 1_455
O62 S6 1.475184 1_565
O63 Si2 1.664323 1_565
O64 S5 1.498698 1_555
O65 S4 1.483985 1_455
O66 S0 1.492178 1_565
O67 S1 1.476318 1_555
O68 Si0 1.673248 1_555
O69 S2 1.479435 1_555
O70 S3 1.495751 1_455
O71 Si1 1.661966 1_565
