# generated using pymatgen
data_Na2HfGa(PO4)3
_symmetry_space_group_name_H-M   'P 1'
_cell_length_a   8.83798989
_cell_length_b   8.83798960
_cell_length_c   22.40438290
_cell_angle_alpha   90.16512446
_cell_angle_beta   89.83487555
_cell_angle_gamma   120.50781556
_symmetry_Int_Tables_number   1
_chemical_formula_structural   Na2HfGa(PO4)3
_chemical_formula_sum   'Na12 Hf6 Ga6 P18 O72'
_cell_volume   1507.72823535
_cell_formula_units_Z   6
loop_
 _symmetry_equiv_pos_site_id
 _symmetry_equiv_pos_as_xyz
  1  'x, y, z'
loop_
 _atom_site_type_symbol
 _atom_site_label
 _atom_site_symmetry_multiplicity
 _atom_site_fract_x
 _atom_site_fract_y
 _atom_site_fract_z
 _atom_site_occupancy
  Na  Na0  1  0.36501710  0.36148731  0.24838156  1
  Na  Na1  1  0.63851269  0.63498290  0.74838156  1
  Na  Na2  1  0.03168410  0.69482031  0.58171456  1
  Na  Na3  1  0.30517969  0.96831590  0.08171456  1
  Na  Na4  1  0.69835010  0.02815431  0.91504856  1
  Na  Na5  1  0.97184569  0.30164990  0.41504856  1
  Na  Na6  1  0.99984940  0.99887173  0.49594374  1
  Na  Na7  1  0.00112827  0.00015060  0.99594374  1
  Na  Na8  1  0.66651640  0.33220473  0.82927674  1
  Na  Na9  1  0.66779527  0.33348360  0.32927674  1
  Na  Na10  1  0.33318240  0.66553873  0.16261074  1
  Na  Na11  1  0.33446127  0.66681760  0.66261074  1
  Hf  Hf0  1  0.00175169  0.00775890  0.64635717  1
  Hf  Hf1  1  0.99224110  0.99824831  0.14635717  1
  Hf  Hf2  1  0.66841869  0.34109190  0.97969017  1
  Hf  Hf3  1  0.65890810  0.33158131  0.47969017  1
  Hf  Hf4  1  0.33508469  0.67442590  0.31302417  1
  Hf  Hf5  1  0.32557410  0.66491531  0.81302417  1
  Ga  Ga0  1  0.99872443  0.99240600  0.35107907  1
  Ga  Ga1  1  0.00759400  0.00127557  0.85107907  1
  Ga  Ga2  1  0.66539143  0.32573900  0.68441207  1
  Ga  Ga3  1  0.67426100  0.33460857  0.18441207  1
  Ga  Ga4  1  0.33205743  0.65907300  0.01774607  1
  Ga  Ga5  1  0.34092700  0.66794257  0.51774607  1
  P  P0  1  0.29317701  0.00548121  0.24946803  1
  P  P1  1  0.71288228  0.70419323  0.25164034  1
  P  P2  1  0.98944416  0.28667980  0.25216476  1
  P  P3  1  0.29580677  0.28711772  0.75164034  1
  P  P4  1  0.99451879  0.70682299  0.74946803  1
  P  P5  1  0.71332020  0.01055584  0.75216476  1
  P  P6  1  0.95984401  0.33881421  0.58280103  1
  P  P7  1  0.37954928  0.03752623  0.58497334  1
  P  P8  1  0.65611116  0.62001280  0.58549776  1
  P  P9  1  0.96247377  0.62045072  0.08497334  1
  P  P10  1  0.66118579  0.04015599  0.08280103  1
  P  P11  1  0.37998720  0.34388884  0.08549776  1
  P  P12  1  0.62651001  0.67214821  0.91613503  1
  P  P13  1  0.04621528  0.37086023  0.91830734  1
  P  P14  1  0.32277716  0.95334680  0.91883176  1
  P  P15  1  0.62913977  0.95378472  0.41830734  1
  P  P16  1  0.32785179  0.37348999  0.41613503  1
  P  P17  1  0.04665320  0.67722284  0.41883176  1
  O  O0  1  0.20701667  0.03920830  0.30389335  1
  O  O1  1  0.82405150  0.79112351  0.30699675  1
  O  O2  1  0.96725392  0.18021452  0.30931878  1
  O  O3  1  0.20887649  0.17594850  0.80699675  1
  O  O4  1  0.96079170  0.79298333  0.80389335  1
  O  O5  1  0.81978548  0.03274608  0.80931878  1
  O  O6  1  0.79781077  0.97189488  0.69765184  1
  O  O7  1  0.18151261  0.20583175  0.69554484  1
  O  O8  1  0.02420748  0.81746507  0.69237421  1
  O  O9  1  0.79416825  0.81848739  0.19554484  1
  O  O10  1  0.02810512  0.20218923  0.19765184  1
  O  O11  1  0.18253493  0.97579252  0.19237421  1
  O  O12  1  0.87368367  0.37254130  0.63722635  1
  O  O13  1  0.49071850  0.12445651  0.64032975  1
  O  O14  1  0.63392092  0.51354752  0.64265178  1
  O  O15  1  0.87554349  0.50928150  0.14032975  1
  O  O16  1  0.62745870  0.12631633  0.13722635  1
  O  O17  1  0.48645248  0.36607908  0.14265178  1
  O  O18  1  0.46447777  0.30522788  0.03098484  1
  O  O19  1  0.84817961  0.53916475  0.02887784  1
  O  O20  1  0.69087448  0.15079807  0.02570721  1
  O  O21  1  0.46083525  0.15182039  0.52887784  1
  O  O22  1  0.69477212  0.53552223  0.53098484  1
  O  O23  1  0.84920193  0.30912552  0.52570721  1
  O  O24  1  0.54034967  0.70587530  0.97056035  1
  O  O25  1  0.15738450  0.45779051  0.97366375  1
  O  O26  1  0.30058692  0.84688152  0.97598578  1
  O  O27  1  0.54220949  0.84261550  0.47366375  1
  O  O28  1  0.29412470  0.45965033  0.47056035  1
  O  O29  1  0.15311848  0.69941308  0.47598578  1
  O  O30  1  0.13114377  0.63856188  0.36431884  1
  O  O31  1  0.51484561  0.87249875  0.36221184  1
  O  O32  1  0.35754048  0.48413207  0.35904121  1
  O  O33  1  0.12750125  0.48515439  0.86221184  1
  O  O34  1  0.36143812  0.86885623  0.86431884  1
  O  O35  1  0.51586793  0.64245952  0.85904121  1
  O  O36  1  0.02640446  0.83717233  0.41023228  1
  O  O37  1  0.81518533  0.98142545  0.41101445  1
  O  O38  1  0.16111636  0.19029954  0.40964974  1
  O  O39  1  0.01857455  0.18481467  0.91101445  1
  O  O40  1  0.16282767  0.97359554  0.91023228  1
  O  O41  1  0.80970046  0.83888364  0.90964974  1
  O  O42  1  0.97738813  0.17427579  0.58895555  1
  O  O43  1  0.19179949  0.01410322  0.58957935  1
  O  O44  1  0.82889146  0.80359171  0.58975421  1
  O  O45  1  0.98589678  0.80820051  0.08957935  1
  O  O46  1  0.82572421  0.02261187  0.08895555  1
  O  O47  1  0.19640829  0.17110854  0.08975421  1
  O  O48  1  0.69307146  0.17050533  0.74356528  1
  O  O49  1  0.48185233  0.31475845  0.74434745  1
  O  O50  1  0.82778336  0.52363254  0.74298274  1
  O  O51  1  0.68524155  0.51814767  0.24434745  1
  O  O52  1  0.82949467  0.30692854  0.24356528  1
  O  O53  1  0.47636746  0.17221664  0.24298274  1
  O  O54  1  0.64405513  0.50760879  0.92228855  1
  O  O55  1  0.85846649  0.34743622  0.92291235  1
  O  O56  1  0.49555846  0.13692471  0.92308721  1
  O  O57  1  0.65256378  0.14153351  0.42291235  1
  O  O58  1  0.49239121  0.35594487  0.42228855  1
  O  O59  1  0.86307529  0.50444154  0.42308721  1
  O  O60  1  0.35973746  0.50383933  0.07689928  1
  O  O61  1  0.14851833  0.64809245  0.07768145  1
  O  O62  1  0.49444936  0.85696654  0.07631674  1
  O  O63  1  0.35190755  0.85148167  0.57768145  1
  O  O64  1  0.49616067  0.64026254  0.57689928  1
  O  O65  1  0.14303346  0.50555064  0.57631674  1
  O  O66  1  0.31072113  0.84094279  0.25562255  1
  O  O67  1  0.52513249  0.68077022  0.25624635  1
  O  O68  1  0.16222446  0.47025871  0.25642121  1
  O  O69  1  0.31922978  0.47486751  0.75624635  1
  O  O70  1  0.15905721  0.68927887  0.75562255  1
  O  O71  1  0.52974129  0.83777554  0.75642121  1
loop_
_geom_bond_atom_site_label_1
_geom_bond_atom_site_label_2
_geom_bond_distance
_geom_bond_site_symmetry_2
Na0 O53 2.334701 1_555
Na0 O68 2.432144 1_555
Na0 O67 2.437312 1_555
Na0 O51 2.440414 1_555
Na0 O17 2.589680 1_555
Na0 O32 2.717039 1_555
Na0 O0 2.753487 1_555
Na0 O10 2.809648 1_555
Na1 O50 2.334701 1_555
Na1 O71 2.432144 1_555
Na1 O69 2.437313 1_555
Na1 O49 2.440413 1_555
Na1 O14 2.589680 1_555
Na1 O35 2.717039 1_555
Na1 O4 2.753487 1_555
Na1 O6 2.809647 1_555
Na2 O65 2.334685 1_555
Na2 O44 2.432144 1_455
Na2 O43 2.437312 1_565
Na2 O63 2.440405 1_555
Na2 O29 2.589654 1_555
Na2 O8 2.717039 1_555
Na2 O12 2.753487 1_455
Na2 O22 2.809648 1_455
Na3 O62 2.334685 1_555
Na3 O47 2.432144 1_565
Na3 O45 2.437313 1_455
Na3 O61 2.440405 1_555
Na3 O26 2.589654 1_554
Na3 O11 2.717039 1_555
Na3 O16 2.753487 1_565
Na3 O18 2.809647 1_565
Na4 O41 2.334701 1_545
Na4 O56 2.432127 1_555
Na4 O55 2.437303 1_555
Na4 O39 2.440414 1_655
Na4 O5 2.589680 1_555
Na4 O20 2.717013 1_556
Na4 O24 2.753487 1_545
Na4 O34 2.809648 1_545
Na5 O38 2.334701 1_655
Na5 O59 2.432127 1_555
Na5 O57 2.437303 1_555
Na5 O37 2.440413 1_545
Na5 O2 2.589680 1_555
Na5 O23 2.717013 1_555
Na5 O28 2.753487 1_655
Na5 O30 2.809647 1_655
Na6 O37 2.463474 1_555
Na6 O36 2.471259 1_655
Na6 O38 2.487234 1_665
Na6 O44 2.652165 1_555
Na6 O42 2.660180 1_565
Na6 O43 2.661590 1_665
Na7 O39 2.463474 1_555
Na7 O40 2.471259 1_545
Na7 O41 2.487234 1_445
Na7 O47 2.652165 1_556
Na7 O46 2.660180 1_456
Na7 O45 2.661590 1_446
Na8 O49 2.463474 1_555
Na8 O48 2.471259 1_555
Na8 O50 2.487234 1_555
Na8 O56 2.652165 1_555
Na8 O54 2.660180 1_555
Na8 O55 2.661590 1_555
Na9 O51 2.463474 1_555
Na9 O52 2.471259 1_555
Na9 O53 2.487234 1_555
Na9 O59 2.652165 1_555
Na9 O58 2.660180 1_555
Na9 O57 2.661590 1_555
Na10 O61 2.463474 1_555
Na10 O60 2.471259 1_555
Na10 O62 2.487234 1_555
Na10 O68 2.652165 1_555
Na10 O66 2.660180 1_555
Na10 O67 2.661590 1_555
Na11 O63 2.463474 1_555
Na11 O64 2.471259 1_555
Na11 O65 2.487234 1_555
Na11 O71 2.652165 1_555
Na11 O70 2.660180 1_555
Na11 O69 2.661590 1_555
Hf0 O7 1.994541 1_555
Hf0 O6 2.019910 1_445
Hf0 O42 2.049477 1_455
Hf0 O8 2.069029 1_545
Hf0 O43 2.082061 1_555
Hf0 O44 2.096958 1_445
Hf1 O9 1.994541 1_555
Hf1 O10 2.019910 1_665
Hf1 O46 2.049477 1_565
Hf1 O11 2.069029 1_655
Hf1 O45 2.082061 1_555
Hf1 O47 2.096958 1_665
Hf2 O19 1.994541 1_556
Hf2 O18 2.019910 1_556
Hf2 O54 2.049477 1_555
Hf2 O20 2.069029 1_556
Hf2 O55 2.082061 1_555
Hf2 O56 2.096958 1_555
Hf3 O21 1.994541 1_555
Hf3 O22 2.019910 1_555
Hf3 O58 2.049477 1_555
Hf3 O23 2.069029 1_555
Hf3 O57 2.082061 1_555
Hf3 O59 2.096958 1_555
Hf4 O31 1.994541 1_555
Hf4 O30 2.019910 1_555
Hf4 O66 2.049477 1_555
Hf4 O32 2.069029 1_555
Hf4 O67 2.082061 1_555
Hf4 O68 2.096958 1_555
Hf5 O33 1.994541 1_555
Hf5 O34 2.019910 1_555
Hf5 O70 2.049477 1_555
Hf5 O35 2.069029 1_555
Hf5 O69 2.082061 1_555
Hf5 O71 2.096958 1_555
Ga0 O1 1.932249 1_555
Ga0 O0 1.973763 1_665
Ga0 O36 2.012863 1_655
Ga0 O2 2.046220 1_565
Ga0 O37 2.066930 1_555
Ga0 O38 2.071179 1_665
Ga1 O3 1.932249 1_555
Ga1 O4 1.973762 1_445
Ga1 O40 2.012863 1_545
Ga1 O5 2.046220 1_455
Ga1 O39 2.066930 1_555
Ga1 O41 2.071179 1_445
Ga2 O13 1.932249 1_555
Ga2 O12 1.973763 1_555
Ga2 O48 2.012863 1_555
Ga2 O14 2.046220 1_555
Ga2 O49 2.066930 1_555
Ga2 O50 2.071179 1_555
Ga3 O15 1.932249 1_555
Ga3 O16 1.973762 1_555
Ga3 O52 2.012863 1_555
Ga3 O17 2.046220 1_555
Ga3 O51 2.066930 1_555
Ga3 O53 2.071179 1_555
Ga4 O25 1.932249 1_554
Ga4 O24 1.973763 1_554
Ga4 O60 2.012863 1_555
Ga4 O26 2.046220 1_554
Ga4 O61 2.066930 1_555
Ga4 O62 2.071179 1_555
Ga5 O27 1.932249 1_555
Ga5 O28 1.973762 1_555
Ga5 O64 2.012863 1_555
Ga5 O29 2.046220 1_555
Ga5 O63 2.066930 1_555
Ga5 O65 2.071179 1_555
O0 P0 1.542263 1_555
O1 P1 1.526067 1_555
O2 P2 1.543259 1_555
O3 P3 1.526067 1_555
O4 P4 1.542263 1_555
O5 P5 1.543259 1_555
O6 P5 1.554793 1_565
O7 P3 1.543145 1_555
O8 P4 1.551143 1_455
O9 P1 1.543145 1_555
O10 P2 1.554793 1_455
O11 P0 1.551143 1_565
O12 P6 1.542263 1_555
O13 P7 1.526067 1_555
O14 P8 1.543259 1_555
O15 P9 1.526067 1_555
O16 P10 1.542263 1_555
O17 P11 1.543259 1_555
O18 P11 1.554793 1_555
O19 P9 1.543145 1_555
O20 P10 1.551143 1_555
O21 P7 1.543145 1_555
O22 P8 1.554793 1_555
O23 P6 1.551143 1_555
O24 P12 1.542263 1_555
O25 P13 1.526067 1_555
O26 P14 1.543259 1_555
O27 P15 1.526067 1_555
O28 P16 1.542263 1_555
O29 P17 1.543259 1_555
O30 P17 1.554793 1_555
O31 P15 1.543145 1_555
O32 P16 1.551143 1_555
O33 P13 1.543145 1_555
O34 P14 1.554793 1_555
O35 P12 1.551143 1_555
O36 P17 1.525164 1_555
O37 P15 1.543000 1_555
O38 P16 1.546424 1_555
O39 P13 1.543000 1_555
O40 P14 1.525164 1_555
O41 P12 1.546424 1_555
O42 P6 1.545293 1_555
O43 P7 1.567564 1_555
O44 P8 1.567729 1_555
O45 P9 1.567564 1_555
O46 P10 1.545293 1_555
O47 P11 1.567729 1_555
O48 P5 1.525164 1_555
O49 P3 1.543000 1_555
O50 P4 1.546424 1_555
O51 P1 1.543000 1_555
O52 P2 1.525164 1_555
O53 P0 1.546424 1_555
O54 P12 1.545305 1_555
O55 P13 1.567550 1_655
O56 P14 1.567727 1_545
O57 P15 1.567550 1_545
O58 P16 1.545305 1_555
O59 P17 1.567727 1_655
O60 P11 1.525175 1_555
O61 P9 1.542986 1_455
O62 P10 1.546421 1_565
O63 P7 1.542986 1_565
O64 P8 1.525175 1_555
O65 P6 1.546421 1_455
O66 P0 1.545293 1_565
O67 P1 1.567564 1_555
O68 P2 1.567729 1_455
O69 P3 1.567564 1_555
O70 P4 1.545293 1_455
O71 P5 1.567729 1_565
