# generated using pymatgen
data_NaMgGeP(SO6)2
_symmetry_space_group_name_H-M   'P 1'
_cell_length_a   8.48130625
_cell_length_b   8.51295320
_cell_length_c   22.12522486
_cell_angle_alpha   89.35499682
_cell_angle_beta   90.00000000
_cell_angle_gamma   119.87710194
_symmetry_Int_Tables_number   1
_chemical_formula_structural   NaMgGeP(SO6)2
_chemical_formula_sum   'Na6 Mg6 Ge6 P6 S12 O72'
_cell_volume   1385.03648381
_cell_formula_units_Z   6
loop_
 _symmetry_equiv_pos_site_id
 _symmetry_equiv_pos_as_xyz
  1  'x, y, z'
loop_
 _atom_site_type_symbol
 _atom_site_label
 _atom_site_symmetry_multiplicity
 _atom_site_fract_x
 _atom_site_fract_y
 _atom_site_fract_z
 _atom_site_occupancy
  Na  Na0  1  0.98876244  0.99086037  0.50236564  1
  Na  Na1  1  0.00209793  0.99086037  0.00236564  1
  Na  Na2  1  0.66037323  0.32201688  0.83580456  1
  Na  Na3  1  0.66164465  0.32201688  0.33580456  1
  Na  Na4  1  0.32854920  0.67358758  0.16928365  1
  Na  Na5  1  0.34503738  0.67358758  0.66928365  1
  Mg  Mg0  1  0.99281038  0.99457155  0.64571466  1
  Mg  Mg1  1  0.00176117  0.99457155  0.14571466  1
  Mg  Mg2  1  0.66475113  0.33237607  0.97945760  1
  Mg  Mg3  1  0.66762594  0.33237607  0.47945760  1
  Mg  Mg4  1  0.33699872  0.67588984  0.31294961  1
  Mg  Mg5  1  0.33889012  0.67588984  0.81294961  1
  Ge  Ge0  1  0.00215474  0.00003230  0.35033778  1
  Ge  Ge1  1  0.99787756  0.00003230  0.85033778  1
  Ge  Ge2  1  0.66637217  0.33161757  0.68401869  1
  Ge  Ge3  1  0.66524640  0.33161757  0.18401869  1
  Ge  Ge4  1  0.31702583  0.67163209  0.01725875  1
  Ge  Ge5  1  0.35460526  0.67163209  0.51725875  1
  P  P0  1  0.29268798  0.00516066  0.24789454  1
  P  P1  1  0.71247267  0.00516066  0.74789454  1
  P  P2  1  0.66609448  0.61914855  0.58151197  1
  P  P3  1  0.95305508  0.61914855  0.08151197  1
  P  P4  1  0.32886980  0.95968065  0.91348401  1
  P  P5  1  0.63080984  0.95968065  0.41348401  1
  S  S0  1  0.71086768  0.70631863  0.24891326  1
  S  S1  1  0.99720366  0.28890751  0.24835022  1
  S  S2  1  0.29170386  0.28890751  0.74835022  1
  S  S3  1  0.99545095  0.70631863  0.74891326  1
  S  S4  1  0.96340090  0.34041584  0.58155496  1
  S  S5  1  0.37705684  0.03955553  0.58222529  1
  S  S6  1  0.66249970  0.03955553  0.08222529  1
  S  S7  1  0.37701594  0.34041584  0.08155496  1
  S  S8  1  0.62234493  0.67022032  0.91628229  1
  S  S9  1  0.04508537  0.37415753  0.91516795  1
  S  S10  1  0.32907115  0.37415753  0.41516795  1
  S  S11  1  0.04787439  0.67022032  0.41628229  1
  O  O0  1  0.21162950  0.04601313  0.30819150  1
  O  O1  1  0.82506618  0.78311300  0.30564079  1
  O  O2  1  0.95713811  0.17323149  0.30575502  1
  O  O3  1  0.21609338  0.17323149  0.80575502  1
  O  O4  1  0.95804682  0.78311300  0.80564079  1
  O  O5  1  0.83438363  0.04601313  0.80819150  1
  O  O6  1  0.80273009  0.98396676  0.69373571  1
  O  O7  1  0.18543801  0.20501286  0.69524709  1
  O  O8  1  0.02678538  0.81811365  0.69586982  1
  O  O9  1  0.79132826  0.81811365  0.19586982  1
  O  O10  1  0.01957484  0.20501286  0.19524709  1
  O  O11  1  0.18123667  0.98396676  0.19373571  1
  O  O12  1  0.88529731  0.37567107  0.63876611  1
  O  O13  1  0.49234907  0.11360053  0.63899411  1
  O  O14  1  0.62383990  0.49613186  0.64180936  1
  O  O15  1  0.87229296  0.49613186  0.14180936  1
  O  O16  1  0.62125246  0.11360053  0.13899411  1
  O  O17  1  0.49037476  0.37567107  0.13876611  1
  O  O18  1  0.45928175  0.31073011  0.02921658  1
  O  O19  1  0.84366809  0.53012986  0.02674025  1
  O  O20  1  0.68730004  0.14727553  0.02874478  1
  O  O21  1  0.45997648  0.14727553  0.52874478  1
  O  O22  1  0.68646277  0.53012986  0.52674025  1
  O  O23  1  0.85144936  0.31073011  0.52921658  1
  O  O24  1  0.54285590  0.70545620  0.97291963  1
  O  O25  1  0.16009239  0.44960551  0.97221761  1
  O  O26  1  0.28420115  0.83791493  0.97427354  1
  O  O27  1  0.55371278  0.83791493  0.47427354  1
  O  O28  1  0.28951211  0.44960551  0.47221761  1
  O  O29  1  0.16259930  0.70545620  0.47291963  1
  O  O30  1  0.12827878  0.64319745  0.36277309  1
  O  O31  1  0.51584232  0.87077405  0.36021857  1
  O  O32  1  0.35110915  0.48216784  0.36182494  1
  O  O33  1  0.13105769  0.48216784  0.86182494  1
  O  O34  1  0.35493073  0.87077405  0.86021857  1
  O  O35  1  0.51491767  0.64319745  0.86277309  1
  O  O36  1  0.03403650  0.84145832  0.41130544  1
  O  O37  1  0.82545192  0.97296062  0.40769289  1
  O  O38  1  0.16011318  0.18932000  0.41183023  1
  O  O39  1  0.02920682  0.18932000  0.91183023  1
  O  O40  1  0.14750871  0.97296062  0.90769289  1
  O  O41  1  0.80742181  0.84145832  0.91130544  1
  O  O42  1  0.99110870  0.18576732  0.58979940  1
  O  O43  1  0.19815434  0.02087544  0.59103774  1
  O  O44  1  0.82655369  0.80640959  0.58943324  1
  O  O45  1  0.97985590  0.80640959  0.08943324  1
  O  O46  1  0.82272110  0.02087544  0.09103774  1
  O  O47  1  0.19465861  0.18576732  0.08979940  1
  O  O48  1  0.69587626  0.18506075  0.74227479  1
  O  O49  1  0.47770681  0.30473688  0.74463537  1
  O  O50  1  0.82383515  0.52386083  0.74436988  1
  O  O51  1  0.70002668  0.52386083  0.24436988  1
  O  O52  1  0.82703107  0.30473688  0.24463537  1
  O  O53  1  0.48918549  0.18506075  0.24227479  1
  O  O54  1  0.64879451  0.51507705  0.92399596  1
  O  O55  1  0.86527532  0.35363796  0.92271937  1
  O  O56  1  0.48988485  0.14628439  0.92358616  1
  O  O57  1  0.65640054  0.14628439  0.42358616  1
  O  O58  1  0.48836364  0.35363796  0.42271937  1
  O  O59  1  0.86628354  0.51507705  0.42399596  1
  O  O60  1  0.36680451  0.51250291  0.07610374  1
  O  O61  1  0.14885444  0.63234805  0.07789221  1
  O  O62  1  0.49518753  0.85312229  0.07764744  1
  O  O63  1  0.35793376  0.85312229  0.57764744  1
  O  O64  1  0.48349262  0.63234805  0.57789221  1
  O  O65  1  0.14569739  0.51250291  0.57610374  1
  O  O66  1  0.31766707  0.84283321  0.25635011  1
  O  O67  1  0.52802472  0.67806827  0.25697113  1
  O  O68  1  0.15584673  0.46742087  0.25684097  1
  O  O69  1  0.31157314  0.46742087  0.75684097  1
  O  O70  1  0.15004255  0.67806827  0.75697113  1
  O  O71  1  0.52516514  0.84283321  0.75635011  1
loop_
_geom_bond_atom_site_label_1
_geom_bond_atom_site_label_2
_geom_bond_distance
_geom_bond_site_symmetry_2
Na0 O44 2.418460 1_555
Na0 O37 2.475112 1_555
Na0 O36 2.523574 1_655
Na0 O38 2.540960 1_665
Na0 O42 2.556381 1_565
Na0 O43 2.574370 1_665
Na1 O45 2.418460 1_455
Na1 O40 2.475112 1_554
Na1 O41 2.523574 1_454
Na1 O39 2.540960 1_564
Na1 O47 2.556381 1_565
Na1 O46 2.574370 1_465
Na2 O56 2.424951 1_555
Na2 O48 2.477167 1_555
Na2 O49 2.504055 1_555
Na2 O55 2.517160 1_555
Na2 O50 2.552553 1_555
Na2 O54 2.598301 1_555
Na3 O57 2.424951 1_555
Na3 O53 2.477167 1_555
Na3 O52 2.504055 1_555
Na3 O58 2.517160 1_555
Na3 O51 2.552553 1_555
Na3 O59 2.598301 1_555
Na4 O66 2.447492 1_555
Na4 O61 2.453080 1_555
Na4 O62 2.494435 1_555
Na4 O68 2.518115 1_555
Na4 O67 2.562239 1_555
Na4 O60 2.596725 1_555
Na5 O71 2.447492 1_555
Na5 O64 2.453080 1_555
Na5 O63 2.494435 1_555
Na5 O69 2.518115 1_555
Na5 O70 2.562239 1_555
Na5 O65 2.596725 1_555
Mg0 O6 1.894415 1_555
Mg0 O44 1.974681 1_555
Mg0 O8 1.991157 1_655
Mg0 O43 2.037670 1_665
Mg0 O42 2.039118 1_565
Mg0 O7 2.051291 1_665
Mg1 O11 1.894415 1_555
Mg1 O45 1.974681 1_455
Mg1 O9 1.991157 1_455
Mg1 O46 2.037670 1_465
Mg1 O47 2.039117 1_565
Mg1 O10 2.051291 1_565
Mg2 O19 1.930206 1_556
Mg2 O56 1.985110 1_555
Mg2 O18 1.989555 1_556
Mg2 O20 1.992557 1_556
Mg2 O54 2.027280 1_555
Mg2 O55 2.046768 1_555
Mg3 O22 1.930206 1_555
Mg3 O57 1.985110 1_555
Mg3 O23 1.989555 1_555
Mg3 O21 1.992557 1_555
Mg3 O59 2.027280 1_555
Mg3 O58 2.046768 1_555
Mg4 O31 1.918045 1_555
Mg4 O66 1.951131 1_555
Mg4 O30 1.982062 1_555
Mg4 O32 2.014909 1_555
Mg4 O67 2.031933 1_555
Mg4 O68 2.093865 1_555
Mg5 O34 1.918045 1_555
Mg5 O71 1.951131 1_555
Mg5 O35 1.982062 1_555
Mg5 O33 2.014909 1_555
Mg5 O70 2.031933 1_555
Mg5 O69 2.093865 1_555
Ge0 O0 1.864963 1_555
Ge0 O37 1.886475 1_445
Ge0 O2 1.954694 1_455
Ge0 O1 1.980338 1_445
Ge0 O36 2.009401 1_545
Ge0 O38 2.034955 1_555
Ge1 O5 1.864963 1_555
Ge1 O40 1.886475 1_645
Ge1 O3 1.954694 1_655
Ge1 O4 1.980338 1_545
Ge1 O41 2.009401 1_545
Ge1 O39 2.034955 1_655
Ge2 O14 1.854066 1_555
Ge2 O48 1.885569 1_555
Ge2 O12 1.971926 1_555
Ge2 O13 1.981895 1_555
Ge2 O49 2.009917 1_555
Ge2 O50 2.028930 1_555
Ge3 O15 1.854066 1_555
Ge3 O53 1.885569 1_555
Ge3 O17 1.971926 1_555
Ge3 O16 1.981895 1_555
Ge3 O52 2.009917 1_555
Ge3 O51 2.028930 1_555
Ge4 O26 1.829789 1_554
Ge4 O61 1.860266 1_555
Ge4 O25 1.968040 1_554
Ge4 O24 2.039114 1_554
Ge4 O62 2.043550 1_555
Ge4 O60 2.058768 1_555
Ge5 O27 1.829789 1_555
Ge5 O64 1.860266 1_555
Ge5 O28 1.968040 1_555
Ge5 O29 2.039114 1_555
Ge5 O63 2.043550 1_555
Ge5 O65 2.058768 1_555
O0 P0 1.619260 1_555
O1 S0 1.525915 1_555
O2 S1 1.528657 1_555
O3 S2 1.528657 1_555
O4 S3 1.525915 1_555
O5 P1 1.619261 1_555
O6 P1 1.482187 1_565
O7 S2 1.442359 1_555
O8 S3 1.441032 1_455
O9 S0 1.441032 1_555
O10 S1 1.442359 1_455
O11 P0 1.482187 1_565
O12 S4 1.528978 1_555
O13 S5 1.528013 1_555
O14 P2 1.612320 1_555
O15 P3 1.612320 1_555
O16 S6 1.528013 1_555
O17 S7 1.528978 1_555
O18 S7 1.440103 1_555
O19 P3 1.491231 1_555
O20 S6 1.438293 1_555
O21 S5 1.438293 1_555
O22 P2 1.491231 1_555
O23 S4 1.440103 1_555
O24 S8 1.524701 1_555
O25 S9 1.533390 1_555
O26 P4 1.613808 1_555
O27 P5 1.613808 1_555
O28 S10 1.533390 1_555
O29 S11 1.524701 1_555
O30 S11 1.442915 1_555
O31 P5 1.482337 1_555
O32 S10 1.441412 1_555
O33 S9 1.441412 1_555
O34 P4 1.482337 1_555
O35 S8 1.442915 1_555
O36 S11 1.522414 1_555
O37 P5 1.602542 1_555
O38 S10 1.513612 1_555
O39 S9 1.513615 1_555
O40 P4 1.602534 1_555
O41 S8 1.522418 1_555
O42 S4 1.457578 1_555
O43 S5 1.457565 1_555
O44 P2 1.506303 1_555
O45 P3 1.506307 1_555
O46 S6 1.457556 1_555
O47 S7 1.457583 1_555
O48 P1 1.609717 1_555
O49 S2 1.517080 1_555
O50 S3 1.514060 1_555
O51 S0 1.514064 1_555
O52 S1 1.517071 1_555
O53 P0 1.609722 1_555
O54 S8 1.453915 1_555
O55 S9 1.455358 1_655
O56 P4 1.511643 1_545
O57 P5 1.511637 1_545
O58 S10 1.455374 1_555
O59 S11 1.453905 1_655
O60 S7 1.513475 1_555
O61 P3 1.609546 1_455
O62 S6 1.517442 1_565
O63 S5 1.517435 1_565
O64 P2 1.609563 1_555
O65 S4 1.513466 1_455
O66 P0 1.508424 1_565
O67 S0 1.456679 1_555
O68 S1 1.457526 1_455
O69 S2 1.457529 1_555
O70 S3 1.456671 1_455
O71 P1 1.508429 1_565
