# generated using pymatgen
data_V3Sn
_symmetry_space_group_name_H-M   'P 1'
_cell_length_a   4.93853807
_cell_length_b   4.93863323
_cell_length_c   4.93859360
_cell_angle_alpha   90.00000000
_cell_angle_beta   90.00000000
_cell_angle_gamma   90.00000000
_symmetry_Int_Tables_number   1
_chemical_formula_structural   V3Sn
_chemical_formula_sum   'V6 Sn2'
_cell_volume   120.45046183
_cell_formula_units_Z   2
loop_
 _symmetry_equiv_pos_site_id
 _symmetry_equiv_pos_as_xyz
  1  'x, y, z'
loop_
 _atom_site_type_symbol
 _atom_site_label
 _atom_site_symmetry_multiplicity
 _atom_site_fract_x
 _atom_site_fract_y
 _atom_site_fract_z
 _atom_site_occupancy
  V  V0  1  0.50000162  0.25000484  -0.00000000  1
  V  V1  1  0.50000162  0.74999516  -0.00000000  1
  V  V2  1  0.25000674  0.00000000  0.50000000  1
  V  V3  1  0.74999505  0.00000000  0.50000000  1
  V  V4  1  -0.00000157  0.50000000  0.24998622  1
  V  V5  1  -0.00000157  0.50000000  0.75001378  1
  Sn  Sn0  1  0.49999972  0.50000000  0.50000000  1
  Sn  Sn1  1  0.00000039  0.00000000  0.00000000  1
loop_
_geom_bond_atom_site_label_1
_geom_bond_atom_site_label_2
_geom_bond_distance
_geom_bond_site_symmetry_2
V0 V1 2.469269 1_555
V0 V1 2.469364 1_545
V0 V4 3.024190 1_655
V0 V5 3.024190 1_654
V0 V5 3.024215 1_554
V0 V4 3.024215 1_555
V0 V3 3.024253 1_554
V0 V3 3.024253 1_555
V0 V2 3.024256 1_555
V0 V2 3.024256 1_554
V1 V4 3.024190 1_655
V1 V5 3.024190 1_654
V1 V5 3.024215 1_554
V1 V4 3.024215 1_555
V1 V3 3.024253 1_565
V1 V3 3.024253 1_564
V1 V2 3.024256 1_564
V1 V2 3.024256 1_565
V2 V3 2.469211 1_555
V2 V3 2.469327 1_455
V2 V4 3.024314 1_555
V2 V5 3.024314 1_555
V2 V5 3.024314 1_545
V2 V4 3.024314 1_545
V3 V5 3.024304 1_655
V3 V4 3.024304 1_645
V3 V4 3.024304 1_655
V3 V5 3.024304 1_645
V4 V5 2.469161 1_554
V4 V5 2.469433 1_555
Sn0 V0 2.760751 1_555
Sn0 V1 2.760751 1_555
Sn0 V0 2.760751 1_556
Sn0 V1 2.760751 1_556
Sn0 V2 2.760754 1_565
Sn0 V2 2.760754 1_555
Sn0 V4 2.760758 1_655
Sn0 V5 2.760758 1_655
Sn0 V3 2.760759 1_565
Sn0 V3 2.760759 1_555
Sn0 V5 2.760769 1_555
Sn0 V4 2.760769 1_555
Sn1 V0 2.760743 1_455
Sn1 V1 2.760743 1_445
Sn1 V4 2.760745 1_545
Sn1 V5 2.760745 1_554
Sn1 V4 2.760745 1_555
Sn1 V5 2.760745 1_544
Sn1 V0 2.760753 1_555
Sn1 V1 2.760753 1_545
Sn1 V3 2.760763 1_454
Sn1 V3 2.760763 1_455
Sn1 V2 2.760766 1_555
Sn1 V2 2.760766 1_554
