# generated using pymatgen
data_Na7Ca2Hf2SiP5O24
_symmetry_space_group_name_H-M   'P 1'
_cell_length_a   9.29441416
_cell_length_b   9.29969597
_cell_length_c   22.50514626
_cell_angle_alpha   89.92660073
_cell_angle_beta   90.07381465
_cell_angle_gamma   119.95229587
_symmetry_Int_Tables_number   1
_chemical_formula_structural   Na7Ca2Hf2SiP5O24
_chemical_formula_sum   'Na21 Ca6 Hf6 Si3 P15 O72'
_cell_volume   1685.43236270
_cell_formula_units_Z   3
loop_
 _symmetry_equiv_pos_site_id
 _symmetry_equiv_pos_as_xyz
  1  'x, y, z'
loop_
 _atom_site_type_symbol
 _atom_site_label
 _atom_site_symmetry_multiplicity
 _atom_site_fract_x
 _atom_site_fract_y
 _atom_site_fract_z
 _atom_site_occupancy
  Na  Na0  1  0.34941350  0.36094946  0.25633754  1
  Na  Na1  1  0.01542478  0.64405270  0.25539843  1
  Na  Na2  1  0.63279559  0.65362918  0.75253933  1
  Na  Na3  1  0.00716987  0.36344255  0.75736979  1
  Na  Na4  1  0.35374661  0.98359683  0.75499723  1
  Na  Na5  1  0.29768748  0.30819829  0.58436461  1
  Na  Na6  1  0.02090275  0.70187176  0.58772095  1
  Na  Na7  1  0.67803635  0.98077185  0.59240650  1
  Na  Na8  1  0.29762573  0.98105860  0.08880528  1
  Na  Na9  1  0.69149160  0.70189161  0.08552585  1
  Na  Na10  1  0.01787547  0.32411150  0.09014531  1
  Na  Na11  1  0.96780278  0.65406235  0.92699442  1
  Na  Na12  1  0.68884157  0.03528604  0.92126196  1
  Na  Na13  1  0.96634642  0.31284591  0.42194122  1
  Na  Na14  1  0.34790244  0.03067009  0.42571049  1
  Na  Na15  1  0.99618812  0.98536563  0.50447710  1
  Na  Na16  1  0.01533665  0.00271426  0.00378496  1
  Na  Na17  1  0.64985136  0.33362784  0.83891555  1
  Na  Na18  1  0.66302252  0.33440898  0.33795585  1
  Na  Na19  1  0.35085480  0.68650939  0.17281005  1
  Na  Na20  1  0.34415799  0.67972670  0.67149222  1
  Ca  Ca0  1  0.99936077  -0.00002998  0.65224877  1
  Ca  Ca1  1  0.99449526  0.99716863  0.15312995  1
  Ca  Ca2  1  0.66013396  0.33623248  0.98306961  1
  Ca  Ca3  1  0.66286358  0.33930511  0.48173501  1
  Ca  Ca4  1  0.34558008  0.67440676  0.31654800  1
  Ca  Ca5  1  0.33408289  0.66430386  0.81954594  1
  Hf  Hf0  1  0.99250671  0.99519213  0.35043670  1
  Hf  Hf1  1  0.00065610  0.00494431  0.85068835  1
  Hf  Hf2  1  0.66366010  0.32617501  0.68393934  1
  Hf  Hf3  1  0.67214599  0.33253474  0.18446757  1
  Hf  Hf4  1  0.33008439  0.66158577  0.01722516  1
  Hf  Hf5  1  0.34035951  0.67153133  0.51714167  1
  Si  Si0  1  0.70034314  0.00786659  0.74768864  1
  Si  Si1  1  0.36688270  0.02602846  0.57948906  1
  Si  Si2  1  0.97349138  0.63188466  0.08050959  1
  P  P0  1  0.30408811  0.01140145  0.24858331  1
  P  P1  1  0.70312660  0.68870432  0.24611719  1
  P  P2  1  0.98917097  0.29569041  0.24911383  1
  P  P3  1  0.30499130  0.29460225  0.74704741  1
  P  P4  1  0.98818032  0.69412943  0.74972070  1
  P  P5  1  0.97167341  0.34543071  0.58057406  1
  P  P6  1  0.65715522  0.62617660  0.58478365  1
  P  P7  1  0.65615749  0.03045881  0.07966399  1
  P  P8  1  0.37372035  0.34314214  0.08580582  1
  P  P9  1  0.64381996  0.67995614  0.91383860  1
  P  P10  1  0.03635840  0.35804407  0.91514023  1
  P  P11  1  0.32204655  0.95954639  0.91456733  1
  P  P12  1  0.64027287  0.96354641  0.41740134  1
  P  P13  1  0.31835993  0.35701036  0.41293151  1
  P  P14  1  0.04327663  0.67734907  0.41306179  1
  O  O0  1  0.19972198  0.02816456  0.30195222  1
  O  O1  1  0.82542870  0.80011682  0.29781911  1
  O  O2  1  0.97632237  0.18048092  0.30338122  1
  O  O3  1  0.20117048  0.17195701  0.79934626  1
  O  O4  1  0.97545710  0.79764179  0.80377493  1
  O  O5  1  0.82936001  0.02793044  0.80450473  1
  O  O6  1  0.77474695  0.98358325  0.68721120  1
  O  O7  1  0.21658518  0.22792952  0.68832633  1
  O  O8  1  0.01990152  0.79250089  0.69237710  1
  O  O9  1  0.77034540  0.77253199  0.18654241  1
  O  O10  1  0.01024655  0.22403192  0.19123901  1
  O  O11  1  0.21378077  0.99714093  0.19026222  1
  O  O12  1  0.87556855  0.36687779  0.63577429  1
  O  O13  1  0.49369192  0.13430892  0.63714394  1
  O  O14  1  0.63691100  0.51973347  0.64258300  1
  O  O15  1  0.86591174  0.50290135  0.13779027  1
  O  O16  1  0.63423822  0.13121524  0.13259057  1
  O  O17  1  0.48428782  0.36382439  0.14271015  1
  O  O18  1  0.44477090  0.30070749  0.03302363  1
  O  O19  1  0.87087499  0.55543095  0.02077598  1
  O  O20  1  0.67940065  0.12220637  0.02158212  1
  O  O21  1  0.44401274  0.12861535  0.51989186  1
  O  O22  1  0.69145285  0.54867164  0.53218614  1
  O  O23  1  0.87432411  0.32304892  0.52403024  1
  O  O24  1  0.54143884  0.69228419  0.96830411  1
  O  O25  1  0.15140745  0.46075938  0.96963719  1
  O  O26  1  0.30617812  0.83812030  0.96825391  1
  O  O27  1  0.55034317  0.85499856  0.47480328  1
  O  O28  1  0.30634122  0.45820742  0.46822639  1
  O  O29  1  0.16552659  0.69926935  0.46721557  1
  O  O30  1  0.11866392  0.66086074  0.35553748  1
  O  O31  1  0.53027550  0.88560844  0.36443339  1
  O  O32  1  0.32731206  0.44619993  0.35548576  1
  O  O33  1  0.10840494  0.45160662  0.85754548  1
  O  O34  1  0.33531358  0.88382982  0.85645865  1
  O  O35  1  0.55742554  0.67116691  0.85561613  1
  O  O36  1  0.03712852  0.84487159  0.41195109  1
  O  O37  1  0.81293977  0.97041701  0.41195814  1
  O  O38  1  0.14769608  0.18415784  0.41366753  1
  O  O39  1  0.02819860  0.18467891  0.91441592  1
  O  O40  1  0.15439377  0.96288010  0.91546004  1
  O  O41  1  0.81635554  0.84940008  0.91530222  1
  O  O42  1  0.00116420  0.19825661  0.58783272  1
  O  O43  1  0.17798594  0.99102041  0.58523871  1
  O  O44  1  0.79811137  0.80664656  0.58931411  1
  O  O45  1  0.00867544  0.82107659  0.08651682  1
  O  O46  1  0.80454853  0.00352510  0.08872613  1
  O  O47  1  0.19123638  0.20746999  0.09259946  1
  O  O48  1  0.70106746  0.18931870  0.74682891  1
  O  O49  1  0.47706614  0.29982860  0.74748039  1
  O  O50  1  0.81685543  0.52761739  0.74774638  1
  O  O51  1  0.70667339  0.52069008  0.24863109  1
  O  O52  1  0.82433395  0.30552114  0.24789539  1
  O  O53  1  0.47572768  0.17892323  0.24878973  1
  O  O54  1  0.67782464  0.53570445  0.91780140  1
  O  O55  1  0.85931623  0.32933177  0.92136853  1
  O  O56  1  0.47608836  0.13006879  0.92104976  1
  O  O57  1  0.67573308  0.14315771  0.42242002  1
  O  O58  1  0.46176978  0.32107731  0.41653105  1
  O  O59  1  0.87256807  0.52459012  0.42085152  1
  O  O60  1  0.38187355  0.51668898  0.07829804  1
  O  O61  1  0.15593032  0.63286427  0.07871157  1
  O  O62  1  0.49025801  0.85679504  0.07845981  1
  O  O63  1  0.36603823  0.84464542  0.57892594  1
  O  O64  1  0.48506179  0.62208029  0.57850580  1
  O  O65  1  0.14462521  0.51197893  0.57809029  1
  O  O66  1  0.32118674  0.85712883  0.25449470  1
  O  O67  1  0.52443348  0.65000188  0.25346326  1
  O  O68  1  0.13798695  0.47267028  0.25534210  1
  O  O69  1  0.33214724  0.46984055  0.75567732  1
  O  O70  1  0.12992856  0.65584970  0.75724900  1
  O  O71  1  0.51174306  0.85361825  0.75356603  1
loop_
_geom_bond_atom_site_label_1
_geom_bond_atom_site_label_2
_geom_bond_distance
_geom_bond_site_symmetry_2
Na0 O67 2.347259 1_555
Na0 O32 2.412047 1_555
Na0 O53 2.501689 1_555
Na0 O68 2.641982 1_555
Na0 O17 2.843601 1_555
Na0 O0 2.874594 1_555
Na0 O51 2.887550 1_555
Na1 O68 2.377146 1_555
Na1 O30 2.422733 1_555
Na1 O51 2.507230 1_455
Na1 O66 2.525879 1_555
Na1 O52 2.740715 1_455
Na1 O1 2.950150 1_455
Na1 O15 2.972810 1_455
Na2 O69 2.442482 1_555
Na2 O35 2.453131 1_555
Na2 O50 2.512801 1_555
Na2 O71 2.610573 1_555
Na2 O14 2.780507 1_555
Na2 O49 2.859843 1_555
Na3 O70 2.366057 1_555
Na3 O33 2.422626 1_555
Na3 O48 2.484268 1_455
Na3 O69 2.668260 1_555
Na3 O50 2.863869 1_455
Na3 O5 2.904969 1_455
Na3 O12 3.002644 1_455
Na4 O71 2.321916 1_555
Na4 O34 2.437408 1_555
Na4 O49 2.573778 1_565
Na4 O70 2.699729 1_555
Na4 O48 2.819302 1_565
Na4 O3 2.926473 1_565
Na4 O13 2.978244 1_565
Na4 O8 3.043199 1_555
Na5 O42 2.415293 1_555
Na5 O7 2.457173 1_555
Na5 O64 2.548395 1_555
Na5 O43 2.581014 1_545
Na5 O65 2.885501 1_555
Na6 O43 2.333445 1_555
Na6 O8 2.504168 1_555
Na6 O65 2.552896 1_555
Na6 O44 2.693246 1_455
Na6 O63 2.800034 1_555
Na6 O12 2.914197 1_455
Na6 O22 2.933671 1_455
Na6 O29 3.033873 1_555
Na7 O6 2.309243 1_555
Na7 O44 2.382774 1_555
Na7 O63 2.537067 1_555
Na7 O42 2.656265 1_665
Na7 O27 2.897451 1_555
Na7 O13 2.905018 1_565
Na7 O64 2.910123 1_555
Na8 O45 2.332103 1_555
Na8 O11 2.442330 1_555
Na8 O62 2.581277 1_555
Na8 O47 2.738274 1_565
Na8 O61 2.830917 1_555
Na8 O18 2.866742 1_565
Na8 O16 2.888296 1_565
Na8 O26 3.041238 1_554
Na9 O9 2.378188 1_555
Na9 O46 2.456609 1_565
Na9 O60 2.514840 1_555
Na9 O45 2.580114 1_655
Na9 O62 2.878852 1_555
Na10 O47 2.349649 1_555
Na10 O10 2.444698 1_555
Na10 O61 2.505404 1_555
Na10 O46 2.630233 1_455
Na10 O15 2.874488 1_455
Na10 O60 2.945347 1_555
Na10 O25 2.989214 1_554
Na11 O19 2.298309 1_556
Na11 O54 2.356941 1_555
Na11 O40 2.519664 1_655
Na11 O55 2.666933 1_555
Na11 O41 2.811007 1_555
Na11 O26 2.881694 1_655
Na12 O55 2.379433 1_555
Na12 O20 2.415453 1_556
Na12 O56 2.535271 1_555
Na12 O41 2.541217 1_545
Na12 O39 2.743609 1_655
Na12 O5 2.951848 1_555
Na12 O24 2.967148 1_545
Na13 O57 2.351581 1_555
Na13 O23 2.470997 1_555
Na13 O38 2.514677 1_655
Na13 O59 2.520235 1_555
Na13 O37 2.773344 1_545
Na13 O28 2.937322 1_655
Na13 O2 2.960779 1_555
Na14 O21 2.303860 1_555
Na14 O58 2.366757 1_555
Na14 O36 2.537718 1_545
Na14 O57 2.683561 1_555
Na14 O29 2.832701 1_545
Na14 O38 2.867654 1_555
Na14 O31 2.981446 1_545
Na15 O43 2.462715 1_655
Na15 O36 2.587151 1_655
Na15 O44 2.596632 1_555
Na15 O38 2.641118 1_665
Na15 O37 2.647773 1_555
Na15 O42 2.712712 1_665
Na16 O45 2.492308 1_545
Na16 O40 2.499096 1_544
Na16 O39 2.590938 1_554
Na16 O41 2.604467 1_444
Na16 O47 2.680776 1_555
Na16 O46 2.741722 1_455
Na17 O54 2.504091 1_555
Na17 O49 2.530080 1_555
Na17 O56 2.560170 1_555
Na17 O48 2.640108 1_555
Na17 O50 2.660115 1_555
Na17 O55 2.702465 1_555
Na18 O58 2.533313 1_555
Na18 O51 2.549156 1_555
Na18 O53 2.575453 1_555
Na18 O52 2.615244 1_555
Na18 O59 2.638382 1_555
Na18 O57 2.644090 1_555
Na19 O66 2.533535 1_555
Na19 O67 2.559393 1_555
Na19 O62 2.577761 1_555
Na19 O61 2.665731 1_555
Na19 O68 2.718490 1_555
Na19 O60 2.750678 1_555
Na20 O71 2.436801 1_555
Na20 O63 2.532751 1_555
Na20 O64 2.663227 1_555
Na20 O69 2.680537 1_555
Na20 O70 2.702966 1_555
Na20 O65 2.720455 1_555
Ca0 O6 2.164919 1_545
Ca0 O8 2.222053 1_645
Ca0 O7 2.226190 1_655
Ca0 O43 2.276461 1_645
Ca0 O44 2.319214 1_545
Ca0 O42 2.337647 1_655
Ca1 O11 2.201920 1_655
Ca1 O10 2.214492 1_665
Ca1 O9 2.219001 1_555
Ca1 O45 2.273509 1_655
Ca1 O46 2.306186 1_565
Ca1 O47 2.335142 1_665
Ca2 O18 2.173528 1_556
Ca2 O19 2.173746 1_556
Ca2 O20 2.257428 1_556
Ca2 O56 2.296947 1_555
Ca2 O54 2.305389 1_555
Ca2 O55 2.342016 1_555
Ca3 O22 2.153836 1_555
Ca3 O21 2.175875 1_555
Ca3 O23 2.254596 1_555
Ca3 O59 2.300570 1_555
Ca3 O57 2.312607 1_555
Ca3 O58 2.313572 1_555
Ca4 O31 2.144713 1_555
Ca4 O32 2.221822 1_555
Ca4 O30 2.230045 1_555
Ca4 O67 2.283453 1_555
Ca4 O66 2.294985 1_555
Ca4 O68 2.350539 1_555
Ca5 O35 2.199008 1_555
Ca5 O34 2.199787 1_555
Ca5 O33 2.213794 1_555
Ca5 O71 2.264461 1_555
Ca5 O69 2.304552 1_555
Ca5 O70 2.327388 1_555
Hf0 O1 2.071834 1_555
Hf0 O2 2.089738 1_565
Hf0 O37 2.092051 1_555
Hf0 O0 2.099701 1_665
Hf0 O36 2.148316 1_655
Hf0 O38 2.159558 1_665
Hf1 O5 1.998941 1_455
Hf1 O3 2.081155 1_555
Hf1 O4 2.107100 1_445
Hf1 O39 2.119958 1_555
Hf1 O41 2.160547 1_445
Hf1 O40 2.207033 1_545
Hf2 O13 1.993560 1_555
Hf2 O48 2.044472 1_555
Hf2 O12 2.111264 1_555
Hf2 O14 2.147133 1_555
Hf2 O49 2.166529 1_555
Hf2 O50 2.221929 1_555
Hf3 O15 2.002117 1_555
Hf3 O16 2.082839 1_555
Hf3 O52 2.109561 1_555
Hf3 O17 2.125758 1_555
Hf3 O51 2.166672 1_555
Hf3 O53 2.205979 1_555
Hf4 O61 2.044333 1_555
Hf4 O25 2.072771 1_554
Hf4 O26 2.078035 1_554
Hf4 O60 2.139579 1_555
Hf4 O24 2.144141 1_554
Hf4 O62 2.171055 1_555
Hf5 O63 2.050209 1_555
Hf5 O27 2.074490 1_555
Hf5 O29 2.093478 1_555
Hf5 O64 2.130420 1_555
Hf5 O28 2.150775 1_555
Hf5 O65 2.167588 1_555
O0 P0 1.600721 1_555
O1 P1 1.594723 1_555
O2 P2 1.588398 1_555
O3 P3 1.586763 1_555
O4 P4 1.592972 1_555
O5 Si0 1.697333 1_555
O6 Si0 1.594004 1_565
O7 P3 1.515455 1_555
O8 P4 1.522469 1_455
O9 P1 1.519466 1_555
O10 P2 1.520576 1_455
O11 P0 1.526852 1_565
O12 P5 1.600729 1_555
O13 Si1 1.703234 1_555
O14 P6 1.587030 1_555
O15 Si2 1.703559 1_555
O16 P7 1.591336 1_555
O17 P8 1.591535 1_555
O18 P8 1.505427 1_555
O19 Si2 1.595104 1_555
O20 P7 1.515616 1_555
O21 Si1 1.593512 1_555
O22 P6 1.501634 1_555
O23 P5 1.513596 1_555
O24 P9 1.591669 1_555
O25 P10 1.593660 1_555
O26 P11 1.608529 1_555
O27 P12 1.594805 1_555
O28 P13 1.598457 1_555
O29 P14 1.607390 1_555
O30 P14 1.516762 1_555
O31 P12 1.500226 1_555
O32 P13 1.514893 1_555
O33 P10 1.517598 1_555
O34 P11 1.520096 1_555
O35 P9 1.516704 1_555
O36 P14 1.587375 1_555
O37 P12 1.578825 1_555
O38 P13 1.598191 1_555
O39 P10 1.575853 1_555
O40 P11 1.574097 1_555
O41 P9 1.591366 1_555
O42 P5 1.532648 1_455
O43 Si1 1.623231 1_565
O44 P6 1.532322 1_555
O45 Si2 1.626889 1_455
O46 P7 1.533183 1_555
O47 P8 1.534692 1_555
O48 Si0 1.684185 1_555
O49 P3 1.575649 1_555
O50 P4 1.572655 1_555
O51 P1 1.580138 1_555
O52 P2 1.579898 1_555
O53 P0 1.578071 1_555
O54 P9 1.526582 1_555
O55 P10 1.536354 1_655
O56 P11 1.522760 1_545
O57 P12 1.536898 1_545
O58 P13 1.529478 1_555
O59 P14 1.521716 1_655
O60 P8 1.586278 1_555
O61 Si2 1.691669 1_455
O62 P7 1.581118 1_565
O63 Si1 1.682966 1_565
O64 P6 1.586954 1_555
O65 P5 1.581112 1_455
O66 P0 1.525915 1_565
O67 P1 1.522805 1_555
O68 P2 1.538999 1_455
O69 P3 1.532051 1_555
O70 P4 1.535823 1_455
O71 Si0 1.623934 1_565
