# generated using pymatgen
data_MgMn2O4
_symmetry_space_group_name_H-M   'P 1'
_cell_length_a   3.14216840
_cell_length_b   10.55869366
_cell_length_c   3.14320946
_cell_angle_alpha   98.23988111
_cell_angle_beta   60.77693032
_cell_angle_gamma   106.83330611
_symmetry_Int_Tables_number   1
_chemical_formula_structural   MgMn2O4
_chemical_formula_sum   'Mg1 Mn2 O4'
_cell_volume   87.11041976
_cell_formula_units_Z   1
loop_
 _symmetry_equiv_pos_site_id
 _symmetry_equiv_pos_as_xyz
  1  'x, y, z'
loop_
 _atom_site_type_symbol
 _atom_site_label
 _atom_site_symmetry_multiplicity
 _atom_site_fract_x
 _atom_site_fract_y
 _atom_site_fract_z
 _atom_site_occupancy
  Mg  Mg0  1  0.95890258  0.28360453  0.67733900  1
  Mn  Mn0  1  0.89200844  0.55824626  0.34878412  1
  Mn  Mn1  1  0.00581512  0.98712624  0.00877646  1
  O  O0  1  0.25756842  0.90598329  0.33878717  1
  O  O1  1  0.27917126  0.61112334  0.68542027  1
  O  O2  1  0.68711418  0.34953685  0.34215482  1
  O  O3  1  0.77358700  0.08562849  0.68207216  1
loop_
_geom_bond_atom_site_label_1
_geom_bond_atom_site_label_2
_geom_bond_distance
_geom_bond_site_symmetry_2
Mg0 O2 1.938306 1_555
Mg0 O2 1.940125 1_655
Mg0 O2 1.940484 1_556
Mg0 O3 2.001101 1_555
Mn0 O1 1.898104 1_654
Mn0 O1 1.898220 1_555
Mn0 O1 1.898801 1_655
Mn0 O2 2.109369 1_555
Mn1 O0 1.970852 1_555
Mn1 O0 2.010832 1_554
Mn1 O0 2.011106 1_455
Mn1 O3 2.036185 1_464
Mn1 O3 2.095284 1_564
Mn1 O3 2.096122 1_465
