# generated using pymatgen
data_MgMn6(O5F)2
_symmetry_space_group_name_H-M   'P 1'
_cell_length_a   5.10973016
_cell_length_b   7.57986835
_cell_length_c   5.63262480
_cell_angle_alpha   97.81563320
_cell_angle_beta   97.25604560
_cell_angle_gamma   84.59292241
_symmetry_Int_Tables_number   1
_chemical_formula_structural   MgMn6(O5F)2
_chemical_formula_sum   'Mg1 Mn6 O10 F2'
_cell_volume   213.74024612
_cell_formula_units_Z   1
loop_
 _symmetry_equiv_pos_site_id
 _symmetry_equiv_pos_as_xyz
  1  'x, y, z'
loop_
 _atom_site_type_symbol
 _atom_site_label
 _atom_site_symmetry_multiplicity
 _atom_site_fract_x
 _atom_site_fract_y
 _atom_site_fract_z
 _atom_site_occupancy
  Mg  Mg0  1  0.02617044  0.49100792  0.00519547  1
  Mn  Mn0  1  0.47708454  0.99741195  0.52344077  1
  Mn  Mn1  1  0.52831273  0.69382206  0.14420443  1
  Mn  Mn2  1  0.53006810  0.34121086  0.82334822  1
  Mn  Mn3  1  0.99643450  0.69059959  0.65121672  1
  Mn  Mn4  1  0.98095100  0.31572148  0.37776123  1
  Mn  Mn5  1  0.00457881  0.00249063  0.99764840  1
  O  O0  1  0.85219421  0.45307782  0.65594399  1
  O  O1  1  0.85783453  0.76396352  0.94741421  1
  O  O2  1  0.68576633  0.09882361  0.81384167  1
  O  O3  1  0.68331741  0.77138377  0.46785221  1
  O  O4  1  0.69762892  0.44918268  0.13941536  1
  O  O5  1  0.31742626  0.57515075  0.85988106  1
  O  O6  1  0.31494048  0.23701587  0.54970583  1
  O  O7  1  0.30134646  0.90638932  0.20639772  1
  O  O8  1  0.12834777  0.23523730  0.07553396  1
  O  O9  1  0.16036601  0.90977140  0.71462752  1
  F  F0  1  0.80993098  0.07514169  0.29143935  1
  F  F1  1  0.16118948  0.58188578  0.35513087  1
loop_
_geom_bond_atom_site_label_1
_geom_bond_atom_site_label_2
_geom_bond_distance
_geom_bond_site_symmetry_2
Mg0 O5 1.979937 1_554
Mg0 O4 1.994085 1_455
Mg0 O8 2.038143 1_555
Mg0 O0 2.048269 1_454
Mg0 O1 2.214371 1_454
Mn0 O6 1.918615 1_565
Mn0 O3 1.934164 1_555
Mn0 O2 1.943035 1_565
Mn0 O7 1.961630 1_555
Mn0 O9 2.248873 1_555
Mn1 O7 1.913303 1_555
Mn1 O3 1.930743 1_555
Mn1 O4 1.969194 1_555
Mn1 O5 1.972309 1_554
Mn1 O1 2.268664 1_554
Mn2 O6 1.900613 1_555
Mn2 O2 1.928698 1_555
Mn2 O4 1.980666 1_556
Mn2 O5 1.990328 1_555
Mn2 O0 2.278133 1_555
Mn3 O1 1.888431 1_555
Mn3 O3 1.889826 1_555
Mn3 O9 1.901164 1_655
Mn3 O0 2.013300 1_555
Mn3 O5 2.087973 1_655
Mn4 O0 1.913016 1_555
Mn4 O6 1.937553 1_655
Mn4 O8 1.947354 1_655
Mn4 O4 2.126958 1_555
Mn5 O9 1.891909 1_545
Mn5 O8 1.906431 1_556
Mn5 O7 1.946018 1_546
Mn5 O2 1.953005 1_455
Mn5 O1 1.993475 1_445
F0 Mn5 2.023755 1_654
F0 Mn4 2.068159 1_555
F0 Mn0 2.430440 1_545
F1 Mn3 2.004811 1_455
F1 Mg0 2.052395 1_555
F1 Mn4 2.320446 1_455
F1 Mn1 2.605284 1_555
