# generated using pymatgen
data_Na8Ca3Si3Sn(SO8)3
_symmetry_space_group_name_H-M   'P 1'
_cell_length_a   9.48225394
_cell_length_b   9.49192281
_cell_length_c   22.98502252
_cell_angle_alpha   90.37322297
_cell_angle_beta   89.32267264
_cell_angle_gamma   120.11082574
_symmetry_Int_Tables_number   1
_chemical_formula_structural   Na8Ca3Si3Sn(SO8)3
_chemical_formula_sum   'Na24 Ca9 Si9 Sn3 S9 O72'
_cell_volume   1789.47161814
_cell_formula_units_Z   3
loop_
 _symmetry_equiv_pos_site_id
 _symmetry_equiv_pos_as_xyz
  1  'x, y, z'
loop_
 _atom_site_type_symbol
 _atom_site_label
 _atom_site_symmetry_multiplicity
 _atom_site_fract_x
 _atom_site_fract_y
 _atom_site_fract_z
 _atom_site_occupancy
  Na  Na0  1  0.62928821  0.99639129  0.26461464  1
  Na  Na1  1  0.37081535  0.36926718  0.24000127  1
  Na  Na2  1  0.00068076  0.62391377  0.25317211  1
  Na  Na3  1  0.63949580  0.65576714  0.72857035  1
  Na  Na4  1  0.97501192  0.33775469  0.75430265  1
  Na  Na5  1  0.38622233  0.01076760  0.73718184  1
  Na  Na6  1  0.32549188  0.33354797  0.58215803  1
  Na  Na7  1  0.04709116  0.72567007  0.56709355  1
  Na  Na8  1  0.64440418  0.93553303  0.58149657  1
  Na  Na9  1  0.27610504  0.95312837  0.06902203  1
  Na  Na10  1  0.66485845  0.67310198  0.08365112  1
  Na  Na11  1  0.06494054  0.35815837  0.07576737  1
  Na  Na12  1  0.99422178  0.67942201  0.92604962  1
  Na  Na13  1  0.71025100  0.04754214  0.90353404  1
  Na  Na14  1  0.30646951  0.28328217  0.92676354  1
  Na  Na15  1  0.96276237  0.30984549  0.41611172  1
  Na  Na16  1  0.32763138  0.99869381  0.42939967  1
  Na  Na17  1  0.71093219  0.69177227  0.43397166  1
  Na  Na18  1  0.98876880  0.97040785  0.50198121  1
  Na  Na19  1  0.03174257  0.01321642  0.00059767  1
  Na  Na20  1  0.66693706  0.30420094  0.83395768  1
  Na  Na21  1  0.68175103  0.33108046  0.34718288  1
  Na  Na22  1  0.31111142  0.64544138  0.15290090  1
  Na  Na23  1  0.36751695  0.69677190  0.65300402  1
  Ca  Ca0  1  0.99717427  0.99456495  0.35178485  1
  Ca  Ca1  1  0.99823998  0.00318409  0.84894446  1
  Ca  Ca2  1  0.98200292  0.98565530  0.64841692  1
  Ca  Ca3  1  0.00714216  0.99848409  0.14450187  1
  Ca  Ca4  1  0.66328170  0.32938387  0.68149929  1
  Ca  Ca5  1  0.66641252  0.33606814  0.17957164  1
  Ca  Ca6  1  0.33123728  0.66848064  0.01509012  1
  Ca  Ca7  1  0.33814727  0.67500968  0.51271170  1
  Ca  Ca8  1  0.32969472  0.68003466  0.33065668  1
  Si  Si0  1  0.68092905  0.98791405  0.75639648  1
  Si  Si1  1  0.36174836  0.03380842  0.58501809  1
  Si  Si2  1  0.66451712  0.62889951  0.58436956  1
  Si  Si3  1  0.96408113  0.63178708  0.08342685  1
  Si  Si4  1  0.37079059  0.33511069  0.08342774  1
  Si  Si5  1  0.02986616  0.37062526  0.91859593  1
  Si  Si6  1  0.34402697  0.98157496  0.92103725  1
  Si  Si7  1  0.64738392  0.98931171  0.41683007  1
  Si  Si8  1  0.01145179  0.65385805  0.41772103  1
  Sn  Sn0  1  0.66988013  0.33308338  0.98386519  1
  Sn  Sn1  1  0.66432410  0.33108909  0.48763948  1
  Sn  Sn2  1  0.33069083  0.68196992  0.82432666  1
  S  S0  1  0.30467359  0.99714072  0.24926299  1
  S  S1  1  0.69179455  0.69562574  0.24992070  1
  S  S2  1  0.00239956  0.30244361  0.24899959  1
  S  S3  1  0.30394810  0.31517248  0.75335603  1
  S  S4  1  0.00913613  0.69551162  0.75380262  1
  S  S5  1  0.96580813  0.33142736  0.58281978  1
  S  S6  1  0.67121572  0.03819061  0.08261446  1
  S  S7  1  0.62699339  0.65648174  0.91571930  1
  S  S8  1  0.34095381  0.36325466  0.41492114  1
  O  O0  1  0.22384703  0.01476241  0.30201300  1
  O  O1  1  0.78932568  0.78331016  0.30145309  1
  O  O2  1  0.99453336  0.20898563  0.30147869  1
  O  O3  1  0.22532564  0.21386954  0.80541389  1
  O  O4  1  0.99141929  0.77233346  0.80718090  1
  O  O5  1  0.78594389  0.00735077  0.81364092  1
  O  O6  1  0.75266996  0.94992582  0.69697323  1
  O  O7  1  0.20710725  0.23670915  0.70064225  1
  O  O8  1  0.03181323  0.79569605  0.70195420  1
  O  O9  1  0.77112150  0.78936773  0.19611785  1
  O  O10  1  0.01013654  0.21749221  0.19563407  1
  O  O11  1  0.21078822  0.98700960  0.19662041  1
  O  O12  1  0.89191620  0.35424029  0.63657901  1
  O  O13  1  0.46516225  0.11299647  0.64372745  1
  O  O14  1  0.65776785  0.53904061  0.64483747  1
  O  O15  1  0.88518246  0.52794738  0.14223782  1
  O  O16  1  0.64711017  0.11165466  0.13577163  1
  O  O17  1  0.46055505  0.34486651  0.14422671  1
  O  O18  1  0.47006563  0.31051082  0.02491716  1
  O  O19  1  0.84632416  0.53058611  0.02430684  1
  O  O20  1  0.69205385  0.14162917  0.02944192  1
  O  O21  1  0.46417939  0.15121056  0.52633524  1
  O  O22  1  0.68304785  0.52816127  0.52654557  1
  O  O23  1  0.86157493  0.31172797  0.53035056  1
  O  O24  1  0.55776547  0.68270370  0.96916691  1
  O  O25  1  0.14145862  0.44911507  0.97418008  1
  O  O26  1  0.32142451  0.87659512  0.97781630  1
  O  O27  1  0.56095031  0.86214265  0.46983478  1
  O  O28  1  0.31722209  0.44013635  0.46720310  1
  O  O29  1  0.12751173  0.67602609  0.47219759  1
  O  O30  1  0.07641769  0.61235952  0.35663597  1
  O  O31  1  0.53978127  0.92296444  0.35672265  1
  O  O32  1  0.36086329  0.46174066  0.36210954  1
  O  O33  1  0.12323248  0.49501424  0.85871637  1
  O  O34  1  0.37788696  0.89491836  0.86162249  1
  O  O35  1  0.52120695  0.63780982  0.86402220  1
  O  O36  1  0.99233307  0.81670269  0.41568145  1
  O  O37  1  0.83754869  0.03435039  0.41200418  1
  O  O38  1  0.19995433  0.19626587  0.41003038  1
  O  O39  1  0.99584374  0.18643704  0.91037996  1
  O  O40  1  0.18396624  0.00192483  0.91401991  1
  O  O41  1  0.79547143  0.79609538  0.90835626  1
  O  O42  1  0.97494164  0.18060763  0.58544804  1
  O  O43  1  0.18732414  0.03160600  0.58206525  1
  O  O44  1  0.82642982  0.81086279  0.57793093  1
  O  O45  1  0.96470045  0.80555270  0.07877670  1
  O  O46  1  0.82185084  0.02871022  0.08477424  1
  O  O47  1  0.18693721  0.17504352  0.07801634  1
  O  O48  1  0.66068428  0.15045619  0.75390986  1
  O  O49  1  0.47242439  0.34316519  0.74942182  1
  O  O50  1  0.86638673  0.52852652  0.74938464  1
  O  O51  1  0.67828182  0.53151309  0.24913837  1
  O  O52  1  0.85168532  0.31669159  0.24999538  1
  O  O53  1  0.47299245  0.14184256  0.24714550  1
  O  O54  1  0.63349980  0.50223138  0.91712024  1
  O  O55  1  0.84876509  0.36659506  0.92042320  1
  O  O56  1  0.51786966  0.16519019  0.92209232  1
  O  O57  1  0.64915919  0.16724072  0.42674076  1
  O  O58  1  0.49391792  0.35278977  0.41899630  1
  O  O59  1  0.82490006  0.48821509  0.42607611  1
  O  O60  1  0.36729207  0.50571173  0.07966391  1
  O  O61  1  0.14999963  0.66367426  0.08011505  1
  O  O62  1  0.52799249  0.87347464  0.07698107  1
  O  O63  1  0.33480154  0.84968194  0.58005786  1
  O  O64  1  0.49433723  0.63314805  0.57986859  1
  O  O65  1  0.12959678  0.47428682  0.57573370  1
  O  O66  1  0.31514217  0.84486798  0.25144775  1
  O  O67  1  0.52446433  0.67466669  0.25411959  1
  O  O68  1  0.15241926  0.46801755  0.24921569  1
  O  O69  1  0.31207148  0.47891792  0.75912846  1
  O  O70  1  0.16269758  0.68136657  0.75672030  1
  O  O71  1  0.49217677  0.81083467  0.76065746  1
loop_
_geom_bond_atom_site_label_1
_geom_bond_atom_site_label_2
_geom_bond_distance
_geom_bond_site_symmetry_2
Na0 O31 2.251989 1_555
Na0 O53 2.517540 1_565
Na0 O66 2.598172 1_555
Na0 O67 2.705977 1_555
Na0 O52 2.714217 1_565
Na1 O17 2.402212 1_555
Na1 O67 2.528349 1_555
Na1 O51 2.533990 1_555
Na1 O68 2.673326 1_555
Na1 O53 2.780741 1_555
Na1 O32 2.949822 1_555
Na2 O30 2.511181 1_555
Na2 O52 2.524105 1_455
Na2 O68 2.529732 1_555
Na2 O66 2.648580 1_555
Na2 O51 2.727440 1_455
Na2 O15 2.750565 1_455
Na3 O14 2.262439 1_555
Na3 O6 2.544934 1_555
Na3 O71 2.585781 1_555
Na3 O49 2.613013 1_555
Na3 O69 2.772202 1_555
Na3 O50 2.992528 1_555
Na4 O50 2.495890 1_555
Na4 O48 2.593867 1_555
Na4 O69 2.780694 1_655
Na4 O33 2.809157 1_655
Na4 O70 2.825602 1_655
Na4 O12 2.854251 1_555
Na5 O48 2.287735 1_555
Na5 O13 2.318700 1_555
Na5 O71 2.615565 1_545
Na5 O70 2.795816 1_545
Na5 O49 2.847487 1_555
Na6 O64 2.466757 1_555
Na6 O43 2.482544 1_555
Na6 O65 2.784887 1_555
Na6 O28 2.851405 1_555
Na6 O42 2.883755 1_455
Na6 O7 2.906334 1_555
Na6 O21 2.930186 1_555
Na7 O63 2.389502 1_555
Na7 O29 2.422592 1_555
Na7 O43 2.538267 1_565
Na7 O44 2.603199 1_455
Na7 O65 2.868425 1_555
Na8 O64 2.483210 1_555
Na8 O44 2.535923 1_555
Na8 O63 2.623983 1_555
Na8 O27 2.677737 1_555
Na8 O42 2.816320 1_565
Na8 O6 2.834875 1_555
Na9 O26 2.319316 1_554
Na9 O61 2.397722 1_555
Na9 O45 2.563187 1_455
Na9 O47 2.640398 1_565
Na9 O62 2.851993 1_555
Na10 O60 2.449567 1_555
Na10 O45 2.466709 1_555
Na10 O62 2.794668 1_555
Na10 O9 2.797209 1_555
Na10 O24 2.850097 1_554
Na10 O46 2.927160 1_565
Na11 O25 2.466105 1_554
Na11 O60 2.482892 1_555
Na11 O47 2.526236 1_555
Na11 O61 2.592581 1_555
Na11 O46 2.810646 1_455
Na11 O10 2.993573 1_555
Na12 O55 2.574106 1_555
Na12 O19 2.653669 1_556
Na12 O41 2.657377 1_555
Na12 O40 2.675353 1_665
Na12 O4 2.880974 1_555
Na12 O26 2.962571 1_655
Na12 O54 2.968234 1_555
Na12 O33 3.003991 1_655
Na13 O5 2.271398 1_555
Na13 O39 2.349820 1_555
Na13 O56 2.603085 1_555
Na13 O55 2.655740 1_555
Na13 O41 2.881382 1_545
Na13 O34 2.903744 1_545
Na14 O40 2.335081 1_555
Na14 O39 2.639596 1_455
Na14 O18 2.689964 1_556
Na14 O54 2.740056 1_555
Na14 O56 2.744816 1_555
Na14 O3 2.885142 1_555
Na14 O25 2.919285 1_555
Na15 O37 2.267373 1_555
Na15 O57 2.585170 1_555
Na15 O59 2.614646 1_555
Na15 O23 2.787954 1_555
Na15 O30 2.861262 1_655
Na15 O2 2.861369 1_555
Na15 O38 2.943433 1_655
Na16 O21 2.623355 1_565
Na16 O57 2.638444 1_565
Na16 O38 2.735406 1_565
Na16 O36 2.774522 1_455
Na16 O29 2.848285 1_555
Na16 O58 2.919633 1_565
Na16 O31 2.951228 1_555
Na17 O36 2.346922 1_555
Na17 O22 2.574298 1_555
Na17 O59 2.649489 1_555
Na17 O27 2.753119 1_555
Na17 O58 2.839878 1_555
Na17 O37 2.891377 1_565
Na18 O44 2.311358 1_555
Na18 O36 2.464663 1_555
Na18 O43 2.498232 1_665
Na18 O37 2.767900 1_565
Na18 O42 2.808071 1_565
Na18 O38 2.953719 1_665
Na19 O47 2.334490 1_555
Na19 O40 2.477813 1_554
Na19 O45 2.506066 1_445
Na19 O39 2.782440 1_454
Na19 O46 2.815154 1_455
Na20 O48 2.323616 1_555
Na20 O56 2.436917 1_555
Na20 O55 2.512840 1_555
Na20 O50 2.795702 1_555
Na20 O54 2.797213 1_555
Na20 O49 2.844762 1_555
Na21 O59 2.312357 1_555
Na21 O57 2.323662 1_555
Na21 O58 2.496719 1_555
Na21 O52 2.781544 1_555
Na21 O51 2.969759 1_555
Na21 O53 2.986334 1_555
Na22 O61 2.343540 1_555
Na22 O60 2.352695 1_555
Na22 O68 2.725535 1_555
Na22 O62 2.730840 1_555
Na22 O66 2.930695 1_555
Na22 O67 3.020298 1_555
Na23 O64 2.303104 1_555
Na23 O63 2.347297 1_555
Na23 O71 2.728069 1_555
Na23 O65 2.823010 1_555
Ca0 O37 2.206049 1_565
Ca0 O36 2.227608 1_555
Ca0 O1 2.302611 1_555
Ca0 O38 2.342821 1_665
Ca0 O0 2.344477 1_665
Ca0 O2 2.358477 1_565
Ca1 O5 2.198020 1_555
Ca1 O39 2.242102 1_555
Ca1 O3 2.300332 1_655
Ca1 O40 2.328639 1_655
Ca1 O4 2.357745 1_545
Ca1 O41 2.367762 1_545
Ca2 O44 2.262614 1_555
Ca2 O6 2.301536 1_555
Ca2 O43 2.322296 1_665
Ca2 O42 2.384330 1_565
Ca2 O8 2.426017 1_655
Ca2 O7 2.568162 1_665
Ca3 O45 2.244249 1_455
Ca3 O47 2.270574 1_565
Ca3 O11 2.333067 1_555
Ca3 O10 2.369231 1_565
Ca3 O46 2.371057 1_465
Ca3 O9 2.422163 1_455
Ca4 O13 2.155330 1_555
Ca4 O14 2.190981 1_555
Ca4 O12 2.293217 1_555
Ca4 O48 2.376770 1_555
Ca4 O49 2.428529 1_555
Ca4 O50 2.469170 1_555
Ca5 O15 2.131721 1_555
Ca5 O17 2.163144 1_555
Ca5 O16 2.273690 1_555
Ca5 O53 2.398403 1_555
Ca5 O51 2.401487 1_555
Ca5 O52 2.477025 1_555
Ca6 O25 2.170953 1_554
Ca6 O26 2.203008 1_554
Ca6 O61 2.247396 1_555
Ca6 O60 2.297533 1_555
Ca6 O24 2.324562 1_554
Ca6 O62 2.382197 1_555
Ca7 O27 2.190457 1_555
Ca7 O29 2.218082 1_555
Ca7 O63 2.272494 1_555
Ca7 O64 2.320894 1_555
Ca7 O28 2.373696 1_555
Ca7 O65 2.413887 1_555
Ca8 O30 2.227164 1_555
Ca8 O31 2.246277 1_555
Ca8 O32 2.354211 1_555
Ca8 O66 2.457904 1_555
Ca8 O67 2.554351 1_555
Ca8 O68 2.647798 1_555
O0 S0 1.479677 1_545
O1 S1 1.480450 1_555
O2 S2 1.480853 1_655
O3 S3 1.478772 1_555
O4 S4 1.473636 1_655
O5 Si0 1.612555 1_545
O6 Si0 1.635861 1_555
O7 S3 1.481317 1_555
O8 S4 1.474553 1_555
O9 S1 1.485820 1_555
O10 S2 1.484754 1_555
O11 S0 1.484560 1_555
O12 S5 1.480857 1_555
O13 Si1 1.620513 1_555
O14 Si2 1.619217 1_555
O15 Si3 1.616188 1_555
O16 S6 1.474298 1_555
O17 Si4 1.622753 1_555
O18 Si4 1.713432 1_555
O18 Sn0 2.019694 1_554
O19 Si3 1.720103 1_555
O19 Sn0 2.011163 1_554
O20 S6 1.520530 1_555
O20 Sn0 2.203970 1_554
O21 Si1 1.705039 1_555
O21 Sn1 2.009152 1_555
O22 Si2 1.690610 1_555
O22 Sn1 1.994762 1_555
O23 S5 1.518584 1_555
O23 Sn1 2.210545 1_555
O24 S7 1.463878 1_555
O25 Si5 1.592351 1_555
O26 Si6 1.593148 1_555
O27 Si7 1.617400 1_555
O28 S8 1.474523 1_555
O29 Si8 1.618663 1_555
O30 Si8 1.649783 1_555
O31 Si7 1.650353 1_555
O32 S8 1.488395 1_555
O33 Si5 1.736574 1_555
O33 Sn2 2.030421 1_555
O34 Si6 1.698419 1_555
O34 Sn2 2.024760 1_555
O35 S7 1.515463 1_555
O35 Sn2 2.252869 1_555
O36 Si8 1.645169 1_655
O37 Si7 1.633706 1_545
O38 S8 1.479019 1_555
O39 Si5 1.620964 1_655
O40 Si6 1.633154 1_545
O41 S7 1.486383 1_555
O42 S5 1.478577 1_555
O43 Si1 1.645748 1_555
O44 Si2 1.643027 1_555
O45 Si3 1.650589 1_555
O46 S6 1.476982 1_555
O47 Si4 1.645656 1_555
O48 Si0 1.648950 1_545
O49 S3 1.483879 1_555
O50 S4 1.484347 1_655
O51 S1 1.497576 1_555
O52 S2 1.501426 1_655
O53 S0 1.495243 1_545
O54 S7 1.496603 1_555
O54 Sn0 2.377108 1_555
O55 Si5 1.698401 1_655
O55 Sn0 2.123907 1_555
O56 Si6 1.695067 1_545
O56 Sn0 2.085048 1_555
O57 Si7 1.694424 1_545
O57 Sn1 2.037344 1_555
O58 S8 1.506758 1_555
O58 Sn1 2.353964 1_555
O59 Si8 1.686233 1_655
O59 Sn1 2.059886 1_555
O60 Si4 1.639089 1_555
O61 Si3 1.633116 1_455
O62 S6 1.475358 1_565
O63 Si1 1.637932 1_565
O64 Si2 1.638785 1_555
O65 S5 1.470106 1_455
O66 S0 1.498820 1_555
O67 S1 1.498774 1_555
O68 S2 1.500165 1_555
O69 S3 1.522068 1_555
O69 Sn2 2.370405 1_555
O70 S4 1.530150 1_555
O70 Sn2 2.236404 1_555
O71 Si0 1.737161 1_555
O71 Sn2 2.018320 1_555
