# generated using pymatgen
data_CaZr(SO4)3
_symmetry_space_group_name_H-M   'P 1'
_cell_length_a   9.12244796
_cell_length_b   9.12244764
_cell_length_c   23.37361181
_cell_angle_alpha   90.00000000
_cell_angle_beta   90.00000000
_cell_angle_gamma   120.00000116
_symmetry_Int_Tables_number   1
_chemical_formula_structural   CaZr(SO4)3
_chemical_formula_sum   'Ca6 Zr6 S18 O72'
_cell_volume   1684.53185321
_cell_formula_units_Z   6
loop_
 _symmetry_equiv_pos_site_id
 _symmetry_equiv_pos_as_xyz
  1  'x, y, z'
loop_
 _atom_site_type_symbol
 _atom_site_label
 _atom_site_symmetry_multiplicity
 _atom_site_fract_x
 _atom_site_fract_y
 _atom_site_fract_z
 _atom_site_occupancy
  Ca  Ca0  1  0.00000000  -0.00000000  0.35671236  1
  Ca  Ca1  1  0.00000000  -0.00000000  0.85671236  1
  Ca  Ca2  1  0.66666700  0.33333300  0.69004536  1
  Ca  Ca3  1  0.66666700  0.33333300  0.19004536  1
  Ca  Ca4  1  0.33333300  0.66666700  0.02337936  1
  Ca  Ca5  1  0.33333300  0.66666700  0.52337936  1
  Zr  Zr0  1  0.00000000  -0.00000000  0.64530562  1
  Zr  Zr1  1  0.00000000  -0.00000000  0.14530562  1
  Zr  Zr2  1  0.66666700  0.33333300  0.97863862  1
  Zr  Zr3  1  0.66666700  0.33333300  0.47863862  1
  Zr  Zr4  1  0.33333300  0.66666700  0.31197262  1
  Zr  Zr5  1  0.33333300  0.66666700  0.81197262  1
  S  S0  1  0.28386876  0.99127618  0.25059685  1
  S  S1  1  0.70740742  0.71613124  0.25059685  1
  S  S2  1  0.00872382  0.29259258  0.25059685  1
  S  S3  1  0.28386876  0.29259258  0.75059685  1
  S  S4  1  0.00872382  0.71613124  0.75059685  1
  S  S5  1  0.70740742  0.99127618  0.75059685  1
  S  S6  1  0.95053576  0.32460918  0.58392985  1
  S  S7  1  0.37407442  0.04946424  0.58392985  1
  S  S8  1  0.67539082  0.62592558  0.58392985  1
  S  S9  1  0.95053576  0.62592558  0.08392985  1
  S  S10  1  0.67539082  0.04946424  0.08392985  1
  S  S11  1  0.37407442  0.32460918  0.08392985  1
  S  S12  1  0.61720176  0.65794318  0.91726385  1
  S  S13  1  0.04074042  0.38279824  0.91726385  1
  S  S14  1  0.34205682  0.95925958  0.91726385  1
  S  S15  1  0.61720176  0.95925958  0.41726385  1
  S  S16  1  0.34205682  0.38279824  0.41726385  1
  S  S17  1  0.04074042  0.65794318  0.41726385  1
  O  O0  1  0.20796311  0.01740885  0.30101642  1
  O  O1  1  0.80944574  0.79203689  0.30101642  1
  O  O2  1  0.98259115  0.19055426  0.30101642  1
  O  O3  1  0.20796311  0.19055426  0.80101642  1
  O  O4  1  0.98259115  0.79203689  0.80101642  1
  O  O5  1  0.80944574  0.01740885  0.80101642  1
  O  O6  1  0.79133256  0.96283405  0.69874861  1
  O  O7  1  0.17150149  0.20866744  0.69874861  1
  O  O8  1  0.03716595  0.82849851  0.69874861  1
  O  O9  1  0.79133256  0.82849851  0.19874861  1
  O  O10  1  0.03716595  0.20866744  0.19874861  1
  O  O11  1  0.17150149  0.96283405  0.19874861  1
  O  O12  1  0.87463011  0.35074185  0.63434942  1
  O  O13  1  0.47611274  0.12536989  0.63434942  1
  O  O14  1  0.64925815  0.52388726  0.63434942  1
  O  O15  1  0.87463011  0.52388726  0.13434942  1
  O  O16  1  0.64925815  0.12536989  0.13434942  1
  O  O17  1  0.47611274  0.35074185  0.13434942  1
  O  O18  1  0.45799956  0.29616705  0.03208161  1
  O  O19  1  0.83816849  0.54200044  0.03208161  1
  O  O20  1  0.70383295  0.16183151  0.03208161  1
  O  O21  1  0.45799956  0.16183151  0.53208161  1
  O  O22  1  0.70383295  0.54200044  0.53208161  1
  O  O23  1  0.83816849  0.29616705  0.53208161  1
  O  O24  1  0.54129611  0.68407585  0.96768342  1
  O  O25  1  0.14277874  0.45870389  0.96768342  1
  O  O26  1  0.31592415  0.85722126  0.96768342  1
  O  O27  1  0.54129611  0.85722126  0.46768342  1
  O  O28  1  0.31592415  0.45870389  0.46768342  1
  O  O29  1  0.14277874  0.68407585  0.46768342  1
  O  O30  1  0.12466556  0.62950105  0.36541561  1
  O  O31  1  0.50483449  0.87533444  0.36541561  1
  O  O32  1  0.37049895  0.49516551  0.36541561  1
  O  O33  1  0.12466556  0.49516551  0.86541561  1
  O  O34  1  0.37049895  0.87533444  0.86541561  1
  O  O35  1  0.50483449  0.62950105  0.86541561  1
  O  O36  1  0.01171879  0.79807312  0.40708268  1
  O  O37  1  0.78635433  0.98828121  0.40708268  1
  O  O38  1  0.20192688  0.21364568  0.40708268  1
  O  O39  1  0.01171879  0.21364568  0.90708268  1
  O  O40  1  0.20192688  0.98828121  0.90708268  1
  O  O41  1  0.78635433  0.79807312  0.90708268  1
  O  O42  1  0.96120879  0.16443142  0.59188277  1
  O  O43  1  0.20322262  0.03879121  0.59188277  1
  O  O44  1  0.83556858  0.79677738  0.59188277  1
  O  O45  1  0.96120879  0.79677738  0.09188277  1
  O  O46  1  0.83556858  0.03879121  0.09188277  1
  O  O47  1  0.20322262  0.16443142  0.09188277  1
  O  O48  1  0.67838579  0.13140612  0.74041568  1
  O  O49  1  0.45302133  0.32161421  0.74041568  1
  O  O50  1  0.86859388  0.54697868  0.74041568  1
  O  O51  1  0.67838579  0.54697868  0.24041568  1
  O  O52  1  0.86859388  0.32161421  0.24041568  1
  O  O53  1  0.45302133  0.13140612  0.24041568  1
  O  O54  1  0.62787579  0.49776442  0.92521577  1
  O  O55  1  0.86988962  0.37212421  0.92521577  1
  O  O56  1  0.50223558  0.13011038  0.92521577  1
  O  O57  1  0.62787579  0.13011038  0.42521577  1
  O  O58  1  0.50223558  0.37212421  0.42521577  1
  O  O59  1  0.86988962  0.49776442  0.42521577  1
  O  O60  1  0.34505179  0.46474012  0.07374968  1
  O  O61  1  0.11968733  0.65494821  0.07374968  1
  O  O62  1  0.53525988  0.88031268  0.07374968  1
  O  O63  1  0.34505179  0.88031268  0.57374968  1
  O  O64  1  0.53525988  0.65494821  0.57374968  1
  O  O65  1  0.11968733  0.46474012  0.57374968  1
  O  O66  1  0.29454179  0.83109842  0.25854977  1
  O  O67  1  0.53655562  0.70545821  0.25854977  1
  O  O68  1  0.16890158  0.46344438  0.25854977  1
  O  O69  1  0.29454179  0.46344438  0.75854977  1
  O  O70  1  0.16890158  0.70545821  0.75854977  1
  O  O71  1  0.53655562  0.83109842  0.75854977  1
loop_
_geom_bond_atom_site_label_1
_geom_bond_atom_site_label_2
_geom_bond_distance
_geom_bond_site_symmetry_2
Ca0 O36 2.233313 1_545
Ca0 O38 2.233313 1_555
Ca0 O37 2.233313 1_445
Ca0 O1 2.240038 1_445
Ca0 O2 2.240038 1_455
Ca0 O0 2.240038 1_555
Ca1 O41 2.233313 1_445
Ca1 O40 2.233313 1_545
Ca1 O39 2.233313 1_555
Ca1 O4 2.240038 1_445
Ca1 O3 2.240038 1_555
Ca1 O5 2.240038 1_455
Ca2 O48 2.233313 1_555
Ca2 O50 2.233313 1_555
Ca2 O49 2.233313 1_555
Ca2 O13 2.240038 1_555
Ca2 O14 2.240038 1_555
Ca2 O12 2.240038 1_555
Ca3 O53 2.233313 1_555
Ca3 O52 2.233313 1_555
Ca3 O51 2.233313 1_555
Ca3 O16 2.240038 1_555
Ca3 O15 2.240038 1_555
Ca3 O17 2.240038 1_555
Ca4 O60 2.233313 1_555
Ca4 O62 2.233313 1_555
Ca4 O61 2.233313 1_555
Ca4 O25 2.240038 1_554
Ca4 O26 2.240038 1_554
Ca4 O24 2.240038 1_554
Ca5 O65 2.233313 1_555
Ca5 O64 2.233313 1_555
Ca5 O63 2.233313 1_555
Ca5 O28 2.240038 1_555
Ca5 O27 2.240038 1_555
Ca5 O29 2.240038 1_555
O0 S0 1.445759 1_545
O1 S1 1.445759 1_555
O2 S2 1.445759 1_655
O3 S3 1.445759 1_555
O4 S4 1.445759 1_655
O5 S5 1.445759 1_545
O6 S5 1.523406 1_555
O6 Zr0 2.157193 1_665
O7 S3 1.523406 1_555
O7 Zr0 2.157193 1_555
O8 S4 1.523406 1_555
O8 Zr0 2.157193 1_565
O9 S1 1.523406 1_555
O9 Zr1 2.157193 1_665
O10 S2 1.523406 1_555
O10 Zr1 2.157193 1_555
O11 S0 1.523406 1_555
O11 Zr1 2.157193 1_565
O12 S6 1.445759 1_555
O13 S7 1.445759 1_555
O14 S8 1.445759 1_555
O15 S9 1.445759 1_555
O16 S10 1.445759 1_555
O17 S11 1.445759 1_555
O18 S11 1.523406 1_555
O18 Zr2 2.157193 1_554
O19 S9 1.523406 1_555
O19 Zr2 2.157193 1_554
O20 S10 1.523406 1_555
O20 Zr2 2.157193 1_554
O21 S7 1.523406 1_555
O21 Zr3 2.157193 1_555
O22 S8 1.523406 1_555
O22 Zr3 2.157193 1_555
O23 S6 1.523406 1_555
O23 Zr3 2.157193 1_555
O24 S12 1.445759 1_555
O25 S13 1.445759 1_555
O26 S14 1.445759 1_555
O27 S15 1.445759 1_555
O28 S16 1.445759 1_555
O29 S17 1.445759 1_555
O30 S17 1.523406 1_555
O30 Zr4 2.157193 1_555
O31 S15 1.523406 1_555
O31 Zr4 2.157193 1_555
O32 S16 1.523406 1_555
O32 Zr4 2.157193 1_555
O33 S13 1.523406 1_555
O33 Zr5 2.157193 1_555
O34 S14 1.523406 1_555
O34 Zr5 2.157193 1_555
O35 S12 1.523406 1_555
O35 Zr5 2.157193 1_555
O36 S17 1.448889 1_555
O37 S15 1.448898 1_555
O38 S16 1.448895 1_555
O39 S13 1.448898 1_555
O40 S14 1.448889 1_555
O41 S12 1.448895 1_555
O42 S6 1.523630 1_555
O42 Zr0 2.113126 1_655
O43 S7 1.523639 1_555
O43 Zr0 2.113126 1_555
O44 S8 1.523635 1_555
O44 Zr0 2.113126 1_665
O45 S9 1.523639 1_555
O45 Zr1 2.113126 1_665
O46 S10 1.523630 1_555
O46 Zr1 2.113126 1_655
O47 S11 1.523635 1_555
O47 Zr1 2.113126 1_555
O48 S5 1.448889 1_545
O49 S3 1.448898 1_555
O50 S4 1.448895 1_655
O51 S1 1.448898 1_555
O52 S2 1.448889 1_655
O53 S0 1.448895 1_545
O54 S12 1.523641 1_555
O54 Zr2 2.113126 1_555
O55 S13 1.523623 1_655
O55 Zr2 2.113126 1_555
O56 S14 1.523631 1_545
O56 Zr2 2.113126 1_555
O57 S15 1.523623 1_545
O57 Zr3 2.113126 1_555
O58 S16 1.523641 1_555
O58 Zr3 2.113126 1_555
O59 S17 1.523631 1_655
O59 Zr3 2.113126 1_555
O60 S11 1.448900 1_555
O61 S9 1.448882 1_455
O62 S10 1.448888 1_565
O63 S7 1.448882 1_565
O64 S8 1.448900 1_555
O65 S6 1.448888 1_455
O66 S0 1.523630 1_555
O66 Zr4 2.113126 1_555
O67 S1 1.523639 1_555
O67 Zr4 2.113126 1_555
O68 S2 1.523635 1_555
O68 Zr4 2.113126 1_555
O69 S3 1.523639 1_555
O69 Zr5 2.113126 1_555
O70 S4 1.523630 1_555
O70 Zr5 2.113126 1_555
O71 S5 1.523635 1_555
O71 Zr5 2.113126 1_555
