# generated using pymatgen
data_LiCoS2
_symmetry_space_group_name_H-M   'P 1'
_cell_length_a   4.37898227
_cell_length_b   3.37423411
_cell_length_c   8.08207113
_cell_angle_alpha   90.38613749
_cell_angle_beta   90.00000000
_cell_angle_gamma   90.00000000
_symmetry_Int_Tables_number   1
_chemical_formula_structural   LiCoS2
_chemical_formula_sum   'Li2 Co2 S4'
_cell_volume   119.41563800
_cell_formula_units_Z   2
loop_
 _symmetry_equiv_pos_site_id
 _symmetry_equiv_pos_as_xyz
  1  'x, y, z'
loop_
 _atom_site_type_symbol
 _atom_site_label
 _atom_site_symmetry_multiplicity
 _atom_site_fract_x
 _atom_site_fract_y
 _atom_site_fract_z
 _atom_site_occupancy
  Li  Li0  1  0.25000000  0.77723646  0.12931062  1
  Li  Li1  1  0.75000000  0.22276354  0.87068938  1
  Co  Co0  1  0.75000000  0.74835395  0.37078522  1
  Co  Co1  1  0.25000000  0.25164605  0.62921478  1
  S  S0  1  0.75000000  0.24566086  0.17794679  1
  S  S1  1  0.25000000  0.74906878  0.44784493  1
  S  S2  1  0.75000000  0.25093122  0.55215507  1
  S  S3  1  0.25000000  0.75433914  0.82205321  1
loop_
_geom_bond_atom_site_label_1
_geom_bond_atom_site_label_2
_geom_bond_distance
_geom_bond_site_symmetry_2
Li0 S3 2.483957 1_554
Li0 S1 2.576811 1_555
Li0 S0 2.727311 1_565
Li0 S0 2.727311 1_465
Li0 S0 2.859214 1_555
Li0 S0 2.859214 1_455
Li1 S0 2.483957 1_556
Li1 S2 2.576811 1_555
Li1 S3 2.727311 1_645
Li1 S3 2.727311 1_545
Li1 S3 2.859214 1_555
Li1 S3 2.859214 1_655
Co0 S2 2.234049 1_565
Co0 S2 2.235835 1_555
Co0 S1 2.276343 1_655
Co0 S1 2.276343 1_555
Co0 S0 2.295758 1_555
Co0 S0 2.297839 1_565
Co1 S1 2.234049 1_545
Co1 S1 2.235835 1_555
Co1 S2 2.276343 1_555
Co1 S2 2.276343 1_455
Co1 S3 2.295758 1_555
Co1 S3 2.297839 1_545
