# generated using pymatgen
data_Ga(Ag3Se2)3
_symmetry_space_group_name_H-M   'P 1'
_cell_length_a   11.18494288
_cell_length_b   11.18519048
_cell_length_c   11.18520988
_cell_angle_alpha   90.00051583
_cell_angle_beta   90.00026437
_cell_angle_gamma   90.00045196
_symmetry_Int_Tables_number   1
_chemical_formula_structural   Ga(Ag3Se2)3
_chemical_formula_sum   'Ga4 Ag36 Se24'
_cell_volume   1399.33369753
_cell_formula_units_Z   4
loop_
 _symmetry_equiv_pos_site_id
 _symmetry_equiv_pos_as_xyz
  1  'x, y, z'
loop_
 _atom_site_type_symbol
 _atom_site_label
 _atom_site_symmetry_multiplicity
 _atom_site_fract_x
 _atom_site_fract_y
 _atom_site_fract_z
 _atom_site_occupancy
  Ga  Ga0  1  0.50836436  0.50837329  0.50839075  1
  Ga  Ga1  1  0.99162059  0.49162349  0.00835621  1
  Ga  Ga2  1  0.00838608  0.99164582  0.49162407  1
  Ga  Ga3  1  0.49163715  0.00838366  0.99162106  1
  Ag  Ag0  1  0.82384709  0.07098936  0.13316265  1
  Ag  Ag1  1  0.13316350  0.82385652  0.07098799  1
  Ag  Ag2  1  0.07099188  0.13318866  0.82383181  1
  Ag  Ag3  1  0.42900310  0.86681426  0.32382779  1
  Ag  Ag4  1  0.63317401  0.67616014  0.92900236  1
  Ag  Ag5  1  0.92900118  0.63317210  0.67615723  1
  Ag  Ag6  1  0.36683276  0.17617942  0.57099250  1
  Ag  Ag7  1  0.86681717  0.32382374  0.42900379  1
  Ag  Ag8  1  0.57099442  0.36682137  0.17618171  1
  Ag  Ag9  1  0.32381371  0.42899902  0.86682467  1
  Ag  Ag10  1  0.17616311  0.57099485  0.36682733  1
  Ag  Ag11  1  0.67616376  0.92899332  0.63317035  1
  Ag  Ag12  1  0.22747316  0.23239859  0.03152764  1
  Ag  Ag13  1  0.03152830  0.22747297  0.23239725  1
  Ag  Ag14  1  0.23239703  0.03152915  0.22748848  1
  Ag  Ag15  1  0.26759460  0.96846183  0.72748833  1
  Ag  Ag16  1  0.53152976  0.27250868  0.76759322  1
  Ag  Ag17  1  0.76758506  0.53152720  0.27251084  1
  Ag  Ag18  1  0.46846311  0.77250652  0.73240005  1
  Ag  Ag19  1  0.96845829  0.72748972  0.26759755  1
  Ag  Ag20  1  0.73240953  0.46846370  0.77251347  1
  Ag  Ag21  1  0.72749762  0.26759285  0.96846282  1
  Ag  Ag22  1  0.77250177  0.73240241  0.46845919  1
  Ag  Ag23  1  0.27250954  0.76759632  0.53153475  1
  Ag  Ag24  1  0.83119162  0.03987456  0.86715489  1
  Ag  Ag25  1  0.86714213  0.83118611  0.03986984  1
  Ag  Ag26  1  0.03986980  0.86714486  0.83118935  1
  Ag  Ag27  1  0.46012560  0.13285771  0.33117685  1
  Ag  Ag28  1  0.36715231  0.66881445  0.96013114  1
  Ag  Ag29  1  0.96011529  0.36715236  0.66880821  1
  Ag  Ag30  1  0.63285043  0.16882199  0.53986616  1
  Ag  Ag31  1  0.13285655  0.33119547  0.46013259  1
  Ag  Ag32  1  0.53986108  0.63284718  0.16882281  1
  Ag  Ag33  1  0.33118553  0.46012992  0.13285841  1
  Ag  Ag34  1  0.16881026  0.53987006  0.63285828  1
  Ag  Ag35  1  0.66880220  0.96011473  0.36714047  1
  Se  Se0  1  0.02498134  0.02498729  0.02497366  1
  Se  Se1  1  0.47502377  0.97502651  0.52497413  1
  Se  Se2  1  0.52501520  0.47499091  0.97501428  1
  Se  Se3  1  0.97502220  0.52497135  0.47501833  1
  Se  Se4  1  0.63096127  0.63096668  0.63096607  1
  Se  Se5  1  0.86905232  0.36902823  0.13095897  1
  Se  Se6  1  0.13094733  0.86902908  0.36904359  1
  Se  Se7  1  0.36902806  0.13095853  0.86904371  1
  Se  Se8  1  0.26380810  0.26380382  0.26380156  1
  Se  Se9  1  0.23618586  0.73618417  0.76380164  1
  Se  Se10  1  0.76381641  0.23618836  0.73618799  1
  Se  Se11  1  0.73618017  0.76380894  0.23617706  1
  Se  Se12  1  0.40031547  0.62683576  0.36562097  1
  Se  Se13  1  0.36558602  0.40034423  0.62684262  1
  Se  Se14  1  0.62683250  0.36558822  0.40034814  1
  Se  Se15  1  0.87321170  0.63447227  0.90033103  1
  Se  Se16  1  0.86558300  0.09965172  0.37317727  1
  Se  Se17  1  0.37316239  0.86562421  0.09968684  1
  Se  Se18  1  0.13446572  0.59966751  0.12678058  1
  Se  Se19  1  0.63438360  0.90033098  0.87320173  1
  Se  Se20  1  0.12685418  0.13439994  0.59966483  1
  Se  Se21  1  0.90036113  0.87319826  0.63443490  1
  Se  Se22  1  0.59970190  0.12682606  0.13440540  1
  Se  Se23  1  0.09963494  0.37314162  0.86560280  1
loop_
_geom_bond_atom_site_label_1
_geom_bond_atom_site_label_2
_geom_bond_distance
_geom_bond_site_symmetry_2
Ga0 Se4 2.374914 1_555
Ga0 Se13 2.401199 1_555
Ga0 Se12 2.401329 1_555
Ga0 Se14 2.401432 1_555
Ga1 Se5 2.374940 1_555
Ga1 Se23 2.401124 1_654
Ga1 Se15 2.401451 1_554
Ga1 Se18 2.401591 1_655
Ga2 Se6 2.374887 1_555
Ga2 Se20 2.401171 1_565
Ga2 Se16 2.401226 1_465
Ga2 Se21 2.401405 1_455
Ga3 Se7 2.374913 1_555
Ga3 Se19 2.400895 1_545
Ga3 Se22 2.401376 1_556
Ga3 Se17 2.401414 1_546
Ag0 Se22 2.583714 1_555
Ag0 Se0 2.605802 1_655
Ag0 Se16 2.743687 1_555
Ag1 Se18 2.584129 1_555
Ag1 Se0 2.605795 1_565
Ag1 Se17 2.743562 1_555
Ag2 Se20 2.584071 1_555
Ag2 Se0 2.606005 1_556
Ag2 Se23 2.743049 1_555
Ag3 Se17 2.583723 1_555
Ag3 Se1 2.606105 1_555
Ag3 Se12 2.743438 1_555
Ag4 Se19 2.583948 1_555
Ag4 Se2 2.606026 1_555
Ag4 Se15 2.743809 1_555
Ag5 Se15 2.583953 1_555
Ag5 Se3 2.605982 1_555
Ag5 Se21 2.743766 1_555
Ag6 Se13 2.584008 1_555
Ag6 Se1 2.606058 1_545
Ag6 Se20 2.743331 1_555
Ag7 Se16 2.584021 1_555
Ag7 Se3 2.606052 1_555
Ag7 Se14 2.743352 1_555
Ag8 Se14 2.583995 1_555
Ag8 Se2 2.606017 1_554
Ag8 Se22 2.743612 1_555
Ag9 Se23 2.584124 1_555
Ag9 Se2 2.606416 1_555
Ag9 Se13 2.743395 1_555
Ag10 Se12 2.583792 1_555
Ag10 Se3 2.605922 1_455
Ag10 Se18 2.743985 1_555
Ag11 Se21 2.584169 1_555
Ag11 Se1 2.605959 1_555
Ag11 Se19 2.743964 1_555
Ag12 Se8 2.652980 1_555
Ag12 Se7 2.664054 1_554
Ag12 Se23 2.822619 1_554
Ag12 Se0 3.242988 1_555
Ag13 Se8 2.652977 1_555
Ag13 Se5 2.663987 1_455
Ag13 Se16 2.822886 1_455
Ag13 Se0 3.243073 1_555
Ag14 Se8 2.652954 1_555
Ag14 Se6 2.664238 1_545
Ag14 Se17 2.822392 1_545
Ag14 Se0 3.243206 1_555
Ag15 Se9 2.652991 1_555
Ag15 Se7 2.664111 1_565
Ag15 Se20 2.822614 1_565
Ag15 Se1 3.243331 1_555
Ag16 Se10 2.653045 1_555
Ag16 Se7 2.664198 1_555
Ag16 Se13 2.822777 1_555
Ag16 Se2 3.243019 1_555
Ag17 Se11 2.653070 1_555
Ag17 Se5 2.664284 1_555
Ag17 Se14 2.822765 1_555
Ag17 Se3 3.243326 1_555
Ag18 Se9 2.652934 1_555
Ag18 Se4 2.664029 1_555
Ag18 Se19 2.822833 1_555
Ag18 Se1 3.243393 1_555
Ag19 Se11 2.652970 1_555
Ag19 Se6 2.663989 1_655
Ag19 Se18 2.823579 1_655
Ag19 Se3 3.243340 1_555
Ag20 Se10 2.652982 1_555
Ag20 Se4 2.664208 1_555
Ag20 Se15 2.823451 1_555
Ag20 Se2 3.242938 1_555
Ag21 Se10 2.652966 1_555
Ag21 Se5 2.664103 1_556
Ag21 Se22 2.822653 1_556
Ag21 Se2 3.242834 1_555
Ag22 Se11 2.653056 1_555
Ag22 Se4 2.664116 1_555
Ag22 Se21 2.823411 1_555
Ag22 Se3 3.243398 1_555
Ag23 Se9 2.652904 1_555
Ag23 Se6 2.664127 1_555
Ag23 Se12 2.822454 1_555
Ag23 Se1 3.243318 1_555
Ag24 Se19 2.699324 1_545
Ag24 Se10 2.745077 1_555
Ag24 Se0 2.800346 1_656
Ag25 Se15 2.698480 1_554
Ag25 Se11 2.744978 1_555
Ag25 Se0 2.800601 1_665
Ag26 Se21 2.698639 1_455
Ag26 Se9 2.745058 1_555
Ag26 Se0 2.800498 1_566
Ag27 Se22 2.699236 1_555
Ag27 Se8 2.744948 1_555
Ag27 Se1 2.800561 1_545
Ag28 Se17 2.699447 1_556
Ag28 Se9 2.745177 1_555
Ag28 Se2 2.800973 1_555
Ag29 Se23 2.699056 1_655
Ag29 Se10 2.744889 1_555
Ag29 Se3 2.800416 1_555
Ag30 Se14 2.698832 1_555
Ag30 Se10 2.745078 1_555
Ag30 Se1 2.800457 1_545
Ag31 Se20 2.699186 1_555
Ag31 Se8 2.745169 1_555
Ag31 Se3 2.800360 1_455
Ag32 Se12 2.699276 1_555
Ag32 Se11 2.744965 1_555
Ag32 Se2 2.800774 1_554
Ag33 Se18 2.698509 1_555
Ag33 Se8 2.745046 1_555
Ag33 Se2 2.800863 1_554
Ag34 Se13 2.698926 1_555
Ag34 Se9 2.744910 1_555
Ag34 Se3 2.800484 1_455
Ag35 Se16 2.699029 1_565
Ag35 Se11 2.744976 1_555
Ag35 Se1 2.800380 1_555
