# generated using pymatgen
data_Na14Zr4Zn4Si7S5O48
_symmetry_space_group_name_H-M   'P 1'
_cell_length_a   18.44450801
_cell_length_b   9.26171458
_cell_length_c   22.39600090
_cell_angle_alpha   90.17640779
_cell_angle_beta   89.46491721
_cell_angle_gamma   119.98229024
_symmetry_Int_Tables_number   1
_chemical_formula_structural   Na14Zr4Zn4Si7S5O48
_chemical_formula_sum   'Na42 Zr12 Zn12 Si21 S15 O144'
_cell_volume   3313.73200279
_cell_formula_units_Z   3
loop_
 _symmetry_equiv_pos_site_id
 _symmetry_equiv_pos_as_xyz
  1  'x, y, z'
loop_
 _atom_site_type_symbol
 _atom_site_label
 _atom_site_symmetry_multiplicity
 _atom_site_fract_x
 _atom_site_fract_y
 _atom_site_fract_z
 _atom_site_occupancy
  Na  Na0  1  0.80749950  0.99295647  0.25682959  1
  Na  Na1  1  0.18256566  0.35195088  0.25900310  1
  Na  Na2  1  0.69213584  0.37124637  0.25971409  1
  Na  Na3  1  0.98888489  0.63751191  0.24409404  1
  Na  Na4  1  0.50306553  0.64590514  0.25574224  1
  Na  Na5  1  0.30772087  0.62330025  0.74327211  1
  Na  Na6  1  0.00160045  0.35542006  0.74813898  1
  Na  Na7  1  0.49233666  0.34812777  0.73683558  1
  Na  Na8  1  0.19135754  0.01298093  0.75397829  1
  Na  Na9  1  0.68582484  0.01512458  0.75302278  1
  Na  Na10  1  0.14965612  0.33086912  0.58658892  1
  Na  Na11  1  0.65885027  0.33519484  0.57809458  1
  Na  Na12  1  0.33720658  0.99352148  0.57734733  1
  Na  Na13  1  0.83650201  0.98318285  0.57606526  1
  Na  Na14  1  0.15688895  0.98151476  0.08591787  1
  Na  Na15  1  0.65026612  0.96796298  0.09167280  1
  Na  Na16  1  0.33579834  0.68769978  0.08639548  1
  Na  Na17  1  0.83550039  0.68573762  0.08304850  1
  Na  Na18  1  0.47886356  0.67658364  0.92586198  1
  Na  Na19  1  0.97423790  0.66787759  0.92108989  1
  Na  Na20  1  0.35583379  0.04783823  0.91504611  1
  Na  Na21  1  0.85265260  0.03817381  0.90901219  1
  Na  Na22  1  0.16935958  0.28021329  0.91414906  1
  Na  Na23  1  0.67138448  0.28797856  0.90627458  1
  Na  Na24  1  0.47693995  0.28475622  0.42193070  1
  Na  Na25  1  0.97368907  0.27075987  0.42618095  1
  Na  Na26  1  0.16880787  0.05638044  0.40579276  1
  Na  Na27  1  0.67820805  0.04931027  0.41184081  1
  Na  Na28  1  0.35445553  0.66948899  0.40935539  1
  Na  Na29  1  0.85220619  0.67526814  0.41794524  1
  Na  Na30  1  0.99104620  0.99539752  0.49061883  1
  Na  Na31  1  0.50434882  0.00099235  0.49389485  1
  Na  Na32  1  0.99910181  0.00022701  0.99726006  1
  Na  Na33  1  0.49955923  0.00260168  0.99777285  1
  Na  Na34  1  0.32538359  0.31888423  0.82410958  1
  Na  Na35  1  0.82260471  0.33388466  0.83386945  1
  Na  Na36  1  0.32465009  0.31365802  0.33740513  1
  Na  Na37  1  0.82354355  0.31529799  0.33318085  1
  Na  Na38  1  0.16942706  0.67904707  0.17113837  1
  Na  Na39  1  0.66103746  0.66258030  0.17967654  1
  Na  Na40  1  0.15928728  0.65570159  0.67485271  1
  Na  Na41  1  0.66895727  0.65961274  0.66291776  1
  Zr  Zr0  1  0.99315849  0.99783161  0.64862907  1
  Zr  Zr1  1  0.50009874  0.01336234  0.64933500  1
  Zr  Zr2  1  0.99965728  0.98846358  0.14946249  1
  Zr  Zr3  1  0.49392001  0.98894048  0.14985313  1
  Zr  Zr4  1  0.83140647  0.33448086  0.68056225  1
  Zr  Zr5  1  0.32984753  0.32538400  0.18204243  1
  Zr  Zr6  1  0.16356386  0.66341439  0.02530425  1
  Zr  Zr7  1  0.66617127  0.67413244  0.01631920  1
  Zr  Zr8  1  0.16663291  0.66062270  0.51699343  1
  Zr  Zr9  1  0.67034662  0.67430185  0.52200886  1
  Zr  Zr10  1  0.17774696  0.67903089  0.31443262  1
  Zr  Zr11  1  0.67778894  0.67747164  0.81332910  1
  Zn  Zn0  1  0.99755259  0.99640271  0.34966328  1
  Zn  Zn1  1  0.49612449  0.98666668  0.34122444  1
  Zn  Zn2  1  0.99520832  0.00292471  0.83898004  1
  Zn  Zn3  1  0.50819564  0.01529879  0.84150995  1
  Zn  Zn4  1  0.33434257  0.31512258  0.68665471  1
  Zn  Zn5  1  0.83405220  0.34795029  0.18773310  1
  Zn  Zn6  1  0.33678837  0.33305498  0.01340681  1
  Zn  Zn7  1  0.83017760  0.34573736  0.97912803  1
  Zn  Zn8  1  0.33240593  0.31945274  0.47893813  1
  Zn  Zn9  1  0.83304910  0.31591304  0.49626188  1
  Zn  Zn10  1  0.68132962  0.70533929  0.31335592  1
  Zn  Zn11  1  0.17273023  0.65923554  0.81097324  1
  Si  Si0  1  0.14702552  0.99698122  0.25418712  1
  Si  Si1  1  0.65026232  0.00804702  0.25048038  1
  Si  Si2  1  0.34996014  0.69097726  0.25236885  1
  Si  Si3  1  0.84899575  0.69977541  0.25439981  1
  Si  Si4  1  0.15031935  0.29102552  0.75223048  1
  Si  Si5  1  0.65091442  0.30430707  0.75332780  1
  Si  Si6  1  0.34964063  0.99401622  0.75730365  1
  Si  Si7  1  0.85048699  0.01066710  0.75344811  1
  Si  Si8  1  0.47636689  0.33496674  0.58325466  1
  Si  Si9  1  0.98788195  0.34134443  0.58452235  1
  Si  Si10  1  0.68065965  0.03380668  0.58150851  1
  Si  Si11  1  0.83845673  0.62871620  0.57429660  1
  Si  Si12  1  0.48617206  0.63416484  0.08274688  1
  Si  Si13  1  0.97353972  0.61730468  0.08310534  1
  Si  Si14  1  0.33837009  0.04000392  0.07466108  1
  Si  Si15  1  0.18175200  0.32638750  0.07930545  1
  Si  Si16  1  0.82182919  0.67409776  0.91866366  1
  Si  Si17  1  0.66375984  0.96952311  0.91595574  1
  Si  Si18  1  0.32206633  0.97014975  0.41929210  1
  Si  Si19  1  0.81748067  0.97727491  0.41476911  1
  Si  Si20  1  0.16781305  0.36419193  0.41659613  1
  S  S0  1  0.00009894  0.29445464  0.25243491  1
  S  S1  1  0.49837991  0.29384841  0.25256908  1
  S  S2  1  0.00000686  0.70400099  0.75347983  1
  S  S3  1  0.49901683  0.70602079  0.75453872  1
  S  S4  1  0.18382947  0.03299702  0.58398880  1
  S  S5  1  0.33225365  0.63047783  0.58326852  1
  S  S6  1  0.83241684  0.03602864  0.08123567  1
  S  S7  1  0.68290149  0.33461046  0.08231538  1
  S  S8  1  0.31247757  0.66167351  0.91526672  1
  S  S9  1  0.02394110  0.37962815  0.91456746  1
  S  S10  1  0.51872357  0.37748176  0.91498241  1
  S  S11  1  0.16722169  0.95535747  0.91384422  1
  S  S12  1  0.66449211  0.37338989  0.41304793  1
  S  S13  1  0.02067079  0.66327534  0.41484841  1
  S  S14  1  0.52220156  0.66667968  0.41477489  1
  O  O0  1  0.10815901  0.03668704  0.31276269  1
  O  O1  1  0.60925311  0.04651528  0.30985998  1
  O  O2  1  0.40327616  0.77363839  0.31217455  1
  O  O3  1  0.90784883  0.79060417  0.31169085  1
  O  O4  1  0.48720033  0.20272886  0.30908380  1
  O  O5  1  0.99368168  0.20630915  0.30868612  1
  O  O6  1  0.11139486  0.17414967  0.81269573  1
  O  O7  1  0.61707164  0.19281224  0.81390672  1
  O  O8  1  0.49090574  0.78026249  0.81130924  1
  O  O9  1  0.99066639  0.77434773  0.81062338  1
  O  O10  1  0.40587876  0.01606634  0.81663693  1
  O  O11  1  0.90287868  0.03387128  0.81390351  1
  O  O12  1  0.39761223  0.96904002  0.69815285  1
  O  O13  1  0.89861660  0.99050943  0.69446931  1
  O  O14  1  0.09045178  0.18577570  0.69482972  1
  O  O15  1  0.58844658  0.20163670  0.69684873  1
  O  O16  1  0.00647292  0.81257588  0.70222388  1
  O  O17  1  0.51105113  0.81739580  0.70310346  1
  O  O18  1  0.39652874  0.80493031  0.19251683  1
  O  O19  1  0.89647441  0.81893999  0.19380367  1
  O  O20  1  0.01248258  0.20699815  0.20028099  1
  O  O21  1  0.50366090  0.19698668  0.20065610  1
  O  O22  1  0.08957085  0.97555862  0.19401875  1
  O  O23  1  0.59202088  0.99546689  0.19153476  1
  O  O24  1  0.43709358  0.35814173  0.64546439  1
  O  O25  1  0.94051077  0.35464182  0.64470396  1
  O  O26  1  0.23479880  0.10841063  0.63796767  1
  O  O27  1  0.74206250  0.12688419  0.63958284  1
  O  O28  1  0.32000243  0.53157116  0.63745502  1
  O  O29  1  0.82351891  0.50542720  0.63128104  1
  O  O30  1  0.43415613  0.51858381  0.13995333  1
  O  O31  1  0.93488431  0.51452389  0.14420540  1
  O  O32  1  0.31973616  0.13726345  0.12861164  1
  O  O33  1  0.82029794  0.11144454  0.13523098  1
  O  O34  1  0.24384519  0.35700052  0.13645390  1
  O  O35  1  0.73429013  0.36081610  0.13567735  1
  O  O36  1  0.22129019  0.29059385  0.01937721  1
  O  O37  1  0.71893439  0.30313384  0.02757890  1
  O  O38  1  0.43070244  0.56024150  0.02213260  1
  O  O39  1  0.91864277  0.54013200  0.02299212  1
  O  O40  1  0.35037995  0.13697980  0.01209288  1
  O  O41  1  0.83849995  0.12534555  0.02556063  1
  O  O42  1  0.22073057  0.13701422  0.52985995  1
  O  O43  1  0.71575090  0.14926901  0.52224508  1
  O  O44  1  0.33803310  0.55063486  0.52782048  1
  O  O45  1  0.84744433  0.54617763  0.51322145  1
  O  O46  1  0.41739102  0.29558335  0.52471792  1
  O  O47  1  0.93305546  0.30366193  0.52478297  1
  O  O48  1  0.26576297  0.67034078  0.96956508  1
  O  O49  1  0.77185622  0.68667217  0.97936722  1
  O  O50  1  0.07620261  0.48049785  0.96634727  1
  O  O51  1  0.57152456  0.47253547  0.96794066  1
  O  O52  1  0.16659751  0.86032519  0.96892192  1
  O  O53  1  0.65369959  0.84744880  0.97433793  1
  O  O54  1  0.27259540  0.85887489  0.48009654  1
  O  O55  1  0.76538763  0.85332947  0.47283864  1
  O  O56  1  0.15878526  0.46704498  0.47521215  1
  O  O57  1  0.66020257  0.46294665  0.46832657  1
  O  O58  1  0.07348530  0.67120373  0.46757705  1
  O  O59  1  0.57374843  0.66937092  0.46625839  1
  O  O60  1  0.06490354  0.65418111  0.35967615  1
  O  O61  1  0.55804640  0.64566040  0.35808413  1
  O  O62  1  0.25847240  0.86094341  0.36381107  1
  O  O63  1  0.76069174  0.90355563  0.35491165  1
  O  O64  1  0.17505900  0.48069560  0.35805008  1
  O  O65  1  0.66421399  0.46593784  0.35916617  1
  O  O66  1  0.06192592  0.47391568  0.85860828  1
  O  O67  1  0.56345901  0.47145787  0.85988423  1
  O  O68  1  0.16893300  0.86372236  0.85989450  1
  O  O69  1  0.67171503  0.86642721  0.85810758  1
  O  O70  1  0.26415873  0.64885429  0.86082424  1
  O  O71  1  0.75838387  0.65632846  0.86321353  1
  O  O72  1  0.01800884  0.81968432  0.41710231  1
  O  O73  1  0.52029545  0.82562847  0.41725808  1
  O  O74  1  0.41340280  0.98165077  0.41521344  1
  O  O75  1  0.90717536  0.97921066  0.41451834  1
  O  O76  1  0.08462978  0.18163292  0.41776777  1
  O  O77  1  0.58848642  0.20417949  0.41663395  1
  O  O78  1  0.02253049  0.21807280  0.91727107  1
  O  O79  1  0.51233901  0.21201637  0.91728608  1
  O  O80  1  0.08968802  0.96676805  0.91819799  1
  O  O81  1  0.57823449  0.98216094  0.91571006  1
  O  O82  1  0.39550391  0.81658553  0.91657845  1
  O  O83  1  0.91317985  0.84462579  0.91500139  1
  O  O84  1  0.48488544  0.16001626  0.58893697  1
  O  O85  1  0.00227891  0.17627172  0.58986187  1
  O  O86  1  0.09809528  0.00849885  0.59067113  1
  O  O87  1  0.58669132  0.00637126  0.59259450  1
  O  O88  1  0.40571630  0.80323592  0.58687179  1
  O  O89  1  0.91573770  0.82128783  0.58539572  1
  O  O90  1  0.50019062  0.82664576  0.08796611  1
  O  O91  1  0.98536478  0.81059106  0.08785351  1
  O  O92  1  0.41578650  0.00460967  0.08518077  1
  O  O93  1  0.90596095  0.00882549  0.08487769  1
  O  O94  1  0.08881276  0.16390633  0.08909653  1
  O  O95  1  0.59682259  0.18733134  0.08872310  1
  O  O96  1  0.34237081  0.16375213  0.75208464  1
  O  O97  1  0.84201581  0.17847255  0.74854144  1
  O  O98  1  0.24699749  0.32698191  0.74319597  1
  O  O99  1  0.74447893  0.32983978  0.74353213  1
  O  O100  1  0.42298900  0.54052566  0.74837497  1
  O  O101  1  0.92669003  0.53308682  0.74695787  1
  O  O102  1  0.34172852  0.50618129  0.24681231  1
  O  O103  1  0.84006562  0.51379935  0.25047959  1
  O  O104  1  0.42472622  0.31859269  0.24525730  1
  O  O105  1  0.92392930  0.30694124  0.24607299  1
  O  O106  1  0.24094403  0.15989637  0.24424341  1
  O  O107  1  0.74664904  0.16369491  0.24212824  1
  O  O108  1  0.32163913  0.51180614  0.91707636  1
  O  O109  1  0.82615665  0.50224574  0.91537162  1
  O  O110  1  0.43682161  0.36801157  0.91678137  1
  O  O111  1  0.93833833  0.35463350  0.92018655  1
  O  O112  1  0.24285367  0.12318012  0.91299269  1
  O  O113  1  0.75140766  0.14871473  0.92016189  1
  O  O114  1  0.32622837  0.15005913  0.41604355  1
  O  O115  1  0.82907998  0.16475101  0.42246091  1
  O  O116  1  0.25633464  0.36246020  0.41993957  1
  O  O117  1  0.74163366  0.36189834  0.41268256  1
  O  O118  1  0.43565252  0.52208633  0.42062990  1
  O  O119  1  0.93834205  0.51398476  0.41614413  1
  O  O120  1  0.17817518  0.50112779  0.07662637  1
  O  O121  1  0.67595010  0.48848157  0.07618611  1
  O  O122  1  0.07380101  0.66443733  0.07619328  1
  O  O123  1  0.58201427  0.66049324  0.08249059  1
  O  O124  1  0.25261042  0.85045908  0.07537854  1
  O  O125  1  0.75472763  0.86010962  0.07927768  1
  O  O126  1  0.17737756  0.86575234  0.57784269  1
  O  O127  1  0.67731396  0.85262280  0.57932469  1
  O  O128  1  0.25486972  0.65201723  0.58121520  1
  O  O129  1  0.75183089  0.64542270  0.57591316  1
  O  O130  1  0.08422198  0.50622911  0.58403561  1
  O  O131  1  0.57487427  0.48438351  0.57537684  1
  O  O132  1  0.14718939  0.81857822  0.25560834  1
  O  O133  1  0.64793816  0.82771140  0.24993614  1
  O  O134  1  0.25346565  0.66100362  0.25043504  1
  O  O135  1  0.75448430  0.67703197  0.25216994  1
  O  O136  1  0.07604995  0.46647705  0.25240071  1
  O  O137  1  0.57556481  0.45827849  0.25148312  1
  O  O138  1  0.15085699  0.47060889  0.75261674  1
  O  O139  1  0.64759756  0.47908282  0.75439528  1
  O  O140  1  0.07784103  0.69284650  0.75210963  1
  O  O141  1  0.57468602  0.68512564  0.75485390  1
  O  O142  1  0.25452661  0.82939203  0.75426249  1
  O  O143  1  0.75411485  0.84782568  0.75142575  1
loop_
_geom_bond_atom_site_label_1
_geom_bond_atom_site_label_2
_geom_bond_distance
_geom_bond_site_symmetry_2
Na0 O63 2.348940 1_555
Na0 O107 2.377535 1_565
Na0 O133 2.555939 1_555
Na0 O135 2.582431 1_555
Na0 O105 2.622869 1_565
Na0 O33 2.902410 1_565
Na1 O134 2.489495 1_555
Na1 O106 2.517269 1_555
Na1 O64 2.550416 1_555
Na1 O102 2.555276 1_555
Na1 O136 2.663816 1_555
Na1 O0 2.800804 1_555
Na1 O34 2.950019 1_555
Na2 O103 2.370923 1_555
Na2 O135 2.473052 1_555
Na2 O65 2.532455 1_555
Na2 O107 2.604028 1_555
Na2 O137 2.654646 1_555
Na2 O1 2.834994 1_555
Na2 O35 2.892026 1_555
Na3 O103 2.391242 1_555
Na3 O31 2.487204 1_555
Na3 O132 2.553776 1_655
Na3 O105 2.672972 1_555
Na3 O136 2.771541 1_655
Na3 O60 2.922243 1_655
Na3 O3 2.932410 1_555
Na3 O22 2.946268 1_655
Na4 O133 2.343126 1_555
Na4 O61 2.515477 1_555
Na4 O102 2.594340 1_555
Na4 O104 2.637581 1_555
Na4 O137 2.671345 1_555
Na4 O30 2.876712 1_555
Na4 O2 2.916882 1_555
Na5 O98 2.390423 1_555
Na5 O138 2.513135 1_555
Na5 O142 2.555575 1_555
Na5 O28 2.561120 1_555
Na5 O100 2.599049 1_555
Na5 O70 2.789159 1_555
Na5 O12 2.950610 1_555
Na6 O138 2.407511 1_555
Na6 O97 2.555025 1_455
Na6 O25 2.583894 1_455
Na6 O101 2.625018 1_455
Na6 O140 2.712976 1_555
Na6 O66 2.716199 1_555
Na7 O24 2.317096 1_555
Na7 O96 2.439004 1_555
Na7 O139 2.524520 1_555
Na7 O100 2.673415 1_555
Na7 O141 2.734434 1_555
Na7 O15 2.855165 1_555
Na8 O96 2.412623 1_555
Na8 O142 2.495795 1_545
Na8 O98 2.566286 1_555
Na8 O140 2.640639 1_545
Na8 O68 2.671954 1_545
Na8 O26 2.727847 1_555
Na8 O6 2.878327 1_555
Na9 O143 2.436829 1_545
Na9 O97 2.497545 1_555
Na9 O99 2.561149 1_555
Na9 O69 2.674612 1_545
Na9 O141 2.698595 1_545
Na9 O27 2.737859 1_555
Na9 O7 2.866255 1_555
Na10 O85 2.356169 1_555
Na10 O130 2.461437 1_555
Na10 O128 2.618438 1_555
Na10 O86 2.643735 1_555
Na10 O14 2.716397 1_555
Na10 O56 2.764111 1_555
Na10 O28 2.973463 1_555
Na10 O42 2.977173 1_555
Na11 O129 2.504685 1_555
Na11 O131 2.540336 1_555
Na11 O87 2.664319 1_555
Na11 O43 2.720242 1_555
Na11 O57 2.726062 1_555
Na11 O84 2.787786 1_555
Na11 O29 2.898171 1_555
Na11 O15 2.939433 1_555
Na12 O84 2.382724 1_565
Na12 O54 2.503112 1_555
Na12 O126 2.569787 1_555
Na12 O88 2.642223 1_555
Na12 O46 2.693634 1_565
Na12 O128 2.741582 1_555
Na12 O26 2.914666 1_565
Na12 O12 2.987536 1_555
Na13 O127 2.556656 1_555
Na13 O89 2.574031 1_555
Na13 O55 2.640919 1_555
Na13 O85 2.681792 1_665
Na13 O129 2.709626 1_555
Na13 O47 2.828496 1_565
Na13 O13 2.885659 1_555
Na13 O27 3.014679 1_565
Na14 O122 2.554276 1_555
Na14 O94 2.559847 1_565
Na14 O124 2.603546 1_555
Na14 O22 2.698579 1_555
Na14 O91 2.740269 1_455
Na14 O32 2.780580 1_565
Na14 O52 2.886447 1_554
Na14 O36 2.901895 1_565
Na15 O90 2.400992 1_555
Na15 O123 2.480865 1_555
Na15 O23 2.538921 1_555
Na15 O125 2.588265 1_555
Na15 O95 2.666024 1_565
Na15 O53 2.864406 1_554
Na15 O33 2.904626 1_565
Na16 O92 2.542459 1_565
Na16 O120 2.544521 1_555
Na16 O18 2.626888 1_555
Na16 O90 2.636844 1_555
Na16 O124 2.647367 1_555
Na16 O34 2.882385 1_555
Na16 O48 2.897193 1_554
Na16 O38 2.921780 1_555
Na17 O91 2.408222 1_555
Na17 O121 2.579686 1_555
Na17 O93 2.599663 1_565
Na17 O49 2.613651 1_554
Na17 O125 2.691241 1_555
Na17 O19 2.754285 1_555
Na17 O39 2.827829 1_555
Na17 O35 2.880313 1_555
Na18 O38 2.370800 1_556
Na18 O82 2.467539 1_555
Na18 O81 2.496512 1_555
Na18 O108 2.522474 1_555
Na18 O110 2.568017 1_555
Na18 O8 2.710105 1_555
Na19 O109 2.376398 1_555
Na19 O83 2.411108 1_555
Na19 O80 2.511715 1_655
Na19 O39 2.533794 1_556
Na19 O9 2.624366 1_555
Na19 O111 2.633550 1_555
Na20 O40 2.341696 1_556
Na20 O10 2.454709 1_555
Na20 O79 2.502535 1_555
Na20 O112 2.507356 1_555
Na20 O110 2.568925 1_555
Na20 O82 2.586711 1_545
Na21 O11 2.323025 1_555
Na21 O83 2.546004 1_545
Na21 O113 2.549176 1_555
Na21 O111 2.554229 1_555
Na21 O78 2.723799 1_655
Na21 O41 2.778156 1_556
Na22 O112 2.433736 1_555
Na22 O78 2.471705 1_555
Na22 O6 2.500525 1_555
Na22 O80 2.516087 1_545
Na22 O36 2.535627 1_556
Na22 O108 2.544652 1_555
Na23 O7 2.281404 1_555
Na23 O113 2.419236 1_555
Na23 O81 2.480355 1_545
Na23 O109 2.544658 1_555
Na23 O79 2.661976 1_555
Na23 O37 2.844053 1_556
Na24 O114 2.416778 1_555
Na24 O74 2.447322 1_545
Na24 O77 2.516637 1_555
Na24 O46 2.564600 1_555
Na24 O118 2.661983 1_555
Na24 O4 2.668944 1_555
Na25 O115 2.339101 1_555
Na25 O75 2.356977 1_545
Na25 O47 2.392554 1_555
Na25 O76 2.565945 1_655
Na25 O119 2.650258 1_555
Na25 O5 2.758413 1_555
Na26 O0 2.337277 1_555
Na26 O76 2.370392 1_555
Na26 O116 2.484517 1_555
Na26 O72 2.549958 1_545
Na26 O114 2.594114 1_555
Na26 O42 2.918502 1_555
Na27 O115 2.445523 1_555
Na27 O117 2.523008 1_555
Na27 O73 2.598864 1_545
Na27 O43 2.612960 1_555
Na27 O1 2.618343 1_555
Na27 O77 2.678737 1_555
Na27 O63 2.787170 1_545
Na28 O2 2.363575 1_555
Na28 O118 2.494619 1_555
Na28 O116 2.504040 1_555
Na28 O74 2.533120 1_555
Na28 O73 2.658294 1_555
Na28 O44 2.830616 1_555
Na29 O45 2.428488 1_555
Na29 O75 2.470938 1_555
Na29 O117 2.585191 1_555
Na29 O3 2.594519 1_555
Na29 O72 2.655657 1_655
Na29 O119 2.669714 1_555
Na30 O75 2.266324 1_555
Na30 O76 2.367623 1_665
Na30 O72 2.526609 1_655
Na30 O89 2.600497 1_555
Na30 O85 2.725470 1_665
Na30 O86 2.962399 1_665
Na31 O74 2.388315 1_545
Na31 O77 2.448434 1_555
Na31 O73 2.474103 1_545
Na31 O87 2.679879 1_555
Na31 O84 2.706247 1_555
Na31 O88 2.760928 1_545
Na32 O83 2.395386 1_545
Na32 O80 2.545938 1_645
Na32 O78 2.569664 1_655
Na32 O94 2.608383 1_656
Na32 O91 2.614021 1_546
Na32 O93 2.623170 1_556
Na33 O81 2.396252 1_545
Na33 O92 2.488368 1_556
Na33 O79 2.573583 1_555
Na33 O82 2.588333 1_545
Na33 O90 2.603048 1_546
Na33 O95 2.696984 1_556
Na34 O96 2.278323 1_555
Na34 O98 2.353284 1_555
Na34 O100 2.569564 1_555
Na34 O112 2.602518 1_555
Na34 O108 2.762281 1_555
Na34 O110 2.806871 1_555
Na35 O109 2.377005 1_555
Na35 O113 2.474416 1_555
Na35 O99 2.484192 1_555
Na35 O97 2.517399 1_555
Na35 O101 2.700096 1_555
Na35 O111 2.827640 1_555
Na36 O114 2.336653 1_555
Na36 O116 2.393600 1_555
Na36 O106 2.570868 1_555
Na36 O102 2.616127 1_555
Na36 O118 2.737030 1_555
Na36 O104 2.741061 1_555
Na37 O115 2.473038 1_555
Na37 O107 2.487462 1_555
Na37 O117 2.497147 1_555
Na37 O103 2.520683 1_555
Na37 O105 2.704627 1_555
Na37 O119 2.734977 1_555
Na38 O134 2.428300 1_555
Na38 O132 2.432562 1_555
Na38 O136 2.594050 1_555
Na38 O124 2.645542 1_555
Na38 O120 2.731240 1_555
Na38 O122 2.735050 1_555
Na39 O133 2.284916 1_555
Na39 O135 2.333443 1_555
Na39 O137 2.375271 1_555
Na39 O123 2.625477 1_555
Na39 O125 2.860431 1_555
Na39 O121 2.907934 1_555
Na40 O138 2.396459 1_555
Na40 O140 2.415189 1_555
Na40 O142 2.460270 1_555
Na40 O130 2.467776 1_555
Na40 O128 2.738196 1_555
Na40 O126 2.824905 1_555
Na41 O129 2.508828 1_555
Na41 O127 2.542453 1_555
Na41 O139 2.548685 1_555
Na41 O131 2.591948 1_555
Na41 O143 2.595244 1_555
Na41 O141 2.767577 1_555
O0 Si0 1.616498 1_545
O0 Zn0 2.047870 1_445
O1 Si1 1.647802 1_555
O1 Zn1 1.993392 1_545
O2 Si2 1.616481 1_555
O2 Zn1 1.970963 1_555
O3 Si3 1.624507 1_555
O3 Zn0 1.989500 1_555
O4 S1 1.478008 1_555
O4 Zn1 2.211324 1_545
O5 S0 1.474637 1_655
O5 Zn0 2.185807 1_545
O6 Si4 1.653820 1_555
O6 Zn2 2.009831 1_455
O7 Si5 1.626422 1_555
O7 Zn3 1.949654 1_555
O8 S3 1.485127 1_555
O8 Zn3 2.144515 1_565
O9 S2 1.481540 1_655
O9 Zn2 2.169689 1_565
O10 Si6 1.641890 1_545
O10 Zn3 1.976081 1_555
O11 Si7 1.621198 1_555
O11 Zn2 1.950482 1_555
O12 Si6 1.664972 1_555
O12 Zr1 2.031196 1_565
O13 Si7 1.646174 1_565
O13 Zr0 1.986995 1_555
O14 Si4 1.662875 1_555
O14 Zr0 2.054870 1_445
O15 Si5 1.660278 1_555
O15 Zr1 2.002338 1_555
O16 S2 1.492601 1_555
O16 Zr0 2.210044 1_455
O17 S3 1.487947 1_555
O17 Zr1 2.273660 1_565
O18 Si2 1.652152 1_555
O18 Zr3 1.990594 1_555
O19 Si3 1.687531 1_555
O19 Zr2 2.015224 1_555
O20 S0 1.498895 1_555
O20 Zr2 2.227152 1_445
O21 S1 1.498274 1_555
O21 Zr3 2.164243 1_545
O22 Si0 1.671256 1_555
O22 Zr2 1.997533 1_455
O23 Si1 1.676540 1_565
O23 Zr3 2.017666 1_555
O24 Si8 1.626850 1_555
O24 Zn4 1.953564 1_555
O25 Si9 1.636996 1_555
O25 Zr4 2.079577 1_555
O26 S4 1.480831 1_555
O26 Zn4 2.176383 1_555
O27 Si10 1.662005 1_555
O27 Zr4 2.026162 1_555
O28 S5 1.468934 1_555
O28 Zn4 2.419059 1_555
O29 Si11 1.642098 1_555
O29 Zr4 1.997497 1_555
O30 Si12 1.633053 1_555
O30 Zr5 2.080288 1_555
O31 Si13 1.611978 1_555
O31 Zn5 1.974080 1_555
O32 Si14 1.638430 1_555
O32 Zr5 2.041802 1_555
O33 S6 1.464920 1_555
O33 Zn5 2.383135 1_555
O34 Si15 1.652509 1_555
O34 Zr5 2.034891 1_555
O35 S7 1.474789 1_555
O35 Zn5 2.240375 1_555
O36 Si15 1.632086 1_555
O36 Zn6 1.966831 1_555
O37 S7 1.485160 1_555
O37 Zn7 2.166798 1_554
O38 Si12 1.636605 1_555
O38 Zn6 1.956286 1_555
O39 Si13 1.626296 1_555
O39 Zn7 1.987942 1_554
O40 Si14 1.619397 1_555
O40 Zn6 1.953479 1_555
O41 S6 1.470586 1_555
O41 Zn7 2.366580 1_554
O42 S4 1.482355 1_555
O42 Zn8 2.210853 1_555
O43 Si10 1.620198 1_555
O43 Zn9 2.011500 1_555
O44 S5 1.473418 1_555
O44 Zn8 2.357830 1_555
O45 Si11 1.612088 1_555
O45 Zn9 2.047900 1_555
O46 Si8 1.631605 1_555
O46 Zn8 1.983664 1_555
O47 Si9 1.613728 1_555
O47 Zn9 2.013692 1_555
O48 S8 1.508848 1_555
O48 Zr6 2.225176 1_556
O49 Si16 1.671627 1_555
O49 Zr7 2.059699 1_556
O50 S9 1.503636 1_555
O50 Zr6 2.123095 1_556
O51 S10 1.512761 1_555
O51 Zr7 2.114894 1_556
O52 S11 1.514161 1_555
O52 Zr6 2.198751 1_556
O53 Si17 1.678465 1_555
O53 Zr7 1.973827 1_556
O54 Si18 1.671739 1_555
O54 Zr8 2.065565 1_555
O55 Si19 1.678036 1_555
O55 Zr9 2.026093 1_555
O56 Si20 1.674893 1_555
O56 Zr8 1.960543 1_555
O57 S12 1.511416 1_555
O57 Zr9 2.221702 1_555
O58 S13 1.516029 1_555
O58 Zr8 2.095388 1_555
O59 S14 1.493532 1_555
O59 Zr9 2.166889 1_555
O60 S13 1.499573 1_555
O60 Zr10 2.212454 1_555
O61 S14 1.482715 1_555
O61 Zn10 2.276902 1_555
O62 Si18 1.666290 1_555
O62 Zr10 1.946937 1_555
O63 Si19 1.632864 1_555
O63 Zn10 1.925670 1_555
O64 Si20 1.662137 1_555
O64 Zr10 2.061582 1_555
O65 S12 1.483856 1_555
O65 Zn10 2.318816 1_555
O66 S9 1.484237 1_555
O66 Zn11 2.173831 1_555
O67 S10 1.493621 1_555
O67 Zr11 2.263701 1_555
O68 S11 1.483550 1_555
O68 Zn11 2.215976 1_555
O69 Si17 1.655480 1_555
O69 Zr11 2.064948 1_555
O70 S8 1.486167 1_555
O70 Zn11 2.073018 1_555
O71 Si16 1.664967 1_555
O71 Zr11 1.954379 1_555
O72 S13 1.474461 1_555
O72 Zn0 2.396972 1_455
O73 S14 1.490875 1_555
O73 Zn1 2.453038 1_555
O74 Si18 1.635723 1_555
O74 Zn1 2.226736 1_555
O75 Si19 1.645445 1_555
O75 Zn0 2.145874 1_555
O76 Si20 1.618724 1_555
O76 Zn0 2.263819 1_445
O77 S12 1.493529 1_555
O77 Zn1 2.532889 1_545
O78 S9 1.484862 1_555
O78 Zn2 2.508058 1_455
O79 S10 1.478198 1_555
O79 Zn3 2.459598 1_555
O80 S11 1.488006 1_555
O81 Si17 1.639164 1_555
O81 Zn3 2.228018 1_565
O82 S8 1.486306 1_555
O82 Zn3 2.581566 1_565
O83 Si16 1.636654 1_555
O83 Zn2 2.255571 1_565
O84 Si8 1.709527 1_555
O84 Zr1 2.037814 1_555
O85 Si9 1.682170 1_455
O85 Zr0 2.055051 1_445
O86 S4 1.487163 1_555
O86 Zr0 2.281133 1_445
O87 Si10 1.637795 1_555
O87 Zr1 2.057883 1_555
O88 S5 1.495658 1_555
O88 Zr1 2.327568 1_565
O89 Si11 1.654563 1_555
O89 Zr0 2.099549 1_555
O90 Si12 1.672463 1_555
O90 Zr3 2.086087 1_555
O91 Si13 1.694870 1_555
O91 Zr2 2.060586 1_555
O92 Si14 1.635995 1_555
O92 Zr3 2.108343 1_545
O93 S6 1.501318 1_555
O93 Zr2 2.342750 1_545
O94 Si15 1.633389 1_555
O94 Zr2 2.115097 1_445
O95 S7 1.494792 1_555
O95 Zr3 2.309605 1_545
O96 Si6 1.647748 1_545
O96 Zn4 2.087794 1_555
O97 Si7 1.641949 1_555
O97 Zr4 2.178448 1_555
O98 Si4 1.652797 1_555
O98 Zn4 2.085405 1_555
O99 Si5 1.633290 1_555
O99 Zr4 2.109660 1_555
O100 S3 1.479506 1_555
O100 Zn4 2.356938 1_555
O101 S2 1.489489 1_655
O101 Zr4 2.341859 1_555
O102 Si2 1.645353 1_555
O102 Zr5 2.140182 1_555
O103 Si3 1.648478 1_555
O103 Zn5 2.041046 1_555
O104 S1 1.496806 1_555
O104 Zr5 2.286403 1_555
O105 S0 1.474340 1_655
O105 Zn5 2.296152 1_555
O106 Si0 1.646075 1_545
O106 Zr5 2.106462 1_555
O107 Si1 1.645507 1_555
O107 Zn5 2.054677 1_555
O108 S8 1.480446 1_555
O109 Si16 1.634405 1_555
O109 Zn7 2.065839 1_555
O110 S10 1.468949 1_555
O111 S9 1.481051 1_655
O111 Zn7 2.348710 1_555
O112 S11 1.481510 1_545
O113 Si17 1.642261 1_545
O113 Zn7 2.134450 1_555
O114 Si18 1.631084 1_545
O114 Zn8 2.066203 1_555
O115 Si19 1.648613 1_545
O115 Zn9 2.140768 1_555
O116 Si20 1.643216 1_555
O116 Zn8 2.114170 1_555
O117 S12 1.478849 1_555
O118 S14 1.489785 1_555
O118 Zn8 2.291407 1_555
O119 S13 1.455839 1_655
O120 Si15 1.653644 1_555
O120 Zr6 2.018469 1_555
O121 S7 1.500126 1_555
O121 Zr7 2.261723 1_555
O122 Si13 1.680048 1_455
O122 Zr6 2.005122 1_555
O123 Si12 1.659357 1_555
O123 Zr7 2.093764 1_555
O124 Si14 1.675851 1_565
O124 Zr6 2.033466 1_555
O125 S6 1.541809 1_565
O125 Zr7 2.199795 1_555
O126 S4 1.499061 1_565
O126 Zr8 2.262449 1_555
O127 Si10 1.648691 1_565
O127 Zr9 2.042010 1_555
O128 S5 1.537852 1_555
O128 Zr8 2.213112 1_555
O129 Si11 1.680506 1_555
O129 Zr9 2.055589 1_555
O130 Si9 1.666531 1_455
O130 Zr8 2.099492 1_555
O131 Si8 1.652238 1_555
O131 Zr9 2.121629 1_555
O132 Si0 1.654235 1_555
O132 Zr10 2.115684 1_555
O133 Si1 1.649223 1_565
O133 Zn10 2.098848 1_555
O134 Si2 1.659564 1_555
O134 Zr10 2.055934 1_555
O135 Si3 1.649312 1_555
O135 Zn10 2.020878 1_555
O136 S0 1.506682 1_555
O136 Zr10 2.380152 1_555
O137 S1 1.476229 1_555
O137 Zn10 2.555616 1_555
O138 Si4 1.658313 1_555
O138 Zn11 2.052869 1_555
O139 Si5 1.650239 1_555
O139 Zr11 2.098678 1_555
O140 S2 1.489963 1_555
O140 Zn11 2.342679 1_555
O141 S3 1.501857 1_555
O141 Zr11 2.349112 1_555
O142 Si6 1.653852 1_555
O142 Zn11 1.993259 1_555
O143 Si7 1.660717 1_565
O143 Zr11 2.037239 1_555
