# generated using pymatgen
data_Na14Hf3Zn5(PO4)12
_symmetry_space_group_name_H-M   'P 1'
_cell_length_a   18.10352213
_cell_length_b   9.04727417
_cell_length_c   22.32665078
_cell_angle_alpha   90.10100743
_cell_angle_beta   89.91132274
_cell_angle_gamma   120.15464516
_symmetry_Int_Tables_number   1
_chemical_formula_structural   Na14Hf3Zn5(PO4)12
_chemical_formula_sum   'Na42 Hf9 Zn15 P36 O144'
_cell_volume   3161.95264945
_cell_formula_units_Z   3
loop_
 _symmetry_equiv_pos_site_id
 _symmetry_equiv_pos_as_xyz
  1  'x, y, z'
loop_
 _atom_site_type_symbol
 _atom_site_label
 _atom_site_symmetry_multiplicity
 _atom_site_fract_x
 _atom_site_fract_y
 _atom_site_fract_z
 _atom_site_occupancy
  Na  Na0  1  0.18544804  0.35994247  0.24736881  1
  Na  Na1  1  0.68604478  0.36109329  0.24764592  1
  Na  Na2  1  0.99321611  0.62757488  0.24802175  1
  Na  Na3  1  0.49335915  0.62698508  0.24729492  1
  Na  Na4  1  0.31957285  0.62770278  0.74730285  1
  Na  Na5  1  0.82010332  0.62951826  0.74741655  1
  Na  Na6  1  0.18609438  0.01395245  0.74736166  1
  Na  Na7  1  0.68647945  0.01299583  0.74689862  1
  Na  Na8  1  0.15515079  0.34515913  0.57883126  1
  Na  Na9  1  0.65540692  0.34566400  0.57870402  1
  Na  Na10  1  0.01681695  0.68844168  0.57910522  1
  Na  Na11  1  0.51682050  0.68811016  0.57900188  1
  Na  Na12  1  0.32712925  0.96563793  0.57862186  1
  Na  Na13  1  0.82733872  0.96547847  0.57890711  1
  Na  Na14  1  0.15563348  0.96759679  0.07929406  1
  Na  Na15  1  0.65357724  0.96194165  0.08122904  1
  Na  Na16  1  0.32720426  0.68832897  0.07917014  1
  Na  Na17  1  0.01962523  0.34621893  0.08094363  1
  Na  Na18  1  0.51701123  0.34616657  0.07855440  1
  Na  Na19  1  0.48065740  0.66568980  0.91814693  1
  Na  Na20  1  0.98749113  0.68046765  0.91404165  1
  Na  Na21  1  0.35203831  0.03765974  0.91788531  1
  Na  Na22  1  0.16711192  0.29359088  0.91816095  1
  Na  Na23  1  0.66114462  0.29825534  0.91449401  1
  Na  Na24  1  0.48142184  0.29607536  0.41780273  1
  Na  Na25  1  0.98142703  0.29588791  0.41770200  1
  Na  Na26  1  0.16655582  0.03763166  0.41792587  1
  Na  Na27  1  0.66668680  0.03762794  0.41801133  1
  Na  Na28  1  0.35210946  0.66632611  0.41812227  1
  Na  Na29  1  0.85225401  0.66657294  0.41792355  1
  Na  Na30  1  0.99992839  0.00016464  0.49382815  1
  Na  Na31  1  0.49992856  0.00020048  0.49374130  1
  Na  Na32  1  0.99136963  0.99360182  0.99357126  1
  Na  Na33  1  0.49889814  0.99916101  0.99425051  1
  Na  Na34  1  0.33817561  0.33375171  0.83197062  1
  Na  Na35  1  0.83939225  0.32665045  0.82703948  1
  Na  Na36  1  0.33289876  0.32320500  0.33202272  1
  Na  Na37  1  0.83321706  0.32369414  0.33215599  1
  Na  Na38  1  0.17101028  0.67562128  0.16239601  1
  Na  Na39  1  0.67566562  0.67596566  0.16033053  1
  Na  Na40  1  0.16209397  0.65853386  0.66177021  1
  Na  Na41  1  0.66249601  0.65911361  0.66189600  1
  Hf  Hf0  1  0.99966829  0.00213788  0.64994365  1
  Hf  Hf1  1  0.49987282  0.00199647  0.64982335  1
  Hf  Hf2  1  0.99595747  0.99498838  0.14834962  1
  Hf  Hf3  1  0.49946200  0.00068996  0.14955767  1
  Hf  Hf4  1  0.83349372  0.33037797  0.98141880  1
  Hf  Hf5  1  0.16866104  0.67167890  0.31483014  1
  Hf  Hf6  1  0.66884618  0.67193708  0.31491582  1
  Hf  Hf7  1  0.16405718  0.66246182  0.81489064  1
  Hf  Hf8  1  0.66555576  0.66435543  0.81543836  1
  Zn  Zn0  1  0.99909739  0.00089134  0.34720609  1
  Zn  Zn1  1  0.49929297  0.00114819  0.34756701  1
  Zn  Zn2  1  0.99628608  0.00257039  0.84896662  1
  Zn  Zn3  1  0.49886743  0.00084154  0.84728335  1
  Zn  Zn4  1  0.33717409  0.33400246  0.68080392  1
  Zn  Zn5  1  0.83752008  0.33408163  0.68045933  1
  Zn  Zn6  1  0.33265306  0.32523964  0.18094255  1
  Zn  Zn7  1  0.83293949  0.32658688  0.18224252  1
  Zn  Zn8  1  0.33317666  0.33214898  0.98667071  1
  Zn  Zn9  1  0.33383861  0.33327908  0.48612259  1
  Zn  Zn10  1  0.83397214  0.33347594  0.48611803  1
  Zn  Zn11  1  0.16748916  0.66795240  0.01343164  1
  Zn  Zn12  1  0.67101732  0.66830903  0.01493204  1
  Zn  Zn13  1  0.16637293  0.66647862  0.51294624  1
  Zn  Zn14  1  0.66648752  0.66651833  0.51292805  1
  P  P0  1  0.14780447  0.00267865  0.25109404  1
  P  P1  1  0.64860698  0.00304816  0.25181796  1
  P  P2  1  0.35263868  0.70350290  0.25175137  1
  P  P3  1  0.85260583  0.70334964  0.25258988  1
  P  P4  1  0.99799777  0.29346635  0.25194495  1
  P  P5  1  0.49813745  0.29471907  0.25238641  1
  P  P6  1  0.14810124  0.29421761  0.75221733  1
  P  P7  1  0.64845607  0.29549302  0.75206349  1
  P  P8  1  0.99858850  0.70313259  0.75196978  1
  P  P9  1  0.49875889  0.70291622  0.75195647  1
  P  P10  1  0.35252807  0.00386094  0.75249174  1
  P  P11  1  0.85308614  0.00404442  0.75172540  1
  P  P12  1  0.48062581  0.33486587  0.58269311  1
  P  P13  1  0.98074765  0.33484383  0.58256173  1
  P  P14  1  0.18624595  0.03861063  0.58401707  1
  P  P15  1  0.68629107  0.03867950  0.58396700  1
  P  P16  1  0.33264975  0.62667433  0.58411584  1
  P  P17  1  0.83272352  0.62668168  0.58410603  1
  P  P18  1  0.48059868  0.62699358  0.08392304  1
  P  P19  1  0.98082170  0.62758170  0.08488114  1
  P  P20  1  0.33270845  0.03875826  0.08262587  1
  P  P21  1  0.83161581  0.03773815  0.08490808  1
  P  P22  1  0.18608074  0.33380745  0.08412356  1
  P  P23  1  0.68716626  0.33791295  0.08569789  1
  P  P24  1  0.31493705  0.66732704  0.91783067  1
  P  P25  1  0.81493177  0.67004454  0.91781065  1
  P  P26  1  0.01981006  0.36946847  0.91932894  1
  P  P27  1  0.51846628  0.37020155  0.91945162  1
  P  P28  1  0.16653003  0.96315020  0.91807097  1
  P  P29  1  0.66561041  0.95985052  0.91833903  1
  P  P30  1  0.31538503  0.96309817  0.41934089  1
  P  P31  1  0.81544444  0.96330258  0.41939911  1
  P  P32  1  0.16633619  0.37019796  0.41784721  1
  P  P33  1  0.66633273  0.37014057  0.41787156  1
  P  P34  1  0.01866783  0.66765024  0.41796552  1
  P  P35  1  0.51867724  0.66756659  0.41791484  1
  O  O0  1  0.10676675  0.02815870  0.30724784  1
  O  O1  1  0.60682994  0.02830651  0.30750194  1
  O  O2  1  0.40747270  0.78569000  0.30721149  1
  O  O3  1  0.90652130  0.78254606  0.30873481  1
  O  O4  1  0.48838494  0.19119126  0.30834925  1
  O  O5  1  0.98837569  0.19138285  0.30839258  1
  O  O6  1  0.10678575  0.18382776  0.80738205  1
  O  O7  1  0.60739850  0.18575090  0.80757637  1
  O  O8  1  0.48612163  0.78603615  0.80783653  1
  O  O9  1  0.98661179  0.78642251  0.80791701  1
  O  O10  1  0.40414131  0.02327404  0.80851479  1
  O  O11  1  0.90728831  0.02494930  0.80562593  1
  O  O12  1  0.39507531  0.97090391  0.69612335  1
  O  O13  1  0.89329968  0.96993686  0.69407829  1
  O  O14  1  0.09194584  0.20912741  0.69506996  1
  O  O15  1  0.59206512  0.20915775  0.69527250  1
  O  O16  1  0.01466075  0.82143006  0.69555826  1
  O  O17  1  0.51508347  0.82184411  0.69568113  1
  O  O18  1  0.39586802  0.81673047  0.19488926  1
  O  O19  1  0.89722342  0.82028417  0.19727633  1
  O  O20  1  0.01389792  0.20762609  0.19561350  1
  O  O21  1  0.51460277  0.20949614  0.19579126  1
  O  O22  1  0.08824642  0.96959568  0.19483898  1
  O  O23  1  0.58936061  0.97067313  0.19531613  1
  O  O24  1  0.43956986  0.36637599  0.63707061  1
  O  O25  1  0.93980106  0.36657783  0.63699466  1
  O  O26  1  0.23999205  0.11830157  0.64062855  1
  O  O27  1  0.73987168  0.11851202  0.64061776  1
  O  O28  1  0.31828995  0.51885406  0.64062495  1
  O  O29  1  0.81818577  0.51856743  0.64062066  1
  O  O30  1  0.44036256  0.51966790  0.14043873  1
  O  O31  1  0.94018226  0.51889667  0.14065493  1
  O  O32  1  0.31705984  0.12092086  0.13701040  1
  O  O33  1  0.81719828  0.12051088  0.13946247  1
  O  O34  1  0.24071465  0.36432859  0.14037492  1
  O  O35  1  0.73835880  0.35699645  0.14198637  1
  O  O36  1  0.22216542  0.29487907  0.02728712  1
  O  O37  1  0.72917983  0.30391908  0.02909169  1
  O  O38  1  0.42494286  0.55534852  0.02714529  1
  O  O39  1  0.92474059  0.54087339  0.02782436  1
  O  O40  1  0.35365582  0.14726590  0.02507076  1
  O  O41  1  0.84918308  0.15815481  0.02905029  1
  O  O42  1  0.22238546  0.14995489  0.52735244  1
  O  O43  1  0.72230891  0.14987619  0.52731337  1
  O  O44  1  0.35270971  0.55535887  0.52738049  1
  O  O45  1  0.85250015  0.55496306  0.52738148  1
  O  O46  1  0.42627513  0.29273283  0.52521987  1
  O  O47  1  0.92628528  0.29282340  0.52517061  1
  O  O48  1  0.27463186  0.69713456  0.97375817  1
  O  O49  1  0.77136160  0.69068339  0.97203654  1
  O  O50  1  0.07230527  0.44971617  0.97615327  1
  O  O51  1  0.57331788  0.44931096  0.97560493  1
  O  O52  1  0.15102874  0.85101590  0.97363849  1
  O  O53  1  0.65171781  0.85161129  0.97414126  1
  O  O54  1  0.27593703  0.85376790  0.47570563  1
  O  O55  1  0.77588303  0.85381611  0.47573728  1
  O  O56  1  0.15170596  0.45110328  0.47388383  1
  O  O57  1  0.65158269  0.45091107  0.47392532  1
  O  O58  1  0.07410771  0.69769276  0.47377591  1
  O  O59  1  0.57409253  0.69778354  0.47376005  1
  O  O60  1  0.06515341  0.64374560  0.36143049  1
  O  O61  1  0.56514683  0.64371541  0.36144576  1
  O  O62  1  0.25503689  0.86669013  0.36450602  1
  O  O63  1  0.75506749  0.86692366  0.36456816  1
  O  O64  1  0.17822828  0.48739479  0.36155724  1
  O  O65  1  0.67812947  0.48714986  0.36160756  1
  O  O66  1  0.06383351  0.49148589  0.86440813  1
  O  O67  1  0.56752809  0.49147186  0.86463929  1
  O  O68  1  0.17800388  0.86900140  0.86158875  1
  O  O69  1  0.67932597  0.87492505  0.86120589  1
  O  O70  1  0.25596259  0.64328063  0.86168591  1
  O  O71  1  0.75782504  0.63621116  0.86010377  1
  O  O72  1  0.01005848  0.82859743  0.41176198  1
  O  O73  1  0.50993605  0.82841705  0.41167405  1
  O  O74  1  0.40437300  0.98027624  0.41208883  1
  O  O75  1  0.90440768  0.98054173  0.41215048  1
  O  O76  1  0.08580956  0.19119368  0.41173029  1
  O  O77  1  0.58573500  0.19107761  0.41181271  1
  O  O78  1  0.01226451  0.19493823  0.91127298  1
  O  O79  1  0.50976468  0.19182294  0.91177237  1
  O  O80  1  0.08655011  0.98152254  0.91164547  1
  O  O81  1  0.58690189  0.98252154  0.91193182  1
  O  O82  1  0.40450859  0.82841764  0.91170161  1
  O  O83  1  0.90643105  0.81838953  0.91155914  1
  O  O84  1  0.48990831  0.16934933  0.59109494  1
  O  O85  1  0.99011757  0.16953758  0.59086468  1
  O  O86  1  0.09394597  0.01941017  0.59087284  1
  O  O87  1  0.59394348  0.01947528  0.59087281  1
  O  O88  1  0.41562622  0.81176683  0.59119241  1
  O  O89  1  0.91575926  0.81143413  0.59103252  1
  O  O90  1  0.49008559  0.81187393  0.09070209  1
  O  O91  1  0.99116714  0.81070728  0.08846189  1
  O  O92  1  0.41552010  0.02024556  0.09078369  1
  O  O93  1  0.91683205  0.03127861  0.08918185  1
  O  O94  1  0.09391589  0.16812942  0.09138489  1
  O  O95  1  0.59614764  0.16544978  0.08879116  1
  O  O96  1  0.33648475  0.15290637  0.74529173  1
  O  O97  1  0.83622345  0.15238817  0.74497508  1
  O  O98  1  0.23795380  0.31740362  0.74524266  1
  O  O99  1  0.73806055  0.31739048  0.74547573  1
  O  O100  1  0.41886546  0.52793688  0.74415647  1
  O  O101  1  0.91873099  0.52765356  0.74424512  1
  O  O102  1  0.34140125  0.52405154  0.24501858  1
  O  O103  1  0.84153280  0.52413158  0.24506345  1
  O  O104  1  0.42344337  0.32631377  0.24516212  1
  O  O105  1  0.92370983  0.32674931  0.24521616  1
  O  O106  1  0.23559243  0.16213080  0.24367578  1
  O  O107  1  0.73610679  0.16247896  0.24446409  1
  O  O108  1  0.32060711  0.50222982  0.91877445  1
  O  O109  1  0.81981237  0.49853878  0.92213021  1
  O  O110  1  0.43031060  0.35858761  0.91950429  1
  O  O111  1  0.93130568  0.36352009  0.92248431  1
  O  O112  1  0.24960291  0.13936287  0.91915644  1
  O  O113  1  0.74706740  0.14364786  0.92213401  1
  O  O114  1  0.32085266  0.13937136  0.41982545  1
  O  O115  1  0.82081363  0.13947444  0.41988170  1
  O  O116  1  0.24892115  0.35894828  0.41894179  1
  O  O117  1  0.74884910  0.35879211  0.41896489  1
  O  O118  1  0.43031067  0.50195499  0.41909043  1
  O  O119  1  0.93033925  0.50198255  0.41910612  1
  O  O120  1  0.17337348  0.49051158  0.07915966  1
  O  O121  1  0.66996297  0.48568298  0.07891683  1
  O  O122  1  0.07105846  0.65063759  0.07862279  1
  O  O123  1  0.57168913  0.65335674  0.07909534  1
  O  O124  1  0.25454808  0.85544737  0.07837270  1
  O  O125  1  0.75241515  0.86154182  0.07694488  1
  O  O126  1  0.17317550  0.85612599  0.57922035  1
  O  O127  1  0.67313871  0.85615801  0.57924241  1
  O  O128  1  0.25452940  0.65240724  0.57932862  1
  O  O129  1  0.75451431  0.65228334  0.57935289  1
  O  O130  1  0.07231839  0.49089152  0.57831242  1
  O  O131  1  0.57224429  0.49075616  0.57839414  1
  O  O132  1  0.15101436  0.83208216  0.25486922  1
  O  O133  1  0.65128822  0.83221542  0.25515908  1
  O  O134  1  0.26151652  0.68427548  0.25504102  1
  O  O135  1  0.76141425  0.68367798  0.25544534  1
  O  O136  1  0.08399439  0.47488534  0.25473733  1
  O  O137  1  0.58399770  0.47528886  0.25508639  1
  O  O138  1  0.15777762  0.47679331  0.75556366  1
  O  O139  1  0.65800126  0.47775298  0.75544031  1
  O  O140  1  0.08385656  0.69677863  0.75509674  1
  O  O141  1  0.58421524  0.69742272  0.75563883  1
  O  O142  1  0.26215912  0.83186121  0.75527781  1
  O  O143  1  0.76249935  0.83241870  0.75547064  1
loop_
_geom_bond_atom_site_label_1
_geom_bond_atom_site_label_2
_geom_bond_distance
_geom_bond_site_symmetry_2
Na0 O106 2.380172 1_555
Na0 O102 2.442664 1_555
Na0 O136 2.529668 1_555
Na0 O134 2.544652 1_555
Na0 O34 2.581105 1_555
Na0 O64 2.826023 1_555
Na0 O0 2.922200 1_555
Na0 O20 2.930040 1_555
Na1 O107 2.385549 1_555
Na1 O103 2.435357 1_555
Na1 O135 2.531390 1_555
Na1 O137 2.534556 1_555
Na1 O35 2.547813 1_555
Na1 O65 2.819203 1_555
Na1 O1 2.928796 1_555
Na1 O21 2.929718 1_555
Na2 O105 2.356612 1_555
Na2 O103 2.416438 1_555
Na2 O132 2.509500 1_655
Na2 O31 2.585582 1_555
Na2 O136 2.629437 1_655
Na2 O60 2.818888 1_655
Na2 O3 2.909297 1_555
Na2 O22 2.933078 1_655
Na3 O104 2.354712 1_555
Na3 O102 2.421591 1_555
Na3 O133 2.513899 1_555
Na3 O30 2.572546 1_555
Na3 O137 2.621177 1_555
Na3 O61 2.831704 1_555
Na3 O2 2.915216 1_555
Na3 O23 2.934803 1_555
Na4 O100 2.383329 1_555
Na4 O98 2.428768 1_555
Na4 O142 2.539843 1_555
Na4 O138 2.541447 1_555
Na4 O28 2.571390 1_555
Na4 O70 2.832050 1_555
Na4 O12 2.925566 1_555
Na4 O8 2.938715 1_555
Na5 O101 2.386416 1_555
Na5 O99 2.443002 1_555
Na5 O143 2.532024 1_555
Na5 O139 2.545659 1_555
Na5 O29 2.578947 1_555
Na5 O71 2.768391 1_555
Na5 O13 2.927020 1_555
Na5 O9 2.938202 1_555
Na6 O96 2.357160 1_555
Na6 O98 2.414891 1_555
Na6 O140 2.520848 1_545
Na6 O26 2.568513 1_555
Na6 O142 2.631055 1_545
Na6 O68 2.839540 1_545
Na6 O6 2.902238 1_555
Na6 O16 2.928585 1_545
Na7 O97 2.346553 1_555
Na7 O99 2.423584 1_555
Na7 O141 2.511462 1_545
Na7 O27 2.559314 1_555
Na7 O143 2.619258 1_545
Na7 O69 2.817460 1_545
Na7 O17 2.922174 1_545
Na7 O7 2.926148 1_555
Na8 O128 2.437103 1_555
Na8 O130 2.444112 1_555
Na8 O56 2.545836 1_555
Na8 O86 2.589739 1_555
Na8 O85 2.598605 1_455
Na8 O42 2.840724 1_555
Na8 O14 2.854184 1_555
Na8 O28 2.904753 1_555
Na9 O129 2.431928 1_555
Na9 O131 2.444470 1_555
Na9 O57 2.541388 1_555
Na9 O87 2.593040 1_555
Na9 O84 2.606746 1_555
Na9 O43 2.839895 1_555
Na9 O15 2.862327 1_555
Na9 O29 2.900991 1_555
Na10 O126 2.449430 1_555
Na10 O130 2.451189 1_555
Na10 O58 2.553215 1_555
Na10 O89 2.588226 1_455
Na10 O86 2.604360 1_565
Na10 O25 2.832455 1_455
Na10 O45 2.835045 1_455
Na10 O16 2.871419 1_555
Na11 O131 2.448420 1_555
Na11 O127 2.448950 1_555
Na11 O59 2.550640 1_555
Na11 O88 2.595825 1_555
Na11 O87 2.607754 1_565
Na11 O44 2.831670 1_555
Na11 O24 2.833270 1_555
Na11 O17 2.877168 1_555
Na12 O126 2.444463 1_555
Na12 O128 2.452886 1_555
Na12 O54 2.493804 1_555
Na12 O84 2.588931 1_565
Na12 O88 2.612853 1_555
Na12 O46 2.840791 1_565
Na12 O12 2.889343 1_555
Na12 O26 2.913455 1_565
Na13 O127 2.448912 1_555
Na13 O129 2.452386 1_555
Na13 O55 2.499425 1_555
Na13 O85 2.588152 1_565
Na13 O89 2.611885 1_555
Na13 O13 2.828487 1_555
Na13 O47 2.845194 1_565
Na13 O27 2.917486 1_565
Na14 O124 2.462068 1_555
Na14 O122 2.481234 1_555
Na14 O52 2.566612 1_554
Na14 O94 2.578127 1_565
Na14 O91 2.583576 1_455
Na14 O36 2.826885 1_565
Na14 O32 2.838604 1_565
Na14 O22 2.855847 1_555
Na15 O125 2.380747 1_555
Na15 O123 2.415782 1_555
Na15 O95 2.533966 1_565
Na15 O90 2.571024 1_555
Na15 O53 2.583031 1_554
Na15 O23 2.815721 1_555
Na15 O33 2.873789 1_565
Na15 O37 2.924766 1_565
Na16 O120 2.439509 1_555
Na16 O124 2.452479 1_555
Na16 O48 2.556342 1_554
Na16 O90 2.588560 1_555
Na16 O92 2.610758 1_565
Na16 O38 2.838121 1_555
Na16 O18 2.849275 1_555
Na16 O34 2.882339 1_555
Na17 O120 2.408799 1_555
Na17 O122 2.424661 1_555
Na17 O93 2.507840 1_455
Na17 O50 2.522651 1_554
Na17 O94 2.576547 1_555
Na17 O20 2.831512 1_555
Na17 O41 2.913390 1_455
Na17 O31 2.920691 1_455
Na18 O121 2.397726 1_555
Na18 O123 2.437237 1_555
Na18 O51 2.497539 1_554
Na18 O92 2.589094 1_555
Na18 O95 2.670874 1_555
Na18 O40 2.840176 1_555
Na18 O21 2.887742 1_555
Na18 O30 2.910880 1_555
Na19 O110 2.450989 1_555
Na19 O82 2.475694 1_555
Na19 O108 2.505504 1_555
Na19 O81 2.529190 1_555
Na19 O38 2.631640 1_556
Na19 O8 2.676091 1_555
Na20 O83 2.356647 1_555
Na20 O80 2.393831 1_655
Na20 O111 2.522646 1_555
Na20 O9 2.560610 1_555
Na20 O109 2.633647 1_555
Na20 O39 2.810707 1_556
Na20 O52 2.886508 1_655
Na20 O66 2.902421 1_655
Na21 O112 2.449584 1_555
Na21 O79 2.472967 1_555
Na21 O110 2.511158 1_555
Na21 O82 2.512046 1_545
Na21 O40 2.583364 1_556
Na21 O10 2.642822 1_555
Na22 O80 2.445787 1_545
Na22 O108 2.452598 1_555
Na22 O78 2.483103 1_555
Na22 O112 2.504271 1_555
Na22 O36 2.631610 1_556
Na22 O6 2.684456 1_555
Na23 O79 2.406323 1_555
Na23 O81 2.472229 1_545
Na23 O109 2.516865 1_555
Na23 O113 2.567664 1_555
Na23 O7 2.585476 1_555
Na23 O37 2.830527 1_556
Na23 O51 2.902947 1_555
Na23 O71 2.918356 1_555
Na24 O118 2.461246 1_555
Na24 O74 2.473948 1_545
Na24 O77 2.507494 1_555
Na24 O114 2.514218 1_555
Na24 O46 2.590715 1_555
Na24 O4 2.645598 1_555
Na25 O119 2.462792 1_555
Na25 O75 2.470205 1_545
Na25 O76 2.506579 1_655
Na25 O115 2.515025 1_555
Na25 O47 2.592199 1_555
Na25 O5 2.641265 1_555
Na26 O114 2.463481 1_555
Na26 O76 2.475451 1_555
Na26 O72 2.497904 1_545
Na26 O116 2.513903 1_555
Na26 O42 2.643881 1_555
Na26 O0 2.683177 1_555
Na26 O58 2.941168 1_545
Na26 O62 2.976006 1_545
Na27 O115 2.460368 1_555
Na27 O77 2.477830 1_555
Na27 O73 2.501880 1_545
Na27 O117 2.512665 1_555
Na27 O43 2.640468 1_555
Na27 O1 2.680423 1_555
Na27 O59 2.939673 1_545
Na27 O63 2.973069 1_545
Na28 O116 2.450395 1_555
Na28 O73 2.474839 1_555
Na28 O74 2.506419 1_555
Na28 O118 2.516265 1_555
Na28 O44 2.641636 1_555
Na28 O2 2.686444 1_555
Na29 O117 2.453937 1_555
Na29 O72 2.474129 1_655
Na29 O75 2.506647 1_555
Na29 O119 2.516250 1_555
Na29 O3 2.641026 1_555
Na29 O45 2.646734 1_555
Na30 O75 2.459171 1_545
Na30 O76 2.463079 1_655
Na30 O72 2.464775 1_645
Na30 O85 2.708126 1_555
Na30 O86 2.708163 1_655
Na30 O89 2.708546 1_545
Na31 O74 2.458406 1_545
Na31 O77 2.459360 1_555
Na31 O73 2.465231 1_545
Na31 O87 2.709620 1_555
Na31 O88 2.712620 1_545
Na31 O84 2.713898 1_555
Na32 O83 2.404090 1_555
Na32 O78 2.480870 1_665
Na32 O80 2.550581 1_655
Na32 O93 2.635239 1_566
Na32 O91 2.689368 1_556
Na32 O94 2.786433 1_666
Na33 O82 2.459826 1_555
Na33 O79 2.476620 1_565
Na33 O81 2.483884 1_555
Na33 O95 2.675366 1_566
Na33 O92 2.690298 1_566
Na33 O90 2.697052 1_556
Na34 O110 2.506797 1_555
Na34 O96 2.522269 1_555
Na34 O100 2.547398 1_555
Na34 O112 2.573416 1_555
Na34 O108 2.579783 1_555
Na34 O98 2.608351 1_555
Na35 O97 2.396929 1_555
Na35 O101 2.483249 1_555
Na35 O99 2.558099 1_555
Na35 O111 2.621423 1_555
Na35 O113 2.695138 1_555
Na35 O109 2.755224 1_555
Na36 O114 2.510474 1_555
Na36 O104 2.528366 1_555
Na36 O106 2.557163 1_555
Na36 O118 2.576510 1_555
Na36 O116 2.581552 1_555
Na36 O102 2.613323 1_555
Na37 O115 2.509704 1_555
Na37 O105 2.529271 1_555
Na37 O107 2.544747 1_555
Na37 O119 2.571408 1_555
Na37 O117 2.581863 1_555
Na37 O103 2.613312 1_555
Na38 O124 2.446079 1_555
Na38 O120 2.514150 1_555
Na38 O122 2.534104 1_555
Na38 O134 2.617304 1_555
Na38 O132 2.626718 1_555
Na38 O136 2.675665 1_555
Na39 O125 2.423790 1_555
Na39 O121 2.467663 1_555
Na39 O123 2.548925 1_555
Na39 O135 2.612505 1_555
Na39 O133 2.699816 1_555
Na39 O137 2.738907 1_555
Na40 O130 2.436539 1_555
Na40 O128 2.504921 1_555
Na40 O126 2.506602 1_555
Na40 O140 2.635944 1_555
Na40 O138 2.641489 1_555
Na40 O142 2.691730 1_555
Na41 O131 2.442212 1_555
Na41 O129 2.503744 1_555
Na41 O127 2.507196 1_555
Na41 O139 2.634063 1_555
Na41 O141 2.643991 1_555
Na41 O143 2.692415 1_555
Hf0 O14 2.041647 1_655
Hf0 O13 2.048286 1_545
Hf0 O16 2.058235 1_645
Hf0 O85 2.081905 1_555
Hf0 O89 2.092695 1_545
Hf0 O86 2.098242 1_655
Hf1 O15 2.045445 1_555
Hf1 O12 2.050822 1_545
Hf1 O17 2.058713 1_545
Hf1 O84 2.080002 1_555
Hf1 O88 2.088734 1_545
Hf1 O87 2.093031 1_555
Hf2 O19 2.011992 1_555
Hf2 O20 2.070306 1_665
Hf2 O22 2.076867 1_655
Hf2 O93 2.093966 1_565
Hf2 O91 2.102919 1_555
Hf2 O94 2.103660 1_665
Hf3 O18 2.043454 1_545
Hf3 O21 2.045293 1_555
Hf3 O23 2.053374 1_545
Hf3 O92 2.083187 1_555
Hf3 O90 2.091691 1_545
Hf3 O95 2.122460 1_555
Hf4 O41 2.022584 1_556
Hf4 O39 2.065611 1_556
Hf4 O37 2.072907 1_556
Hf4 O113 2.096906 1_555
Hf4 O111 2.101793 1_555
Hf4 O109 2.124833 1_555
Hf5 O62 2.003697 1_555
Hf5 O60 2.043723 1_555
Hf5 O64 2.048167 1_555
Hf5 O134 2.102817 1_555
Hf5 O132 2.115235 1_555
Hf5 O136 2.139071 1_555
Hf6 O63 2.002351 1_555
Hf6 O61 2.045015 1_555
Hf6 O65 2.049131 1_555
Hf6 O135 2.096992 1_555
Hf6 O133 2.110684 1_555
Hf6 O137 2.135760 1_555
Hf7 O66 2.021678 1_555
Hf7 O68 2.040214 1_555
Hf7 O70 2.045985 1_555
Hf7 O138 2.095207 1_555
Hf7 O140 2.108794 1_555
Hf7 O142 2.130664 1_555
Hf8 O67 2.003454 1_555
Hf8 O69 2.062139 1_555
Hf8 O71 2.069518 1_555
Hf8 O139 2.103308 1_555
Hf8 O141 2.119092 1_555
Hf8 O143 2.122160 1_555
O0 P0 1.531363 1_555
O0 Zn0 2.041669 1_455
O1 P1 1.529573 1_555
O1 Zn1 2.040922 1_555
O2 P2 1.526610 1_555
O2 Zn1 2.029233 1_565
O3 P3 1.528205 1_555
O3 Zn0 2.030072 1_565
O4 P5 1.518859 1_555
O4 Zn1 2.027035 1_555
O5 P4 1.521004 1_555
O5 Zn0 2.025019 1_555
O6 P6 1.524740 1_555
O6 Zn2 2.063196 1_455
O7 P7 1.527897 1_555
O7 Zn3 2.035326 1_555
O8 P9 1.530704 1_555
O8 Zn3 2.037103 1_565
O9 P8 1.528110 1_555
O9 Zn2 2.084443 1_565
O10 P10 1.518684 1_555
O10 Zn3 2.021407 1_555
O11 P11 1.504406 1_555
O11 Zn2 1.976480 1_555
O12 P10 1.578760 1_565
O13 P11 1.582136 1_565
O14 P6 1.571102 1_555
O15 P7 1.568244 1_555
O16 P8 1.583408 1_455
O17 P9 1.583618 1_555
O18 P2 1.571516 1_555
O19 P3 1.561988 1_555
O20 P4 1.577281 1_455
O21 P5 1.583125 1_555
O22 P0 1.583751 1_565
O23 P1 1.585820 1_565
O24 P12 1.522014 1_555
O24 Zn4 1.981262 1_555
O25 P13 1.522724 1_555
O25 Zn5 1.976173 1_555
O26 P14 1.536195 1_555
O26 Zn4 2.063379 1_555
O27 P15 1.535919 1_555
O27 Zn5 2.062755 1_555
O28 P16 1.536059 1_555
O28 Zn4 2.073446 1_555
O29 P17 1.537143 1_555
O29 Zn5 2.071877 1_555
O30 P18 1.535080 1_555
O30 Zn6 2.065998 1_555
O31 P19 1.527567 1_555
O31 Zn7 2.065197 1_555
O32 P20 1.521343 1_555
O32 Zn6 1.982178 1_555
O33 P21 1.518113 1_555
O33 Zn7 1.982511 1_555
O34 P22 1.536239 1_555
O34 Zn6 2.076740 1_555
O35 P23 1.519923 1_555
O35 Zn7 2.072245 1_555
O36 P22 1.545340 1_555
O36 Zn8 2.071117 1_554
O37 P23 1.581461 1_555
O38 P18 1.545059 1_555
O38 Zn8 2.069318 1_554
O39 P19 1.571388 1_555
O40 P20 1.545224 1_555
O40 Zn8 2.073512 1_554
O41 P21 1.580759 1_555
O42 P14 1.543750 1_555
O42 Zn9 2.075294 1_555
O43 P15 1.542752 1_555
O43 Zn10 2.077898 1_555
O44 P16 1.543967 1_555
O44 Zn9 2.075334 1_555
O45 P17 1.543450 1_555
O45 Zn10 2.072645 1_555
O46 P12 1.544464 1_555
O46 Zn9 2.078289 1_555
O47 P13 1.544059 1_555
O47 Zn10 2.076430 1_555
O48 P24 1.535581 1_555
O48 Zn11 2.024251 1_556
O49 P25 1.505656 1_555
O49 Zn12 1.970793 1_556
O50 P26 1.532041 1_555
O50 Zn11 2.034922 1_556
O51 P27 1.535180 1_555
O51 Zn12 2.074336 1_556
O52 P28 1.537690 1_555
O52 Zn11 2.030536 1_556
O53 P29 1.526540 1_555
O53 Zn12 2.071272 1_556
O54 P30 1.537525 1_555
O54 Zn13 2.029773 1_555
O55 P31 1.537909 1_555
O55 Zn14 2.027645 1_555
O56 P32 1.536792 1_555
O56 Zn13 2.025567 1_555
O57 P33 1.537310 1_555
O57 Zn14 2.025365 1_555
O58 P34 1.537034 1_555
O58 Zn13 2.028266 1_555
O59 P35 1.537174 1_555
O59 Zn14 2.030600 1_555
O60 P34 1.589601 1_555
O61 P35 1.588067 1_555
O62 P30 1.579947 1_555
O63 P31 1.580042 1_555
O64 P32 1.588897 1_555
O65 P33 1.587766 1_555
O66 P26 1.573283 1_555
O67 P27 1.585121 1_555
O68 P28 1.591264 1_555
O69 P29 1.570469 1_555
O70 P24 1.590077 1_555
O71 P25 1.583441 1_555
O72 P34 1.546800 1_555
O72 Zn0 2.205939 1_465
O73 P35 1.547379 1_555
O73 Zn1 2.199809 1_565
O74 P30 1.547067 1_555
O74 Zn1 2.175086 1_565
O75 P31 1.546382 1_555
O75 Zn0 2.179697 1_565
O76 P32 1.547429 1_555
O76 Zn0 2.187878 1_455
O77 P33 1.548156 1_555
O77 Zn1 2.180771 1_555
O78 P26 1.525351 1_555
O78 Zn2 2.129493 1_455
O79 P27 1.549963 1_555
O79 Zn3 2.178798 1_555
O80 P28 1.545057 1_555
O80 Zn2 2.232829 1_465
O81 P29 1.545070 1_555
O81 Zn3 2.219047 1_565
O82 P24 1.548532 1_555
O82 Zn3 2.177880 1_565
O83 P25 1.526766 1_555
O83 Zn2 2.157232 1_565
O84 P12 1.599926 1_555
O85 P13 1.598694 1_555
O86 P14 1.597929 1_555
O87 P15 1.598874 1_555
O88 P16 1.599451 1_555
O89 P17 1.597803 1_555
O90 P18 1.600243 1_555
O91 P19 1.572973 1_555
O92 P20 1.600624 1_555
O93 P21 1.575926 1_555
O94 P22 1.595105 1_555
O95 P23 1.603579 1_555
O96 P10 1.524110 1_555
O96 Zn4 2.178378 1_555
O97 P11 1.526315 1_555
O97 Zn5 2.178765 1_555
O98 P6 1.539724 1_555
O98 Zn4 2.245136 1_555
O99 P7 1.539080 1_555
O99 Zn5 2.256434 1_555
O100 P9 1.525725 1_555
O100 Zn4 2.158036 1_555
O101 P8 1.527800 1_555
O101 Zn5 2.160455 1_555
O102 P2 1.538599 1_555
O102 Zn6 2.238857 1_555
O103 P3 1.539501 1_555
O103 Zn7 2.213180 1_555
O104 P5 1.524930 1_555
O104 Zn6 2.179128 1_555
O105 P4 1.526294 1_555
O105 Zn7 2.163757 1_555
O106 P0 1.526746 1_555
O106 Zn6 2.149769 1_555
O107 P1 1.523561 1_555
O107 Zn7 2.142936 1_555
O108 P24 1.547972 1_555
O108 Zn8 2.253577 1_555
O109 P25 1.600952 1_555
O110 P27 1.545817 1_555
O110 Zn8 2.229067 1_555
O111 P26 1.577362 1_655
O112 P28 1.547620 1_545
O112 Zn8 2.224859 1_555
O113 P29 1.575815 1_545
O114 P30 1.547457 1_545
O114 Zn9 2.213933 1_555
O115 P31 1.547351 1_545
O115 Zn10 2.212747 1_555
O116 P32 1.548940 1_555
O116 Zn9 2.243671 1_555
O117 P33 1.548193 1_555
O117 Zn10 2.244574 1_555
O118 P35 1.548140 1_555
O118 Zn9 2.222871 1_555
O119 P34 1.547979 1_655
O119 Zn10 2.221283 1_555
O120 P22 1.550325 1_555
O120 Zn11 2.218701 1_555
O121 P23 1.525265 1_555
O121 Zn12 2.178924 1_555
O122 P19 1.545555 1_455
O122 Zn11 2.215581 1_555
O123 P18 1.546699 1_555
O123 Zn12 2.247734 1_555
O124 P20 1.550449 1_565
O124 Zn11 2.185441 1_555
O125 P21 1.527104 1_565
O125 Zn12 2.134079 1_555
O126 P14 1.549256 1_565
O126 Zn13 2.219883 1_555
O127 P15 1.548911 1_565
O127 Zn14 2.221340 1_555
O128 P16 1.548253 1_555
O128 Zn13 2.229789 1_555
O129 P17 1.549068 1_555
O129 Zn14 2.229290 1_555
O130 P13 1.548861 1_455
O130 Zn13 2.199013 1_555
O131 P12 1.548927 1_555
O131 Zn14 2.202426 1_555
O132 P0 1.575833 1_565
O133 P1 1.572418 1_565
O134 P2 1.571085 1_555
O135 P3 1.570254 1_555
O136 P4 1.598233 1_455
O137 P5 1.592899 1_555
O138 P6 1.572783 1_555
O139 P7 1.570964 1_555
O140 P8 1.574974 1_455
O141 P9 1.574892 1_555
O142 P10 1.595056 1_565
O143 P11 1.596603 1_565
