# generated using pymatgen
data_Li4Mn5P6WO24
_symmetry_space_group_name_H-M   'P 1'
_cell_length_a   8.83303078
_cell_length_b   8.30084109
_cell_length_c   8.91004939
_cell_angle_alpha   60.14120681
_cell_angle_beta   58.00541837
_cell_angle_gamma   59.45983395
_symmetry_Int_Tables_number   1
_chemical_formula_structural   Li4Mn5P6WO24
_chemical_formula_sum   'Li4 Mn5 P6 W1 O24'
_cell_volume   453.22038300
_cell_formula_units_Z   1
loop_
 _symmetry_equiv_pos_site_id
 _symmetry_equiv_pos_as_xyz
  1  'x, y, z'
loop_
 _atom_site_type_symbol
 _atom_site_label
 _atom_site_symmetry_multiplicity
 _atom_site_fract_x
 _atom_site_fract_y
 _atom_site_fract_z
 _atom_site_occupancy
  Li  Li0  1  0.73428954  0.13975480  0.36590132  1
  Li  Li1  1  0.26112795  0.95123678  0.60099785  1
  Li  Li2  1  0.58820183  0.27633824  0.89001678  1
  Li  Li3  1  0.89719771  0.62192728  0.28845052  1
  Mn  Mn0  1  0.10918176  0.94266480  0.02592671  1
  Mn  Mn1  1  0.34985138  0.36936738  0.31118101  1
  Mn  Mn2  1  0.48364646  0.50767312  0.49816914  1
  Mn  Mn3  1  0.15588654  0.17387594  0.15232959  1
  Mn  Mn4  1  0.65845717  0.65346762  0.67314185  1
  P  P0  1  0.07421052  0.73793703  0.45232263  1
  P  P1  1  0.46584126  0.03486787  0.75415432  1
  P  P2  1  0.76350551  0.40591085  0.04094142  1
  P  P3  1  0.22981269  0.58848701  0.95900827  1
  P  P4  1  0.54240173  0.96491386  0.24247070  1
  P  P5  1  0.90943703  0.24763337  0.53587563  1
  W  W0  1  0.85379461  0.82713410  0.86655753  1
  O  O0  1  0.43441471  0.91377566  0.69262694  1
  O  O1  1  0.69061947  0.42671339  0.90838546  1
  O  O2  1  0.90421760  0.72437554  0.45686060  1
  O  O3  1  0.15450400  0.87842829  0.26285827  1
  O  O4  1  0.01509069  0.81137624  0.60943115  1
  O  O5  1  0.23049030  0.53651904  0.48198604  1
  O  O6  1  0.27627777  0.11601792  0.89718405  1
  O  O7  1  0.53503667  0.20180295  0.59324209  1
  O  O8  1  0.09818149  0.46886618  0.10130842  1
  O  O9  1  0.60277821  0.44154166  0.22440579  1
  O  O10  1  0.10506383  0.80317713  0.87106375  1
  O  O11  1  0.43855779  0.10823925  0.10810344  1
  O  O12  1  0.61539776  0.87977619  0.84260493  1
  O  O13  1  0.90104283  0.19593016  0.09093506  1
  O  O14  1  0.39417573  0.50867468  0.80065155  1
  O  O15  1  0.87236760  0.55135628  0.94470715  1
  O  O16  1  0.45007978  0.81267079  0.40749535  1
  O  O17  1  0.74690820  0.84600693  0.12788919  1
  O  O18  1  0.76253197  0.45986261  0.52274539  1
  O  O19  1  0.91510673  0.18842240  0.39738384  1
  O  O20  1  0.82402796  0.11973336  0.74175019  1
  O  O21  1  0.10665081  0.23110181  0.49839430  1
  O  O22  1  0.29004066  0.62111724  0.07246674  1
  O  O23  1  0.55959579  0.08832523  0.31107607  1
loop_
_geom_bond_atom_site_label_1
_geom_bond_atom_site_label_2
_geom_bond_distance
_geom_bond_site_symmetry_2
Li0 O7 1.950834 1_555
Li0 O19 2.009017 1_555
Li0 O13 2.031201 1_555
Li0 O23 2.116096 1_555
Li0 O9 2.159648 1_555
Li1 O0 1.921936 1_555
Li1 O16 2.013833 1_555
Li1 O21 2.019933 1_565
Li1 O10 2.112594 1_555
Li2 O20 1.953497 1_555
Li2 O14 1.961784 1_555
Li2 O1 1.977684 1_555
Li2 O11 1.980639 1_556
Li3 O18 1.944529 1_555
Li3 O17 2.030300 1_555
Li3 O8 2.055878 1_655
Li3 O2 2.097968 1_555
Mn0 O6 2.070195 1_564
Mn0 O13 2.071551 1_465
Mn0 O3 2.111631 1_555
Mn0 O10 2.220980 1_554
Mn0 O22 2.261572 1_555
Mn1 O5 2.066025 1_555
Mn1 O23 2.117225 1_555
Mn1 O22 2.193856 1_555
Mn1 O9 2.239770 1_555
Mn1 O21 2.348758 1_555
Mn2 O7 2.112971 1_555
Mn2 O16 2.145835 1_555
Mn2 O5 2.200358 1_555
Mn2 O9 2.320524 1_555
Mn2 O14 2.376331 1_555
Mn2 O18 2.401111 1_555
Mn3 O8 2.081137 1_555
Mn3 O19 2.094271 1_455
Mn3 O11 2.115418 1_555
Mn3 O6 2.129787 1_554
Mn3 O3 2.144149 1_545
Mn3 O13 2.487226 1_455
Mn4 O1 2.043547 1_555
Mn4 O0 2.068607 1_555
Mn4 O2 2.123353 1_555
Mn4 O18 2.135658 1_555
Mn4 O14 2.620324 1_555
Mn4 O12 2.728213 1_555
O0 P1 1.543203 1_565
O1 P2 1.526092 1_556
O2 P0 1.540092 1_655
O3 P0 1.524593 1_555
O4 P0 1.534743 1_555
O4 W0 1.986409 1_455
O5 P0 1.540081 1_555
O6 P1 1.526046 1_555
O7 P1 1.517641 1_555
O8 P3 1.517550 1_554
O9 P2 1.539686 1_555
O10 P3 1.591517 1_555
O10 W0 2.145955 1_455
O11 P4 1.525287 1_545
O12 P1 1.545384 1_565
O12 W0 2.029524 1_555
O13 P2 1.536479 1_555
O14 P3 1.523184 1_555
O15 P2 1.546872 1_556
O15 W0 1.975941 1_555
O16 P4 1.533150 1_555
O17 P4 1.586421 1_555
O17 W0 2.054521 1_554
O18 P5 1.559953 1_555
O19 P5 1.510021 1_555
O20 P5 1.571471 1_555
O20 W0 2.043613 1_545
O21 P5 1.533338 1_455
O22 P3 1.538614 1_554
O23 P4 1.525183 1_545
