# generated using pymatgen
data_Na10YNb7(SiO4)12
_symmetry_space_group_name_H-M   'P 1'
_cell_length_a   18.21389938
_cell_length_b   9.11940147
_cell_length_c   22.70515008
_cell_angle_alpha   89.99771305
_cell_angle_beta   90.00437255
_cell_angle_gamma   120.13026350
_symmetry_Int_Tables_number   1
_chemical_formula_structural   Na10YNb7(SiO4)12
_chemical_formula_sum   'Na30 Y3 Nb21 Si36 O144'
_cell_volume   3261.76534288
_cell_formula_units_Z   3
loop_
 _symmetry_equiv_pos_site_id
 _symmetry_equiv_pos_as_xyz
  1  'x, y, z'
loop_
 _atom_site_type_symbol
 _atom_site_label
 _atom_site_symmetry_multiplicity
 _atom_site_fract_x
 _atom_site_fract_y
 _atom_site_fract_z
 _atom_site_occupancy
  Na  Na0  1  0.81541882  0.00693072  0.24852435  1
  Na  Na1  1  0.18522164  0.36769131  0.24908050  1
  Na  Na2  1  0.68591822  0.36582896  0.24798889  1
  Na  Na3  1  0.99696905  0.62472844  0.24864497  1
  Na  Na4  1  0.31566534  0.62421434  0.74901168  1
  Na  Na5  1  0.81609348  0.62441956  0.74851255  1
  Na  Na6  1  0.99603161  0.36724934  0.74800196  1
  Na  Na7  1  0.49591351  0.36657165  0.74812315  1
  Na  Na8  1  0.18807525  0.00838528  0.74922394  1
  Na  Na9  1  0.68817505  0.00886531  0.74864617  1
  Na  Na10  1  0.15344495  0.33804328  0.58376993  1
  Na  Na11  1  0.65460006  0.33807584  0.58305565  1
  Na  Na12  1  0.33242721  0.97136954  0.58313322  1
  Na  Na13  1  0.83287537  0.97312641  0.58292076  1
  Na  Na14  1  0.65133894  0.96806888  0.08451452  1
  Na  Na15  1  0.83130060  0.69169936  0.08323366  1
  Na  Na16  1  0.01697408  0.33844739  0.08243487  1
  Na  Na17  1  0.48323436  0.29886672  0.41670221  1
  Na  Na18  1  0.99983333  0.99224928  0.49737268  1
  Na  Na19  1  0.50127632  0.98633956  0.49815025  1
  Na  Na20  1  0.00464713  0.99990827  0.99769412  1
  Na  Na21  1  0.49549186  0.00035940  0.99968492  1
  Na  Na22  1  0.33295190  0.33299306  0.83571009  1
  Na  Na23  1  0.83353121  0.33325596  0.83458314  1
  Na  Na24  1  0.33326184  0.33309838  0.33186540  1
  Na  Na25  1  0.83292840  0.33234443  0.33392946  1
  Na  Na26  1  0.17427497  0.68381963  0.16412741  1
  Na  Na27  1  0.65830141  0.65616537  0.16606477  1
  Na  Na28  1  0.16181493  0.66639757  0.66533474  1
  Na  Na29  1  0.66201819  0.66680557  0.66503785  1
  Y  Y0  1  0.33440380  0.33483182  0.68338040  1
  Y  Y1  1  0.83437978  0.33517064  0.68277793  1
  Y  Y2  1  0.83242574  0.33279329  0.18355369  1
  Nb  Nb0  1  0.00134981  0.00155946  0.35716828  1
  Nb  Nb1  1  0.49774830  0.99464319  0.35448072  1
  Nb  Nb2  1  0.00019850  0.00123720  0.85894980  1
  Nb  Nb3  1  0.49999516  0.99977764  0.85872916  1
  Nb  Nb4  1  0.99975255  0.99582414  0.64546585  1
  Nb  Nb5  1  0.50035104  0.99682715  0.64552016  1
  Nb  Nb6  1  0.00385075  0.00104789  0.14511493  1
  Nb  Nb7  1  0.49605311  0.99776512  0.14450779  1
  Nb  Nb8  1  0.33669171  0.33361400  0.18679263  1
  Nb  Nb9  1  0.33269618  0.33262935  0.97793932  1
  Nb  Nb10  1  0.83360463  0.33436931  0.97809110  1
  Nb  Nb11  1  0.33040060  0.33518270  0.47908242  1
  Nb  Nb12  1  0.83415667  0.33378417  0.47788904  1
  Nb  Nb13  1  0.17172463  0.67486950  0.02015046  1
  Nb  Nb14  1  0.66202410  0.65931857  0.01794426  1
  Nb  Nb15  1  0.16414993  0.66579367  0.51618274  1
  Nb  Nb16  1  0.66560303  0.66851465  0.51640102  1
  Nb  Nb17  1  0.17005264  0.67218848  0.31291465  1
  Nb  Nb18  1  0.66399662  0.66580630  0.31281942  1
  Nb  Nb19  1  0.16679035  0.66645608  0.81575554  1
  Nb  Nb20  1  0.66685906  0.66664480  0.81547542  1
  Si  Si0  1  0.14550573  0.00025335  0.25126031  1
  Si  Si1  1  0.64059089  0.99320183  0.25013278  1
  Si  Si2  1  0.35594728  0.71047582  0.24987968  1
  Si  Si3  1  0.85600518  0.71626949  0.25143289  1
  Si  Si4  1  0.00230056  0.28953180  0.25173003  1
  Si  Si5  1  0.49839835  0.28533996  0.25071620  1
  Si  Si6  1  0.14175068  0.28870377  0.75179304  1
  Si  Si7  1  0.64195188  0.28879444  0.75190408  1
  Si  Si8  1  0.00246794  0.71626333  0.75313390  1
  Si  Si9  1  0.50252578  0.71611988  0.75296559  1
  Si  Si10  1  0.35557405  0.99518398  0.75203131  1
  Si  Si11  1  0.85564005  0.99568910  0.75215932  1
  Si  Si12  1  0.48248705  0.33623664  0.58250801  1
  Si  Si13  1  0.98218085  0.33605198  0.58344019  1
  Si  Si14  1  0.18440673  0.03358580  0.58330356  1
  Si  Si15  1  0.68542122  0.03609438  0.58279128  1
  Si  Si16  1  0.33331492  0.63071985  0.58276562  1
  Si  Si17  1  0.83364874  0.62876731  0.58208400  1
  Si  Si18  1  0.47655781  0.62178803  0.08216988  1
  Si  Si19  1  0.98273496  0.62968464  0.08278107  1
  Si  Si20  1  0.33334790  0.04740373  0.08253987  1
  Si  Si21  1  0.83279431  0.03627237  0.08248862  1
  Si  Si22  1  0.19169394  0.33737572  0.08393397  1
  Si  Si23  1  0.68389958  0.33181599  0.08263299  1
  Si  Si24  1  0.31222578  0.66387597  0.91669309  1
  Si  Si25  1  0.81142864  0.66493702  0.91762971  1
  Si  Si26  1  0.02202734  0.37862117  0.91882067  1
  Si  Si27  1  0.51858014  0.37377493  0.91549966  1
  Si  Si28  1  0.16771778  0.95812568  0.91701305  1
  Si  Si29  1  0.66743459  0.95894375  0.91741220  1
  Si  Si30  1  0.31193405  0.95942196  0.41714676  1
  Si  Si31  1  0.81229458  0.95839648  0.41554095  1
  Si  Si32  1  0.16717424  0.37684088  0.41561620  1
  Si  Si33  1  0.66849872  0.37596623  0.41512075  1
  Si  Si34  1  0.02071784  0.66437960  0.41411242  1
  Si  Si35  1  0.52001758  0.66863910  0.41614450  1
  O  O0  1  0.09905255  0.03034309  0.30754900  1
  O  O1  1  0.58896236  0.01643209  0.30582304  1
  O  O2  1  0.41398648  0.80689135  0.30796262  1
  O  O3  1  0.91902077  0.81920811  0.30630400  1
  O  O4  1  0.48573417  0.17256665  0.31038123  1
  O  O5  1  0.99300492  0.16719357  0.30702029  1
  O  O6  1  0.09109263  0.16593276  0.80710189  1
  O  O7  1  0.59126704  0.16578007  0.80698939  1
  O  O8  1  0.49152767  0.81576919  0.80828097  1
  O  O9  1  0.99155355  0.81659157  0.80834347  1
  O  O10  1  0.41706549  0.01605242  0.80708550  1
  O  O11  1  0.91687305  0.01595345  0.80730394  1
  O  O12  1  0.40066068  0.96882732  0.69151130  1
  O  O13  1  0.90045065  0.96885297  0.69165879  1
  O  O14  1  0.08356910  0.19889424  0.69128687  1
  O  O15  1  0.58363704  0.19938630  0.69134166  1
  O  O16  1  0.01548234  0.83795914  0.69394734  1
  O  O17  1  0.51558062  0.83823485  0.69394332  1
  O  O18  1  0.40303700  0.83171594  0.19280806  1
  O  O19  1  0.90142193  0.83378983  0.19160999  1
  O  O20  1  0.01585840  0.19847622  0.19201569  1
  O  O21  1  0.51524536  0.19149493  0.19460757  1
  O  O22  1  0.08196237  0.96786534  0.19360080  1
  O  O23  1  0.58562766  0.97357768  0.19035027  1
  O  O24  1  0.45124750  0.37163566  0.64441488  1
  O  O25  1  0.95264588  0.37253463  0.64590257  1
  O  O26  1  0.23869561  0.09418182  0.64365477  1
  O  O27  1  0.73845531  0.09332316  0.64388870  1
  O  O28  1  0.30747325  0.52057100  0.64273620  1
  O  O29  1  0.80726135  0.52170703  0.64294049  1
  O  O30  1  0.42971542  0.50129275  0.14031452  1
  O  O31  1  0.95205409  0.52271458  0.14371971  1
  O  O32  1  0.32050951  0.14197264  0.14063220  1
  O  O33  1  0.80830036  0.09456403  0.14335123  1
  O  O34  1  0.24778698  0.35965022  0.14353157  1
  O  O35  1  0.73850108  0.38458333  0.14338550  1
  O  O36  1  0.23750951  0.30761603  0.02713190  1
  O  O37  1  0.73687608  0.30280645  0.02898562  1
  O  O38  1  0.41673312  0.52616057  0.02554836  1
  O  O39  1  0.91467330  0.52830441  0.02894025  1
  O  O40  1  0.34677775  0.16737477  0.02565196  1
  O  O41  1  0.84932717  0.17177538  0.02912019  1
  O  O42  1  0.23691456  0.16900122  0.52882964  1
  O  O43  1  0.73631584  0.17041853  0.52888613  1
  O  O44  1  0.34573303  0.52466511  0.52800249  1
  O  O45  1  0.84605192  0.52394097  0.52785964  1
  O  O46  1  0.41738117  0.30357870  0.52663646  1
  O  O47  1  0.91447656  0.30229398  0.52967418  1
  O  O48  1  0.26341253  0.69062900  0.97255437  1
  O  O49  1  0.76316818  0.68963539  0.97410571  1
  O  O50  1  0.08194292  0.47027857  0.97599373  1
  O  O51  1  0.58124481  0.47506637  0.97100791  1
  O  O52  1  0.15635769  0.83348007  0.97218743  1
  O  O53  1  0.65375784  0.83929947  0.97489876  1
  O  O54  1  0.26678033  0.84236077  0.47485417  1
  O  O55  1  0.76559328  0.83905742  0.47318994  1
  O  O56  1  0.15606412  0.47000976  0.47365934  1
  O  O57  1  0.65220643  0.46776825  0.47202288  1
  O  O58  1  0.08264078  0.68908293  0.47039738  1
  O  O59  1  0.58121602  0.69158566  0.47230994  1
  O  O60  1  0.06809108  0.63970969  0.35603135  1
  O  O61  1  0.56833455  0.63587977  0.36012233  1
  O  O62  1  0.25057283  0.85949077  0.36020833  1
  O  O63  1  0.75107632  0.86130851  0.35786837  1
  O  O64  1  0.17998016  0.49636925  0.35767348  1
  O  O65  1  0.67928621  0.49515270  0.35704331  1
  O  O66  1  0.06901134  0.49742645  0.85924512  1
  O  O67  1  0.56760186  0.49480551  0.85703442  1
  O  O68  1  0.17962654  0.86341499  0.85755167  1
  O  O69  1  0.67954987  0.86218840  0.85880052  1
  O  O70  1  0.25237869  0.64024257  0.85754495  1
  O  O71  1  0.75173952  0.64051256  0.85847940  1
  O  O72  1  0.01314020  0.83476565  0.40923000  1
  O  O73  1  0.51059625  0.83594470  0.41061718  1
  O  O74  1  0.40725531  0.98456214  0.41123752  1
  O  O75  1  0.90598725  0.97628507  0.40940958  1
  O  O76  1  0.08316257  0.18897601  0.41075614  1
  O  O77  1  0.58002919  0.19213028  0.40931401  1
  O  O78  1  0.01238986  0.19092499  0.91076328  1
  O  O79  1  0.51222914  0.18948139  0.91045479  1
  O  O80  1  0.08262250  0.97470101  0.91087957  1
  O  O81  1  0.58283979  0.97612044  0.91044080  1
  O  O82  1  0.40513339  0.83510874  0.91056026  1
  O  O83  1  0.90485378  0.83478990  0.91102688  1
  O  O84  1  0.48888640  0.16024626  0.58660196  1
  O  O85  1  0.98891913  0.16047479  0.58702981  1
  O  O86  1  0.09349717  0.03046779  0.58742790  1
  O  O87  1  0.59343174  0.02969067  0.58796359  1
  O  O88  1  0.41790447  0.82091307  0.58717196  1
  O  O89  1  0.91750637  0.82070402  0.58758845  1
  O  O90  1  0.48944125  0.81281112  0.08995916  1
  O  O91  1  0.98619836  0.81444729  0.08776219  1
  O  O92  1  0.41752604  0.02709950  0.09176193  1
  O  O93  1  0.92024759  0.02351215  0.08696962  1
  O  O94  1  0.09470638  0.16859534  0.09149914  1
  O  O95  1  0.59239882  0.15473806  0.08683191  1
  O  O96  1  0.34521117  0.16082257  0.75124385  1
  O  O97  1  0.84497689  0.16096665  0.75135169  1
  O  O98  1  0.23507253  0.30924326  0.75071171  1
  O  O99  1  0.73530036  0.30941955  0.75072868  1
  O  O100  1  0.41928491  0.53013900  0.75103733  1
  O  O101  1  0.91910428  0.53017915  0.75108005  1
  O  O102  1  0.34205727  0.51898344  0.24437556  1
  O  O103  1  0.84628264  0.53028084  0.25130653  1
  O  O104  1  0.41564843  0.30920571  0.24333908  1
  O  O105  1  0.91839242  0.30695604  0.25135816  1
  O  O106  1  0.23728304  0.17289016  0.24365767  1
  O  O107  1  0.73397134  0.16161633  0.25163270  1
  O  O108  1  0.31959417  0.49435983  0.92278816  1
  O  O109  1  0.81929294  0.49475853  0.92410788  1
  O  O110  1  0.42667879  0.35924428  0.92221971  1
  O  O111  1  0.92845184  0.36220385  0.92459472  1
  O  O112  1  0.25212157  0.14415289  0.92310540  1
  O  O113  1  0.75299028  0.14470583  0.92399622  1
  O  O114  1  0.32372598  0.14974253  0.42308158  1
  O  O115  1  0.81998525  0.14403856  0.42413827  1
  O  O116  1  0.25280686  0.36007375  0.42330256  1
  O  O117  1  0.75228526  0.35728866  0.42308195  1
  O  O118  1  0.42912247  0.49171102  0.42333954  1
  O  O119  1  0.92792151  0.49436514  0.42374267  1
  O  O120  1  0.17584582  0.49926139  0.07766203  1
  O  O121  1  0.67406467  0.49871779  0.07041866  1
  O  O122  1  0.07520861  0.64741477  0.07115045  1
  O  O123  1  0.57356904  0.65068168  0.07683927  1
  O  O124  1  0.24973815  0.85740588  0.07649973  1
  O  O125  1  0.75080366  0.84568250  0.07164555  1
  O  O126  1  0.17463025  0.84844340  0.57079354  1
  O  O127  1  0.67512929  0.84932674  0.57070905  1
  O  O128  1  0.25178862  0.65739307  0.57097839  1
  O  O129  1  0.75198553  0.65676328  0.57012577  1
  O  O130  1  0.07927152  0.49314034  0.57218724  1
  O  O131  1  0.57979165  0.49311503  0.57201135  1
  O  O132  1  0.14997947  0.82498127  0.25608711  1
  O  O133  1  0.65086181  0.82390987  0.25706883  1
  O  O134  1  0.26049906  0.68820171  0.25664033  1
  O  O135  1  0.76200670  0.70252399  0.25592229  1
  O  O136  1  0.08943394  0.47689397  0.25583132  1
  O  O137  1  0.58712959  0.47126416  0.25669507  1
  O  O138  1  0.14716284  0.47514528  0.75592984  1
  O  O139  1  0.64758719  0.47550970  0.75597377  1
  O  O140  1  0.09002722  0.70469970  0.75577985  1
  O  O141  1  0.59036750  0.70555329  0.75578423  1
  O  O142  1  0.26207702  0.81932400  0.75580941  1
  O  O143  1  0.76208423  0.81948244  0.75603202  1
loop_
_geom_bond_atom_site_label_1
_geom_bond_atom_site_label_2
_geom_bond_distance
_geom_bond_site_symmetry_2
Na0 O105 2.419919 1_555
Na0 O135 2.443275 1_545
Na0 O107 2.509282 1_555
Na0 O33 2.541988 1_555
Na0 O133 2.604722 1_545
Na0 O63 2.781794 1_545
Na1 O106 2.400282 1_555
Na1 O136 2.409033 1_555
Na1 O102 2.473534 1_555
Na1 O134 2.535587 1_555
Na1 O34 2.670492 1_555
Na1 O64 2.752845 1_555
Na1 O20 2.965872 1_555
Na1 O0 2.973645 1_555
Na2 O107 2.424328 1_555
Na2 O137 2.436818 1_555
Na2 O103 2.527554 1_555
Na2 O35 2.534399 1_555
Na2 O135 2.666233 1_555
Na2 O65 2.771250 1_555
Na3 O103 2.430030 1_555
Na3 O132 2.453754 1_655
Na3 O105 2.507216 1_555
Na3 O31 2.538918 1_555
Na3 O136 2.638160 1_655
Na3 O60 2.731951 1_655
Na4 O142 2.426088 1_555
Na4 O100 2.434254 1_555
Na4 O98 2.484691 1_555
Na4 O28 2.568408 1_555
Na4 O138 2.665230 1_555
Na4 O70 2.755410 1_555
Na5 O101 2.425080 1_555
Na5 O143 2.432697 1_555
Na5 O99 2.485168 1_555
Na5 O29 2.549086 1_555
Na5 O139 2.666147 1_555
Na5 O71 2.793331 1_555
Na6 O138 2.420461 1_655
Na6 O97 2.432738 1_555
Na6 O25 2.457375 1_555
Na6 O101 2.503165 1_555
Na6 O140 2.672647 1_655
Na6 O66 2.823356 1_655
Na7 O96 2.426813 1_555
Na7 O139 2.427997 1_555
Na7 O24 2.499214 1_555
Na7 O100 2.503488 1_555
Na7 O141 2.684586 1_555
Na7 O67 2.766625 1_555
Na8 O98 2.429745 1_555
Na8 O140 2.432264 1_545
Na8 O96 2.476214 1_555
Na8 O26 2.546301 1_555
Na8 O142 2.672952 1_545
Na8 O68 2.759828 1_545
Na9 O99 2.426835 1_555
Na9 O141 2.429776 1_545
Na9 O97 2.471290 1_555
Na9 O27 2.526141 1_555
Na9 O143 2.675267 1_545
Na9 O69 2.803222 1_545
Na10 O130 2.411036 1_555
Na10 O86 2.447838 1_555
Na10 O128 2.556783 1_555
Na10 O85 2.595382 1_455
Na10 O14 2.751054 1_555
Na10 O56 2.764617 1_555
Na10 O28 2.783020 1_555
Na10 O42 2.932088 1_555
Na11 O131 2.419176 1_555
Na11 O87 2.452975 1_555
Na11 O129 2.550176 1_555
Na11 O84 2.613901 1_555
Na11 O15 2.770246 1_555
Na11 O29 2.776602 1_555
Na11 O57 2.794236 1_555
Na11 O43 2.889737 1_555
Na12 O84 2.483172 1_565
Na12 O128 2.491939 1_555
Na12 O126 2.522088 1_555
Na12 O88 2.541529 1_555
Na12 O54 2.728645 1_555
Na12 O12 2.762025 1_555
Na12 O26 2.824407 1_565
Na12 O46 2.917486 1_565
Na13 O85 2.476006 1_565
Na13 O129 2.512215 1_555
Na13 O127 2.519915 1_555
Na13 O89 2.543710 1_555
Na13 O13 2.767603 1_555
Na13 O55 2.774803 1_555
Na13 O27 2.822812 1_565
Na13 O47 2.863984 1_565
Na14 O95 2.426476 1_565
Na14 O123 2.509634 1_555
Na14 O90 2.554180 1_555
Na14 O125 2.577420 1_555
Na14 O23 2.696348 1_555
Na14 O53 2.761783 1_554
Na14 O33 2.824391 1_565
Na14 O37 2.925864 1_565
Na15 O91 2.460225 1_555
Na15 O125 2.501516 1_555
Na15 O121 2.514684 1_555
Na15 O93 2.620416 1_565
Na15 O49 2.766901 1_554
Na15 O19 2.775537 1_555
Na15 O35 2.795307 1_555
Na15 O39 2.884089 1_555
Na16 O122 2.475722 1_555
Na16 O120 2.505090 1_555
Na16 O93 2.506629 1_455
Na16 O94 2.578311 1_555
Na16 O50 2.694129 1_554
Na16 O20 2.791746 1_555
Na16 O31 2.855418 1_455
Na16 O41 2.905105 1_455
Na17 O77 2.409706 1_555
Na17 O118 2.413918 1_555
Na17 O74 2.482708 1_545
Na17 O114 2.518833 1_555
Na17 O4 2.684980 1_555
Na17 O46 2.779047 1_555
Na17 O57 2.943214 1_555
Na17 O61 2.952271 1_555
Na18 O72 2.544841 1_655
Na18 O89 2.556712 1_555
Na18 O86 2.572027 1_665
Na18 O76 2.579992 1_665
Na18 O75 2.584851 1_555
Na18 O85 2.616007 1_565
Na19 O73 2.468567 1_555
Na19 O88 2.523410 1_555
Na19 O87 2.542731 1_565
Na19 O74 2.607427 1_555
Na19 O77 2.635438 1_565
Na19 O84 2.637995 1_565
Na20 O80 2.506695 1_555
Na20 O91 2.566072 1_456
Na20 O83 2.587532 1_455
Na20 O78 2.589063 1_565
Na20 O93 2.617432 1_466
Na20 O94 2.657039 1_566
Na21 O95 2.552963 1_556
Na21 O82 2.565993 1_545
Na21 O79 2.577603 1_555
Na21 O92 2.606700 1_556
Na21 O90 2.636119 1_546
Na21 O81 2.653196 1_545
Na22 O110 2.533571 1_555
Na22 O108 2.548226 1_555
Na22 O112 2.554510 1_555
Na22 O96 2.558387 1_555
Na22 O98 2.561552 1_555
Na22 O100 2.561826 1_555
Na23 O97 2.532284 1_555
Na23 O101 2.537530 1_555
Na23 O99 2.546051 1_555
Na23 O113 2.588022 1_555
Na23 O109 2.598450 1_555
Na23 O111 2.603233 1_555
Na24 O102 2.563678 1_555
Na24 O106 2.576284 1_555
Na24 O104 2.582261 1_555
Na24 O114 2.612211 1_555
Na24 O116 2.623069 1_555
Na24 O118 2.630329 1_555
Na25 O107 2.519257 1_555
Na25 O105 2.520687 1_555
Na25 O103 2.528968 1_555
Na25 O117 2.577323 1_555
Na25 O119 2.601601 1_555
Na25 O115 2.606336 1_555
Na26 O124 2.483827 1_555
Na26 O120 2.595442 1_555
Na26 O132 2.604767 1_555
Na26 O134 2.610876 1_555
Na26 O122 2.687128 1_555
Na26 O136 2.712354 1_555
Na27 O123 2.531902 1_555
Na27 O137 2.561991 1_555
Na27 O133 2.614625 1_555
Na27 O135 2.665879 1_555
Na27 O121 2.697099 1_555
Na27 O125 2.738326 1_555
Na28 O140 2.551034 1_555
Na28 O130 2.616228 1_555
Na28 O138 2.622363 1_555
Na28 O142 2.634872 1_555
Na28 O126 2.651247 1_555
Na28 O128 2.723552 1_555
Na29 O141 2.556698 1_555
Na29 O131 2.613701 1_555
Na29 O139 2.629616 1_555
Na29 O143 2.642147 1_555
Na29 O127 2.648654 1_555
Na29 O129 2.736565 1_555
Nb0 O5 1.957406 1_455
Nb0 O3 1.960651 1_445
Nb0 O0 2.009050 1_555
Nb0 O76 2.016198 1_555
Nb0 O75 2.018750 1_445
Nb0 O72 2.021083 1_545
Nb1 O1 1.920676 1_565
Nb1 O2 1.937044 1_555
Nb1 O4 2.009834 1_565
Nb1 O73 2.028209 1_555
Nb1 O74 2.057664 1_555
Nb1 O77 2.080795 1_565
Nb2 O6 1.971368 1_555
Nb2 O11 1.974998 1_455
Nb2 O9 1.978477 1_445
Nb2 O78 2.010010 1_555
Nb2 O80 2.016680 1_545
Nb2 O83 2.017851 1_445
Nb3 O8 1.972804 1_555
Nb3 O10 1.975669 1_565
Nb3 O7 1.977125 1_565
Nb3 O82 2.005152 1_555
Nb3 O81 2.007107 1_555
Nb3 O79 2.008711 1_565
Nb4 O16 1.944287 1_655
Nb4 O13 1.996365 1_555
Nb4 O14 2.001019 1_665
Nb4 O89 2.029649 1_555
Nb4 O86 2.051940 1_665
Nb4 O85 2.085935 1_565
Nb5 O17 1.944227 1_555
Nb5 O15 1.995624 1_565
Nb5 O12 1.996843 1_555
Nb5 O87 2.040121 1_565
Nb5 O88 2.040844 1_555
Nb5 O84 2.089578 1_565
Nb6 O22 1.938963 1_545
Nb6 O94 2.004181 1_555
Nb6 O20 2.007029 1_555
Nb6 O19 2.016156 1_445
Nb6 O91 2.036093 1_445
Nb6 O93 2.101541 1_455
Nb7 O18 1.946934 1_555
Nb7 O21 1.979261 1_565
Nb7 O92 1.983775 1_565
Nb7 O23 2.038345 1_555
Nb7 O90 2.046839 1_555
Nb7 O95 2.078892 1_565
Nb8 O30 1.929177 1_555
Nb8 O32 1.929406 1_555
Nb8 O34 2.007251 1_555
Nb8 O104 2.021672 1_555
Nb8 O102 2.100208 1_555
Nb8 O106 2.104656 1_555
Nb9 O40 1.974426 1_556
Nb9 O36 1.977015 1_556
Nb9 O38 1.978395 1_556
Nb9 O112 2.031155 1_555
Nb9 O108 2.037998 1_555
Nb9 O110 2.042759 1_555
Nb10 O37 2.003327 1_556
Nb10 O39 2.004813 1_556
Nb10 O41 2.012235 1_556
Nb10 O111 2.020950 1_555
Nb10 O109 2.022924 1_555
Nb10 O113 2.026411 1_555
Nb11 O44 1.952752 1_555
Nb11 O42 1.970115 1_555
Nb11 O116 1.993656 1_555
Nb11 O46 2.053494 1_555
Nb11 O114 2.070046 1_555
Nb11 O118 2.072696 1_555
Nb12 O45 1.991061 1_555
Nb12 O47 2.006643 1_555
Nb12 O119 2.015430 1_555
Nb12 O43 2.017619 1_555
Nb12 O115 2.025325 1_555
Nb12 O117 2.034390 1_555
Nb13 O48 1.933057 1_554
Nb13 O52 1.939771 1_554
Nb13 O124 2.013006 1_555
Nb13 O122 2.013035 1_555
Nb13 O50 2.024153 1_554
Nb13 O120 2.096636 1_555
Nb14 O51 1.908335 1_554
Nb14 O53 1.979837 1_554
Nb14 O121 1.983659 1_555
Nb14 O49 1.987439 1_554
Nb14 O125 2.056870 1_555
Nb14 O123 2.064695 1_555
Nb15 O58 1.909484 1_555
Nb15 O56 1.969208 1_555
Nb15 O54 1.986430 1_555
Nb15 O126 2.007297 1_555
Nb15 O130 2.010581 1_555
Nb15 O128 2.055288 1_555
Nb16 O59 1.932169 1_555
Nb16 O55 1.963355 1_555
Nb16 O57 1.994465 1_555
Nb16 O127 1.995580 1_555
Nb16 O131 2.021365 1_555
Nb16 O129 2.035658 1_555
Nb17 O62 1.925225 1_555
Nb17 O64 1.981705 1_555
Nb17 O60 1.985707 1_555
Nb17 O134 2.031390 1_555
Nb17 O132 2.061848 1_555
Nb17 O136 2.093393 1_555
Nb18 O61 1.945960 1_555
Nb18 O63 1.975206 1_555
Nb18 O65 1.985613 1_555
Nb18 O133 2.021005 1_555
Nb18 O137 2.058582 1_555
Nb18 O135 2.089972 1_555
Nb19 O68 1.939046 1_555
Nb19 O70 1.939452 1_555
Nb19 O66 1.940864 1_555
Nb19 O142 2.092679 1_555
Nb19 O138 2.095388 1_555
Nb19 O140 2.102395 1_555
Nb20 O71 1.941631 1_555
Nb20 O67 1.941754 1_555
Nb20 O69 1.946108 1_555
Nb20 O143 2.084647 1_555
Nb20 O139 2.091041 1_555
Nb20 O141 2.097552 1_555
O0 Si0 1.630288 1_555
O1 Si1 1.651725 1_545
O2 Si2 1.642108 1_555
O3 Si3 1.633686 1_555
O4 Si5 1.645560 1_555
O5 Si4 1.630826 1_655
O6 Si6 1.626293 1_555
O7 Si7 1.623385 1_555
O8 Si9 1.620561 1_555
O9 Si8 1.621949 1_655
O10 Si10 1.624491 1_545
O11 Si11 1.624373 1_545
O12 Si10 1.678898 1_555
O13 Si11 1.677421 1_555
O14 Si6 1.676197 1_555
O15 Si7 1.677564 1_555
O16 Si8 1.682130 1_555
O17 Si9 1.681269 1_555
O18 Si2 1.638671 1_555
O19 Si3 1.669680 1_555
O20 Si4 1.671752 1_555
O21 Si5 1.647214 1_555
O22 Si0 1.672508 1_565
O23 Si1 1.642140 1_555
O24 Si12 1.608805 1_555
O24 Y0 2.169722 1_555
O25 Si13 1.609736 1_555
O25 Y1 2.172690 1_555
O26 Si14 1.616193 1_555
O26 Y0 2.197225 1_555
O27 Si15 1.619749 1_555
O27 Y1 2.197241 1_555
O28 Si16 1.615532 1_555
O28 Y0 2.189794 1_555
O29 Si17 1.619371 1_555
O29 Y1 2.190708 1_555
O30 Si18 1.654423 1_555
O31 Si19 1.622044 1_555
O31 Y2 2.185603 1_555
O32 Si20 1.655529 1_555
O33 Si21 1.621570 1_555
O33 Y2 2.188102 1_555
O34 Si22 1.645483 1_555
O35 Si23 1.625648 1_555
O35 Y2 2.189141 1_555
O36 Si22 1.631223 1_555
O37 Si23 1.655660 1_555
O38 Si18 1.626801 1_555
O39 Si19 1.653840 1_555
O40 Si20 1.629856 1_555
O41 Si21 1.646913 1_555
O42 Si14 1.668470 1_555
O43 Si15 1.648600 1_555
O44 Si16 1.659023 1_555
O45 Si17 1.642441 1_555
O46 Si12 1.658136 1_555
O47 Si13 1.650575 1_555
O48 Si24 1.636041 1_555
O49 Si25 1.632983 1_555
O50 Si26 1.630590 1_555
O51 Si27 1.638845 1_555
O52 Si28 1.633418 1_555
O53 Si29 1.638061 1_555
O54 Si30 1.628313 1_555
O55 Si31 1.640709 1_555
O56 Si32 1.634744 1_555
O57 Si33 1.645500 1_555
O58 Si34 1.643384 1_555
O59 Si35 1.636504 1_555
O60 Si34 1.652054 1_555
O61 Si35 1.657054 1_555
O62 Si30 1.651744 1_555
O63 Si31 1.658505 1_555
O64 Si32 1.648651 1_555
O65 Si33 1.656611 1_555
O66 Si26 1.674851 1_555
O67 Si27 1.669818 1_555
O68 Si28 1.674505 1_555
O69 Si29 1.671479 1_555
O70 Si24 1.673966 1_555
O71 Si25 1.670911 1_555
O72 Si34 1.631249 1_555
O73 Si35 1.623534 1_555
O74 Si30 1.638683 1_555
O75 Si31 1.636678 1_555
O76 Si32 1.629994 1_555
O77 Si33 1.646937 1_555
O78 Si26 1.640883 1_555
O79 Si27 1.629697 1_555
O80 Si28 1.636965 1_555
O81 Si29 1.632765 1_555
O82 Si24 1.633566 1_555
O83 Si25 1.634379 1_555
O84 Si12 1.669073 1_555
O85 Si13 1.668139 1_555
O86 Si14 1.644404 1_555
O87 Si15 1.651139 1_555
O88 Si16 1.645993 1_555
O89 Si17 1.651739 1_555
O90 Si18 1.646389 1_555
O91 Si19 1.658026 1_555
O92 Si20 1.647370 1_555
O93 Si21 1.657459 1_555
O94 Si22 1.670181 1_555
O95 Si23 1.640873 1_555
O96 Si10 1.613648 1_545
O96 Y0 2.290075 1_555
O97 Si11 1.613594 1_545
O97 Y1 2.300607 1_555
O98 Si6 1.614072 1_555
O98 Y0 2.289404 1_555
O99 Si7 1.614267 1_555
O99 Y1 2.295012 1_555
O100 Si9 1.611081 1_555
O100 Y0 2.271046 1_555
O101 Si8 1.612631 1_655
O101 Y1 2.278966 1_555
O102 Si2 1.638795 1_555
O103 Si3 1.614498 1_555
O103 Y2 2.284185 1_555
O104 Si5 1.635955 1_555
O105 Si4 1.613940 1_655
O105 Y2 2.290696 1_555
O106 Si0 1.631146 1_555
O107 Si1 1.621815 1_545
O107 Y2 2.287304 1_555
O108 Si24 1.623327 1_555
O109 Si25 1.635169 1_555
O110 Si27 1.618665 1_555
O111 Si26 1.639619 1_655
O112 Si28 1.625479 1_545
O113 Si29 1.634073 1_545
O114 Si30 1.643900 1_545
O115 Si31 1.638821 1_545
O116 Si32 1.651029 1_555
O117 Si33 1.628348 1_555
O118 Si35 1.639868 1_555
O119 Si34 1.636328 1_655
O120 Si22 1.646469 1_555
O121 Si23 1.642954 1_555
O122 Si19 1.630774 1_455
O123 Si18 1.654937 1_555
O124 Si20 1.640439 1_565
O125 Si21 1.644939 1_565
O126 Si14 1.631331 1_565
O127 Si15 1.640370 1_565
O128 Si16 1.642653 1_555
O129 Si17 1.653012 1_555
O130 Si13 1.643614 1_455
O131 Si12 1.642895 1_555
O132 Si0 1.644444 1_565
O133 Si1 1.653230 1_555
O134 Si2 1.653078 1_555
O135 Si3 1.655865 1_555
O136 Si4 1.650587 1_555
O137 Si5 1.659556 1_555
O138 Si6 1.655623 1_555
O139 Si7 1.656177 1_555
O140 Si8 1.651341 1_555
O141 Si9 1.651651 1_555
O142 Si10 1.654552 1_555
O143 Si11 1.656678 1_555
