# generated using pymatgen
data_Li2Ni(PO3)4
_symmetry_space_group_name_H-M   'P 1'
_cell_length_a   9.24042700
_cell_length_b   9.40834800
_cell_length_c   10.23219200
_cell_angle_alpha   90.00000000
_cell_angle_beta   90.00000000
_cell_angle_gamma   90.00000000
_symmetry_Int_Tables_number   1
_chemical_formula_structural   Li2Ni(PO3)4
_chemical_formula_sum   'Li8 Ni4 P16 O48'
_cell_volume   889.55764025
_cell_formula_units_Z   4
loop_
 _symmetry_equiv_pos_site_id
 _symmetry_equiv_pos_as_xyz
  1  'x, y, z'
loop_
 _atom_site_type_symbol
 _atom_site_label
 _atom_site_symmetry_multiplicity
 _atom_site_fract_x
 _atom_site_fract_y
 _atom_site_fract_z
 _atom_site_occupancy
  Li  Li0  1  0.09481400  0.00810200  0.17738700  1
  Li  Li1  1  0.40518600  0.00810200  0.17738700  1
  Li  Li2  1  0.59481400  0.49189800  0.67738700  1
  Li  Li3  1  0.90518600  0.49189800  0.67738700  1
  Li  Li4  1  0.09481400  0.50810200  0.32261300  1
  Li  Li5  1  0.40518600  0.50810200  0.32261300  1
  Li  Li6  1  0.59481400  0.99189800  0.82261300  1
  Li  Li7  1  0.90518600  0.99189800  0.82261300  1
  Ni  Ni0  1  0.25000000  0.01105900  0.79677500  1
  Ni  Ni1  1  0.75000000  0.48894100  0.29677500  1
  Ni  Ni2  1  0.25000000  0.51105900  0.70322500  1
  Ni  Ni3  1  0.75000000  0.98894100  0.20322500  1
  P  P0  1  0.75000000  0.19465200  0.60864100  1
  P  P1  1  0.54207600  0.21043200  0.38792700  1
  P  P2  1  0.95792400  0.21043200  0.38792700  1
  P  P3  1  0.25000000  0.22998200  0.51904300  1
  P  P4  1  0.75000000  0.27001800  0.01904300  1
  P  P5  1  0.04207600  0.28956800  0.88792700  1
  P  P6  1  0.45792400  0.28956800  0.88792700  1
  P  P7  1  0.25000000  0.30534800  0.10864100  1
  P  P8  1  0.75000000  0.69465200  0.89135900  1
  P  P9  1  0.54207600  0.71043200  0.11207300  1
  P  P10  1  0.95792400  0.71043200  0.11207300  1
  P  P11  1  0.25000000  0.72998200  0.98095700  1
  P  P12  1  0.75000000  0.77001800  0.48095700  1
  P  P13  1  0.04207600  0.78956800  0.61207300  1
  P  P14  1  0.45792400  0.78956800  0.61207300  1
  P  P15  1  0.25000000  0.80534800  0.39135900  1
  O  O0  1  0.75000000  0.09652700  0.72357200  1
  O  O1  1  0.75000000  0.11087000  0.03540100  1
  O  O2  1  0.57564300  0.11322400  0.27485100  1
  O  O3  1  0.92435700  0.11322400  0.27485100  1
  O  O4  1  0.07148800  0.13221400  0.87445700  1
  O  O5  1  0.42851200  0.13221400  0.87445700  1
  O  O6  1  0.25000000  0.13472900  0.63436800  1
  O  O7  1  0.61429000  0.14843200  0.51914300  1
  O  O8  1  0.88571000  0.14843200  0.51914300  1
  O  O9  1  0.25000000  0.14797000  0.12937600  1
  O  O10  1  0.12344800  0.18372000  0.41922400  1
  O  O11  1  0.37655200  0.18372000  0.41922400  1
  O  O12  1  0.62344800  0.31628000  0.91922400  1
  O  O13  1  0.87655200  0.31628000  0.91922400  1
  O  O14  1  0.75000000  0.35203000  0.62937600  1
  O  O15  1  0.11429000  0.35156800  0.01914300  1
  O  O16  1  0.38571000  0.35156800  0.01914300  1
  O  O17  1  0.75000000  0.36527100  0.13436800  1
  O  O18  1  0.57148800  0.36778600  0.37445700  1
  O  O19  1  0.92851200  0.36778600  0.37445700  1
  O  O20  1  0.07564300  0.38677600  0.77485100  1
  O  O21  1  0.42435700  0.38677600  0.77485100  1
  O  O22  1  0.25000000  0.38913000  0.53540100  1
  O  O23  1  0.25000000  0.40347300  0.22357200  1
  O  O24  1  0.75000000  0.59652700  0.77642800  1
  O  O25  1  0.75000000  0.61087000  0.46459900  1
  O  O26  1  0.57564300  0.61322400  0.22514900  1
  O  O27  1  0.92435700  0.61322400  0.22514900  1
  O  O28  1  0.07148800  0.63221400  0.62554300  1
  O  O29  1  0.42851200  0.63221400  0.62554300  1
  O  O30  1  0.25000000  0.63472900  0.86563200  1
  O  O31  1  0.61429000  0.64843200  0.98085700  1
  O  O32  1  0.88571000  0.64843200  0.98085700  1
  O  O33  1  0.25000000  0.64797000  0.37062400  1
  O  O34  1  0.12344800  0.68372000  0.08077600  1
  O  O35  1  0.37655200  0.68372000  0.08077600  1
  O  O36  1  0.62344800  0.81628000  0.58077600  1
  O  O37  1  0.87655200  0.81628000  0.58077600  1
  O  O38  1  0.75000000  0.85203000  0.87062400  1
  O  O39  1  0.11429000  0.85156800  0.48085700  1
  O  O40  1  0.38571000  0.85156800  0.48085700  1
  O  O41  1  0.75000000  0.86527100  0.36563200  1
  O  O42  1  0.57148800  0.86778600  0.12554300  1
  O  O43  1  0.92851200  0.86778600  0.12554300  1
  O  O44  1  0.07564300  0.88677600  0.72514900  1
  O  O45  1  0.42435700  0.88677600  0.72514900  1
  O  O46  1  0.25000000  0.88913000  0.96459900  1
  O  O47  1  0.25000000  0.90347300  0.27642800  1
loop_
_geom_bond_atom_site_label_1
_geom_bond_atom_site_label_2
_geom_bond_distance
_geom_bond_site_symmetry_2
Li0 O9 2.007314 1_555
Li0 O47 2.013038 1_545
Li0 O43 2.094190 1_445
Li0 O3 2.110366 1_455
Li1 O9 2.007314 1_555
Li1 O47 2.013038 1_545
Li1 O42 2.094190 1_545
Li1 O2 2.110366 1_555
Li2 O14 2.007314 1_555
Li2 O24 2.013038 1_555
Li2 O29 2.094190 1_555
Li2 O21 2.110366 1_555
Li3 O14 2.007314 1_555
Li3 O24 2.013038 1_555
Li3 O28 2.094190 1_655
Li3 O20 2.110366 1_655
Li4 O33 2.007314 1_555
Li4 O23 2.013038 1_555
Li4 O19 2.094190 1_455
Li4 O27 2.110366 1_455
Li5 O33 2.007314 1_555
Li5 O23 2.013038 1_555
Li5 O18 2.094190 1_555
Li5 O26 2.110366 1_555
Li6 O38 2.007314 1_555
Li6 O0 2.013038 1_565
Li6 O5 2.094190 1_565
Li6 O45 2.110366 1_555
Li7 O38 2.007314 1_555
Li7 O0 2.013038 1_565
Li7 O4 2.094190 1_665
Li7 O44 2.110366 1_655
Ni0 O6 2.028624 1_555
Ni0 O46 2.065128 1_545
Ni0 O45 2.121352 1_545
Ni0 O44 2.121352 1_545
Ni0 O4 2.156858 1_555
Ni0 O5 2.156858 1_555
Ni1 O17 2.028624 1_555
Ni1 O25 2.065128 1_555
Ni1 O27 2.121352 1_555
Ni1 O26 2.121352 1_555
Ni1 O19 2.156858 1_555
Ni1 O18 2.156858 1_555
Ni2 O30 2.028624 1_555
Ni2 O22 2.065128 1_555
Ni2 O21 2.121352 1_555
Ni2 O20 2.121352 1_555
Ni2 O29 2.156858 1_555
Ni2 O28 2.156858 1_555
Ni3 O41 2.028624 1_555
Ni3 O1 2.065128 1_565
Ni3 O2 2.121352 1_565
Ni3 O3 2.121352 1_565
Ni3 O42 2.156858 1_555
Ni3 O43 2.156858 1_555
O0 P0 1.495077 1_555
O1 P4 1.506646 1_555
O2 P1 1.507091 1_555
O3 P2 1.507091 1_555
O4 P5 1.511478 1_555
O5 P6 1.511478 1_555
O6 P3 1.481753 1_555
O7 P1 1.608782 1_555
O7 P0 1.612538 1_555
O8 P2 1.608782 1_555
O8 P0 1.612538 1_555
O9 P7 1.495790 1_555
O10 P2 1.582757 1_455
O10 P3 1.612488 1_555
O11 P1 1.582757 1_555
O11 P3 1.612488 1_555
O12 P6 1.582757 1_555
O12 P4 1.612488 1_556
O13 P5 1.582757 1_655
O13 P4 1.612488 1_556
O14 P0 1.495790 1_555
O15 P5 1.608782 1_554
O15 P7 1.612538 1_555
O16 P6 1.608782 1_554
O16 P7 1.612538 1_555
O17 P4 1.481753 1_555
O18 P1 1.511478 1_555
O19 P2 1.511478 1_555
O20 P5 1.507091 1_555
O21 P6 1.507091 1_555
O22 P3 1.506646 1_555
O23 P7 1.495077 1_555
O24 P8 1.495077 1_555
O25 P12 1.506646 1_555
O26 P9 1.507091 1_555
O27 P10 1.507091 1_555
O28 P13 1.511478 1_555
O29 P14 1.511478 1_555
O30 P11 1.481753 1_555
O31 P9 1.608782 1_556
O31 P8 1.612538 1_555
O32 P10 1.608782 1_556
O32 P8 1.612538 1_555
O33 P15 1.495790 1_555
O34 P10 1.582757 1_455
O34 P11 1.612488 1_554
O35 P9 1.582757 1_555
O35 P11 1.612488 1_554
O36 P14 1.582757 1_555
O36 P12 1.612488 1_555
O37 P13 1.582757 1_655
O37 P12 1.612488 1_555
O38 P8 1.495790 1_555
O39 P13 1.608782 1_555
O39 P15 1.612538 1_555
O40 P14 1.608782 1_555
O40 P15 1.612538 1_555
O41 P12 1.481753 1_555
O42 P9 1.511478 1_555
O43 P10 1.511478 1_555
O44 P13 1.507091 1_555
O45 P14 1.507091 1_555
O46 P11 1.506646 1_555
O47 P15 1.495077 1_555
