# generated using pymatgen
data_MgNb4(CoO6)2
_symmetry_space_group_name_H-M   'P 1'
_cell_length_a   9.33278213
_cell_length_b   6.01836171
_cell_length_c   5.99195830
_cell_angle_alpha   85.06545128
_cell_angle_beta   60.72202737
_cell_angle_gamma   60.87738069
_symmetry_Int_Tables_number   1
_chemical_formula_structural   MgNb4(CoO6)2
_chemical_formula_sum   'Mg1 Nb4 Co2 O12'
_cell_volume   251.29814475
_cell_formula_units_Z   1
loop_
 _symmetry_equiv_pos_site_id
 _symmetry_equiv_pos_as_xyz
  1  'x, y, z'
loop_
 _atom_site_type_symbol
 _atom_site_label
 _atom_site_symmetry_multiplicity
 _atom_site_fract_x
 _atom_site_fract_y
 _atom_site_fract_z
 _atom_site_occupancy
  Mg  Mg0  1  0.32508985  0.32002719  0.70609324  1
  Nb  Nb0  1  0.02324910  0.99066878  0.97015693  1
  Nb  Nb1  1  0.33929799  0.93686618  0.04076977  1
  Nb  Nb2  1  0.64267146  0.02873808  0.01690091  1
  Nb  Nb3  1  0.84645523  0.56693583  0.42770721  1
  Co  Co0  1  0.10905023  0.59364369  0.45632885  1
  Co  Co1  1  0.54936013  0.54462261  0.39650894  1
  O  O0  1  0.49296147  0.28393535  0.33330490  1
  O  O1  1  0.16447101  0.79775563  0.17131679  1
  O  O2  1  0.19005535  0.12599963  0.81764884  1
  O  O3  1  0.82484728  0.30122529  0.28745205  1
  O  O4  1  0.83807649  0.69986317  0.72757167  1
  O  O5  1  0.49689624  0.82324041  0.20528534  1
  O  O6  1  0.47994756  0.17563477  0.87491251  1
  O  O7  1  0.12557449  0.29388965  0.28374503  1
  O  O8  1  0.17419968  0.68482077  0.70433398  1
  O  O9  1  0.82847708  0.14104289  0.86569526  1
  O  O10  1  0.83603301  0.80225329  0.20244788  1
  O  O11  1  0.54900035  0.70133679  0.68890292  1
loop_
_geom_bond_atom_site_label_1
_geom_bond_atom_site_label_2
_geom_bond_distance
_geom_bond_site_symmetry_2
Mg0 O8 1.950500 1_555
Mg0 O0 1.954635 1_555
Mg0 O2 1.967948 1_555
Mg0 O6 1.980759 1_555
Nb0 O2 1.906995 1_565
Nb0 O8 1.922350 1_555
Nb0 O9 1.982232 1_465
Nb0 O3 2.082303 1_466
Nb0 O1 2.088433 1_556
Nb0 O10 2.356767 1_456
Nb1 O5 1.981381 1_555
Nb1 O1 1.985857 1_555
Nb1 O11 2.015624 1_554
Nb1 O7 2.059421 1_565
Nb1 O2 2.244866 1_564
Nb1 O6 2.256117 1_564
Nb2 O6 1.907693 1_554
Nb2 O0 1.930468 1_555
Nb2 O9 1.945129 1_554
Nb2 O4 2.057536 1_544
Nb2 O5 2.133122 1_545
Nb2 O10 2.378661 1_545
Nb3 O10 1.871481 1_555
Nb3 O4 1.980782 1_555
Nb3 O3 2.003762 1_555
Nb3 O7 2.027230 1_655
Nb3 O11 2.143099 1_555
Co0 O4 2.007653 1_455
Co0 O1 2.021542 1_555
Co0 O8 2.056188 1_555
Co0 O7 2.059576 1_555
Co1 O5 1.945093 1_555
Co1 O0 1.995734 1_555
Co1 O3 2.009640 1_555
Co1 O11 2.057804 1_555
