# generated using pymatgen
data_MgZn2(BiO3)4
_symmetry_space_group_name_H-M   'P 1'
_cell_length_a   5.51567044
_cell_length_b   5.73653919
_cell_length_c   8.24177874
_cell_angle_alpha   85.44139201
_cell_angle_beta   89.77174110
_cell_angle_gamma   89.89540103
_symmetry_Int_Tables_number   1
_chemical_formula_structural   MgZn2(BiO3)4
_chemical_formula_sum   'Mg1 Zn2 Bi4 O12'
_cell_volume   259.94965071
_cell_formula_units_Z   1
loop_
 _symmetry_equiv_pos_site_id
 _symmetry_equiv_pos_as_xyz
  1  'x, y, z'
loop_
 _atom_site_type_symbol
 _atom_site_label
 _atom_site_symmetry_multiplicity
 _atom_site_fract_x
 _atom_site_fract_y
 _atom_site_fract_z
 _atom_site_occupancy
  Mg  Mg0  1  0.47641000  0.46987900  0.74367600  1
  Zn  Zn0  1  0.51260300  0.55612500  0.22753400  1
  Zn  Zn1  1  0.95017700  0.97583100  0.69883200  1
  Bi  Bi0  1  0.50107600  0.00559200  0.99855000  1
  Bi  Bi1  1  0.99671600  0.50624700  0.00363100  1
  Bi  Bi2  1  0.99936200  0.54314500  0.48385600  1
  Bi  Bi3  1  0.47283400  0.03538000  0.46569500  1
  O  O0  1  0.65070400  0.41433900  0.43987300  1
  O  O1  1  0.16123100  0.23917900  0.60050900  1
  O  O2  1  0.79269000  0.77871600  0.10006700  1
  O  O3  1  0.32935100  0.68896500  0.92373000  1
  O  O4  1  0.30479300  0.71069700  0.58499200  1
  O  O5  1  0.85056300  0.88661400  0.47060100  1
  O  O6  1  0.19572100  0.22256300  0.91483700  1
  O  O7  1  0.67074700  0.31440600  0.08390800  1
  O  O8  1  0.15693600  0.44757000  0.25135600  1
  O  O9  1  0.63103200  0.12170300  0.76118200  1
  O  O10  1  0.36998300  0.89531600  0.23280400  1
  O  O11  1  0.84448700  0.61636100  0.76425900  1
loop_
_geom_bond_atom_site_label_1
_geom_bond_atom_site_label_2
_geom_bond_distance
_geom_bond_site_symmetry_2
Mg0 O4 2.057375 1_555
Mg0 O9 2.164814 1_555
Mg0 O3 2.173193 1_555
Mg0 O11 2.210925 1_555
Mg0 O6 2.464180 1_555
Mg0 O1 2.537480 1_555
Mg0 O0 2.720591 1_555
Bi0 O10 2.108767 1_546
Bi0 O9 2.137319 1_555
Bi0 O7 2.172194 1_556
Bi0 O6 2.174158 1_555
Bi0 O3 2.182998 1_545
Bi0 O2 2.193395 1_546
Bi1 O2 2.127226 1_555
Bi1 O6 2.136607 1_654
Bi1 O7 2.182531 1_555
Bi1 O3 2.187723 1_654
Bi1 O11 2.193017 1_554
Bi1 O8 2.228638 1_655
Bi2 O0 2.104506 1_555
Bi2 O1 2.120535 1_655
Bi2 O5 2.127979 1_555
Bi2 O4 2.145031 1_655
Bi2 O8 2.209037 1_655
Bi2 O11 2.526696 1_555
Bi3 O10 2.215204 1_545
Bi3 O4 2.236705 1_545
Bi3 O5 2.249289 1_545
Bi3 O0 2.380394 1_555
Bi3 O1 2.395666 1_555
Bi3 O9 2.673513 1_555
O0 Zn0 2.021521 1_555
O1 Zn1 2.024440 1_445
O2 Zn0 2.214000 1_555
O5 Zn1 2.065038 1_555
O7 Zn0 2.081609 1_555
O8 Zn0 2.063184 1_555
O9 Zn1 2.029463 1_545
O10 Zn0 2.101033 1_555
O11 Zn1 2.169804 1_555
