# generated using pymatgen
data_Sr2CoO3
_symmetry_space_group_name_H-M   'P 1'
_cell_length_a   3.57841874
_cell_length_b   3.57841874
_cell_length_c   7.64878243
_cell_angle_alpha   76.68367358
_cell_angle_beta   76.68367358
_cell_angle_gamma   90.86719244
_symmetry_Int_Tables_number   1
_chemical_formula_structural   Sr2CoO3
_chemical_formula_sum   'Sr2 Co1 O3'
_cell_volume   92.50658384
_cell_formula_units_Z   1
loop_
 _symmetry_equiv_pos_site_id
 _symmetry_equiv_pos_as_xyz
  1  'x, y, z'
loop_
 _atom_site_type_symbol
 _atom_site_label
 _atom_site_symmetry_multiplicity
 _atom_site_fract_x
 _atom_site_fract_y
 _atom_site_fract_z
 _atom_site_occupancy
  Sr  Sr0  1  0.34318480  0.34318480  0.81373891  1
  Sr  Sr1  1  0.65681520  0.65681520  0.18626109  1
  Co  Co0  1  -0.00000000  -0.00000000  0.50000000  1
  O  O0  1  0.50000000  0.50000000  0.50000000  1
  O  O1  1  0.85454197  0.85454197  0.79107169  1
  O  O2  1  0.14545803  0.14545803  0.20892831  1
loop_
_geom_bond_atom_site_label_1
_geom_bond_atom_site_label_2
_geom_bond_distance
_geom_bond_site_symmetry_2
Co0 O1 2.103004 1_445
Co0 O2 2.103004 1_555
Co0 O0 2.511103 1_555
Co0 O0 2.511103 1_445
Co0 O0 2.549400 1_545
Co0 O0 2.549400 1_455
O0 Sr0 2.266775 1_555
O0 Sr1 2.266775 1_555
O1 Sr0 2.516307 1_665
O1 Sr0 2.516569 1_555
O1 Sr0 2.554655 1_565
O1 Sr0 2.554655 1_655
O1 Sr1 2.855258 1_556
O2 Sr1 2.516307 1_445
O2 Sr1 2.516569 1_555
O2 Sr1 2.554655 1_545
O2 Sr1 2.554655 1_455
O2 Sr0 2.855258 1_554
