# generated using pymatgen
data_Cu3(AsO4)2
_symmetry_space_group_name_H-M   'P 1'
_cell_length_a   5.04677181
_cell_length_b   5.45008545
_cell_length_c   6.36030188
_cell_angle_alpha   70.65856348
_cell_angle_beta   86.52654642
_cell_angle_gamma   68.43304247
_symmetry_Int_Tables_number   1
_chemical_formula_structural   Cu3(AsO4)2
_chemical_formula_sum   'Cu3 As2 O8'
_cell_volume   153.13881521
_cell_formula_units_Z   1
loop_
 _symmetry_equiv_pos_site_id
 _symmetry_equiv_pos_as_xyz
  1  'x, y, z'
loop_
 _atom_site_type_symbol
 _atom_site_label
 _atom_site_symmetry_multiplicity
 _atom_site_fract_x
 _atom_site_fract_y
 _atom_site_fract_z
 _atom_site_occupancy
  Cu  Cu0  1  0.00000463  -0.00000583  0.00000087  1
  Cu  Cu1  1  0.26330905  0.19719132  0.32934483  1
  Cu  Cu2  1  0.73669091  0.80280699  0.67065592  1
  As  As0  1  0.36205100  0.35185723  0.78066417  1
  As  As1  1  0.63795026  0.64814385  0.21933548  1
  O  O0  1  0.62267055  0.87187193  0.36305576  1
  O  O1  1  0.37732854  0.12812660  0.63694492  1
  O  O2  1  0.78203322  0.78711369  0.97672014  1
  O  O3  1  0.21797178  0.21288723  0.02328106  1
  O  O4  1  0.31341362  0.64823452  0.16368889  1
  O  O5  1  0.14129134  0.67571112  0.63711686  1
  O  O6  1  0.85870238  0.32428745  0.36288265  1
  O  O7  1  0.68658372  0.35177190  0.83630746  1
loop_
_geom_bond_atom_site_label_1
_geom_bond_atom_site_label_2
_geom_bond_distance
_geom_bond_site_symmetry_2
Cu0 O2 1.910493 1_444
Cu0 O3 1.910532 1_555
Cu0 O4 1.977169 1_545
Cu0 O7 1.977256 1_454
Cu1 O6 1.923575 1_455
Cu1 O3 1.943817 1_555
Cu1 O1 1.946741 1_555
Cu1 O0 1.977387 1_545
Cu1 O4 2.434339 1_555
Cu2 O5 1.923547 1_655
Cu2 O2 1.943829 1_555
Cu2 O0 1.946742 1_555
Cu2 O1 1.977390 1_565
Cu2 O7 2.434302 1_555
As0 O5 1.673412 1_555
As0 O7 1.696275 1_555
As0 O3 1.725785 1_556
As0 O1 1.728869 1_555
As1 O6 1.673409 1_555
As1 O4 1.696287 1_555
As1 O2 1.725788 1_554
As1 O0 1.728859 1_555
