# generated using pymatgen
data_Na4ZrGaSi2PO12
_symmetry_space_group_name_H-M   'P 1'
_cell_length_a   9.09121605
_cell_length_b   9.09121573
_cell_length_c   22.35847244
_cell_angle_alpha   89.39794865
_cell_angle_beta   90.60205139
_cell_angle_gamma   119.39011909
_symmetry_Int_Tables_number   1
_chemical_formula_structural   Na4ZrGaSi2PO12
_chemical_formula_sum   'Na24 Zr6 Ga6 Si12 P6 O72'
_cell_volume   1609.98136253
_cell_formula_units_Z   6
loop_
 _symmetry_equiv_pos_site_id
 _symmetry_equiv_pos_as_xyz
  1  'x, y, z'
loop_
 _atom_site_type_symbol
 _atom_site_label
 _atom_site_symmetry_multiplicity
 _atom_site_fract_x
 _atom_site_fract_y
 _atom_site_fract_z
 _atom_site_occupancy
  Na  Na0  1  0.63885096  0.00574269  0.24970141  1
  Na  Na1  1  0.37084417  0.36664581  0.24606207  1
  Na  Na2  1  0.99065211  0.62569299  0.24942660  1
  Na  Na3  1  0.63335419  0.62915583  0.74606207  1
  Na  Na4  1  0.99425731  0.36114904  0.74970141  1
  Na  Na5  1  0.37430701  0.00934789  0.74942660  1
  Na  Na6  1  0.30551796  0.33907569  0.58303441  1
  Na  Na7  1  0.03751117  0.69997881  0.57939507  1
  Na  Na8  1  0.65731911  0.95902599  0.58275960  1
  Na  Na9  1  0.30002119  0.96248883  0.07939507  1
  Na  Na10  1  0.66092431  0.69448204  0.08303441  1
  Na  Na11  1  0.04097401  0.34268089  0.08275960  1
  Na  Na12  1  0.97218396  0.67240969  0.91636841  1
  Na  Na13  1  0.70417717  0.03331281  0.91272907  1
  Na  Na14  1  0.32398511  0.29235999  0.91609360  1
  Na  Na15  1  0.96668719  0.29582283  0.41272907  1
  Na  Na16  1  0.32759031  0.02781604  0.41636841  1
  Na  Na17  1  0.70764001  0.67601489  0.41609360  1
  Na  Na18  1  0.99826719  0.99405668  0.49638770  1
  Na  Na19  1  0.00594332  0.00173281  0.99638770  1
  Na  Na20  1  0.66493419  0.32738968  0.82972070  1
  Na  Na21  1  0.67261032  0.33506581  0.32972070  1
  Na  Na22  1  0.33160019  0.66072368  0.16305470  1
  Na  Na23  1  0.33927632  0.66839981  0.66305470  1
  Zr  Zr0  1  0.99856062  0.99997904  0.64841654  1
  Zr  Zr1  1  0.00002096  0.00143938  0.14841654  1
  Zr  Zr2  1  0.66522762  0.33331204  0.98174954  1
  Zr  Zr3  1  0.66668796  0.33477238  0.48174954  1
  Zr  Zr4  1  0.33189362  0.66664604  0.31508354  1
  Zr  Zr5  1  0.33335396  0.66810638  0.81508354  1
  Ga  Ga0  1  0.98308272  0.98800199  0.35006762  1
  Ga  Ga1  1  0.01199801  0.01691728  0.85006762  1
  Ga  Ga2  1  0.64974972  0.32133499  0.68340062  1
  Ga  Ga3  1  0.67866501  0.35025028  0.18340062  1
  Ga  Ga4  1  0.31641572  0.65466899  0.01673462  1
  Ga  Ga5  1  0.34533101  0.68358428  0.51673462  1
  Si  Si0  1  0.70716189  0.70186429  0.25074335  1
  Si  Si1  1  0.99332379  0.28973297  0.25127249  1
  Si  Si2  1  0.29813571  0.29283811  0.75074335  1
  Si  Si3  1  0.71026703  0.00667621  0.75127249  1
  Si  Si4  1  0.37382889  0.03519729  0.58407635  1
  Si  Si5  1  0.65999079  0.62306597  0.58460549  1
  Si  Si6  1  0.96480271  0.62617111  0.08407635  1
  Si  Si7  1  0.37693403  0.34000921  0.08460549  1
  Si  Si8  1  0.04049489  0.36853129  0.91741035  1
  Si  Si9  1  0.32665679  0.95639997  0.91793949  1
  Si  Si10  1  0.63146871  0.95950511  0.41741035  1
  Si  Si11  1  0.04360003  0.67334321  0.41793949  1
  P  P0  1  0.29464724  0.00560681  0.25213190  1
  P  P1  1  0.99439319  0.70535276  0.75213190  1
  P  P2  1  0.96131424  0.33893981  0.58546490  1
  P  P3  1  0.66106019  0.03868576  0.08546490  1
  P  P4  1  0.62798024  0.67227381  0.91879890  1
  P  P5  1  0.32772619  0.37201976  0.41879890  1
  O  O0  1  0.20957737  0.03314469  0.30727280  1
  O  O1  1  0.82794782  0.78715705  0.30919776  1
  O  O2  1  0.96639411  0.16968279  0.31000624  1
  O  O3  1  0.21284295  0.17205218  0.80919776  1
  O  O4  1  0.96685531  0.79042263  0.80727280  1
  O  O5  1  0.83031721  0.03360589  0.81000624  1
  O  O6  1  0.79051908  0.96658576  0.69222157  1
  O  O7  1  0.17651917  0.20889488  0.69190841  1
  O  O8  1  0.02859698  0.81820303  0.69541694  1
  O  O9  1  0.79110512  0.82348083  0.19190841  1
  O  O10  1  0.03341424  0.20948092  0.19222157  1
  O  O11  1  0.18179697  0.97140302  0.19541694  1
  O  O12  1  0.87624437  0.36647769  0.64060580  1
  O  O13  1  0.49461482  0.12049005  0.64253076  1
  O  O14  1  0.63306111  0.50301579  0.64333924  1
  O  O15  1  0.87950995  0.50538518  0.14253076  1
  O  O16  1  0.63352231  0.12375563  0.14060580  1
  O  O17  1  0.49698421  0.36693889  0.14333924  1
  O  O18  1  0.45718608  0.29991876  0.02555457  1
  O  O19  1  0.84318617  0.54222788  0.02524141  1
  O  O20  1  0.69526398  0.15153603  0.02874994  1
  O  O21  1  0.45777212  0.15681383  0.52524141  1
  O  O22  1  0.70008124  0.54281392  0.52555457  1
  O  O23  1  0.84846397  0.30473602  0.52874994  1
  O  O24  1  0.54291037  0.69981169  0.97393980  1
  O  O25  1  0.16128082  0.45382405  0.97586476  1
  O  O26  1  0.29972711  0.83634979  0.97667324  1
  O  O27  1  0.54617595  0.83871918  0.47586476  1
  O  O28  1  0.30018831  0.45708963  0.47393980  1
  O  O29  1  0.16365021  0.70027289  0.47667324  1
  O  O30  1  0.12385208  0.63325276  0.35888857  1
  O  O31  1  0.50985217  0.87556188  0.35857541  1
  O  O32  1  0.36192998  0.48487003  0.36208394  1
  O  O33  1  0.12443812  0.49014783  0.85857541  1
  O  O34  1  0.36674724  0.87614792  0.85888857  1
  O  O35  1  0.51512997  0.63807002  0.86208394  1
  O  O36  1  0.02965332  0.84635930  0.41073309  1
  O  O37  1  0.82017834  0.97968753  0.41191341  1
  O  O38  1  0.17371191  0.19603802  0.41197074  1
  O  O39  1  0.02031247  0.17982166  0.91191341  1
  O  O40  1  0.15364070  0.97034668  0.91073309  1
  O  O41  1  0.80396198  0.82628809  0.91197074  1
  O  O42  1  0.97624957  0.17517217  0.58881041  1
  O  O43  1  0.18571095  0.01941349  0.58802381  1
  O  O44  1  0.82922231  0.81200966  0.58831515  1
  O  O45  1  0.98058651  0.81428905  0.08802381  1
  O  O46  1  0.82482783  0.02375043  0.08881041  1
  O  O47  1  0.18799034  0.17077769  0.08831515  1
  O  O48  1  0.69632032  0.17969230  0.74406609  1
  O  O49  1  0.48684534  0.31302053  0.74524641  1
  O  O50  1  0.84037891  0.52937102  0.74530374  1
  O  O51  1  0.68697947  0.51315466  0.24524641  1
  O  O52  1  0.82030770  0.30367968  0.24406609  1
  O  O53  1  0.47062898  0.15962109  0.24530374  1
  O  O54  1  0.64291657  0.50850517  0.92214341  1
  O  O55  1  0.85237795  0.35274649  0.92135681  1
  O  O56  1  0.49588931  0.14534266  0.92164815  1
  O  O57  1  0.64725351  0.14762205  0.42135681  1
  O  O58  1  0.49149483  0.35708343  0.42214341  1
  O  O59  1  0.85465734  0.50411069  0.42164815  1
  O  O60  1  0.36298632  0.51302630  0.07740009  1
  O  O61  1  0.15351134  0.64635453  0.07858041  1
  O  O62  1  0.50704491  0.86270502  0.07863774  1
  O  O63  1  0.35364547  0.84648866  0.57858041  1
  O  O64  1  0.48697370  0.63701368  0.57740009  1
  O  O65  1  0.13729498  0.49295509  0.57863774  1
  O  O66  1  0.30958257  0.84183917  0.25547741  1
  O  O67  1  0.51904395  0.68608049  0.25469081  1
  O  O68  1  0.16255531  0.47867666  0.25498215  1
  O  O69  1  0.31391951  0.48095605  0.75469081  1
  O  O70  1  0.15816083  0.69041743  0.75547741  1
  O  O71  1  0.52132334  0.83744469  0.75498215  1
loop_
_geom_bond_atom_site_label_1
_geom_bond_atom_site_label_2
_geom_bond_distance
_geom_bond_site_symmetry_2
Na0 O52 2.384400 1_555
Na0 O53 2.529711 1_555
Na0 O67 2.556025 1_545
Na0 O66 2.612249 1_545
Na0 O16 2.663964 1_555
Na0 O31 2.709021 1_545
Na0 O2 2.916886 1_555
Na0 O9 2.943627 1_545
Na1 O53 2.458122 1_555
Na1 O51 2.505574 1_555
Na1 O67 2.540075 1_555
Na1 O68 2.562809 1_555
Na1 O17 2.577256 1_555
Na1 O32 2.835397 1_555
Na1 O10 2.925335 1_555
Na1 O0 2.967678 1_555
Na2 O51 2.429304 1_555
Na2 O68 2.507344 1_655
Na2 O52 2.556667 1_555
Na2 O66 2.586836 1_655
Na2 O15 2.617047 1_555
Na2 O30 2.705636 1_655
Na2 O1 2.888351 1_555
Na2 O11 2.993276 1_655
Na3 O50 2.458122 1_555
Na3 O49 2.505574 1_555
Na3 O69 2.540075 1_555
Na3 O71 2.562809 1_555
Na3 O14 2.577256 1_555
Na3 O35 2.835397 1_555
Na3 O6 2.925335 1_555
Na3 O4 2.967678 1_555
Na4 O48 2.384400 1_555
Na4 O50 2.529711 1_555
Na4 O69 2.556025 1_655
Na4 O70 2.612249 1_655
Na4 O12 2.663964 1_555
Na4 O33 2.709021 1_655
Na4 O5 2.916886 1_555
Na4 O7 2.943627 1_655
Na5 O49 2.429304 1_555
Na5 O71 2.507344 1_545
Na5 O48 2.556667 1_555
Na5 O70 2.586836 1_545
Na5 O13 2.617047 1_555
Na5 O34 2.705636 1_545
Na5 O3 2.888351 1_555
Na5 O8 2.993276 1_545
Na6 O64 2.384405 1_555
Na6 O65 2.529726 1_555
Na6 O43 2.556025 1_555
Na6 O42 2.612249 1_455
Na6 O28 2.663949 1_555
Na6 O7 2.709021 1_555
Na6 O14 2.916886 1_555
Na6 O21 2.943627 1_555
Na7 O65 2.458106 1_555
Na7 O63 2.505565 1_555
Na7 O43 2.540075 1_565
Na7 O44 2.562809 1_455
Na7 O29 2.577230 1_555
Na7 O8 2.835397 1_555
Na7 O22 2.925335 1_455
Na7 O12 2.967678 1_455
Na8 O63 2.429313 1_555
Na8 O44 2.507344 1_555
Na8 O64 2.556658 1_555
Na8 O42 2.586836 1_565
Na8 O27 2.617026 1_555
Na8 O6 2.705636 1_555
Na8 O13 2.888351 1_565
Na8 O23 2.993276 1_565
Na9 O62 2.458106 1_555
Na9 O61 2.505565 1_555
Na9 O45 2.540075 1_455
Na9 O47 2.562809 1_565
Na9 O26 2.577230 1_554
Na9 O11 2.835397 1_555
Na9 O18 2.925335 1_565
Na9 O16 2.967678 1_565
Na10 O60 2.384405 1_555
Na10 O62 2.529726 1_555
Na10 O45 2.556025 1_555
Na10 O46 2.612249 1_565
Na10 O24 2.663949 1_554
Na10 O9 2.709021 1_555
Na10 O17 2.916886 1_555
Na10 O19 2.943627 1_555
Na11 O61 2.429313 1_555
Na11 O47 2.507344 1_555
Na11 O60 2.556658 1_555
Na11 O46 2.586836 1_455
Na11 O25 2.617026 1_554
Na11 O10 2.705636 1_555
Na11 O15 2.888351 1_455
Na11 O20 2.993276 1_455
Na12 O40 2.384400 1_655
Na12 O41 2.529711 1_555
Na12 O55 2.556034 1_555
Na12 O54 2.612240 1_555
Na12 O4 2.663964 1_555
Na12 O19 2.709001 1_556
Na12 O26 2.916886 1_655
Na12 O33 2.943627 1_655
Na13 O41 2.458122 1_545
Na13 O39 2.505574 1_655
Na13 O55 2.540065 1_555
Na13 O56 2.562792 1_555
Na13 O5 2.577256 1_555
Na13 O20 2.835371 1_556
Na13 O34 2.925335 1_545
Na13 O24 2.967678 1_545
Na14 O39 2.429304 1_555
Na14 O56 2.507359 1_555
Na14 O40 2.556667 1_545
Na14 O54 2.586840 1_555
Na14 O3 2.617047 1_555
Na14 O18 2.705622 1_556
Na14 O25 2.888351 1_555
Na14 O35 2.993276 1_555
Na15 O38 2.458122 1_655
Na15 O37 2.505574 1_545
Na15 O57 2.540065 1_555
Na15 O59 2.562792 1_555
Na15 O2 2.577256 1_555
Na15 O23 2.835371 1_555
Na15 O30 2.925335 1_655
Na15 O28 2.967678 1_655
Na16 O36 2.384400 1_545
Na16 O38 2.529711 1_555
Na16 O57 2.556034 1_555
Na16 O58 2.612240 1_555
Na16 O0 2.663964 1_555
Na16 O21 2.709001 1_555
Na16 O29 2.916886 1_545
Na16 O31 2.943627 1_545
Na17 O37 2.429304 1_555
Na17 O59 2.507359 1_555
Na17 O36 2.556667 1_655
Na17 O58 2.586840 1_555
Na17 O1 2.617047 1_555
Na17 O22 2.705622 1_555
Na17 O27 2.888351 1_555
Na17 O32 2.993276 1_555
Na18 O37 2.436996 1_555
Na18 O36 2.448183 1_655
Na18 O38 2.567887 1_665
Na18 O43 2.589558 1_665
Na18 O44 2.612257 1_555
Na18 O42 2.724895 1_565
Na19 O39 2.436996 1_555
Na19 O40 2.448183 1_545
Na19 O41 2.567887 1_445
Na19 O45 2.589558 1_446
Na19 O47 2.612257 1_556
Na19 O46 2.724895 1_456
Na20 O49 2.436996 1_555
Na20 O48 2.448183 1_555
Na20 O50 2.567887 1_555
Na20 O55 2.589558 1_555
Na20 O56 2.612257 1_555
Na20 O54 2.724895 1_555
Na21 O51 2.436996 1_555
Na21 O52 2.448183 1_555
Na21 O53 2.567887 1_555
Na21 O57 2.589558 1_555
Na21 O59 2.612257 1_555
Na21 O58 2.724895 1_555
Na22 O61 2.436996 1_555
Na22 O60 2.448183 1_555
Na22 O62 2.567887 1_555
Na22 O67 2.589558 1_555
Na22 O68 2.612257 1_555
Na22 O66 2.724895 1_555
Na23 O63 2.436996 1_555
Na23 O64 2.448183 1_555
Na23 O65 2.567887 1_555
Na23 O69 2.589558 1_555
Na23 O71 2.612257 1_555
Na23 O70 2.724895 1_555
Ga0 O1 1.907491 1_555
Ga0 O2 1.940475 1_565
Ga0 O37 2.010500 1_555
Ga0 O36 2.040480 1_655
Ga0 O0 2.127817 1_665
Ga0 O38 2.298608 1_665
Ga1 O3 1.907491 1_555
Ga1 O5 1.940475 1_455
Ga1 O39 2.010500 1_555
Ga1 O40 2.040480 1_545
Ga1 O4 2.127817 1_445
Ga1 O41 2.298608 1_445
Ga2 O13 1.907491 1_555
Ga2 O14 1.940475 1_555
Ga2 O49 2.010500 1_555
Ga2 O48 2.040480 1_555
Ga2 O12 2.127817 1_555
Ga2 O50 2.298608 1_555
Ga3 O15 1.907491 1_555
Ga3 O17 1.940475 1_555
Ga3 O51 2.010500 1_555
Ga3 O52 2.040480 1_555
Ga3 O16 2.127817 1_555
Ga3 O53 2.298608 1_555
Ga4 O25 1.907491 1_554
Ga4 O26 1.940475 1_554
Ga4 O61 2.010500 1_555
Ga4 O60 2.040480 1_555
Ga4 O24 2.127817 1_554
Ga4 O62 2.298608 1_555
Ga5 O27 1.907491 1_555
Ga5 O29 1.940475 1_555
Ga5 O63 2.010500 1_555
Ga5 O64 2.040480 1_555
Ga5 O28 2.127817 1_555
Ga5 O65 2.298608 1_555
O0 P0 1.548331 1_555
O1 Si0 1.634198 1_555
O2 Si1 1.640110 1_555
O3 Si2 1.634197 1_555
O4 P1 1.548331 1_555
O5 Si3 1.640110 1_555
O6 Si3 1.643062 1_565
O6 Zr0 2.024286 1_555
O7 Si2 1.642449 1_555
O7 Zr0 2.039649 1_445
O8 P1 1.557260 1_455
O8 Zr0 2.076109 1_455
O9 Si0 1.642449 1_555
O9 Zr1 2.039649 1_665
O10 Si1 1.643062 1_455
O10 Zr1 2.024286 1_555
O11 P0 1.557260 1_565
O11 Zr1 2.076109 1_565
O12 P2 1.548331 1_555
O13 Si4 1.634198 1_555
O14 Si5 1.640110 1_555
O15 Si6 1.634197 1_555
O16 P3 1.548331 1_555
O17 Si7 1.640110 1_555
O18 Si7 1.643062 1_555
O18 Zr2 2.024286 1_554
O19 Si6 1.642449 1_555
O19 Zr2 2.039649 1_554
O20 P3 1.557260 1_555
O20 Zr2 2.076109 1_554
O21 Si4 1.642449 1_555
O21 Zr3 2.039649 1_555
O22 Si5 1.643062 1_555
O22 Zr3 2.024286 1_555
O23 P2 1.557260 1_555
O23 Zr3 2.076109 1_555
O24 P4 1.548331 1_555
O25 Si8 1.634198 1_555
O26 Si9 1.640110 1_555
O27 Si10 1.634197 1_555
O28 P5 1.548331 1_555
O29 Si11 1.640110 1_555
O30 Si11 1.643062 1_555
O30 Zr4 2.024286 1_555
O31 Si10 1.642449 1_555
O31 Zr4 2.039649 1_555
O32 P5 1.557260 1_555
O32 Zr4 2.076109 1_555
O33 Si8 1.642449 1_555
O33 Zr5 2.039649 1_555
O34 Si9 1.643062 1_555
O34 Zr5 2.024286 1_555
O35 P4 1.557260 1_555
O35 Zr5 2.076109 1_555
O36 Si11 1.645031 1_555
O37 Si10 1.639222 1_555
O38 P5 1.531465 1_555
O39 Si8 1.639222 1_555
O40 Si9 1.645031 1_555
O41 P4 1.531465 1_555
O42 P2 1.560949 1_555
O42 Zr0 2.149601 1_545
O43 Si4 1.647809 1_555
O43 Zr0 2.120744 1_445
O44 Si5 1.652555 1_555
O44 Zr0 2.125711 1_555
O45 Si6 1.647809 1_555
O45 Zr1 2.120744 1_665
O46 P3 1.560949 1_555
O46 Zr1 2.149601 1_655
O47 Si7 1.652555 1_555
O47 Zr1 2.125711 1_555
O48 Si3 1.645031 1_555
O49 Si2 1.639222 1_555
O50 P1 1.531465 1_555
O51 Si0 1.639222 1_555
O52 Si1 1.645031 1_555
O53 P0 1.531465 1_555
O54 P4 1.560962 1_555
O54 Zr2 2.149601 1_555
O55 Si8 1.647794 1_655
O55 Zr2 2.120744 1_555
O56 Si9 1.652553 1_545
O56 Zr2 2.125711 1_555
O57 Si10 1.647794 1_545
O57 Zr3 2.120744 1_555
O58 P5 1.560962 1_555
O58 Zr3 2.149601 1_555
O59 Si11 1.652553 1_655
O59 Zr3 2.125711 1_555
O60 Si7 1.645043 1_555
O61 Si6 1.639208 1_455
O62 P3 1.531461 1_565
O63 Si4 1.639208 1_565
O64 Si5 1.645043 1_555
O65 P2 1.531461 1_455
O66 P0 1.560949 1_565
O66 Zr4 2.149601 1_555
O67 Si0 1.647809 1_555
O67 Zr4 2.120744 1_555
O68 Si1 1.652555 1_455
O68 Zr4 2.125711 1_555
O69 Si2 1.647809 1_555
O69 Zr5 2.120744 1_555
O70 P1 1.560949 1_455
O70 Zr5 2.149601 1_555
O71 Si3 1.652555 1_565
O71 Zr5 2.125711 1_555
