# generated using pymatgen
data_Na8CaSi5Sn3SO24
_symmetry_space_group_name_H-M   'P 1'
_cell_length_a   9.28235301
_cell_length_b   9.28615654
_cell_length_c   22.53691921
_cell_angle_alpha   90.90236695
_cell_angle_beta   89.63712383
_cell_angle_gamma   120.08404269
_symmetry_Int_Tables_number   1
_chemical_formula_structural   Na8CaSi5Sn3SO24
_chemical_formula_sum   'Na24 Ca3 Si15 Sn9 S3 O72'
_cell_volume   1680.72351561
_cell_formula_units_Z   3
loop_
 _symmetry_equiv_pos_site_id
 _symmetry_equiv_pos_as_xyz
  1  'x, y, z'
loop_
 _atom_site_type_symbol
 _atom_site_label
 _atom_site_symmetry_multiplicity
 _atom_site_fract_x
 _atom_site_fract_y
 _atom_site_fract_z
 _atom_site_occupancy
  Na  Na0  1  0.65120862  0.02514148  0.24523118  1
  Na  Na1  1  0.35860947  0.36305063  0.23785468  1
  Na  Na2  1  0.99468348  0.61814694  0.24165895  1
  Na  Na3  1  0.62943594  0.61314966  0.74847564  1
  Na  Na4  1  0.98518933  0.36589710  0.75683960  1
  Na  Na5  1  0.38742098  0.01259050  0.74844849  1
  Na  Na6  1  0.32102669  0.33602838  0.59298831  1
  Na  Na7  1  0.02837984  0.70367029  0.58278269  1
  Na  Na8  1  0.65533881  0.96589223  0.59668355  1
  Na  Na9  1  0.31297130  0.97384195  0.07416082  1
  Na  Na10  1  0.66183022  0.69023945  0.07301798  1
  Na  Na11  1  0.02927781  0.34622647  0.07597256  1
  Na  Na12  1  0.96363904  0.66507542  0.91267809  1
  Na  Na13  1  0.69985353  0.03581349  0.91235572  1
  Na  Na14  1  0.33635193  0.29878670  0.91315950  1
  Na  Na15  1  0.96345493  0.28157705  0.41096060  1
  Na  Na16  1  0.31708724  0.03071163  0.42301622  1
  Na  Na17  1  0.71362215  0.68297615  0.42339627  1
  Na  Na18  1  0.00085680  0.99479956  0.49693361  1
  Na  Na19  1  0.00079728  0.00199195  0.99543855  1
  Na  Na20  1  0.66564216  0.33294576  0.82702610  1
  Na  Na21  1  0.68714985  0.33257789  0.33643595  1
  Na  Na22  1  0.32711362  0.66036349  0.15595515  1
  Na  Na23  1  0.34624533  0.67793127  0.67388718  1
  Ca  Ca0  1  0.00133370  0.00250164  0.35480656  1
  Ca  Ca1  1  0.65959285  0.33139937  0.68578689  1
  Ca  Ca2  1  0.67111769  0.33413940  0.17412109  1
  Si  Si0  1  0.00680934  0.30831857  0.25397993  1
  Si  Si1  1  0.28250132  0.29182242  0.75254850  1
  Si  Si2  1  0.01108767  0.70753597  0.75317357  1
  Si  Si3  1  0.70742328  0.99166979  0.75285487  1
  Si  Si4  1  0.36207515  0.02819388  0.58289514  1
  Si  Si5  1  0.66596283  0.63876938  0.58363754  1
  Si  Si6  1  0.97315400  0.64049699  0.08548363  1
  Si  Si7  1  0.66206932  0.02928417  0.08394222  1
  Si  Si8  1  0.36757352  0.33980744  0.08364433  1
  Si  Si9  1  0.62832219  0.66375575  0.91613926  1
  Si  Si10  1  0.03729842  0.37221593  0.91633491  1
  Si  Si11  1  0.33620864  0.96361090  0.91684433  1
  Si  Si12  1  0.61915349  0.96322589  0.41674181  1
  Si  Si13  1  0.34209925  0.37761932  0.41869264  1
  Si  Si14  1  0.03026475  0.65188114  0.41989447  1
  Sn  Sn0  1  0.99921324  0.99765350  0.85401389  1
  Sn  Sn1  1  0.00137538  0.98556154  0.65312898  1
  Sn  Sn2  1  0.00433821  0.01828626  0.14267139  1
  Sn  Sn3  1  0.66987160  0.33676302  0.98269211  1
  Sn  Sn4  1  0.65582459  0.33436292  0.48106375  1
  Sn  Sn5  1  0.33308469  0.66786034  0.01376430  1
  Sn  Sn6  1  0.33860206  0.67302225  0.51632815  1
  Sn  Sn7  1  0.32315454  0.65442320  0.32191263  1
  Sn  Sn8  1  0.33578661  0.66582802  0.81512853  1
  S  S0  1  0.29643868  0.99154734  0.24989310  1
  S  S1  1  0.69517922  0.70532686  0.24988463  1
  S  S2  1  0.96602961  0.33231500  0.58028863  1
  O  O0  1  0.21367311  0.99775024  0.30461100  1
  O  O1  1  0.79166524  0.78204063  0.30403356  1
  O  O2  1  0.98937585  0.20543443  0.31216184  1
  O  O3  1  0.19465205  0.17981601  0.81126603  1
  O  O4  1  0.98068876  0.79709620  0.81123590  1
  O  O5  1  0.81828925  0.01629203  0.81227046  1
  O  O6  1  0.79381835  0.96734566  0.69078404  1
  O  O7  1  0.17021257  0.20624294  0.69060925  1
  O  O8  1  0.03995435  0.81404725  0.69092343  1
  O  O9  1  0.78350376  0.80442976  0.19571361  1
  O  O10  1  0.03769945  0.21635822  0.19261774  1
  O  O11  1  0.19292426  0.97414281  0.19589874  1
  O  O12  1  0.89072860  0.35602922  0.63393861  1
  O  O13  1  0.48175979  0.09610435  0.63937755  1
  O  O14  1  0.62729244  0.52724111  0.64115360  1
  O  O15  1  0.91378597  0.53874179  0.14598491  1
  O  O16  1  0.62443163  0.08704206  0.14675154  1
  O  O17  1  0.46237183  0.37331047  0.14596614  1
  O  O18  1  0.46416147  0.30498115  0.02850510  1
  O  O19  1  0.84121390  0.55071408  0.02950162  1
  O  O20  1  0.70211967  0.16251344  0.02968846  1
  O  O21  1  0.44912751  0.15027971  0.52367811  1
  O  O22  1  0.70707795  0.55277512  0.52454288  1
  O  O23  1  0.86297449  0.31288596  0.52622184  1
  O  O24  1  0.54566436  0.69876515  0.97501632  1
  O  O25  1  0.15322112  0.45384735  0.97550803  1
  O  O26  1  0.29876654  0.84642573  0.97505306  1
  O  O27  1  0.53350298  0.85074962  0.47488571  1
  O  O28  1  0.30984710  0.46719488  0.47610107  1
  O  O29  1  0.14728642  0.67738281  0.47702856  1
  O  O30  1  0.11029452  0.62306385  0.35715917  1
  O  O31  1  0.49953850  0.87644452  0.35591930  1
  O  O32  1  0.37698716  0.49156335  0.35796983  1
  O  O33  1  0.12060279  0.49321641  0.85899530  1
  O  O34  1  0.37590985  0.87956963  0.85910441  1
  O  O35  1  0.50758012  0.62461760  0.85813557  1
  O  O36  1  0.00574367  0.81184528  0.41863772  1
  O  O37  1  0.80188984  0.98417321  0.41532761  1
  O  O38  1  0.18699508  0.19016779  0.41860786  1
  O  O39  1  0.01529572  0.18422616  0.91374755  1
  O  O40  1  0.16975039  0.98540494  0.91382503  1
  O  O41  1  0.81577807  0.83163691  0.91401056  1
  O  O42  1  0.98121714  0.18004642  0.58144580  1
  O  O43  1  0.17922348  0.02291813  0.58692955  1
  O  O44  1  0.83618706  0.82825257  0.58622500  1
  O  O45  1  0.98928227  0.82834463  0.09112827  1
  O  O46  1  0.83212911  0.01019619  0.08534091  1
  O  O47  1  0.18176685  0.16481212  0.08327406  1
  O  O48  1  0.68607390  0.15346161  0.75094439  1
  O  O49  1  0.46639485  0.31420961  0.75147865  1
  O  O50  1  0.85135307  0.52276985  0.75058472  1
  O  O51  1  0.66537969  0.53366959  0.24576060  1
  O  O52  1  0.84456476  0.33076856  0.24924803  1
  O  O53  1  0.46186808  0.14409116  0.24739627  1
  O  O54  1  0.64707408  0.49647541  0.92190683  1
  O  O55  1  0.85181376  0.35587102  0.92255042  1
  O  O56  1  0.50486411  0.14948266  0.92321379  1
  O  O57  1  0.62954900  0.14642960  0.42101488  1
  O  O58  1  0.51847576  0.37462207  0.42026431  1
  O  O59  1  0.85132321  0.47472914  0.42325810  1
  O  O60  1  0.33907440  0.49909277  0.07402941  1
  O  O61  1  0.15976785  0.66619905  0.07406517  1
  O  O62  1  0.50103389  0.84233577  0.07330217  1
  O  O63  1  0.32124725  0.83236824  0.57602531  1
  O  O64  1  0.49874585  0.66123659  0.57702402  1
  O  O65  1  0.13697144  0.48252421  0.57662208  1
  O  O66  1  0.31334051  0.83792196  0.24868220  1
  O  O67  1  0.53105534  0.70372896  0.25104915  1
  O  O68  1  0.18797886  0.49615028  0.25259685  1
  O  O69  1  0.28952267  0.47385281  0.75423584  1
  O  O70  1  0.18809011  0.70586514  0.75582468  1
  O  O71  1  0.52634298  0.81504040  0.75446074  1
loop_
_geom_bond_atom_site_label_1
_geom_bond_atom_site_label_2
_geom_bond_distance
_geom_bond_site_symmetry_2
Na0 O16 2.347011 1_555
Na0 O52 2.484255 1_555
Na0 O53 2.500974 1_555
Na0 O67 2.615844 1_545
Na0 O66 2.720163 1_545
Na0 O31 2.868219 1_545
Na1 O17 2.261475 1_555
Na1 O68 2.467716 1_555
Na1 O51 2.474879 1_555
Na1 O53 2.658837 1_555
Na1 O67 2.749283 1_555
Na1 O10 2.773972 1_555
Na1 O32 2.912261 1_555
Na2 O15 2.274226 1_555
Na2 O52 2.318598 1_555
Na2 O68 2.572096 1_655
Na2 O66 2.623558 1_655
Na2 O51 2.749937 1_555
Na2 O30 2.812818 1_655
Na3 O49 2.407053 1_555
Na3 O71 2.497559 1_555
Na3 O14 2.531973 1_555
Na3 O50 2.585658 1_555
Na3 O35 2.734157 1_555
Na3 O69 2.748404 1_555
Na4 O50 2.346986 1_555
Na4 O48 2.474560 1_555
Na4 O69 2.479768 1_655
Na4 O33 2.596015 1_655
Na4 O70 2.748652 1_655
Na4 O12 2.896769 1_555
Na5 O48 2.400732 1_555
Na5 O70 2.508276 1_545
Na5 O49 2.514589 1_555
Na5 O13 2.600494 1_555
Na5 O71 2.725474 1_545
Na5 O34 2.778102 1_545
Na6 O43 2.521542 1_555
Na6 O7 2.570144 1_555
Na6 O64 2.646321 1_555
Na6 O65 2.694328 1_555
Na6 O14 2.707534 1_555
Na6 O42 2.744636 1_455
Na6 O28 2.943644 1_555
Na6 O21 2.962594 1_555
Na7 O63 2.363271 1_555
Na7 O43 2.566991 1_565
Na7 O44 2.567417 1_455
Na7 O8 2.610766 1_555
Na7 O29 2.678945 1_555
Na7 O65 2.705009 1_555
Na7 O22 2.895361 1_455
Na8 O64 2.481700 1_555
Na8 O6 2.483189 1_555
Na8 O44 2.577556 1_555
Na8 O13 2.623137 1_565
Na8 O42 2.683352 1_565
Na8 O63 2.741620 1_555
Na8 O27 2.948147 1_555
Na9 O61 2.471971 1_555
Na9 O26 2.484018 1_554
Na9 O62 2.583609 1_555
Na9 O47 2.611689 1_565
Na9 O45 2.632715 1_455
Na9 O18 2.870344 1_565
Na9 O11 2.955198 1_555
Na9 O16 3.016408 1_565
Na10 O24 2.483627 1_554
Na10 O62 2.517078 1_555
Na10 O46 2.583547 1_565
Na10 O60 2.606894 1_555
Na10 O45 2.672314 1_555
Na10 O19 2.741401 1_555
Na10 O9 2.965262 1_555
Na11 O60 2.488822 1_555
Na11 O25 2.516821 1_554
Na11 O61 2.587065 1_555
Na11 O47 2.696459 1_555
Na11 O46 2.724249 1_455
Na11 O20 2.830330 1_455
Na11 O10 2.927144 1_555
Na11 O15 2.940405 1_455
Na12 O55 2.529945 1_555
Na12 O41 2.530465 1_555
Na12 O54 2.553298 1_555
Na12 O4 2.577577 1_555
Na12 O40 2.608086 1_655
Na12 O19 2.862049 1_556
Na12 O33 2.895077 1_655
Na13 O56 2.520245 1_555
Na13 O39 2.535349 1_655
Na13 O5 2.546519 1_555
Na13 O55 2.579824 1_555
Na13 O41 2.608119 1_545
Na13 O34 2.864296 1_545
Na13 O20 2.873159 1_556
Na14 O40 2.519880 1_545
Na14 O54 2.532840 1_555
Na14 O56 2.570775 1_555
Na14 O3 2.593338 1_555
Na14 O39 2.614338 1_555
Na14 O18 2.852071 1_556
Na14 O35 2.913907 1_555
Na15 O2 2.372733 1_555
Na15 O37 2.395909 1_545
Na15 O59 2.495927 1_555
Na15 O38 2.613562 1_655
Na15 O57 2.707997 1_555
Na15 O23 2.814166 1_555
Na16 O38 2.336541 1_555
Na16 O57 2.538549 1_555
Na16 O21 2.544244 1_555
Na16 O36 2.569293 1_545
Na16 O58 2.777964 1_555
Na16 O0 2.801452 1_545
Na17 O36 2.354444 1_655
Na17 O37 2.498809 1_555
Na17 O58 2.506120 1_555
Na17 O22 2.583259 1_555
Na17 O59 2.802006 1_555
Na17 O1 2.827132 1_555
Na18 O36 2.446204 1_555
Na18 O38 2.512441 1_565
Na18 O44 2.543017 1_455
Na18 O43 2.552560 1_565
Na18 O37 2.580266 1_455
Na18 O42 2.612834 1_465
Na19 O41 2.458559 1_445
Na19 O40 2.462323 1_545
Na19 O39 2.477504 1_555
Na19 O47 2.535351 1_556
Na19 O46 2.576186 1_456
Na19 O45 2.682567 1_446
Na20 O48 2.444730 1_555
Na20 O49 2.461236 1_555
Na20 O50 2.461376 1_555
Na20 O54 2.657743 1_555
Na20 O55 2.707434 1_555
Na20 O56 2.712069 1_555
Na21 O59 2.415200 1_555
Na21 O52 2.446130 1_555
Na21 O57 2.464068 1_555
Na21 O58 2.593294 1_555
Na21 O53 2.781425 1_555
Na21 O51 2.864910 1_555
Na22 O60 2.396062 1_555
Na22 O61 2.438395 1_555
Na22 O62 2.501532 1_555
Na22 O68 2.613731 1_555
Na22 O66 2.683582 1_555
Na22 O67 2.756586 1_555
Na23 O71 2.354768 1_555
Na23 O70 2.442298 1_555
Na23 O69 2.498670 1_555
Na23 O64 2.638852 1_555
Na23 O63 2.722965 1_555
Na23 O65 2.875084 1_555
Ca0 O2 2.180666 1_455
Ca0 O37 2.230723 1_445
Ca0 O38 2.239652 1_555
Ca0 O0 2.285592 1_545
Ca0 O1 2.290900 1_445
Ca0 O36 2.315015 1_545
Ca1 O13 2.219665 1_555
Ca1 O14 2.239906 1_555
Ca1 O49 2.262784 1_555
Ca1 O50 2.288880 1_555
Ca1 O48 2.331360 1_555
Ca1 O12 2.346383 1_555
Ca2 O16 2.189817 1_555
Ca2 O15 2.194338 1_555
Ca2 O17 2.240287 1_555
Ca2 O52 2.355097 1_555
Ca2 O51 2.458923 1_555
Ca2 O53 2.495784 1_555
O0 S0 1.464371 1_555
O1 S1 1.464817 1_555
O2 Si0 1.593768 1_655
O3 Si1 1.636250 1_555
O3 Sn0 2.008316 1_445
O4 Si2 1.637042 1_655
O4 Sn0 2.012976 1_555
O5 Si3 1.635932 1_545
O5 Sn0 2.012943 1_545
O6 Si3 1.675847 1_555
O6 Sn1 2.029218 1_655
O7 Si1 1.679168 1_555
O7 Sn1 2.027717 1_545
O8 Si2 1.670786 1_555
O8 Sn1 2.002216 1_555
O9 S1 1.508593 1_555
O9 Sn2 2.353151 1_665
O10 Si0 1.710899 1_555
O10 Sn2 2.028361 1_555
O11 S0 1.510979 1_555
O11 Sn2 2.330847 1_565
O12 S2 1.460894 1_555
O13 Si4 1.594534 1_555
O14 Si5 1.595422 1_555
O15 Si6 1.601479 1_555
O16 Si7 1.603474 1_555
O17 Si8 1.603519 1_555
O18 Si8 1.648198 1_555
O18 Sn3 2.053988 1_554
O19 Si6 1.658189 1_555
O19 Sn3 2.092148 1_554
O20 Si7 1.656698 1_555
O20 Sn3 2.091237 1_554
O21 Si4 1.683714 1_555
O21 Sn4 2.065414 1_555
O22 Si5 1.680080 1_555
O22 Sn4 2.067869 1_555
O23 S2 1.505714 1_555
O23 Sn4 2.277825 1_555
O24 Si9 1.636658 1_555
O24 Sn5 2.038861 1_556
O25 Si10 1.636918 1_555
O25 Sn5 2.029334 1_556
O26 Si11 1.638881 1_555
O26 Sn5 2.047155 1_556
O27 Si12 1.624046 1_555
O27 Sn6 1.975576 1_555
O28 Si13 1.632891 1_555
O28 Sn6 1.995852 1_555
O29 Si14 1.626098 1_555
O29 Sn6 2.008211 1_555
O30 Si14 1.672285 1_555
O30 Sn7 2.007562 1_555
O31 Si12 1.687785 1_555
O31 Sn7 2.025013 1_555
O32 Si13 1.671445 1_555
O32 Sn7 1.999675 1_555
O33 Si10 1.640859 1_555
O33 Sn8 2.086009 1_555
O34 Si11 1.639653 1_555
O34 Sn8 2.064496 1_555
O35 Si9 1.640816 1_555
O35 Sn8 2.066845 1_555
O36 Si14 1.612313 1_555
O37 Si12 1.607716 1_555
O38 Si13 1.609441 1_555
O39 Si10 1.652904 1_555
O39 Sn0 2.122749 1_445
O40 Si11 1.657789 1_555
O40 Sn0 2.132637 1_455
O41 Si9 1.655945 1_555
O41 Sn0 2.123451 1_555
O42 S2 1.490293 1_555
O42 Sn1 2.518160 1_645
O43 Si4 1.675200 1_555
O43 Sn1 2.117185 1_545
O44 Si5 1.675338 1_555
O44 Sn1 2.114915 1_655
O45 Si6 1.677172 1_555
O45 Sn2 2.042151 1_665
O46 Si7 1.674984 1_555
O46 Sn2 2.032972 1_655
O47 Si8 1.674926 1_555
O47 Sn2 2.034356 1_555
O48 Si3 1.612156 1_545
O49 Si1 1.612886 1_555
O50 Si2 1.610339 1_655
O51 S1 1.476386 1_555
O52 Si0 1.624931 1_655
O53 S0 1.479337 1_545
O54 Si9 1.654671 1_555
O54 Sn3 2.122117 1_555
O55 Si10 1.656095 1_655
O55 Sn3 2.097376 1_555
O56 Si11 1.654295 1_545
O56 Sn3 2.109362 1_555
O57 Si12 1.656274 1_545
O57 Sn4 2.107051 1_555
O58 Si13 1.651928 1_555
O58 Sn4 2.039321 1_555
O59 Si14 1.653432 1_655
O59 Sn4 2.083614 1_555
O60 Si8 1.645577 1_555
O60 Sn5 2.111693 1_555
O61 Si6 1.644860 1_455
O61 Sn5 2.093655 1_555
O62 Si7 1.641809 1_565
O62 Sn5 2.069210 1_555
O63 Si4 1.665948 1_565
O63 Sn6 2.049171 1_555
O64 Si5 1.674375 1_555
O64 Sn6 2.070365 1_555
O65 S2 1.501095 1_455
O65 Sn6 2.280992 1_555
O66 S0 1.511165 1_555
O66 Sn7 2.425242 1_555
O67 S1 1.516136 1_555
O67 Sn7 2.362734 1_555
O68 Si0 1.712229 1_555
O68 Sn7 2.068471 1_555
O69 Si1 1.658487 1_555
O69 Sn8 2.099685 1_555
O70 Si2 1.652297 1_555
O70 Sn8 2.086615 1_555
O71 Si3 1.659520 1_555
O71 Sn8 2.118951 1_555
