# generated using pymatgen
data_HoAsS
_symmetry_space_group_name_H-M   'P 1'
_cell_length_a   3.81260700
_cell_length_b   3.82922700
_cell_length_c   8.48373700
_cell_angle_alpha   90.00000000
_cell_angle_beta   90.00000000
_cell_angle_gamma   90.00000000
_symmetry_Int_Tables_number   1
_chemical_formula_structural   HoAsS
_chemical_formula_sum   'Ho2 As2 S2'
_cell_volume   123.85694112
_cell_formula_units_Z   2
loop_
 _symmetry_equiv_pos_site_id
 _symmetry_equiv_pos_as_xyz
  1  'x, y, z'
loop_
 _atom_site_type_symbol
 _atom_site_label
 _atom_site_symmetry_multiplicity
 _atom_site_fract_x
 _atom_site_fract_y
 _atom_site_fract_z
 _atom_site_occupancy
  Ho  Ho0  1  0.25000000  0.25000000  0.70851000  1
  Ho  Ho1  1  0.75000000  0.75000000  0.29149000  1
  As  As0  1  0.75000000  0.25000000  0.00353000  1
  As  As1  1  0.25000000  0.75000000  0.99647000  1
  S  S0  1  0.25000000  0.25000000  0.37397000  1
  S  S1  1  0.75000000  0.75000000  0.62603000  1
loop_
_geom_bond_atom_site_label_1
_geom_bond_atom_site_label_2
_geom_bond_distance
_geom_bond_site_symmetry_2
Ho0 S1 2.790945 1_555
Ho0 S1 2.790945 1_545
Ho0 S1 2.790945 1_445
Ho0 S1 2.790945 1_455
Ho0 S0 2.838149 1_555
Ho1 S0 2.790945 1_565
Ho1 S0 2.790945 1_655
Ho1 S0 2.790945 1_665
Ho1 S0 2.790945 1_555
Ho1 S1 2.838149 1_555
As0 As1 2.702467 1_554
As0 As1 2.702467 1_644
As0 As1 2.702467 1_654
As0 As1 2.702467 1_544
As0 Ho1 3.103849 1_545
As0 Ho1 3.103849 1_555
As0 Ho0 3.146166 1_654
As0 Ho0 3.146166 1_554
As1 Ho0 3.103849 1_565
As1 Ho0 3.103849 1_555
As1 Ho1 3.146166 1_556
As1 Ho1 3.146166 1_456
