# generated using pymatgen
data_Na10Hf4Nb4Si11SO48
_symmetry_space_group_name_H-M   'P 1'
_cell_length_a   18.10525308
_cell_length_b   9.07076197
_cell_length_c   22.88670590
_cell_angle_alpha   90.05470969
_cell_angle_beta   89.96535181
_cell_angle_gamma   119.99566089
_symmetry_Int_Tables_number   1
_chemical_formula_structural   Na10Hf4Nb4Si11SO48
_chemical_formula_sum   'Na30 Hf12 Nb12 Si33 S3 O144'
_cell_volume   3255.22547475
_cell_formula_units_Z   3
loop_
 _symmetry_equiv_pos_site_id
 _symmetry_equiv_pos_as_xyz
  1  'x, y, z'
loop_
 _atom_site_type_symbol
 _atom_site_label
 _atom_site_symmetry_multiplicity
 _atom_site_fract_x
 _atom_site_fract_y
 _atom_site_fract_z
 _atom_site_occupancy
  Na  Na0  1  0.32115389  0.00011898  0.24980498  1
  Na  Na1  1  0.82101849  0.99987051  0.25019501  1
  Na  Na2  1  0.81894628  0.63670558  0.74957210  1
  Na  Na3  1  0.49829092  0.36323684  0.74942733  1
  Na  Na4  1  0.01664181  0.70077412  0.58390286  1
  Na  Na5  1  0.33320632  0.96864592  0.58475047  1
  Na  Na6  1  0.83285195  0.96534371  0.58327844  1
  Na  Na7  1  0.33250817  0.69707158  0.08473570  1
  Na  Na8  1  0.83273844  0.69736777  0.08526582  1
  Na  Na9  1  0.01678679  0.33371473  0.08461086  1
  Na  Na10  1  0.51467057  0.33116510  0.08469190  1
  Na  Na11  1  0.98507106  0.66471505  0.91497369  1
  Na  Na12  1  0.34946376  0.03283914  0.91612011  1
  Na  Na13  1  0.85118126  0.03431180  0.91622576  1
  Na  Na14  1  0.48383542  0.30300276  0.41513770  1
  Na  Na15  1  0.98412810  0.30324392  0.41475579  1
  Na  Na16  1  0.35001308  0.66725401  0.41528107  1
  Na  Na17  1  0.84955078  0.66770078  0.41528114  1
  Na  Na18  1  0.00680856  0.00689216  0.49934025  1
  Na  Na19  1  0.50650967  0.00093959  0.50057342  1
  Na  Na20  1  0.00771389  0.00767626  0.00047026  1
  Na  Na21  1  0.50529892  0.99854641  0.99955320  1
  Na  Na22  1  0.33186426  0.33914197  0.83361257  1
  Na  Na23  1  0.83207493  0.32846705  0.83194978  1
  Na  Na24  1  0.33444725  0.34033208  0.33142222  1
  Na  Na25  1  0.83435268  0.34036703  0.33110331  1
  Na  Na26  1  0.16436680  0.66020659  0.16831482  1
  Na  Na27  1  0.66397246  0.65969159  0.16914216  1
  Na  Na28  1  0.16751930  0.66689484  0.66982771  1
  Na  Na29  1  0.66374869  0.66719624  0.66494801  1
  Hf  Hf0  1  0.99641958  0.99634143  0.35396280  1
  Hf  Hf1  1  0.49652243  0.99686767  0.35395306  1
  Hf  Hf2  1  0.99837517  0.99824408  0.85393329  1
  Hf  Hf3  1  0.99914633  0.99485551  0.64605433  1
  Hf  Hf4  1  0.99845167  0.00317224  0.14603610  1
  Hf  Hf5  1  0.49753575  0.00277361  0.14599422  1
  Hf  Hf6  1  0.33494080  0.33422737  0.68507232  1
  Hf  Hf7  1  0.33861349  0.34621280  0.18527548  1
  Hf  Hf8  1  0.83860814  0.34665724  0.18555384  1
  Hf  Hf9  1  0.16524454  0.65353500  0.31456678  1
  Hf  Hf10  1  0.66533683  0.65346459  0.31466746  1
  Hf  Hf11  1  0.16820269  0.67566494  0.81431062  1
  Nb  Nb0  1  0.50067596  0.99884499  0.85359141  1
  Nb  Nb1  1  0.50058249  0.99781375  0.64631362  1
  Nb  Nb2  1  0.83466748  0.33117616  0.68779061  1
  Nb  Nb3  1  0.33295839  0.33965928  0.97951606  1
  Nb  Nb4  1  0.83062742  0.33218900  0.98035128  1
  Nb  Nb5  1  0.33160485  0.33047762  0.48131957  1
  Nb  Nb6  1  0.83024310  0.32704812  0.48022284  1
  Nb  Nb7  1  0.16747692  0.67021762  0.01897226  1
  Nb  Nb8  1  0.66541926  0.66981891  0.01945695  1
  Nb  Nb9  1  0.16696414  0.66284776  0.51968268  1
  Nb  Nb10  1  0.66271757  0.66230537  0.52035907  1
  Nb  Nb11  1  0.66574681  0.67137024  0.81280090  1
  Si  Si0  1  0.35259090  0.70387260  0.25012199  1
  Si  Si1  1  0.85263979  0.70446068  0.24999692  1
  Si  Si2  1  0.00053914  0.29543266  0.24996153  1
  Si  Si3  1  0.50056797  0.29571330  0.24995417  1
  Si  Si4  1  0.64455966  0.28634926  0.74997428  1
  Si  Si5  1  0.00241654  0.70755141  0.74955881  1
  Si  Si6  1  0.49832362  0.71080691  0.75037876  1
  Si  Si7  1  0.35328387  0.99628673  0.74978733  1
  Si  Si8  1  0.85462827  0.00253664  0.75009755  1
  Si  Si9  1  0.48007920  0.33496325  0.58365839  1
  Si  Si10  1  0.97905304  0.33392931  0.58307255  1
  Si  Si11  1  0.18761395  0.04390404  0.58360927  1
  Si  Si12  1  0.68726301  0.04411659  0.58416666  1
  Si  Si13  1  0.33342333  0.62186421  0.58373427  1
  Si  Si14  1  0.83037241  0.61795086  0.58353466  1
  Si  Si15  1  0.48024945  0.62739475  0.08241672  1
  Si  Si16  1  0.98080554  0.62735443  0.08183813  1
  Si  Si17  1  0.33029186  0.04402912  0.08352929  1
  Si  Si18  1  0.83033188  0.04261662  0.08419286  1
  Si  Si19  1  0.18789941  0.33054657  0.08311648  1
  Si  Si20  1  0.68717343  0.33077853  0.08352574  1
  Si  Si21  1  0.31134888  0.66398214  0.91557546  1
  Si  Si22  1  0.80914037  0.66168194  0.91619901  1
  Si  Si23  1  0.02284933  0.37620355  0.91685479  1
  Si  Si24  1  0.52224081  0.37755320  0.91646349  1
  Si  Si25  1  0.16747818  0.96148503  0.91715950  1
  Si  Si26  1  0.66475022  0.95656651  0.91664354  1
  Si  Si27  1  0.30907048  0.95825142  0.41564117  1
  Si  Si28  1  0.80840250  0.95532397  0.41635050  1
  Si  Si29  1  0.16703403  0.37176613  0.41740112  1
  Si  Si30  1  0.66664712  0.37333611  0.41788537  1
  Si  Si31  1  0.02253837  0.66940048  0.41754455  1
  Si  Si32  1  0.52219912  0.66952250  0.41670406  1
  S  S0  1  0.14521455  0.00003506  0.25006420  1
  S  S1  1  0.64532872  -0.00001493  0.24994468  1
  S  S2  1  0.14505985  0.28904355  0.74995414  1
  O  O0  1  0.10467036  0.02492446  0.30266265  1
  O  O1  1  0.60484626  0.02506904  0.30267418  1
  O  O2  1  0.41172854  0.79513828  0.30824264  1
  O  O3  1  0.91167922  0.79503240  0.30816900  1
  O  O4  1  0.48561457  0.17387000  0.30747420  1
  O  O5  1  0.98551926  0.17377820  0.30750672  1
  O  O6  1  0.10438277  0.18320545  0.80247066  1
  O  O7  1  0.59739323  0.16683332  0.80702099  1
  O  O8  1  0.48755793  0.80916033  0.80713300  1
  O  O9  1  0.98236582  0.79281441  0.80675500  1
  O  O10  1  0.41681084  0.03028515  0.80708325  1
  O  O11  1  0.91143493  0.03094556  0.80864524  1
  O  O12  1  0.40329964  0.97640167  0.69191645  1
  O  O13  1  0.89598120  0.96516055  0.69248286  1
  O  O14  1  0.09187126  0.20834862  0.69744501  1
  O  O15  1  0.58129260  0.19700369  0.69382242  1
  O  O16  1  0.01347157  0.82345859  0.69181998  1
  O  O17  1  0.51460444  0.83451409  0.69348807  1
  O  O18  1  0.39852309  0.82588623  0.19262846  1
  O  O19  1  0.89858389  0.82608895  0.19242456  1
  O  O20  1  0.01395519  0.20435765  0.19178316  1
  O  O21  1  0.51431822  0.20494324  0.19180841  1
  O  O22  1  0.09219217  0.97483458  0.19738985  1
  O  O23  1  0.59231989  0.97507966  0.19728620  1
  O  O24  1  0.43783923  0.36559880  0.64170066  1
  O  O25  1  0.93143948  0.36769082  0.63876957  1
  O  O26  1  0.25038491  0.12772127  0.63902688  1
  O  O27  1  0.75227110  0.13842494  0.63923364  1
  O  O28  1  0.31658670  0.50258254  0.63993350  1
  O  O29  1  0.81863986  0.50236170  0.64139496  1
  O  O30  1  0.43926731  0.50163125  0.13830698  1
  O  O31  1  0.93783747  0.50059866  0.13731215  1
  O  O32  1  0.31597777  0.12522789  0.14245745  1
  O  O33  1  0.81561204  0.12511508  0.14234958  1
  O  O34  1  0.25067120  0.37278469  0.13856730  1
  O  O35  1  0.75080371  0.37339244  0.13828394  1
  O  O36  1  0.23708117  0.30730530  0.02600370  1
  O  O37  1  0.73689554  0.30769043  0.02602088  1
  O  O38  1  0.41667685  0.53017305  0.02673763  1
  O  O39  1  0.91780795  0.53283562  0.02456006  1
  O  O40  1  0.34921257  0.16640516  0.02586258  1
  O  O41  1  0.84785409  0.16538481  0.02603946  1
  O  O42  1  0.23677824  0.16621465  0.52656460  1
  O  O43  1  0.73598282  0.16649228  0.52708476  1
  O  O44  1  0.34734141  0.53291225  0.52485411  1
  O  O45  1  0.84900492  0.53098976  0.52635004  1
  O  O46  1  0.41814554  0.30165848  0.52621185  1
  O  O47  1  0.91781788  0.30232868  0.52573090  1
  O  O48  1  0.26782325  0.69946231  0.97421424  1
  O  O49  1  0.76606998  0.69766437  0.97350136  1
  O  O50  1  0.08087701  0.46888054  0.97565740  1
  O  O51  1  0.58216910  0.47001094  0.97405202  1
  O  O52  1  0.15113629  0.83175472  0.97305045  1
  O  O53  1  0.65318434  0.83422603  0.97300952  1
  O  O54  1  0.26522388  0.83452399  0.47351164  1
  O  O55  1  0.76600308  0.83422689  0.47433369  1
  O  O56  1  0.15133119  0.47022362  0.47335271  1
  O  O57  1  0.65174391  0.47186728  0.47355115  1
  O  O58  1  0.08107502  0.69182043  0.47604680  1
  O  O59  1  0.58320616  0.69301034  0.47402946  1
  O  O60  1  0.06460831  0.62726002  0.36223873  1
  O  O61  1  0.56445508  0.62731466  0.36162410  1
  O  O62  1  0.25319169  0.87502141  0.35746859  1
  O  O63  1  0.75337615  0.87531556  0.35752173  1
  O  O64  1  0.18785422  0.49861080  0.36201493  1
  O  O65  1  0.68834943  0.49869452  0.36188866  1
  O  O66  1  0.06431395  0.50195967  0.86156923  1
  O  O67  1  0.56887722  0.49829857  0.85888059  1
  O  O68  1  0.18707726  0.87500710  0.86153756  1
  O  O69  1  0.68313886  0.86320068  0.86091977  1
  O  O70  1  0.25137256  0.63263725  0.85973876  1
  O  O71  1  0.75111942  0.63812709  0.85819614  1
  O  O72  1  0.00789955  0.83166851  0.41281863  1
  O  O73  1  0.50811708  0.83225615  0.41256237  1
  O  O74  1  0.40442534  0.97589489  0.41230939  1
  O  O75  1  0.90462880  0.97655325  0.41223112  1
  O  O76  1  0.08036037  0.19028999  0.41164919  1
  O  O77  1  0.58061953  0.19073002  0.41155966  1
  O  O78  1  0.00743027  0.18354030  0.91214627  1
  O  O79  1  0.50947091  0.18622082  0.90944131  1
  O  O80  1  0.08021850  0.96955076  0.91100971  1
  O  O81  1  0.58128401  0.97586906  0.90988417  1
  O  O82  1  0.40440980  0.84107335  0.90982835  1
  O  O83  1  0.90386292  0.83286657  0.91069649  1
  O  O84  1  0.48445960  0.15911736  0.58949692  1
  O  O85  1  0.98417409  0.16172411  0.59019749  1
  O  O86  1  0.09204981  0.01642444  0.58763153  1
  O  O87  1  0.59382530  0.02550917  0.59096317  1
  O  O88  1  0.41590407  0.81613060  0.58978159  1
  O  O89  1  0.91682500  0.80773492  0.58901047  1
  O  O90  1  0.48569326  0.81000611  0.08861575  1
  O  O91  1  0.98494938  0.80904553  0.08817524  1
  O  O92  1  0.41623837  0.02336529  0.08792358  1
  O  O93  1  0.91654196  0.02416836  0.08753994  1
  O  O94  1  0.09208686  0.16803381  0.08752156  1
  O  O95  1  0.59192765  0.16792397  0.08724739  1
  O  O96  1  0.35014907  0.17338856  0.74502872  1
  O  O97  1  0.84322585  0.16927181  0.74197961  1
  O  O98  1  0.23013203  0.30567534  0.74430590  1
  O  O99  1  0.74077733  0.31639619  0.74298061  1
  O  O100  1  0.41717498  0.51936752  0.74564447  1
  O  O101  1  0.91216135  0.52239575  0.74175268  1
  O  O102  1  0.34169494  0.51529589  0.24537877  1
  O  O103  1  0.84172067  0.51568696  0.24534918  1
  O  O104  1  0.40980008  0.29539460  0.24522069  1
  O  O105  1  0.90978948  0.29546687  0.24511970  1
  O  O106  1  0.23129685  0.15166400  0.24459433  1
  O  O107  1  0.73143417  0.15179213  0.24451867  1
  O  O108  1  0.32323769  0.49829287  0.92514657  1
  O  O109  1  0.82377990  0.49819513  0.92276212  1
  O  O110  1  0.42647868  0.35155904  0.92355641  1
  O  O111  1  0.92684273  0.35686401  0.92558250  1
  O  O112  1  0.25445192  0.14453008  0.92539877  1
  O  O113  1  0.75369224  0.13929881  0.92388648  1
  O  O114  1  0.32569696  0.15211880  0.42486348  1
  O  O115  1  0.82518732  0.15048134  0.42515188  1
  O  O116  1  0.25472551  0.36403320  0.42539032  1
  O  O117  1  0.75430445  0.36428444  0.42601734  1
  O  O118  1  0.42771582  0.49691806  0.42573201  1
  O  O119  1  0.92729403  0.49659197  0.42618645  1
  O  O120  1  0.17929282  0.50299502  0.07432585  1
  O  O121  1  0.67924688  0.50338691  0.07382700  1
  O  O122  1  0.07277474  0.63616231  0.07466608  1
  O  O123  1  0.57256827  0.63639448  0.07434904  1
  O  O124  1  0.24965162  0.84892636  0.07495109  1
  O  O125  1  0.74971408  0.84869743  0.07470327  1
  O  O126  1  0.17935681  0.85529380  0.57457222  1
  O  O127  1  0.68381663  0.86112885  0.57611027  1
  O  O128  1  0.25093999  0.65146766  0.57439557  1
  O  O129  1  0.74967275  0.64960483  0.57667307  1
  O  O130  1  0.07101419  0.50937257  0.57671378  1
  O  O131  1  0.57415605  0.50377973  0.57541774  1
  O  O132  1  0.15534174  0.84821911  0.25549127  1
  O  O133  1  0.65554475  0.84845674  0.25540592  1
  O  O134  1  0.26201135  0.70449031  0.25493999  1
  O  O135  1  0.76205587  0.70475440  0.25477274  1
  O  O136  1  0.08390287  0.48446021  0.25461503  1
  O  O137  1  0.58407417  0.48457429  0.25463795  1
  O  O138  1  0.15320725  0.45987893  0.75584191  1
  O  O139  1  0.65337556  0.47652167  0.75705520  1
  O  O140  1  0.08418564  0.68175779  0.75468894  1
  O  O141  1  0.58326901  0.68763272  0.75788493  1
  O  O142  1  0.26119957  0.82505663  0.75421019  1
  O  O143  1  0.76096175  0.82603859  0.75792473  1
loop_
_geom_bond_atom_site_label_1
_geom_bond_atom_site_label_2
_geom_bond_distance
_geom_bond_site_symmetry_2
Na0 O104 2.337265 1_555
Na0 O134 2.341085 1_545
Na0 O106 2.605225 1_555
Na0 O132 2.606117 1_545
Na0 O32 2.728477 1_555
Na0 O62 2.734757 1_545
Na0 O18 2.894775 1_545
Na0 O4 2.898383 1_555
Na1 O135 2.336581 1_555
Na1 O105 2.340396 1_565
Na1 O133 2.600368 1_555
Na1 O107 2.604230 1_565
Na1 O63 2.725469 1_555
Na1 O33 2.740292 1_565
Na1 O5 2.895257 1_565
Na1 O19 2.900402 1_555
Na2 O101 2.388385 1_555
Na2 O143 2.426927 1_555
Na2 O99 2.520982 1_555
Na2 O139 2.602213 1_555
Na2 O29 2.757207 1_555
Na2 O71 2.775016 1_555
Na2 O9 2.878218 1_555
Na2 O13 2.894700 1_555
Na3 O96 2.356124 1_555
Na3 O139 2.466930 1_555
Na3 O100 2.500012 1_555
Na3 O141 2.556496 1_555
Na3 O24 2.702576 1_555
Na3 O67 2.800327 1_555
Na3 O15 2.900204 1_555
Na3 O10 2.930725 1_555
Na4 O130 2.391352 1_555
Na4 O89 2.444109 1_455
Na4 O86 2.481986 1_565
Na4 O126 2.561293 1_555
Na4 O16 2.720368 1_555
Na4 O58 2.748038 1_555
Na4 O25 2.903384 1_455
Na4 O45 2.940407 1_455
Na5 O84 2.401121 1_565
Na5 O126 2.450930 1_555
Na5 O88 2.498107 1_555
Na5 O128 2.503298 1_555
Na5 O12 2.746861 1_555
Na5 O54 2.824404 1_555
Na5 O26 2.833968 1_565
Na5 O46 2.940224 1_565
Na6 O127 2.377245 1_555
Na6 O85 2.413415 1_565
Na6 O129 2.485997 1_555
Na6 O89 2.558592 1_555
Na6 O13 2.749254 1_555
Na6 O55 2.766777 1_555
Na6 O27 2.918466 1_565
Na6 O47 2.957743 1_565
Na7 O90 2.430782 1_555
Na7 O120 2.442982 1_555
Na7 O124 2.502993 1_555
Na7 O92 2.564556 1_565
Na7 O18 2.737334 1_555
Na7 O48 2.792730 1_554
Na7 O34 2.830679 1_555
Na7 O38 2.945594 1_555
Na8 O91 2.415357 1_555
Na8 O121 2.449135 1_555
Na8 O125 2.503277 1_555
Na8 O93 2.568029 1_565
Na8 O19 2.721326 1_555
Na8 O35 2.820417 1_555
Na8 O49 2.829651 1_554
Na8 O39 2.970134 1_555
Na9 O122 2.413727 1_555
Na9 O93 2.467231 1_455
Na9 O94 2.484064 1_555
Na9 O120 2.559778 1_555
Na9 O20 2.709418 1_555
Na9 O50 2.765410 1_554
Na9 O31 2.819112 1_455
Na9 O41 2.968966 1_455
Na10 O123 2.432989 1_555
Na10 O92 2.449863 1_555
Na10 O95 2.494724 1_555
Na10 O121 2.593542 1_555
Na10 O21 2.705367 1_555
Na10 O30 2.804531 1_555
Na10 O51 2.820465 1_554
Na10 O40 2.923171 1_555
Na11 O80 2.420564 1_655
Na11 O111 2.454706 1_555
Na11 O109 2.535848 1_555
Na11 O83 2.596251 1_555
Na11 O9 2.747632 1_555
Na11 O39 2.783868 1_556
Na11 O66 2.800723 1_655
Na11 O52 2.923770 1_655
Na12 O82 2.401181 1_545
Na12 O112 2.402572 1_555
Na12 O110 2.509982 1_555
Na12 O79 2.514232 1_555
Na12 O10 2.781953 1_555
Na12 O40 2.788530 1_556
Na12 O68 2.836636 1_545
Na12 O48 2.938227 1_545
Na13 O113 2.394382 1_555
Na13 O83 2.450860 1_545
Na13 O78 2.452543 1_655
Na13 O111 2.544484 1_555
Na13 O11 2.698736 1_555
Na13 O41 2.792750 1_556
Na13 O69 2.923531 1_545
Na13 O49 2.952613 1_545
Na14 O77 2.428657 1_555
Na14 O118 2.443556 1_555
Na14 O114 2.490381 1_555
Na14 O74 2.570882 1_545
Na14 O4 2.734370 1_555
Na14 O46 2.803381 1_555
Na14 O61 2.827696 1_555
Na14 O57 2.953024 1_555
Na15 O76 2.423854 1_655
Na15 O119 2.450788 1_555
Na15 O115 2.504091 1_555
Na15 O75 2.567386 1_545
Na15 O5 2.725562 1_555
Na15 O47 2.806897 1_555
Na15 O60 2.815781 1_655
Na15 O56 2.945057 1_655
Na16 O116 2.418901 1_555
Na16 O74 2.460805 1_555
Na16 O73 2.480759 1_555
Na16 O118 2.568681 1_555
Na16 O2 2.702143 1_555
Na16 O44 2.779015 1_555
Na16 O64 2.820655 1_555
Na16 O54 2.959288 1_555
Na17 O117 2.421601 1_555
Na17 O75 2.460652 1_555
Na17 O72 2.484175 1_655
Na17 O119 2.576438 1_555
Na17 O3 2.704057 1_555
Na17 O65 2.808669 1_555
Na17 O45 2.827258 1_555
Na17 O55 2.945268 1_555
Na18 O86 2.518437 1_555
Na18 O76 2.521267 1_555
Na18 O72 2.544234 1_545
Na18 O75 2.639540 1_445
Na18 O85 2.652030 1_455
Na18 O89 2.681369 1_445
Na19 O73 2.537305 1_545
Na19 O87 2.545435 1_555
Na19 O77 2.570634 1_555
Na19 O88 2.631076 1_545
Na19 O84 2.631744 1_555
Na19 O74 2.670617 1_545
Na20 O94 2.488993 1_555
Na20 O80 2.546411 1_544
Na20 O78 2.577859 1_554
Na20 O91 2.590113 1_445
Na20 O93 2.638280 1_455
Na20 O83 2.699730 1_444
Na21 O81 2.534821 1_555
Na21 O95 2.537155 1_566
Na21 O90 2.569915 1_556
Na21 O82 2.642706 1_555
Na21 O79 2.652356 1_565
Na21 O92 2.664470 1_566
Na22 O100 2.566985 1_555
Na22 O108 2.591594 1_555
Na22 O96 2.640359 1_555
Na22 O110 2.644905 1_555
Na22 O112 2.650125 1_555
Na22 O98 2.665836 1_555
Na23 O97 2.579002 1_555
Na23 O99 2.590970 1_555
Na23 O101 2.628921 1_555
Na23 O109 2.633863 1_555
Na23 O113 2.637068 1_555
Na23 O111 2.676566 1_555
Na24 O102 2.492256 1_555
Na24 O104 2.543791 1_555
Na24 O116 2.657136 1_555
Na24 O118 2.669869 1_555
Na24 O106 2.677288 1_555
Na24 O114 2.692459 1_555
Na25 O103 2.488422 1_555
Na25 O105 2.540720 1_555
Na25 O107 2.671325 1_555
Na25 O117 2.678796 1_555
Na25 O119 2.681336 1_555
Na25 O115 2.710754 1_555
Na26 O136 2.499044 1_555
Na26 O134 2.551468 1_555
Na26 O122 2.651995 1_555
Na26 O120 2.666940 1_555
Na26 O132 2.680976 1_555
Na26 O124 2.690833 1_555
Na27 O137 2.479818 1_555
Na27 O135 2.537392 1_555
Na27 O133 2.665953 1_555
Na27 O123 2.672803 1_555
Na27 O121 2.689009 1_555
Na27 O125 2.713428 1_555
Na28 O142 2.496065 1_555
Na28 O140 2.503206 1_555
Na28 O138 2.643575 1_555
Na28 O130 2.671781 1_555
Na28 O128 2.697760 1_555
Na28 O126 2.712832 1_555
Na29 O131 2.573159 1_555
Na29 O127 2.593702 1_555
Na29 O129 2.602130 1_555
Na29 O141 2.635774 1_555
Na29 O139 2.674351 1_555
Na29 O143 2.676744 1_555
Hf0 O3 1.995950 1_555
Hf0 O5 2.020140 1_565
Hf0 O75 2.066891 1_555
Hf0 O72 2.098434 1_655
Hf0 O76 2.114813 1_665
Hf0 O0 2.185559 1_665
Hf1 O2 1.997275 1_555
Hf1 O4 2.017150 1_565
Hf1 O74 2.069047 1_555
Hf1 O73 2.095335 1_555
Hf1 O77 2.114165 1_565
Hf1 O1 2.187548 1_565
Hf2 O11 2.027174 1_565
Hf2 O9 2.044176 1_555
Hf2 O83 2.073780 1_555
Hf2 O78 2.085040 1_665
Hf2 O80 2.087692 1_655
Hf2 O6 2.160353 1_665
Hf3 O16 1.997017 1_655
Hf3 O13 2.045863 1_555
Hf3 O89 2.067723 1_555
Hf3 O86 2.079454 1_665
Hf3 O85 2.100754 1_565
Hf3 O14 2.167796 1_665
Hf4 O20 1.997450 1_655
Hf4 O19 2.018313 1_545
Hf4 O93 2.076820 1_555
Hf4 O94 2.090454 1_655
Hf4 O91 2.116507 1_545
Hf4 O22 2.183370 1_645
Hf5 O21 1.998567 1_555
Hf5 O18 2.013003 1_545
Hf5 O92 2.060461 1_555
Hf5 O95 2.100898 1_555
Hf5 O90 2.109264 1_545
Hf5 O23 2.195486 1_545
Hf6 O24 2.001326 1_555
Hf6 O28 2.005136 1_555
Hf6 O26 2.023338 1_555
Hf6 O100 2.111122 1_555
Hf6 O96 2.119713 1_555
Hf6 O98 2.238729 1_555
Hf7 O30 1.973760 1_555
Hf7 O34 2.030338 1_555
Hf7 O102 2.039137 1_555
Hf7 O32 2.078860 1_555
Hf7 O104 2.086442 1_555
Hf7 O106 2.303378 1_555
Hf8 O31 1.971987 1_555
Hf8 O103 2.033839 1_555
Hf8 O35 2.035800 1_555
Hf8 O105 2.082466 1_555
Hf8 O33 2.085552 1_555
Hf8 O107 2.298415 1_555
Hf9 O64 1.974909 1_555
Hf9 O60 2.032472 1_555
Hf9 O136 2.035606 1_555
Hf9 O134 2.081835 1_555
Hf9 O62 2.082146 1_555
Hf9 O132 2.302199 1_555
Hf10 O65 1.975036 1_555
Hf10 O61 2.027855 1_555
Hf10 O137 2.035655 1_555
Hf10 O63 2.084032 1_555
Hf10 O135 2.084630 1_555
Hf10 O133 2.306033 1_555
Hf11 O68 1.983299 1_555
Hf11 O70 2.022641 1_555
Hf11 O66 2.056186 1_555
Hf11 O140 2.065344 1_555
Hf11 O142 2.069464 1_555
Hf11 O138 2.271489 1_555
Nb0 O8 1.932770 1_555
Nb0 O7 1.963967 1_565
Nb0 O10 1.988808 1_565
Nb0 O81 2.034732 1_555
Nb0 O82 2.061369 1_555
Nb0 O79 2.067238 1_565
Nb1 O17 1.950288 1_555
Nb1 O12 1.971150 1_555
Nb1 O15 1.985047 1_565
Nb1 O87 2.022822 1_565
Nb1 O88 2.052426 1_555
Nb1 O84 2.085199 1_565
Nb2 O25 1.963750 1_555
Nb2 O27 1.976806 1_555
Nb2 O97 1.987496 1_555
Nb2 O101 2.016691 1_555
Nb2 O29 2.019136 1_555
Nb2 O99 2.067117 1_555
Nb3 O36 1.928831 1_556
Nb3 O38 1.957353 1_556
Nb3 O108 1.976553 1_555
Nb3 O40 2.036535 1_556
Nb3 O112 2.041968 1_555
Nb3 O110 2.081774 1_555
Nb4 O37 1.908679 1_556
Nb4 O39 1.988378 1_556
Nb4 O41 1.988773 1_556
Nb4 O109 2.051987 1_555
Nb4 O113 2.057332 1_555
Nb4 O111 2.064927 1_555
Nb5 O42 1.919111 1_555
Nb5 O44 1.979754 1_555
Nb5 O46 1.997736 1_555
Nb5 O116 2.023632 1_555
Nb5 O114 2.030156 1_555
Nb5 O118 2.073659 1_555
Nb6 O43 1.923394 1_555
Nb6 O47 2.001747 1_555
Nb6 O117 2.002658 1_555
Nb6 O115 2.002942 1_555
Nb6 O45 2.005103 1_555
Nb6 O119 2.069098 1_555
Nb7 O52 1.943164 1_554
Nb7 O50 1.977813 1_554
Nb7 O48 1.984143 1_554
Nb7 O124 2.017314 1_555
Nb7 O122 2.031884 1_555
Nb7 O120 2.068803 1_555
Nb8 O53 1.933051 1_554
Nb8 O51 1.975709 1_554
Nb8 O123 1.996205 1_555
Nb8 O49 2.007186 1_554
Nb8 O125 2.020663 1_555
Nb8 O121 2.066891 1_555
Nb9 O56 1.938984 1_555
Nb9 O58 1.973725 1_555
Nb9 O54 1.984285 1_555
Nb9 O128 2.012401 1_555
Nb9 O130 2.059665 1_555
Nb9 O126 2.068876 1_555
Nb10 O59 1.917695 1_555
Nb10 O57 1.955672 1_555
Nb10 O131 1.980463 1_555
Nb10 O55 2.030609 1_555
Nb10 O127 2.081801 1_555
Nb10 O129 2.082555 1_555
Nb11 O69 1.946447 1_555
Nb11 O67 1.975015 1_555
Nb11 O71 2.007006 1_555
Nb11 O141 2.013500 1_555
Nb11 O143 2.024841 1_555
Nb11 O139 2.098078 1_555
O0 S0 1.484278 1_555
O1 S1 1.486778 1_555
O2 Si0 1.647574 1_555
O3 Si1 1.646711 1_555
O4 Si3 1.652568 1_555
O5 Si2 1.651817 1_655
O6 S2 1.484209 1_555
O7 Si4 1.638548 1_555
O8 Si6 1.640867 1_555
O9 Si5 1.649763 1_655
O10 Si7 1.668515 1_545
O11 Si8 1.629640 1_555
O12 Si7 1.663788 1_555
O13 Si8 1.632785 1_565
O14 S2 1.484012 1_555
O15 Si4 1.640745 1_555
O16 Si5 1.638168 1_555
O17 Si6 1.647104 1_555
O18 Si0 1.652000 1_555
O19 Si1 1.652014 1_555
O20 Si2 1.646980 1_555
O21 Si3 1.647203 1_555
O22 S0 1.486141 1_565
O23 S1 1.486164 1_565
O24 Si9 1.623971 1_555
O25 Si10 1.650372 1_555
O26 Si11 1.616863 1_555
O27 Si12 1.642701 1_555
O28 Si13 1.609456 1_555
O29 Si14 1.636352 1_555
O30 Si15 1.625862 1_555
O31 Si16 1.626762 1_555
O32 Si17 1.617745 1_555
O33 Si18 1.612356 1_555
O34 Si19 1.616925 1_555
O35 Si20 1.613314 1_555
O36 Si19 1.652778 1_555
O37 Si20 1.665213 1_555
O38 Si15 1.646540 1_555
O39 Si16 1.666246 1_555
O40 Si17 1.647259 1_555
O41 Si18 1.661696 1_555
O42 Si11 1.655792 1_555
O43 Si12 1.655096 1_555
O44 Si13 1.652660 1_555
O45 Si14 1.646950 1_555
O46 Si9 1.655158 1_555
O47 Si10 1.648306 1_555
O48 Si21 1.666482 1_555
O49 Si22 1.639201 1_555
O50 Si23 1.654724 1_555
O51 Si24 1.645462 1_555
O52 Si25 1.662176 1_555
O53 Si26 1.646078 1_555
O54 Si27 1.659732 1_555
O55 Si28 1.647833 1_555
O56 Si29 1.664176 1_555
O57 Si30 1.653248 1_555
O58 Si31 1.656197 1_555
O59 Si32 1.659113 1_555
O60 Si31 1.617860 1_555
O61 Si32 1.616100 1_555
O62 Si27 1.613099 1_555
O63 Si28 1.615193 1_555
O64 Si29 1.625208 1_555
O65 Si30 1.626427 1_555
O66 Si23 1.615907 1_555
O67 Si24 1.651086 1_555
O68 Si25 1.624077 1_555
O69 Si26 1.653452 1_555
O70 Si21 1.607901 1_555
O71 Si22 1.639554 1_555
O72 Si31 1.624443 1_555
O73 Si32 1.621577 1_555
O74 Si27 1.653956 1_555
O75 Si28 1.656994 1_555
O76 Si29 1.614496 1_555
O77 Si30 1.615788 1_555
O78 Si23 1.629580 1_555
O79 Si24 1.640017 1_555
O80 Si25 1.623877 1_555
O81 Si26 1.613423 1_555
O82 Si21 1.652419 1_555
O83 Si22 1.644871 1_555
O84 Si9 1.641723 1_555
O85 Si10 1.618779 1_555
O86 Si11 1.622614 1_555
O87 Si12 1.621362 1_555
O88 Si13 1.650156 1_555
O89 Si14 1.653737 1_555
O90 Si15 1.615523 1_555
O91 Si16 1.618254 1_555
O92 Si17 1.660872 1_555
O93 Si18 1.652715 1_555
O94 Si19 1.623467 1_555
O95 Si20 1.617454 1_555
O96 Si7 1.639288 1_545
O97 Si8 1.636248 1_555
O98 S2 1.476249 1_555
O99 Si4 1.630840 1_555
O100 Si6 1.623159 1_555
O101 Si5 1.666909 1_655
O102 Si0 1.624469 1_555
O103 Si1 1.625930 1_555
O104 Si3 1.645568 1_555
O105 Si2 1.647000 1_655
O106 S0 1.480943 1_555
O107 S1 1.481756 1_555
O108 Si21 1.636232 1_555
O109 Si22 1.638730 1_555
O110 Si24 1.636759 1_555
O111 Si23 1.669388 1_655
O112 Si25 1.630196 1_545
O113 Si26 1.642861 1_545
O114 Si27 1.642453 1_545
O115 Si28 1.651705 1_545
O116 Si29 1.634257 1_555
O117 Si30 1.640369 1_555
O118 Si32 1.656059 1_555
O119 Si31 1.663526 1_655
O120 Si19 1.660107 1_555
O121 Si20 1.657293 1_555
O122 Si16 1.634824 1_455
O123 Si15 1.642482 1_555
O124 Si17 1.648733 1_565
O125 Si18 1.644455 1_565
O126 Si11 1.654003 1_565
O127 Si12 1.639764 1_565
O128 Si13 1.658141 1_555
O129 Si14 1.631473 1_555
O130 Si10 1.636076 1_455
O131 Si9 1.635202 1_555
O132 S0 1.482643 1_565
O133 S1 1.481072 1_565
O134 Si0 1.646404 1_555
O135 Si1 1.644948 1_555
O136 Si2 1.625299 1_555
O137 Si3 1.625491 1_555
O138 S2 1.487371 1_555
O139 Si4 1.658792 1_555
O140 Si5 1.614576 1_555
O141 Si6 1.662122 1_555
O142 Si7 1.616531 1_555
O143 Si8 1.660316 1_565
