# generated using pymatgen
data_NaLaInP(SO6)2
_symmetry_space_group_name_H-M   'P 1'
_cell_length_a   9.14655255
_cell_length_b   9.14983518
_cell_length_c   24.38617534
_cell_angle_alpha   90.06978058
_cell_angle_beta   89.76977371
_cell_angle_gamma   119.98204218
_symmetry_Int_Tables_number   1
_chemical_formula_structural   NaLaInP(SO6)2
_chemical_formula_sum   'Na6 La6 In6 P6 S12 O72'
_cell_volume   1767.74615538
_cell_formula_units_Z   6
loop_
 _symmetry_equiv_pos_site_id
 _symmetry_equiv_pos_as_xyz
  1  'x, y, z'
loop_
 _atom_site_type_symbol
 _atom_site_label
 _atom_site_symmetry_multiplicity
 _atom_site_fract_x
 _atom_site_fract_y
 _atom_site_fract_z
 _atom_site_occupancy
  Na  Na0  1  0.98213743  0.98821057  0.49903306  1
  Na  Na1  1  0.00844223  0.98531760  0.99910281  1
  Na  Na2  1  0.65671177  0.30911873  0.82878558  1
  Na  Na3  1  0.65288385  0.31176736  0.33636961  1
  Na  Na4  1  0.31804782  0.67309990  0.16302883  1
  Na  Na5  1  0.35292118  0.67294686  0.66232004  1
  La  La0  1  0.99730289  0.00028299  0.84895692  1
  La  La1  1  0.00725161  0.99202696  0.14829882  1
  La  La2  1  0.66487676  0.33173189  0.18460157  1
  La  La3  1  0.66655832  0.33094108  0.98221505  1
  La  La4  1  0.33935007  0.68336345  0.32167035  1
  La  La5  1  0.34294088  0.68288250  0.80931490  1
  In  In0  1  0.00036907  0.00083247  0.35461853  1
  In  In1  1  0.98572610  0.98999448  0.64525757  1
  In  In2  1  0.66669618  0.33206550  0.67775403  1
  In  In3  1  0.66735423  0.33233291  0.48734200  1
  In  In4  1  0.32354327  0.67373848  0.01563034  1
  In  In5  1  0.35503805  0.67359377  0.51683840  1
  P  P0  1  0.29551859  0.00640141  0.25613901  1
  P  P1  1  0.71034936  0.01727235  0.74215455  1
  P  P2  1  0.66608971  0.62260009  0.58264178  1
  P  P3  1  0.98028817  0.63348098  0.08112954  1
  P  P4  1  0.32774727  0.96114614  0.91833048  1
  P  P5  1  0.64506646  0.97892448  0.42131169  1
  S  S0  1  0.70761808  0.70469334  0.25500041  1
  S  S1  1  0.99877050  0.29210088  0.25446908  1
  S  S2  1  0.30024156  0.28908229  0.74147560  1
  S  S3  1  0.98701640  0.69551536  0.74234005  1
  S  S4  1  0.96805176  0.33698063  0.58204190  1
  S  S5  1  0.36750925  0.03450025  0.58311467  1
  S  S6  1  0.65465009  0.01383957  0.08146256  1
  S  S7  1  0.36219626  0.35081865  0.08060614  1
  S  S8  1  0.62382364  0.67125638  0.92024775  1
  S  S9  1  0.04746701  0.37439186  0.91829563  1
  S  S10  1  0.33381909  0.36244932  0.42089642  1
  S  S11  1  0.02915515  0.66544428  0.42278849  1
  O  O0  1  0.19859960  0.01393876  0.30755414  1
  O  O1  1  0.80551470  0.79599220  0.30395686  1
  O  O2  1  0.98562348  0.19086934  0.30364197  1
  O  O3  1  0.22779997  0.19802490  0.79413795  1
  O  O4  1  0.97023444  0.76956908  0.79468746  1
  O  O5  1  0.80372590  0.03454620  0.79683025  1
  O  O6  1  0.80237772  0.99587027  0.69258305  1
  O  O7  1  0.19359029  0.19685904  0.69426840  1
  O  O8  1  0.01143568  0.80630623  0.69514818  1
  O  O9  1  0.78472427  0.79689866  0.20344719  1
  O  O10  1  0.00691611  0.21085781  0.20293477  1
  O  O11  1  0.20354167  0.99648461  0.20209626  1
  O  O12  1  0.89124685  0.36269669  0.63246525  1
  O  O13  1  0.47269246  0.10964520  0.63276935  1
  O  O14  1  0.63994592  0.51623055  0.63500987  1
  O  O15  1  0.89015197  0.53453021  0.13397987  1
  O  O16  1  0.63606711  0.09587066  0.13146547  1
  O  O17  1  0.45773496  0.36382472  0.13108666  1
  O  O18  1  0.44462524  0.32544448  0.03193667  1
  O  O19  1  0.87608941  0.54295915  0.02998209  1
  O  O20  1  0.67206978  0.11562280  0.03215100  1
  O  O21  1  0.44509774  0.13863017  0.53349473  1
  O  O22  1  0.69028135  0.53985563  0.53088686  1
  O  O23  1  0.86011909  0.30599206  0.53337827  1
  O  O24  1  0.53258043  0.67461284  0.96976292  1
  O  O25  1  0.14225420  0.45915983  0.96828878  1
  O  O26  1  0.31965390  0.86315846  0.97078455  1
  O  O27  1  0.55893396  0.86084738  0.47144563  1
  O  O28  1  0.30579929  0.44603177  0.46931617  1
  O  O29  1  0.14085698  0.68823452  0.47011527  1
  O  O30  1  0.09690182  0.63684802  0.37130651  1
  O  O31  1  0.54090932  0.90782350  0.36879253  1
  O  O32  1  0.35934880  0.46089208  0.37036178  1
  O  O33  1  0.13389611  0.46582597  0.86751498  1
  O  O34  1  0.33724212  0.87180280  0.86553965  1
  O  O35  1  0.53291966  0.66115653  0.86898289  1
  O  O36  1  0.01499860  0.82171403  0.41781965  1
  O  O37  1  0.82341149  0.99450186  0.41432498  1
  O  O38  1  0.17985717  0.19129744  0.41633618  1
  O  O39  1  0.02718656  0.20281208  0.91855177  1
  O  O40  1  0.16665409  0.97699777  0.91747447  1
  O  O41  1  0.79261305  0.82686063  0.92021271  1
  O  O42  1  0.98916753  0.18511936  0.58776919  1
  O  O43  1  0.19740942  0.01892027  0.58986881  1
  O  O44  1  0.82671234  0.80265942  0.58705756  1
  O  O45  1  0.00265764  0.81303147  0.08114303  1
  O  O46  1  0.80770158  0.99818904  0.08410791  1
  O  O47  1  0.18889188  0.20251083  0.08304029  1
  O  O48  1  0.69316940  0.17885240  0.73743236  1
  O  O49  1  0.47219724  0.30755232  0.73763335  1
  O  O50  1  0.83118349  0.52741555  0.73773343  1
  O  O51  1  0.69667088  0.53743613  0.25398263  1
  O  O52  1  0.84550476  0.31004089  0.25397901  1
  O  O53  1  0.47265777  0.16680732  0.25524258  1
  O  O54  1  0.64577968  0.52061378  0.91999846  1
  O  O55  1  0.87745549  0.35908951  0.91802343  1
  O  O56  1  0.48792796  0.13879032  0.91761149  1
  O  O57  1  0.66430902  0.15684058  0.43013635  1
  O  O58  1  0.48624243  0.34444817  0.42796101  1
  O  O59  1  0.85707366  0.51558607  0.42957591  1
  O  O60  1  0.35499744  0.50792117  0.07588899  1
  O  O61  1  0.15634427  0.64595765  0.08001394  1
  O  O62  1  0.50212587  0.84460991  0.07813981  1
  O  O63  1  0.34724140  0.86196728  0.57663794  1
  O  O64  1  0.50447179  0.64163746  0.57787668  1
  O  O65  1  0.13752878  0.49186080  0.57496707  1
  O  O66  1  0.31233361  0.84585831  0.25644634  1
  O  O67  1  0.53465540  0.68139273  0.25664492  1
  O  O68  1  0.15282812  0.46137197  0.25670106  1
  O  O69  1  0.31607980  0.45887815  0.74386393  1
  O  O70  1  0.13743635  0.67352775  0.74446021  1
  O  O71  1  0.53149165  0.85787072  0.74365414  1
loop_
_geom_bond_atom_site_label_1
_geom_bond_atom_site_label_2
_geom_bond_distance
_geom_bond_site_symmetry_2
Na0 O37 2.546779 1_555
Na0 O36 2.603644 1_655
Na0 O44 2.661444 1_555
Na0 O38 2.722412 1_665
Na0 O42 2.794395 1_565
Na0 O43 2.888477 1_665
Na1 O40 2.479709 1_555
Na1 O45 2.532561 1_556
Na1 O41 2.619803 1_455
Na1 O39 2.741179 1_565
Na1 O47 2.757227 1_566
Na1 O46 2.804841 1_456
Na2 O48 2.622891 1_555
Na2 O56 2.661001 1_555
Na2 O49 2.792028 1_555
Na2 O55 2.851585 1_555
Na2 O50 2.874543 1_555
Na2 O54 2.980531 1_555
Na3 O53 2.495027 1_555
Na3 O52 2.672151 1_555
Na3 O57 2.721552 1_555
Na3 O51 2.763612 1_555
Na3 O58 2.797844 1_555
Na3 O59 2.945324 1_555
Na4 O61 2.450141 1_555
Na4 O62 2.630968 1_555
Na4 O60 2.722313 1_555
Na4 O66 2.786385 1_555
Na4 O68 2.883024 1_555
Na4 O67 3.004737 1_555
Na5 O64 2.572265 1_555
Na5 O71 2.592370 1_555
Na5 O69 2.692354 1_555
Na5 O63 2.731154 1_555
Na5 O70 2.806370 1_555
Na5 O65 2.815499 1_555
La0 O5 2.328708 1_555
La0 O40 2.363912 1_645
La0 O3 2.382490 1_655
La0 O4 2.396354 1_545
La0 O39 2.424639 1_655
La0 O41 2.460465 1_545
La1 O11 2.211735 1_555
La1 O45 2.300282 1_555
La1 O9 2.343259 1_455
La1 O10 2.404969 1_565
La1 O47 2.406270 1_565
La1 O46 2.431240 1_455
La2 O15 2.318730 1_555
La2 O53 2.380368 1_555
La2 O16 2.415248 1_555
La2 O51 2.436986 1_555
La2 O17 2.440451 1_555
La2 O52 2.445865 1_555
La3 O19 2.256046 1_556
La3 O56 2.320666 1_555
La3 O18 2.339156 1_556
La3 O20 2.339326 1_556
La3 O54 2.385025 1_555
La3 O55 2.391216 1_555
La4 O31 2.272508 1_555
La4 O66 2.275446 1_555
La4 O30 2.366490 1_555
La4 O67 2.390673 1_555
La4 O32 2.442687 1_555
La4 O68 2.469196 1_555
La5 O34 2.225843 1_555
La5 O71 2.307802 1_555
La5 O35 2.354241 1_555
La5 O33 2.409214 1_555
La5 O70 2.429923 1_555
La5 O69 2.510112 1_555
In0 O0 2.094127 1_555
In0 O37 2.151883 1_445
In0 O2 2.197269 1_455
In0 O1 2.211117 1_445
In0 O38 2.269680 1_555
In0 O36 2.303542 1_545
In1 O6 2.054644 1_555
In1 O44 2.141680 1_555
In1 O8 2.182342 1_655
In1 O7 2.245411 1_665
In1 O42 2.259084 1_565
In1 O43 2.260741 1_665
In2 O14 2.098639 1_555
In2 O48 2.118708 1_555
In2 O13 2.212408 1_555
In2 O50 2.218419 1_555
In2 O12 2.218976 1_555
In2 O49 2.220027 1_555
In3 O22 2.091874 1_555
In3 O57 2.115511 1_555
In3 O23 2.206433 1_555
In3 O59 2.210235 1_555
In3 O21 2.219460 1_555
In3 O58 2.248681 1_555
In4 O26 2.065833 1_554
In4 O61 2.112257 1_555
In4 O25 2.166374 1_554
In4 O24 2.207793 1_554
In4 O62 2.213128 1_555
In4 O60 2.233634 1_555
In5 O27 2.105560 1_555
In5 O64 2.141516 1_555
In5 O28 2.223130 1_555
In5 O63 2.284362 1_555
In5 O65 2.325747 1_555
In5 O29 2.331207 1_555
O0 P0 1.553903 1_555
O1 S0 1.477660 1_555
O2 S1 1.483429 1_555
O3 S2 1.492133 1_555
O4 S3 1.487458 1_555
O5 P1 1.551102 1_555
O6 P1 1.537599 1_565
O7 S2 1.474061 1_555
O8 S3 1.475263 1_455
O9 S0 1.480018 1_555
O10 S1 1.479804 1_455
O11 P0 1.544392 1_565
O12 S4 1.489439 1_555
O13 S5 1.486867 1_555
O14 P2 1.550247 1_555
O15 P3 1.552012 1_555
O16 S6 1.484164 1_555
O17 S7 1.482416 1_555
O18 S7 1.482584 1_555
O19 P3 1.538881 1_555
O20 S6 1.480421 1_555
O21 S5 1.481797 1_555
O22 P2 1.542053 1_555
O23 S4 1.480581 1_555
O24 S8 1.474071 1_555
O25 S9 1.474330 1_555
O26 P4 1.543131 1_555
O27 P5 1.558002 1_555
O28 S10 1.495337 1_555
O29 S11 1.488380 1_555
O30 S11 1.477690 1_555
O31 P5 1.536054 1_555
O32 S10 1.474688 1_555
O33 S9 1.480541 1_555
O34 P4 1.549392 1_555
O35 S8 1.481224 1_555
O36 S11 1.503824 1_555
O37 P5 1.573450 1_555
O38 S10 1.498194 1_555
O39 S9 1.485959 1_555
O40 P4 1.551247 1_555
O41 S8 1.487836 1_555
O42 S4 1.502146 1_555
O43 S5 1.498124 1_555
O44 P2 1.570350 1_555
O45 P3 1.550771 1_455
O46 S6 1.478335 1_565
O47 S7 1.485665 1_555
O48 P1 1.567310 1_555
O49 S2 1.498080 1_555
O50 S3 1.489857 1_555
O51 S0 1.483060 1_555
O52 S1 1.490774 1_555
O53 P0 1.550094 1_555
O54 S8 1.488910 1_555
O55 S9 1.490036 1_655
O56 P4 1.551954 1_545
O57 P5 1.562193 1_545
O58 S10 1.493974 1_555
O59 S11 1.492084 1_655
O60 S7 1.476119 1_555
O61 P3 1.556529 1_455
O62 S6 1.480547 1_565
O63 S5 1.502857 1_565
O64 P2 1.577290 1_555
O65 S4 1.497941 1_455
O66 P0 1.551560 1_565
O67 S0 1.487359 1_555
O68 S1 1.485425 1_455
O69 S2 1.487606 1_555
O70 S3 1.487709 1_455
O71 P1 1.555560 1_565
