# generated using pymatgen
data_Pt3Pb
_symmetry_space_group_name_H-M   'P 1'
_cell_length_a   4.09973384
_cell_length_b   4.09973384
_cell_length_c   4.09973384
_cell_angle_alpha   90.00000000
_cell_angle_beta   90.00000000
_cell_angle_gamma   90.00000000
_symmetry_Int_Tables_number   1
_chemical_formula_structural   Pt3Pb
_chemical_formula_sum   'Pt3 Pb1'
_cell_volume   68.90757842
_cell_formula_units_Z   1
loop_
 _symmetry_equiv_pos_site_id
 _symmetry_equiv_pos_as_xyz
  1  'x, y, z'
loop_
 _atom_site_type_symbol
 _atom_site_label
 _atom_site_symmetry_multiplicity
 _atom_site_fract_x
 _atom_site_fract_y
 _atom_site_fract_z
 _atom_site_occupancy
  Pt  Pt0  1  0.50000000  0.00000000  0.50000000  1
  Pt  Pt1  1  -0.00000000  0.50000000  0.50000000  1
  Pt  Pt2  1  0.50000000  0.50000000  -0.00000000  1
  Pb  Pb0  1  -0.00000000  -0.00000000  -0.00000000  1
loop_
_geom_bond_atom_site_label_1
_geom_bond_atom_site_label_2
_geom_bond_distance
_geom_bond_site_symmetry_2
Pt0 Pt2 2.898950 1_546
Pt0 Pt2 2.898950 1_545
Pt0 Pt1 2.898950 1_555
Pt0 Pt1 2.898950 1_655
Pt0 Pt1 2.898950 1_545
Pt0 Pt2 2.898950 1_555
Pt0 Pt2 2.898950 1_556
Pt0 Pt1 2.898950 1_645
Pt1 Pt2 2.898950 1_456
Pt1 Pt2 2.898950 1_455
Pt1 Pt2 2.898950 1_555
Pt1 Pt2 2.898950 1_556
Pb0 Pt0 2.898950 1_554
Pb0 Pt2 2.898950 1_545
Pb0 Pt1 2.898950 1_555
Pb0 Pt2 2.898950 1_455
Pb0 Pt1 2.898950 1_544
Pb0 Pt1 2.898950 1_545
Pb0 Pt0 2.898950 1_455
Pb0 Pt0 2.898950 1_454
Pb0 Pt2 2.898950 1_555
Pb0 Pt1 2.898950 1_554
Pb0 Pt2 2.898950 1_445
Pb0 Pt0 2.898950 1_555
