# generated using pymatgen
data_Na2La3Nb5(PO4)12
_symmetry_space_group_name_H-M   'P 1'
_cell_length_a   18.04064201
_cell_length_b   9.03033332
_cell_length_c   23.48785648
_cell_angle_alpha   89.96435111
_cell_angle_beta   90.10460590
_cell_angle_gamma   119.96487582
_symmetry_Int_Tables_number   1
_chemical_formula_structural   Na2La3Nb5(PO4)12
_chemical_formula_sum   'Na6 La9 Nb15 P36 O144'
_cell_volume   3314.99318933
_cell_formula_units_Z   3
loop_
 _symmetry_equiv_pos_site_id
 _symmetry_equiv_pos_as_xyz
  1  'x, y, z'
loop_
 _atom_site_type_symbol
 _atom_site_label
 _atom_site_symmetry_multiplicity
 _atom_site_fract_x
 _atom_site_fract_y
 _atom_site_fract_z
 _atom_site_occupancy
  Na  Na0  1  0.33169465  0.32953229  0.83229057  1
  Na  Na1  1  0.83503549  0.33761233  0.83281626  1
  Na  Na2  1  0.33291668  0.32863577  0.33120681  1
  Na  Na3  1  0.83328717  0.33871155  0.32923579  1
  Na  Na4  1  0.66653118  0.66556308  0.16558505  1
  Na  Na5  1  0.16547253  0.66443786  0.66474601  1
  La  La0  1  0.99067452  0.99701760  0.36333538  1
  La  La1  1  0.34090207  0.33508820  0.69195662  1
  La  La2  1  0.82545486  0.32931913  0.68933309  1
  La  La3  1  0.32977541  0.33038252  0.18808765  1
  La  La4  1  0.83528208  0.33362355  0.18562489  1
  La  La5  1  0.66654657  0.66692509  0.01020251  1
  La  La6  1  0.17402601  0.68087639  0.51652345  1
  La  La7  1  0.66987721  0.66862854  0.31193558  1
  La  La8  1  0.16604033  0.66655502  0.81243613  1
  Nb  Nb0  1  0.50342300  0.00441352  0.35726144  1
  Nb  Nb1  1  0.00332613  0.00243099  0.85661637  1
  Nb  Nb2  1  0.49651555  0.99645577  0.85663271  1
  Nb  Nb3  1  0.99625371  0.99619247  0.64205366  1
  Nb  Nb4  1  0.50457571  0.00563602  0.64180113  1
  Nb  Nb5  1  0.00494484  0.00427048  0.14603356  1
  Nb  Nb6  1  0.49577780  0.99626360  0.14367759  1
  Nb  Nb7  1  0.33624238  0.33819848  0.98503682  1
  Nb  Nb8  1  0.83082492  0.32728077  0.98457660  1
  Nb  Nb9  1  0.33075819  0.33484680  0.48186280  1
  Nb  Nb10  1  0.83732641  0.33760414  0.48418030  1
  Nb  Nb11  1  0.16593228  0.66597571  0.01596954  1
  Nb  Nb12  1  0.66249815  0.66316972  0.51778596  1
  Nb  Nb13  1  0.16640735  0.66506015  0.31077428  1
  Nb  Nb14  1  0.66779706  0.66782506  0.81144466  1
  P  P0  1  0.13961581  0.98335632  0.25215574  1
  P  P1  1  0.63493370  0.99550357  0.24996107  1
  P  P2  1  0.35852573  0.72689430  0.25522806  1
  P  P3  1  0.85306181  0.71915985  0.24453061  1
  P  P4  1  0.01021864  0.29981922  0.25018402  1
  P  P5  1  0.50135784  0.27471918  0.24972413  1
  P  P6  1  0.13532703  0.27292441  0.74932604  1
  P  P7  1  0.63440195  0.28529340  0.75422163  1
  P  P8  1  0.00058527  0.72803953  0.74913625  1
  P  P9  1  0.50876119  0.73310914  0.75401659  1
  P  P10  1  0.36319573  0.99078801  0.74867536  1
  P  P11  1  0.85812903  0.99043405  0.75466960  1
  P  P12  1  0.48058041  0.32914998  0.57952197  1
  P  P13  1  0.97777251  0.32680539  0.58658675  1
  P  P14  1  0.18306539  0.05094164  0.58504971  1
  P  P15  1  0.68652698  0.03385998  0.58166059  1
  P  P16  1  0.34078666  0.63216957  0.58658260  1
  P  P17  1  0.83145419  0.62999895  0.58010506  1
  P  P18  1  0.47998428  0.63427779  0.08532136  1
  P  P19  1  0.98281284  0.63532321  0.07885297  1
  P  P20  1  0.33192899  0.03416059  0.07985934  1
  P  P21  1  0.84007044  0.03761618  0.08402438  1
  P  P22  1  0.18573719  0.33772817  0.08074143  1
  P  P23  1  0.67878103  0.31836365  0.08280054  1
  P  P24  1  0.31514176  0.66241420  0.91867505  1
  P  P25  1  0.81598985  0.65838291  0.91204797  1
  P  P26  1  0.01537513  0.36767428  0.91854265  1
  P  P27  1  0.51379239  0.37029421  0.91196131  1
  P  P28  1  0.17047627  0.97059091  0.91860830  1
  P  P29  1  0.66976362  0.97121042  0.91214796  1
  P  P30  1  0.31616833  0.97473982  0.41143730  1
  P  P31  1  0.80654657  0.96580148  0.42380941  1
  P  P32  1  0.17880944  0.38806663  0.41544796  1
  P  P33  1  0.66947220  0.37149125  0.41955495  1
  P  P34  1  0.01414184  0.63760943  0.41475172  1
  P  P35  1  0.51621281  0.66307642  0.41869863  1
  O  O0  1  0.09753012  0.00778238  0.30323222  1
  O  O1  1  0.58659008  0.99256705  0.30595645  1
  O  O2  1  0.41535610  0.82525492  0.30710157  1
  O  O3  1  0.89500219  0.80157877  0.30040941  1
  O  O4  1  0.50739781  0.17735167  0.30313349  1
  O  O5  1  0.99521158  0.19865766  0.30376578  1
  O  O6  1  0.08656585  0.18022944  0.80581510  1
  O  O7  1  0.58190231  0.17379462  0.80456645  1
  O  O8  1  0.50136370  0.82637446  0.80704464  1
  O  O9  1  0.00688744  0.83655208  0.80321303  1
  O  O10  1  0.40826551  0.97684251  0.80345642  1
  O  O11  1  0.91409617  0.00443726  0.80710032  1
  O  O12  1  0.41593111  0.99619950  0.69442247  1
  O  O13  1  0.89749943  0.97104879  0.69899646  1
  O  O14  1  0.08115853  0.16786700  0.69639674  1
  O  O15  1  0.58948146  0.20575188  0.69677710  1
  O  O16  1  0.99741175  0.82229102  0.69373936  1
  O  O17  1  0.51818732  0.83651358  0.69914759  1
  O  O18  1  0.39938785  0.82469533  0.19883380  1
  O  O19  1  0.91390327  0.83312423  0.19213228  1
  O  O20  1  0.01824617  0.20159984  0.19630801  1
  O  O21  1  0.49746812  0.17324765  0.19366218  1
  O  O22  1  0.08922398  0.97415832  0.19496522  1
  O  O23  1  0.58139802  0.99483513  0.19618210  1
  O  O24  1  0.45471654  0.37899715  0.63362384  1
  O  O25  1  0.93771173  0.35423072  0.63878499  1
  O  O26  1  0.23700552  0.13291123  0.63671513  1
  O  O27  1  0.73710672  0.08463766  0.63618242  1
  O  O28  1  0.32964898  0.53148994  0.63962118  1
  O  O29  1  0.80600815  0.52259016  0.63318465  1
  O  O30  1  0.44335631  0.52673703  0.13799500  1
  O  O31  1  0.95649966  0.52711121  0.13134586  1
  O  O32  1  0.30566983  0.09109809  0.13214049  1
  O  O33  1  0.82252016  0.10626222  0.13762657  1
  O  O34  1  0.23866179  0.39336369  0.13406925  1
  O  O35  1  0.73241620  0.35068407  0.13545734  1
  O  O36  1  0.23713549  0.31004386  0.03134034  1
  O  O37  1  0.73191725  0.30134079  0.02974276  1
  O  O38  1  0.42085624  0.52909487  0.03229273  1
  O  O39  1  0.91610973  0.53294405  0.02880887  1
  O  O40  1  0.34938995  0.16461699  0.02949623  1
  O  O41  1  0.84525552  0.16194521  0.03203091  1
  O  O42  1  0.23218519  0.16304053  0.53014726  1
  O  O43  1  0.73348883  0.16323923  0.53312155  1
  O  O44  1  0.34710838  0.53240174  0.53309001  1
  O  O45  1  0.85058530  0.53725738  0.53046152  1
  O  O46  1  0.41626761  0.29515668  0.52988183  1
  O  O47  1  0.91989500  0.30978403  0.53298079  1
  O  O48  1  0.26603871  0.69167369  0.96734771  1
  O  O49  1  0.79132654  0.71092011  0.96602001  1
  O  O50  1  0.08005846  0.46787119  0.96712969  1
  O  O51  1  0.56365310  0.41653043  0.96640426  1
  O  O52  1  0.15510863  0.84167914  0.96713319  1
  O  O53  1  0.64360681  0.87105184  0.96644944  1
  O  O54  1  0.29402695  0.87699174  0.46665848  1
  O  O55  1  0.74745300  0.83558212  0.46947349  1
  O  O56  1  0.16662677  0.45590956  0.47015887  1
  O  O57  1  0.65265147  0.46745570  0.46819537  1
  O  O58  1  0.06159683  0.66440746  0.46970753  1
  O  O59  1  0.57643822  0.68904549  0.46945873  1
  O  O60  1  0.06563710  0.62052155  0.36293254  1
  O  O61  1  0.54455945  0.61411134  0.36479891  1
  O  O62  1  0.25124486  0.87697697  0.36279495  1
  O  O63  1  0.76275579  0.91440164  0.36619696  1
  O  O64  1  0.18989831  0.50738371  0.36346544  1
  O  O65  1  0.69315160  0.47334264  0.36478362  1
  O  O66  1  0.04230603  0.47254700  0.86437456  1
  O  O67  1  0.56429200  0.49949886  0.86291616  1
  O  O68  1  0.19516022  0.91631002  0.86425985  1
  O  O69  1  0.68475172  0.87076361  0.86311998  1
  O  O70  1  0.26361932  0.61193486  0.86412993  1
  O  O71  1  0.75014935  0.62976147  0.86291551  1
  O  O72  1  0.99309292  0.77643682  0.40521163  1
  O  O73  1  0.50663542  0.82384431  0.40972517  1
  O  O74  1  0.40721559  0.00862175  0.39460926  1
  O  O75  1  0.89298012  0.98277388  0.43136606  1
  O  O76  1  0.10989262  0.20474815  0.40582878  1
  O  O77  1  0.58929162  0.19117290  0.40993791  1
  O  O78  1  0.00704788  0.18893513  0.90972752  1
  O  O79  1  0.49591733  0.18809211  0.89506202  1
  O  O80  1  0.08919847  0.98706089  0.90940475  1
  O  O81  1  0.59582466  0.00555742  0.89554672  1
  O  O82  1  0.40512603  0.82388970  0.91017839  1
  O  O83  1  0.90632980  0.80713217  0.89468780  1
  O  O84  1  0.49080504  0.16805117  0.59060470  1
  O  O85  1  0.97583260  0.15156636  0.59436632  1
  O  O86  1  0.09382956  0.04230413  0.59176352  1
  O  O87  1  0.59873189  0.02612685  0.59317027  1
  O  O88  1  0.42747291  0.81050670  0.59432741  1
  O  O89  1  0.91292962  0.80636355  0.59077936  1
  O  O90  1  0.47617687  0.80231335  0.09254363  1
  O  O91  1  0.99216996  0.81326086  0.08851118  1
  O  O92  1  0.41264216  0.01943940  0.08968436  1
  O  O93  1  0.92716092  0.04093436  0.09165597  1
  O  O94  1  0.09926832  0.17293426  0.09012346  1
  O  O95  1  0.59161182  0.14699800  0.09049472  1
  O  O96  1  0.36240704  0.15740621  0.75562273  1
  O  O97  1  0.84459318  0.14342580  0.75604396  1
  O  O98  1  0.22138988  0.28083335  0.75360935  1
  O  O99  1  0.72342569  0.30735662  0.75788900  1
  O  O100  1  0.43092599  0.55547738  0.75605572  1
  O  O101  1  0.91843775  0.55629978  0.75474535  1
  O  O102  1  0.34679446  0.54789689  0.25583004  1
  O  O103  1  0.84417897  0.54269611  0.24395292  1
  O  O104  1  0.41924299  0.28233981  0.25468330  1
  O  O105  1  0.93910957  0.34200927  0.24436071  1
  O  O106  1  0.23179228  0.12725781  0.24716113  1
  O  O107  1  0.72157960  0.15849868  0.25352848  1
  O  O108  1  0.33036068  0.51257505  0.93620676  1
  O  O109  1  0.82310074  0.49385603  0.92055937  1
  O  O110  1  0.42383974  0.35532221  0.92064274  1
  O  O111  1  0.92575785  0.33961550  0.93658046  1
  O  O112  1  0.24549890  0.15103530  0.93609248  1
  O  O113  1  0.75260987  0.14944552  0.92119854  1
  O  O114  1  0.32387263  0.15481519  0.42136641  1
  O  O115  1  0.81385255  0.14101742  0.43862224  1
  O  O116  1  0.26471333  0.37784974  0.42354438  1
  O  O117  1  0.74578886  0.34658668  0.43734690  1
  O  O118  1  0.42746593  0.51015146  0.43674651  1
  O  O119  1  0.92336296  0.46586398  0.42181889  1
  O  O120  1  0.16977984  0.48502246  0.06017589  1
  O  O121  1  0.66165506  0.46302472  0.07308071  1
  O  O122  1  0.07168377  0.66098252  0.05859053  1
  O  O123  1  0.57076869  0.67521184  0.07574651  1
  O  O124  1  0.25737770  0.85589414  0.05997702  1
  O  O125  1  0.76852764  0.85893564  0.07297918  1
  O  O126  1  0.16460170  0.86823872  0.58005321  1
  O  O127  1  0.66521317  0.84978589  0.56453365  1
  O  O128  1  0.26985199  0.67499113  0.58159967  1
  O  O129  1  0.75753780  0.66044072  0.56069760  1
  O  O130  1  0.06962181  0.46760889  0.57913729  1
  O  O131  1  0.57020259  0.47700536  0.56182531  1
  O  O132  1  0.14282889  0.81198256  0.26013325  1
  O  O133  1  0.63821897  0.83115387  0.24571397  1
  O  O134  1  0.27052745  0.71819235  0.26485988  1
  O  O135  1  0.76830935  0.71489672  0.23530184  1
  O  O136  1  0.09734814  0.47511443  0.25844057  1
  O  O137  1  0.58294593  0.44709586  0.24546763  1
  O  O138  1  0.14030116  0.44626631  0.74580653  1
  O  O139  1  0.64147883  0.46555256  0.76378466  1
  O  O140  1  0.08231980  0.71776939  0.74544362  1
  O  O141  1  0.59163238  0.71887421  0.76395827  1
  O  O142  1  0.27546391  0.83162022  0.74350532  1
  O  O143  1  0.76846563  0.82158306  0.76536749  1
loop_
_geom_bond_atom_site_label_1
_geom_bond_atom_site_label_2
_geom_bond_distance
_geom_bond_site_symmetry_2
Na0 O98 2.584968 1_555
Na0 O110 2.593338 1_555
Na0 O96 2.614039 1_555
Na0 O100 2.632962 1_555
Na0 O112 2.909576 1_555
Na0 O108 2.955521 1_555
Na1 O101 2.561972 1_555
Na1 O109 2.567702 1_555
Na1 O97 2.581364 1_555
Na1 O99 2.581506 1_555
Na1 O113 2.625022 1_555
Na1 O111 2.928298 1_555
Na2 O104 2.548004 1_555
Na2 O102 2.572859 1_555
Na2 O114 2.591564 1_555
Na2 O116 2.640531 1_555
Na2 O106 2.685024 1_555
Na3 O107 2.566338 1_555
Na3 O119 2.610405 1_555
Na3 O103 2.660730 1_555
Na3 O105 2.752594 1_555
Na4 O135 2.328967 1_555
Na4 O137 2.592355 1_555
Na4 O133 2.609414 1_555
Na4 O123 2.753483 1_555
Na4 O121 2.813754 1_555
Na4 O125 2.822484 1_555
Na5 O142 2.576107 1_555
Na5 O140 2.609240 1_555
Na5 O138 2.611035 1_555
Na5 O130 2.667221 1_555
Na5 O128 2.683823 1_555
Na5 O126 2.714520 1_555
La0 O72 2.240825 1_555
La0 O76 2.259444 1_665
La0 O5 2.264578 1_565
La0 O3 2.286769 1_555
La0 O75 2.336596 1_555
La0 O0 2.353953 1_665
La1 O28 2.248083 1_555
La1 O26 2.259569 1_555
La1 O24 2.333821 1_555
La1 O96 2.361762 1_555
La1 O100 2.373012 1_555
La1 O98 2.437410 1_555
La2 O25 2.261622 1_555
La2 O27 2.336493 1_555
La2 O29 2.348513 1_555
La2 O99 2.380337 1_555
La2 O101 2.436300 1_555
La2 O97 2.442552 1_555
La3 O30 2.259164 1_555
La3 O106 2.276241 1_555
La3 O34 2.358077 1_555
La3 O32 2.376511 1_555
La3 O102 2.425653 1_555
La3 O104 2.435058 1_555
La4 O33 2.251475 1_555
La4 O35 2.265712 1_555
La4 O103 2.273080 1_555
La4 O105 2.294892 1_555
La4 O31 2.377193 1_555
La4 O107 2.453706 1_555
La5 O125 2.317772 1_555
La5 O53 2.320211 1_554
La5 O121 2.326814 1_555
La5 O49 2.327422 1_554
La5 O51 2.328063 1_554
La5 O123 2.345264 1_555
La6 O58 2.244095 1_555
La6 O56 2.249927 1_555
La6 O54 2.317686 1_555
La6 O126 2.325856 1_555
La6 O128 2.325895 1_555
La6 O130 2.408841 1_555
La7 O65 2.358404 1_555
La7 O63 2.374563 1_555
La7 O133 2.393899 1_555
La7 O137 2.399959 1_555
La7 O61 2.406861 1_555
La7 O135 2.416071 1_555
La8 O66 2.375105 1_555
La8 O140 2.378917 1_555
La8 O68 2.379459 1_555
La8 O70 2.382287 1_555
La8 O138 2.387576 1_555
La8 O142 2.410262 1_555
Nb0 O74 1.963391 1_555
Nb0 O1 1.970238 1_545
Nb0 O4 1.986540 1_555
Nb0 O2 1.989366 1_545
Nb0 O77 2.039767 1_555
Nb0 O73 2.066959 1_545
Nb1 O6 1.962744 1_555
Nb1 O83 1.973055 1_445
Nb1 O9 1.979917 1_545
Nb1 O11 1.991626 1_455
Nb1 O80 2.040624 1_545
Nb1 O78 2.070396 1_555
Nb2 O79 1.957102 1_565
Nb2 O10 1.958938 1_555
Nb2 O8 1.964680 1_555
Nb2 O81 1.974592 1_565
Nb2 O7 1.993294 1_565
Nb2 O82 2.041331 1_555
Nb3 O85 1.967693 1_565
Nb3 O86 1.985487 1_665
Nb3 O16 1.992643 1_555
Nb3 O14 2.000503 1_665
Nb3 O89 2.017538 1_555
Nb3 O13 2.149107 1_555
Nb4 O88 1.957416 1_545
Nb4 O87 1.979179 1_555
Nb4 O12 1.990798 1_545
Nb4 O84 2.004870 1_555
Nb4 O15 2.123645 1_555
Nb4 O17 2.139595 1_545
Nb5 O19 1.930619 1_445
Nb5 O22 2.028013 1_545
Nb5 O93 2.041349 1_455
Nb5 O20 2.049815 1_555
Nb5 O94 2.087247 1_555
Nb5 O91 2.111491 1_445
Nb6 O21 1.971578 1_565
Nb6 O23 1.979860 1_555
Nb6 O90 2.004352 1_555
Nb6 O95 2.014256 1_565
Nb6 O92 2.051301 1_565
Nb6 O18 2.101674 1_555
Nb7 O38 1.975186 1_556
Nb7 O108 1.992612 1_555
Nb7 O40 1.993049 1_556
Nb7 O36 1.999220 1_556
Nb7 O112 2.022317 1_555
Nb7 O110 2.138509 1_555
Nb8 O41 1.981013 1_556
Nb8 O37 1.988288 1_556
Nb8 O111 2.008177 1_555
Nb8 O39 2.009467 1_556
Nb8 O113 2.125483 1_555
Nb8 O109 2.179182 1_555
Nb9 O116 1.975428 1_555
Nb9 O118 1.979536 1_555
Nb9 O42 2.026019 1_555
Nb9 O44 2.047697 1_555
Nb9 O46 2.079845 1_555
Nb9 O114 2.116133 1_555
Nb10 O115 1.930176 1_555
Nb10 O47 1.990739 1_555
Nb10 O45 2.014981 1_555
Nb10 O117 2.017620 1_555
Nb10 O119 2.026445 1_555
Nb10 O43 2.090222 1_555
Nb11 O122 1.955707 1_555
Nb11 O120 1.965711 1_555
Nb11 O124 1.975095 1_555
Nb11 O50 2.035655 1_554
Nb11 O52 2.043961 1_554
Nb11 O48 2.051388 1_554
Nb12 O55 1.918640 1_555
Nb12 O131 1.968886 1_555
Nb12 O127 1.991879 1_555
Nb12 O129 1.998028 1_555
Nb12 O59 2.027113 1_555
Nb12 O57 2.049394 1_555
Nb13 O136 1.966621 1_555
Nb13 O132 1.978881 1_555
Nb13 O134 2.006997 1_555
Nb13 O60 2.060265 1_555
Nb13 O64 2.082629 1_555
Nb13 O62 2.137255 1_555
Nb14 O143 1.970736 1_555
Nb14 O139 1.987272 1_555
Nb14 O141 1.992759 1_555
Nb14 O71 2.071233 1_555
Nb14 O69 2.089647 1_555
Nb14 O67 2.104638 1_555
O0 P0 1.495090 1_545
O1 P1 1.572314 1_555
O2 P2 1.552960 1_555
O3 P3 1.511312 1_555
O4 P5 1.566048 1_555
O5 P4 1.498148 1_655
O6 P6 1.581849 1_555
O7 P7 1.535940 1_555
O8 P9 1.546816 1_555
O9 P8 1.573577 1_555
O10 P10 1.559104 1_555
O11 P11 1.555673 1_545
O12 P10 1.577726 1_555
O13 P11 1.540433 1_555
O14 P6 1.572092 1_555
O15 P7 1.552058 1_555
O16 P8 1.570897 1_655
O17 P9 1.549976 1_555
O18 P2 1.558746 1_555
O19 P3 1.628965 1_555
O20 P4 1.593536 1_555
O21 P5 1.586000 1_555
O22 P0 1.599382 1_555
O23 P1 1.586861 1_555
O24 P12 1.499266 1_555
O25 P13 1.506390 1_555
O26 P14 1.498243 1_555
O27 P15 1.503773 1_555
O28 P16 1.495295 1_555
O29 P17 1.503874 1_555
O30 P18 1.506929 1_555
O31 P19 1.495879 1_555
O32 P20 1.497642 1_555
O33 P21 1.506018 1_555
O34 P22 1.500057 1_555
O35 P23 1.505022 1_555
O36 P22 1.582567 1_555
O37 P23 1.627089 1_555
O38 P18 1.604960 1_555
O39 P19 1.602901 1_555
O40 P20 1.585967 1_555
O41 P21 1.629247 1_555
O42 P14 1.606042 1_555
O43 P15 1.547790 1_555
O44 P16 1.583627 1_555
O45 P17 1.572111 1_555
O46 P12 1.561902 1_555
O47 P13 1.591946 1_555
O48 P24 1.548992 1_555
O49 P25 1.497920 1_555
O50 P26 1.557064 1_555
O51 P27 1.496646 1_555
O52 P28 1.551823 1_555
O53 P29 1.497282 1_555
O54 P30 1.506401 1_555
O55 P31 1.555636 1_555
O56 P32 1.487107 1_555
O57 P33 1.553535 1_555
O58 P34 1.499015 1_555
O59 P35 1.548558 1_555
O60 P34 1.586132 1_555
O61 P35 1.512847 1_555
O62 P30 1.555635 1_555
O63 P31 1.516994 1_555
O64 P32 1.573417 1_555
O65 P33 1.513757 1_555
O66 P26 1.514194 1_555
O67 P27 1.568016 1_555
O68 P28 1.512946 1_555
O69 P29 1.571440 1_555
O70 P24 1.512026 1_555
O71 P25 1.580546 1_555
O72 P34 1.496984 1_655
O73 P35 1.559496 1_555
O74 P30 1.564610 1_545
O75 P31 1.498916 1_555
O76 P32 1.510204 1_555
O77 P33 1.562450 1_555
O78 P26 1.558445 1_555
O79 P27 1.561739 1_555
O80 P28 1.560625 1_555
O81 P29 1.561664 1_545
O82 P24 1.561288 1_555
O83 P25 1.562581 1_555
O84 P12 1.576570 1_555
O85 P13 1.575803 1_555
O86 P14 1.580542 1_555
O87 P15 1.574066 1_555
O88 P16 1.598685 1_555
O89 P17 1.555804 1_555
O90 P18 1.562219 1_555
O91 P19 1.546362 1_555
O92 P20 1.543796 1_555
O93 P21 1.566380 1_555
O94 P22 1.542227 1_555
O95 P23 1.571664 1_555
O96 P10 1.520659 1_545
O97 P11 1.518716 1_545
O98 P6 1.521363 1_555
O99 P7 1.518673 1_555
O100 P9 1.515659 1_555
O101 P8 1.524262 1_655
O102 P2 1.521844 1_555
O103 P3 1.519906 1_555
O104 P5 1.521624 1_555
O105 P4 1.515620 1_655
O106 P0 1.519738 1_545
O107 P1 1.522584 1_545
O108 P24 1.563913 1_555
O109 P25 1.566447 1_555
O110 P27 1.573325 1_555
O111 P26 1.565483 1_655
O112 P28 1.565694 1_545
O113 P29 1.570289 1_545
O114 P30 1.578802 1_545
O115 P31 1.560177 1_545
O116 P32 1.608779 1_555
O117 P33 1.558168 1_555
O118 P35 1.563082 1_555
O119 P34 1.605743 1_655
O120 P22 1.570546 1_555
O121 P23 1.502215 1_555
O122 P19 1.575522 1_455
O123 P18 1.505359 1_555
O124 P20 1.566615 1_565
O125 P21 1.501873 1_565
O126 P14 1.515885 1_565
O127 P15 1.560301 1_565
O128 P16 1.514795 1_555
O129 P17 1.557367 1_555
O130 P13 1.512998 1_455
O131 P12 1.554007 1_555
O132 P0 1.588278 1_555
O133 P1 1.517955 1_555
O134 P2 1.566629 1_555
O135 P3 1.525213 1_555
O136 P4 1.589930 1_555
O137 P5 1.520243 1_555
O138 P6 1.524699 1_555
O139 P7 1.584056 1_555
O140 P8 1.525610 1_555
O141 P9 1.580155 1_555
O142 P10 1.520772 1_555
O143 P11 1.594315 1_555
