# generated using pymatgen
data_MgV4Ag2O11
_symmetry_space_group_name_H-M   'P 1'
_cell_length_a   3.68155118
_cell_length_b   7.90193508
_cell_length_c   8.30230256
_cell_angle_alpha   76.98407633
_cell_angle_beta   76.64570659
_cell_angle_gamma   74.33200715
_symmetry_Int_Tables_number   1
_chemical_formula_structural   MgV4Ag2O11
_chemical_formula_sum   'Mg1 V4 Ag2 O11'
_cell_volume   222.81824450
_cell_formula_units_Z   1
loop_
 _symmetry_equiv_pos_site_id
 _symmetry_equiv_pos_as_xyz
  1  'x, y, z'
loop_
 _atom_site_type_symbol
 _atom_site_label
 _atom_site_symmetry_multiplicity
 _atom_site_fract_x
 _atom_site_fract_y
 _atom_site_fract_z
 _atom_site_occupancy
  Mg  Mg0  1  0.66356602  0.60427042  0.05902343  1
  V  V0  1  0.61865123  0.15036405  0.58650401  1
  V  V1  1  0.38446549  0.86177819  0.39658064  1
  V  V2  1  0.85967323  0.12749209  0.15284115  1
  V  V3  1  0.19363012  0.85740432  0.79700832  1
  Ag  Ag0  1  0.88355852  0.50042582  0.71410885  1
  Ag  Ag1  1  0.06830226  0.47860694  0.36118316  1
  O  O0  1  0.45991801  0.30075521  0.71582532  1
  O  O1  1  0.52621524  0.68554103  0.28122479  1
  O  O2  1  0.64144105  0.29002352  0.39024100  1
  O  O3  1  0.37615106  0.71769706  0.62227915  1
  O  O4  1  0.79274806  0.34483633  0.05248248  1
  O  O5  1  0.17694606  0.66199969  0.96503553  1
  O  O6  1  0.00662048  0.00853406  0.99633761  1
  O  O7  1  0.34623050  0.08731088  0.22211912  1
  O  O8  1  0.84227969  0.93938334  0.39158343  1
  O  O9  1  0.16113573  0.07495251  0.58855973  1
  O  O10  1  0.65918426  0.91695953  0.77372628  1
loop_
_geom_bond_atom_site_label_1
_geom_bond_atom_site_label_2
_geom_bond_distance
_geom_bond_site_symmetry_2
Mg0 O4 1.985792 1_555
Mg0 O1 1.999666 1_555
Mg0 O5 2.003317 1_654
Mg0 O5 2.017558 1_554
Ag0 O0 2.277633 1_655
Ag0 O3 2.313976 1_555
Ag0 O0 2.496171 1_555
Ag0 O3 2.696494 1_655
Ag0 O4 2.783480 1_556
Ag1 O2 2.259639 1_555
Ag1 O1 2.336197 1_455
Ag1 O2 2.382494 1_455
Ag1 O1 2.537621 1_555
O0 V0 1.678184 1_555
O1 V1 1.762469 1_555
O2 V0 1.748385 1_555
O2 V2 2.455820 1_555
O3 V3 1.909202 1_555
O3 V1 1.959519 1_555
O4 V2 1.710626 1_555
O5 V3 1.837223 1_555
O6 V2 1.677894 1_456
O6 V3 2.135095 1_545
O7 V2 1.930495 1_455
O7 V2 1.935048 1_555
O7 V1 2.022316 1_545
O8 V1 1.930745 1_655
O8 V1 1.932116 1_555
O8 V2 2.192709 1_565
O8 V0 2.436091 1_565
O9 V0 1.926781 1_455
O9 V0 1.927886 1_555
O9 V3 2.146842 1_545
O9 V1 2.431024 1_545
O10 V3 1.854221 1_555
O10 V3 1.940315 1_655
O10 V0 2.123000 1_565
