# generated using pymatgen
data_Na2CdCl4
_symmetry_space_group_name_H-M   'P 1'
_cell_length_a   3.93016405
_cell_length_b   7.00480877
_cell_length_c   11.94259020
_cell_angle_alpha   90.00000000
_cell_angle_beta   90.00000000
_cell_angle_gamma   90.00000000
_symmetry_Int_Tables_number   1
_chemical_formula_structural   Na2CdCl4
_chemical_formula_sum   'Na4 Cd2 Cl8'
_cell_volume   328.78007673
_cell_formula_units_Z   2
loop_
 _symmetry_equiv_pos_site_id
 _symmetry_equiv_pos_as_xyz
  1  'x, y, z'
loop_
 _atom_site_type_symbol
 _atom_site_label
 _atom_site_symmetry_multiplicity
 _atom_site_fract_x
 _atom_site_fract_y
 _atom_site_fract_z
 _atom_site_occupancy
  Na  Na0  1  0.50000000  0.08802138  0.68351889  1
  Na  Na1  1  0.50000000  0.91197862  0.31648111  1
  Na  Na2  1  0.50000000  0.41197862  0.18351889  1
  Na  Na3  1  0.50000000  0.58802138  0.81648111  1
  Cd  Cd0  1  -0.00000000  0.50000000  0.50000000  1
  Cd  Cd1  1  -0.00000000  0.00000000  -0.00000000  1
  Cl  Cl0  1  0.50000000  0.74797767  0.54384602  1
  Cl  Cl1  1  0.50000000  0.25202233  0.45615398  1
  Cl  Cl2  1  0.00000000  0.12594517  0.20437229  1
  Cl  Cl3  1  -0.00000000  0.87405483  0.79562771  1
  Cl  Cl4  1  -0.00000000  0.62594517  0.29562771  1
  Cl  Cl5  1  -0.00000000  0.37405483  0.70437229  1
  Cl  Cl6  1  0.50000000  0.24797767  0.95615398  1
  Cl  Cl7  1  0.50000000  0.75202233  0.04384602  1
loop_
_geom_bond_atom_site_label_1
_geom_bond_atom_site_label_2
_geom_bond_distance
_geom_bond_site_symmetry_2
Cd0 Cl5 2.595284 1_555
Cd0 Cl4 2.595284 1_555
Cd0 Cl1 2.674516 1_555
Cd0 Cl1 2.674516 1_455
Cd0 Cl0 2.674516 1_555
Cd0 Cl0 2.674516 1_455
Cd1 Cl3 2.595284 1_544
Cd1 Cl2 2.595284 1_555
Cd1 Cl6 2.674516 1_554
Cd1 Cl6 2.674516 1_454
Cd1 Cl7 2.674516 1_545
Cd1 Cl7 2.674516 1_445
Cl0 Na0 2.907930 1_565
Cl0 Na1 2.948343 1_555
Cl1 Na1 2.907930 1_545
Cl1 Na0 2.948343 1_555
Cl2 Na1 2.810784 1_545
Cl2 Na1 2.810784 1_445
Cl2 Na2 2.817449 1_455
Cl2 Na2 2.817449 1_555
Cl3 Na0 2.810784 1_565
Cl3 Na0 2.810784 1_465
Cl3 Na3 2.817449 1_455
Cl3 Na3 2.817449 1_555
Cl4 Na2 2.810784 1_455
Cl4 Na2 2.810784 1_555
Cl4 Na1 2.817449 1_555
Cl4 Na1 2.817449 1_455
Cl5 Na3 2.810784 1_555
Cl5 Na3 2.810784 1_455
Cl5 Na0 2.817449 1_455
Cl5 Na0 2.817449 1_555
Cl6 Na3 2.907930 1_555
Cl6 Na2 2.948343 1_556
Cl7 Na2 2.907930 1_555
Cl7 Na3 2.948343 1_554
