# generated using pymatgen
data_V2Pb2O7
_symmetry_space_group_name_H-M   'P 1'
_cell_length_a   7.16707322
_cell_length_b   7.11314927
_cell_length_c   13.47018528
_cell_angle_alpha   73.50897369
_cell_angle_beta   90.00000000
_cell_angle_gamma   90.00000000
_symmetry_Int_Tables_number   1
_chemical_formula_structural   V2Pb2O7
_chemical_formula_sum   'V8 Pb8 O28'
_cell_volume   658.46764507
_cell_formula_units_Z   4
loop_
 _symmetry_equiv_pos_site_id
 _symmetry_equiv_pos_as_xyz
  1  'x, y, z'
loop_
 _atom_site_type_symbol
 _atom_site_label
 _atom_site_symmetry_multiplicity
 _atom_site_fract_x
 _atom_site_fract_y
 _atom_site_fract_z
 _atom_site_occupancy
  V  V0  1  0.17770699  0.61440981  0.58460453  1
  V  V1  1  0.67770699  0.38559019  0.91539547  1
  V  V2  1  0.82229301  0.38559019  0.41539547  1
  V  V3  1  0.32229301  0.61440981  0.08460453  1
  V  V4  1  0.43867862  0.79473521  0.39117599  1
  V  V5  1  0.93867862  0.20526479  0.10882401  1
  V  V6  1  0.56132138  0.20526479  0.60882401  1
  V  V7  1  0.06132138  0.79473521  0.89117599  1
  Pb  Pb0  1  0.31889166  0.33177383  0.34313875  1
  Pb  Pb1  1  0.81889166  0.66822617  0.15686125  1
  Pb  Pb2  1  0.68110834  0.66822617  0.65686125  1
  Pb  Pb3  1  0.18110834  0.33177383  0.84313875  1
  Pb  Pb4  1  0.09537421  0.05049166  0.63267392  1
  Pb  Pb5  1  0.59537421  0.94950834  0.86732608  1
  Pb  Pb6  1  0.90462579  0.94950834  0.36732608  1
  Pb  Pb7  1  0.40462579  0.05049166  0.13267392  1
  O  O0  1  0.41306983  0.39634684  0.15453093  1
  O  O1  1  0.91306983  0.60365316  0.34546907  1
  O  O2  1  0.58693017  0.60365316  0.84546907  1
  O  O3  1  0.08693017  0.39634684  0.65453093  1
  O  O4  1  0.67402648  0.29481234  0.34369831  1
  O  O5  1  0.17402648  0.70518766  0.15630169  1
  O  O6  1  0.32597352  0.70518766  0.65630169  1
  O  O7  1  0.82597352  0.29481234  0.84369831  1
  O  O8  1  -0.00027219  0.21550358  0.45200986  1
  O  O9  1  0.49972781  0.78449642  0.04799014  1
  O  O10  1  0.00027219  0.78449642  0.54799014  1
  O  O11  1  0.50027219  0.21550358  0.95200986  1
  O  O12  1  0.79789633  0.40303379  0.02987247  1
  O  O13  1  0.29789633  0.59696621  0.47012753  1
  O  O14  1  0.20210367  0.59696621  0.97012753  1
  O  O15  1  0.70210367  0.40303379  0.52987247  1
  O  O16  1  0.38012179  0.15354811  0.53904938  1
  O  O17  1  0.88012179  0.84645189  0.96095062  1
  O  O18  1  0.61987821  0.84645189  0.46095062  1
  O  O19  1  0.11987821  0.15354811  0.03904938  1
  O  O20  1  0.19577741  0.00012976  0.83949517  1
  O  O21  1  0.69577741  -0.00012976  0.66050483  1
  O  O22  1  0.80422259  -0.00012976  0.16050483  1
  O  O23  1  0.30422259  0.00012976  0.33949517  1
  O  O24  1  0.47908287  0.27593621  0.70877786  1
  O  O25  1  0.97908287  0.72406379  0.79122214  1
  O  O26  1  0.52091713  0.72406379  0.29122214  1
  O  O27  1  0.02091713  0.27593621  0.20877786  1
loop_
_geom_bond_atom_site_label_1
_geom_bond_atom_site_label_2
_geom_bond_distance
_geom_bond_site_symmetry_2
O0 V3 1.699114 1_555
O0 Pb0 2.541383 1_555
O0 Pb7 2.560028 1_555
O1 V2 1.699114 1_555
O1 Pb1 2.541383 1_555
O1 Pb6 2.560028 1_555
O2 V1 1.699114 1_555
O2 Pb2 2.541383 1_555
O2 Pb5 2.560028 1_555
O3 V0 1.699114 1_555
O3 Pb3 2.541383 1_555
O3 Pb4 2.560028 1_555
O4 V2 1.683126 1_555
O4 Pb0 2.558611 1_555
O5 V3 1.683126 1_555
O5 Pb1 2.558611 1_455
O6 V0 1.683126 1_555
O6 Pb2 2.558611 1_555
O7 V1 1.683126 1_555
O7 Pb3 2.558611 1_655
O8 V2 1.727835 1_455
O8 Pb4 2.479565 1_555
O8 Pb6 2.563401 1_445
O8 Pb0 2.716359 1_555
O9 V3 1.727835 1_555
O9 Pb5 2.479565 1_554
O9 Pb7 2.563401 1_565
O9 Pb1 2.716359 1_555
O10 V0 1.727835 1_555
O10 Pb6 2.479565 1_455
O10 Pb4 2.563401 1_565
O10 Pb2 2.716359 1_455
O11 V1 1.727835 1_555
O11 Pb7 2.479565 1_556
O11 Pb5 2.563401 1_545
O11 Pb3 2.716359 1_555
O12 V1 1.801079 1_554
O12 V5 1.810717 1_555
O13 V0 1.801079 1_555
O13 V4 1.810717 1_555
O14 V3 1.801079 1_556
O14 V7 1.810717 1_555
O15 V2 1.801079 1_555
O15 V6 1.810717 1_555
O16 V6 1.703389 1_555
O16 Pb4 2.401641 1_555
O16 Pb0 2.620015 1_555
O17 V7 1.703389 1_655
O17 Pb5 2.401641 1_555
O17 Pb1 2.620015 1_556
O18 V4 1.703389 1_555
O18 Pb6 2.401641 1_555
O18 Pb2 2.620015 1_555
O19 V5 1.703389 1_455
O19 Pb7 2.401641 1_555
O19 Pb3 2.620015 1_554
O20 V7 1.723473 1_545
O20 Pb3 2.375760 1_555
O21 V6 1.723473 1_555
O21 Pb2 2.375760 1_545
O22 V5 1.723473 1_555
O22 Pb1 2.375760 1_545
O23 V4 1.723473 1_545
O23 Pb0 2.375760 1_555
O24 V6 1.672468 1_555
O25 V7 1.672468 1_655
O26 V4 1.672468 1_555
O27 V5 1.672468 1_455
