# generated using pymatgen
data_MgMn3BiO8
_symmetry_space_group_name_H-M   'P 1'
_cell_length_a   5.94310794
_cell_length_b   5.94310731
_cell_length_c   8.57883936
_cell_angle_alpha   69.73382523
_cell_angle_beta   110.26616494
_cell_angle_gamma   119.99999678
_symmetry_Int_Tables_number   1
_chemical_formula_structural   MgMn3BiO8
_chemical_formula_sum   'Mg1 Mn3 Bi1 O8'
_cell_volume   240.50980273
_cell_formula_units_Z   1
loop_
 _symmetry_equiv_pos_site_id
 _symmetry_equiv_pos_as_xyz
  1  'x, y, z'
loop_
 _atom_site_type_symbol
 _atom_site_label
 _atom_site_symmetry_multiplicity
 _atom_site_fract_x
 _atom_site_fract_y
 _atom_site_fract_z
 _atom_site_occupancy
  Mg  Mg0  1  0.42080433  0.57919567  0.26241300  1
  Mn  Mn0  1  0.49084242  0.50915758  0.97902839  1
  Mn  Mn1  1  0.49084242  0.00265645  0.97902839  1
  Mn  Mn2  1  0.99734355  0.50915758  0.97902839  1
  Bi  Bi0  1  0.55061520  0.44938480  0.65184561  1
  O  O0  1  0.76217119  0.70088498  0.82345640  1
  O  O1  1  0.76217119  0.23782881  0.82345640  1
  O  O2  1  0.28451189  0.71548811  0.85353566  1
  O  O3  1  0.29911502  0.23782881  0.82345640  1
  O  O4  1  0.67793024  0.78009488  0.11774149  1
  O  O5  1  0.69884230  0.30115770  0.09652690  1
  O  O6  1  0.21990512  0.78009488  0.11774149  1
  O  O7  1  0.21990512  0.32206976  0.11774148  1
loop_
_geom_bond_atom_site_label_1
_geom_bond_atom_site_label_2
_geom_bond_distance
_geom_bond_site_symmetry_2
Mg0 O4 1.940069 1_555
Mg0 O7 1.940070 1_555
Mg0 O6 1.940074 1_555
Mn0 O2 1.959834 1_555
Mn0 O7 1.966113 1_556
Mn0 O4 1.966113 1_556
Mn0 O5 1.968232 1_556
Mn0 O0 2.068780 1_555
Mn0 O3 2.068780 1_555
Mn1 O2 1.959834 1_545
Mn1 O4 1.966109 1_546
Mn1 O6 1.966113 1_546
Mn1 O5 1.968232 1_556
Mn1 O3 2.068775 1_555
Mn1 O1 2.068779 1_555
Mn2 O2 1.959834 1_655
Mn2 O7 1.966109 1_656
Mn2 O6 1.966113 1_656
Mn2 O5 1.968232 1_556
Mn2 O0 2.068775 1_555
Mn2 O1 2.068779 1_555
Bi0 O3 2.084511 1_555
Bi0 O0 2.084511 1_555
Bi0 O1 2.084515 1_555
Bi0 Mg0 3.062015 1_555
