# generated using pymatgen
data_HXeF7
_symmetry_space_group_name_H-M   'P 1'
_cell_length_a   10.14821986
_cell_length_b   10.14821935
_cell_length_c   10.14821854
_cell_angle_alpha   106.33578598
_cell_angle_beta   106.33579229
_cell_angle_gamma   106.33579157
_symmetry_Int_Tables_number   1
_chemical_formula_structural   HXeF7
_chemical_formula_sum   'H6 Xe6 F42'
_cell_volume   885.69020466
_cell_formula_units_Z   6
loop_
 _symmetry_equiv_pos_site_id
 _symmetry_equiv_pos_as_xyz
  1  'x, y, z'
loop_
 _atom_site_type_symbol
 _atom_site_label
 _atom_site_symmetry_multiplicity
 _atom_site_fract_x
 _atom_site_fract_y
 _atom_site_fract_z
 _atom_site_occupancy
  H  H0  1  0.90580121  0.92809006  0.33062922  1
  H  H1  1  0.09419879  0.07190994  0.66937078  1
  H  H2  1  0.07190994  0.66937078  0.09419879  1
  H  H3  1  0.66937078  0.09419879  0.07190994  1
  H  H4  1  0.33062922  0.90580121  0.92809006  1
  H  H5  1  0.92809006  0.33062922  0.90580121  1
  Xe  Xe0  1  0.87355515  0.72784879  0.49350063  1
  Xe  Xe1  1  0.72784879  0.49350063  0.87355515  1
  Xe  Xe2  1  0.12644485  0.27215121  0.50649937  1
  Xe  Xe3  1  0.49350063  0.87355515  0.72784879  1
  Xe  Xe4  1  0.50649937  0.12644485  0.27215121  1
  Xe  Xe5  1  0.27215121  0.50649937  0.12644485  1
  F  F0  1  0.43042869  0.70856540  0.79553858  1
  F  F1  1  0.99252730  0.35636592  0.41255504  1
  F  F2  1  0.64363408  0.58744496  0.00747270  1
  F  F3  1  0.35636592  0.41255504  0.99252730  1
  F  F4  1  0.10534462  0.17541556  0.71160324  1
  F  F5  1  0.42602215  0.49073023  0.28044680  1
  F  F6  1  0.44234366  0.69782909  0.18310277  1
  F  F7  1  0.57744788  0.07476038  0.92312359  1
  F  F8  1  0.41255504  0.99252730  0.35636592  1
  F  F9  1  0.30217091  0.81689723  0.55765634  1
  F  F10  1  0.58744496  0.00747270  0.64363408  1
  F  F11  1  0.28839676  0.89465538  0.82458444  1
  F  F12  1  0.83626780  0.69621892  0.89199173  1
  F  F13  1  0.29143460  0.20446142  0.56957131  1
  F  F14  1  0.89465538  0.82458444  0.28839676  1
  F  F15  1  0.07476038  0.92312359  0.57744788  1
  F  F16  1  0.16373220  0.30378108  0.10800827  1
  F  F17  1  0.42255212  0.92523962  0.07687641  1
  F  F18  1  0.82458444  0.28839676  0.89465538  1
  F  F19  1  0.79553858  0.43042869  0.70856540  1
  F  F20  1  0.81689723  0.55765634  0.30217091  1
  F  F21  1  0.49073023  0.28044680  0.42602215  1
  F  F22  1  0.69782909  0.18310277  0.44234366  1
  F  F23  1  0.92312359  0.57744788  0.07476038  1
  F  F24  1  0.57397785  0.50926977  0.71955320  1
  F  F25  1  0.92523962  0.07687641  0.42255212  1
  F  F26  1  0.10800827  0.16373220  0.30378108  1
  F  F27  1  0.07687641  0.42255212  0.92523962  1
  F  F28  1  0.89199173  0.83626780  0.69621892  1
  F  F29  1  0.28044680  0.42602215  0.49073023  1
  F  F30  1  0.30378108  0.10800827  0.16373220  1
  F  F31  1  0.71160324  0.10534462  0.17541556  1
  F  F32  1  0.17541556  0.71160324  0.10534462  1
  F  F33  1  0.55765634  0.30217091  0.81689723  1
  F  F34  1  0.20446142  0.56957131  0.29143460  1
  F  F35  1  0.69621892  0.89199173  0.83626780  1
  F  F36  1  0.18310277  0.44234366  0.69782909  1
  F  F37  1  0.00747270  0.64363408  0.58744496  1
  F  F38  1  0.70856540  0.79553858  0.43042869  1
  F  F39  1  0.56957131  0.29143460  0.20446142  1
  F  F40  1  0.71955320  0.57397785  0.50926977  1
  F  F41  1  0.50926977  0.71955320  0.57397785  1
loop_
_geom_bond_atom_site_label_1
_geom_bond_atom_site_label_2
_geom_bond_distance
_geom_bond_site_symmetry_2
F0 Xe3 1.994114 1_555
F1 Xe2 1.967003 1_655
F2 Xe1 1.967003 1_554
F3 Xe5 1.967003 1_556
F4 H1 0.975944 1_555
F5 Xe5 1.953171 1_555
F6 Xe5 2.002637 1_555
F7 H3 1.457931 1_556
F7 Xe3 2.148881 1_545
F8 Xe4 1.967003 1_565
F9 Xe3 2.002637 1_555
F10 Xe3 1.967003 1_545
F11 H4 0.975943 1_555
F12 Xe1 1.967782 1_555
F13 Xe2 1.994114 1_555
F14 H0 0.975944 1_555
F15 H1 1.457931 1_565
F15 Xe0 2.148881 1_455
F16 Xe5 1.967782 1_555
F17 H4 1.457931 1_554
F17 Xe4 2.148881 1_565
F18 H5 0.975944 1_555
F19 Xe1 1.994114 1_555
F20 Xe0 2.002637 1_555
F21 Xe4 1.953171 1_555
F22 Xe4 2.002637 1_555
F23 H2 1.457931 1_655
F23 Xe1 2.148881 1_554
F24 Xe1 1.953171 1_555
F25 H0 1.457931 1_545
F25 Xe2 2.148881 1_655
F26 Xe2 1.967781 1_555
F27 H5 1.457931 1_455
F27 Xe5 2.148881 1_556
F28 Xe0 1.967781 1_555
F29 Xe2 1.953171 1_555
F30 Xe4 1.967782 1_555
F31 H3 0.975943 1_555
F32 H2 0.975944 1_555
F33 Xe1 2.002637 1_555
F34 Xe5 1.994114 1_555
F35 Xe3 1.967782 1_555
F36 Xe2 2.002637 1_555
F37 Xe0 1.967003 1_455
F38 Xe0 1.994114 1_555
F39 Xe4 1.994114 1_555
F40 Xe0 1.953171 1_555
F41 Xe3 1.953171 1_555
