# generated using pymatgen
data_EuPAu
_symmetry_space_group_name_H-M   'P 1'
_cell_length_a   4.28962320
_cell_length_b   4.28962366
_cell_length_c   8.32010509
_cell_angle_alpha   90.00000000
_cell_angle_beta   90.00000000
_cell_angle_gamma   119.99999649
_symmetry_Int_Tables_number   1
_chemical_formula_structural   EuPAu
_chemical_formula_sum   'Eu2 P2 Au2'
_cell_volume   132.58603892
_cell_formula_units_Z   2
loop_
 _symmetry_equiv_pos_site_id
 _symmetry_equiv_pos_as_xyz
  1  'x, y, z'
loop_
 _atom_site_type_symbol
 _atom_site_label
 _atom_site_symmetry_multiplicity
 _atom_site_fract_x
 _atom_site_fract_y
 _atom_site_fract_z
 _atom_site_occupancy
  Eu  Eu0  1  0.00000000  -0.00000000  0.50000000  1
  Eu  Eu1  1  0.00000000  -0.00000000  0.00000000  1
  P  P0  1  0.66666700  0.33333300  0.74998533  1
  P  P1  1  0.33333300  0.66666700  0.25001467  1
  Au  Au0  1  0.33333300  0.66666700  0.74986135  1
  Au  Au1  1  0.66666700  0.33333300  0.25013865  1
loop_
_geom_bond_atom_site_label_1
_geom_bond_atom_site_label_2
_geom_bond_distance
_geom_bond_site_symmetry_2
Eu0 P1 3.234132 1_545
Eu0 P0 3.234132 1_455
Eu0 P0 3.234135 1_555
Eu0 P1 3.234135 1_445
Eu0 P1 3.234135 1_555
Eu0 P0 3.234135 1_445
Eu1 P1 3.234289 1_545
Eu1 P0 3.234289 1_454
Eu1 P0 3.234292 1_554
Eu1 P1 3.234292 1_445
Eu1 P1 3.234292 1_555
Eu1 P0 3.234292 1_444
Au0 P0 2.476613 1_455
Au0 P0 2.476613 1_565
Au0 P0 2.476620 1_555
Au0 Eu0 3.233469 1_565
Au0 Eu0 3.233472 1_665
Au0 Eu0 3.233472 1_555
Au0 Eu1 3.234953 1_566
Au0 Eu1 3.234956 1_666
Au0 Eu1 3.234956 1_556
Au1 P1 2.476613 1_655
Au1 P1 2.476613 1_545
Au1 P1 2.476620 1_555
Au1 Eu0 3.233469 1_655
Au1 Eu0 3.233472 1_555
Au1 Eu0 3.233472 1_665
Au1 Eu1 3.234953 1_655
Au1 Eu1 3.234956 1_555
Au1 Eu1 3.234956 1_665
