# generated using pymatgen
data_MgTi4Zn2O10
_symmetry_space_group_name_H-M   'P 1'
_cell_length_a   3.31177632
_cell_length_b   5.43589490
_cell_length_c   12.85419767
_cell_angle_alpha   81.12241593
_cell_angle_beta   90.00000000
_cell_angle_gamma   90.00000000
_symmetry_Int_Tables_number   1
_chemical_formula_structural   MgTi4Zn2O10
_chemical_formula_sum   'Mg1 Ti4 Zn2 O10'
_cell_volume   228.63509673
_cell_formula_units_Z   1
loop_
 _symmetry_equiv_pos_site_id
 _symmetry_equiv_pos_as_xyz
  1  'x, y, z'
loop_
 _atom_site_type_symbol
 _atom_site_label
 _atom_site_symmetry_multiplicity
 _atom_site_fract_x
 _atom_site_fract_y
 _atom_site_fract_z
 _atom_site_occupancy
  Mg  Mg0  1  0.25000000  0.00436778  0.53964061  1
  Ti  Ti0  1  0.24999900  0.41658180  0.09744684  1
  Ti  Ti1  1  0.75000000  0.59972884  0.89410982  1
  Ti  Ti2  1  0.75000000  0.49617385  0.61659637  1
  Ti  Ti3  1  0.24999900  0.46590341  0.37412734  1
  Zn  Zn0  1  0.75000000  0.86114217  0.16806289  1
  Zn  Zn1  1  0.24999900  0.15739372  0.82817825  1
  O  O0  1  0.75000000  0.43697090  0.76565347  1
  O  O1  1  0.24999900  0.58635674  0.23017916  1
  O  O2  1  0.75000000  0.60888345  0.06000860  1
  O  O3  1  0.24999900  0.40945822  0.93510231  1
  O  O4  1  0.75000000  0.55705830  0.43157979  1
  O  O5  1  0.24999900  0.33128114  0.59742698  1
  O  O6  1  0.24999900  0.14354094  0.39120920  1
  O  O7  1  0.75000000  0.83676440  0.59461033  1
  O  O8  1  0.75000000  0.93888043  0.84832125  1
  O  O9  1  0.24999900  0.08006791  0.14336980  1
loop_
_geom_bond_atom_site_label_1
_geom_bond_atom_site_label_2
_geom_bond_distance
_geom_bond_site_symmetry_2
Mg0 O6 1.940918 1_555
Mg0 O7 1.967892 1_445
Mg0 O7 1.967892 1_545
Mg0 O5 2.029071 1_555
O0 Ti2 1.893237 1_555
O0 Ti1 1.990006 1_555
O0 Zn1 2.306632 1_655
O0 Zn1 2.306637 1_555
O1 Ti3 1.865083 1_555
O1 Ti0 2.061239 1_555
O1 Zn0 2.289657 1_455
O1 Zn0 2.289662 1_555
O2 Ti0 1.977624 1_655
O2 Ti0 1.977630 1_555
O2 Zn0 2.096990 1_555
O2 Ti1 2.140740 1_554
O3 Ti1 1.980190 1_455
O3 Ti1 1.980195 1_555
O3 Zn1 2.085121 1_555
O3 Ti0 2.093134 1_556
O4 Ti3 1.909403 1_655
O4 Ti3 1.909408 1_555
O4 Ti2 2.350026 1_555
O5 Ti2 1.916837 1_455
O5 Ti2 1.916843 1_555
O6 Ti3 1.732083 1_555
O7 Ti2 1.829238 1_555
O8 Ti1 1.846711 1_555
O8 Zn1 2.031004 1_665
O8 Zn1 2.031009 1_565
O9 Ti0 1.833397 1_555
O9 Zn0 2.035277 1_445
O9 Zn0 2.035282 1_545
