# generated using pymatgen
data_Hf5FeTe3
_symmetry_space_group_name_H-M   'P 1'
_cell_length_a   3.67230224
_cell_length_b   13.31542917
_cell_length_c   18.01059137
_cell_angle_alpha   90.00427688
_cell_angle_beta   89.99988551
_cell_angle_gamma   89.99985241
_symmetry_Int_Tables_number   1
_chemical_formula_structural   Hf5FeTe3
_chemical_formula_sum   'Hf20 Fe4 Te12'
_cell_volume   880.68694402
_cell_formula_units_Z   4
loop_
 _symmetry_equiv_pos_site_id
 _symmetry_equiv_pos_as_xyz
  1  'x, y, z'
loop_
 _atom_site_type_symbol
 _atom_site_label
 _atom_site_symmetry_multiplicity
 _atom_site_fract_x
 _atom_site_fract_y
 _atom_site_fract_z
 _atom_site_occupancy
  Hf  Hf0  1  0.25000209  0.64121974  0.24389627  1
  Hf  Hf1  1  0.74999466  0.35873469  0.75607630  1
  Hf  Hf2  1  0.75001208  0.14114250  0.25603304  1
  Hf  Hf3  1  0.24999528  0.85888975  0.74395802  1
  Hf  Hf4  1  0.24999661  0.56938903  0.95737317  1
  Hf  Hf5  1  0.74999666  0.43058896  0.04262770  1
  Hf  Hf6  1  0.74999596  0.06934150  0.54265905  1
  Hf  Hf7  1  0.25000018  0.93067436  0.45738284  1
  Hf  Hf8  1  0.75000488  0.84685593  0.58771484  1
  Hf  Hf9  1  0.24999774  0.15317777  0.41232180  1
  Hf  Hf10  1  0.25000223  0.34680361  0.91231068  1
  Hf  Hf11  1  0.74999521  0.65318685  0.08770121  1
  Hf  Hf12  1  0.24999428  0.22435372  0.62230493  1
  Hf  Hf13  1  0.75000594  0.77562045  0.37771073  1
  Hf  Hf14  1  0.74999524  0.72450527  0.87776023  1
  Hf  Hf15  1  0.25000362  0.27550756  0.12223560  1
  Hf  Hf16  1  0.24999444  0.56144481  0.78827966  1
  Hf  Hf17  1  0.74999598  0.43856960  0.21171259  1
  Hf  Hf18  1  0.74999450  0.06143585  0.71174006  1
  Hf  Hf19  1  0.24999869  0.93853936  0.28826393  1
  Fe  Fe0  1  0.24999941  0.52348023  0.13056953  1
  Fe  Fe1  1  0.74999997  0.47650749  0.86944956  1
  Fe  Fe2  1  0.75000146  0.02350366  0.36941433  1
  Fe  Fe3  1  0.25000201  0.97649851  0.63057935  1
  Te  Te0  1  0.24999516  0.44193461  0.64900043  1
  Te  Te1  1  0.74999248  0.55805976  0.35099803  1
  Te  Te2  1  0.74998558  0.94197143  0.85107443  1
  Te  Te3  1  0.25003422  0.05804736  0.14891230  1
  Te  Te4  1  0.74998747  0.69459663  0.70669585  1
  Te  Te5  1  0.24999648  0.30541749  0.29328262  1
  Te  Te6  1  0.24998675  0.19452684  0.79337432  1
  Te  Te7  1  0.75000960  0.80545274  0.20661814  1
  Te  Te8  1  0.24998757  0.78591642  0.00058970  1
  Te  Te9  1  0.75005888  0.21409024  0.99939288  1
  Te  Te10  1  0.74999989  0.28586385  0.49942272  1
  Te  Te11  1  0.24998677  0.71415142  0.50056316  1
loop_
_geom_bond_atom_site_label_1
_geom_bond_atom_site_label_2
_geom_bond_distance
_geom_bond_site_symmetry_2
Hf0 Te1 2.884214 1_555
Hf0 Te1 2.884258 1_455
Hf0 Te7 2.933355 1_455
Hf0 Te7 2.933395 1_555
Hf1 Te0 2.884128 1_555
Hf1 Te0 2.884129 1_655
Hf1 Te6 2.933186 1_655
Hf1 Te6 2.933228 1_555
Hf2 Te3 2.883975 1_555
Hf2 Te3 2.884070 1_655
Hf2 Te5 2.933568 1_655
Hf2 Te5 2.933631 1_555
Hf3 Te2 2.883883 1_555
Hf3 Te2 2.883920 1_455
Hf3 Te4 2.933809 1_555
Hf3 Te4 2.933853 1_455
Hf4 Te8 2.986316 1_556
Hf5 Te9 2.986034 1_554
Hf6 Te10 2.986457 1_555
Hf7 Te11 2.986201 1_555
Hf8 Te4 2.950100 1_555
Hf8 Te11 2.992813 1_655
Hf8 Te11 2.992904 1_555
Hf9 Te5 2.950682 1_555
Hf9 Te10 2.992224 1_455
Hf9 Te10 2.992243 1_555
Hf10 Te6 2.949456 1_555
Hf10 Te9 2.992283 1_455
Hf10 Te9 2.992537 1_555
Hf11 Te7 2.949102 1_555
Hf11 Te8 2.992798 1_655
Hf11 Te8 2.992830 1_555
Hf12 Te0 2.936772 1_555
Hf12 Te10 2.990091 1_455
Hf12 Te10 2.990113 1_555
Hf12 Te6 3.106582 1_555
Hf13 Te1 2.936558 1_555
Hf13 Te11 2.989513 1_655
Hf13 Te11 2.989597 1_555
Hf13 Te7 3.107006 1_555
Hf14 Te2 2.935307 1_555
Hf14 Te8 2.988934 1_656
Hf14 Te8 2.988961 1_556
Hf14 Te4 3.106573 1_555
Hf15 Te3 2.935202 1_555
Hf15 Te9 2.989026 1_454
Hf15 Te9 2.989267 1_554
Hf15 Te5 3.106265 1_555
Hf16 Te4 2.945207 1_555
Hf16 Te4 2.945237 1_455
Hf16 Te0 2.970574 1_555
Hf17 Te5 2.945100 1_555
Hf17 Te5 2.945100 1_655
Hf17 Te1 2.970526 1_555
Hf18 Te6 2.945043 1_655
Hf18 Te6 2.945069 1_555
Hf18 Te2 2.971287 1_545
Hf19 Te7 2.945104 1_455
Hf19 Te7 2.945145 1_555
Hf19 Te3 2.971861 1_565
Fe0 Hf0 2.573593 1_555
Fe0 Hf17 2.604947 1_555
Fe0 Hf17 2.604964 1_455
Fe0 Hf11 2.636397 1_555
Fe0 Hf11 2.636414 1_455
Fe0 Hf5 2.722072 1_555
Fe0 Hf5 2.722094 1_455
Fe1 Hf1 2.574528 1_555
Fe1 Hf16 2.605367 1_655
Fe1 Hf16 2.605395 1_555
Fe1 Hf10 2.636340 1_555
Fe1 Hf10 2.636348 1_655
Fe1 Hf4 2.721830 1_655
Fe1 Hf4 2.721838 1_555
Fe2 Hf2 2.573742 1_555
Fe2 Hf19 2.605234 1_645
Fe2 Hf19 2.605257 1_545
Fe2 Hf9 2.636248 1_655
Fe2 Hf9 2.636259 1_555
Fe2 Hf7 2.722092 1_645
Fe2 Hf7 2.722099 1_545
Fe3 Hf3 2.573461 1_555
Fe3 Hf18 2.605178 1_565
Fe3 Hf18 2.605209 1_465
Fe3 Hf8 2.635748 1_455
Fe3 Hf8 2.635755 1_555
Fe3 Hf6 2.721658 1_565
Fe3 Hf6 2.721688 1_465
