# generated using pymatgen
data_RbCa2Nb3O10
_symmetry_space_group_name_H-M   'P 1'
_cell_length_a   3.96610100
_cell_length_b   3.96610100
_cell_length_c   15.28333700
_cell_angle_alpha   90.00000000
_cell_angle_beta   90.00000000
_cell_angle_gamma   90.00000000
_symmetry_Int_Tables_number   1
_chemical_formula_structural   RbCa2Nb3O10
_chemical_formula_sum   'Rb1 Ca2 Nb3 O10'
_cell_volume   240.40623600
_cell_formula_units_Z   1
loop_
 _symmetry_equiv_pos_site_id
 _symmetry_equiv_pos_as_xyz
  1  'x, y, z'
loop_
 _atom_site_type_symbol
 _atom_site_label
 _atom_site_symmetry_multiplicity
 _atom_site_fract_x
 _atom_site_fract_y
 _atom_site_fract_z
 _atom_site_occupancy
  Rb  Rb0  1  0.50000000  0.50000000  0.50000000  1
  Ca  Ca0  1  0.50000000  0.50000000  0.84954500  1
  Ca  Ca1  1  0.50000000  0.50000000  0.15045500  1
  Nb  Nb0  1  0.00000000  0.00000000  0.00000000  1
  Nb  Nb1  1  0.00000000  0.00000000  0.28172300  1
  Nb  Nb2  1  0.00000000  0.00000000  0.71827700  1
  O  O0  1  0.00000000  0.00000000  0.60036600  1
  O  O1  1  0.00000000  0.00000000  0.39963400  1
  O  O2  1  0.50000000  0.00000000  0.74619300  1
  O  O3  1  0.00000000  0.50000000  0.74619300  1
  O  O4  1  0.50000000  0.00000000  0.25380700  1
  O  O5  1  0.00000000  0.50000000  0.25380700  1
  O  O6  1  0.00000000  0.50000000  0.00000000  1
  O  O7  1  0.50000000  0.00000000  0.00000000  1
  O  O8  1  0.00000000  0.00000000  0.12960900  1
  O  O9  1  0.00000000  0.00000000  0.87039100  1
loop_
_geom_bond_atom_site_label_1
_geom_bond_atom_site_label_2
_geom_bond_distance
_geom_bond_site_symmetry_2
Ca0 O2 2.535253 1_565
Ca0 O2 2.535253 1_555
Ca0 O3 2.535253 1_555
Ca0 O3 2.535253 1_655
Ca0 O9 2.822496 1_565
Ca0 O9 2.822496 1_555
Ca0 O9 2.822496 1_655
Ca0 O9 2.822496 1_665
Ca0 O6 3.036442 1_556
Ca0 O7 3.036442 1_556
Ca0 O6 3.036442 1_656
Ca0 O7 3.036442 1_566
Ca1 O4 2.535253 1_555
Ca1 O5 2.535253 1_555
Ca1 O5 2.535253 1_655
Ca1 O4 2.535253 1_565
Ca1 O8 2.822496 1_555
Ca1 O8 2.822496 1_665
Ca1 O8 2.822496 1_565
Ca1 O8 2.822496 1_655
Ca1 O6 3.036442 1_555
Ca1 O6 3.036442 1_655
Ca1 O7 3.036442 1_555
Ca1 O7 3.036442 1_565
Nb0 O9 1.980858 1_554
Nb0 O8 1.980858 1_555
Nb0 O7 1.983051 1_555
Nb0 O6 1.983051 1_545
Nb0 O7 1.983051 1_455
Nb0 O6 1.983051 1_555
Nb1 O1 1.802074 1_555
Nb1 O5 2.028428 1_555
Nb1 O5 2.028428 1_545
Nb1 O4 2.028428 1_455
Nb1 O4 2.028428 1_555
Nb1 O8 2.324810 1_555
Nb2 O0 1.802074 1_555
Nb2 O3 2.028428 1_545
Nb2 O2 2.028428 1_455
Nb2 O2 2.028428 1_555
Nb2 O3 2.028428 1_555
Nb2 O9 2.324810 1_555
O0 Rb0 3.196547 1_545
O0 Rb0 3.196547 1_445
O0 Rb0 3.196547 1_455
O0 Rb0 3.196547 1_555
O1 Rb0 3.196547 1_455
O1 Rb0 3.196547 1_555
O1 Rb0 3.196547 1_545
O1 Rb0 3.196547 1_445
