# generated using pymatgen
data_MgZnCu2SnS4
_symmetry_space_group_name_H-M   'P 1'
_cell_length_a   6.36202800
_cell_length_b   5.80493000
_cell_length_c   6.64526845
_cell_angle_alpha   115.89809129
_cell_angle_beta   118.59978495
_cell_angle_gamma   90.00000000
_symmetry_Int_Tables_number   1
_chemical_formula_structural   MgZnCu2SnS4
_chemical_formula_sum   'Mg1 Zn1 Cu2 Sn1 S4'
_cell_volume   186.91833229
_cell_formula_units_Z   1
loop_
 _symmetry_equiv_pos_site_id
 _symmetry_equiv_pos_as_xyz
  1  'x, y, z'
loop_
 _atom_site_type_symbol
 _atom_site_label
 _atom_site_symmetry_multiplicity
 _atom_site_fract_x
 _atom_site_fract_y
 _atom_site_fract_z
 _atom_site_occupancy
  Mg  Mg0  1  0.00000000  0.50000000  0.00000000  1
  Zn  Zn0  1  0.00000000  0.00000000  0.00000000  1
  Cu  Cu0  1  0.73227100  0.23227100  0.46454200  1
  Cu  Cu1  1  0.26772900  0.76772900  0.53545800  1
  Sn  Sn0  1  0.50000000  0.50000000  0.00000000  1
  S  S0  1  0.93752600  0.91116800  0.28585500  1
  S  S1  1  0.34833000  0.37468800  0.28585500  1
  S  S2  1  0.06247400  0.62531200  0.71414500  1
  S  S3  1  0.65167000  0.08883200  0.71414500  1
loop_
_geom_bond_atom_site_label_1
_geom_bond_atom_site_label_2
_geom_bond_distance
_geom_bond_site_symmetry_2
Mg0 S2 2.495084 1_554
Mg0 S0 2.495087 1_455
Mg0 S1 2.495087 1_555
Mg0 S3 2.495090 1_454
Mg0 Sn0 3.181014 1_455
Mg0 Sn0 3.181014 1_555
Cu0 S2 2.393364 1_655
Cu0 S3 2.393371 1_555
Cu0 S1 2.478034 1_555
Cu0 S0 2.478035 1_545
Cu0 Mg0 2.710096 1_656
Cu1 S1 2.393367 1_555
Cu1 S0 2.393368 1_455
Cu1 S3 2.478030 1_565
Cu1 S2 2.478039 1_555
Cu1 Mg0 2.710096 1_555
S0 Zn0 2.368714 1_665
S0 Sn0 2.833832 1_555
S1 Zn0 2.368721 1_555
S1 Sn0 2.833824 1_555
S2 Zn0 2.368717 1_566
S2 Sn0 2.833829 1_556
S3 Zn0 2.368718 1_656
S3 Sn0 2.833827 1_556
