# generated using pymatgen
data_MgCr2O4
_symmetry_space_group_name_H-M   'P 1'
_cell_length_a   3.01461576
_cell_length_b   3.01461626
_cell_length_c   10.29167984
_cell_angle_alpha   89.91953985
_cell_angle_beta   90.02544984
_cell_angle_gamma   119.99978532
_symmetry_Int_Tables_number   1
_chemical_formula_structural   MgCr2O4
_chemical_formula_sum   'Mg1 Cr2 O4'
_cell_volume   80.99932374
_cell_formula_units_Z   1
loop_
 _symmetry_equiv_pos_site_id
 _symmetry_equiv_pos_as_xyz
  1  'x, y, z'
loop_
 _atom_site_type_symbol
 _atom_site_label
 _atom_site_symmetry_multiplicity
 _atom_site_fract_x
 _atom_site_fract_y
 _atom_site_fract_z
 _atom_site_occupancy
  Mg  Mg0  1  0.66466100  0.33298800  0.75176800  1
  Cr  Cr0  1  0.99840500  0.00066500  0.49624700  1
  Cr  Cr1  1  0.99776500  0.99904600  0.00734600  1
  O  O0  1  0.66519000  0.33443200  0.41386900  1
  O  O1  1  0.66435700  0.33192500  0.08968400  1
  O  O2  1  0.33163400  0.66646000  0.62681500  1
  O  O3  1  0.33132800  0.66625400  0.87672700  1
loop_
_geom_bond_atom_site_label_1
_geom_bond_atom_site_label_2
_geom_bond_distance
_geom_bond_site_symmetry_2
Mg0 O2 2.162575 1_555
Mg0 O3 2.162802 1_545
Mg0 O2 2.164371 1_655
Mg0 O3 2.164381 1_655
Mg0 O3 2.165029 1_555
Mg0 O2 2.165156 1_545
Cr0 O0 1.935921 1_555
Cr0 O0 1.936022 1_545
Cr0 O0 1.936050 1_655
Cr0 O2 2.198517 1_655
Cr0 O2 2.198765 1_545
Cr0 O2 2.199313 1_645
Cr1 O1 1.935736 1_565
Cr1 O1 1.935846 1_555
Cr1 O1 1.935871 1_665
Cr1 O3 2.198854 1_664
Cr1 O3 2.199030 1_554
Cr1 O3 2.199674 1_654
