# generated using pymatgen
data_Na3YMgSi(SO6)2
_symmetry_space_group_name_H-M   'P 1'
_cell_length_a   9.23534613
_cell_length_b   9.25627165
_cell_length_c   23.01940539
_cell_angle_alpha   89.69790041
_cell_angle_beta   90.00000000
_cell_angle_gamma   119.92524522
_symmetry_Int_Tables_number   1
_chemical_formula_structural   Na3YMgSi(SO6)2
_chemical_formula_sum   'Na18 Y6 Mg6 Si6 S12 O72'
_cell_volume   1705.42496712
_cell_formula_units_Z   6
loop_
 _symmetry_equiv_pos_site_id
 _symmetry_equiv_pos_as_xyz
  1  'x, y, z'
loop_
 _atom_site_type_symbol
 _atom_site_label
 _atom_site_symmetry_multiplicity
 _atom_site_fract_x
 _atom_site_fract_y
 _atom_site_fract_z
 _atom_site_occupancy
  Na  Na0  1  0.62423678  0.00796143  0.25377773  1
  Na  Na1  1  0.00852590  0.64676928  0.23833055  1
  Na  Na2  1  0.63824338  0.64676928  0.73833055  1
  Na  Na3  1  0.38372466  0.00796143  0.75377773  1
  Na  Na4  1  0.32058218  0.35083421  0.58544113  1
  Na  Na5  1  0.65315131  0.94332481  0.57908954  1
  Na  Na6  1  0.29017450  0.94332481  0.07908954  1
  Na  Na7  1  0.03025303  0.35083421  0.08544113  1
  Na  Na8  1  0.98674517  0.68396029  0.92542367  1
  Na  Na9  1  0.68678606  0.02659581  0.90430228  1
  Na  Na10  1  0.33980876  0.02659581  0.40430228  1
  Na  Na11  1  0.69721412  0.68396029  0.42542367  1
  Na  Na12  1  0.96997093  0.98255293  0.49420139  1
  Na  Na13  1  0.01258200  0.98255293  0.99420139  1
  Na  Na14  1  0.65653860  0.30409111  0.82816375  1
  Na  Na15  1  0.64755351  0.30409111  0.32816375  1
  Na  Na16  1  0.32672473  0.66840571  0.16187766  1
  Na  Na17  1  0.34167999  0.66840571  0.66187766  1
  Y  Y0  1  0.98369816  0.98582970  0.64942073  1
  Y  Y1  1  0.00213154  0.98582970  0.14942073  1
  Y  Y2  1  0.65808341  0.33579488  0.98370036  1
  Y  Y3  1  0.67771247  0.33579488  0.48370036  1
  Y  Y4  1  0.33715958  0.67366237  0.31734317  1
  Y  Y5  1  0.33650179  0.67366237  0.81734317  1
  Mg  Mg0  1  0.00784021  0.01340635  0.34951344  1
  Mg  Mg1  1  0.00556614  0.01340635  0.84951344  1
  Mg  Mg2  1  0.67748043  0.33653551  0.68315028  1
  Mg  Mg3  1  0.65905608  0.33653551  0.18315028  1
  Mg  Mg4  1  0.31753277  0.67246743  0.01536665  1
  Mg  Mg5  1  0.35493367  0.67246743  0.51536665  1
  Si  Si0  1  0.30601015  0.01020099  0.25275320  1
  Si  Si1  1  0.70419083  0.01020099  0.75275320  1
  Si  Si2  1  0.65853226  0.62616861  0.58447155  1
  Si  Si3  1  0.96763735  0.62616861  0.08447155  1
  Si  Si4  1  0.32481823  0.96880220  0.91660708  1
  Si  Si5  1  0.64398296  0.96880220  0.41660708  1
  S  S0  1  0.70582806  0.69931154  0.25290446  1
  S  S1  1  0.99399252  0.29185118  0.24938002  1
  S  S2  1  0.29785866  0.29185118  0.74938002  1
  S  S3  1  0.99348348  0.69931154  0.75290446  1
  S  S4  1  0.97193888  0.34202816  0.58543168  1
  S  S5  1  0.37267571  0.03558373  0.58446556  1
  S  S6  1  0.66290902  0.03558373  0.08446556  1
  S  S7  1  0.37009027  0.34202816  0.08543168  1
  S  S8  1  0.62997987  0.67168094  0.91803635  1
  S  S9  1  0.03891711  0.36467544  0.92001230  1
  S  S10  1  0.32575732  0.36467544  0.42001230  1
  S  S11  1  0.04170007  0.67168094  0.41803635  1
  O  O0  1  0.21093946  0.02154031  0.31101575  1
  O  O1  1  0.80727406  0.78118051  0.30487072  1
  O  O2  1  0.97466025  0.18310784  0.29893363  1
  O  O3  1  0.20844759  0.18310784  0.79893363  1
  O  O4  1  0.97390646  0.78118051  0.80487072  1
  O  O5  1  0.81060085  0.02154031  0.81101575  1
  O  O6  1  0.78580893  0.97603110  0.69454403  1
  O  O7  1  0.20710521  0.22086095  0.69416907  1
  O  O8  1  0.02927398  0.80886055  0.70110703  1
  O  O9  1  0.77958657  0.80886055  0.20110703  1
  O  O10  1  0.01375574  0.22086095  0.19416907  1
  O  O11  1  0.19022217  0.97603110  0.19454403  1
  O  O12  1  0.88515483  0.35649548  0.63683511  1
  O  O13  1  0.47989220  0.11673381  0.63589025  1
  O  O14  1  0.64018598  0.51094904  0.64164767  1
  O  O15  1  0.87076406  0.51094904  0.14164767  1
  O  O16  1  0.63684261  0.11673381  0.13589025  1
  O  O17  1  0.47134165  0.35649548  0.13683511  1
  O  O18  1  0.43945286  0.30413267  0.03321887  1
  O  O19  1  0.86618719  0.54154197  0.02430499  1
  O  O20  1  0.68622670  0.13720209  0.03118083  1
  O  O21  1  0.45097639  0.13720209  0.53118083  1
  O  O22  1  0.67535579  0.54154197  0.52430499  1
  O  O23  1  0.86468081  0.30413267  0.53321887  1
  O  O24  1  0.53553880  0.68136617  0.96729122  1
  O  O25  1  0.13762142  0.44504061  0.97253235  1
  O  O26  1  0.30053978  0.85187751  0.97411695  1
  O  O27  1  0.55133673  0.85187751  0.47411695  1
  O  O28  1  0.30741819  0.44504061  0.47253235  1
  O  O29  1  0.14582637  0.68136617  0.46729122  1
  O  O30  1  0.10994493  0.64654572  0.36265888  1
  O  O31  1  0.52643346  0.88300293  0.35831728  1
  O  O32  1  0.34807669  0.46831372  0.36788634  1
  O  O33  1  0.12023603  0.46831372  0.86788634  1
  O  O34  1  0.35656847  0.88300293  0.85831728  1
  O  O35  1  0.53659979  0.64654572  0.86265888  1
  O  O36  1  0.03190032  0.82794002  0.41475823  1
  O  O37  1  0.82473927  0.97617107  0.40902652  1
  O  O38  1  0.18048336  0.19435014  0.41474743  1
  O  O39  1  0.01386678  0.19435014  0.91474743  1
  O  O40  1  0.15143179  0.97617107  0.90902652  1
  O  O41  1  0.79603971  0.82794002  0.91475823  1
  O  O42  1  0.99954851  0.19498189  0.59056037  1
  O  O43  1  0.20920766  0.02976484  0.58971700  1
  O  O44  1  0.81981677  0.82011602  0.58437417  1
  O  O45  1  0.00029925  0.82011602  0.08437417  1
  O  O46  1  0.82055718  0.02976484  0.08971700  1
  O  O47  1  0.19543338  0.19498189  0.09056037  1
  O  O48  1  0.67065802  0.16794395  0.74493133  1
  O  O49  1  0.46771897  0.30860169  0.74689074  1
  O  O50  1  0.83736633  0.53697288  0.74536630  1
  O  O51  1  0.69960755  0.53697288  0.24536630  1
  O  O52  1  0.84088373  0.30860169  0.24689074  1
  O  O53  1  0.49728693  0.16794395  0.24493133  1
  O  O54  1  0.66256895  0.52881884  0.92143474  1
  O  O55  1  0.86916206  0.35120084  0.92246824  1
  O  O56  1  0.50310793  0.14863521  0.91926874  1
  O  O57  1  0.64552828  0.14863521  0.41926874  1
  O  O58  1  0.48203978  0.35120084  0.42246824  1
  O  O59  1  0.86625089  0.52881884  0.42143474  1
  O  O60  1  0.35551514  0.49259429  0.07773571  1
  O  O61  1  0.15582554  0.64159932  0.08183894  1
  O  O62  1  0.51544524  0.86691330  0.07872121  1
  O  O63  1  0.35146706  0.86691330  0.57872121  1
  O  O64  1  0.48577277  0.64159932  0.58183894  1
  O  O65  1  0.13707816  0.49259429  0.57773571  1
  O  O66  1  0.31855709  0.83330273  0.25267725  1
  O  O67  1  0.53394239  0.67449549  0.25694803  1
  O  O68  1  0.14228106  0.46301986  0.25484955  1
  O  O69  1  0.32073780  0.46301986  0.75484955  1
  O  O70  1  0.14055209  0.67449549  0.75694803  1
  O  O71  1  0.51474464  0.83330273  0.75267725  1
loop_
_geom_bond_atom_site_label_1
_geom_bond_atom_site_label_2
_geom_bond_distance
_geom_bond_site_symmetry_2
Na0 O53 2.310414 1_555
Na0 O66 2.455753 1_545
Na0 O52 2.492480 1_555
Na0 O31 2.621623 1_545
Na0 O67 2.767240 1_545
Na0 O16 2.871525 1_555
Na1 O51 2.510750 1_455
Na1 O66 2.522281 1_555
Na1 O15 2.566332 1_455
Na1 O68 2.579296 1_555
Na1 O52 2.718831 1_455
Na1 O11 2.825845 1_555
Na1 O30 3.011646 1_555
Na2 O50 2.510759 1_555
Na2 O71 2.522288 1_555
Na2 O14 2.566334 1_555
Na2 O69 2.579303 1_555
Na2 O49 2.718831 1_555
Na2 O6 2.825845 1_555
Na2 O35 3.011648 1_555
Na3 O48 2.310422 1_555
Na3 O71 2.455745 1_545
Na3 O49 2.492478 1_555
Na3 O34 2.621622 1_545
Na3 O70 2.767242 1_545
Na3 O13 2.871527 1_555
Na4 O64 2.340704 1_555
Na4 O42 2.572184 1_455
Na4 O65 2.615649 1_555
Na4 O43 2.616652 1_555
Na4 O7 2.742304 1_555
Na4 O28 2.759044 1_555
Na4 O14 2.870254 1_555
Na5 O44 2.331219 1_555
Na5 O64 2.425744 1_555
Na5 O63 2.509365 1_555
Na5 O27 2.582076 1_555
Na5 O6 2.879996 1_555
Na5 O42 2.881218 1_565
Na6 O45 2.331227 1_555
Na6 O61 2.425743 1_555
Na6 O62 2.509347 1_555
Na6 O26 2.582072 1_554
Na6 O11 2.880000 1_555
Na6 O47 2.881225 1_565
Na7 O61 2.340705 1_555
Na7 O47 2.572176 1_555
Na7 O60 2.615633 1_555
Na7 O46 2.616654 1_455
Na7 O10 2.742302 1_555
Na7 O25 2.759040 1_554
Na7 O15 2.870254 1_455
Na8 O40 2.378297 1_655
Na8 O19 2.581168 1_556
Na8 O54 2.597256 1_555
Na8 O41 2.697555 1_555
Na8 O55 2.708497 1_555
Na8 O26 2.755875 1_655
Na8 O4 2.933418 1_555
Na9 O5 2.444483 1_555
Na9 O56 2.487628 1_555
Na9 O41 2.510722 1_545
Na9 O39 2.630141 1_655
Na9 O55 2.646420 1_555
Na9 O34 2.856257 1_545
Na10 O0 2.444478 1_555
Na10 O57 2.487645 1_555
Na10 O36 2.510715 1_545
Na10 O38 2.630133 1_555
Na10 O58 2.646419 1_555
Na10 O31 2.856257 1_545
Na11 O37 2.378297 1_555
Na11 O22 2.581172 1_555
Na11 O59 2.597272 1_555
Na11 O36 2.697564 1_655
Na11 O58 2.708494 1_555
Na11 O27 2.755875 1_555
Na11 O1 2.933420 1_555
Na12 O37 2.359851 1_555
Na12 O44 2.525689 1_555
Na12 O36 2.561995 1_655
Na12 O38 2.669770 1_665
Na12 O42 2.893291 1_565
Na12 O43 2.992271 1_665
Na13 O40 2.359851 1_555
Na13 O45 2.525689 1_556
Na13 O41 2.561994 1_455
Na13 O39 2.669770 1_565
Na13 O47 2.893291 1_566
Na13 O46 2.992271 1_466
Na14 O48 2.337835 1_555
Na14 O56 2.531878 1_555
Na14 O49 2.571878 1_555
Na14 O50 2.726383 1_555
Na14 O55 2.813226 1_555
Na14 O54 2.978488 1_555
Na15 O53 2.337835 1_555
Na15 O57 2.531878 1_555
Na15 O52 2.571878 1_555
Na15 O51 2.726383 1_555
Na15 O58 2.813226 1_555
Na15 O59 2.978488 1_555
Na16 O61 2.358246 1_555
Na16 O62 2.616442 1_555
Na16 O66 2.617753 1_555
Na16 O60 2.633538 1_555
Na16 O68 2.796806 1_555
Na16 O67 2.889389 1_555
Na17 O64 2.358245 1_555
Na17 O63 2.616442 1_555
Na17 O71 2.617753 1_555
Na17 O65 2.633538 1_555
Na17 O69 2.796806 1_555
Na17 O70 2.889389 1_555
Mg0 O0 2.041476 1_555
Mg0 O37 2.066052 1_445
Mg0 O2 2.092348 1_455
Mg0 O38 2.228096 1_555
Mg0 O1 2.271192 1_445
Mg0 O36 2.367621 1_545
Mg1 O5 2.041476 1_455
Mg1 O40 2.066052 1_545
Mg1 O3 2.092348 1_555
Mg1 O39 2.228096 1_555
Mg1 O4 2.271192 1_445
Mg1 O41 2.367621 1_445
Mg2 O14 2.043583 1_555
Mg2 O48 2.083330 1_555
Mg2 O12 2.119833 1_555
Mg2 O50 2.228968 1_555
Mg2 O13 2.229771 1_555
Mg2 O49 2.338544 1_555
Mg3 O15 2.043583 1_555
Mg3 O53 2.083330 1_555
Mg3 O17 2.119833 1_555
Mg3 O51 2.228968 1_555
Mg3 O16 2.229771 1_555
Mg3 O52 2.338544 1_555
Mg4 O26 1.981788 1_554
Mg4 O61 2.054985 1_555
Mg4 O25 2.167153 1_554
Mg4 O24 2.262454 1_554
Mg4 O62 2.335063 1_555
Mg4 O60 2.348160 1_555
Mg5 O27 1.981788 1_555
Mg5 O64 2.054985 1_555
Mg5 O28 2.167153 1_555
Mg5 O29 2.262454 1_555
Mg5 O63 2.335063 1_555
Mg5 O65 2.348160 1_555
O0 Si0 1.635263 1_555
O1 S0 1.477899 1_555
O2 S1 1.467926 1_555
O3 S2 1.467926 1_555
O4 S3 1.477899 1_555
O5 Si1 1.635263 1_555
O6 Si1 1.644988 1_565
O6 Y0 2.064171 1_555
O7 S2 1.486209 1_555
O7 Y0 2.365599 1_445
O8 S3 1.487282 1_455
O8 Y0 2.223379 1_455
O9 S0 1.487282 1_555
O9 Y1 2.223379 1_655
O10 S1 1.486209 1_455
O10 Y1 2.365599 1_545
O11 Si0 1.644988 1_565
O11 Y1 2.064171 1_555
O12 S4 1.472822 1_555
O13 S5 1.487706 1_555
O14 Si2 1.644178 1_555
O15 Si3 1.644178 1_555
O16 S6 1.487706 1_555
O17 S7 1.472822 1_555
O18 S7 1.485467 1_555
O18 Y2 2.206394 1_554
O19 Si3 1.639766 1_555
O19 Y2 2.135694 1_554
O20 S6 1.490421 1_555
O20 Y2 2.257596 1_554
O21 S5 1.490421 1_555
O21 Y3 2.257596 1_555
O22 Si2 1.639766 1_555
O22 Y3 2.135694 1_555
O23 S4 1.485467 1_555
O23 Y3 2.206394 1_555
O24 S8 1.460614 1_555
O25 S9 1.476099 1_555
O26 Si4 1.648317 1_555
O27 Si5 1.648317 1_555
O28 S10 1.476099 1_555
O29 S11 1.460614 1_555
O30 S11 1.491912 1_555
O30 Y4 2.241915 1_555
O31 Si5 1.661537 1_555
O31 Y4 2.083191 1_555
O32 S10 1.480913 1_555
O32 Y4 2.268176 1_555
O33 S9 1.480913 1_555
O33 Y5 2.268176 1_555
O34 Si4 1.661537 1_555
O34 Y5 2.083191 1_555
O35 S8 1.491912 1_555
O35 Y5 2.241915 1_555
O36 S11 1.495107 1_555
O37 Si5 1.645628 1_555
O38 S10 1.480505 1_555
O39 S9 1.480509 1_555
O40 Si4 1.645619 1_555
O41 S8 1.495113 1_555
O42 S4 1.508685 1_555
O42 Y0 2.301049 1_545
O43 S5 1.488443 1_555
O43 Y0 2.353875 1_445
O44 Si2 1.665381 1_555
O44 Y0 2.143230 1_555
O45 Si3 1.665385 1_455
O45 Y1 2.143230 1_555
O46 S6 1.488434 1_555
O46 Y1 2.353875 1_645
O47 S7 1.508690 1_555
O47 Y1 2.301049 1_545
O48 Si1 1.645793 1_555
O49 S2 1.498477 1_555
O50 S3 1.485926 1_555
O51 S0 1.485931 1_555
O52 S1 1.498467 1_555
O53 Si0 1.645799 1_555
O54 S8 1.497121 1_555
O54 Y2 2.268810 1_555
O55 S9 1.510435 1_655
O55 Y2 2.351111 1_555
O56 Si4 1.658975 1_545
O56 Y2 2.191508 1_555
O57 Si5 1.658966 1_545
O57 Y3 2.191508 1_555
O58 S10 1.510453 1_555
O58 Y3 2.351111 1_555
O59 S11 1.497109 1_655
O59 Y3 2.268810 1_555
O60 S7 1.475270 1_555
O61 Si3 1.672391 1_455
O62 S6 1.480023 1_565
O63 S5 1.480016 1_565
O64 Si2 1.672409 1_555
O65 S4 1.475259 1_455
O66 Si0 1.698207 1_565
O66 Y4 2.158466 1_555
O67 S0 1.489061 1_555
O67 Y4 2.285077 1_555
O68 S1 1.496277 1_455
O68 Y4 2.374576 1_555
O69 S2 1.496281 1_555
O69 Y5 2.374576 1_555
O70 S3 1.489052 1_455
O70 Y5 2.285077 1_555
O71 Si1 1.698212 1_565
O71 Y5 2.158466 1_555
