# generated using pymatgen
data_NbNiTe2
_symmetry_space_group_name_H-M   'P 1'
_cell_length_a   6.33898452
_cell_length_b   7.50242636
_cell_length_c   7.98287569
_cell_angle_alpha   90.00000000
_cell_angle_beta   90.00000000
_cell_angle_gamma   90.00000000
_symmetry_Int_Tables_number   1
_chemical_formula_structural   NbNiTe2
_chemical_formula_sum   'Nb4 Ni4 Te8'
_cell_volume   379.64772256
_cell_formula_units_Z   4
loop_
 _symmetry_equiv_pos_site_id
 _symmetry_equiv_pos_as_xyz
  1  'x, y, z'
loop_
 _atom_site_type_symbol
 _atom_site_label
 _atom_site_symmetry_multiplicity
 _atom_site_fract_x
 _atom_site_fract_y
 _atom_site_fract_z
 _atom_site_occupancy
  Nb  Nb0  1  0.50000000  0.00000000  0.79499064  1
  Nb  Nb1  1  -0.00000000  0.00000000  0.70500936  1
  Nb  Nb2  1  -0.00000000  0.00000000  0.29499064  1
  Nb  Nb3  1  0.50000000  0.00000000  0.20500936  1
  Ni  Ni0  1  0.85797325  0.88353218  0.00000000  1
  Ni  Ni1  1  0.64202675  0.88353218  0.50000000  1
  Ni  Ni2  1  0.14202675  0.11646782  0.00000000  1
  Ni  Ni3  1  0.35797325  0.11646782  0.50000000  1
  Te  Te0  1  0.75061333  0.21531096  0.00000000  1
  Te  Te1  1  0.74938667  0.21531096  0.50000000  1
  Te  Te2  1  0.75000000  0.69098895  0.75000000  1
  Te  Te3  1  0.75000000  0.69098895  0.25000000  1
  Te  Te4  1  0.24938667  0.78468904  0.00000000  1
  Te  Te5  1  0.25061333  0.78468904  0.50000000  1
  Te  Te6  1  0.25000000  0.30901105  0.75000000  1
  Te  Te7  1  0.25000000  0.30901105  0.25000000  1
loop_
_geom_bond_atom_site_label_1
_geom_bond_atom_site_label_2
_geom_bond_distance
_geom_bond_site_symmetry_2
Nb0 Ni1 2.668237 1_545
Nb0 Ni3 2.668237 1_555
Nb0 Te4 2.794901 1_546
Nb0 Te0 2.794901 1_556
Nb0 Te2 2.831091 1_545
Nb0 Te6 2.831091 1_555
Nb0 Ni2 2.931051 1_556
Nb0 Ni0 2.931051 1_546
Nb1 Ni2 2.668237 1_556
Nb1 Ni0 2.668237 1_446
Nb1 Te1 2.794901 1_455
Nb1 Te5 2.794901 1_545
Nb1 Te2 2.831091 1_445
Nb1 Te6 2.831091 1_555
Nb1 Ni1 2.931051 1_445
Nb1 Ni3 2.931051 1_555
Nb2 Ni0 2.668237 1_445
Nb2 Ni2 2.668237 1_555
Nb2 Te5 2.794901 1_545
Nb2 Te1 2.794901 1_455
Nb2 Te3 2.831091 1_445
Nb2 Te7 2.831091 1_555
Nb2 Ni1 2.931051 1_445
Nb2 Ni3 2.931051 1_555
Nb3 Ni1 2.668237 1_545
Nb3 Ni3 2.668237 1_555
Nb3 Te4 2.794901 1_545
Nb3 Te0 2.794901 1_555
Nb3 Te3 2.831091 1_545
Nb3 Te7 2.831091 1_555
Nb3 Ni0 2.931051 1_545
Nb3 Ni2 2.931051 1_555
Ni0 Ni2 2.509232 1_665
Ni0 Te2 2.556962 1_554
Ni0 Te3 2.556962 1_555
Ni0 Te0 2.580504 1_565
Ni0 Te4 2.589612 1_655
Ni1 Ni3 2.509232 1_565
Ni1 Te2 2.556962 1_555
Ni1 Te3 2.556962 1_555
Ni1 Te1 2.580504 1_565
Ni1 Te5 2.589612 1_555
Ni2 Te7 2.556962 1_555
Ni2 Te6 2.556962 1_554
Ni2 Te4 2.580504 1_545
Ni2 Te0 2.589612 1_455
Ni3 Te6 2.556962 1_555
Ni3 Te7 2.556962 1_555
Ni3 Te5 2.580504 1_545
Ni3 Te1 2.589612 1_555
