# generated using pymatgen
data_Sr2Cu2O5
_symmetry_space_group_name_H-M   'P 1'
_cell_length_a   3.71100556
_cell_length_b   5.47549974
_cell_length_c   10.89085995
_cell_angle_alpha   90.00000000
_cell_angle_beta   90.00000000
_cell_angle_gamma   90.00000000
_symmetry_Int_Tables_number   1
_chemical_formula_structural   Sr2Cu2O5
_chemical_formula_sum   'Sr4 Cu4 O10'
_cell_volume   221.29802652
_cell_formula_units_Z   2
loop_
 _symmetry_equiv_pos_site_id
 _symmetry_equiv_pos_as_xyz
  1  'x, y, z'
loop_
 _atom_site_type_symbol
 _atom_site_label
 _atom_site_symmetry_multiplicity
 _atom_site_fract_x
 _atom_site_fract_y
 _atom_site_fract_z
 _atom_site_occupancy
  Sr  Sr0  1  0.50000000  0.21461769  0.86483689  1
  Sr  Sr1  1  0.50000000  0.78538231  0.13516311  1
  Sr  Sr2  1  0.50000000  0.71461769  0.63516311  1
  Sr  Sr3  1  0.50000000  0.28538231  0.36483689  1
  Cu  Cu0  1  0.00000000  0.24205249  0.62153457  1
  Cu  Cu1  1  -0.00000000  0.75794751  0.37846543  1
  Cu  Cu2  1  -0.00000000  0.74205249  0.87846543  1
  Cu  Cu3  1  -0.00000000  0.25794751  0.12153457  1
  O  O0  1  -0.00000000  0.50000000  0.50000000  1
  O  O1  1  0.00000000  -0.00000000  -0.00000000  1
  O  O2  1  0.00000000  0.98647023  0.73205404  1
  O  O3  1  -0.00000000  0.01352977  0.26794596  1
  O  O4  1  0.00000000  0.48647023  0.76794596  1
  O  O5  1  -0.00000000  0.51352977  0.23205404  1
  O  O6  1  0.50000000  0.20171772  0.59790655  1
  O  O7  1  0.50000000  0.79828228  0.40209345  1
  O  O8  1  0.50000000  0.29828228  0.09790655  1
  O  O9  1  0.50000000  0.70171772  0.90209345  1
loop_
_geom_bond_atom_site_label_1
_geom_bond_atom_site_label_2
_geom_bond_distance
_geom_bond_site_symmetry_2
Cu0 O2 1.845864 1_545
Cu0 O6 1.886236 1_455
Cu0 O6 1.886236 1_555
Cu0 O0 1.935668 1_555
Cu0 O4 2.081742 1_555
Cu1 O3 1.845864 1_565
Cu1 O7 1.886236 1_455
Cu1 O7 1.886236 1_555
Cu1 O0 1.935668 1_555
Cu1 O5 2.081742 1_555
Cu2 O4 1.845864 1_555
Cu2 O9 1.886236 1_455
Cu2 O9 1.886236 1_555
Cu2 O1 1.935668 1_566
Cu2 O2 2.081742 1_555
Cu3 O5 1.845864 1_555
Cu3 O8 1.886236 1_555
Cu3 O8 1.886236 1_455
Cu3 O1 1.935668 1_555
Cu3 O3 2.081742 1_555
O0 Sr3 2.644003 1_555
O0 Sr3 2.644003 1_455
O0 Sr2 2.644003 1_555
O0 Sr2 2.644003 1_455
O1 Sr1 2.644003 1_445
O1 Sr1 2.644003 1_545
O1 Sr0 2.644003 1_554
O1 Sr0 2.644003 1_454
O2 Sr2 2.602328 1_455
O2 Sr2 2.602328 1_555
O2 Sr0 2.663589 1_465
O2 Sr0 2.663589 1_565
O3 Sr3 2.602328 1_455
O3 Sr3 2.602328 1_555
O3 Sr1 2.663589 1_445
O3 Sr1 2.663589 1_545
O4 Sr0 2.602328 1_455
O4 Sr0 2.602328 1_555
O4 Sr2 2.663589 1_455
O4 Sr2 2.663589 1_555
O5 Sr1 2.602328 1_455
O5 Sr1 2.602328 1_555
O5 Sr3 2.663589 1_455
O5 Sr3 2.663589 1_555
O6 Sr3 2.579336 1_555
O6 Sr2 2.697804 1_545
O6 Sr2 2.837544 1_555
O6 Sr0 2.907959 1_555
O7 Sr2 2.579336 1_555
O7 Sr3 2.697804 1_565
O7 Sr3 2.837544 1_555
O7 Sr1 2.907959 1_555
O8 Sr0 2.579336 1_554
O8 Sr1 2.697804 1_555
O8 Sr1 2.837544 1_545
O8 Sr3 2.907959 1_555
O9 Sr1 2.579336 1_556
O9 Sr0 2.697804 1_555
O9 Sr0 2.837544 1_565
O9 Sr2 2.907959 1_555
