# generated using pymatgen
data_SiP2
_symmetry_space_group_name_H-M   'P 1'
_cell_length_a   5.72066812
_cell_length_b   5.72066812
_cell_length_c   5.72066812
_cell_angle_alpha   90.00000000
_cell_angle_beta   90.00000000
_cell_angle_gamma   90.00000000
_symmetry_Int_Tables_number   1
_chemical_formula_structural   SiP2
_chemical_formula_sum   'Si4 P8'
_cell_volume   187.21483511
_cell_formula_units_Z   4
loop_
 _symmetry_equiv_pos_site_id
 _symmetry_equiv_pos_as_xyz
  1  'x, y, z'
loop_
 _atom_site_type_symbol
 _atom_site_label
 _atom_site_symmetry_multiplicity
 _atom_site_fract_x
 _atom_site_fract_y
 _atom_site_fract_z
 _atom_site_occupancy
  Si  Si0  1  0.00000000  0.50000000  0.50000000  1
  Si  Si1  1  0.50000000  0.50000000  -0.00000000  1
  Si  Si2  1  0.50000000  -0.00000000  0.50000000  1
  Si  Si3  1  0.00000000  -0.00000000  -0.00000000  1
  P  P0  1  0.60828688  0.60828688  0.60828688  1
  P  P1  1  0.89171312  0.39171312  0.10828688  1
  P  P2  1  0.10828688  0.89171312  0.39171312  1
  P  P3  1  0.39171312  0.10828688  0.89171312  1
  P  P4  1  0.60828688  0.89171312  0.10828688  1
  P  P5  1  0.89171312  0.10828688  0.60828688  1
  P  P6  1  0.10828688  0.60828688  0.89171312  1
  P  P7  1  0.39171312  0.39171312  0.39171312  1
loop_
_geom_bond_atom_site_label_1
_geom_bond_atom_site_label_2
_geom_bond_distance
_geom_bond_site_symmetry_2
P0 P7 2.145918 1_555
P0 Si1 2.406024 1_556
P0 Si2 2.406024 1_565
P0 Si0 2.406024 1_655
P1 P6 2.145918 1_654
P1 Si3 2.406024 1_655
P1 Si0 2.406024 1_655
P1 Si1 2.406024 1_555
P2 P5 2.145918 1_465
P2 Si3 2.406024 1_565
P2 Si2 2.406024 1_565
P2 Si0 2.406024 1_555
P3 P4 2.145918 1_546
P3 Si2 2.406024 1_555
P3 Si1 2.406024 1_556
P3 Si3 2.406024 1_556
P4 Si2 2.406024 1_565
P4 Si3 2.406024 1_665
P4 Si1 2.406024 1_555
P5 Si2 2.406024 1_555
P5 Si3 2.406024 1_656
P5 Si0 2.406024 1_655
P6 Si3 2.406024 1_566
P6 Si1 2.406024 1_556
P6 Si0 2.406024 1_555
P7 Si2 2.406024 1_555
P7 Si0 2.406024 1_555
P7 Si1 2.406024 1_555
