# generated using pymatgen
data_Mn5C2
_symmetry_space_group_name_H-M   'P 1'
_cell_length_a   6.22786172
_cell_length_b   6.22786172
_cell_length_c   4.99743296
_cell_angle_alpha   83.07919710
_cell_angle_beta   83.07919710
_cell_angle_gamma   42.10583508
_symmetry_Int_Tables_number   1
_chemical_formula_structural   Mn5C2
_chemical_formula_sum   'Mn10 C4'
_cell_volume   128.87673806
_cell_formula_units_Z   2
loop_
 _symmetry_equiv_pos_site_id
 _symmetry_equiv_pos_as_xyz
  1  'x, y, z'
loop_
 _atom_site_type_symbol
 _atom_site_label
 _atom_site_symmetry_multiplicity
 _atom_site_fract_x
 _atom_site_fract_y
 _atom_site_fract_z
 _atom_site_occupancy
  Mn  Mn0  1  0.62609800  0.80673300  0.69346000  1
  Mn  Mn1  1  0.19326700  0.37390200  0.80654000  1
  Mn  Mn2  1  0.37390200  0.19326700  0.30654000  1
  Mn  Mn3  1  0.80673300  0.62609800  0.19346000  1
  Mn  Mn4  1  0.43060800  0.56939200  0.75000000  1
  Mn  Mn5  1  0.56939200  0.43060800  0.25000000  1
  Mn  Mn6  1  0.18913900  0.01177200  0.08077400  1
  Mn  Mn7  1  0.98822800  0.81086100  0.41922600  1
  Mn  Mn8  1  0.81086100  0.98822800  0.91922600  1
  Mn  Mn9  1  0.01177200  0.18913900  0.58077400  1
  C  C0  1  0.43016400  0.79631600  0.42138400  1
  C  C1  1  0.20368400  0.56983600  0.07861600  1
  C  C2  1  0.56983600  0.20368400  0.57861600  1
  C  C3  1  0.79631600  0.43016400  0.92138400  1
loop_
_geom_bond_atom_site_label_1
_geom_bond_atom_site_label_2
_geom_bond_distance
_geom_bond_site_symmetry_2
C0 Mn3 1.969643 1_555
C0 Mn0 1.969904 1_555
C0 Mn9 1.979843 1_565
C0 Mn6 2.006931 1_565
C0 Mn5 2.008373 1_555
C0 Mn4 2.032290 1_555
C0 Mn2 2.232697 1_565
C1 Mn2 1.969643 1_555
C1 Mn1 1.969904 1_554
C1 Mn8 1.979843 1_454
C1 Mn7 2.006931 1_455
C1 Mn5 2.008373 1_555
C1 Mn4 2.032290 1_554
C1 Mn3 2.232697 1_455
C2 Mn1 1.969643 1_555
C2 Mn2 1.969904 1_555
C2 Mn7 1.979843 1_545
C2 Mn8 2.006931 1_545
C2 Mn4 2.008373 1_555
C2 Mn5 2.032290 1_555
C2 Mn0 2.232697 1_545
C3 Mn0 1.969643 1_555
C3 Mn3 1.969904 1_556
C3 Mn6 1.979843 1_656
C3 Mn9 2.006931 1_655
C3 Mn4 2.008373 1_555
C3 Mn5 2.032290 1_556
C3 Mn1 2.232697 1_655
