# generated using pymatgen
data_MnH16C4(Br2N)2
_symmetry_space_group_name_H-M   'P 1'
_cell_length_a   11.95073200
_cell_length_b   8.30439100
_cell_length_c   16.85419378
_cell_angle_alpha   66.00876762
_cell_angle_beta   90.00000000
_cell_angle_gamma   90.00000000
_symmetry_Int_Tables_number   1
_chemical_formula_structural   MnH16C4(Br2N)2
_chemical_formula_sum   'Mn4 H64 C16 Br16 N8'
_cell_volume   1528.16421084
_cell_formula_units_Z   4
loop_
 _symmetry_equiv_pos_site_id
 _symmetry_equiv_pos_as_xyz
  1  'x, y, z'
loop_
 _atom_site_type_symbol
 _atom_site_label
 _atom_site_symmetry_multiplicity
 _atom_site_fract_x
 _atom_site_fract_y
 _atom_site_fract_z
 _atom_site_occupancy
  Mn  Mn0  1  0.79399400  0.25897900  0.95286000  1
  Mn  Mn1  1  0.20600600  0.74102100  0.04714000  1
  Mn  Mn2  1  0.29399400  0.74102100  0.54714000  1
  Mn  Mn3  1  0.70600600  0.25897900  0.45286000  1
  H  H0  1  0.47190800  0.23802400  0.89184900  1
  H  H1  1  0.97190800  0.76197600  0.60815100  1
  H  H2  1  0.52809200  0.76197600  0.10815100  1
  H  H3  1  0.02809200  0.23802400  0.39184900  1
  H  H4  1  0.47868500  0.38922900  0.94313700  1
  H  H5  1  0.97868500  0.61077100  0.55686300  1
  H  H6  1  0.52131500  0.61077100  0.05686300  1
  H  H7  1  0.02131500  0.38922900  0.44313700  1
  H  H8  1  0.44944100  0.16044900  0.00668500  1
  H  H9  1  0.94944100  0.83955100  0.49331500  1
  H  H10  1  0.55055900  0.83955100  0.99331500  1
  H  H11  1  0.05055900  0.16044900  0.50668500  1
  H  H12  1  0.32429900  0.57500200  0.84467300  1
  H  H13  1  0.82429900  0.42499800  0.65532700  1
  H  H14  1  0.67570100  0.42499800  0.15532700  1
  H  H15  1  0.17570100  0.57500200  0.34467300  1
  H  H16  1  0.31849600  0.42609900  0.79159600  1
  H  H17  1  0.81849600  0.57390100  0.70840400  1
  H  H18  1  0.68150400  0.57390100  0.20840400  1
  H  H19  1  0.18150400  0.42609900  0.29159600  1
  H  H20  1  0.19536300  0.46790100  0.84090800  1
  H  H21  1  0.69536300  0.53209900  0.65909200  1
  H  H22  1  0.92110400  0.81563400  0.76710700  1
  H  H23  1  0.30463700  0.46790100  0.34090800  1
  H  H24  1  0.46642600  0.96091900  0.38034600  1
  H  H25  1  0.96642600  0.03908100  0.11965400  1
  H  H26  1  0.53357400  0.03908100  0.61965400  1
  H  H27  1  0.80463700  0.53209900  0.15909200  1
  H  H28  1  0.59964400  0.99541200  0.34869700  1
  H  H29  1  0.09964400  0.00458800  0.15130300  1
  H  H30  1  0.40035600  0.00458800  0.65130300  1
  H  H31  1  0.90035600  0.99541200  0.84869700  1
  H  H32  1  0.28372100  0.33104900  0.98066900  1
  H  H33  1  0.78372100  0.66895100  0.51933100  1
  H  H34  1  0.71627900  0.66895100  0.01933100  1
  H  H35  1  0.21627900  0.33104900  0.48066900  1
  H  H36  1  0.48855600  0.24526100  0.26572000  1
  H  H37  1  0.98855600  0.75473900  0.23428000  1
  H  H38  1  0.51144400  0.75473900  0.73428000  1
  H  H39  1  0.01144400  0.24526100  0.76572000  1
  H  H40  1  0.54559100  0.14290700  0.19838700  1
  H  H41  1  0.04559100  0.85709300  0.30161300  1
  H  H42  1  0.45440900  0.85709300  0.80161300  1
  H  H43  1  0.95440900  0.14290700  0.69838700  1
  H  H44  1  0.40156700  0.10874300  0.23190500  1
  H  H45  1  0.90156700  0.89125700  0.26809500  1
  H  H46  1  0.59843300  0.89125700  0.76809500  1
  H  H47  1  0.09843300  0.10874300  0.73190500  1
  H  H48  1  0.27710700  0.18995100  0.93125900  1
  H  H49  1  0.77710700  0.81004900  0.56874100  1
  H  H50  1  0.72289300  0.81004900  0.06874100  1
  H  H51  1  0.22289300  0.18995100  0.43125900  1
  H  H52  1  0.54279600  0.69624200  0.37933400  1
  H  H53  1  0.04279600  0.30375800  0.12066600  1
  H  H54  1  0.45720400  0.30375800  0.62066600  1
  H  H55  1  0.95720400  0.69624200  0.87933400  1
  H  H56  1  0.43417400  0.78367100  0.29899700  1
  H  H57  1  0.93417400  0.21632900  0.20100300  1
  H  H58  1  0.56582600  0.21632900  0.70100300  1
  H  H59  1  0.06582600  0.78367100  0.79899700  1
  H  H60  1  0.57889600  0.81563400  0.26710700  1
  H  H61  1  0.07889600  0.18436600  0.23289300  1
  H  H62  1  0.42110400  0.18436600  0.73289300  1
  H  H63  1  0.03357400  0.96091900  0.88034600  1
  C  C0  1  0.56247800  0.72900400  0.05638500  1
  C  C1  1  0.93752200  0.72900400  0.55638500  1
  C  C2  1  0.43752200  0.27099600  0.94361500  1
  C  C3  1  0.06247800  0.27099600  0.44361500  1
  C  C4  1  0.98124600  0.80422300  0.81817000  1
  C  C5  1  0.48124600  0.19577700  0.68183000  1
  C  C6  1  0.01875400  0.19577700  0.18183000  1
  C  C7  1  0.51875400  0.80422300  0.31817000  1
  C  C8  1  0.01360100  0.12912700  0.75045700  1
  C  C9  1  0.51360100  0.87087300  0.74954300  1
  C  C10  1  0.98639900  0.87087300  0.24954300  1
  C  C11  1  0.48639900  0.12912700  0.25045700  1
  C  C12  1  0.21346200  0.45415900  0.34557700  1
  C  C13  1  0.28653800  0.45415900  0.84557700  1
  C  C14  1  0.78653800  0.54584100  0.65442300  1
  C  C15  1  0.71346200  0.54584100  0.15442300  1
  Br  Br0  1  0.79166900  0.55648800  0.40985800  1
  Br  Br1  1  0.29166900  0.44351200  0.09014200  1
  Br  Br2  1  0.20833100  0.44351200  0.59014200  1
  Br  Br3  1  0.70833100  0.55648800  0.90985800  1
  Br  Br4  1  0.00152300  0.27656100  0.94043500  1
  Br  Br5  1  0.50152300  0.72343900  0.55956500  1
  Br  Br6  1  0.99847700  0.72343900  0.05956500  1
  Br  Br7  1  0.49847700  0.27656100  0.44043500  1
  Br  Br8  1  0.72226100  0.10487000  0.86202400  1
  Br  Br9  1  0.22226100  0.89513000  0.63797600  1
  Br  Br10  1  0.27773900  0.89513000  0.13797600  1
  Br  Br11  1  0.77773900  0.10487000  0.36202400  1
  Br  Br12  1  0.76180300  0.06219600  0.60674600  1
  Br  Br13  1  0.23819700  0.93780400  0.39325400  1
  Br  Br14  1  0.73819700  0.06219600  0.10674600  1
  Br  Br15  1  0.26180300  0.93780400  0.89325400  1
  N  N0  1  0.98016300  0.97277000  0.82984600  1
  N  N1  1  0.48016300  0.02723000  0.67015400  1
  N  N2  1  0.01983700  0.02723000  0.17015400  1
  N  N3  1  0.51983700  0.97277000  0.32984600  1
  N  N4  1  0.68492100  0.69534600  0.07072200  1
  N  N5  1  0.81507900  0.69534600  0.57072200  1
  N  N6  1  0.31507900  0.30465400  0.92927800  1
  N  N7  1  0.18492100  0.30465400  0.42927800  1
loop_
_geom_bond_atom_site_label_1
_geom_bond_atom_site_label_2
_geom_bond_distance
_geom_bond_site_symmetry_2
H24 N3 1.036065 1_555
H25 N2 1.036065 1_655
H26 N1 1.036065 1_555
H28 N3 1.046194 1_555
H29 N2 1.046194 1_555
H30 N1 1.046194 1_555
H31 N0 1.046194 1_555
H32 N6 1.045513 1_555
H33 N5 1.045513 1_555
H34 N4 1.045513 1_555
H35 N7 1.045513 1_555
H48 N6 1.043317 1_555
H49 N5 1.043317 1_555
H50 N4 1.043317 1_555
H51 N7 1.043317 1_555
H63 N0 1.036065 1_455
C0 H2 1.095135 1_555
C0 H10 1.095197 1_554
C0 H6 1.095290 1_555
C0 N4 1.490902 1_555
C1 H1 1.095135 1_555
C1 H9 1.095197 1_555
C1 H5 1.095290 1_555
C1 N5 1.490902 1_555
C2 H0 1.095135 1_555
C2 H8 1.095197 1_556
C2 H4 1.095290 1_555
C2 N6 1.490902 1_555
C3 H3 1.095135 1_555
C3 H11 1.095197 1_555
C3 H7 1.095290 1_555
C3 N7 1.490902 1_555
C4 H55 1.094363 1_555
C4 H22 1.095411 1_555
C4 H59 1.095492 1_655
C4 N0 1.490633 1_555
C5 H54 1.094363 1_555
C5 H62 1.095411 1_555
C5 H58 1.095492 1_555
C5 N1 1.490633 1_555
C6 H53 1.094363 1_555
C6 H61 1.095411 1_555
C6 H57 1.095492 1_455
C6 N2 1.490633 1_555
C7 H52 1.094363 1_555
C7 H60 1.095411 1_555
C7 H56 1.095492 1_555
C7 N3 1.490633 1_555
C8 H47 1.094196 1_555
C8 H39 1.094851 1_555
C8 H43 1.096359 1_455
C8 N0 1.491034 1_445
C9 H46 1.094196 1_555
C9 H38 1.094851 1_555
C9 H42 1.096359 1_555
C9 N1 1.491034 1_565
C10 H45 1.094196 1_555
C10 H37 1.094851 1_555
C10 H41 1.096359 1_655
C10 N2 1.491034 1_665
C11 H44 1.094196 1_555
C11 H36 1.094851 1_555
C11 H40 1.096359 1_555
C11 N3 1.491034 1_545
C12 H15 1.094766 1_555
C12 H23 1.095061 1_555
C12 H19 1.095587 1_555
C12 N7 1.491177 1_555
C13 H12 1.094766 1_555
C13 H20 1.095061 1_555
C13 H16 1.095587 1_555
C13 N6 1.491177 1_555
C14 H13 1.094766 1_555
C14 H21 1.095061 1_555
C14 H17 1.095587 1_555
C14 N5 1.491177 1_555
C15 H14 1.094766 1_555
C15 H27 1.095061 1_555
C15 H18 1.095587 1_555
C15 N4 1.491177 1_555
Br0 Mn3 2.494235 1_555
Br1 Mn1 2.494235 1_555
Br2 Mn2 2.494235 1_555
Br3 Mn0 2.494235 1_555
Br4 Mn0 2.488236 1_455
Br5 Mn2 2.488236 1_555
Br6 Mn1 2.488236 1_655
Br7 Mn3 2.488236 1_555
Br8 Mn0 2.511950 1_555
Br9 Mn2 2.511950 1_555
Br10 Mn1 2.511950 1_555
Br11 Mn3 2.511950 1_555
Br12 Mn3 2.528908 1_555
Br13 Mn2 2.528908 1_555
Br14 Mn0 2.528908 1_554
Br15 Mn1 2.528908 1_556
