# generated using pymatgen
data_MgMn6(O2F)4
_symmetry_space_group_name_H-M   'P 1'
_cell_length_a   5.00793937
_cell_length_b   4.99794822
_cell_length_c   8.93236149
_cell_angle_alpha   90.47631514
_cell_angle_beta   89.27075651
_cell_angle_gamma   91.04655960
_symmetry_Int_Tables_number   1
_chemical_formula_structural   MgMn6(O2F)4
_chemical_formula_sum   'Mg1 Mn6 O8 F4'
_cell_volume   223.50913981
_cell_formula_units_Z   1
loop_
 _symmetry_equiv_pos_site_id
 _symmetry_equiv_pos_as_xyz
  1  'x, y, z'
loop_
 _atom_site_type_symbol
 _atom_site_label
 _atom_site_symmetry_multiplicity
 _atom_site_fract_x
 _atom_site_fract_y
 _atom_site_fract_z
 _atom_site_occupancy
  Mg  Mg0  1  0.50591300  0.01749800  0.65672000  1
  Mn  Mn0  1  0.01591800  0.00310900  0.99987000  1
  Mn  Mn1  1  0.97299200  0.97381600  0.33483700  1
  Mn  Mn2  1  0.01986600  0.03294600  0.65581500  1
  Mn  Mn3  1  0.45220200  0.53063900  0.84744900  1
  Mn  Mn4  1  0.54085900  0.46334700  0.15689300  1
  Mn  Mn5  1  0.48460900  0.50952800  0.48600400  1
  O  O0  1  0.22659100  0.85023500  0.50340800  1
  O  O1  1  0.21796400  0.87179000  0.81408100  1
  O  O2  1  0.30284500  0.31495500  0.00229300  1
  O  O3  1  0.30624200  0.35177300  0.66522700  1
  O  O4  1  0.69458100  0.66845800  0.99517300  1
  O  O5  1  0.69205100  0.65268600  0.32691400  1
  O  O6  1  0.81995500  0.15316500  0.16779600  1
  O  O7  1  0.77965600  0.15627400  0.50454100  1
  F  F0  1  0.19225400  0.79657300  0.17786400  1
  F  F1  1  0.30476200  0.29616700  0.31773700  1
  F  F2  1  0.70355700  0.68913300  0.67521700  1
  F  F3  1  0.76718100  0.16790700  0.81216000  1
loop_
_geom_bond_atom_site_label_1
_geom_bond_atom_site_label_2
_geom_bond_distance
_geom_bond_site_symmetry_2
Mg0 O3 1.963120 1_555
Mg0 O7 2.035107 1_555
Mg0 O1 2.124283 1_545
Mg0 O0 2.125544 1_545
Mn0 O6 1.935507 1_456
Mn0 O1 2.042556 1_545
Mn0 O2 2.100669 1_556
Mn0 O4 2.300243 1_445
Mn1 O6 1.921868 1_565
Mn1 O7 2.009668 1_565
Mn1 O0 2.086733 1_655
Mn1 O5 2.116277 1_555
Mn2 O1 1.927505 1_545
Mn2 O7 1.932662 1_455
Mn2 O0 1.933119 1_545
Mn2 O3 2.126125 1_555
Mn3 O2 1.898295 1_556
Mn3 O4 1.919396 1_555
Mn3 O3 1.991234 1_555
Mn3 O1 2.112465 1_555
Mn4 O4 1.922947 1_554
Mn4 O5 1.937629 1_555
Mn4 O2 1.967334 1_555
Mn4 O6 2.109861 1_555
Mn5 O5 1.887515 1_555
Mn5 O3 1.985256 1_555
Mn5 O0 2.159699 1_555
Mn5 O7 2.331134 1_555
F0 Mn1 1.982961 1_455
F0 Mn0 2.114122 1_564
F0 Mn4 2.439117 1_555
F1 Mn4 2.025071 1_555
F1 Mn5 2.044537 1_555
F1 Mn1 2.297679 1_445
F2 Mg0 1.941229 1_565
F2 Mn3 2.124461 1_555
F2 Mn5 2.202396 1_555
F2 Mn2 2.321758 1_665
F3 Mn2 1.994276 1_655
F3 Mg0 2.048853 1_555
F3 Mn0 2.270457 1_655
F3 Mn3 2.440596 1_555
