# generated using pymatgen
data_Ti3H2O7
_symmetry_space_group_name_H-M   'P 1'
_cell_length_a   8.43990617
_cell_length_b   8.38281178
_cell_length_c   9.45617311
_cell_angle_alpha   79.47027434
_cell_angle_beta   100.46037404
_cell_angle_gamma   154.07255096
_symmetry_Int_Tables_number   1
_chemical_formula_structural   Ti3H2O7
_chemical_formula_sum   'Ti6 H4 O14'
_cell_volume   287.36350632
_cell_formula_units_Z   2
loop_
 _symmetry_equiv_pos_site_id
 _symmetry_equiv_pos_as_xyz
  1  'x, y, z'
loop_
 _atom_site_type_symbol
 _atom_site_label
 _atom_site_symmetry_multiplicity
 _atom_site_fract_x
 _atom_site_fract_y
 _atom_site_fract_z
 _atom_site_occupancy
  Ti  Ti0  1  0.79338128  0.21996953  0.79431292  1
  Ti  Ti1  1  0.22628367  0.79881790  0.21122476  1
  Ti  Ti2  1  0.83076848  0.17850743  0.48490810  1
  Ti  Ti3  1  0.18796454  0.83878721  0.52044379  1
  Ti  Ti4  1  0.86381148  0.14517854  0.18074016  1
  Ti  Ti5  1  0.15931830  0.87874140  0.82465694  1
  H  H0  1  0.74298863  0.74683018  0.09812601  1
  H  H1  1  0.01648481  0.93830653  0.23357585  1
  H  H2  1  0.09257171  0.09379446  0.93654040  1
  H  H3  1  0.99483392  0.06759981  0.76703530  1
  O  O0  1  0.84955974  0.15411428  0.96680117  1
  O  O1  1  0.16781790  0.86089178  0.03839347  1
  O  O2  1  0.87625157  0.13342621  0.67702502  1
  O  O3  1  0.14437477  0.88683680  0.32657729  1
  O  O4  1  0.91358500  0.09969526  0.37516368  1
  O  O5  1  0.10847636  0.92069874  0.62858092  1
  O  O6  1  0.94112039  0.96564256  0.15336134  1
  O  O7  1  0.06249513  0.03075279  0.84409403  1
  O  O8  1  0.68410724  0.34625826  0.83784211  1
  O  O9  1  0.33638950  0.67013164  0.16689549  1
  O  O10  1  0.72073694  0.30224510  0.54737343  1
  O  O11  1  0.29820777  0.71601787  0.45530525  1
  O  O12  1  0.75787068  0.26075445  0.24341741  1
  O  O13  1  0.26195419  0.75720129  0.76070016  1
loop_
_geom_bond_atom_site_label_1
_geom_bond_atom_site_label_2
_geom_bond_distance
_geom_bond_site_symmetry_2
H0 O6 0.974444 1_555
H1 O6 1.027571 1_455
H1 O3 1.574463 1_555
H2 O7 0.977190 1_555
H3 O7 1.018035 1_655
H3 O2 1.594673 1_555
O0 Ti0 1.746677 1_555
O0 Ti4 1.996309 1_556
O1 Ti1 1.744551 1_555
O1 Ti5 1.992142 1_554
O2 Ti2 1.829569 1_555
O2 Ti0 1.932362 1_555
O3 Ti3 1.846645 1_555
O3 Ti1 1.922912 1_555
O4 Ti2 1.829361 1_555
O4 Ti4 1.858329 1_555
O5 Ti3 1.817002 1_555
O5 Ti5 1.868114 1_555
O6 Ti4 2.174372 1_565
O7 Ti5 2.082910 1_545
O8 Ti5 1.935996 1_545
O8 Ti5 1.950070 1_655
O8 Ti0 2.047934 1_555
O9 Ti4 1.923333 1_455
O9 Ti4 1.945401 1_565
O9 Ti1 2.076739 1_555
O10 Ti3 1.971937 1_655
O10 Ti3 1.975149 1_545
O10 Ti2 2.107837 1_555
O10 Ti0 2.440576 1_555
O11 Ti2 1.976800 1_565
O11 Ti2 1.977667 1_455
O11 Ti3 2.113399 1_555
O11 Ti1 2.416822 1_555
O12 Ti1 1.975389 1_545
O12 Ti1 1.981857 1_655
O12 Ti4 2.012435 1_555
O12 Ti2 2.397083 1_555
O13 Ti0 1.975778 1_565
O13 Ti0 1.980074 1_455
O13 Ti5 2.038894 1_555
O13 Ti3 2.388388 1_555
