# generated using pymatgen
data_Ba2MgNbVO6
_symmetry_space_group_name_H-M   'P 1'
_cell_length_a   6.61627660
_cell_length_b   6.08991938
_cell_length_c   6.11360583
_cell_angle_alpha   59.86818892
_cell_angle_beta   62.47581757
_cell_angle_gamma   61.76968693
_symmetry_Int_Tables_number   1
_chemical_formula_structural   Ba2MgNbVO6
_chemical_formula_sum   'Ba2 Mg1 Nb1 V1 O6'
_cell_volume   179.36102397
_cell_formula_units_Z   1
loop_
 _symmetry_equiv_pos_site_id
 _symmetry_equiv_pos_as_xyz
  1  'x, y, z'
loop_
 _atom_site_type_symbol
 _atom_site_label
 _atom_site_symmetry_multiplicity
 _atom_site_fract_x
 _atom_site_fract_y
 _atom_site_fract_z
 _atom_site_occupancy
  Ba  Ba0  1  0.18064614  0.26636262  0.27645705  1
  Ba  Ba1  1  0.89588857  0.70266340  0.70071056  1
  Mg  Mg0  1  0.26163665  0.91191515  0.91323402  1
  Nb  Nb0  1  0.53243225  0.49016510  0.48869311  1
  V  V0  1  0.76198997  0.08168122  0.07815671  1
  O  O0  1  0.77397629  0.26030478  0.25498625  1
  O  O1  1  0.77394853  0.26034410  0.71073470  1
  O  O2  1  0.76640089  0.71522665  0.25919784  1
  O  O3  1  0.30215166  0.72232621  0.71757918  1
  O  O4  1  0.30217213  0.72233383  0.25795394  1
  O  O5  1  0.31333992  0.25209395  0.71729664  1
loop_
_geom_bond_atom_site_label_1
_geom_bond_atom_site_label_2
_geom_bond_distance
_geom_bond_site_symmetry_2
Ba0 O0 2.771882 1_455
Ba0 O1 2.771926 1_455
Ba0 O2 2.808060 1_455
Ba0 O4 3.067237 1_545
Ba0 O3 3.067506 1_545
Ba0 O5 3.149059 1_554
Ba0 O5 3.149858 1_555
Ba0 O3 3.174711 1_554
Ba0 O4 3.175350 1_555
Ba0 V0 3.239692 1_555
Ba1 O4 2.796641 1_655
Ba1 O3 2.796988 1_655
Ba1 O5 2.824495 1_655
Ba1 O0 3.123302 1_556
Ba1 O1 3.123323 1_555
Ba1 O0 3.123798 1_565
Ba1 O1 3.124122 1_565
Ba1 O2 3.145422 1_555
Ba1 O2 3.145542 1_556
Mg0 O4 1.906037 1_556
Mg0 O3 1.906075 1_555
Mg0 O5 1.908910 1_565
Nb0 O5 2.058638 1_555
Nb0 O4 2.063012 1_555
Nb0 O3 2.063085 1_555
Nb0 O2 2.076666 1_555
Nb0 O0 2.082358 1_555
Nb0 O1 2.082450 1_555
O0 V0 1.923494 1_555
O1 V0 1.923342 1_556
O2 V0 1.922142 1_565
