# generated using pymatgen
data_Na9MgNb5(SiO4)9
_symmetry_space_group_name_H-M   'P 1'
_cell_length_a   9.09637298
_cell_length_b   27.25981994
_cell_length_c   22.50238951
_cell_angle_alpha   90.02022462
_cell_angle_beta   89.98718033
_cell_angle_gamma   120.06717028
_symmetry_Int_Tables_number   1
_chemical_formula_structural   Na9MgNb5(SiO4)9
_chemical_formula_sum   'Na54 Mg6 Nb30 Si54 O216'
_cell_volume   4828.98807507
_cell_formula_units_Z   6
loop_
 _symmetry_equiv_pos_site_id
 _symmetry_equiv_pos_as_xyz
  1  'x, y, z'
loop_
 _atom_site_type_symbol
 _atom_site_label
 _atom_site_symmetry_multiplicity
 _atom_site_fract_x
 _atom_site_fract_y
 _atom_site_fract_z
 _atom_site_occupancy
  Na  Na0  1  0.00125875  0.00089283  0.49497456  1
  Na  Na1  1  0.99126746  0.33008977  0.49814825  1
  Na  Na2  1  0.00418509  0.66810526  0.50468803  1
  Na  Na3  1  0.98934206  0.99727251  0.99798421  1
  Na  Na4  1  0.99844989  0.32972802  0.99863039  1
  Na  Na5  1  0.00938424  0.66829346  0.00766322  1
  Na  Na6  1  0.66620299  0.11045157  0.83044435  1
  Na  Na7  1  0.66803492  0.44215291  0.83724433  1
  Na  Na8  1  0.66600157  0.78488088  0.83470155  1
  Na  Na9  1  0.66453520  0.11008370  0.32917532  1
  Na  Na10  1  0.66018822  0.44302354  0.33771418  1
  Na  Na11  1  0.67899994  0.78128999  0.33519007  1
  Na  Na12  1  0.34114547  0.22497606  0.16830471  1
  Na  Na13  1  0.33780024  0.55314995  0.16896292  1
  Na  Na14  1  0.33402682  0.88907656  0.16684562  1
  Na  Na15  1  0.33435265  0.22530873  0.66835203  1
  Na  Na16  1  0.32274633  0.55301736  0.66678941  1
  Na  Na17  1  0.34227673  0.88848389  0.66854864  1
  Na  Na18  1  0.62735340  0.00521516  0.24392126  1
  Na  Na19  1  0.64271440  0.66544043  0.24767265  1
  Na  Na20  1  0.38344609  0.12232058  0.24344188  1
  Na  Na21  1  0.35583858  0.78628200  0.24669318  1
  Na  Na22  1  0.98285980  0.20345890  0.24328674  1
  Na  Na23  1  0.00385970  0.54835919  0.24624641  1
  Na  Na24  1  0.62857533  0.20393760  0.74331640  1
  Na  Na25  1  0.63970611  0.54776640  0.74488337  1
  Na  Na26  1  0.98327651  0.12287973  0.74473598  1
  Na  Na27  1  0.00346853  0.78709233  0.74672892  1
  Na  Na28  1  0.38842222  0.00538932  0.74451053  1
  Na  Na29  1  0.35390639  0.66515377  0.74620027  1
  Na  Na30  1  0.31329804  0.11187424  0.58546888  1
  Na  Na31  1  0.31468696  0.44399605  0.57887467  1
  Na  Na32  1  0.27684661  0.77180287  0.58984920  1
  Na  Na33  1  0.02351353  0.22873686  0.58690955  1
  Na  Na34  1  0.02695581  0.57191781  0.58719766  1
  Na  Na35  1  0.03135065  0.89994642  0.58158121  1
  Na  Na36  1  0.67029748  0.32641096  0.57846633  1
  Na  Na37  1  0.68366985  0.65401312  0.59096667  1
  Na  Na38  1  0.66258664  0.99254461  0.58596481  1
  Na  Na39  1  0.30826422  0.32596180  0.07891329  1
  Na  Na40  1  0.28078260  0.65475705  0.09300243  1
  Na  Na41  1  0.31143494  0.99197504  0.08639991  1
  Na  Na42  1  0.66223614  0.22814730  0.08714898  1
  Na  Na43  1  0.68878068  0.57216505  0.08900932  1
  Na  Na44  1  0.02395073  0.11167087  0.08699702  1
  Na  Na45  1  0.01560821  0.44347863  0.07995939  1
  Na  Na46  1  0.04072776  0.77291002  0.09018417  1
  Na  Na47  1  0.94344619  0.54991964  0.92528723  1
  Na  Na48  1  0.70230242  0.35029896  0.92360073  1
  Na  Na49  1  0.70321951  0.67904919  0.91788356  1
  Na  Na50  1  0.34899508  0.43187231  0.92313544  1
  Na  Na51  1  0.94838544  0.43278536  0.42296747  1
  Na  Na52  1  0.34922306  0.35072275  0.42322059  1
  Na  Na53  1  0.70815959  0.55065645  0.42386381  1
  Mg  Mg0  1  0.99910512  0.66617742  0.64720352  1
  Mg  Mg1  1  0.00080068  0.66655612  0.14775200  1
  Mg  Mg2  1  0.66734255  0.11101492  0.68675502  1
  Mg  Mg3  1  0.66545224  0.11081938  0.18656608  1
  Mg  Mg4  1  0.66441633  0.44302508  0.98024651  1
  Mg  Mg5  1  0.66617477  0.44358304  0.47991363  1
  Nb  Nb0  1  0.99876149  0.99909210  0.35617360  1
  Nb  Nb1  1  0.99782278  0.33275187  0.35457296  1
  Nb  Nb2  1  0.00443456  0.66828150  0.35424698  1
  Nb  Nb3  1  0.00019441  0.99940747  0.85704088  1
  Nb  Nb4  1  0.99964066  0.33237414  0.85475792  1
  Nb  Nb5  1  0.00501535  0.66846323  0.85339970  1
  Nb  Nb6  1  0.99832659  0.00050150  0.64689929  1
  Nb  Nb7  1  0.00178488  0.33335418  0.64761594  1
  Nb  Nb8  1  0.99662059  0.99877194  0.14581406  1
  Nb  Nb9  1  0.99795720  0.33327176  0.14775806  1
  Nb  Nb10  1  0.66647699  0.44367414  0.68693803  1
  Nb  Nb11  1  0.66606155  0.77883601  0.68821410  1
  Nb  Nb12  1  0.66454338  0.44385110  0.18735479  1
  Nb  Nb13  1  0.67019261  0.77920427  0.18816809  1
  Nb  Nb14  1  0.66656790  0.11033686  0.97826302  1
  Nb  Nb15  1  0.66858580  0.78103726  0.97795903  1
  Nb  Nb16  1  0.66482906  0.11071119  0.47767191  1
  Nb  Nb17  1  0.66724769  0.77804863  0.47590527  1
  Nb  Nb18  1  0.32986300  0.22161764  0.01876404  1
  Nb  Nb19  1  0.33224230  0.55583937  0.02178161  1
  Nb  Nb20  1  0.34021501  0.88892751  0.02044637  1
  Nb  Nb21  1  0.33571008  0.22185573  0.51855398  1
  Nb  Nb22  1  0.33422151  0.55617665  0.52062113  1
  Nb  Nb23  1  0.33025987  0.88855071  0.51851856  1
  Nb  Nb24  1  0.33465698  0.22202295  0.31210530  1
  Nb  Nb25  1  0.33575167  0.55492805  0.31306131  1
  Nb  Nb26  1  0.32782919  0.88958917  0.31289361  1
  Nb  Nb27  1  0.33172910  0.22228993  0.81231244  1
  Nb  Nb28  1  0.32787861  0.55404423  0.81244175  1
  Nb  Nb29  1  0.34059466  0.88991655  0.81342877  1
  Si  Si0  1  0.28844627  0.99941338  0.25040061  1
  Si  Si1  1  0.29211613  0.33391548  0.25084356  1
  Si  Si2  1  0.29060204  0.66649997  0.24768174  1
  Si  Si3  1  0.70606391  0.23567348  0.25055842  1
  Si  Si4  1  0.71191642  0.57049012  0.24753531  1
  Si  Si5  1  0.70992776  0.90356120  0.25148117  1
  Si  Si6  1  0.99888590  0.09607067  0.25058654  1
  Si  Si7  1  0.99909227  0.43046663  0.25109627  1
  Si  Si8  1  0.00139294  0.76334461  0.24691068  1
  Si  Si9  1  0.29129415  0.09663710  0.75137487  1
  Si  Si10  1  0.29197508  0.43004236  0.75122076  1
  Si  Si11  1  0.29005374  0.76429062  0.74624646  1
  Si  Si12  1  0.00127653  0.23577148  0.75039608  1
  Si  Si13  1  0.99864404  0.57011920  0.74738209  1
  Si  Si14  1  0.00086451  0.90370686  0.75058733  1
  Si  Si15  1  0.70899649  0.99956684  0.75157937  1
  Si  Si16  1  0.70970348  0.33402610  0.75086212  1
  Si  Si17  1  0.70898243  0.66652029  0.74817011  1
  Si  Si18  1  0.95528738  0.11161767  0.58544980  1
  Si  Si19  1  0.95506603  0.44444062  0.58068319  1
  Si  Si20  1  0.95633669  0.77763106  0.58264883  1
  Si  Si21  1  0.37912822  0.01501667  0.58605223  1
  Si  Si22  1  0.37558928  0.34731869  0.58041506  1
  Si  Si23  1  0.37741122  0.68162230  0.58273060  1
  Si  Si24  1  0.66629682  0.20711830  0.58582154  1
  Si  Si25  1  0.67088524  0.54159834  0.58001648  1
  Si  Si26  1  0.66319114  0.87378032  0.58228876  1
  Si  Si27  1  0.95508676  0.20709676  0.08577708  1
  Si  Si28  1  0.95250587  0.54142657  0.08000797  1
  Si  Si29  1  0.95883245  0.87476184  0.08288264  1
  Si  Si30  1  0.66592681  0.01479148  0.08625575  1
  Si  Si31  1  0.66626826  0.34733142  0.08051131  1
  Si  Si32  1  0.66801840  0.68192144  0.08192830  1
  Si  Si33  1  0.37874243  0.11141300  0.08560338  1
  Si  Si34  1  0.37856441  0.44424908  0.08049790  1
  Si  Si35  1  0.37804799  0.77882981  0.08370808  1
  Si  Si36  1  0.62232199  0.22087719  0.91597762  1
  Si  Si37  1  0.62518948  0.55561649  0.91596411  1
  Si  Si38  1  0.62640236  0.88924310  0.91641582  1
  Si  Si39  1  0.03967287  0.12451320  0.91538718  1
  Si  Si40  1  0.04041370  0.45750156  0.91788226  1
  Si  Si41  1  0.04505559  0.79336293  0.91603154  1
  Si  Si42  1  0.33192248  0.31946957  0.91622851  1
  Si  Si43  1  0.33186425  0.65277969  0.91650102  1
  Si  Si44  1  0.33307068  0.98547999  0.91761901  1
  Si  Si45  1  0.62670124  0.31957096  0.41589962  1
  Si  Si46  1  0.62594162  0.65287124  0.41615401  1
  Si  Si47  1  0.62502860  0.98604217  0.41653163  1
  Si  Si48  1  0.33324855  0.12443276  0.41538992  1
  Si  Si49  1  0.33270145  0.45771834  0.41778132  1
  Si  Si50  1  0.33370907  0.79244975  0.41526673  1
  Si  Si51  1  0.04092582  0.22121644  0.41598327  1
  Si  Si52  1  0.04320780  0.55670411  0.41589847  1
  Si  Si53  1  0.03976890  0.88916443  0.41693829  1
  O  O0  1  0.18149531  0.00390487  0.30694661  1
  O  O1  1  0.19833085  0.34182030  0.30972962  1
  O  O2  1  0.19417476  0.67655243  0.30519426  1
  O  O3  1  0.83334298  0.27282206  0.30616690  1
  O  O4  1  0.83406214  0.60091054  0.30669305  1
  O  O5  1  0.82481181  0.93402111  0.30976280  1
  O  O6  1  0.98150873  0.05491406  0.30662318  1
  O  O7  1  0.98179862  0.39267920  0.31022266  1
  O  O8  1  0.96808727  0.72063301  0.30443893  1
  O  O9  1  0.18426153  0.05526426  0.80676104  1
  O  O10  1  0.19636300  0.39266763  0.81046908  1
  O  O11  1  0.19226385  0.72152943  0.80427718  1
  O  O12  1  0.98512653  0.27278776  0.80608176  1
  O  O13  1  0.96977992  0.60167657  0.80672385  1
  O  O14  1  0.97835009  0.93501680  0.80805765  1
  O  O15  1  0.83077377  0.00417665  0.80716118  1
  O  O16  1  0.82727250  0.34186331  0.80972478  1
  O  O17  1  0.82930971  0.67634036  0.80791528  1
  O  O18  1  0.80377506  0.32439913  0.69245759  1
  O  O19  1  0.78532165  0.65351615  0.69047661  1
  O  O20  1  0.80225440  0.99164650  0.69051014  1
  O  O21  1  0.16957441  0.06541254  0.69107325  1
  O  O22  1  0.17372641  0.39807131  0.69263339  1
  O  O23  1  0.17764157  0.73983657  0.68769969  1
  O  O24  1  0.02084309  0.27435647  0.69072746  1
  O  O25  1  0.04743420  0.60930975  0.68978884  1
  O  O26  1  0.02565032  0.94257498  0.69037436  1
  O  O27  1  0.80228669  0.27431157  0.19083454  1
  O  O28  1  0.78097056  0.60913527  0.18934583  1
  O  O29  1  0.80729696  0.94471932  0.19353036  1
  O  O30  1  0.02989857  0.06619673  0.19059251  1
  O  O31  1  0.02063444  0.39812094  0.19254185  1
  O  O32  1  0.04321307  0.73995616  0.18792324  1
  O  O33  1  0.16940905  0.32440558  0.19242545  1
  O  O34  1  0.17764577  0.65320473  0.18925978  1
  O  O35  1  0.17240491  0.99161418  0.18996209  1
  O  O36  1  0.88915003  0.12652318  0.64478766  1
  O  O37  1  0.85879165  0.45386182  0.63849322  1
  O  O38  1  0.86583134  0.78830199  0.64237407  1
  O  O39  1  0.49048093  0.03789383  0.64514909  1
  O  O40  1  0.50130831  0.37957761  0.63779246  1
  O  O41  1  0.49883303  0.71158803  0.64282646  1
  O  O42  1  0.62307357  0.16997269  0.64498621  1
  O  O43  1  0.63526455  0.49982125  0.64049485  1
  O  O44  1  0.63626575  0.83306339  0.64054944  1
  O  O45  1  0.88710812  0.17018394  0.14507093  1
  O  O46  1  0.86451121  0.49973981  0.14010717  1
  O  O47  1  0.86004188  0.83342082  0.14005187  1
  O  O48  1  0.62353373  0.03802880  0.14523864  1
  O  O49  1  0.63718458  0.37968304  0.13766429  1
  O  O50  1  0.63687777  0.71228582  0.14106960  1
  O  O51  1  0.49231400  0.12740214  0.14444486  1
  O  O52  1  0.50304640  0.45406818  0.13821851  1
  O  O53  1  0.49428759  0.78626941  0.14350263  1
  O  O54  1  0.47354490  0.10101146  0.02847149  1
  O  O55  1  0.44304656  0.42792410  0.02177857  1
  O  O56  1  0.48671674  0.77449025  0.02684868  1
  O  O57  1  0.82991671  0.17639700  0.02849368  1
  O  O58  1  0.84290980  0.51184629  0.02181306  1
  O  O59  1  0.84328016  0.84324913  0.02415329  1
  O  O60  1  0.69916419  0.05732989  0.02887902  1
  O  O61  1  0.70813739  0.38376788  0.02101425  1
  O  O62  1  0.68360563  0.72082432  0.02348265  1
  O  O63  1  0.47119010  0.05722702  0.52884241  1
  O  O64  1  0.44400682  0.38378455  0.52096063  1
  O  O65  1  0.48414900  0.72338467  0.52713594  1
  O  O66  1  0.69937603  0.17621979  0.52869669  1
  O  O67  1  0.69274298  0.51180359  0.52220531  1
  O  O68  1  0.69699713  0.84457739  0.52529657  1
  O  O69  1  0.82848109  0.10024404  0.52860828  1
  O  O70  1  0.84041041  0.42766127  0.52221878  1
  O  O71  1  0.83732214  0.77393976  0.52629137  1
  O  O72  1  0.53026211  0.23165189  0.97424102  1
  O  O73  1  0.52886613  0.56569783  0.97411370  1
  O  O74  1  0.52462573  0.89479986  0.97393853  1
  O  O75  1  0.16051282  0.15786091  0.97369465  1
  O  O76  1  0.16230795  0.48876471  0.97691186  1
  O  O77  1  0.15995429  0.82355162  0.97529843  1
  O  O78  1  0.31215140  0.28148260  0.97626001  1
  O  O79  1  0.30281504  0.61144338  0.97460027  1
  O  O80  1  0.30803006  0.94560257  0.97608102  1
  O  O81  1  0.53200108  0.28141017  0.47610042  1
  O  O82  1  0.52928910  0.61149161  0.47437122  1
  O  O83  1  0.52735963  0.94624427  0.47586585  1
  O  O84  1  0.31323966  0.15774469  0.47402049  1
  O  O85  1  0.30437117  0.48859602  0.47720204  1
  O  O86  1  0.30959273  0.82401375  0.47480860  1
  O  O87  1  0.16428304  0.23139581  0.47451847  1
  O  O88  1  0.16380536  0.56378229  0.47523804  1
  O  O89  1  0.15471978  0.89512871  0.47661711  1
  O  O90  1  0.13556523  0.21373894  0.35717975  1
  O  O91  1  0.14548783  0.55144062  0.35767547  1
  O  O92  1  0.14427730  0.88284121  0.36069673  1
  O  O93  1  0.49954866  0.28272483  0.36038123  1
  O  O94  1  0.51021981  0.62160993  0.35732639  1
  O  O95  1  0.50687680  0.95440676  0.35804036  1
  O  O96  1  0.35408447  0.16350293  0.35670701  1
  O  O97  1  0.34479242  0.49889418  0.36199225  1
  O  O98  1  0.35967177  0.83199015  0.35687526  1
  O  O99  1  0.13663516  0.16343914  0.85649212  1
  O  O100  1  0.15205406  0.49890882  0.86201930  1
  O  O101  1  0.13621568  0.83169933  0.85661888  1
  O  O102  1  0.34859954  0.28283148  0.86038672  1
  O  O103  1  0.35869032  0.62175976  0.85831650  1
  O  O104  1  0.35650272  0.95402188  0.85832713  1
  O  O105  1  0.50569703  0.21385022  0.85701292  1
  O  O106  1  0.50944789  0.55126738  0.85737643  1
  O  O107  1  0.50561337  0.88230129  0.85897744  1
  O  O108  1  0.03482703  0.28051446  0.41136465  1
  O  O109  1  0.02556558  0.61361200  0.41133939  1
  O  O110  1  0.02528697  0.94595320  0.41327932  1
  O  O111  1  0.81447210  0.32470871  0.41203686  1
  O  O112  1  0.80795501  0.65480172  0.41115325  1
  O  O113  1  0.81145892  0.99185059  0.41227988  1
  O  O114  1  0.16325081  0.06241702  0.41151702  1
  O  O115  1  0.15596730  0.39589236  0.41396176  1
  O  O116  1  0.16162588  0.73052923  0.40951813  1
  O  O117  1  0.02406388  0.06242608  0.91119200  1
  O  O118  1  0.03193080  0.39584371  0.91398333  1
  O  O119  1  0.02311413  0.72957636  0.90974605  1
  O  O120  1  0.15975929  0.32476014  0.91204700  1
  O  O121  1  0.15646885  0.65534213  0.91084683  1
  O  O122  1  0.16405136  0.99151452  0.91129972  1
  O  O123  1  0.80661364  0.28039545  0.91112303  1
  O  O124  1  0.81138439  0.61447802  0.91140820  1
  O  O125  1  0.81250749  0.94545576  0.91252255  1
  O  O126  1  0.97528036  0.05389792  0.58819473  1
  O  O127  1  0.98757387  0.39012758  0.59276402  1
  O  O128  1  0.97400620  0.72238398  0.58467049  1
  O  O129  1  0.18530499  0.00752359  0.58843617  1
  O  O130  1  0.18278321  0.33817884  0.59173324  1
  O  O131  1  0.19306701  0.67491099  0.58469822  1
  O  O132  1  0.83667636  0.27200659  0.58801747  1
  O  O133  1  0.83142554  0.60427959  0.58788606  1
  O  O134  1  0.83340216  0.93689790  0.58950445  1
  O  O135  1  0.97961285  0.27206744  0.08800695  1
  O  O136  1  0.98176653  0.60432970  0.08750793  1
  O  O137  1  0.98272756  0.93814954  0.08857279  1
  O  O138  1  0.84075096  0.01000899  0.08900936  1
  O  O139  1  0.83168268  0.33814994  0.09182955  1
  O  O140  1  0.83251965  0.67518400  0.08352148  1
  O  O141  1  0.18714567  0.05420826  0.08821057  1
  O  O142  1  0.18286830  0.39017829  0.09250347  1
  O  O143  1  0.19552658  0.72252867  0.08404147  1
  O  O144  1  0.69472327  0.05577415  0.74900594  1
  O  O145  1  0.68987896  0.38958524  0.74310473  1
  O  O146  1  0.69268722  0.72449073  0.74558144  1
  O  O147  1  0.47460660  0.10241738  0.74865445  1
  O  O148  1  0.48059220  0.43746750  0.74444776  1
  O  O149  1  0.47690223  0.76766735  0.74507827  1
  O  O150  1  0.83241402  0.17499269  0.75015859  1
  O  O151  1  0.82324844  0.50808374  0.74368947  1
  O  O152  1  0.83466236  0.83979373  0.74423005  1
  O  O153  1  0.69251947  0.17493245  0.25030291  1
  O  O154  1  0.70016567  0.50803503  0.24284009  1
  O  O155  1  0.68455994  0.83987410  0.24420144  1
  O  O156  1  0.83315060  0.10219404  0.24871343  1
  O  O157  1  0.83152078  0.43731064  0.24419412  1
  O  O158  1  0.82577622  0.76754410  0.24411020  1
  O  O159  1  0.47193329  0.05570470  0.24883594  1
  O  O160  1  0.47859303  0.38955485  0.24296987  1
  O  O161  1  0.48151963  0.72415988  0.24570016  1
  O  O162  1  0.64182906  0.16553244  0.92346425  1
  O  O163  1  0.63997356  0.49969475  0.91805162  1
  O  O164  1  0.64170423  0.83212916  0.92030619  1
  O  O165  1  0.85581515  0.12020768  0.92309862  1
  O  O166  1  0.85789451  0.45232015  0.91707412  1
  O  O167  1  0.85165626  0.78332519  0.92080053  1
  O  O168  1  0.50443525  0.04757296  0.92418815  1
  O  O169  1  0.50045545  0.38039857  0.91636235  1
  O  O170  1  0.50402298  0.71421271  0.92223660  1
  O  O171  1  0.63853538  0.04780318  0.42437957  1
  O  O172  1  0.64103748  0.38043595  0.41635693  1
  O  O173  1  0.64461503  0.71514009  0.42292753  1
  O  O174  1  0.50470618  0.12026757  0.42351634  1
  O  O175  1  0.49943573  0.45239231  0.41715130  1
  O  O176  1  0.50215174  0.78629901  0.42296267  1
  O  O177  1  0.85514403  0.16568016  0.42393488  1
  O  O178  1  0.86089021  0.49992816  0.41792964  1
  O  O179  1  0.85413934  0.83215888  0.42061178  1
  O  O180  1  0.34733401  0.16611142  0.07405626  1
  O  O181  1  0.36400155  0.50259899  0.07835204  1
  O  O182  1  0.35728025  0.83543904  0.07922322  1
  O  O183  1  0.14969142  0.21713061  0.07490350  1
  O  O184  1  0.14506705  0.54519177  0.07806476  1
  O  O185  1  0.14627029  0.88000731  0.07998273  1
  O  O186  1  0.49541250  0.28311696  0.07946345  1
  O  O187  1  0.48984253  0.61923481  0.07812289  1
  O  O188  1  0.49757607  0.95170108  0.07409084  1
  O  O189  1  0.35372665  0.28308183  0.57953672  1
  O  O190  1  0.36884091  0.61937404  0.57847461  1
  O  O191  1  0.35068609  0.95046825  0.57503918  1
  O  O192  1  0.50186796  0.21714807  0.57492468  1
  O  O193  1  0.49029369  0.54537577  0.57852184  1
  O  O194  1  0.49383485  0.88055109  0.57950127  1
  O  O195  1  0.15098655  0.16580034  0.57428161  1
  O  O196  1  0.14445040  0.50255082  0.57916252  1
  O  O197  1  0.14555552  0.83637408  0.57930224  1
  O  O198  1  0.29727254  0.27454759  0.25514356  1
  O  O199  1  0.32140923  0.61199200  0.25697082  1
  O  O200  1  0.30997391  0.94270504  0.25444506  1
  O  O201  1  0.51867928  0.23076104  0.25438602  1
  O  O202  1  0.51987967  0.56162214  0.25922018  1
  O  O203  1  0.52106824  0.89771241  0.25360884  1
  O  O204  1  0.17570326  0.15861705  0.25399151  1
  O  O205  1  0.16496565  0.49478264  0.25417579  1
  O  O206  1  0.16918703  0.82632522  0.25923773  1
  O  O207  1  0.29995267  0.15860310  0.75341545  1
  O  O208  1  0.31852661  0.49452354  0.75427135  1
  O  O209  1  0.30947965  0.82674430  0.75829369  1
  O  O210  1  0.17371320  0.23077749  0.75434053  1
  O  O211  1  0.16453213  0.56193911  0.76029051  1
  O  O212  1  0.17208353  0.89771070  0.75301567  1
  O  O213  1  0.52629138  0.27462492  0.75511023  1
  O  O214  1  0.51399557  0.61208057  0.75686650  1
  O  O215  1  0.51783397  0.94280939  0.75422614  1
loop_
_geom_bond_atom_site_label_1
_geom_bond_atom_site_label_2
_geom_bond_distance
_geom_bond_site_symmetry_2
Na0 O110 2.448689 1_545
Na0 O114 2.456749 1_555
Na0 O113 2.465541 1_445
Na0 O126 2.623667 1_455
Na0 O129 2.637540 1_555
Na0 O134 2.689147 1_445
Na1 O111 2.475349 1_555
Na1 O108 2.516198 1_655
Na1 O132 2.518718 1_555
Na1 O115 2.521738 1_655
Na1 O130 2.671081 1_655
Na1 O127 2.695412 1_555
Na2 O128 2.430810 1_455
Na2 O131 2.430985 1_555
Na2 O133 2.502587 1_455
Na2 O109 2.635138 1_555
Na2 O116 2.663111 1_555
Na2 O112 2.664616 1_455
Na3 O125 2.450239 1_555
Na3 O117 2.551197 1_665
Na3 O122 2.569724 1_655
Na3 O138 2.571271 1_566
Na3 O137 2.580998 1_556
Na3 O141 2.640006 1_666
Na4 O120 2.482952 1_655
Na4 O135 2.505402 1_556
Na4 O123 2.525712 1_555
Na4 O118 2.534030 1_655
Na4 O139 2.664470 1_556
Na4 O142 2.687165 1_656
Na5 O143 2.344737 1_555
Na5 O140 2.416356 1_455
Na5 O136 2.427879 1_455
Na5 O121 2.670672 1_554
Na5 O124 2.727517 1_454
Na5 O119 2.730316 1_554
Na6 O150 2.445563 1_555
Na6 O144 2.456111 1_555
Na6 O147 2.468082 1_555
Na6 O165 2.633282 1_555
Na6 O162 2.648803 1_555
Na6 O168 2.650837 1_555
Na7 O169 2.399323 1_555
Na7 O166 2.409934 1_555
Na7 O163 2.496198 1_555
Na7 O145 2.619807 1_555
Na7 O148 2.658391 1_555
Na7 O151 2.667233 1_555
Na8 O164 2.387825 1_555
Na8 O149 2.537385 1_555
Na8 O152 2.537446 1_555
Na8 O167 2.584709 1_555
Na8 O170 2.630421 1_555
Na8 O146 2.681146 1_555
Na9 O153 2.427113 1_555
Na9 O159 2.435622 1_555
Na9 O156 2.450715 1_555
Na9 O174 2.664604 1_555
Na9 O171 2.669805 1_555
Na9 O177 2.686299 1_555
Na10 O175 2.402375 1_555
Na10 O172 2.403550 1_555
Na10 O178 2.481778 1_555
Na10 O160 2.642957 1_555
Na10 O157 2.668951 1_555
Na10 O154 2.680908 1_555
Na11 O179 2.437543 1_555
Na11 O158 2.573525 1_555
Na11 O155 2.581931 1_555
Na11 O173 2.585427 1_555
Na11 O176 2.593448 1_555
Na11 O161 2.627460 1_555
Na12 O201 2.476069 1_555
Na12 O186 2.500016 1_555
Na12 O198 2.518316 1_555
Na12 O204 2.555027 1_555
Na12 O183 2.669111 1_555
Na12 O180 2.676556 1_555
Na13 O205 2.484817 1_555
Na13 O181 2.537711 1_555
Na13 O202 2.557226 1_555
Na13 O199 2.598909 1_555
Na13 O187 2.615580 1_555
Na13 O184 2.631470 1_555
Na14 O203 2.522257 1_555
Na14 O185 2.525205 1_555
Na14 O182 2.525462 1_555
Na14 O200 2.527632 1_555
Na14 O206 2.632080 1_555
Na14 O188 2.634436 1_555
Na15 O210 2.473513 1_555
Na15 O189 2.495897 1_555
Na15 O213 2.512906 1_555
Na15 O207 2.549581 1_555
Na15 O192 2.670043 1_555
Na15 O195 2.679999 1_555
Na16 O196 2.484917 1_555
Na16 O208 2.521915 1_555
Na16 O193 2.574448 1_555
Na16 O190 2.576691 1_555
Na16 O211 2.627964 1_555
Na16 O214 2.630567 1_555
Na17 O215 2.467775 1_555
Na17 O194 2.501939 1_555
Na17 O212 2.541895 1_555
Na17 O209 2.549280 1_555
Na17 O197 2.589512 1_555
Na17 O191 2.676080 1_555
Na18 O156 2.354943 1_555
Na18 O48 2.401030 1_555
Na18 O159 2.419675 1_555
Na18 O200 2.522900 1_545
Na18 O203 2.594508 1_545
Na18 O95 2.862516 1_545
Na19 O158 2.425309 1_555
Na19 O202 2.481344 1_555
Na19 O199 2.538066 1_555
Na19 O161 2.658205 1_555
Na19 O50 2.730943 1_555
Na19 O94 2.743421 1_555
Na19 O28 2.755385 1_555
Na19 O8 2.862433 1_555
Na20 O159 2.329180 1_555
Na20 O51 2.413332 1_555
Na20 O153 2.438170 1_555
Na20 O204 2.545486 1_555
Na20 O201 2.582266 1_555
Na20 O96 2.850577 1_555
Na21 O206 2.451646 1_555
Na21 O161 2.472879 1_555
Na21 O155 2.588682 1_555
Na21 O203 2.633459 1_555
Na21 O53 2.641404 1_555
Na21 O98 2.766816 1_555
Na21 O32 2.798686 1_555
Na21 O2 2.904661 1_555
Na22 O153 2.355149 1_555
Na22 O45 2.381952 1_555
Na22 O156 2.392258 1_555
Na22 O198 2.540196 1_655
Na22 O204 2.603535 1_655
Na22 O90 2.861354 1_655
Na23 O154 2.408921 1_455
Na23 O199 2.527878 1_555
Na23 O205 2.541151 1_555
Na23 O157 2.620715 1_455
Na23 O46 2.717244 1_455
Na23 O34 2.790405 1_555
Na23 O91 2.801213 1_555
Na23 O4 2.915939 1_455
Na24 O150 2.355952 1_555
Na24 O42 2.389102 1_555
Na24 O147 2.398119 1_555
Na24 O213 2.538727 1_555
Na24 O207 2.610144 1_555
Na24 O105 2.858126 1_555
Na25 O151 2.401670 1_555
Na25 O208 2.537266 1_555
Na25 O214 2.542125 1_555
Na25 O148 2.602824 1_555
Na25 O43 2.678160 1_555
Na25 O19 2.781919 1_555
Na25 O106 2.816494 1_555
Na25 O13 2.947888 1_555
Na26 O144 2.331053 1_555
Na26 O150 2.422687 1_555
Na26 O36 2.426424 1_555
Na26 O207 2.544326 1_655
Na26 O210 2.567657 1_655
Na26 O99 2.818990 1_655
Na27 O209 2.443293 1_555
Na27 O146 2.463860 1_455
Na27 O152 2.575938 1_455
Na27 O212 2.613569 1_555
Na27 O38 2.669369 1_455
Na27 O101 2.753052 1_555
Na27 O23 2.824333 1_555
Na27 O17 2.954596 1_455
Na28 O147 2.353983 1_555
Na28 O39 2.412943 1_555
Na28 O144 2.413541 1_555
Na28 O215 2.521175 1_545
Na28 O212 2.595644 1_545
Na28 O104 2.863446 1_545
Na29 O149 2.434909 1_555
Na29 O211 2.475506 1_555
Na29 O214 2.526430 1_555
Na29 O41 2.660787 1_555
Na29 O146 2.668052 1_555
Na29 O25 2.729150 1_555
Na29 O103 2.796400 1_555
Na29 O11 2.914368 1_555
Na30 O129 2.476517 1_555
Na30 O192 2.510343 1_555
Na30 O195 2.565043 1_555
Na30 O126 2.661998 1_455
Na30 O21 2.702204 1_555
Na30 O42 2.787565 1_555
Na30 O84 2.802814 1_555
Na30 O63 2.836778 1_555
Na31 O193 2.401182 1_555
Na31 O130 2.525156 1_555
Na31 O127 2.594125 1_455
Na31 O85 2.614900 1_555
Na31 O196 2.724445 1_555
Na31 O64 2.776452 1_555
Na31 O22 2.855954 1_555
Na31 O43 2.880232 1_555
Na32 O131 2.356546 1_555
Na32 O23 2.373692 1_555
Na32 O128 2.387148 1_455
Na32 O197 2.586071 1_555
Na32 O194 2.622075 1_555
Na32 O86 2.897093 1_555
Na33 O132 2.507792 1_455
Na33 O195 2.522221 1_555
Na33 O130 2.584581 1_555
Na33 O189 2.604939 1_555
Na33 O24 2.651958 1_555
Na33 O36 2.746471 1_455
Na33 O87 2.819003 1_555
Na33 O66 2.868745 1_455
Na34 O133 2.348226 1_455
Na34 O131 2.432690 1_555
Na34 O25 2.492253 1_555
Na34 O196 2.602950 1_555
Na34 O190 2.711499 1_555
Na34 O88 2.867194 1_555
Na35 O197 2.426704 1_555
Na35 O134 2.470988 1_455
Na35 O191 2.519430 1_555
Na35 O129 2.543499 1_565
Na35 O89 2.646064 1_555
Na35 O26 2.721135 1_555
Na35 O68 2.921115 1_455
Na35 O38 2.968350 1_455
Na36 O189 2.505963 1_555
Na36 O127 2.535102 1_555
Na36 O192 2.579215 1_555
Na36 O132 2.604918 1_555
Na36 O81 2.616554 1_555
Na36 O70 2.708581 1_555
Na36 O18 2.850443 1_555
Na36 O40 2.911311 1_555
Na37 O133 2.339870 1_555
Na37 O128 2.352964 1_555
Na37 O19 2.425439 1_555
Na37 O190 2.542149 1_555
Na37 O193 2.592780 1_555
Na37 O82 2.927073 1_555
Na38 O126 2.474546 1_565
Na38 O191 2.482908 1_555
Na38 O194 2.646083 1_555
Na38 O134 2.661504 1_555
Na38 O20 2.679848 1_555
Na38 O83 2.772637 1_555
Na38 O39 2.773077 1_565
Na38 O69 2.850401 1_565
Na39 O186 2.500927 1_555
Na39 O142 2.541498 1_555
Na39 O183 2.569448 1_555
Na39 O135 2.595485 1_455
Na39 O78 2.616903 1_554
Na39 O55 2.732901 1_555
Na39 O33 2.840164 1_555
Na39 O49 2.907621 1_555
Na40 O143 2.343311 1_555
Na40 O34 2.352228 1_555
Na40 O136 2.357241 1_455
Na40 O187 2.551640 1_555
Na40 O184 2.619617 1_555
Na40 O79 2.961012 1_554
Na40 O50 3.005295 1_555
Na41 O188 2.451781 1_555
Na41 O141 2.465703 1_565
Na41 O137 2.588343 1_455
Na41 O185 2.645549 1_555
Na41 O35 2.648861 1_555
Na41 O80 2.778491 1_554
Na41 O48 2.796069 1_565
Na41 O54 2.884143 1_565
Na42 O180 2.509557 1_555
Na42 O135 2.510971 1_555
Na42 O139 2.597549 1_555
Na42 O186 2.618567 1_555
Na42 O27 2.653887 1_555
Na42 O51 2.709546 1_555
Na42 O72 2.832296 1_554
Na42 O57 2.865755 1_555
Na43 O136 2.351848 1_555
Na43 O140 2.435596 1_555
Na43 O28 2.443155 1_555
Na43 O181 2.601506 1_555
Na43 O187 2.703363 1_555
Na43 O73 2.928461 1_554
Na44 O138 2.414870 1_455
Na44 O183 2.520401 1_555
Na44 O180 2.562393 1_555
Na44 O141 2.643520 1_555
Na44 O30 2.653888 1_555
Na44 O45 2.790824 1_455
Na44 O75 2.839438 1_554
Na44 O60 2.871949 1_455
Na45 O184 2.409283 1_555
Na45 O139 2.510245 1_455
Na45 O142 2.592526 1_555
Na45 O76 2.651704 1_554
Na45 O181 2.743015 1_555
Na45 O61 2.769417 1_455
Na45 O31 2.829801 1_555
Na45 O46 2.860594 1_455
Na46 O140 2.377079 1_455
Na46 O32 2.380430 1_555
Na46 O143 2.413637 1_555
Na46 O182 2.517840 1_555
Na46 O185 2.586399 1_555
Na46 O77 2.875111 1_554
Na47 O166 2.375567 1_555
Na47 O58 2.383484 1_556
Na47 O163 2.394635 1_555
Na47 O121 2.557251 1_655
Na47 O124 2.599349 1_555
Na48 O169 2.362360 1_555
Na48 O61 2.364393 1_556
Na48 O166 2.411471 1_555
Na48 O123 2.534083 1_555
Na48 O118 2.616959 1_655
Na48 O16 2.858612 1_555
Na49 O124 2.413037 1_555
Na49 O170 2.439647 1_555
Na49 O167 2.462015 1_555
Na49 O119 2.526244 1_655
Na49 O62 2.678922 1_556
Na49 O17 2.743691 1_555
Na50 O163 2.352355 1_555
Na50 O55 2.400810 1_556
Na50 O169 2.413948 1_555
Na50 O118 2.546959 1_555
Na50 O120 2.552305 1_555
Na50 O10 2.830230 1_555
Na51 O178 2.335841 1_555
Na51 O70 2.415367 1_555
Na51 O172 2.424270 1_555
Na51 O115 2.553525 1_655
Na51 O111 2.574429 1_555
Na51 O7 2.838103 1_555
Na52 O172 2.360409 1_555
Na52 O64 2.369334 1_555
Na52 O175 2.402584 1_555
Na52 O108 2.535420 1_555
Na52 O115 2.611351 1_555
Na52 O1 2.851700 1_555
Na53 O175 2.388844 1_555
Na53 O178 2.405222 1_555
Na53 O67 2.427159 1_555
Na53 O112 2.526607 1_555
Na53 O109 2.528983 1_655
Mg0 O19 2.043485 1_555
Mg0 O25 2.049097 1_655
Mg0 O23 2.057057 1_655
Mg0 O133 2.091803 1_555
Mg0 O131 2.173966 1_655
Mg0 O128 2.175302 1_555
Mg1 O34 2.044553 1_555
Mg1 O28 2.046600 1_455
Mg1 O32 2.048129 1_555
Mg1 O136 2.109332 1_455
Mg1 O143 2.193892 1_555
Mg1 O140 2.202157 1_455
Mg2 O39 2.055228 1_555
Mg2 O42 2.068412 1_555
Mg2 O36 2.070306 1_555
Mg2 O147 2.157816 1_555
Mg2 O144 2.160860 1_555
Mg2 O150 2.169558 1_555
Mg3 O48 2.046515 1_555
Mg3 O45 2.070442 1_555
Mg3 O51 2.073036 1_555
Mg3 O159 2.160945 1_555
Mg3 O156 2.167616 1_555
Mg3 O153 2.177002 1_555
Mg4 O58 1.994463 1_556
Mg4 O61 2.062523 1_556
Mg4 O55 2.065559 1_556
Mg4 O169 2.157156 1_555
Mg4 O166 2.175928 1_555
Mg4 O163 2.177243 1_555
Mg5 O67 1.992733 1_555
Mg5 O64 2.072130 1_555
Mg5 O70 2.072877 1_555
Mg5 O172 2.159824 1_555
Mg5 O178 2.171671 1_555
Mg5 O175 2.172295 1_555
Nb0 O0 1.946275 1_665
Nb0 O6 1.955503 1_565
Nb0 O5 1.981875 1_555
Nb0 O110 2.039480 1_655
Nb0 O114 2.044689 1_665
Nb0 O113 2.048899 1_555
Nb1 O3 1.908965 1_555
Nb1 O7 1.981343 1_555
Nb1 O1 1.988345 1_655
Nb1 O111 2.033365 1_555
Nb1 O108 2.062995 1_655
Nb1 O115 2.082321 1_655
Nb2 O2 1.964053 1_555
Nb2 O8 1.968805 1_455
Nb2 O116 2.009684 1_555
Nb2 O4 2.016694 1_455
Nb2 O109 2.048628 1_555
Nb2 O112 2.076121 1_455
Nb3 O9 1.961566 1_565
Nb3 O15 1.963003 1_465
Nb3 O14 1.996161 1_455
Nb3 O122 2.020142 1_555
Nb3 O117 2.026806 1_565
Nb3 O125 2.029972 1_455
Nb4 O12 1.907746 1_555
Nb4 O10 1.987467 1_655
Nb4 O16 1.989845 1_555
Nb4 O120 2.032314 1_655
Nb4 O123 2.051026 1_555
Nb4 O118 2.084516 1_655
Nb5 O11 1.935707 1_555
Nb5 O13 1.983569 1_455
Nb5 O17 1.998242 1_455
Nb5 O119 2.033188 1_555
Nb5 O121 2.047410 1_555
Nb5 O124 2.091631 1_455
Nb6 O20 1.941735 1_545
Nb6 O21 1.945023 1_655
Nb6 O26 1.976550 1_645
Nb6 O126 2.053026 1_555
Nb6 O134 2.077910 1_545
Nb6 O129 2.081607 1_655
Nb7 O22 1.954308 1_555
Nb7 O24 1.959144 1_555
Nb7 O18 1.969964 1_455
Nb7 O130 2.022753 1_555
Nb7 O127 2.034025 1_455
Nb7 O132 2.081702 1_455
Nb8 O29 1.935827 1_555
Nb8 O35 1.973642 1_655
Nb8 O30 1.981529 1_665
Nb8 O138 2.043113 1_565
Nb8 O137 2.048250 1_555
Nb8 O141 2.084105 1_665
Nb9 O31 1.953604 1_655
Nb9 O27 1.955668 1_555
Nb9 O33 1.969666 1_655
Nb9 O139 2.022799 1_555
Nb9 O142 2.041427 1_655
Nb9 O135 2.082981 1_555
Nb10 O37 1.959165 1_555
Nb10 O40 1.975382 1_555
Nb10 O43 1.987995 1_555
Nb10 O145 2.032899 1_555
Nb10 O151 2.058536 1_555
Nb10 O148 2.067587 1_555
Nb11 O44 1.952367 1_555
Nb11 O41 1.980590 1_555
Nb11 O38 1.990536 1_555
Nb11 O152 2.036644 1_555
Nb11 O149 2.040848 1_555
Nb11 O146 2.069004 1_555
Nb12 O52 1.967003 1_555
Nb12 O49 1.983553 1_555
Nb12 O46 1.995886 1_555
Nb12 O160 2.027239 1_555
Nb12 O154 2.038547 1_555
Nb12 O157 2.060847 1_555
Nb13 O47 1.944665 1_555
Nb13 O53 1.979202 1_555
Nb13 O50 1.996890 1_555
Nb13 O155 2.030799 1_555
Nb13 O158 2.034808 1_555
Nb13 O161 2.071937 1_555
Nb14 O60 1.975786 1_556
Nb14 O54 1.993998 1_556
Nb14 O57 2.011568 1_556
Nb14 O168 2.013433 1_555
Nb14 O165 2.027776 1_555
Nb14 O162 2.043473 1_555
Nb15 O56 1.918981 1_556
Nb15 O59 1.944442 1_556
Nb15 O62 1.997042 1_556
Nb15 O164 2.006313 1_555
Nb15 O167 2.079996 1_555
Nb15 O170 2.097187 1_555
Nb16 O63 1.995265 1_555
Nb16 O171 2.005925 1_555
Nb16 O69 2.009435 1_555
Nb16 O66 2.010567 1_555
Nb16 O174 2.013864 1_555
Nb16 O177 2.026204 1_555
Nb17 O65 1.958806 1_555
Nb17 O71 1.966207 1_555
Nb17 O173 2.012274 1_555
Nb17 O176 2.016090 1_555
Nb17 O179 2.025246 1_555
Nb17 O68 2.025942 1_555
Nb18 O75 1.933626 1_554
Nb18 O78 1.966847 1_554
Nb18 O72 1.975170 1_554
Nb18 O183 2.023647 1_555
Nb18 O180 2.026109 1_555
Nb18 O186 2.100830 1_555
Nb19 O79 1.975901 1_554
Nb19 O76 1.979743 1_554
Nb19 O73 1.984805 1_554
Nb19 O184 2.022693 1_555
Nb19 O187 2.041032 1_555
Nb19 O181 2.057146 1_555
Nb20 O74 1.914426 1_554
Nb20 O80 1.980831 1_554
Nb20 O77 1.992020 1_554
Nb20 O188 1.994796 1_555
Nb20 O182 2.031671 1_555
Nb20 O185 2.129706 1_555
Nb21 O84 1.934222 1_555
Nb21 O81 1.957562 1_555
Nb21 O87 1.971894 1_555
Nb21 O192 2.026144 1_555
Nb21 O195 2.039247 1_555
Nb21 O189 2.102368 1_555
Nb22 O88 1.952388 1_555
Nb22 O82 1.955659 1_555
Nb22 O85 1.979840 1_555
Nb22 O190 2.053488 1_555
Nb22 O193 2.054195 1_555
Nb22 O196 2.079403 1_555
Nb23 O89 1.938707 1_555
Nb23 O86 1.940423 1_555
Nb23 O83 1.945239 1_555
Nb23 O191 2.045810 1_555
Nb23 O197 2.079059 1_555
Nb23 O194 2.114441 1_555
Nb24 O93 1.918445 1_555
Nb24 O96 1.966477 1_555
Nb24 O90 1.987229 1_555
Nb24 O201 2.036036 1_555
Nb24 O204 2.069595 1_555
Nb24 O198 2.073177 1_555
Nb25 O97 1.918170 1_555
Nb25 O91 1.961297 1_555
Nb25 O94 1.980846 1_555
Nb25 O202 1.999859 1_555
Nb25 O199 2.057828 1_555
Nb25 O205 2.074732 1_555
Nb26 O92 1.915795 1_555
Nb26 O95 1.980545 1_555
Nb26 O98 1.996414 1_555
Nb26 O206 2.004979 1_555
Nb26 O200 2.022326 1_555
Nb26 O203 2.127821 1_555
Nb27 O102 1.913768 1_555
Nb27 O99 1.964413 1_555
Nb27 O105 1.983588 1_555
Nb27 O210 2.038528 1_555
Nb27 O213 2.072354 1_555
Nb27 O207 2.085607 1_555
Nb28 O100 1.911336 1_555
Nb28 O106 1.970295 1_555
Nb28 O211 1.988127 1_555
Nb28 O103 2.007971 1_555
Nb28 O208 2.052674 1_555
Nb28 O214 2.061472 1_555
Nb29 O107 1.913092 1_555
Nb29 O104 1.959815 1_555
Nb29 O101 1.990798 1_555
Nb29 O209 2.023644 1_555
Nb29 O215 2.030780 1_555
Nb29 O212 2.137824 1_555
O0 Si0 1.642926 1_545
O1 Si1 1.647285 1_555
O2 Si2 1.661152 1_555
O3 Si3 1.660326 1_555
O4 Si4 1.664596 1_555
O5 Si5 1.622303 1_555
O6 Si6 1.642230 1_555
O7 Si7 1.641494 1_555
O8 Si8 1.664520 1_655
O9 Si9 1.635044 1_555
O10 Si10 1.638436 1_555
O11 Si11 1.678328 1_555
O12 Si12 1.660573 1_655
O13 Si13 1.678520 1_555
O14 Si14 1.617740 1_655
O15 Si15 1.633461 1_545
O16 Si16 1.647815 1_555
O17 Si17 1.668510 1_555
O18 Si16 1.659100 1_555
O19 Si17 1.593497 1_555
O20 Si15 1.684481 1_555
O21 Si9 1.687361 1_555
O22 Si10 1.647752 1_555
O23 Si11 1.594547 1_555
O24 Si12 1.659552 1_555
O25 Si13 1.594833 1_455
O26 Si14 1.664575 1_555
O27 Si3 1.660823 1_555
O28 Si4 1.598879 1_555
O29 Si5 1.657874 1_555
O30 Si6 1.671687 1_455
O31 Si7 1.650504 1_455
O32 Si8 1.598527 1_555
O33 Si1 1.658791 1_555
O34 Si2 1.594515 1_555
O35 Si0 1.668711 1_555
O36 Si18 1.598158 1_555
O37 Si19 1.658239 1_555
O38 Si20 1.675653 1_555
O39 Si21 1.596988 1_555
O40 Si22 1.655379 1_555
O41 Si23 1.676821 1_555
O42 Si24 1.598180 1_555
O43 Si25 1.698573 1_555
O44 Si26 1.655041 1_555
O45 Si27 1.597564 1_555
O46 Si28 1.688230 1_555
O47 Si29 1.648706 1_555
O48 Si30 1.598597 1_555
O49 Si31 1.653653 1_555
O50 Si32 1.664468 1_555
O51 Si33 1.599821 1_555
O52 Si34 1.654555 1_555
O53 Si35 1.659860 1_555
O54 Si33 1.649575 1_555
O55 Si34 1.596489 1_555
O56 Si35 1.656701 1_555
O57 Si27 1.644204 1_555
O58 Si28 1.597891 1_555
O59 Si29 1.638386 1_555
O60 Si30 1.659100 1_555
O61 Si31 1.595529 1_555
O62 Si32 1.650645 1_555
O63 Si21 1.648511 1_555
O64 Si22 1.595622 1_555
O65 Si23 1.642147 1_555
O66 Si24 1.644805 1_555
O67 Si25 1.597644 1_555
O68 Si26 1.617835 1_555
O69 Si18 1.644592 1_555
O70 Si19 1.596844 1_555
O71 Si20 1.637618 1_555
O72 Si36 1.658951 1_555
O73 Si37 1.672105 1_555
O74 Si38 1.641755 1_555
O75 Si39 1.659718 1_555
O76 Si40 1.665267 1_555
O77 Si41 1.638964 1_555
O78 Si42 1.656415 1_555
O79 Si43 1.658703 1_555
O80 Si44 1.648321 1_555
O81 Si45 1.661881 1_555
O82 Si46 1.663826 1_555
O83 Si47 1.668422 1_555
O84 Si48 1.662233 1_555
O85 Si49 1.667083 1_555
O86 Si50 1.664875 1_555
O87 Si51 1.661170 1_555
O88 Si52 1.676901 1_555
O89 Si53 1.659318 1_555
O90 Si51 1.645812 1_555
O91 Si52 1.654021 1_555
O92 Si53 1.642745 1_555
O93 Si45 1.656216 1_555
O94 Si46 1.639385 1_555
O95 Si47 1.643855 1_555
O96 Si48 1.646995 1_555
O97 Si49 1.650821 1_555
O98 Si50 1.640065 1_555
O99 Si39 1.650128 1_555
O100 Si40 1.654502 1_555
O101 Si41 1.642942 1_555
O102 Si42 1.658413 1_555
O103 Si43 1.641542 1_555
O104 Si44 1.656243 1_555
O105 Si36 1.649082 1_555
O106 Si37 1.654093 1_555
O107 Si38 1.644908 1_555
O108 Si51 1.648266 1_555
O109 Si52 1.640849 1_555
O110 Si53 1.620196 1_555
O111 Si45 1.644624 1_555
O112 Si46 1.633788 1_555
O113 Si47 1.625108 1_555
O114 Si48 1.623951 1_555
O115 Si49 1.648438 1_555
O116 Si50 1.633564 1_555
O117 Si39 1.628702 1_555
O118 Si40 1.645789 1_555
O119 Si41 1.653902 1_555
O120 Si42 1.645779 1_555
O121 Si43 1.636562 1_555
O122 Si44 1.632364 1_555
O123 Si36 1.652037 1_555
O124 Si37 1.652456 1_555
O125 Si38 1.619349 1_555
O126 Si18 1.673133 1_555
O127 Si19 1.671056 1_555
O128 Si20 1.593305 1_555
O129 Si21 1.670984 1_555
O130 Si22 1.662790 1_555
O131 Si23 1.593697 1_555
O132 Si24 1.669200 1_555
O133 Si25 1.607207 1_555
O134 Si26 1.647580 1_555
O135 Si27 1.671245 1_555
O136 Si28 1.606893 1_555
O137 Si29 1.634906 1_555
O138 Si30 1.660594 1_555
O139 Si31 1.664068 1_555
O140 Si32 1.596726 1_555
O141 Si33 1.658119 1_555
O142 Si34 1.668920 1_555
O143 Si35 1.599618 1_555
O144 Si15 1.602265 1_545
O145 Si16 1.621934 1_555
O146 Si17 1.660536 1_555
O147 Si9 1.595539 1_555
O148 Si10 1.630906 1_555
O149 Si11 1.655647 1_555
O150 Si12 1.598244 1_655
O151 Si13 1.645776 1_555
O152 Si14 1.643821 1_655
O153 Si3 1.597632 1_555
O154 Si4 1.654893 1_555
O155 Si5 1.640887 1_555
O156 Si6 1.598331 1_555
O157 Si7 1.633243 1_555
O158 Si8 1.659006 1_655
O159 Si0 1.604784 1_545
O160 Si1 1.622102 1_555
O161 Si2 1.659312 1_555
O162 Si36 1.613831 1_555
O163 Si37 1.596751 1_555
O164 Si38 1.633486 1_555
O165 Si39 1.626079 1_655
O166 Si40 1.594298 1_655
O167 Si41 1.642825 1_655
O168 Si44 1.634877 1_545
O169 Si42 1.599199 1_555
O170 Si43 1.626534 1_555
O171 Si47 1.635023 1_545
O172 Si45 1.597853 1_555
O173 Si46 1.626129 1_555
O174 Si48 1.629848 1_555
O175 Si49 1.594436 1_555
O176 Si50 1.631980 1_555
O177 Si51 1.617492 1_655
O178 Si52 1.604964 1_655
O179 Si53 1.625915 1_655
O180 Si33 1.673201 1_555
O181 Si34 1.661657 1_555
O182 Si35 1.649072 1_555
O183 Si27 1.668222 1_455
O184 Si28 1.703056 1_455
O185 Si29 1.639331 1_455
O186 Si31 1.659545 1_555
O187 Si32 1.667037 1_555
O188 Si30 1.654895 1_565
O189 Si22 1.660503 1_555
O190 Si23 1.661918 1_555
O191 Si21 1.663738 1_565
O192 Si24 1.667932 1_555
O193 Si25 1.697002 1_555
O194 Si26 1.642008 1_555
O195 Si18 1.667057 1_455
O196 Si19 1.656431 1_455
O197 Si20 1.664537 1_455
O198 Si1 1.645242 1_555
O199 Si2 1.657570 1_555
O200 Si0 1.655218 1_555
O201 Si3 1.643765 1_555
O202 Si4 1.660036 1_555
O203 Si5 1.644545 1_555
O204 Si6 1.658891 1_455
O205 Si7 1.644535 1_455
O206 Si8 1.651733 1_555
O207 Si9 1.651751 1_555
O208 Si10 1.651436 1_555
O209 Si11 1.643590 1_555
O210 Si12 1.643409 1_555
O211 Si13 1.657868 1_455
O212 Si14 1.646378 1_555
O213 Si16 1.645498 1_555
O214 Si17 1.658030 1_555
O215 Si15 1.650833 1_555
