# generated using pymatgen
data_Ba2PdF6
_symmetry_space_group_name_H-M   'P 1'
_cell_length_a   6.21935502
_cell_length_b   6.22187326
_cell_length_c   9.10962473
_cell_angle_alpha   109.96827956
_cell_angle_beta   90.00000000
_cell_angle_gamma   90.00000000
_symmetry_Int_Tables_number   1
_chemical_formula_structural   Ba2PdF6
_chemical_formula_sum   'Ba4 Pd2 F12'
_cell_volume   331.31435084
_cell_formula_units_Z   2
loop_
 _symmetry_equiv_pos_site_id
 _symmetry_equiv_pos_as_xyz
  1  'x, y, z'
loop_
 _atom_site_type_symbol
 _atom_site_label
 _atom_site_symmetry_multiplicity
 _atom_site_fract_x
 _atom_site_fract_y
 _atom_site_fract_z
 _atom_site_occupancy
  Ba  Ba0  1  0.00000000  0.16020087  0.32040274  1
  Ba  Ba1  1  0.50000000  0.33979913  0.67959726  1
  Ba  Ba2  1  0.00000000  0.83979913  0.67959726  1
  Ba  Ba3  1  0.50000000  0.66020087  0.32040274  1
  Pd  Pd0  1  0.00000000  0.50000000  0.00000000  1
  Pd  Pd1  1  0.50000000  0.00000000  0.00000000  1
  F  F0  1  0.25000000  0.99389194  0.50000000  1
  F  F1  1  0.75000000  0.50610806  0.50000000  1
  F  F2  1  0.75000000  0.00610806  0.50000000  1
  F  F3  1  0.25000000  0.49389194  0.50000000  1
  F  F4  1  0.15826494  0.42467450  0.16468029  1
  F  F5  1  0.65826494  0.07532550  0.83531971  1
  F  F6  1  0.34173506  0.75999320  0.83531971  1
  F  F7  1  0.84173506  0.74000680  0.16468029  1
  F  F8  1  0.84173506  0.57532550  0.83531971  1
  F  F9  1  0.34173506  0.92467450  0.16468029  1
  F  F10  1  0.65826494  0.24000680  0.16468029  1
  F  F11  1  0.15826494  0.25999320  0.83531971  1
loop_
_geom_bond_atom_site_label_1
_geom_bond_atom_site_label_2
_geom_bond_distance
_geom_bond_site_symmetry_2
Ba0 F2 2.661720 1_455
Ba0 F3 2.661724 1_555
Ba0 F9 2.693915 1_545
Ba0 F10 2.693919 1_455
Ba0 F7 2.698744 1_445
Ba0 F4 2.698753 1_555
Ba0 F0 2.705773 1_545
Ba0 F1 2.705777 1_455
Ba1 F3 2.661720 1_555
Ba1 F2 2.661724 1_555
Ba1 F8 2.693915 1_555
Ba1 F11 2.693919 1_555
Ba1 F6 2.698744 1_555
Ba1 F5 2.698753 1_555
Ba1 F1 2.705773 1_555
Ba1 F0 2.705777 1_545
Ba2 F0 2.661720 1_555
Ba2 F1 2.661724 1_455
Ba2 F5 2.693915 1_465
Ba2 F6 2.693919 1_555
Ba2 F11 2.698744 1_565
Ba2 F8 2.698753 1_455
Ba2 F2 2.705773 1_465
Ba2 F3 2.705777 1_555
Ba3 F1 2.661720 1_555
Ba3 F0 2.661724 1_555
Ba3 F4 2.693915 1_555
Ba3 F7 2.693919 1_555
Ba3 F10 2.698744 1_555
Ba3 F9 2.698753 1_555
Ba3 F3 2.705773 1_555
Ba3 F2 2.705777 1_565
F4 Pd0 1.979706 1_555
F5 Pd1 1.979706 1_556
F6 Pd1 1.979709 1_566
F7 Pd0 1.979709 1_655
F8 Pd0 1.979706 1_656
F9 Pd1 1.979706 1_565
F10 Pd1 1.979709 1_555
F11 Pd0 1.979709 1_556
