# generated using pymatgen
data_Na2Mg(FeS2)2
_symmetry_space_group_name_H-M   'P 1'
_cell_length_a   5.53552397
_cell_length_b   5.97626930
_cell_length_c   7.59960455
_cell_angle_alpha   113.15366524
_cell_angle_beta   111.35839106
_cell_angle_gamma   89.99962708
_symmetry_Int_Tables_number   1
_chemical_formula_structural   Na2Mg(FeS2)2
_chemical_formula_sum   'Na2 Mg1 Fe2 S4'
_cell_volume   212.25110441
_cell_formula_units_Z   1
loop_
 _symmetry_equiv_pos_site_id
 _symmetry_equiv_pos_as_xyz
  1  'x, y, z'
loop_
 _atom_site_type_symbol
 _atom_site_label
 _atom_site_symmetry_multiplicity
 _atom_site_fract_x
 _atom_site_fract_y
 _atom_site_fract_z
 _atom_site_occupancy
  Na  Na0  1  0.26338915  0.26338915  0.52677729  1
  Na  Na1  1  0.73662483  0.73662483  0.47324966  1
  Mg  Mg0  1  0.99999371  0.49999371  0.99998743  1
  Fe  Fe0  1  0.99999347  0.99999347  0.99998694  1
  Fe  Fe1  1  0.50000832  0.00000832  0.00001664  1
  S  S0  1  0.85468901  0.32957185  0.20280970  1
  S  S1  1  0.34812169  0.87323785  0.20280970  1
  S  S2  1  0.65186479  0.67041368  0.79718182  1
  S  S3  1  0.14531603  0.12676814  0.79718182  1
loop_
_geom_bond_atom_site_label_1
_geom_bond_atom_site_label_2
_geom_bond_distance
_geom_bond_site_symmetry_2
Na0 S2 2.759433 1_555
Na0 S3 2.759441 1_555
Na0 S0 2.836353 1_455
Na0 S1 2.836356 1_545
Na1 S1 2.759630 1_555
Na1 S0 2.759632 1_555
Na1 S3 2.836250 1_665
Na1 S2 2.836252 1_555
Mg0 S3 2.489438 1_655
Mg0 S2 2.489442 1_555
Mg0 S0 2.489518 1_556
Mg0 S1 2.489521 1_656
Fe0 S0 2.327632 1_566
Fe0 S1 2.327636 1_656
Fe0 S3 2.327645 1_665
Fe0 S2 2.327649 1_555
Fe1 S1 2.349051 1_545
Fe1 S0 2.349055 1_555
Fe1 S2 2.349194 1_544
Fe1 S3 2.349197 1_554
