# generated using pymatgen
data_Na6Nb2Zn4Si3(SO6)6
_symmetry_space_group_name_H-M   'P 1'
_cell_length_a   8.95464002
_cell_length_b   8.95463972
_cell_length_c   22.48193516
_cell_angle_alpha   90.00000000
_cell_angle_beta   90.00000000
_cell_angle_gamma   120.00000112
_symmetry_Int_Tables_number   1
_chemical_formula_structural   Na6Nb2Zn4Si3(SO6)6
_chemical_formula_sum   'Na12 Nb4 Zn8 Si6 S12 O72'
_cell_volume   1561.20727563
_cell_formula_units_Z   2
loop_
 _symmetry_equiv_pos_site_id
 _symmetry_equiv_pos_as_xyz
  1  'x, y, z'
loop_
 _atom_site_type_symbol
 _atom_site_label
 _atom_site_symmetry_multiplicity
 _atom_site_fract_x
 _atom_site_fract_y
 _atom_site_fract_z
 _atom_site_occupancy
  Na  Na0  1  0.98433025  0.69301408  0.91661149  1
  Na  Na1  1  0.70868283  0.01566975  0.91661149  1
  Na  Na2  1  0.30698592  0.29131717  0.91661149  1
  Na  Na3  1  0.98433025  0.29131717  0.41661149  1
  Na  Na4  1  0.30698592  0.01566975  0.41661149  1
  Na  Na5  1  0.70868283  0.69301408  0.41661149  1
  Na  Na6  1  -0.00000000  -0.00000000  0.49889863  1
  Na  Na7  1  -0.00000000  -0.00000000  0.99889863  1
  Na  Na8  1  0.66666700  0.33333300  0.82210720  1
  Na  Na9  1  0.66666700  0.33333300  0.32210720  1
  Na  Na10  1  0.33333300  0.66666700  0.15885770  1
  Na  Na11  1  0.33333300  0.66666700  0.65885770  1
  Nb  Nb0  1  0.66666700  0.33333300  0.97975226  1
  Nb  Nb1  1  0.66666700  0.33333300  0.47975226  1
  Nb  Nb2  1  0.33333300  0.66666700  0.31678753  1
  Nb  Nb3  1  0.33333300  0.66666700  0.81678753  1
  Zn  Zn0  1  -0.00000000  -0.00000000  0.35062580  1
  Zn  Zn1  1  -0.00000000  -0.00000000  0.85062580  1
  Zn  Zn2  1  -0.00000000  -0.00000000  0.65110257  1
  Zn  Zn3  1  -0.00000000  -0.00000000  0.15110257  1
  Zn  Zn4  1  0.66666700  0.33333300  0.68203488  1
  Zn  Zn5  1  0.66666700  0.33333300  0.18203488  1
  Zn  Zn6  1  0.33333300  0.66666700  0.00906634  1
  Zn  Zn7  1  0.33333300  0.66666700  0.50906634  1
  Si  Si0  1  0.62657965  0.66945547  0.92000569  1
  Si  Si1  1  0.04287482  0.37342035  0.92000569  1
  Si  Si2  1  0.33054453  0.95712518  0.92000569  1
  Si  Si3  1  0.62657965  0.95712518  0.42000569  1
  Si  Si4  1  0.33054453  0.37342035  0.42000569  1
  Si  Si5  1  0.04287482  0.66945547  0.42000569  1
  S  S0  1  0.29803399  -0.00008627  0.24896995  1
  S  S1  1  0.70187974  0.70196601  0.24896995  1
  S  S2  1  0.00008627  0.29812026  0.24896995  1
  S  S3  1  0.29803399  0.29812026  0.74896995  1
  S  S4  1  0.00008627  0.70196601  0.74896995  1
  S  S5  1  0.70187974  -0.00008627  0.74896995  1
  S  S6  1  0.96010305  0.33215152  0.58618641  1
  S  S7  1  0.37204946  0.03989695  0.58618641  1
  S  S8  1  0.66784848  0.62795054  0.58618641  1
  S  S9  1  0.96010305  0.62795054  0.08618641  1
  S  S10  1  0.66784848  0.03989695  0.08618641  1
  S  S11  1  0.37204946  0.33215152  0.08618641  1
  O  O0  1  0.22301588  0.01813118  0.30534649  1
  O  O1  1  0.79511530  0.77698412  0.30534649  1
  O  O2  1  0.98186882  0.20488470  0.30534649  1
  O  O3  1  0.22301588  0.20488470  0.80534649  1
  O  O4  1  0.98186882  0.77698412  0.80534649  1
  O  O5  1  0.79511530  0.01813118  0.80534649  1
  O  O6  1  0.78477894  0.97571550  0.69655008  1
  O  O7  1  0.19093656  0.21522106  0.69655008  1
  O  O8  1  0.02428450  0.80906344  0.69655008  1
  O  O9  1  0.78477894  0.80906344  0.19655008  1
  O  O10  1  0.02428450  0.21522106  0.19655008  1
  O  O11  1  0.19093656  0.97571550  0.19655008  1
  O  O12  1  0.86808527  0.34572033  0.63807445  1
  O  O13  1  0.47763606  0.13191473  0.63807445  1
  O  O14  1  0.65427967  0.52236394  0.63807445  1
  O  O15  1  0.86808527  0.52236394  0.13807445  1
  O  O16  1  0.65427967  0.13191473  0.13807445  1
  O  O17  1  0.47763606  0.34572033  0.13807445  1
  O  O18  1  0.46888752  0.31976942  0.03001515  1
  O  O19  1  0.85088290  0.53111248  0.03001515  1
  O  O20  1  0.68023058  0.14911710  0.03001515  1
  O  O21  1  0.46888752  0.14911710  0.53001515  1
  O  O22  1  0.68023058  0.53111248  0.53001515  1
  O  O23  1  0.85088290  0.31976942  0.53001515  1
  O  O24  1  0.55516978  0.71871168  0.97670026  1
  O  O25  1  0.16354090  0.44483022  0.97670026  1
  O  O26  1  0.28128832  0.83645910  0.97670026  1
  O  O27  1  0.55516978  0.83645910  0.47670026  1
  O  O28  1  0.28128832  0.44483022  0.47670026  1
  O  O29  1  0.16354090  0.71871168  0.47670026  1
  O  O30  1  0.13267383  0.62205323  0.36133840  1
  O  O31  1  0.48937841  0.86732617  0.36133840  1
  O  O32  1  0.37794677  0.51062159  0.36133840  1
  O  O33  1  0.13267383  0.51062159  0.86133840  1
  O  O34  1  0.37794677  0.86732617  0.86133840  1
  O  O35  1  0.48937841  0.62205323  0.86133840  1
  O  O36  1  0.00177909  0.82145159  0.40703929  1
  O  O37  1  0.81967249  0.99822091  0.40703929  1
  O  O38  1  0.17854841  0.18032751  0.40703929  1
  O  O39  1  0.00177909  0.18032751  0.90703929  1
  O  O40  1  0.17854841  0.99822091  0.90703929  1
  O  O41  1  0.81967249  0.82145159  0.90703929  1
  O  O42  1  0.96412990  0.16844565  0.58531684  1
  O  O43  1  0.20431574  0.03587010  0.58531684  1
  O  O44  1  0.83155435  0.79568426  0.58531684  1
  O  O45  1  0.96412990  0.79568426  0.08531684  1
  O  O46  1  0.83155435  0.03587010  0.08531684  1
  O  O47  1  0.20431574  0.16844565  0.08531684  1
  O  O48  1  0.67688637  0.15199422  0.74396685  1
  O  O49  1  0.47510884  0.32311363  0.74396685  1
  O  O50  1  0.84800578  0.52489116  0.74396685  1
  O  O51  1  0.67688637  0.52489116  0.24396685  1
  O  O52  1  0.84800578  0.32311363  0.24396685  1
  O  O53  1  0.47510884  0.15199422  0.24396685  1
  O  O54  1  0.63092266  0.48556187  0.92613436  1
  O  O55  1  0.85464020  0.36907734  0.92613436  1
  O  O56  1  0.51443813  0.14535980  0.92613436  1
  O  O57  1  0.63092266  0.14535980  0.42613436  1
  O  O58  1  0.51443813  0.36907734  0.42613436  1
  O  O59  1  0.85464020  0.48556187  0.42613436  1
  O  O60  1  0.35735206  0.48641337  0.08172109  1
  O  O61  1  0.12906031  0.64264794  0.08172109  1
  O  O62  1  0.51358663  0.87093969  0.08172109  1
  O  O63  1  0.35735206  0.87093969  0.58172109  1
  O  O64  1  0.51358663  0.64264794  0.58172109  1
  O  O65  1  0.12906031  0.48641337  0.58172109  1
  O  O66  1  0.31270435  0.83645731  0.25294587  1
  O  O67  1  0.52375196  0.68729565  0.25294587  1
  O  O68  1  0.16354269  0.47624804  0.25294587  1
  O  O69  1  0.31270435  0.47624804  0.75294587  1
  O  O70  1  0.16354269  0.68729565  0.75294587  1
  O  O71  1  0.52375196  0.83645731  0.75294587  1
loop_
_geom_bond_atom_site_label_1
_geom_bond_atom_site_label_2
_geom_bond_distance
_geom_bond_site_symmetry_2
Na0 O41 2.288855 1_555
Na0 O40 2.405663 1_655
Na0 O55 2.537732 1_555
Na0 O4 2.615284 1_555
Na0 O26 2.670265 1_655
Na0 O54 2.762761 1_555
Na0 O33 2.854087 1_655
Na0 O19 2.880535 1_556
Na1 O39 2.288862 1_655
Na1 O41 2.405670 1_545
Na1 O56 2.537716 1_555
Na1 O5 2.615286 1_555
Na1 O24 2.670265 1_545
Na1 O55 2.762759 1_555
Na1 O34 2.854087 1_545
Na1 O20 2.880529 1_556
Na2 O40 2.288863 1_545
Na2 O39 2.405661 1_555
Na2 O54 2.537730 1_555
Na2 O3 2.615285 1_555
Na2 O25 2.670265 1_555
Na2 O56 2.762775 1_555
Na2 O35 2.854087 1_555
Na2 O18 2.880538 1_556
Na3 O37 2.288862 1_545
Na3 O38 2.405670 1_655
Na3 O59 2.537716 1_555
Na3 O2 2.615286 1_555
Na3 O28 2.670265 1_655
Na3 O57 2.762759 1_555
Na3 O30 2.854087 1_655
Na3 O23 2.880529 1_555
Na4 O38 2.288855 1_555
Na4 O36 2.405663 1_545
Na4 O57 2.537732 1_555
Na4 O0 2.615284 1_555
Na4 O29 2.670265 1_545
Na4 O58 2.762761 1_555
Na4 O31 2.854087 1_545
Na4 O21 2.880535 1_555
Na5 O36 2.288863 1_655
Na5 O37 2.405661 1_555
Na5 O58 2.537730 1_555
Na5 O1 2.615285 1_555
Na5 O27 2.670265 1_555
Na5 O59 2.762775 1_555
Na5 O32 2.854087 1_555
Na5 O22 2.880538 1_555
Na6 O44 2.576336 1_445
Na6 O43 2.576336 1_555
Na6 O42 2.576336 1_455
Na6 O36 2.616669 1_545
Na6 O38 2.616669 1_555
Na6 O37 2.616669 1_445
Na7 O45 2.576336 1_446
Na7 O47 2.576336 1_556
Na7 O46 2.576336 1_456
Na7 O41 2.616669 1_445
Na7 O40 2.616669 1_545
Na7 O39 2.616669 1_555
Na8 O48 2.424857 1_555
Na8 O50 2.424857 1_555
Na8 O49 2.424857 1_555
Na8 O56 2.804750 1_555
Na8 O55 2.804750 1_555
Na8 O54 2.804750 1_555
Na9 O53 2.424857 1_555
Na9 O52 2.424857 1_555
Na9 O51 2.424857 1_555
Na9 O57 2.804750 1_555
Na9 O59 2.804750 1_555
Na9 O58 2.804750 1_555
Na10 O62 2.450744 1_555
Na10 O60 2.450744 1_555
Na10 O61 2.450744 1_555
Na10 O68 2.664780 1_555
Na10 O66 2.664780 1_555
Na10 O67 2.664780 1_555
Na11 O63 2.450744 1_555
Na11 O65 2.450744 1_555
Na11 O64 2.450744 1_555
Na11 O69 2.664780 1_555
Na11 O71 2.664780 1_555
Na11 O70 2.664780 1_555
Nb0 O56 1.962149 1_555
Nb0 O55 1.962149 1_555
Nb0 O54 1.962149 1_555
Nb0 O19 2.052598 1_556
Nb0 O20 2.052598 1_556
Nb0 O18 2.052598 1_556
Nb1 O57 1.962149 1_555
Nb1 O59 1.962149 1_555
Nb1 O58 1.962149 1_555
Nb1 O22 2.052598 1_555
Nb1 O21 2.052598 1_555
Nb1 O23 2.052598 1_555
Nb2 O31 1.916650 1_555
Nb2 O30 1.916650 1_555
Nb2 O32 1.916650 1_555
Nb2 O68 2.164871 1_555
Nb2 O66 2.164871 1_555
Nb2 O67 2.164871 1_555
Nb3 O34 1.916650 1_555
Nb3 O33 1.916650 1_555
Nb3 O35 1.916650 1_555
Nb3 O69 2.164871 1_555
Nb3 O71 2.164871 1_555
Nb3 O70 2.164871 1_555
O0 S0 1.481181 1_555
O0 Zn0 2.174051 1_555
O1 S1 1.481181 1_555
O1 Zn0 2.174051 1_665
O2 S2 1.481181 1_655
O2 Zn0 2.174051 1_655
O3 S3 1.481181 1_555
O3 Zn1 2.174051 1_555
O4 S4 1.481181 1_655
O4 Zn1 2.174051 1_665
O5 S5 1.481181 1_555
O5 Zn1 2.174051 1_655
O6 S5 1.465512 1_565
O6 Zn2 2.094366 1_665
O7 S3 1.465512 1_555
O7 Zn2 2.094366 1_555
O8 S4 1.465512 1_555
O8 Zn2 2.094366 1_565
O9 S1 1.465512 1_555
O9 Zn3 2.094366 1_665
O10 S2 1.465512 1_555
O10 Zn3 2.094366 1_555
O11 S0 1.465512 1_565
O11 Zn3 2.094366 1_565
O12 S6 1.467875 1_555
O12 Zn4 2.010493 1_555
O13 S7 1.467875 1_555
O13 Zn4 2.010492 1_555
O14 S8 1.467875 1_555
O14 Zn4 2.010493 1_555
O15 S9 1.467875 1_555
O15 Zn5 2.010493 1_555
O16 S10 1.467875 1_555
O16 Zn5 2.010492 1_555
O17 S11 1.467875 1_555
O17 Zn5 2.010493 1_555
O18 S11 1.566892 1_555
O19 S9 1.566892 1_555
O20 S10 1.566892 1_555
O21 S7 1.566892 1_555
O22 S8 1.566892 1_555
O23 S6 1.566892 1_555
O24 Si0 1.584329 1_555
O24 Zn6 1.940864 1_556
O25 Si1 1.584329 1_555
O25 Zn6 1.940864 1_556
O26 Si2 1.584329 1_555
O26 Zn6 1.940864 1_556
O27 Si3 1.584329 1_555
O27 Zn7 1.940864 1_555
O28 Si4 1.584329 1_555
O28 Zn7 1.940864 1_555
O29 Si5 1.584329 1_555
O29 Zn7 1.940864 1_555
O30 Si5 1.705211 1_555
O31 Si3 1.705211 1_555
O32 Si4 1.705211 1_555
O33 Si1 1.705211 1_555
O34 Si2 1.705211 1_555
O35 Si0 1.705211 1_555
O36 Si5 1.604302 1_555
O36 Zn0 2.047083 1_565
O37 Si3 1.604310 1_555
O37 Zn0 2.047083 1_665
O38 Si4 1.604307 1_555
O38 Zn0 2.047083 1_555
O39 Si1 1.604310 1_555
O39 Zn1 2.047083 1_555
O40 Si2 1.604302 1_555
O40 Zn1 2.047083 1_565
O41 Si0 1.604307 1_555
O41 Zn1 2.047083 1_665
O42 S6 1.484414 1_555
O42 Zn2 2.247278 1_655
O43 S7 1.484423 1_555
O43 Zn2 2.247278 1_555
O44 S8 1.484418 1_555
O44 Zn2 2.247278 1_665
O45 S9 1.484423 1_555
O45 Zn3 2.247278 1_665
O46 S10 1.484414 1_555
O46 Zn3 2.247278 1_655
O47 S11 1.484419 1_555
O47 Zn3 2.247278 1_555
O48 S5 1.490670 1_555
O48 Zn4 2.175411 1_555
O49 S3 1.490679 1_555
O49 Zn4 2.175411 1_555
O50 S4 1.490675 1_655
O50 Zn4 2.175411 1_555
O51 S1 1.490679 1_555
O51 Zn5 2.175411 1_555
O52 S2 1.490670 1_655
O52 Zn5 2.175411 1_555
O53 S0 1.490675 1_555
O53 Zn5 2.175411 1_555
O54 Si0 1.672173 1_555
O55 Si1 1.672155 1_655
O56 Si2 1.672163 1_545
O57 Si3 1.672155 1_545
O58 Si4 1.672173 1_555
O59 Si5 1.672163 1_655
O60 S11 1.455113 1_555
O60 Zn6 2.380509 1_555
O61 S9 1.455095 1_455
O61 Zn6 2.380509 1_555
O62 S10 1.455103 1_565
O62 Zn6 2.380509 1_555
O63 S7 1.455095 1_565
O63 Zn7 2.380509 1_555
O64 S8 1.455113 1_555
O64 Zn7 2.380509 1_555
O65 S6 1.455103 1_455
O65 Zn7 2.380509 1_555
O66 S0 1.536206 1_565
O67 S1 1.536215 1_555
O68 S2 1.536211 1_555
O69 S3 1.536215 1_555
O70 S4 1.536206 1_555
O71 S5 1.536211 1_565
