# generated using pymatgen
data_Na2ScInSi(SO6)2
_symmetry_space_group_name_H-M   'P 1'
_cell_length_a   9.04110372
_cell_length_b   9.02827855
_cell_length_c   23.01545421
_cell_angle_alpha   90.42766484
_cell_angle_beta   89.92922380
_cell_angle_gamma   119.94157770
_symmetry_Int_Tables_number   1
_chemical_formula_structural   Na2ScInSi(SO6)2
_chemical_formula_sum   'Na12 Sc6 In6 Si6 S12 O72'
_cell_volume   1627.86378343
_cell_formula_units_Z   6
loop_
 _symmetry_equiv_pos_site_id
 _symmetry_equiv_pos_as_xyz
  1  'x, y, z'
loop_
 _atom_site_type_symbol
 _atom_site_label
 _atom_site_symmetry_multiplicity
 _atom_site_fract_x
 _atom_site_fract_y
 _atom_site_fract_z
 _atom_site_occupancy
  Na  Na0  1  0.00146308  0.62794695  0.25146421  1
  Na  Na1  1  0.37456968  0.99830165  0.75141135  1
  Na  Na2  1  0.66065230  0.97012896  0.59158114  1
  Na  Na3  1  0.03059257  0.33780043  0.09185418  1
  Na  Na4  1  0.98168702  0.67683265  0.92472313  1
  Na  Na5  1  0.32200993  0.01512943  0.42429955  1
  Na  Na6  1  0.01256189  0.98496692  0.50120937  1
  Na  Na7  1  0.01338856  0.98746583  0.00098980  1
  Na  Na8  1  0.66004073  0.30585666  0.83492173  1
  Na  Na9  1  0.69055304  0.33987593  0.33489230  1
  Na  Na10  1  0.33372750  0.66262908  0.16707702  1
  Na  Na11  1  0.33749786  0.66865534  0.66649918  1
  Sc  Sc0  1  0.99270692  0.00390283  0.35100056  1
  Sc  Sc1  1  0.00397057  0.99834225  0.64808170  1
  Sc  Sc2  1  0.66412363  0.31940590  0.68471648  1
  Sc  Sc3  1  0.67902392  0.33619183  0.18554257  1
  Sc  Sc4  1  0.66947837  0.33931894  0.48185297  1
  Sc  Sc5  1  0.31183621  0.64763079  0.31580559  1
  In  In0  1  0.99900793  0.00680089  0.84918716  1
  In  In1  1  0.00156906  0.99449875  0.15064537  1
  In  In2  1  0.65930663  0.33026926  0.98336559  1
  In  In3  1  0.32728652  0.68321058  0.01790387  1
  In  In4  1  0.31864534  0.67164063  0.51716115  1
  In  In5  1  0.35360198  0.68503383  0.81553548  1
  Si  Si0  1  0.00007613  0.29219997  0.24731225  1
  Si  Si1  1  0.70875557  0.00029959  0.74715289  1
  Si  Si2  1  0.36921408  0.03947693  0.58139741  1
  Si  Si3  1  0.96050089  0.63091492  0.08267638  1
  Si  Si4  1  0.33242684  0.97311683  0.91349493  1
  Si  Si5  1  0.02804388  0.66622530  0.41415767  1
  S  S0  1  0.29956312  0.00146426  0.25248819  1
  S  S1  1  0.70105440  0.70457717  0.25069489  1
  S  S2  1  0.29643922  0.29842052  0.74917999  1
  S  S3  1  0.99593278  0.70031593  0.74986603  1
  S  S4  1  0.96002220  0.33262962  0.58345897  1
  S  S5  1  0.66538244  0.62509430  0.58358477  1
  S  S6  1  0.66647304  0.03752424  0.08394628  1
  S  S7  1  0.37196945  0.33622271  0.08404395  1
  S  S8  1  0.62693884  0.66521208  0.91819809  1
  S  S9  1  0.04378340  0.37490820  0.91685835  1
  S  S10  1  0.62694549  0.95801540  0.41717248  1
  S  S11  1  0.33369335  0.37321783  0.41745969  1
  O  O0  1  0.21703220  0.02354388  0.30493504  1
  O  O1  1  0.81794981  0.78635862  0.30092513  1
  O  O2  1  0.97987473  0.17106099  0.30196192  1
  O  O3  1  0.22929520  0.19099224  0.80200071  1
  O  O4  1  0.97309213  0.77032032  0.80571764  1
  O  O5  1  0.81812876  0.02618912  0.80597472  1
  O  O6  1  0.80155657  0.98322426  0.68831949  1
  O  O7  1  0.18838274  0.21061079  0.69791435  1
  O  O8  1  0.02699991  0.82079534  0.70140092  1
  O  O9  1  0.77349932  0.80430919  0.19694421  1
  O  O10  1  0.02538154  0.21431329  0.18590273  1
  O  O11  1  0.18582244  0.95888943  0.20064215  1
  O  O12  1  0.88091027  0.35876358  0.63581535  1
  O  O13  1  0.49180279  0.13377027  0.63859613  1
  O  O14  1  0.65019415  0.52602576  0.63583950  1
  O  O15  1  0.86357936  0.50806539  0.13898905  1
  O  O16  1  0.64283116  0.12165667  0.13564630  1
  O  O17  1  0.47313657  0.34834068  0.13579749  1
  O  O18  1  0.44417598  0.30876766  0.03000484  1
  O  O19  1  0.85669227  0.54549027  0.02171101  1
  O  O20  1  0.68763858  0.13719503  0.03057521  1
  O  O21  1  0.46373763  0.14982243  0.52271427  1
  O  O22  1  0.68908219  0.54482960  0.53068114  1
  O  O23  1  0.85569792  0.31309566  0.53117957  1
  O  O24  1  0.54073836  0.67980025  0.97083606  1
  O  O25  1  0.14099747  0.44791768  0.97184450  1
  O  O26  1  0.28673175  0.84280542  0.96822693  1
  O  O27  1  0.56061200  0.86097819  0.47224880  1
  O  O28  1  0.31241979  0.45184676  0.47121599  1
  O  O29  1  0.16053457  0.71889400  0.46918562  1
  O  O30  1  0.11878123  0.63918850  0.35569707  1
  O  O31  1  0.51385027  0.86672430  0.36749073  1
  O  O32  1  0.35676523  0.47929284  0.36602395  1
  O  O33  1  0.13330135  0.48209092  0.86573322  1
  O  O34  1  0.35691374  0.89402715  0.85211617  1
  O  O35  1  0.52468566  0.63698617  0.86478892  1
  O  O36  1  0.01953494  0.84354302  0.40689071  1
  O  O37  1  0.80120934  0.98512504  0.41004261  1
  O  O38  1  0.18064601  0.19917696  0.41149231  1
  O  O39  1  0.01761706  0.20057332  0.91300677  1
  O  O40  1  0.15117695  0.97849031  0.90986136  1
  O  O41  1  0.79798132  0.82197493  0.91502748  1
  O  O42  1  0.96648462  0.17106050  0.58739320  1
  O  O43  1  0.17889701  0.01590844  0.58886731  1
  O  O44  1  0.81681925  0.80203074  0.58726380  1
  O  O45  1  0.98472978  0.82250605  0.08822601  1
  O  O46  1  0.82603551  0.02902156  0.08782297  1
  O  O47  1  0.19404182  0.18757840  0.08684936  1
  O  O48  1  0.67732462  0.16710666  0.74446667  1
  O  O49  1  0.47016810  0.32098979  0.74162309  1
  O  O50  1  0.84291197  0.53306510  0.74038347  1
  O  O51  1  0.68657735  0.53232780  0.24484350  1
  O  O52  1  0.83209612  0.32104693  0.24508572  1
  O  O53  1  0.46575492  0.15720973  0.24434631  1
  O  O54  1  0.65568978  0.51668429  0.92041913  1
  O  O55  1  0.87584668  0.36966176  0.91900998  1
  O  O56  1  0.50405344  0.15989836  0.92124653  1
  O  O57  1  0.63439964  0.12738453  0.42123086  1
  O  O58  1  0.48520396  0.34945474  0.42100075  1
  O  O59  1  0.84221244  0.49496347  0.42297017  1
  O  O60  1  0.35960421  0.49521766  0.08044227  1
  O  O61  1  0.14503307  0.63159370  0.08258952  1
  O  O62  1  0.51633665  0.86266566  0.08091281  1
  O  O63  1  0.36886606  0.85432112  0.58148262  1
  O  O64  1  0.50982433  0.64273627  0.57846169  1
  O  O65  1  0.13570329  0.48058780  0.57963309  1
  O  O66  1  0.32226610  0.84930271  0.25859042  1
  O  O67  1  0.53202539  0.68651931  0.25967661  1
  O  O68  1  0.16778667  0.48813164  0.25290030  1
  O  O69  1  0.30534419  0.46584320  0.75553665  1
  O  O70  1  0.15199090  0.68291931  0.75200112  1
  O  O71  1  0.51376449  0.82942444  0.74794135  1
loop_
_geom_bond_atom_site_label_1
_geom_bond_atom_site_label_2
_geom_bond_distance
_geom_bond_site_symmetry_2
Na0 O68 2.398186 1_555
Na0 O52 2.408884 1_455
Na0 O51 2.533607 1_455
Na0 O66 2.577461 1_555
Na0 O30 2.604916 1_555
Na0 O15 2.836542 1_455
Na0 O11 2.854754 1_555
Na0 O1 2.904113 1_455
Na1 O48 2.383061 1_565
Na1 O71 2.414138 1_555
Na1 O34 2.483031 1_555
Na1 O70 2.537312 1_555
Na1 O49 2.604027 1_565
Na1 O13 2.847388 1_565
Na1 O3 2.890352 1_565
Na1 O8 2.953335 1_555
Na2 O63 2.313252 1_555
Na2 O42 2.437314 1_565
Na2 O44 2.538311 1_555
Na2 O6 2.539056 1_555
Na2 O64 2.579064 1_555
Na2 O13 2.812027 1_565
Na2 O27 2.899719 1_555
Na3 O61 2.328052 1_555
Na3 O10 2.431846 1_555
Na3 O47 2.456495 1_555
Na3 O46 2.459763 1_455
Na3 O60 2.592446 1_555
Na3 O15 2.847454 1_455
Na3 O25 2.942343 1_554
Na4 O40 2.393530 1_655
Na4 O55 2.443270 1_555
Na4 O19 2.522224 1_556
Na4 O54 2.555770 1_555
Na4 O41 2.589084 1_555
Na4 O26 2.590985 1_655
Na4 O4 2.884592 1_555
Na5 O36 2.409041 1_545
Na5 O57 2.480381 1_555
Na5 O29 2.547823 1_545
Na5 O38 2.570916 1_555
Na5 O21 2.581042 1_555
Na5 O58 2.617420 1_555
Na5 O0 2.921538 1_555
Na5 O31 2.966652 1_545
Na6 O43 2.447364 1_565
Na6 O36 2.526892 1_555
Na6 O44 2.627714 1_455
Na6 O38 2.726053 1_565
Na6 O42 2.752761 1_465
Na6 O37 2.840192 1_455
Na7 O45 2.444277 1_455
Na7 O40 2.459510 1_554
Na7 O47 2.616439 1_565
Na7 O41 2.645793 1_454
Na7 O46 2.760222 1_465
Na7 O39 2.790745 1_564
Na8 O56 2.418641 1_555
Na8 O48 2.466463 1_555
Na8 O55 2.599028 1_555
Na8 O54 2.741394 1_555
Na8 O49 2.797166 1_555
Na8 O50 2.889275 1_555
Na9 O59 2.449071 1_555
Na9 O52 2.478741 1_555
Na9 O57 2.639877 1_555
Na9 O51 2.726138 1_555
Na9 O58 2.744200 1_555
Na9 O53 2.794037 1_555
Na10 O61 2.508587 1_555
Na10 O68 2.512804 1_555
Na10 O60 2.573287 1_555
Na10 O62 2.643681 1_555
Na10 O66 2.721781 1_555
Na10 O67 2.723865 1_555
Na11 O71 2.411985 1_555
Na11 O63 2.508370 1_555
Na11 O70 2.627871 1_555
Na11 O64 2.633786 1_555
Na11 O65 2.659820 1_555
Na11 O69 2.675780 1_555
In0 O5 1.996623 1_555
In0 O40 2.066214 1_645
In0 O3 2.201112 1_655
In0 O39 2.216920 1_655
In0 O4 2.254650 1_545
In0 O41 2.321103 1_545
In1 O10 2.047716 1_565
In1 O45 2.056565 1_455
In1 O11 2.178853 1_555
In1 O9 2.196183 1_455
In1 O46 2.283095 1_465
In1 O47 2.286169 1_565
In2 O56 2.048687 1_555
In2 O19 2.063005 1_556
In2 O18 2.143377 1_556
In2 O20 2.181600 1_556
In2 O54 2.241403 1_555
In2 O55 2.336418 1_555
In3 O26 2.017612 1_554
In3 O61 2.094404 1_555
In3 O62 2.203661 1_555
In3 O25 2.207342 1_554
In3 O24 2.225397 1_554
In3 O60 2.360151 1_555
In4 O29 2.016029 1_555
In4 O63 2.082197 1_555
In4 O28 2.217291 1_555
In4 O65 2.227439 1_555
In4 O27 2.250369 1_555
In4 O64 2.346915 1_555
In5 O34 2.046920 1_555
In5 O71 2.087298 1_555
In5 O35 2.132418 1_555
In5 O33 2.245427 1_555
In5 O69 2.261009 1_555
In5 O70 2.330791 1_555
O0 S0 1.481969 1_555
O0 Sc0 2.215261 1_455
O1 S1 1.486587 1_555
O1 Sc0 2.134281 1_565
O2 Si0 1.622370 1_655
O2 Sc0 1.940455 1_555
O3 S2 1.488340 1_555
O4 S3 1.487271 1_555
O5 Si1 1.622692 1_555
O6 Si1 1.638427 1_565
O6 Sc1 1.993415 1_655
O7 S2 1.480149 1_555
O7 Sc1 2.133138 1_545
O8 S3 1.489500 1_455
O8 Sc1 2.117043 1_555
O9 S1 1.481911 1_555
O10 Si0 1.639933 1_555
O11 S0 1.493557 1_565
O12 S4 1.476954 1_555
O12 Sc2 2.130689 1_555
O13 Si2 1.652632 1_555
O13 Sc2 1.932335 1_555
O14 S5 1.469113 1_555
O14 Sc2 2.242165 1_555
O15 Si3 1.651139 1_555
O15 Sc3 1.943147 1_555
O16 S6 1.478664 1_555
O16 Sc3 2.124248 1_555
O17 S7 1.472489 1_555
O17 Sc3 2.235795 1_555
O18 S7 1.479670 1_555
O19 Si3 1.645912 1_555
O20 S6 1.482988 1_555
O21 Si2 1.647527 1_555
O21 Sc4 2.028395 1_555
O22 S5 1.481475 1_555
O22 Sc4 2.092361 1_555
O23 S4 1.483948 1_555
O23 Sc4 2.141528 1_555
O24 S8 1.479925 1_555
O25 S9 1.490144 1_555
O26 Si4 1.636231 1_555
O27 S10 1.491386 1_555
O28 S11 1.481301 1_555
O29 Si5 1.640475 1_555
O30 Si5 1.653847 1_555
O30 Sc5 1.938960 1_555
O31 S10 1.476434 1_555
O31 Sc5 2.242187 1_555
O32 S11 1.476136 1_555
O32 Sc5 2.110526 1_555
O33 S9 1.486212 1_555
O34 Si4 1.642087 1_555
O35 S8 1.481077 1_555
O36 Si5 1.650350 1_555
O36 Sc0 2.046621 1_465
O37 S10 1.477895 1_555
O37 Sc0 2.139508 1_565
O38 S11 1.493102 1_555
O38 Sc0 2.216426 1_455
O39 S9 1.472209 1_555
O40 Si4 1.665665 1_555
O41 S8 1.488718 1_555
O42 S4 1.492131 1_555
O42 Sc1 2.249143 1_645
O43 Si2 1.633981 1_555
O43 Sc1 2.032550 1_545
O44 S5 1.499514 1_555
O44 Sc1 2.222339 1_655
O45 Si3 1.635489 1_555
O46 S6 1.485253 1_555
O47 S7 1.496314 1_555
O48 Si1 1.667689 1_555
O48 Sc2 1.997107 1_555
O49 S2 1.489712 1_555
O49 Sc2 2.193101 1_555
O50 S3 1.467033 1_555
O50 Sc2 2.197945 1_555
O51 S1 1.499127 1_555
O51 Sc3 2.201479 1_555
O52 Si0 1.664994 1_655
O52 Sc3 2.002099 1_555
O53 S0 1.471106 1_555
O53 Sc3 2.253145 1_555
O54 S8 1.489072 1_555
O55 S9 1.496025 1_655
O56 Si4 1.633222 1_545
O57 S10 1.498820 1_545
O57 Sc4 2.250307 1_555
O58 S11 1.490968 1_555
O58 Sc4 2.214827 1_555
O59 Si5 1.632576 1_655
O59 Sc4 2.020567 1_555
O60 S7 1.497291 1_555
O61 Si3 1.665323 1_455
O62 S6 1.482936 1_565
O63 Si2 1.670086 1_565
O64 S5 1.497192 1_555
O65 S4 1.482708 1_455
O66 S0 1.494488 1_565
O66 Sc5 2.218596 1_555
O67 S1 1.468247 1_555
O67 Sc5 2.248979 1_555
O68 Si0 1.662646 1_555
O68 Sc5 1.991811 1_555
O69 S2 1.479149 1_555
O70 S3 1.496438 1_455
O71 Si1 1.665433 1_565
