# generated using pymatgen
data_Na14Nb5Al3(SiO4)12
_symmetry_space_group_name_H-M   'P 1'
_cell_length_a   18.01692246
_cell_length_b   9.00976643
_cell_length_c   22.10100232
_cell_angle_alpha   90.03787364
_cell_angle_beta   89.86476973
_cell_angle_gamma   120.07947070
_symmetry_Int_Tables_number   1
_chemical_formula_structural   Na14Nb5Al3(SiO4)12
_chemical_formula_sum   'Na42 Nb15 Al9 Si36 O144'
_cell_volume   3104.46748215
_cell_formula_units_Z   3
loop_
 _symmetry_equiv_pos_site_id
 _symmetry_equiv_pos_as_xyz
  1  'x, y, z'
loop_
 _atom_site_type_symbol
 _atom_site_label
 _atom_site_symmetry_multiplicity
 _atom_site_fract_x
 _atom_site_fract_y
 _atom_site_fract_z
 _atom_site_occupancy
  Na  Na0  1  0.31977727  0.01033693  0.24643664  1
  Na  Na1  1  0.81475858  0.00884005  0.24488980  1
  Na  Na2  1  0.19017999  0.37097481  0.24449524  1
  Na  Na3  1  0.68556041  0.36085343  0.24697044  1
  Na  Na4  1  0.99532363  0.62328806  0.24552173  1
  Na  Na5  1  0.49433859  0.62554632  0.24631534  1
  Na  Na6  1  0.31730401  0.62546488  0.74599132  1
  Na  Na7  1  0.81707034  0.62505165  0.74630050  1
  Na  Na8  1  0.99488426  0.36582801  0.74655385  1
  Na  Na9  1  0.49477557  0.36541164  0.74630723  1
  Na  Na10  1  0.18842657  0.00967953  0.74613976  1
  Na  Na11  1  0.68798307  0.00938678  0.74598704  1
  Na  Na12  1  0.15183188  0.34558389  0.57911978  1
  Na  Na13  1  0.65118936  0.34349457  0.57895935  1
  Na  Na14  1  0.02091901  0.69690772  0.57872817  1
  Na  Na15  1  0.52022503  0.69691880  0.57901182  1
  Na  Na16  1  0.32808306  0.95803038  0.57890610  1
  Na  Na17  1  0.82764880  0.95821435  0.57971793  1
  Na  Na18  1  0.15277036  0.95996970  0.07922097  1
  Na  Na19  1  0.65134611  0.95907318  0.07993472  1
  Na  Na20  1  0.32866271  0.69895442  0.08049707  1
  Na  Na21  1  0.82755451  0.69636865  0.07969779  1
  Na  Na22  1  0.02034482  0.34446443  0.07867871  1
  Na  Na23  1  0.51995524  0.34302943  0.07965313  1
  Na  Na24  1  0.34907945  0.03176048  0.92045541  1
  Na  Na25  1  0.84894728  0.03179628  0.92034741  1
  Na  Na26  1  0.48355432  0.29153758  0.41421774  1
  Na  Na27  1  0.66074623  0.03425153  0.41392149  1
  Na  Na28  1  0.35542248  0.67855892  0.41456015  1
  Na  Na29  1  0.84718370  0.66402965  0.41819145  1
  Na  Na30  1  0.00473758  0.00919914  0.49704075  1
  Na  Na31  1  0.49946216  0.00000661  0.49269449  1
  Na  Na32  1  0.00462236  0.99961546  0.99765401  1
  Na  Na33  1  0.50445481  0.99972913  0.99891367  1
  Na  Na34  1  0.33308967  0.34065841  0.83247268  1
  Na  Na35  1  0.83303796  0.34062148  0.83240026  1
  Na  Na36  1  0.33052518  0.32781358  0.32892318  1
  Na  Na37  1  0.83581988  0.33084450  0.32905316  1
  Na  Na38  1  0.16775631  0.66731857  0.16039024  1
  Na  Na39  1  0.66596524  0.66648653  0.16018751  1
  Na  Na40  1  0.16716113  0.66701951  0.66077296  1
  Na  Na41  1  0.66655524  0.66688152  0.66073146  1
  Nb  Nb0  1  0.00306418  0.00481186  0.35610027  1
  Nb  Nb1  1  0.00221946  0.00007545  0.85684392  1
  Nb  Nb2  1  0.50217135  -0.00002541  0.85689073  1
  Nb  Nb3  1  0.99960823  0.99916864  0.64446061  1
  Nb  Nb4  1  0.49986290  0.99976700  0.64358734  1
  Nb  Nb5  1  0.99962539  0.00012694  0.14386814  1
  Nb  Nb6  1  0.49980839  0.00012982  0.14608934  1
  Nb  Nb7  1  0.33342132  0.33809206  0.97818537  1
  Nb  Nb8  1  0.83318233  0.33832054  0.97806500  1
  Nb  Nb9  1  0.33035466  0.32835222  0.47804875  1
  Nb  Nb10  1  0.83625870  0.33317502  0.47848608  1
  Nb  Nb11  1  0.16806496  0.66952013  0.31385444  1
  Nb  Nb12  1  0.66500321  0.66477012  0.31292898  1
  Nb  Nb13  1  0.16627181  0.66540347  0.81426094  1
  Nb  Nb14  1  0.66602760  0.66510924  0.81423989  1
  Al  Al0  1  0.49942407  0.00004116  0.35287709  1
  Al  Al1  1  0.33355707  0.33332377  0.68546314  1
  Al  Al2  1  0.83311772  0.33279327  0.68542866  1
  Al  Al3  1  0.33453928  0.33482312  0.18557301  1
  Al  Al4  1  0.83182516  0.33184107  0.18540571  1
  Al  Al5  1  0.16658479  0.66694708  0.02153040  1
  Al  Al6  1  0.66619887  0.66628360  0.02151208  1
  Al  Al7  1  0.16741695  0.66798447  0.52073557  1
  Al  Al8  1  0.66537857  0.66503857  0.52007206  1
  Si  Si0  1  0.14947360  0.00621892  0.24784355  1
  Si  Si1  1  0.64564463  0.00681221  0.25296506  1
  Si  Si2  1  0.35747766  0.70769539  0.25314685  1
  Si  Si3  1  0.85412575  0.70172527  0.24981574  1
  Si  Si4  1  0.99704249  0.29156869  0.24899089  1
  Si  Si5  1  0.49620458  0.28486412  0.25300345  1
  Si  Si6  1  0.14902791  0.29216348  0.74835172  1
  Si  Si7  1  0.64889440  0.29181004  0.74823928  1
  Si  Si8  1  0.99684596  0.70204236  0.74892657  1
  Si  Si9  1  0.49688738  0.70255078  0.74875076  1
  Si  Si10  1  0.35426614  0.00638932  0.74967821  1
  Si  Si11  1  0.85397923  0.00630656  0.74985739  1
  Si  Si12  1  0.47871087  0.34117100  0.58531689  1
  Si  Si13  1  0.97983731  0.34110935  0.58696901  1
  Si  Si14  1  0.19102443  0.04096827  0.58689028  1
  Si  Si15  1  0.69174069  0.04247417  0.58533856  1
  Si  Si16  1  0.32966421  0.61636943  0.58554018  1
  Si  Si17  1  0.82933135  0.61676518  0.58576257  1
  Si  Si18  1  0.47935156  0.61823023  0.08643490  1
  Si  Si19  1  0.97895066  0.61658332  0.08669429  1
  Si  Si20  1  0.33008780  0.04312648  0.08557998  1
  Si  Si21  1  0.82965964  0.04332738  0.08516133  1
  Si  Si22  1  0.19195194  0.34091838  0.08625971  1
  Si  Si23  1  0.69110039  0.34019997  0.08630828  1
  Si  Si24  1  0.30828425  0.66423420  0.92061817  1
  Si  Si25  1  0.80822380  0.66447893  0.92057535  1
  Si  Si26  1  0.02467987  0.38259731  0.92160304  1
  Si  Si27  1  0.52463924  0.38231701  0.92159730  1
  Si  Si28  1  0.16542945  0.94989919  0.92170260  1
  Si  Si29  1  0.66535885  0.94969506  0.92171948  1
  Si  Si30  1  0.31278336  0.95282658  0.42016063  1
  Si  Si31  1  0.80899397  0.95039971  0.42029990  1
  Si  Si32  1  0.16512915  0.38245475  0.42149545  1
  Si  Si33  1  0.66301826  0.37364860  0.41980108  1
  Si  Si34  1  0.02607921  0.66856185  0.42089433  1
  Si  Si35  1  0.52336858  0.67380257  0.42033002  1
  O  O0  1  0.09837944  0.03254592  0.30548579  1
  O  O1  1  0.59893109  0.03453519  0.31093181  1
  O  O2  1  0.41774089  0.80166939  0.31104726  1
  O  O3  1  0.91547380  0.79667849  0.30887027  1
  O  O4  1  0.48285516  0.16425069  0.31090263  1
  O  O5  1  0.98317170  0.16162149  0.30606545  1
  O  O6  1  0.09799829  0.16272005  0.80532582  1
  O  O7  1  0.59811317  0.16281457  0.80536341  1
  O  O8  1  0.48266159  0.80358690  0.80573393  1
  O  O9  1  0.98258239  0.80367525  0.80568265  1
  O  O10  1  0.41549839  0.03451697  0.80850664  1
  O  O11  1  0.91554448  0.03459330  0.80845363  1
  O  O12  1  0.39985981  0.96700280  0.69112076  1
  O  O13  1  0.89961622  0.96697479  0.69119990  1
  O  O14  1  0.08451725  0.20260874  0.68967720  1
  O  O15  1  0.58468015  0.20288809  0.68954946  1
  O  O16  1  0.01687901  0.83118897  0.69002249  1
  O  O17  1  0.51705347  0.83160978  0.68993362  1
  O  O18  1  0.39974301  0.83320293  0.19227132  1
  O  O19  1  0.89990473  0.83212656  0.19143861  1
  O  O20  1  0.01674779  0.20202162  0.19024650  1
  O  O21  1  0.51676473  0.20045680  0.19219797  1
  O  O22  1  0.08453812  0.96650977  0.18979503  1
  O  O23  1  0.58331990  0.96663095  0.19213906  1
  O  O24  1  0.43310758  0.36851748  0.64415854  1
  O  O25  1  0.93345612  0.36824290  0.64525330  1
  O  O26  1  0.25039624  0.13223903  0.64541193  1
  O  O27  1  0.75130128  0.13409402  0.64393725  1
  O  O28  1  0.31601389  0.49709871  0.64414341  1
  O  O29  1  0.81616542  0.49795980  0.64430057  1
  O  O30  1  0.43375085  0.49960400  0.14530670  1
  O  O31  1  0.93314619  0.49816432  0.14558937  1
  O  O32  1  0.31609730  0.13498972  0.14429504  1
  O  O33  1  0.81655243  0.13515701  0.14418487  1
  O  O34  1  0.25073680  0.36818894  0.14528994  1
  O  O35  1  0.75056523  0.36925812  0.14517434  1
  O  O36  1  0.23507805  0.29737609  0.02735606  1
  O  O37  1  0.73559145  0.29823844  0.02760250  1
  O  O38  1  0.41444364  0.52844263  0.02761190  1
  O  O39  1  0.91430538  0.52867649  0.02775766  1
  O  O40  1  0.35053649  0.16559490  0.02476301  1
  O  O41  1  0.85127078  0.16595238  0.02448792  1
  O  O42  1  0.23502746  0.17136775  0.52787680  1
  O  O43  1  0.73330036  0.16794878  0.52504724  1
  O  O44  1  0.35087595  0.53419470  0.52512208  1
  O  O45  1  0.85026100  0.53443114  0.52502963  1
  O  O46  1  0.41630950  0.29956566  0.52515931  1
  O  O47  1  0.91457923  0.29979862  0.52791515  1
  O  O48  1  0.26485582  0.70027210  0.97818276  1
  O  O49  1  0.76498842  0.70046525  0.97825888  1
  O  O50  1  0.08253122  0.47264276  0.97977750  1
  O  O51  1  0.58260459  0.47248770  0.97964958  1
  O  O52  1  0.15385841  0.83570638  0.98017727  1
  O  O53  1  0.65416459  0.83577438  0.98015486  1
  O  O54  1  0.26613516  0.83111134  0.47793436  1
  O  O55  1  0.76478362  0.82944539  0.47840193  1
  O  O56  1  0.15384672  0.47193693  0.48057605  1
  O  O57  1  0.64964393  0.46826592  0.47772355  1
  O  O58  1  0.08224296  0.69185825  0.47991334  1
  O  O59  1  0.58472933  0.70216792  0.47773614  1
  O  O60  1  0.06796740  0.64092372  0.35789067  1
  O  O61  1  0.56723898  0.63545418  0.35934284  1
  O  O62  1  0.25248636  0.86453146  0.35835754  1
  O  O63  1  0.75078509  0.86608307  0.35820136  1
  O  O64  1  0.18094128  0.49786771  0.35890984  1
  O  O65  1  0.68285286  0.50007046  0.35902641  1
  O  O66  1  0.06818537  0.49444663  0.85823365  1
  O  O67  1  0.56818659  0.49449620  0.85825033  1
  O  O68  1  0.18036738  0.86323103  0.85881367  1
  O  O69  1  0.68059214  0.86346912  0.85878378  1
  O  O70  1  0.25252206  0.64084327  0.85741598  1
  O  O71  1  0.75256552  0.64094983  0.85737240  1
  O  O72  1  0.01021767  0.83375503  0.41267649  1
  O  O73  1  0.51251142  0.84132961  0.41161527  1
  O  O74  1  0.40774778  0.97408001  0.41150409  1
  O  O75  1  0.90341646  0.96568787  0.41232324  1
  O  O76  1  0.08159101  0.18929177  0.41263081  1
  O  O77  1  0.57891453  0.18430864  0.41138560  1
  O  O78  1  0.01060797  0.18681774  0.91253672  1
  O  O79  1  0.51061025  0.18674392  0.91247445  1
  O  O80  1  0.08098405  0.97243972  0.91231358  1
  O  O81  1  0.58101993  0.97237618  0.91234926  1
  O  O82  1  0.40269376  0.84048931  0.91151755  1
  O  O83  1  0.90275233  0.84065616  0.91155873  1
  O  O84  1  0.48663978  0.16373098  0.58815911  1
  O  O85  1  0.98657795  0.16273767  0.58808458  1
  O  O86  1  0.09478845  0.02623771  0.58827555  1
  O  O87  1  0.59526395  0.02692580  0.58818231  1
  O  O88  1  0.41848065  0.81003313  0.58831641  1
  O  O89  1  0.91823400  0.81025407  0.58826267  1
  O  O90  1  0.48701053  0.81081090  0.08813316  1
  O  O91  1  0.98650145  0.80969523  0.08825402  1
  O  O92  1  0.41852469  0.02625469  0.08868243  1
  O  O93  1  0.91830152  0.02603084  0.08842480  1
  O  O94  1  0.09503252  0.16340405  0.08832611  1
  O  O95  1  0.59480563  0.16307922  0.08839703  1
  O  O96  1  0.34528644  0.17557803  0.74357350  1
  O  O97  1  0.84506843  0.17537610  0.74352154  1
  O  O98  1  0.24239439  0.30959548  0.74365286  1
  O  O99  1  0.74235265  0.30923885  0.74353704  1
  O  O100  1  0.41215251  0.51550633  0.74365037  1
  O  O101  1  0.91197382  0.51546556  0.74372676  1
  O  O102  1  0.34572639  0.51759604  0.24480290  1
  O  O103  1  0.84532165  0.51476943  0.24422760  1
  O  O104  1  0.41306951  0.30857630  0.24482128  1
  O  O105  1  0.91193639  0.30754672  0.24432615  1
  O  O106  1  0.24272680  0.17604221  0.24395002  1
  O  O107  1  0.74093277  0.17354742  0.24447467  1
  O  O108  1  0.31956215  0.49518514  0.92105610  1
  O  O109  1  0.81968107  0.49555182  0.92102525  1
  O  O110  1  0.42655822  0.35240872  0.92139689  1
  O  O111  1  0.92658013  0.35262909  0.92145908  1
  O  O112  1  0.25390314  0.13837370  0.92155720  1
  O  O113  1  0.75387505  0.13842012  0.92172008  1
  O  O114  1  0.32389894  0.14712295  0.42157890  1
  O  O115  1  0.81549225  0.13932649  0.42164854  1
  O  O116  1  0.25391631  0.37019116  0.42208231  1
  O  O117  1  0.75145754  0.35938818  0.42175325  1
  O  O118  1  0.42820048  0.49679931  0.42173794  1
  O  O119  1  0.92706880  0.50018303  0.42171805  1
  O  O120  1  0.17950001  0.50688927  0.07837498  1
  O  O121  1  0.67937279  0.50704553  0.07822711  1
  O  O122  1  0.07465666  0.64256123  0.07938012  1
  O  O123  1  0.57479406  0.64255586  0.07908062  1
  O  O124  1  0.24688393  0.85053950  0.07917858  1
  O  O125  1  0.74686657  0.85059690  0.07922557  1
  O  O126  1  0.17916186  0.85105667  0.57849574  1
  O  O127  1  0.67902144  0.85109920  0.57795300  1
  O  O128  1  0.24721754  0.64371314  0.57906527  1
  O  O129  1  0.74625842  0.64157469  0.57839400  1
  O  O130  1  0.07507643  0.50687225  0.57939762  1
  O  O131  1  0.57449684  0.50752555  0.57778811  1
  O  O132  1  0.15497626  0.82992219  0.25310334  1
  O  O133  1  0.65354608  0.83010535  0.25527902  1
  O  O134  1  0.26112074  0.69160817  0.25503753  1
  O  O135  1  0.76012188  0.69084965  0.25361786  1
  O  O136  1  0.08526165  0.47921860  0.25397689  1
  O  O137  1  0.58486399  0.47716826  0.25522922  1
  O  O138  1  0.15476139  0.47990681  0.75304822  1
  O  O139  1  0.65497816  0.48001476  0.75308569  1
  O  O140  1  0.08491453  0.69039976  0.75372238  1
  O  O141  1  0.58485795  0.69022339  0.75377079  1
  O  O142  1  0.25956132  0.82989630  0.75319890  1
  O  O143  1  0.75950468  0.82965411  0.75307198  1
loop_
_geom_bond_atom_site_label_1
_geom_bond_atom_site_label_2
_geom_bond_distance
_geom_bond_site_symmetry_2
Na0 O104 2.349318 1_555
Na0 O106 2.497419 1_555
Na0 O134 2.521340 1_545
Na0 O32 2.537800 1_555
Na0 O132 2.576890 1_545
Na0 O62 2.776285 1_545
Na0 O18 2.889633 1_545
Na0 O4 2.918680 1_555
Na1 O105 2.363304 1_555
Na1 O107 2.439291 1_555
Na1 O33 2.493206 1_555
Na1 O135 2.527318 1_545
Na1 O133 2.528071 1_545
Na1 O63 2.785485 1_545
Na1 O19 2.953156 1_545
Na1 O5 2.959702 1_555
Na2 O106 2.376485 1_555
Na2 O102 2.426527 1_555
Na2 O34 2.452410 1_555
Na2 O134 2.516465 1_555
Na2 O136 2.532606 1_555
Na2 O64 2.813173 1_555
Na2 O20 2.960714 1_555
Na2 O0 2.964721 1_555
Na3 O107 2.352345 1_555
Na3 O103 2.491996 1_555
Na3 O137 2.515361 1_555
Na3 O35 2.517515 1_555
Na3 O135 2.581230 1_555
Na3 O65 2.786689 1_555
Na3 O21 2.900371 1_555
Na3 O1 2.910931 1_555
Na4 O103 2.369024 1_555
Na4 O105 2.463006 1_555
Na4 O31 2.479160 1_555
Na4 O132 2.530198 1_655
Na4 O136 2.540800 1_655
Na4 O60 2.777087 1_655
Na4 O22 2.945562 1_655
Na4 O3 2.951415 1_555
Na5 O102 2.346531 1_555
Na5 O104 2.471695 1_555
Na5 O30 2.495850 1_555
Na5 O133 2.523251 1_555
Na5 O137 2.583331 1_555
Na5 O61 2.805507 1_555
Na5 O23 2.916330 1_555
Na5 O2 2.941454 1_555
Na6 O100 2.366642 1_555
Na6 O98 2.464418 1_555
Na6 O28 2.524825 1_555
Na6 O142 2.533739 1_555
Na6 O138 2.543370 1_555
Na6 O70 2.755713 1_555
Na6 O8 2.901348 1_555
Na6 O12 2.925823 1_555
Na7 O101 2.365056 1_555
Na7 O99 2.464299 1_555
Na7 O29 2.524156 1_555
Na7 O143 2.532133 1_555
Na7 O139 2.536065 1_555
Na7 O71 2.747755 1_555
Na7 O9 2.899981 1_555
Na7 O13 2.930700 1_555
Na8 O97 2.364868 1_555
Na8 O101 2.464198 1_555
Na8 O25 2.504732 1_555
Na8 O138 2.531457 1_655
Na8 O140 2.540393 1_655
Na8 O66 2.767078 1_655
Na8 O11 2.922525 1_555
Na8 O14 2.952820 1_655
Na9 O96 2.359243 1_555
Na9 O100 2.463049 1_555
Na9 O24 2.524886 1_555
Na9 O139 2.536540 1_555
Na9 O141 2.542668 1_555
Na9 O67 2.773560 1_555
Na9 O10 2.923279 1_555
Na9 O15 2.950766 1_555
Na10 O98 2.369897 1_555
Na10 O96 2.447317 1_555
Na10 O26 2.485456 1_555
Na10 O142 2.524467 1_545
Na10 O140 2.530350 1_545
Na10 O68 2.788152 1_545
Na10 O6 2.916533 1_555
Na10 O16 2.951317 1_545
Na11 O99 2.368185 1_555
Na11 O97 2.450746 1_555
Na11 O27 2.521318 1_555
Na11 O141 2.528682 1_545
Na11 O143 2.529880 1_545
Na11 O69 2.790710 1_545
Na11 O7 2.913060 1_555
Na11 O17 2.941965 1_545
Na12 O128 2.353970 1_555
Na12 O56 2.449917 1_555
Na12 O130 2.457337 1_555
Na12 O86 2.532056 1_555
Na12 O85 2.588214 1_455
Na12 O14 2.743128 1_555
Na12 O42 2.888123 1_555
Na12 O28 2.940840 1_555
Na13 O129 2.352753 1_555
Na13 O131 2.478160 1_555
Na13 O57 2.511080 1_555
Na13 O87 2.512154 1_555
Na13 O84 2.576476 1_555
Na13 O15 2.735550 1_555
Na13 O43 2.905938 1_555
Na13 O29 2.954359 1_555
Na14 O130 2.357672 1_555
Na14 O58 2.455834 1_555
Na14 O126 2.467421 1_555
Na14 O89 2.530178 1_455
Na14 O86 2.581085 1_565
Na14 O16 2.757302 1_555
Na14 O45 2.916929 1_455
Na14 O25 2.954806 1_455
Na15 O131 2.353924 1_555
Na15 O127 2.476193 1_555
Na15 O59 2.509103 1_555
Na15 O88 2.512345 1_555
Na15 O87 2.584643 1_565
Na15 O17 2.747838 1_555
Na15 O44 2.899706 1_555
Na15 O24 2.937848 1_555
Na16 O126 2.352858 1_555
Na16 O128 2.450841 1_555
Na16 O54 2.502456 1_555
Na16 O84 2.516451 1_565
Na16 O88 2.579300 1_555
Na16 O12 2.782023 1_555
Na16 O46 2.915379 1_565
Na16 O26 2.961848 1_565
Na17 O127 2.348082 1_555
Na17 O129 2.469122 1_555
Na17 O55 2.516774 1_555
Na17 O85 2.518302 1_565
Na17 O89 2.580528 1_555
Na17 O13 2.769538 1_555
Na17 O47 2.898248 1_565
Na17 O27 2.930943 1_565
Na18 O124 2.350121 1_555
Na18 O52 2.462514 1_554
Na18 O122 2.474790 1_555
Na18 O94 2.528226 1_565
Na18 O91 2.603615 1_455
Na18 O22 2.746839 1_555
Na18 O36 2.869153 1_565
Na18 O32 2.929128 1_565
Na19 O125 2.367093 1_555
Na19 O123 2.468296 1_555
Na19 O53 2.480424 1_554
Na19 O95 2.515283 1_565
Na19 O90 2.572329 1_555
Na19 O23 2.779465 1_555
Na19 O37 2.885566 1_565
Na19 O33 2.945567 1_565
Na20 O120 2.357517 1_555
Na20 O124 2.460570 1_555
Na20 O90 2.510649 1_555
Na20 O48 2.541842 1_554
Na20 O92 2.562196 1_565
Na20 O18 2.768360 1_555
Na20 O38 2.912727 1_555
Na20 O34 2.950413 1_555
Na21 O121 2.339613 1_555
Na21 O125 2.463612 1_555
Na21 O91 2.520029 1_555
Na21 O49 2.520301 1_554
Na21 O93 2.581707 1_565
Na21 O19 2.776164 1_555
Na21 O39 2.898232 1_555
Na21 O35 2.932978 1_555
Na22 O122 2.353035 1_555
Na22 O50 2.462023 1_554
Na22 O120 2.481457 1_555
Na22 O93 2.523751 1_455
Na22 O94 2.592227 1_555
Na22 O20 2.766096 1_555
Na22 O41 2.898977 1_455
Na22 O31 2.956322 1_455
Na23 O123 2.363551 1_555
Na23 O121 2.485835 1_555
Na23 O51 2.488240 1_554
Na23 O92 2.509173 1_555
Na23 O95 2.584181 1_555
Na23 O21 2.787440 1_555
Na23 O40 2.909983 1_555
Na23 O30 2.947994 1_555
Na24 O112 2.348326 1_555
Na24 O82 2.368376 1_545
Na24 O110 2.500551 1_555
Na24 O79 2.524885 1_555
Na24 O40 2.594992 1_556
Na24 O10 2.740530 1_555
Na24 O48 2.881550 1_545
Na24 O68 2.965033 1_545
Na25 O113 2.346704 1_555
Na25 O83 2.369663 1_545
Na25 O111 2.501986 1_555
Na25 O78 2.526674 1_655
Na25 O41 2.589635 1_556
Na25 O11 2.740741 1_555
Na25 O49 2.882230 1_545
Na25 O69 2.959291 1_545
Na26 O77 2.356355 1_555
Na26 O74 2.476721 1_545
Na26 O114 2.498006 1_555
Na26 O118 2.507986 1_555
Na26 O4 2.551730 1_555
Na26 O46 2.749285 1_555
Na26 O61 2.942573 1_555
Na26 O57 2.949667 1_555
Na27 O73 2.346029 1_545
Na27 O77 2.450161 1_555
Na27 O115 2.460663 1_555
Na27 O1 2.536962 1_555
Na27 O117 2.546363 1_555
Na27 O43 2.761252 1_555
Na27 O59 2.950553 1_545
Na27 O63 2.982577 1_545
Na28 O74 2.338038 1_555
Na28 O116 2.448923 1_555
Na28 O73 2.450294 1_555
Na28 O2 2.543140 1_555
Na28 O118 2.565161 1_555
Na28 O44 2.750598 1_555
Na28 O54 2.939725 1_555
Na28 O64 2.988465 1_555
Na29 O75 2.381122 1_555
Na29 O117 2.401840 1_555
Na29 O119 2.527315 1_555
Na29 O72 2.545073 1_655
Na29 O45 2.647840 1_555
Na29 O3 2.701026 1_555
Na29 O65 2.879155 1_555
Na29 O55 2.898608 1_555
Na30 O76 2.402087 1_555
Na30 O72 2.477209 1_545
Na30 O75 2.507904 1_445
Na30 O86 2.546966 1_555
Na30 O85 2.552721 1_455
Na30 O89 2.626058 1_445
Na31 O74 2.373054 1_545
Na31 O73 2.375232 1_545
Na31 O77 2.375878 1_555
Na31 O88 2.647932 1_545
Na31 O84 2.648783 1_555
Na31 O87 2.662453 1_555
Na32 O80 2.415575 1_555
Na32 O78 2.493221 1_565
Na32 O83 2.533450 1_455
Na32 O94 2.539444 1_566
Na32 O91 2.546652 1_456
Na32 O93 2.618322 1_466
Na33 O81 2.439579 1_555
Na33 O79 2.513351 1_565
Na33 O95 2.517324 1_566
Na33 O90 2.519797 1_556
Na33 O82 2.554798 1_555
Na33 O92 2.597300 1_566
Na34 O100 2.471011 1_555
Na34 O98 2.481499 1_555
Na34 O108 2.482933 1_555
Na34 O96 2.538201 1_555
Na34 O110 2.558557 1_555
Na34 O112 2.572652 1_555
Na35 O101 2.467807 1_555
Na35 O99 2.481526 1_555
Na35 O109 2.484715 1_555
Na35 O97 2.537654 1_555
Na35 O111 2.561026 1_555
Na35 O113 2.576223 1_555
Na36 O106 2.396109 1_555
Na36 O104 2.437540 1_555
Na36 O102 2.446944 1_555
Na36 O114 2.581942 1_555
Na36 O116 2.608411 1_555
Na36 O118 2.636277 1_555
Na37 O105 2.388959 1_555
Na37 O103 2.451161 1_555
Na37 O107 2.451170 1_555
Na37 O115 2.582094 1_555
Na37 O119 2.592736 1_555
Na37 O117 2.636333 1_555
Na38 O124 2.368924 1_555
Na38 O122 2.389031 1_555
Na38 O120 2.391844 1_555
Na38 O132 2.594198 1_555
Na38 O136 2.612377 1_555
Na38 O134 2.626806 1_555
Na39 O123 2.369870 1_555
Na39 O125 2.376103 1_555
Na39 O121 2.396976 1_555
Na39 O135 2.613905 1_555
Na39 O137 2.636021 1_555
Na39 O133 2.639008 1_555
Na40 O128 2.382504 1_555
Na40 O130 2.383283 1_555
Na40 O126 2.396981 1_555
Na40 O142 2.580854 1_555
Na40 O138 2.583774 1_555
Na40 O140 2.599654 1_555
Na41 O129 2.396013 1_555
Na41 O127 2.404300 1_555
Na41 O131 2.407603 1_555
Na41 O143 2.582730 1_555
Na41 O139 2.587430 1_555
Na41 O141 2.595086 1_555
Nb0 O0 1.955508 1_555
Nb0 O5 1.964396 1_455
Nb0 O76 1.993403 1_555
Nb0 O3 2.033536 1_445
Nb0 O72 2.039056 1_545
Nb0 O75 2.060875 1_445
Nb1 O6 1.969705 1_555
Nb1 O9 1.976506 1_445
Nb1 O80 1.985334 1_545
Nb1 O78 2.027792 1_555
Nb1 O83 2.036855 1_445
Nb1 O11 2.043108 1_455
Nb2 O7 1.971834 1_555
Nb2 O8 1.976976 1_545
Nb2 O81 1.986199 1_545
Nb2 O79 2.026215 1_555
Nb2 O82 2.035961 1_545
Nb2 O10 2.043123 1_555
Nb3 O13 1.965851 1_555
Nb3 O16 1.968988 1_655
Nb3 O14 1.972984 1_665
Nb3 O89 2.023256 1_555
Nb3 O86 2.028116 1_665
Nb3 O85 2.032243 1_565
Nb4 O12 1.973674 1_555
Nb4 O17 1.978493 1_555
Nb4 O15 1.979344 1_565
Nb4 O88 2.014322 1_555
Nb4 O87 2.020530 1_565
Nb4 O84 2.023942 1_565
Nb5 O20 1.972608 1_655
Nb5 O19 1.972715 1_545
Nb5 O22 1.983616 1_645
Nb5 O93 2.013560 1_555
Nb5 O94 2.020729 1_655
Nb5 O91 2.025429 1_545
Nb6 O18 1.956886 1_545
Nb6 O21 1.958511 1_555
Nb6 O23 1.963065 1_545
Nb6 O92 2.040720 1_555
Nb6 O95 2.045474 1_555
Nb6 O90 2.051239 1_545
Nb7 O38 1.939330 1_556
Nb7 O36 1.948039 1_556
Nb7 O108 2.004480 1_555
Nb7 O40 2.013504 1_556
Nb7 O110 2.044747 1_555
Nb7 O112 2.068362 1_555
Nb8 O37 1.943085 1_556
Nb8 O39 1.943245 1_556
Nb8 O109 2.001101 1_555
Nb8 O41 2.020319 1_556
Nb8 O111 2.046015 1_555
Nb8 O113 2.064455 1_555
Nb9 O42 1.929028 1_555
Nb9 O46 1.990032 1_555
Nb9 O44 1.992611 1_555
Nb9 O114 2.011192 1_555
Nb9 O116 2.024287 1_555
Nb9 O118 2.066436 1_555
Nb10 O47 1.925640 1_555
Nb10 O43 1.985186 1_555
Nb10 O45 1.987447 1_555
Nb10 O119 2.010008 1_555
Nb10 O115 2.027954 1_555
Nb10 O117 2.081684 1_555
Nb11 O62 1.921947 1_555
Nb11 O60 1.947382 1_555
Nb11 O64 1.949349 1_555
Nb11 O134 2.048388 1_555
Nb11 O132 2.071856 1_555
Nb11 O136 2.087809 1_555
Nb12 O61 1.936505 1_555
Nb12 O65 1.955827 1_555
Nb12 O63 1.968377 1_555
Nb12 O137 2.031592 1_555
Nb12 O133 2.048654 1_555
Nb12 O135 2.072820 1_555
Nb13 O66 1.924920 1_555
Nb13 O70 1.930132 1_555
Nb13 O68 1.938053 1_555
Nb13 O138 2.077820 1_555
Nb13 O140 2.080870 1_555
Nb13 O142 2.082713 1_555
Nb14 O67 1.922007 1_555
Nb14 O71 1.932494 1_555
Nb14 O69 1.939285 1_555
Nb14 O139 2.076765 1_555
Nb14 O141 2.077802 1_555
Nb14 O143 2.085888 1_555
Al0 O2 1.892750 1_545
Al0 O4 1.893259 1_555
Al0 O1 1.898464 1_555
Al0 O74 2.016137 1_545
Al0 O77 2.025339 1_555
Al0 O73 2.031626 1_545
Al1 O24 1.890350 1_555
Al1 O28 1.892571 1_555
Al1 O26 1.895758 1_555
Al1 O96 2.004695 1_555
Al1 O100 2.007271 1_555
Al1 O98 2.008919 1_555
Al2 O25 1.890112 1_555
Al2 O27 1.891472 1_555
Al2 O29 1.895441 1_555
Al2 O99 2.002784 1_555
Al2 O97 2.004037 1_555
Al2 O101 2.012285 1_555
Al3 O30 1.877584 1_555
Al3 O32 1.893115 1_555
Al3 O34 1.903777 1_555
Al3 O106 2.016855 1_555
Al3 O104 2.029035 1_555
Al3 O102 2.032647 1_555
Al4 O35 1.883875 1_555
Al4 O33 1.885788 1_555
Al4 O31 1.898532 1_555
Al4 O103 2.015561 1_555
Al4 O107 2.017739 1_555
Al4 O105 2.037856 1_555
Al5 O52 1.884683 1_554
Al5 O50 1.885888 1_554
Al5 O48 1.897965 1_554
Al5 O122 2.012892 1_555
Al5 O120 2.013017 1_555
Al5 O124 2.014834 1_555
Al6 O51 1.881876 1_554
Al6 O53 1.883905 1_554
Al6 O49 1.902510 1_554
Al6 O123 2.003529 1_555
Al6 O121 2.007731 1_555
Al6 O125 2.020788 1_555
Al7 O56 1.879779 1_555
Al7 O58 1.884897 1_555
Al7 O54 1.895232 1_555
Al7 O126 2.010881 1_555
Al7 O128 2.025131 1_555
Al7 O130 2.031593 1_555
Al8 O55 1.893311 1_555
Al8 O59 1.895474 1_555
Al8 O57 1.895971 1_555
Al8 O131 1.996356 1_555
Al8 O127 2.023027 1_555
Al8 O129 2.036570 1_555
O0 Si0 1.655171 1_555
O1 Si1 1.617785 1_555
O2 Si2 1.617681 1_555
O3 Si3 1.647577 1_555
O4 Si5 1.616974 1_555
O5 Si4 1.652733 1_555
O6 Si6 1.647009 1_555
O7 Si7 1.646917 1_555
O8 Si9 1.646587 1_555
O9 Si8 1.646452 1_555
O10 Si10 1.642507 1_555
O11 Si11 1.641769 1_555
O12 Si10 1.661986 1_565
O13 Si11 1.663946 1_565
O14 Si6 1.658074 1_555
O15 Si7 1.655126 1_555
O16 Si8 1.660656 1_455
O17 Si9 1.658359 1_555
O18 Si2 1.674130 1_555
O19 Si3 1.658570 1_555
O20 Si4 1.657149 1_455
O21 Si5 1.673384 1_555
O22 Si0 1.652141 1_565
O23 Si1 1.672764 1_565
O24 Si12 1.620011 1_555
O25 Si13 1.617609 1_555
O26 Si14 1.617621 1_555
O27 Si15 1.620929 1_555
O28 Si16 1.621169 1_555
O29 Si17 1.619163 1_555
O30 Si18 1.620750 1_555
O31 Si19 1.621053 1_555
O32 Si20 1.624395 1_555
O33 Si21 1.623249 1_555
O34 Si22 1.621545 1_555
O35 Si23 1.622943 1_555
O36 Si22 1.659065 1_555
O37 Si23 1.663460 1_555
O38 Si18 1.664217 1_555
O39 Si19 1.661810 1_555
O40 Si20 1.658923 1_555
O41 Si21 1.654886 1_555
O42 Si14 1.665355 1_555
O43 Si15 1.662228 1_555
O44 Si16 1.660467 1_555
O45 Si17 1.664581 1_555
O46 Si12 1.660166 1_555
O47 Si13 1.671009 1_555
O48 Si24 1.607996 1_555
O49 Si25 1.607834 1_555
O50 Si26 1.598422 1_555
O51 Si27 1.597274 1_555
O52 Si28 1.599263 1_555
O53 Si29 1.598471 1_555
O54 Si30 1.616238 1_555
O55 Si31 1.611803 1_555
O56 Si32 1.599341 1_555
O57 Si33 1.620669 1_555
O58 Si34 1.600739 1_555
O59 Si35 1.618696 1_555
O60 Si34 1.659348 1_555
O61 Si35 1.681965 1_555
O62 Si30 1.678696 1_555
O63 Si31 1.663538 1_555
O64 Si32 1.666968 1_555
O65 Si33 1.679574 1_555
O66 Si26 1.672212 1_555
O67 Si27 1.673018 1_555
O68 Si28 1.679727 1_555
O69 Si29 1.680501 1_555
O70 Si24 1.672991 1_555
O71 Si25 1.671778 1_555
O72 Si34 1.660363 1_555
O73 Si35 1.627917 1_555
O74 Si30 1.634247 1_555
O75 Si31 1.645560 1_555
O76 Si32 1.645535 1_555
O77 Si33 1.628060 1_555
O78 Si26 1.663538 1_555
O79 Si27 1.662151 1_555
O80 Si28 1.646321 1_555
O81 Si29 1.645119 1_555
O82 Si24 1.657317 1_555
O83 Si25 1.657957 1_555
O84 Si12 1.676090 1_555
O85 Si13 1.671465 1_555
O86 Si14 1.671515 1_555
O87 Si15 1.673431 1_555
O88 Si16 1.676437 1_555
O89 Si17 1.676004 1_555
O90 Si18 1.670623 1_555
O91 Si19 1.676186 1_555
O92 Si20 1.676283 1_555
O93 Si21 1.682292 1_555
O94 Si22 1.676141 1_555
O95 Si23 1.668291 1_555
O96 Si10 1.617285 1_555
O97 Si11 1.615947 1_555
O98 Si6 1.612307 1_555
O99 Si7 1.613968 1_555
O100 Si9 1.614002 1_555
O101 Si8 1.612815 1_555
O102 Si2 1.627457 1_555
O103 Si3 1.615457 1_555
O104 Si5 1.626026 1_555
O105 Si4 1.613862 1_555
O106 Si0 1.610579 1_555
O107 Si1 1.628790 1_555
O108 Si24 1.634456 1_555
O109 Si25 1.635279 1_555
O110 Si27 1.648651 1_555
O111 Si26 1.648777 1_655
O112 Si28 1.646559 1_545
O113 Si29 1.648140 1_545
O114 Si30 1.659548 1_545
O115 Si31 1.646880 1_545
O116 Si32 1.657890 1_555
O117 Si33 1.662183 1_555
O118 Si35 1.656205 1_555
O119 Si34 1.664668 1_655
O120 Si22 1.628990 1_555
O121 Si23 1.629477 1_555
O122 Si19 1.627389 1_455
O123 Si18 1.628605 1_555
O124 Si20 1.634420 1_565
O125 Si21 1.631490 1_565
O126 Si14 1.625119 1_565
O127 Si15 1.629693 1_565
O128 Si16 1.629592 1_555
O129 Si17 1.628869 1_555
O130 Si13 1.622650 1_455
O131 Si12 1.630511 1_555
O132 Si0 1.644532 1_565
O133 Si1 1.668820 1_565
O134 Si2 1.668555 1_555
O135 Si3 1.648676 1_555
O136 Si4 1.644310 1_455
O137 Si5 1.667918 1_555
O138 Si6 1.645406 1_555
O139 Si7 1.646914 1_555
O140 Si8 1.645474 1_455
O141 Si9 1.647436 1_555
O142 Si10 1.651011 1_565
O143 Si11 1.649079 1_565
