# generated using pymatgen
data_MgMn6(O2F)4
_symmetry_space_group_name_H-M   'P 1'
_cell_length_a   5.13879997
_cell_length_b   5.19387398
_cell_length_c   8.73178888
_cell_angle_alpha   89.99866321
_cell_angle_beta   89.98541520
_cell_angle_gamma   82.67665053
_symmetry_Int_Tables_number   1
_chemical_formula_structural   MgMn6(O2F)4
_chemical_formula_sum   'Mg1 Mn6 O8 F4'
_cell_volume   231.15275926
_cell_formula_units_Z   1
loop_
 _symmetry_equiv_pos_site_id
 _symmetry_equiv_pos_as_xyz
  1  'x, y, z'
loop_
 _atom_site_type_symbol
 _atom_site_label
 _atom_site_symmetry_multiplicity
 _atom_site_fract_x
 _atom_site_fract_y
 _atom_site_fract_z
 _atom_site_occupancy
  Mg  Mg0  1  0.47264433  0.02734594  0.66639198  1
  Mn  Mn0  1  0.05976729  0.06328740  0.00188173  1
  Mn  Mn1  1  0.05955361  0.06325379  0.33124241  1
  Mn  Mn2  1  0.01545661  0.75715364  0.66668277  1
  Mn  Mn3  1  0.48250611  0.51505388  0.83900774  1
  Mn  Mn4  1  0.48754505  0.50092143  0.16654689  1
  Mn  Mn5  1  0.48237915  0.51516892  0.49406080  1
  O  O0  1  0.23449734  0.85482103  0.16654846  1
  O  O1  1  0.24311190  0.87522469  0.49960112  1
  O  O2  1  0.24328155  0.87516050  0.83353610  1
  O  O3  1  0.30881074  0.36018832  0.00156145  1
  O  O4  1  0.30870711  0.36023351  0.33165233  1
  O  O5  1  0.28733482  0.38890947  0.66662901  1
  O  O6  1  0.66315166  0.65902710  0.66643911  1
  O  O7  1  0.83616122  0.19478434  0.16656198  1
  F  F0  1  0.69933949  0.64294217  0.00031626  1
  F  F1  1  0.69932424  0.64299568  0.33259011  1
  F  F2  1  0.75670734  0.14340393  0.50577175  1
  F  F3  1  0.75694244  0.14345528  0.82726201  1
loop_
_geom_bond_atom_site_label_1
_geom_bond_atom_site_label_2
_geom_bond_distance
_geom_bond_site_symmetry_2
Mg0 O5 1.994363 1_555
Mg0 O6 2.034830 1_545
Mg0 O1 2.091672 1_545
Mg0 O2 2.092994 1_545
Mn0 O7 1.911454 1_455
Mn0 O2 1.941467 1_544
Mn0 O0 1.949019 1_545
Mn0 O3 2.125781 1_555
Mn1 O7 1.911310 1_455
Mn1 O1 1.941754 1_545
Mn1 O0 1.949236 1_545
Mn1 O4 2.126504 1_555
Mn2 O6 1.942324 1_455
Mn2 O2 2.013155 1_555
Mn2 O1 2.013732 1_555
Mn2 O5 2.220095 1_555
Mn3 O3 1.908057 1_556
Mn3 O6 1.966638 1_555
Mn3 O5 1.966989 1_555
Mn3 O2 2.103708 1_555
Mn4 O3 1.903983 1_555
Mn4 O4 1.904575 1_555
Mn4 O0 2.111927 1_555
Mn4 O7 2.238613 1_555
Mn5 O4 1.907591 1_555
Mn5 O6 1.965831 1_555
Mn5 O5 1.967719 1_555
Mn5 O1 2.103597 1_555
F0 Mn3 1.963728 1_554
F0 Mn4 2.009801 1_555
F1 Mn5 1.964534 1_555
F1 Mn4 2.009119 1_555
F2 Mg0 2.164361 1_555
F2 Mn1 2.179760 1_655
F2 Mn5 2.243269 1_555
F2 Mn2 2.662235 1_645
F3 Mg0 2.167230 1_555
F3 Mn0 2.180786 1_656
F3 Mn3 2.242868 1_555
F3 Mn2 2.660096 1_645
