# generated using pymatgen
data_Mg3P2(HO)16
_symmetry_space_group_name_H-M   'P 1'
_cell_length_a   8.42353593
_cell_length_b   8.42353593
_cell_length_c   4.69417527
_cell_angle_alpha   80.78765028
_cell_angle_beta   80.78765028
_cell_angle_gamma   105.76791664
_symmetry_Int_Tables_number   1
_chemical_formula_structural   Mg3P2(HO)16
_chemical_formula_sum   'Mg3 P2 H16 O16'
_cell_volume   309.05900967
_cell_formula_units_Z   1
loop_
 _symmetry_equiv_pos_site_id
 _symmetry_equiv_pos_as_xyz
  1  'x, y, z'
loop_
 _atom_site_type_symbol
 _atom_site_label
 _atom_site_symmetry_multiplicity
 _atom_site_fract_x
 _atom_site_fract_y
 _atom_site_fract_z
 _atom_site_occupancy
  Mg  Mg0  1  0.00000000  0.00000000  0.00000000  1
  Mg  Mg1  1  0.61049600  0.38950400  0.00000000  1
  Mg  Mg2  1  0.38950400  0.61049600  0.00000000  1
  P  P0  1  0.31350000  0.31350000  0.61391900  1
  P  P1  1  0.68650000  0.68650000  0.38608100  1
  H  H0  1  0.25897200  0.82071200  0.71221700  1
  H  H1  1  0.17928800  0.74102800  0.28778300  1
  H  H2  1  0.74102800  0.17928800  0.28778300  1
  H  H3  1  0.82071200  0.25897200  0.71221700  1
  H  H4  1  0.43276400  0.82065500  0.51101400  1
  H  H5  1  0.82065500  0.43276400  0.51101400  1
  H  H6  1  0.68652200  0.93441400  0.96083600  1
  H  H7  1  0.06558600  0.31347800  0.03916400  1
  H  H8  1  0.31347800  0.06558600  0.03916400  1
  H  H9  1  0.93441400  0.68652200  0.96083600  1
  H  H10  1  0.79405700  0.95589000  0.64037100  1
  H  H11  1  0.04411000  0.20594300  0.35962900  1
  H  H12  1  0.20594300  0.04411000  0.35962900  1
  H  H13  1  0.95589000  0.79405700  0.64037100  1
  H  H14  1  0.17934500  0.56723600  0.48898600  1
  H  H15  1  0.56723600  0.17934500  0.48898600  1
  O  O0  1  0.78746700  0.01339200  0.81123600  1
  O  O1  1  0.81938800  0.37530100  0.71439300  1
  O  O2  1  0.62469900  0.18061200  0.28560700  1
  O  O3  1  0.18061200  0.62469900  0.28560700  1
  O  O4  1  0.37530100  0.81938800  0.71439300  1
  O  O5  1  0.01339200  0.78746700  0.81123600  1
  O  O6  1  0.43854000  0.24541500  0.77174900  1
  O  O7  1  0.75458500  0.56146000  0.22825100  1
  O  O8  1  0.56146000  0.75458500  0.22825100  1
  O  O9  1  0.24541500  0.43854000  0.77174900  1
  O  O10  1  0.60241300  0.60241300  0.71408000  1
  O  O11  1  0.39758700  0.39758700  0.28592000  1
  O  O12  1  0.84208500  0.84208500  0.38102800  1
  O  O13  1  0.15791500  0.15791500  0.61897200  1
  O  O14  1  0.98660800  0.21253300  0.18876400  1
  O  O15  1  0.21253300  0.98660800  0.18876400  1
loop_
_geom_bond_atom_site_label_1
_geom_bond_atom_site_label_2
_geom_bond_distance
_geom_bond_site_symmetry_2
Mg0 O12 2.062222 1_445
Mg0 O13 2.062222 1_554
Mg0 O0 2.142118 1_454
Mg0 O14 2.142118 1_455
Mg0 O15 2.142118 1_545
Mg0 O5 2.142118 1_544
Mg1 O2 2.078077 1_555
Mg1 O1 2.078077 1_554
Mg1 O10 2.085037 1_554
Mg1 O11 2.085037 1_555
Mg1 O7 2.162657 1_555
Mg1 O6 2.162657 1_554
Mg2 O4 2.078077 1_554
Mg2 O3 2.078077 1_555
Mg2 O10 2.085037 1_554
Mg2 O11 2.085037 1_555
Mg2 O8 2.162657 1_555
Mg2 O9 2.162657 1_554
H0 O4 0.984654 1_555
H1 O3 0.984654 1_555
H2 O2 0.984654 1_555
H3 O1 0.984654 1_555
H4 O4 0.995903 1_555
H5 O1 0.995903 1_555
H6 O0 1.005261 1_565
H7 O14 1.005261 1_455
H8 O15 1.005261 1_545
H9 O5 1.005261 1_655
H10 O0 1.002877 1_565
H10 O12 1.729592 1_555
H11 O14 1.002877 1_455
H11 O13 1.729592 1_555
H12 O15 1.002877 1_545
H12 O13 1.729592 1_555
H13 O5 1.002877 1_655
H13 O12 1.729592 1_555
H14 O3 0.995903 1_555
H15 O2 0.995903 1_555
O6 P0 1.558633 1_555
O7 P1 1.558633 1_555
O8 P1 1.558633 1_555
O9 P0 1.558633 1_555
O10 P1 1.550158 1_555
O11 P0 1.550158 1_555
O12 P1 1.575558 1_555
O13 P0 1.575558 1_555
