# generated using pymatgen
data_MgNi(TeO3)4
_symmetry_space_group_name_H-M   'P 1'
_cell_length_a   5.61140596
_cell_length_b   11.37281068
_cell_length_c   10.25751509
_cell_angle_alpha   27.65778226
_cell_angle_beta   51.18677180
_cell_angle_gamma   55.65494382
_symmetry_Int_Tables_number   1
_chemical_formula_structural   MgNi(TeO3)4
_chemical_formula_sum   'Mg1 Ni1 Te4 O12'
_cell_volume   236.69407604
_cell_formula_units_Z   1
loop_
 _symmetry_equiv_pos_site_id
 _symmetry_equiv_pos_as_xyz
  1  'x, y, z'
loop_
 _atom_site_type_symbol
 _atom_site_label
 _atom_site_symmetry_multiplicity
 _atom_site_fract_x
 _atom_site_fract_y
 _atom_site_fract_z
 _atom_site_occupancy
  Mg  Mg0  1  0.79438100  0.49255300  0.77989500  1
  Ni  Ni0  1  0.30291700  0.00794200  0.28585500  1
  Te  Te0  1  0.97452500  0.97948800  0.02006800  1
  Te  Te1  1  0.99660600  0.52271700  0.96178800  1
  Te  Te2  1  0.44458600  0.99686500  0.54838000  1
  Te  Te3  1  0.54535200  0.51300600  0.43477300  1
  O  O0  1  0.37111800  0.34107600  0.05328400  1
  O  O1  1  0.22535900  0.12201200  0.64839400  1
  O  O2  1  0.07686600  0.27342200  0.79402500  1
  O  O3  1  0.88880500  0.22365500  0.18832400  1
  O  O4  1  0.35224500  0.80608300  0.11937800  1
  O  O5  1  0.78997400  0.39637000  0.31038400  1
  O  O6  1  0.15471200  0.65906400  0.60902400  1
  O  O7  1  0.60963200  0.14187900  0.91746100  1
  O  O8  1  0.09919500  0.84543400  0.68849700  1
  O  O9  1  0.90622500  0.68962000  0.20641500  1
  O  O10  1  0.71165400  0.83405800  0.38587900  1
  O  O11  1  0.58895900  0.66071000  0.88872400  1
loop_
_geom_bond_atom_site_label_1
_geom_bond_atom_site_label_2
_geom_bond_distance
_geom_bond_site_symmetry_2
Mg0 O2 1.983717 1_655
Mg0 O10 2.035972 1_555
Mg0 O0 2.045083 1_556
Mg0 O6 2.178216 1_655
Mg0 O3 2.333001 1_556
Mg0 O11 2.431791 1_555
Ni0 O7 2.042178 1_554
Ni0 O6 2.095454 1_545
Ni0 O10 2.112285 1_545
Ni0 O3 2.133818 1_455
Ni0 O0 2.161509 1_555
Ni0 O8 2.173429 1_545
O0 Te1 1.924623 1_454
O0 Te2 2.621289 1_545
O1 Te2 1.902744 1_545
O1 Te0 2.010903 1_446
O2 Te0 1.909726 1_446
O2 Te3 2.462959 1_555
O3 Te1 1.972927 1_554
O3 Te2 2.312007 1_545
O4 Te0 1.962327 1_455
O4 Te3 1.991797 1_555
O5 Te1 1.943122 1_554
O5 Te3 2.004966 1_555
O6 Te1 1.968069 1_455
O6 Te3 2.645464 1_555
O7 Te0 1.924142 1_546
O7 Te3 2.441361 1_555
O8 Te1 1.948130 1_455
O8 Te2 2.162762 1_555
O9 Te3 1.982585 1_555
O9 Te0 2.003212 1_555
O10 Te0 1.952349 1_555
O11 Te2 1.966537 1_555
O11 Te1 2.066879 1_555
