# generated using pymatgen
data_KBrF4
_symmetry_space_group_name_H-M   'P 1'
_cell_length_a   6.13946623
_cell_length_b   6.13946611
_cell_length_c   7.02868703
_cell_angle_alpha   115.89628439
_cell_angle_beta   115.89628390
_cell_angle_gamma   89.99999838
_symmetry_Int_Tables_number   1
_chemical_formula_structural   KBrF4
_chemical_formula_sum   'K2 Br2 F8'
_cell_volume   208.35738888
_cell_formula_units_Z   2
loop_
 _symmetry_equiv_pos_site_id
 _symmetry_equiv_pos_as_xyz
  1  'x, y, z'
loop_
 _atom_site_type_symbol
 _atom_site_label
 _atom_site_symmetry_multiplicity
 _atom_site_fract_x
 _atom_site_fract_y
 _atom_site_fract_z
 _atom_site_occupancy
  K  K0  1  0.25000000  0.25000000  0.50000000  1
  K  K1  1  0.75000000  0.75000000  0.50000000  1
  Br  Br0  1  0.00000000  0.50000000  0.00000000  1
  Br  Br1  1  0.50000000  0.00000000  0.00000000  1
  F  F0  1  0.96669091  0.46669091  0.24534484  1
  F  F1  1  0.72134707  0.22134707  0.75465516  1
  F  F2  1  0.03330909  0.53330909  0.75465516  1
  F  F3  1  0.22134707  0.03330909  0.75465516  1
  F  F4  1  0.27865293  0.77865293  0.24534484  1
  F  F5  1  0.46669091  0.27865293  0.24534484  1
  F  F6  1  0.77865293  0.96669091  0.24534484  1
  F  F7  1  0.53330909  0.72134707  0.75465516  1
loop_
_geom_bond_atom_site_label_1
_geom_bond_atom_site_label_2
_geom_bond_distance
_geom_bond_site_symmetry_2
Br0 F1 1.916618 1_454
Br0 F4 1.916618 1_555
Br0 F2 1.916624 1_554
Br0 F0 1.916624 1_455
Br1 F7 1.916621 1_544
Br1 F5 1.916621 1_555
Br1 F6 1.916621 1_545
Br1 F3 1.916621 1_554
F0 K1 2.712846 1_555
F0 K0 2.712846 1_655
F1 K1 2.712848 1_545
F1 K0 2.712849 1_555
F2 K0 2.712846 1_555
F2 K1 2.712846 1_455
F3 K0 2.712844 1_555
F3 K1 2.712851 1_445
F4 K0 2.712848 1_565
F4 K1 2.712849 1_555
F5 K0 2.712844 1_555
F5 K1 2.712851 1_555
F6 K1 2.712844 1_555
F6 K0 2.712851 1_665
F7 K1 2.712844 1_555
F7 K0 2.712851 1_555
