# generated using pymatgen
data_Co3(AsO4)2
_symmetry_space_group_name_H-M   'P 1'
_cell_length_a   8.66397200
_cell_length_b   6.53831900
_cell_length_c   11.31263790
_cell_angle_alpha   88.97990880
_cell_angle_beta   90.00000000
_cell_angle_gamma   90.00000000
_symmetry_Int_Tables_number   1
_chemical_formula_structural   Co3(AsO4)2
_chemical_formula_sum   'Co12 As8 O32'
_cell_volume   640.73462953
_cell_formula_units_Z   4
loop_
 _symmetry_equiv_pos_site_id
 _symmetry_equiv_pos_as_xyz
  1  'x, y, z'
loop_
 _atom_site_type_symbol
 _atom_site_label
 _atom_site_symmetry_multiplicity
 _atom_site_fract_x
 _atom_site_fract_y
 _atom_site_fract_z
 _atom_site_occupancy
  Co  Co0  1  0.83396100  0.76016200  0.64140600  1
  Co  Co1  1  0.33396100  0.23983800  0.85859400  1
  Co  Co2  1  0.16603900  0.23983800  0.35859400  1
  Co  Co3  1  0.66603900  0.76016200  0.14140600  1
  Co  Co4  1  0.94516100  0.39036500  0.87435000  1
  Co  Co5  1  0.44516100  0.60963500  0.62565000  1
  Co  Co6  1  0.05483900  0.60963500  0.12565000  1
  Co  Co7  1  0.55483900  0.39036500  0.37435000  1
  Co  Co8  1  0.66950300  0.10905100  0.94510000  1
  Co  Co9  1  0.16950300  0.89094900  0.55490000  1
  Co  Co10  1  0.33049700  0.89094900  0.05490000  1
  Co  Co11  1  0.83049700  0.10905100  0.44510000  1
  As  As0  1  0.91246900  0.60653500  0.36589200  1
  As  As1  1  0.41246900  0.39346500  0.13410800  1
  As  As2  1  0.08753100  0.39346500  0.63410800  1
  As  As3  1  0.58753100  0.60653500  0.86589200  1
  As  As4  1  0.95396600  0.10084200  0.14436100  1
  As  As5  1  0.45396600  0.89915800  0.35563900  1
  As  As6  1  0.04603400  0.89915800  0.85563900  1
  As  As7  1  0.54603400  0.10084200  0.64436100  1
  O  O0  1  0.54035800  0.13287000  0.79565600  1
  O  O1  1  0.04035800  0.86713000  0.70434400  1
  O  O2  1  0.45964200  0.86713000  0.20434400  1
  O  O3  1  0.95964200  0.13287000  0.29565600  1
  O  O4  1  0.40680500  0.52458400  0.82455300  1
  O  O5  1  0.90680500  0.47541600  0.67544700  1
  O  O6  1  0.59319500  0.47541600  0.17544700  1
  O  O7  1  0.09319500  0.52458400  0.32455300  1
  O  O8  1  0.49796200  0.32705800  0.57189900  1
  O  O9  1  0.99796200  0.67294200  0.92810100  1
  O  O10  1  0.50203800  0.67294200  0.42810100  1
  O  O11  1  0.00203800  0.32705800  0.07189900  1
  O  O12  1  0.64329000  0.70387500  0.73024700  1
  O  O13  1  0.14329000  0.29612500  0.76975300  1
  O  O14  1  0.35671000  0.29612500  0.26975300  1
  O  O15  1  0.85671000  0.70387500  0.23024700  1
  O  O16  1  0.40427100  0.92084300  0.61657400  1
  O  O17  1  0.90427100  0.07915700  0.88342600  1
  O  O18  1  0.59572900  0.07915700  0.38342600  1
  O  O19  1  0.09572900  0.92084300  0.11657400  1
  O  O20  1  0.78570200  0.42464200  0.42212000  1
  O  O21  1  0.28570200  0.57535800  0.07788000  1
  O  O22  1  0.21429800  0.57535800  0.57788000  1
  O  O23  1  0.71429800  0.42464200  0.92212000  1
  O  O24  1  0.76656000  0.03589400  0.10385500  1
  O  O25  1  0.26656000  0.96410600  0.39614500  1
  O  O26  1  0.23344000  0.96410600  0.89614500  1
  O  O27  1  0.73344000  0.03589400  0.60385500  1
  O  O28  1  0.92924600  0.80058200  0.47053000  1
  O  O29  1  0.42924600  0.19941800  0.02947000  1
  O  O30  1  0.07075400  0.19941800  0.52947000  1
  O  O31  1  0.57075400  0.80058200  0.97053000  1
loop_
_geom_bond_atom_site_label_1
_geom_bond_atom_site_label_2
_geom_bond_distance
_geom_bond_site_symmetry_2
Co0 O12 1.965031 1_555
Co0 O5 1.996805 1_555
Co0 O27 2.040061 1_565
Co0 O1 2.052203 1_655
Co0 O28 2.114213 1_555
Co1 O13 1.965031 1_555
Co1 O4 1.996805 1_555
Co1 O26 2.040061 1_545
Co1 O0 2.052203 1_555
Co1 O29 2.114213 1_556
Co2 O14 1.965031 1_555
Co2 O7 1.996805 1_555
Co2 O25 2.040061 1_545
Co2 O3 2.052203 1_455
Co2 O30 2.114213 1_555
Co3 O15 1.965031 1_555
Co3 O6 1.996805 1_555
Co3 O24 2.040061 1_565
Co3 O2 2.052203 1_555
Co3 O31 2.114213 1_554
Co4 O9 2.008125 1_555
Co4 O17 2.066139 1_555
Co4 O23 2.085027 1_555
Co4 O13 2.180003 1_655
Co4 O11 2.318525 1_656
Co4 O5 2.331983 1_555
Co5 O8 2.008125 1_555
Co5 O16 2.066139 1_555
Co5 O22 2.085027 1_555
Co5 O12 2.180003 1_555
Co5 O10 2.318525 1_555
Co5 O4 2.331983 1_555
Co6 O11 2.008125 1_555
Co6 O19 2.066139 1_555
Co6 O21 2.085027 1_555
Co6 O15 2.180003 1_455
Co6 O9 2.318525 1_454
Co6 O7 2.331983 1_555
Co7 O10 2.008125 1_555
Co7 O18 2.066139 1_555
Co7 O20 2.085027 1_555
Co7 O14 2.180003 1_555
Co7 O8 2.318525 1_555
Co7 O6 2.331983 1_555
Co8 O0 2.031006 1_555
Co8 O24 2.032415 1_556
Co8 O23 2.111130 1_555
Co8 O17 2.160345 1_555
Co8 O31 2.204958 1_545
Co8 O29 2.369204 1_556
Co9 O1 2.031006 1_555
Co9 O25 2.032415 1_555
Co9 O22 2.111130 1_555
Co9 O16 2.160345 1_555
Co9 O30 2.204958 1_565
Co9 O28 2.369204 1_455
Co10 O2 2.031006 1_555
Co10 O26 2.032415 1_554
Co10 O21 2.111130 1_555
Co10 O19 2.160345 1_555
Co10 O29 2.204958 1_565
Co10 O31 2.369204 1_554
Co11 O3 2.031006 1_555
Co11 O27 2.032415 1_555
Co11 O20 2.111130 1_555
Co11 O18 2.160345 1_555
Co11 O28 2.204958 1_545
Co11 O30 2.369204 1_655
As0 O15 1.719989 1_555
As0 O7 1.722345 1_655
As0 O20 1.731566 1_555
As0 O28 1.756567 1_555
As1 O14 1.719989 1_555
As1 O6 1.722345 1_555
As1 O21 1.731566 1_555
As1 O29 1.756567 1_555
As2 O13 1.719989 1_555
As2 O5 1.722345 1_455
As2 O22 1.731566 1_555
As2 O30 1.756567 1_555
As3 O12 1.719989 1_555
As3 O4 1.722345 1_555
As3 O23 1.731566 1_555
As3 O31 1.756567 1_555
As4 O3 1.728705 1_555
As4 O11 1.729138 1_655
As4 O19 1.733669 1_645
As4 O24 1.741714 1_555
As5 O2 1.728705 1_555
As5 O10 1.729138 1_555
As5 O18 1.733669 1_565
As5 O25 1.741714 1_555
As6 O1 1.728705 1_555
As6 O9 1.729138 1_455
As6 O17 1.733669 1_465
As6 O26 1.741714 1_555
As7 O0 1.728705 1_555
As7 O8 1.729138 1_555
As7 O16 1.733669 1_545
As7 O27 1.741714 1_555
