# generated using pymatgen
data_CeP2O7
_symmetry_space_group_name_H-M   'P 1'
_cell_length_a   8.82968337
_cell_length_b   8.82968337
_cell_length_c   8.82968337
_cell_angle_alpha   90.00000000
_cell_angle_beta   90.00000000
_cell_angle_gamma   90.00000000
_symmetry_Int_Tables_number   1
_chemical_formula_structural   CeP2O7
_chemical_formula_sum   'Ce4 P8 O28'
_cell_volume   688.39132778
_cell_formula_units_Z   4
loop_
 _symmetry_equiv_pos_site_id
 _symmetry_equiv_pos_as_xyz
  1  'x, y, z'
loop_
 _atom_site_type_symbol
 _atom_site_label
 _atom_site_symmetry_multiplicity
 _atom_site_fract_x
 _atom_site_fract_y
 _atom_site_fract_z
 _atom_site_occupancy
  Ce  Ce0  1  0.50000000  -0.00000000  0.50000000  1
  Ce  Ce1  1  0.00000000  -0.00000000  -0.00000000  1
  Ce  Ce2  1  0.50000000  0.50000000  -0.00000000  1
  Ce  Ce3  1  0.00000000  0.50000000  0.50000000  1
  P  P0  1  0.60259097  0.89740903  0.10259097  1
  P  P1  1  0.10259097  0.60259097  0.89740903  1
  P  P2  1  0.39740903  0.10259097  0.89740903  1
  P  P3  1  0.89740903  0.39740903  0.10259097  1
  P  P4  1  0.89740903  0.10259097  0.60259097  1
  P  P5  1  0.39740903  0.39740903  0.39740903  1
  P  P6  1  0.60259097  0.60259097  0.60259097  1
  P  P7  1  0.10259097  0.89740903  0.39740903  1
  O  O0  1  0.55607535  0.73528873  0.07257832  1
  O  O1  1  0.07257832  0.55607535  0.73528873  1
  O  O2  1  0.50000000  0.50000000  0.50000000  1
  O  O3  1  0.26471127  0.57257832  0.94392465  1
  O  O4  1  0.76471127  0.92742168  0.05607535  1
  O  O5  1  0.42742168  0.44392465  0.23528873  1
  O  O6  1  0.42742168  0.05607535  0.73528873  1
  O  O7  1  0.50000000  -0.00000000  -0.00000000  1
  O  O8  1  0.57257832  0.94392465  0.26471127  1
  O  O9  1  0.07257832  0.94392465  0.23528873  1
  O  O10  1  0.44392465  0.26471127  0.92742168  1
  O  O11  1  0.92742168  0.44392465  0.26471127  1
  O  O12  1  0.94392465  0.23528873  0.07257832  1
  O  O13  1  0.92742168  0.05607535  0.76471127  1
  O  O14  1  0.57257832  0.55607535  0.76471127  1
  O  O15  1  0.94392465  0.26471127  0.57257832  1
  O  O16  1  0.05607535  0.73528873  0.42742168  1
  O  O17  1  0.55607535  0.76471127  0.57257832  1
  O  O18  1  0.23528873  0.07257832  0.94392465  1
  O  O19  1  0.05607535  0.76471127  0.92742168  1
  O  O20  1  0.26471127  0.92742168  0.44392465  1
  O  O21  1  0.76471127  0.57257832  0.55607535  1
  O  O22  1  0.44392465  0.23528873  0.42742168  1
  O  O23  1  0.73528873  0.07257832  0.55607535  1
  O  O24  1  0.00000000  -0.00000000  0.50000000  1
  O  O25  1  0.00000000  0.50000000  -0.00000000  1
  O  O26  1  0.23528873  0.42742168  0.44392465  1
  O  O27  1  0.73528873  0.42742168  0.05607535  1
loop_
_geom_bond_atom_site_label_1
_geom_bond_atom_site_label_2
_geom_bond_distance
_geom_bond_site_symmetry_2
Ce0 O17 2.229785 1_545
Ce0 O20 2.229785 1_545
Ce0 O22 2.229785 1_555
Ce0 O8 2.229785 1_545
Ce0 O23 2.229785 1_555
Ce0 O6 2.229785 1_555
Ce1 O13 2.229785 1_454
Ce1 O19 2.229785 1_544
Ce1 O4 2.229785 1_445
Ce1 O12 2.229785 1_455
Ce1 O18 2.229785 1_554
Ce1 O9 2.229785 1_545
Ce2 O14 2.229785 1_554
Ce2 O10 2.229785 1_554
Ce2 O5 2.229785 1_555
Ce2 O3 2.229785 1_554
Ce2 O27 2.229785 1_555
Ce2 O0 2.229785 1_555
Ce3 O21 2.229785 1_455
Ce3 O26 2.229785 1_555
Ce3 O11 2.229785 1_455
Ce3 O15 2.229785 1_455
Ce3 O16 2.229785 1_555
Ce3 O1 2.229785 1_555
O0 P0 1.512622 1_555
O1 P1 1.512622 1_555
O2 P5 1.568971 1_555
O2 P6 1.568971 1_555
O3 P1 1.512622 1_555
O4 P0 1.512622 1_555
O5 P5 1.512622 1_555
O6 P2 1.512622 1_555
O7 P2 1.568971 1_554
O7 P0 1.568971 1_545
O8 P0 1.512622 1_555
O9 P7 1.512622 1_555
O10 P2 1.512622 1_555
O11 P3 1.512622 1_555
O12 P3 1.512622 1_555
O13 P4 1.512622 1_555
O14 P6 1.512622 1_555
O15 P4 1.512622 1_555
O16 P7 1.512622 1_555
O17 P6 1.512622 1_555
O18 P2 1.512622 1_555
O19 P1 1.512622 1_555
O20 P7 1.512622 1_555
O21 P6 1.512622 1_555
O22 P5 1.512622 1_555
O23 P4 1.512622 1_555
O24 P7 1.568971 1_545
O24 P4 1.568971 1_455
O25 P3 1.568971 1_455
O25 P1 1.568971 1_554
O26 P5 1.512622 1_555
O27 P3 1.512622 1_555
