# generated using pymatgen
data_TmGeRu
_symmetry_space_group_name_H-M   'P 1'
_cell_length_a   4.35959824
_cell_length_b   6.93634066
_cell_length_c   7.16151792
_cell_angle_alpha   90.00000000
_cell_angle_beta   90.00000000
_cell_angle_gamma   90.00000000
_symmetry_Int_Tables_number   1
_chemical_formula_structural   TmGeRu
_chemical_formula_sum   'Tm4 Ge4 Ru4'
_cell_volume   216.56185648
_cell_formula_units_Z   4
loop_
 _symmetry_equiv_pos_site_id
 _symmetry_equiv_pos_as_xyz
  1  'x, y, z'
loop_
 _atom_site_type_symbol
 _atom_site_label
 _atom_site_symmetry_multiplicity
 _atom_site_fract_x
 _atom_site_fract_y
 _atom_site_fract_z
 _atom_site_occupancy
  Tm  Tm0  1  0.25000000  0.98692339  0.19260932  1
  Tm  Tm1  1  0.75000000  0.01307661  0.80739068  1
  Tm  Tm2  1  0.25000000  0.48692339  0.30739068  1
  Tm  Tm3  1  0.75000000  0.51307661  0.69260932  1
  Ge  Ge0  1  0.25000000  0.29552539  0.89256452  1
  Ge  Ge1  1  0.75000000  0.70447461  0.10743548  1
  Ge  Ge2  1  0.25000000  0.79552539  0.60743548  1
  Ge  Ge3  1  0.75000000  0.20447461  0.39256452  1
  Ru  Ru0  1  0.75000000  0.84485837  0.43780343  1
  Ru  Ru1  1  0.25000000  0.15514163  0.56219657  1
  Ru  Ru2  1  0.75000000  0.34485837  0.06219657  1
  Ru  Ru3  1  0.25000000  0.65514163  0.93780343  1
loop_
_geom_bond_atom_site_label_1
_geom_bond_atom_site_label_2
_geom_bond_distance
_geom_bond_site_symmetry_2
Ge0 Ru3 2.515372 1_555
Ge0 Ru2 2.518812 1_456
Ge0 Ru2 2.518812 1_556
Ge0 Ru1 2.558484 1_555
Ge0 Tm1 2.993644 1_555
Ge0 Tm1 2.993644 1_455
Ge0 Tm3 3.013172 1_555
Ge0 Tm3 3.013172 1_455
Ge0 Tm0 3.033030 1_546
Ge0 Tm2 3.253935 1_556
Ge1 Ru2 2.515372 1_555
Ge1 Ru3 2.518812 1_654
Ge1 Ru3 2.518812 1_554
Ge1 Ru0 2.558484 1_555
Ge1 Tm0 2.993644 1_555
Ge1 Tm0 2.993644 1_655
Ge1 Tm2 3.013172 1_655
Ge1 Tm2 3.013172 1_555
Ge1 Tm1 3.033030 1_564
Ge1 Tm3 3.253935 1_554
Ge2 Ru1 2.515372 1_565
Ge2 Ru0 2.518812 1_555
Ge2 Ru0 2.518812 1_455
Ge2 Ru3 2.558484 1_555
Ge2 Tm3 2.993644 1_555
Ge2 Tm3 2.993644 1_455
Ge2 Tm1 3.013172 1_565
Ge2 Tm1 3.013172 1_465
Ge2 Tm2 3.033030 1_555
Ge2 Tm0 3.253935 1_555
Ge3 Ru0 2.515372 1_545
Ge3 Ru1 2.518812 1_655
Ge3 Ru1 2.518812 1_555
Ge3 Ru2 2.558484 1_555
Ge3 Tm2 2.993644 1_655
Ge3 Tm2 2.993644 1_555
Ge3 Tm0 3.013172 1_645
Ge3 Tm0 3.013172 1_545
Ge3 Tm3 3.033030 1_555
Ge3 Tm1 3.253935 1_555
Ru0 Tm1 2.892585 1_565
Ru0 Tm3 2.937023 1_555
Ru0 Tm0 2.967484 1_555
Ru0 Tm0 2.967484 1_655
Ru1 Tm0 2.892585 1_545
Ru1 Tm2 2.937023 1_555
Ru1 Tm1 2.967484 1_555
Ru1 Tm1 2.967484 1_455
Ru2 Tm3 2.892585 1_554
Ru2 Tm1 2.937023 1_554
Ru2 Tm2 2.967484 1_555
Ru2 Tm2 2.967484 1_655
Ru3 Tm2 2.892585 1_556
Ru3 Tm0 2.937023 1_556
Ru3 Tm3 2.967484 1_455
Ru3 Tm3 2.967484 1_555
