# generated using pymatgen
data_Na14Sc4Ga4Si7S5O48
_symmetry_space_group_name_H-M   'P 1'
_cell_length_a   18.05610356
_cell_length_b   9.02470796
_cell_length_c   22.22171543
_cell_angle_alpha   89.88689621
_cell_angle_beta   90.16755964
_cell_angle_gamma   119.98994077
_symmetry_Int_Tables_number   1
_chemical_formula_structural   Na14Sc4Ga4Si7S5O48
_chemical_formula_sum   'Na42 Sc12 Ga12 Si21 S15 O144'
_cell_volume   3136.22698339
_cell_formula_units_Z   3
loop_
 _symmetry_equiv_pos_site_id
 _symmetry_equiv_pos_as_xyz
  1  'x, y, z'
loop_
 _atom_site_type_symbol
 _atom_site_label
 _atom_site_symmetry_multiplicity
 _atom_site_fract_x
 _atom_site_fract_y
 _atom_site_fract_z
 _atom_site_occupancy
  Na  Na0  1  0.81275985  0.99386321  0.24152383  1
  Na  Na1  1  0.18604394  0.36571587  0.25788112  1
  Na  Na2  1  0.68742765  0.36622427  0.25434541  1
  Na  Na3  1  0.99702129  0.64129167  0.24135547  1
  Na  Na4  1  0.50248494  0.64722713  0.24554128  1
  Na  Na5  1  0.31284306  0.63366396  0.75213612  1
  Na  Na6  1  0.00135443  0.35570640  0.74955797  1
  Na  Na7  1  0.49863877  0.35452256  0.74807083  1
  Na  Na8  1  0.18420452  0.00415119  0.75919163  1
  Na  Na9  1  0.68725182  0.00716727  0.76142612  1
  Na  Na10  1  0.14313721  0.33272290  0.58371529  1
  Na  Na11  1  0.64258409  0.33349278  0.58520313  1
  Na  Na12  1  0.33612438  0.97201055  0.57926803  1
  Na  Na13  1  0.83739864  0.97578300  0.58167895  1
  Na  Na14  1  0.14021516  0.95048180  0.08687722  1
  Na  Na15  1  0.65077719  0.95881331  0.08549854  1
  Na  Na16  1  0.33727317  0.69890746  0.08168111  1
  Na  Na17  1  0.83658892  0.71295786  0.07895135  1
  Na  Na18  1  0.48779385  0.68061058  0.92438121  1
  Na  Na19  1  0.98302430  0.67494495  0.92537728  1
  Na  Na20  1  0.34611297  0.02306454  0.91427585  1
  Na  Na21  1  0.84355552  0.02261209  0.92014947  1
  Na  Na22  1  0.16852743  0.29948511  0.90925739  1
  Na  Na23  1  0.67306452  0.30708624  0.91046402  1
  Na  Na24  1  0.48520076  0.29274551  0.41934083  1
  Na  Na25  1  0.98514601  0.29021641  0.42007640  1
  Na  Na26  1  0.16982332  0.03419585  0.40477892  1
  Na  Na27  1  0.66925571  0.03759817  0.40577517  1
  Na  Na28  1  0.34446625  0.66741275  0.40865731  1
  Na  Na29  1  0.84583397  0.66882264  0.41050982  1
  Na  Na30  1  0.99830591  0.00684164  0.49568017  1
  Na  Na31  1  0.49871361  0.00705236  0.49534175  1
  Na  Na32  1  0.99093237  0.99054601  0.00096259  1
  Na  Na33  1  0.50131651  0.99194464  0.99735688  1
  Na  Na34  1  0.32710218  0.32647037  0.83478435  1
  Na  Na35  1  0.82377357  0.33372076  0.83588390  1
  Na  Na36  1  0.32448349  0.31406271  0.33110240  1
  Na  Na37  1  0.82663109  0.32695558  0.32978598  1
  Na  Na38  1  0.16495440  0.67782432  0.17045245  1
  Na  Na39  1  0.66478104  0.67405133  0.16482449  1
  Na  Na40  1  0.15745428  0.65443081  0.67013425  1
  Na  Na41  1  0.66737576  0.65487697  0.67217610  1
  Sc  Sc0  1  0.99816069  0.01421906  0.64988869  1
  Sc  Sc1  1  0.49636019  0.01113008  0.64939666  1
  Sc  Sc2  1  0.99255585  0.98500647  0.14596440  1
  Sc  Sc3  1  0.49958754  0.98150383  0.14950952  1
  Sc  Sc4  1  0.83604243  0.33311000  0.69028530  1
  Sc  Sc5  1  0.33556769  0.33763789  0.18960751  1
  Sc  Sc6  1  0.16345077  0.67247698  0.01675300  1
  Sc  Sc7  1  0.67115741  0.68867050  0.01909149  1
  Sc  Sc8  1  0.16609456  0.65496606  0.51532757  1
  Sc  Sc9  1  0.66435175  0.65499580  0.51652069  1
  Sc  Sc10  1  0.17865201  0.68424453  0.31347580  1
  Sc  Sc11  1  0.68017849  0.67248961  0.81578600  1
  Ga  Ga0  1  -0.00013495  -0.00267823  0.34858530  1
  Ga  Ga1  1  0.50105416  0.00318646  0.34826429  1
  Ga  Ga2  1  0.00114624  0.99904290  0.84982292  1
  Ga  Ga3  1  0.50141203  0.00423189  0.85086810  1
  Ga  Ga4  1  0.33439629  0.32316530  0.68899948  1
  Ga  Ga5  1  0.83379061  0.33341425  0.18328266  1
  Ga  Ga6  1  0.33191594  0.34461190  0.97920491  1
  Ga  Ga7  1  0.83345432  0.33467559  0.98404265  1
  Ga  Ga8  1  0.33203356  0.31880471  0.47941462  1
  Ga  Ga9  1  0.83186247  0.31882219  0.47854974  1
  Ga  Ga10  1  0.68430841  0.68553818  0.31566799  1
  Ga  Ga11  1  0.18195303  0.68034448  0.81764431  1
  Si  Si0  1  0.14427076  0.99801898  0.25052417  1
  Si  Si1  1  0.64910701  0.99715622  0.25317984  1
  Si  Si2  1  0.35460043  0.71015482  0.25148114  1
  Si  Si3  1  0.85226476  0.70052855  0.25177777  1
  Si  Si4  1  0.14995243  0.30078412  0.75050165  1
  Si  Si5  1  0.64569562  0.29402021  0.75105066  1
  Si  Si6  1  0.35186965  0.99963562  0.75196002  1
  Si  Si7  1  0.85464744  0.99827630  0.75140366  1
  Si  Si8  1  0.47627840  0.34163754  0.58443687  1
  Si  Si9  1  0.98007305  0.34116877  0.58174391  1
  Si  Si10  1  0.47903912  0.61876957  0.08158986  1
  Si  Si11  1  0.97785949  0.61351378  0.08427616  1
  Si  Si12  1  0.83680544  0.05589024  0.08283995  1
  Si  Si13  1  0.31686962  0.66866879  0.91668280  1
  Si  Si14  1  0.81989226  0.66678725  0.91936593  1
  Si  Si15  1  0.16681418  0.96564456  0.91503012  1
  Si  Si16  1  0.66560450  0.97101441  0.91500816  1
  Si  Si17  1  0.31892300  0.96757804  0.41956342  1
  Si  Si18  1  0.81666321  0.96445178  0.41713121  1
  Si  Si19  1  0.16717715  0.36152688  0.41691277  1
  Si  Si20  1  0.66699978  0.36860318  0.41580726  1
  S  S0  1  0.99873315  0.28999981  0.25206365  1
  S  S1  1  0.50084264  0.29078884  0.25203843  1
  S  S2  1  0.00098656  0.71093027  0.75147788  1
  S  S3  1  0.49725077  0.70616284  0.74989723  1
  S  S4  1  0.18723428  0.04058626  0.58391089  1
  S  S5  1  0.68578720  0.03974222  0.58203313  1
  S  S6  1  0.33520281  0.61981824  0.58338658  1
  S  S7  1  0.83534096  0.62324577  0.58088426  1
  S  S8  1  0.33521167  0.04753410  0.08078929  1
  S  S9  1  0.18758560  0.33378847  0.08178249  1
  S  S10  1  0.68590318  0.33315390  0.08376798  1
  S  S11  1  0.02226366  0.37675416  0.91297045  1
  S  S12  1  0.51904925  0.37336433  0.91682141  1
  S  S13  1  0.01824926  0.66405976  0.41682487  1
  S  S14  1  0.51974602  0.66546180  0.41565562  1
  O  O0  1  0.10073597  0.03349244  0.31046163  1
  O  O1  1  0.60454818  0.03636751  0.31096738  1
  O  O2  1  0.41530414  0.80325469  0.31054195  1
  O  O3  1  0.91284129  0.78923591  0.31159205  1
  O  O4  1  0.48976921  0.19498242  0.30890261  1
  O  O5  1  0.98627446  0.18852062  0.30816281  1
  O  O6  1  0.10802356  0.17096190  0.80803705  1
  O  O7  1  0.60026391  0.16788838  0.80918528  1
  O  O8  1  0.48370462  0.78113325  0.80519260  1
  O  O9  1  0.99131757  0.78650859  0.80752454  1
  O  O10  1  0.41431989  0.03278875  0.80985068  1
  O  O11  1  0.91861331  0.03117201  0.80858356  1
  O  O12  1  0.39054121  0.96134815  0.69118292  1
  O  O13  1  0.89532985  0.97528180  0.68876052  1
  O  O14  1  0.09248644  0.21858074  0.68947462  1
  O  O15  1  0.58901615  0.20545866  0.68944991  1
  O  O16  1  0.01326566  0.81903254  0.69854731  1
  O  O17  1  0.50958087  0.81312530  0.69672210  1
  O  O18  1  0.39621472  0.81719844  0.18981234  1
  O  O19  1  0.89200968  0.82187168  0.19297651  1
  O  O20  1  0.01242659  0.20942914  0.19937740  1
  O  O21  1  0.51269587  0.20596021  0.19980728  1
  O  O22  1  0.08900026  0.97815811  0.18994860  1
  O  O23  1  0.59020801  0.96285301  0.19273119  1
  O  O24  1  0.42947117  0.35571250  0.64570962  1
  O  O25  1  0.93443218  0.35404500  0.64273298  1
  O  O26  1  0.23917657  0.12264071  0.63883658  1
  O  O27  1  0.73813867  0.12358330  0.63593435  1
  O  O28  1  0.32266872  0.51647728  0.63843393  1
  O  O29  1  0.82238977  0.51562613  0.63393613  1
  O  O30  1  0.43222555  0.51467805  0.14269778  1
  O  O31  1  0.93268518  0.50962724  0.14628549  1
  O  O32  1  0.32206869  0.12893655  0.13383582  1
  O  O33  1  0.81734461  0.13594664  0.14358955  1
  O  O34  1  0.24059158  0.35654839  0.13565788  1
  O  O35  1  0.73753731  0.35803769  0.13918563  1
  O  O36  1  0.22587111  0.30378625  0.02664079  1
  O  O37  1  0.72412273  0.30319469  0.02934658  1
  O  O38  1  0.41635831  0.52776081  0.02246138  1
  O  O39  1  0.91993402  0.52964935  0.02383381  1
  O  O40  1  0.34083348  0.14073229  0.02439873  1
  O  O41  1  0.84288635  0.15869139  0.02073250  1
  O  O42  1  0.22569870  0.14847144  0.52945795  1
  O  O43  1  0.72405574  0.14719465  0.52708873  1
  O  O44  1  0.34110992  0.53674107  0.52796927  1
  O  O45  1  0.84113593  0.54214729  0.52460686  1
  O  O46  1  0.41662473  0.31187130  0.52465786  1
  O  O47  1  0.91823334  0.31011333  0.52239461  1
  O  O48  1  0.27287547  0.69992493  0.97580048  1
  O  O49  1  0.77714496  0.70212206  0.97833844  1
  O  O50  1  0.07566572  0.45959053  0.96662166  1
  O  O51  1  0.57362468  0.45909134  0.96906519  1
  O  O52  1  0.14664402  0.84466651  0.97453875  1
  O  O53  1  0.64502519  0.84694469  0.97383960  1
  O  O54  1  0.27774654  0.85277914  0.48077924  1
  O  O55  1  0.77376869  0.84692786  0.47720690  1
  O  O56  1  0.14794931  0.44542297  0.47643843  1
  O  O57  1  0.64635303  0.44645331  0.47616114  1
  O  O58  1  0.07288276  0.68778215  0.46977986  1
  O  O59  1  0.57362894  0.68875014  0.46907960  1
  O  O60  1  0.05515247  0.63494257  0.36226589  1
  O  O61  1  0.55676627  0.63605352  0.36116532  1
  O  O62  1  0.25098971  0.87737675  0.36505416  1
  O  O63  1  0.75300589  0.88248987  0.35931863  1
  O  O64  1  0.18555037  0.48571881  0.35910758  1
  O  O65  1  0.68459349  0.49738053  0.35824118  1
  O  O66  1  0.06278494  0.48150915  0.85816021  1
  O  O67  1  0.55465885  0.47299676  0.86108365  1
  O  O68  1  0.18541204  0.87500858  0.85672814  1
  O  O69  1  0.68043968  0.87889992  0.85671506  1
  O  O70  1  0.25473952  0.62398735  0.85745554  1
  O  O71  1  0.75359791  0.61880439  0.86297478  1
  O  O72  1  0.01035935  0.82008163  0.41445539  1
  O  O73  1  0.51209498  0.82236063  0.41331262  1
  O  O74  1  0.41315228  0.98250207  0.41065508  1
  O  O75  1  0.91161908  0.98140134  0.40916294  1
  O  O76  1  0.08179567  0.16948830  0.41152066  1
  O  O77  1  0.58262279  0.17574491  0.40941931  1
  O  O78  1  0.01486168  0.20468872  0.91045576  1
  O  O79  1  0.50987376  0.19948994  0.91409795  1
  O  O80  1  0.08312098  0.99107368  0.90823902  1
  O  O81  1  0.57897959  0.99057679  0.90985674  1
  O  O82  1  0.41124430  0.84202100  0.90883063  1
  O  O83  1  0.91410627  0.84252868  0.90953055  1
  O  O84  1  0.48474098  0.16412750  0.58483507  1
  O  O85  1  0.98924558  0.16446158  0.58188892  1
  O  O86  1  0.10074643  0.01962342  0.58869925  1
  O  O87  1  0.59904328  0.01830453  0.58650914  1
  O  O88  1  0.41187824  0.79331193  0.58645797  1
  O  O89  1  0.91201404  0.79582850  0.58504680  1
  O  O90  1  0.48828435  0.81380812  0.08232343  1
  O  O91  1  0.98929680  0.80886566  0.08509610  1
  O  O92  1  0.41191556  0.02906080  0.08518141  1
  O  O93  1  0.91967544  0.02918228  0.08547630  1
  O  O94  1  0.10201661  0.18251150  0.08672894  1
  O  O95  1  0.59974159  0.17809228  0.08932094  1
  O  O96  1  0.34265657  0.17364756  0.74742281  1
  O  O97  1  0.84738890  0.17449631  0.74884057  1
  O  O98  1  0.24801274  0.32694736  0.74131394  1
  O  O99  1  0.73967664  0.31043828  0.74508035  1
  O  O100  1  0.41756966  0.53394193  0.74507318  1
  O  O101  1  0.92453338  0.53806924  0.74664763  1
  O  O102  1  0.34779997  0.51997344  0.24981702  1
  O  O103  1  0.84275925  0.50885189  0.24542941  1
  O  O104  1  0.42430931  0.31085758  0.24718628  1
  O  O105  1  0.92076910  0.30566558  0.24793522  1
  O  O106  1  0.23935888  0.16918621  0.24612483  1
  O  O107  1  0.74486516  0.16810775  0.24652076  1
  O  O108  1  0.32657585  0.49537744  0.92010351  1
  O  O109  1  0.83043278  0.49544129  0.92478727  1
  O  O110  1  0.43075712  0.34918416  0.92220611  1
  O  O111  1  0.93611113  0.35685875  0.91699858  1
  O  O112  1  0.25571514  0.15567718  0.92354030  1
  O  O113  1  0.75254714  0.16055865  0.92222870  1
  O  O114  1  0.33020199  0.16114003  0.42225847  1
  O  O115  1  0.82688281  0.15748777  0.42085016  1
  O  O116  1  0.25616444  0.35078120  0.42693962  1
  O  O117  1  0.75590201  0.35627602  0.42419749  1
  O  O118  1  0.43183614  0.51417702  0.42225933  1
  O  O119  1  0.93053809  0.51225541  0.42288102  1
  O  O120  1  0.18349936  0.49335003  0.07648663  1
  O  O121  1  0.67868638  0.48816614  0.07791814  1
  O  O122  1  0.07674193  0.64567614  0.08141156  1
  O  O123  1  0.57480218  0.64610617  0.07906696  1
  O  O124  1  0.25741405  0.87026948  0.07910408  1
  O  O125  1  0.75139941  0.85964958  0.08140801  1
  O  O126  1  0.18267663  0.87267965  0.57880346  1
  O  O127  1  0.68152809  0.87187296  0.57704657  1
  O  O128  1  0.25738960  0.64123364  0.58143198  1
  O  O129  1  0.75733478  0.64481284  0.57939984  1
  O  O130  1  0.07825196  0.50550265  0.57943431  1
  O  O131  1  0.57485030  0.50362531  0.58167154  1
  O  O132  1  0.14451653  0.81714873  0.25601032  1
  O  O133  1  0.65349992  0.81780531  0.26004822  1
  O  O134  1  0.25602189  0.67199233  0.25228451  1
  O  O135  1  0.75539924  0.67687378  0.25540196  1
  O  O136  1  0.07462314  0.46398448  0.25760214  1
  O  O137  1  0.57782397  0.46582307  0.25589389  1
  O  O138  1  0.15518364  0.48886224  0.75766965  1
  O  O139  1  0.64528911  0.47381311  0.75535339  1
  O  O140  1  0.07811643  0.68921908  0.75476974  1
  O  O141  1  0.57195949  0.68105880  0.75479018  1
  O  O142  1  0.25520220  0.83046551  0.75525986  1
  O  O143  1  0.75637402  0.83929530  0.75256310  1
loop_
_geom_bond_atom_site_label_1
_geom_bond_atom_site_label_2
_geom_bond_distance
_geom_bond_site_symmetry_2
Na0 O107 2.432411 1_565
Na0 O105 2.501138 1_565
Na0 O33 2.504218 1_565
Na0 O135 2.527452 1_555
Na0 O133 2.529796 1_555
Na0 O19 2.802980 1_555
Na0 O63 2.819254 1_555
Na1 O134 2.400028 1_555
Na1 O106 2.418859 1_555
Na1 O64 2.500450 1_555
Na1 O102 2.537296 1_555
Na1 O136 2.572453 1_555
Na1 O0 2.847282 1_555
Na1 O34 2.907166 1_555
Na1 O20 3.011645 1_555
Na2 O135 2.434527 1_555
Na2 O103 2.440399 1_555
Na2 O107 2.481640 1_555
Na2 O137 2.550379 1_555
Na2 O65 2.608824 1_555
Na2 O35 2.730190 1_555
Na2 O1 2.868289 1_555
Na2 O21 2.989535 1_555
Na3 O132 2.342861 1_655
Na3 O31 2.416642 1_555
Na3 O103 2.422388 1_555
Na3 O136 2.624941 1_655
Na3 O105 2.630936 1_555
Na3 O22 2.873228 1_655
Na3 O60 2.892595 1_655
Na3 O3 2.929132 1_555
Na4 O133 2.389425 1_555
Na4 O102 2.433790 1_555
Na4 O30 2.596139 1_555
Na4 O137 2.608947 1_555
Na4 O104 2.631561 1_555
Na4 O23 2.736221 1_555
Na4 O61 2.766852 1_555
Na4 O2 2.963827 1_555
Na5 O98 2.419057 1_555
Na5 O142 2.468056 1_555
Na5 O138 2.471657 1_555
Na5 O100 2.472617 1_555
Na5 O70 2.551004 1_555
Na5 O28 2.781130 1_555
Na5 O12 2.897574 1_555
Na5 O8 2.925643 1_555
Na6 O138 2.419204 1_555
Na6 O97 2.420342 1_455
Na6 O140 2.612217 1_555
Na6 O101 2.630200 1_455
Na6 O25 2.657196 1_455
Na6 O66 2.660768 1_555
Na6 O14 2.841972 1_555
Na6 O11 2.855250 1_455
Na7 O139 2.311950 1_555
Na7 O96 2.449675 1_555
Na7 O141 2.561166 1_555
Na7 O24 2.594330 1_555
Na7 O100 2.671596 1_555
Na7 O67 2.718036 1_555
Na7 O10 2.865402 1_555
Na7 O15 2.895440 1_555
Na8 O68 2.464083 1_545
Na8 O142 2.473444 1_545
Na8 O96 2.494285 1_555
Na8 O140 2.512816 1_545
Na8 O98 2.571854 1_555
Na8 O6 2.724303 1_555
Na8 O26 2.867887 1_555
Na9 O69 2.385027 1_545
Na9 O143 2.405114 1_545
Na9 O99 2.434521 1_555
Na9 O97 2.521333 1_555
Na9 O141 2.625257 1_545
Na9 O7 2.826743 1_555
Na9 O27 2.960226 1_555
Na10 O130 2.374456 1_555
Na10 O85 2.410396 1_455
Na10 O128 2.503660 1_555
Na10 O86 2.533665 1_555
Na10 O14 2.545969 1_555
Na10 O56 2.574523 1_555
Na11 O131 2.394900 1_555
Na11 O84 2.470631 1_555
Na11 O129 2.526641 1_555
Na11 O87 2.544448 1_555
Na11 O15 2.553876 1_555
Na11 O57 2.614795 1_555
Na12 O84 2.360080 1_565
Na12 O54 2.433264 1_555
Na12 O126 2.448920 1_555
Na12 O128 2.586866 1_555
Na12 O88 2.588472 1_555
Na12 O12 2.690508 1_555
Na13 O85 2.397811 1_565
Na13 O127 2.484183 1_555
Na13 O89 2.577690 1_555
Na13 O129 2.587963 1_555
Na13 O55 2.592545 1_555
Na13 O13 2.597399 1_555
Na13 O47 2.926195 1_565
Na13 O27 2.975528 1_565
Na14 O91 2.361892 1_455
Na14 O122 2.396644 1_555
Na14 O94 2.510846 1_565
Na14 O22 2.531624 1_555
Na14 O124 2.562422 1_555
Na14 O52 2.697983 1_554
Na15 O125 2.395163 1_555
Na15 O123 2.448823 1_555
Na15 O90 2.546879 1_555
Na15 O95 2.568404 1_565
Na15 O23 2.632681 1_555
Na15 O53 2.662747 1_554
Na15 O33 2.906255 1_565
Na15 O37 2.974861 1_565
Na16 O90 2.384007 1_555
Na16 O120 2.452290 1_555
Na16 O92 2.585725 1_565
Na16 O124 2.588932 1_555
Na16 O48 2.623473 1_554
Na16 O18 2.627814 1_555
Na16 O38 2.894892 1_555
Na16 O34 2.939036 1_555
Na17 O91 2.446015 1_555
Na17 O49 2.458100 1_554
Na17 O93 2.477162 1_565
Na17 O125 2.481548 1_555
Na17 O121 2.542134 1_555
Na17 O19 2.720206 1_555
Na18 O81 2.456707 1_555
Na18 O82 2.481892 1_555
Na18 O108 2.532107 1_555
Na18 O38 2.557860 1_556
Na18 O110 2.632502 1_555
Na18 O53 2.692399 1_555
Na18 O8 2.810645 1_555
Na19 O109 2.398650 1_555
Na19 O83 2.415910 1_555
Na19 O39 2.512735 1_556
Na19 O80 2.529028 1_655
Na19 O111 2.561843 1_555
Na19 O52 2.780575 1_655
Na19 O9 2.781344 1_555
Na20 O82 2.447378 1_545
Na20 O112 2.468736 1_555
Na20 O110 2.555905 1_555
Na20 O79 2.563551 1_555
Na20 O10 2.610945 1_555
Na20 O40 2.690348 1_556
Na20 O68 2.819454 1_545
Na20 O48 2.874363 1_545
Na21 O113 2.509593 1_555
Na21 O83 2.528368 1_545
Na21 O41 2.555375 1_556
Na21 O111 2.618625 1_555
Na21 O78 2.689858 1_655
Na21 O11 2.811275 1_555
Na21 O49 2.828881 1_545
Na21 O69 2.916813 1_545
Na22 O80 2.415504 1_545
Na22 O78 2.461382 1_555
Na22 O108 2.506279 1_555
Na22 O112 2.510253 1_555
Na22 O6 2.515411 1_555
Na22 O70 2.786474 1_555
Na22 O36 2.796794 1_556
Na23 O113 2.402146 1_555
Na23 O81 2.488813 1_545
Na23 O109 2.496586 1_555
Na23 O7 2.591177 1_555
Na23 O79 2.602410 1_555
Na23 O71 2.655151 1_555
Na23 O37 2.801408 1_556
Na24 O114 2.434172 1_555
Na24 O74 2.434795 1_545
Na24 O77 2.473426 1_555
Na24 O118 2.617612 1_555
Na24 O4 2.624968 1_555
Na24 O46 2.696719 1_555
Na24 O57 2.817026 1_555
Na24 O61 2.988612 1_555
Na25 O75 2.427024 1_545
Na25 O76 2.484394 1_655
Na25 O115 2.485834 1_555
Na25 O47 2.626053 1_555
Na25 O119 2.639603 1_555
Na25 O5 2.656211 1_555
Na25 O56 2.835663 1_655
Na25 O60 2.998197 1_655
Na26 O0 2.434291 1_555
Na26 O76 2.445755 1_555
Na26 O116 2.526690 1_555
Na26 O72 2.551549 1_545
Na26 O114 2.554943 1_555
Na26 O62 2.648771 1_545
Na27 O1 2.403434 1_555
Na27 O77 2.441013 1_555
Na27 O115 2.510121 1_555
Na27 O73 2.518895 1_545
Na27 O117 2.527704 1_555
Na27 O63 2.728174 1_545
Na27 O43 2.870749 1_555
Na28 O74 2.469958 1_555
Na28 O116 2.513382 1_555
Na28 O2 2.516102 1_555
Na28 O118 2.582442 1_555
Na28 O73 2.625783 1_555
Na28 O64 2.723893 1_555
Na28 O44 2.888077 1_555
Na28 O54 2.975728 1_555
Na29 O75 2.453487 1_555
Na29 O117 2.471034 1_555
Na29 O3 2.483591 1_555
Na29 O119 2.562734 1_555
Na29 O72 2.577028 1_655
Na29 O45 2.763223 1_555
Na29 O65 2.775468 1_555
Na29 O55 2.930014 1_555
Na30 O76 2.391275 1_655
Na30 O75 2.413250 1_545
Na30 O85 2.442408 1_555
Na30 O72 2.554799 1_645
Na30 O89 2.652319 1_545
Na30 O86 2.733598 1_655
Na31 O74 2.370603 1_545
Na31 O77 2.440971 1_555
Na31 O84 2.529747 1_555
Na31 O73 2.564456 1_545
Na31 O87 2.681747 1_555
Na31 O88 2.694155 1_545
Na32 O93 2.401918 1_565
Na32 O83 2.445110 1_554
Na32 O91 2.474749 1_555
Na32 O80 2.651126 1_654
Na32 O78 2.668616 1_664
Na32 O94 2.678362 1_665
Na33 O81 2.404294 1_555
Na33 O90 2.411890 1_556
Na33 O82 2.477409 1_555
Na33 O79 2.579513 1_565
Na33 O92 2.662383 1_566
Na33 O95 2.676658 1_566
Na34 O112 2.438020 1_555
Na34 O108 2.438088 1_555
Na34 O96 2.480069 1_555
Na34 O98 2.518398 1_555
Na34 O110 2.629758 1_555
Na34 O100 2.663642 1_555
Na35 O113 2.402304 1_555
Na35 O109 2.425292 1_555
Na35 O99 2.467029 1_555
Na35 O97 2.572220 1_555
Na35 O111 2.638870 1_555
Na35 O101 2.701056 1_555
Na36 O106 2.370978 1_555
Na36 O102 2.470278 1_555
Na36 O114 2.479661 1_555
Na36 O116 2.567840 1_555
Na36 O104 2.607497 1_555
Na36 O118 2.759353 1_555
Na37 O107 2.353090 1_555
Na37 O103 2.409690 1_555
Na37 O115 2.535492 1_555
Na37 O117 2.541302 1_555
Na37 O105 2.565217 1_555
Na37 O119 2.729575 1_555
Na38 O132 2.410242 1_555
Na38 O122 2.461298 1_555
Na38 O134 2.466167 1_555
Na38 O136 2.644254 1_555
Na38 O124 2.651666 1_555
Na38 O120 2.796242 1_555
Na39 O123 2.430831 1_555
Na39 O125 2.464446 1_555
Na39 O133 2.545529 1_555
Na39 O135 2.582329 1_555
Na39 O121 2.653960 1_555
Na39 O137 2.673197 1_555
Na40 O138 2.438409 1_555
Na40 O130 2.446667 1_555
Na40 O140 2.481053 1_555
Na40 O142 2.531099 1_555
Na40 O126 2.701616 1_555
Na40 O128 2.718837 1_555
Na41 O139 2.363568 1_555
Na41 O143 2.421684 1_555
Na41 O131 2.531903 1_555
Na41 O141 2.611792 1_555
Na41 O129 2.657975 1_555
Na41 O127 2.802790 1_555
Ga0 O0 1.885497 1_555
Ga0 O3 1.928730 1_445
Ga0 O75 2.038261 1_445
Ga0 O76 2.063285 1_555
Ga0 O5 2.064067 1_455
Ga0 O72 2.242570 1_545
Ga1 O2 1.887088 1_545
Ga1 O1 1.928026 1_555
Ga1 O77 2.035897 1_555
Ga1 O4 2.036708 1_555
Ga1 O74 2.047386 1_545
Ga1 O73 2.259756 1_545
Ga2 O11 1.888803 1_465
Ga2 O80 1.993964 1_555
Ga2 O6 2.001276 1_565
Ga2 O83 2.002769 1_455
Ga2 O9 2.063927 1_455
Ga2 O78 2.206698 1_565
Ga3 O7 1.895794 1_555
Ga3 O10 1.940604 1_555
Ga3 O81 1.963725 1_545
Ga3 O82 2.018629 1_545
Ga3 O8 2.132799 1_545
Ga3 O79 2.200480 1_555
Ga4 O24 1.860948 1_555
Ga4 O96 1.929156 1_555
Ga4 O98 1.961993 1_555
Ga4 O26 2.088015 1_555
Ga4 O100 2.137512 1_555
Ga4 O28 2.170528 1_555
Ga5 O33 1.875545 1_555
Ga5 O31 1.886278 1_555
Ga5 O103 2.047235 1_555
Ga5 O107 2.094929 1_555
Ga5 O35 2.098900 1_555
Ga5 O105 2.229751 1_555
Ga6 O38 1.859835 1_556
Ga6 O108 1.925818 1_555
Ga6 O112 1.995879 1_555
Ga6 O36 2.053825 1_556
Ga6 O40 2.169764 1_556
Ga6 O110 2.174973 1_555
Ga7 O41 1.865639 1_556
Ga7 O39 1.888800 1_556
Ga7 O109 1.978130 1_555
Ga7 O113 2.047448 1_555
Ga7 O37 2.107395 1_556
Ga7 O111 2.310727 1_555
Ga8 O46 1.853087 1_555
Ga8 O114 1.897023 1_555
Ga8 O116 1.924627 1_555
Ga8 O42 2.083565 1_555
Ga8 O44 2.178186 1_555
Ga8 O118 2.190314 1_555
Ga9 O47 1.871070 1_555
Ga9 O115 1.909928 1_555
Ga9 O117 1.976446 1_555
Ga9 O43 2.084032 1_555
Ga9 O119 2.155733 1_555
Ga9 O45 2.192558 1_555
Ga10 O63 1.853230 1_555
Ga10 O135 1.886295 1_555
Ga10 O65 1.944438 1_555
Ga10 O133 1.978860 1_555
Ga10 O61 2.347069 1_555
Ga10 O137 2.361571 1_555
Ga11 O70 1.851542 1_555
Ga11 O142 1.928351 1_555
Ga11 O68 1.934044 1_555
Ga11 O138 2.041168 1_555
Ga11 O66 2.192139 1_555
Ga11 O140 2.368137 1_555
O0 Si0 1.659447 1_545
O1 Si1 1.647425 1_545
O2 Si2 1.644716 1_555
O3 Si3 1.650540 1_555
O4 S1 1.486146 1_555
O5 S0 1.494847 1_555
O6 Si4 1.641189 1_555
O7 Si5 1.644519 1_555
O8 S3 1.482537 1_555
O9 S2 1.473270 1_655
O10 Si6 1.634528 1_545
O11 Si7 1.639129 1_545
O12 Si6 1.636935 1_555
O12 Sc1 1.966049 1_565
O13 Si7 1.637050 1_555
O13 Sc0 1.916504 1_565
O14 Si4 1.640818 1_555
O14 Sc0 1.983298 1_455
O15 Si5 1.654810 1_555
O15 Sc1 1.931607 1_555
O16 S2 1.471448 1_555
O16 Sc0 2.194874 1_465
O17 S3 1.469643 1_555
O17 Sc1 2.184867 1_565
O18 Si2 1.628165 1_555
O18 Sc3 1.929346 1_555
O19 Si3 1.623512 1_555
O19 Sc2 1.971759 1_555
O20 S0 1.464702 1_455
O20 Sc2 2.218134 1_445
O21 S1 1.465531 1_555
O21 Sc3 2.221856 1_545
O22 Si0 1.629206 1_555
O22 Sc2 2.022140 1_455
O23 Si1 1.641761 1_555
O23 Sc3 1.973229 1_555
O24 Si8 1.642886 1_555
O25 Si9 1.622441 1_555
O25 Sc4 1.995752 1_555
O26 S4 1.490058 1_555
O27 S5 1.477379 1_555
O27 Sc4 2.194109 1_555
O28 S6 1.484401 1_555
O29 S7 1.468958 1_555
O29 Sc4 2.176650 1_555
O30 Si10 1.627506 1_555
O30 Sc5 1.975292 1_555
O31 Si11 1.637084 1_555
O32 S8 1.471351 1_555
O32 Sc5 2.165952 1_555
O33 Si12 1.651748 1_555
O34 S9 1.479606 1_555
O34 Sc5 2.164947 1_555
O35 S10 1.490382 1_555
O36 S9 1.498678 1_555
O37 S10 1.484766 1_555
O38 Si10 1.657771 1_555
O39 Si11 1.635602 1_555
O40 S8 1.482973 1_555
O41 Si12 1.634486 1_555
O42 S4 1.489554 1_555
O43 S5 1.496318 1_555
O44 S6 1.474573 1_555
O45 S7 1.480371 1_555
O46 Si8 1.643394 1_555
O47 Si9 1.656701 1_555
O48 Si13 1.633386 1_555
O48 Sc6 2.076921 1_556
O49 Si14 1.633523 1_555
O49 Sc7 2.067520 1_556
O50 S11 1.478575 1_555
O50 Sc6 2.097222 1_556
O51 S12 1.467006 1_555
O51 Sc7 2.231567 1_556
O52 Si15 1.634919 1_555
O52 Sc6 1.962364 1_556
O53 Si16 1.637694 1_555
O53 Sc7 1.984794 1_556
O54 Si17 1.645269 1_555
O54 Sc8 2.060673 1_555
O55 Si18 1.638966 1_555
O55 Sc9 2.061491 1_555
O56 Si19 1.647093 1_555
O56 Sc8 1.953380 1_555
O57 Si20 1.643108 1_555
O57 Sc9 1.961004 1_555
O58 S13 1.478774 1_555
O58 Sc8 2.105214 1_555
O59 S14 1.479841 1_555
O59 Sc9 2.091659 1_555
O60 S13 1.471043 1_555
O60 Sc10 2.316542 1_555
O61 S14 1.472008 1_555
O62 Si17 1.622175 1_555
O62 Sc10 1.944445 1_555
O63 Si18 1.632139 1_555
O64 Si19 1.625226 1_555
O64 Sc10 2.113975 1_555
O65 Si20 1.647846 1_555
O66 S11 1.490544 1_555
O67 S12 1.475906 1_555
O67 Sc11 2.306118 1_555
O68 Si15 1.655793 1_555
O69 Si16 1.633923 1_555
O69 Sc11 2.072466 1_555
O70 Si13 1.641503 1_555
O71 Si14 1.632736 1_555
O71 Sc11 1.929682 1_555
O72 S13 1.485218 1_555
O73 S14 1.490629 1_555
O74 Si17 1.650732 1_555
O75 Si18 1.653439 1_555
O76 Si19 1.650270 1_555
O77 Si20 1.649064 1_555
O78 S11 1.491684 1_555
O79 S12 1.494596 1_555
O80 Si15 1.644478 1_555
O81 Si16 1.663019 1_555
O82 Si13 1.648421 1_555
O83 Si14 1.661529 1_555
O84 Si8 1.683568 1_555
O84 Sc1 2.070940 1_555
O85 Si9 1.683634 1_555
O85 Sc0 2.087195 1_555
O86 S4 1.480324 1_555
O86 Sc0 2.281759 1_455
O87 S5 1.482697 1_555
O87 Sc1 2.299875 1_555
O88 S6 1.485172 1_555
O88 Sc1 2.268888 1_565
O89 S7 1.481632 1_555
O89 Sc0 2.305105 1_565
O90 Si10 1.683055 1_555
O90 Sc3 2.063838 1_555
O91 Si11 1.669509 1_555
O91 Sc2 2.067458 1_555
O92 S8 1.478325 1_555
O92 Sc3 2.323166 1_545
O93 Si12 1.631088 1_555
O93 Sc2 2.051676 1_545
O94 S9 1.467922 1_555
O94 Sc2 2.302215 1_445
O95 S10 1.489249 1_555
O95 Sc3 2.237002 1_545
O96 Si6 1.662665 1_545
O97 Si7 1.660587 1_545
O97 Sc4 2.017022 1_555
O98 Si4 1.678214 1_555
O99 Si5 1.633712 1_555
O99 Sc4 2.051239 1_555
O100 S3 1.503798 1_555
O101 S2 1.482478 1_655
O101 Sc4 2.141475 1_555
O102 Si2 1.658849 1_555
O102 Sc5 2.047022 1_555
O103 Si3 1.657008 1_555
O104 S1 1.484357 1_555
O104 Sc5 2.153349 1_555
O105 S0 1.486020 1_555
O106 Si0 1.640910 1_545
O106 Sc5 2.066705 1_555
O107 Si1 1.650907 1_545
O108 Si13 1.660043 1_555
O109 Si14 1.653865 1_555
O110 S12 1.502225 1_555
O111 S11 1.477027 1_655
O112 Si15 1.673639 1_545
O113 Si16 1.652673 1_545
O114 Si17 1.655660 1_545
O115 Si18 1.659784 1_545
O116 Si19 1.671626 1_555
O117 Si20 1.673496 1_555
O118 S14 1.496398 1_555
O119 S13 1.494876 1_655
O120 S9 1.482692 1_555
O120 Sc6 2.253890 1_555
O121 S10 1.473883 1_555
O121 Sc7 2.288478 1_555
O122 Si11 1.660899 1_455
O122 Sc6 2.051186 1_555
O123 Si10 1.621075 1_555
O123 Sc7 2.072230 1_555
O124 S8 1.512374 1_565
O124 Sc6 2.225529 1_555
O125 Si12 1.668911 1_565
O125 Sc7 2.039487 1_555
O126 S4 1.480464 1_565
O126 Sc8 2.315188 1_555
O127 S5 1.482388 1_565
O127 Sc9 2.266526 1_555
O128 S6 1.511404 1_555
O128 Sc8 2.253855 1_555
O129 S7 1.515444 1_555
O129 Sc9 2.218017 1_555
O130 Si9 1.648224 1_455
O130 Sc8 2.057027 1_555
O131 Si8 1.645553 1_555
O131 Sc9 2.091099 1_555
O132 Si0 1.638823 1_555
O132 Sc10 2.043913 1_555
O133 Si1 1.666349 1_555
O134 Si2 1.635378 1_555
O134 Sc10 1.994730 1_555
O135 Si3 1.654872 1_555
O136 S0 1.485627 1_455
O136 Sc10 2.298819 1_555
O137 S1 1.496488 1_555
O138 Si4 1.660119 1_555
O139 Si5 1.629257 1_555
O139 Sc11 2.071351 1_555
O140 S2 1.501798 1_555
O141 S3 1.478978 1_555
O141 Sc11 2.407593 1_555
O142 Si6 1.648974 1_555
O143 Si7 1.631816 1_555
O143 Sc11 2.016250 1_555
