# generated using pymatgen
data_La5Sb3Br
_symmetry_space_group_name_H-M   'P 1'
_cell_length_a   9.66984630
_cell_length_b   9.66985318
_cell_length_c   6.81943564
_cell_angle_alpha   90.00000000
_cell_angle_beta   90.00000000
_cell_angle_gamma   120.00002621
_symmetry_Int_Tables_number   1
_chemical_formula_structural   La5Sb3Br
_chemical_formula_sum   'La10 Sb6 Br2'
_cell_volume   552.22797441
_cell_formula_units_Z   2
loop_
 _symmetry_equiv_pos_site_id
 _symmetry_equiv_pos_as_xyz
  1  'x, y, z'
loop_
 _atom_site_type_symbol
 _atom_site_label
 _atom_site_symmetry_multiplicity
 _atom_site_fract_x
 _atom_site_fract_y
 _atom_site_fract_z
 _atom_site_occupancy
  La  La0  1  0.27531134  -0.00000000  0.25000000  1
  La  La1  1  0.00000000  0.72468866  0.75000000  1
  La  La2  1  0.72468866  0.72468866  0.25000000  1
  La  La3  1  0.27531134  0.27531134  0.75000000  1
  La  La4  1  0.72468866  0.00000000  0.75000000  1
  La  La5  1  -0.00000000  0.27531134  0.25000000  1
  La  La6  1  0.66666700  0.33333300  0.50000000  1
  La  La7  1  0.33333300  0.66666700  0.00000000  1
  La  La8  1  0.33333300  0.66666700  0.50000000  1
  La  La9  1  0.66666700  0.33333300  0.00000000  1
  Sb  Sb0  1  0.61737606  0.61737606  0.75000000  1
  Sb  Sb1  1  -0.00000000  0.61737606  0.25000000  1
  Sb  Sb2  1  0.61737606  -0.00000000  0.25000000  1
  Sb  Sb3  1  0.38262394  0.00000000  0.75000000  1
  Sb  Sb4  1  0.00000000  0.38262394  0.75000000  1
  Sb  Sb5  1  0.38262394  0.38262394  0.25000000  1
  Br  Br0  1  0.00000000  -0.00000000  0.50000000  1
  Br  Br1  1  0.00000000  -0.00000000  0.00000000  1
loop_
_geom_bond_atom_site_label_1
_geom_bond_atom_site_label_2
_geom_bond_distance
_geom_bond_site_symmetry_2
La0 Sb1 3.305571 1_545
La0 Sb5 3.305572 1_555
La0 Sb2 3.307713 1_555
La0 Sb3 3.564125 1_555
La0 Sb3 3.564125 1_554
La1 Sb3 3.305570 1_565
La1 Sb0 3.305570 1_455
La1 Sb4 3.307716 1_555
La1 Sb1 3.564126 1_555
La1 Sb1 3.564126 1_556
La2 Sb1 3.305571 1_655
La2 Sb2 3.305572 1_565
La2 Sb5 3.307713 1_555
La2 Sb0 3.564125 1_554
La2 Sb0 3.564125 1_555
La3 Sb4 3.305571 1_555
La3 Sb3 3.305572 1_555
La3 Sb0 3.307713 1_555
La3 Sb5 3.564125 1_555
La3 Sb5 3.564125 1_556
La4 Sb4 3.305571 1_655
La4 Sb0 3.305572 1_545
La4 Sb3 3.307713 1_555
La4 Sb2 3.564125 1_556
La4 Sb2 3.564125 1_555
La5 Sb2 3.305570 1_455
La5 Sb5 3.305570 1_555
La5 Sb1 3.307716 1_555
La5 Sb4 3.564126 1_554
La5 Sb4 3.564126 1_555
La6 Sb4 3.462213 1_655
La6 Sb2 3.462215 1_555
La6 Sb1 3.462216 1_655
La6 Sb3 3.462217 1_555
La6 Sb5 3.462222 1_555
La6 Sb0 3.462224 1_555
La7 Sb1 3.462213 1_555
La7 Sb3 3.462215 1_564
La7 Sb4 3.462216 1_554
La7 Sb2 3.462217 1_565
La7 Sb0 3.462222 1_554
La7 Sb5 3.462224 1_555
La8 Sb1 3.462213 1_555
La8 Sb3 3.462215 1_565
La8 Sb4 3.462216 1_555
La8 Sb2 3.462217 1_565
La8 Sb0 3.462222 1_555
La8 Sb5 3.462224 1_555
La9 Sb4 3.462213 1_654
La9 Sb2 3.462215 1_555
La9 Sb1 3.462216 1_655
La9 Sb3 3.462217 1_554
La9 Sb5 3.462222 1_555
La9 Sb0 3.462224 1_554
Br0 La2 3.161321 1_445
Br0 La3 3.161321 1_555
Br0 La4 3.161321 1_455
Br0 La0 3.161321 1_555
Br0 La5 3.161323 1_555
Br0 La1 3.161323 1_545
Br1 La3 3.161321 1_554
Br1 La2 3.161321 1_445
Br1 La4 3.161321 1_454
Br1 La0 3.161321 1_555
Br1 La1 3.161323 1_544
Br1 La5 3.161323 1_555
