# generated using pymatgen
data_MgMn3SnO8
_symmetry_space_group_name_H-M   'P 1'
_cell_length_a   6.19361980
_cell_length_b   6.19374953
_cell_length_c   6.01963034
_cell_angle_alpha   59.70297150
_cell_angle_beta   59.70506027
_cell_angle_gamma   57.26136341
_symmetry_Int_Tables_number   1
_chemical_formula_structural   MgMn3SnO8
_chemical_formula_sum   'Mg1 Mn3 Sn1 O8'
_cell_volume   158.95351654
_cell_formula_units_Z   1
loop_
 _symmetry_equiv_pos_site_id
 _symmetry_equiv_pos_as_xyz
  1  'x, y, z'
loop_
 _atom_site_type_symbol
 _atom_site_label
 _atom_site_symmetry_multiplicity
 _atom_site_fract_x
 _atom_site_fract_y
 _atom_site_fract_z
 _atom_site_occupancy
  Mg  Mg0  1  0.00000000  0.00000000  0.00000000  1
  Mn  Mn0  1  0.00000000  0.50000000  0.50000000  1
  Mn  Mn1  1  0.50000000  0.00000000  0.50000000  1
  Mn  Mn2  1  0.50000000  0.50000000  0.00000000  1
  Sn  Sn0  1  0.50000000  0.50000000  0.50000000  1
  O  O0  1  0.28131400  0.28141300  0.25771900  1
  O  O1  1  0.25698100  0.25698400  0.71174000  1
  O  O2  1  0.26974000  0.72749400  0.23185400  1
  O  O3  1  0.72748500  0.26968800  0.23191000  1
  O  O4  1  0.27251500  0.73031200  0.76809000  1
  O  O5  1  0.73026000  0.27250600  0.76814600  1
  O  O6  1  0.74301900  0.74301600  0.28826000  1
  O  O7  1  0.71868600  0.71858700  0.74228100  1
loop_
_geom_bond_atom_site_label_1
_geom_bond_atom_site_label_2
_geom_bond_distance
_geom_bond_site_symmetry_2
Mg0 O2 2.124512 1_545
Mg0 O5 2.124512 1_454
Mg0 O4 2.124605 1_544
Mg0 O3 2.124605 1_455
Mg0 O6 2.290161 1_445
Mg0 O1 2.290161 1_554
Mn0 O7 1.967962 1_455
Mn0 O0 1.967962 1_555
Mn0 O6 1.985779 1_455
Mn0 O1 1.985779 1_555
Mn0 O2 2.216451 1_555
Mn0 O5 2.216451 1_455
Mn1 O7 1.968321 1_545
Mn1 O0 1.968321 1_555
Mn1 O6 1.985879 1_545
Mn1 O1 1.985879 1_555
Mn1 O3 2.216169 1_555
Mn1 O4 2.216169 1_545
Mn2 O2 1.941580 1_555
Mn2 O5 1.941580 1_554
Mn2 O3 1.941690 1_555
Mn2 O4 1.941690 1_554
Mn2 O7 1.954110 1_554
Mn2 O0 1.954110 1_555
O1 Sn0 2.175979 1_555
O2 Sn0 2.116350 1_555
O3 Sn0 2.116412 1_555
O4 Sn0 2.116412 1_555
O5 Sn0 2.116350 1_555
O6 Sn0 2.175979 1_555
