# generated using pymatgen
data_MnNb3O6
_symmetry_space_group_name_H-M   'P 1'
_cell_length_a   6.62617830
_cell_length_b   7.09829662
_cell_length_c   12.38382394
_cell_angle_alpha   90.75481258
_cell_angle_beta   74.51230800
_cell_angle_gamma   62.17776585
_symmetry_Int_Tables_number   1
_chemical_formula_structural   MnNb3O6
_chemical_formula_sum   'Mn4 Nb12 O24'
_cell_volume   489.89683378
_cell_formula_units_Z   4
loop_
 _symmetry_equiv_pos_site_id
 _symmetry_equiv_pos_as_xyz
  1  'x, y, z'
loop_
 _atom_site_type_symbol
 _atom_site_label
 _atom_site_symmetry_multiplicity
 _atom_site_fract_x
 _atom_site_fract_y
 _atom_site_fract_z
 _atom_site_occupancy
  Mn  Mn0  1  0.25284300  0.49996800  0.49997500  1
  Mn  Mn1  1  0.74713700  0.00006800  0.00000400  1
  Mn  Mn2  1  0.25295500  0.99997600  0.99999600  1
  Mn  Mn3  1  0.74705000  0.50001200  0.49999700  1
  Nb  Nb0  1  0.19816600  0.74998800  0.25002500  1
  Nb  Nb1  1  0.19819800  0.24995600  0.75002900  1
  Nb  Nb2  1  0.80183500  0.75000600  0.24997700  1
  Nb  Nb3  1  0.80180300  0.25005200  0.74996900  1
  Nb  Nb4  1  0.22220200  0.30599100  0.24937100  1
  Nb  Nb5  1  0.22229600  0.80599400  0.74929700  1
  Nb  Nb6  1  0.77779700  0.19400000  0.25063700  1
  Nb  Nb7  1  0.77770800  0.69400800  0.75069500  1
  Nb  Nb8  1  0.77790800  0.97248400  0.47179400  1
  Nb  Nb9  1  0.77781800  0.47259000  0.97176600  1
  Nb  Nb10  1  0.22208200  0.52752800  0.02820500  1
  Nb  Nb11  1  0.22219400  0.02739500  0.52824100  1
  O  O0  1  0.85471500  0.21773200  0.07251000  1
  O  O1  1  0.85471200  0.71769900  0.57251300  1
  O  O2  1  0.14528600  0.28226700  0.42749400  1
  O  O3  1  0.14528900  0.78229900  0.92748500  1
  O  O4  1  0.34971300  0.22561800  0.07511500  1
  O  O5  1  0.34974300  0.72543400  0.57506900  1
  O  O6  1  0.65028000  0.27439100  0.42489200  1
  O  O7  1  0.65026800  0.77455300  0.92492700  1
  O  O8  1  0.41088000  0.64656700  0.08503100  1
  O  O9  1  0.41094200  0.14648400  0.58505400  1
  O  O10  1  0.14257000  0.85312000  0.41510600  1
  O  O11  1  0.14250700  0.35308300  0.91512300  1
  O  O12  1  0.58921200  0.04954900  0.21944300  1
  O  O13  1  0.58915300  0.54958900  0.71940900  1
  O  O14  1  0.85810700  0.45050700  0.28053300  1
  O  O15  1  0.85822900  0.95049000  0.78046500  1
  O  O16  1  0.58912000  0.85343700  0.41497100  1
  O  O17  1  0.58905900  0.35351300  0.91494800  1
  O  O18  1  0.85743200  0.64687600  0.08489700  1
  O  O19  1  0.85749400  0.14691500  0.58487900  1
  O  O20  1  0.41079000  0.45044500  0.28056200  1
  O  O21  1  0.41084700  0.95041400  0.78058900  1
  O  O22  1  0.14189500  0.04948600  0.21947100  1
  O  O23  1  0.14176600  0.54951600  0.71953600  1
loop_
_geom_bond_atom_site_label_1
_geom_bond_atom_site_label_2
_geom_bond_distance
_geom_bond_site_symmetry_2
Mn0 O2 2.243817 1_555
Mn0 O1 2.246545 1_455
Mn0 O5 2.253292 1_555
Mn0 O6 2.254007 1_555
Mn0 O10 2.586930 1_555
Mn0 O9 2.590128 1_555
Mn0 O20 2.591255 1_555
Mn0 O23 2.592834 1_555
Mn1 O0 2.243850 1_555
Mn1 O3 2.246667 1_644
Mn1 O7 2.253333 1_544
Mn1 O4 2.253945 1_555
Mn1 O18 2.587307 1_545
Mn1 O17 2.589752 1_554
Mn1 O12 2.591569 1_555
Mn1 O15 2.592561 1_544
Mn2 O3 2.244391 1_555
Mn2 O0 2.247085 1_466
Mn2 O7 2.253219 1_555
Mn2 O4 2.253804 1_566
Mn2 O11 2.586614 1_565
Mn2 O8 2.589352 1_556
Mn2 O21 2.591145 1_555
Mn2 O22 2.591809 1_566
Mn3 O1 2.244460 1_555
Mn3 O2 2.247044 1_655
Mn3 O5 2.253193 1_555
Mn3 O6 2.253653 1_555
Mn3 O19 2.586611 1_555
Mn3 O16 2.589385 1_555
Mn3 O13 2.591198 1_555
Mn3 O14 2.591679 1_555
Nb0 O8 2.038873 1_555
Nb0 O10 2.039007 1_555
Nb0 O20 2.039193 1_555
Nb0 O22 2.039206 1_565
Nb1 O9 2.038742 1_555
Nb1 O11 2.038990 1_555
Nb1 O23 2.039170 1_555
Nb1 O21 2.039339 1_545
Nb2 O16 2.038877 1_555
Nb2 O18 2.038990 1_555
Nb2 O12 2.039177 1_565
Nb2 O14 2.039218 1_555
Nb3 O17 2.038780 1_555
Nb3 O19 2.038962 1_555
Nb3 O15 2.039203 1_545
Nb3 O13 2.039315 1_555
Nb4 O14 2.050327 1_455
Nb4 O20 2.050746 1_555
Nb4 O4 2.059124 1_555
Nb4 O2 2.154844 1_555
Nb4 O22 2.174226 1_555
Nb4 O12 2.175673 1_555
Nb5 O15 2.050159 1_455
Nb5 O21 2.050770 1_555
Nb5 O5 2.058895 1_555
Nb5 O3 2.155576 1_555
Nb5 O23 2.174665 1_555
Nb5 O13 2.174968 1_555
Nb6 O22 2.050339 1_655
Nb6 O12 2.050725 1_555
Nb6 O6 2.059121 1_555
Nb6 O0 2.154903 1_555
Nb6 O14 2.174242 1_555
Nb6 O20 2.175671 1_555
Nb7 O23 2.050122 1_655
Nb7 O13 2.050762 1_555
Nb7 O7 2.058933 1_555
Nb7 O1 2.155499 1_555
Nb7 O15 2.174676 1_555
Nb7 O21 2.174978 1_555
Nb8 O16 2.053122 1_555
Nb8 O10 2.053442 1_655
Nb8 O6 2.061187 1_565
Nb8 O1 2.150539 1_555
Nb8 O19 2.174986 1_565
Nb8 O9 2.175970 1_565
Nb9 O17 2.053067 1_555
Nb9 O11 2.053446 1_655
Nb9 O7 2.061210 1_555
Nb9 O0 2.151124 1_556
Nb9 O18 2.174818 1_556
Nb9 O8 2.175859 1_556
Nb10 O8 2.053160 1_555
Nb10 O18 2.053388 1_455
Nb10 O4 2.061245 1_555
Nb10 O3 2.150474 1_554
Nb10 O11 2.174977 1_554
Nb10 O17 2.176011 1_554
Nb11 O9 2.053029 1_555
Nb11 O19 2.053497 1_455
Nb11 O5 2.061143 1_545
Nb11 O2 2.151221 1_555
Nb11 O10 2.174845 1_545
Nb11 O16 2.175820 1_545
