# generated using pymatgen
data_Na6Nb3Al5Si6(SO8)6
_symmetry_space_group_name_H-M   'P 1'
_cell_length_a   17.36965470
_cell_length_b   8.66290754
_cell_length_c   22.22267223
_cell_angle_alpha   89.86448323
_cell_angle_beta   90.21928901
_cell_angle_gamma   119.67887297
_symmetry_Int_Tables_number   1
_chemical_formula_structural   Na6Nb3Al5Si6(SO8)6
_chemical_formula_sum   'Na18 Nb9 Al15 Si18 S18 O144'
_cell_volume   2905.19163525
_cell_formula_units_Z   3
loop_
 _symmetry_equiv_pos_site_id
 _symmetry_equiv_pos_as_xyz
  1  'x, y, z'
loop_
 _atom_site_type_symbol
 _atom_site_label
 _atom_site_symmetry_multiplicity
 _atom_site_fract_x
 _atom_site_fract_y
 _atom_site_fract_z
 _atom_site_occupancy
  Na  Na0  1  0.48055906  0.67371713  0.91245773  1
  Na  Na1  1  0.16768839  0.31520269  0.91333758  1
  Na  Na2  1  0.48554197  0.30130995  0.41646258  1
  Na  Na3  1  0.97950310  0.29521322  0.41111627  1
  Na  Na4  1  0.16591240  0.02533378  0.41377090  1
  Na  Na5  1  0.66766393  0.02962827  0.41870976  1
  Na  Na6  1  0.98748225  0.97616769  0.49377038  1
  Na  Na7  1  0.49497602  0.98784694  0.49538877  1
  Na  Na8  1  0.99465927  0.99385945  0.99629981  1
  Na  Na9  1  0.50110716  0.00320441  0.99115985  1
  Na  Na10  1  0.33377380  0.32833214  0.82494771  1
  Na  Na11  1  0.83200437  0.33407185  0.82920164  1
  Na  Na12  1  0.33656275  0.33665598  0.33073429  1
  Na  Na13  1  0.83660089  0.33999217  0.33330474  1
  Na  Na14  1  0.15759330  0.65988365  0.16233448  1
  Na  Na15  1  0.66621858  0.65623834  0.16440952  1
  Na  Na16  1  0.16893440  0.67059547  0.66811951  1
  Na  Na17  1  0.66268965  0.65836613  0.66148551  1
  Nb  Nb0  1  0.00505850  0.99869597  0.64543293  1
  Nb  Nb1  1  0.50042344  0.00511294  0.64951815  1
  Nb  Nb2  1  0.00602818  0.00112278  0.14555254  1
  Nb  Nb3  1  0.50491459  0.01793189  0.14316709  1
  Nb  Nb4  1  0.83346504  0.33846584  0.97719503  1
  Nb  Nb5  1  0.15882449  0.67305342  0.31081713  1
  Nb  Nb6  1  0.66247611  0.65684859  0.31843252  1
  Nb  Nb7  1  0.16679768  0.65224054  0.80839234  1
  Nb  Nb8  1  0.66301229  0.67061323  0.80821329  1
  Al  Al0  1  0.99456525  0.99221863  0.35184169  1
  Al  Al1  1  0.49565509  0.00843708  0.36036680  1
  Al  Al2  1  0.00524278  0.00651520  0.85051292  1
  Al  Al3  1  0.49875850  0.98905848  0.85233541  1
  Al  Al4  1  0.33519590  0.33341082  0.69435099  1
  Al  Al5  1  0.83122360  0.34737133  0.68979987  1
  Al  Al6  1  0.33390746  0.32563650  0.19181604  1
  Al  Al7  1  0.84456454  0.35436949  0.18291046  1
  Al  Al8  1  0.33226175  0.33595866  0.98040605  1
  Al  Al9  1  0.33805250  0.33771934  0.47811643  1
  Al  Al10  1  0.83410017  0.33404513  0.47415163  1
  Al  Al11  1  0.15827992  0.64761536  0.01359218  1
  Al  Al12  1  0.66697529  0.66496386  0.01933429  1
  Al  Al13  1  0.16985110  0.67905831  0.51475471  1
  Al  Al14  1  0.66609342  0.67132099  0.50843471  1
  Si  Si0  1  0.14839419  0.02009663  0.25445362  1
  Si  Si1  1  0.99075800  0.28064144  0.25238290  1
  Si  Si2  1  0.49807799  0.29232633  0.25398580  1
  Si  Si3  1  0.14772758  0.28084849  0.75179431  1
  Si  Si4  1  0.64682074  0.27699224  0.75486749  1
  Si  Si5  1  0.99366139  0.70350881  0.75610104  1
  Si  Si6  1  0.49290728  0.70826063  0.75149800  1
  Si  Si7  1  0.35994923  0.01022021  0.75512102  1
  Si  Si8  1  0.98652147  0.62250466  0.08312342  1
  Si  Si9  1  0.69742277  0.35514599  0.08544266  1
  Si  Si10  1  0.31308129  0.67489336  0.92372984  1
  Si  Si11  1  0.02085702  0.36495723  0.91617517  1
  Si  Si12  1  0.66349543  0.95238228  0.92129680  1
  Si  Si13  1  0.31186843  0.95502782  0.42166984  1
  Si  Si14  1  0.81584546  0.95405930  0.41995742  1
  Si  Si15  1  0.66813551  0.37412587  0.42270242  1
  Si  Si16  1  0.01830646  0.67163610  0.42221493  1
  Si  Si17  1  0.51604322  0.67033593  0.42048442  1
  S  S0  1  0.64726728  0.00764437  0.25056609  1
  S  S1  1  0.35854998  0.70948062  0.24981503  1
  S  S2  1  0.85620642  0.70824880  0.25034013  1
  S  S3  1  0.85876643  0.00858588  0.74933221  1
  S  S4  1  0.47689230  0.34164699  0.58222584  1
  S  S5  1  0.97672784  0.34125888  0.58213434  1
  S  S6  1  0.19490537  0.04688570  0.58170267  1
  S  S7  1  0.69503267  0.04854235  0.58253286  1
  S  S8  1  0.32819856  0.60966616  0.58107165  1
  S  S9  1  0.82837610  0.61152609  0.58178416  1
  S  S10  1  0.47421069  0.60947104  0.08355610  1
  S  S11  1  0.32942432  0.05137411  0.08234881  1
  S  S12  1  0.82854116  0.03952744  0.08445697  1
  S  S13  1  0.19703924  0.34216750  0.08374679  1
  S  S14  1  0.81221274  0.67742992  0.91714193  1
  S  S15  1  0.52126674  0.37404451  0.92108443  1
  S  S16  1  0.16823869  0.95731740  0.92018853  1
  S  S17  1  0.17012548  0.38370431  0.42097047  1
  O  O0  1  0.09857993  0.03212647  0.31314359  1
  O  O1  1  0.60384806  0.02499206  0.30444886  1
  O  O2  1  0.41287620  0.79015447  0.30345889  1
  O  O3  1  0.90996333  0.79055576  0.30444072  1
  O  O4  1  0.48631211  0.16833842  0.31081667  1
  O  O5  1  0.98294346  0.16658401  0.31193136  1
  O  O6  1  0.10262555  0.16917822  0.81151529  1
  O  O7  1  0.59772010  0.15921098  0.81180520  1
  O  O8  1  0.48270883  0.78788076  0.81342136  1
  O  O9  1  0.97772257  0.80497312  0.81095434  1
  O  O10  1  0.42150279  0.03698613  0.81166522  1
  O  O11  1  0.91089128  0.03296002  0.80403643  1
  O  O12  1  0.40121168  0.96557560  0.69220987  1
  O  O13  1  0.89720411  0.97339842  0.69428858  1
  O  O14  1  0.08129231  0.19084569  0.69154595  1
  O  O15  1  0.58370141  0.20444549  0.69183121  1
  O  O16  1  0.00870722  0.83063522  0.69337085  1
  O  O17  1  0.51891167  0.83657767  0.69084166  1
  O  O18  1  0.39865332  0.82022721  0.19450736  1
  O  O19  1  0.89780439  0.81629054  0.19486110  1
  O  O20  1  0.00824062  0.18730080  0.19189443  1
  O  O21  1  0.51194193  0.19239052  0.19314310  1
  O  O22  1  0.08460961  0.96942658  0.19316714  1
  O  O23  1  0.58837535  0.97556415  0.19507636  1
  O  O24  1  0.43161878  0.35633956  0.63555722  1
  O  O25  1  0.93401520  0.36054553  0.63647410  1
  O  O26  1  0.24525594  0.13302780  0.63548317  1
  O  O27  1  0.74861273  0.13818658  0.63668157  1
  O  O28  1  0.31960802  0.50748081  0.63588747  1
  O  O29  1  0.82120675  0.51034448  0.63728235  1
  O  O30  1  0.43005711  0.50157234  0.13691056  1
  O  O31  1  0.93982847  0.50605084  0.14178736  1
  O  O32  1  0.32238120  0.13951313  0.13709876  1
  O  O33  1  0.81644799  0.12217329  0.13817459  1
  O  O34  1  0.24986859  0.35616883  0.13728944  1
  O  O35  1  0.75355040  0.36539612  0.14414528  1
  O  O36  1  0.23470585  0.30909398  0.02827465  1
  O  O37  1  0.73353491  0.30482687  0.02472442  1
  O  O38  1  0.42174961  0.52995316  0.02753401  1
  O  O39  1  0.91975178  0.52868109  0.02491718  1
  O  O40  1  0.34612172  0.16480077  0.02804088  1
  O  O41  1  0.84600445  0.14940742  0.02922370  1
  O  O42  1  0.23221644  0.15239848  0.52622084  1
  O  O43  1  0.73589490  0.15498959  0.52735990  1
  O  O44  1  0.33974201  0.52208998  0.52690535  1
  O  O45  1  0.84481337  0.53171034  0.52847481  1
  O  O46  1  0.42347148  0.31520243  0.52635351  1
  O  O47  1  0.92362337  0.31504526  0.52694895  1
  O  O48  1  0.26146521  0.69740390  0.98019560  1
  O  O49  1  0.76900748  0.69411539  0.97162947  1
  O  O50  1  0.08474618  0.44906538  0.97407573  1
  O  O51  1  0.57796030  0.46212316  0.97390605  1
  O  O52  1  0.15380003  0.84557908  0.97349813  1
  O  O53  1  0.64910999  0.81784782  0.97645852  1
  O  O54  1  0.26757535  0.82981778  0.47898496  1
  O  O55  1  0.76845899  0.82750086  0.47694005  1
  O  O56  1  0.15300027  0.46812898  0.47354376  1
  O  O57  1  0.64141982  0.46341905  0.47645239  1
  O  O58  1  0.08735281  0.70835632  0.47685743  1
  O  O59  1  0.58475584  0.71658378  0.47612749  1
  O  O60  1  0.06236763  0.62531315  0.36085301  1
  O  O61  1  0.56092467  0.61762590  0.36146160  1
  O  O62  1  0.24588563  0.86353268  0.36177887  1
  O  O63  1  0.74870953  0.87016955  0.35953097  1
  O  O64  1  0.18615171  0.48819774  0.36517556  1
  O  O65  1  0.68659560  0.49994041  0.36069341  1
  O  O66  1  0.06528420  0.49616523  0.85787412  1
  O  O67  1  0.55858469  0.48843977  0.86550114  1
  O  O68  1  0.18556613  0.88828288  0.86476413  1
  O  O69  1  0.67911359  0.85385526  0.86132250  1
  O  O70  1  0.24662972  0.62364776  0.86334724  1
  O  O71  1  0.75837309  0.64688820  0.86221457  1
  O  O72  1  0.01539272  0.85134086  0.40859579  1
  O  O73  1  0.51377441  0.84734356  0.40315684  1
  O  O74  1  0.41007390  0.98647410  0.41186232  1
  O  O75  1  0.91456746  0.98479308  0.40910037  1
  O  O76  1  0.08996043  0.20551563  0.41605068  1
  O  O77  1  0.58191725  0.18238699  0.40913955  1
  O  O78  1  0.01080172  0.16861323  0.90623489  1
  O  O79  1  0.51286192  0.19998180  0.91412241  1
  O  O80  1  0.08852964  0.98043504  0.91449800  1
  O  O81  1  0.57702573  0.97187823  0.91231007  1
  O  O82  1  0.41035815  0.84338547  0.91344017  1
  O  O83  1  0.90075569  0.83486123  0.91201185  1
  O  O84  1  0.48574031  0.17609602  0.58433045  1
  O  O85  1  0.98441252  0.17358587  0.58664523  1
  O  O86  1  0.10106383  0.02660558  0.58492642  1
  O  O87  1  0.60409717  0.03160815  0.58565154  1
  O  O88  1  0.40946382  0.79198368  0.58326239  1
  O  O89  1  0.90967373  0.79674409  0.58707596  1
  O  O90  1  0.48201238  0.79039205  0.08846952  1
  O  O91  1  0.98949061  0.81897109  0.08683074  1
  O  O92  1  0.41218628  0.03111993  0.08712311  1
  O  O93  1  0.90888186  0.01737668  0.08874399  1
  O  O94  1  0.10542200  0.17820533  0.08710914  1
  O  O95  1  0.59528291  0.16771599  0.09077433  1
  O  O96  1  0.34798371  0.17641033  0.73898044  1
  O  O97  1  0.84752870  0.16292550  0.73969276  1
  O  O98  1  0.24204596  0.30436316  0.73804007  1
  O  O99  1  0.74160804  0.29657395  0.73972009  1
  O  O100  1  0.41293663  0.51586841  0.73863463  1
  O  O101  1  0.91202271  0.51073093  0.74013311  1
  O  O102  1  0.34943952  0.53213522  0.24005091  1
  O  O103  1  0.84574844  0.52936750  0.24451525  1
  O  O104  1  0.41384729  0.31631162  0.24066260  1
  O  O105  1  0.90496252  0.30461338  0.24175524  1
  O  O106  1  0.24272933  0.18988519  0.24104438  1
  O  O107  1  0.73356395  0.16605235  0.24219355  1
  O  O108  1  0.32275421  0.49083802  0.92998112  1
  O  O109  1  0.82045324  0.51290924  0.91990046  1
  O  O110  1  0.43193854  0.36165994  0.92814060  1
  O  O111  1  0.92377063  0.34963198  0.92267501  1
  O  O112  1  0.24745590  0.14226216  0.92907217  1
  O  O113  1  0.75375511  0.14513798  0.92333738  1
  O  O114  1  0.31728386  0.15028218  0.42852940  1
  O  O115  1  0.82386369  0.14937485  0.42770114  1
  O  O116  1  0.24772253  0.35731046  0.42934464  1
  O  O117  1  0.75301687  0.34846395  0.42819588  1
  O  O118  1  0.42156634  0.48977868  0.42702977  1
  O  O119  1  0.92544618  0.49089586  0.42814193  1
  O  O120  1  0.18685928  0.49961374  0.07965136  1
  O  O121  1  0.67887467  0.51863052  0.07330610  1
  O  O122  1  0.08492324  0.65128064  0.07192971  1
  O  O123  1  0.56385563  0.63173149  0.07858811  1
  O  O124  1  0.25258765  0.87594355  0.07733035  1
  O  O125  1  0.74953453  0.86138256  0.07663700  1
  O  O126  1  0.18136620  0.86346158  0.57790919  1
  O  O127  1  0.68430940  0.86723240  0.57916423  1
  O  O128  1  0.24681098  0.62759919  0.57560183  1
  O  O129  1  0.74894357  0.63119002  0.57803536  1
  O  O130  1  0.06814786  0.49603911  0.57675933  1
  O  O131  1  0.56615944  0.50043924  0.57821358  1
  O  O132  1  0.15717507  0.83664147  0.25439474  1
  O  O133  1  0.65447960  0.84273097  0.25163822  1
  O  O134  1  0.26858209  0.68977100  0.25499337  1
  O  O135  1  0.76839978  0.69846905  0.25324364  1
  O  O136  1  0.08584572  0.47419288  0.25670229  1
  O  O137  1  0.58997503  0.48668027  0.25305978  1
  O  O138  1  0.15173380  0.47434655  0.75074424  1
  O  O139  1  0.66014877  0.48084458  0.76100893  1
  O  O140  1  0.08737946  0.70464474  0.75759035  1
  O  O141  1  0.58520285  0.68945590  0.75436744  1
  O  O142  1  0.26174162  0.83115931  0.75870325  1
  O  O143  1  0.76950369  0.84251863  0.75372276  1
loop_
_geom_bond_atom_site_label_1
_geom_bond_atom_site_label_2
_geom_bond_distance
_geom_bond_site_symmetry_2
Na0 O81 2.278889 1_555
Na0 O82 2.328708 1_555
Na0 O8 2.403541 1_555
Na0 O110 2.424791 1_555
Na0 O108 2.424807 1_555
Na0 O67 2.770325 1_555
Na0 O38 2.807031 1_556
Na0 O53 2.917138 1_555
Na1 O78 2.373667 1_555
Na1 O108 2.375542 1_555
Na1 O112 2.517115 1_555
Na1 O80 2.520467 1_545
Na1 O6 2.564323 1_555
Na1 O70 2.573603 1_555
Na1 O50 2.630379 1_555
Na1 O36 2.814151 1_556
Na2 O77 2.366607 1_555
Na2 O74 2.372195 1_545
Na2 O118 2.399192 1_555
Na2 O114 2.557919 1_555
Na2 O4 2.620544 1_555
Na2 O61 2.675913 1_555
Na2 O46 2.700115 1_555
Na2 O57 2.701129 1_555
Na3 O119 2.341022 1_555
Na3 O75 2.345684 1_545
Na3 O115 2.379824 1_555
Na3 O76 2.402331 1_655
Na3 O5 2.486384 1_555
Na3 O60 2.723610 1_655
Na3 O47 2.789983 1_555
Na3 O56 2.959340 1_655
Na4 O72 2.284007 1_545
Na4 O114 2.317119 1_555
Na4 O76 2.493895 1_555
Na4 O116 2.522652 1_555
Na4 O0 2.533659 1_555
Na4 O62 2.679053 1_545
Na4 O42 2.741953 1_555
Na4 O58 2.766509 1_545
Na5 O73 2.360847 1_545
Na5 O115 2.384712 1_555
Na5 O117 2.411761 1_555
Na5 O77 2.441878 1_555
Na5 O43 2.670150 1_555
Na5 O59 2.680777 1_545
Na5 O63 2.750981 1_545
Na5 O1 2.759093 1_555
Na6 O75 2.285787 1_555
Na6 O72 2.350094 1_655
Na6 O89 2.543198 1_555
Na6 O76 2.569830 1_665
Na6 O85 2.700985 1_565
Na6 O86 2.703087 1_665
Na7 O74 2.362654 1_555
Na7 O73 2.489905 1_555
Na7 O77 2.506193 1_565
Na7 O88 2.531663 1_555
Na7 O84 2.620796 1_565
Na7 O87 2.650045 1_565
Na8 O83 2.414571 1_555
Na8 O78 2.438440 1_665
Na8 O80 2.487589 1_655
Na8 O91 2.490618 1_556
Na8 O93 2.609168 1_566
Na8 O94 2.695765 1_666
Na9 O82 2.283382 1_545
Na9 O81 2.292873 1_545
Na9 O79 2.350030 1_555
Na9 O95 2.699254 1_556
Na9 O92 2.718342 1_556
Na9 O90 2.750675 1_546
Na10 O96 2.404141 1_555
Na10 O98 2.441799 1_555
Na10 O100 2.449996 1_555
Na10 O110 2.781232 1_555
Na10 O108 2.784312 1_555
Na10 O112 2.795726 1_555
Na11 O99 2.449322 1_555
Na11 O101 2.468198 1_555
Na11 O111 2.576224 1_555
Na11 O97 2.577106 1_555
Na11 O113 2.589410 1_555
Na11 O109 2.613168 1_555
Na12 O104 2.469043 1_555
Na12 O106 2.486093 1_555
Na12 O118 2.562943 1_555
Na12 O102 2.567307 1_555
Na12 O114 2.625936 1_555
Na12 O116 2.741638 1_555
Na13 O105 2.454548 1_555
Na13 O103 2.517709 1_555
Na13 O119 2.553922 1_555
Na13 O117 2.586431 1_555
Na13 O115 2.607995 1_555
Na13 O107 2.624744 1_555
Na14 O122 2.350149 1_555
Na14 O120 2.506072 1_555
Na14 O132 2.560486 1_555
Na14 O136 2.560748 1_555
Na14 O124 2.596739 1_555
Na14 O134 2.738877 1_555
Na15 O121 2.417141 1_555
Na15 O137 2.423308 1_555
Na15 O123 2.538875 1_555
Na15 O135 2.552397 1_555
Na15 O125 2.552555 1_555
Na15 O133 2.598711 1_555
Na16 O138 2.416074 1_555
Na16 O142 2.520626 1_555
Na16 O140 2.546583 1_555
Na16 O126 2.547001 1_555
Na16 O128 2.592190 1_555
Na16 O130 2.615176 1_555
Na17 O131 2.413317 1_555
Na17 O127 2.465429 1_555
Na17 O129 2.472198 1_555
Na17 O141 2.554867 1_555
Na17 O139 2.678787 1_555
Na17 O143 2.691477 1_555
Nb0 O16 1.828127 1_555
Nb0 O14 1.840999 1_565
Nb0 O86 2.064857 1_565
Nb0 O13 2.084289 1_455
Nb0 O89 2.147424 1_455
Nb0 O85 2.157734 1_465
Nb1 O12 1.847578 1_545
Nb1 O15 1.866047 1_555
Nb1 O17 1.879828 1_545
Nb1 O84 2.172262 1_555
Nb1 O87 2.217785 1_555
Nb1 O88 2.275818 1_545
Nb2 O22 1.848451 1_545
Nb2 O20 1.899865 1_555
Nb2 O91 1.957906 1_445
Nb2 O19 2.079663 1_445
Nb2 O94 2.098986 1_555
Nb2 O93 2.163106 1_455
Nb3 O21 1.832113 1_555
Nb3 O95 1.868968 1_555
Nb3 O23 2.019678 1_545
Nb3 O92 2.079569 1_555
Nb3 O18 2.125597 1_545
Nb3 O90 2.179985 1_545
Nb4 O39 1.907018 1_556
Nb4 O37 1.930040 1_556
Nb4 O111 1.949732 1_555
Nb4 O113 1.963379 1_555
Nb4 O109 2.069498 1_555
Nb4 O41 2.099766 1_556
Nb5 O60 1.881592 1_555
Nb5 O132 1.900740 1_555
Nb5 O62 1.953689 1_555
Nb5 O136 1.963772 1_555
Nb5 O134 2.222239 1_555
Nb5 O64 2.233423 1_555
Nb6 O65 1.860119 1_555
Nb6 O61 1.886546 1_555
Nb6 O63 1.936274 1_555
Nb6 O137 2.006804 1_555
Nb6 O135 2.230412 1_555
Nb6 O133 2.241471 1_555
Nb7 O138 1.921472 1_555
Nb7 O66 1.947629 1_555
Nb7 O70 1.949703 1_555
Nb7 O142 1.953445 1_555
Nb7 O140 1.997340 1_555
Nb7 O68 2.281608 1_555
Nb8 O141 1.868227 1_555
Nb8 O69 1.886192 1_555
Nb8 O139 1.931901 1_555
Nb8 O143 2.094353 1_555
Nb8 O71 2.132303 1_555
Nb8 O67 2.138899 1_555
Al0 O5 1.844793 1_565
Al0 O75 1.865122 1_555
Al0 O0 1.874884 1_665
Al0 O72 1.907199 1_655
Al0 O3 1.943096 1_555
Al0 O76 2.271189 1_665
Al1 O74 1.813124 1_545
Al1 O4 1.836212 1_555
Al1 O73 1.837711 1_545
Al1 O77 1.857404 1_555
Al1 O2 2.132459 1_545
Al1 O1 2.201488 1_555
Al2 O9 1.796438 1_445
Al2 O6 1.800823 1_555
Al2 O78 1.840548 1_555
Al2 O11 2.040289 1_455
Al2 O80 2.114743 1_545
Al2 O83 2.170187 1_445
Al3 O10 1.824999 1_565
Al3 O8 1.840382 1_555
Al3 O7 1.853418 1_565
Al3 O81 1.957608 1_555
Al3 O82 1.970569 1_555
Al3 O79 2.202286 1_565
Al4 O100 1.781509 1_555
Al4 O96 1.781542 1_555
Al4 O98 1.797636 1_555
Al4 O24 2.058564 1_555
Al4 O28 2.104174 1_555
Al4 O26 2.115392 1_555
Al5 O99 1.783225 1_555
Al5 O101 1.803378 1_555
Al5 O29 1.902496 1_555
Al5 O27 2.039226 1_555
Al5 O97 2.073638 1_555
Al5 O25 2.102133 1_555
Al6 O104 1.792197 1_555
Al6 O106 1.802999 1_555
Al6 O32 1.950930 1_555
Al6 O102 1.987660 1_555
Al6 O34 2.009061 1_555
Al6 O30 2.021638 1_555
Al7 O31 1.775540 1_555
Al7 O35 1.840970 1_555
Al7 O105 1.852312 1_555
Al7 O103 2.037550 1_555
Al7 O33 2.075063 1_555
Al7 O107 2.238045 1_555
Al8 O108 1.814946 1_555
Al8 O36 1.918135 1_556
Al8 O40 1.929020 1_556
Al8 O38 1.935524 1_556
Al8 O112 1.958399 1_555
Al8 O110 2.007141 1_555
Al9 O118 1.800445 1_555
Al9 O114 1.845635 1_555
Al9 O46 1.913619 1_555
Al9 O44 1.920659 1_555
Al9 O116 1.978657 1_555
Al9 O42 2.045470 1_555
Al10 O117 1.790176 1_555
Al10 O119 1.811095 1_555
Al10 O115 1.838801 1_555
Al10 O47 2.015013 1_555
Al10 O43 2.024962 1_555
Al10 O45 2.028953 1_555
Al11 O50 1.784386 1_554
Al11 O48 1.786699 1_554
Al11 O122 1.832523 1_555
Al11 O52 1.966048 1_554
Al11 O120 2.158963 1_555
Al11 O124 2.321407 1_555
Al12 O53 1.776793 1_554
Al12 O121 1.827195 1_555
Al12 O51 1.950245 1_554
Al12 O49 1.974455 1_554
Al12 O125 2.037951 1_555
Al12 O123 2.128529 1_555
Al13 O54 1.740381 1_555
Al13 O58 1.782410 1_555
Al13 O56 1.933782 1_555
Al13 O126 2.062441 1_555
Al13 O128 2.094637 1_555
Al13 O130 2.183524 1_555
Al14 O55 1.762000 1_555
Al14 O57 1.780982 1_555
Al14 O59 1.790171 1_555
Al14 O127 2.219925 1_555
Al14 O129 2.249440 1_555
Al14 O131 2.252594 1_555
O0 Si0 1.599740 1_555
O1 S0 1.464643 1_555
O2 S1 1.463642 1_555
O3 S2 1.470324 1_555
O4 Si2 1.602695 1_555
O5 Si1 1.615015 1_555
O6 Si3 1.600724 1_555
O7 Si4 1.584255 1_555
O8 Si6 1.590010 1_555
O9 Si5 1.607422 1_555
O10 Si7 1.587899 1_555
O11 S3 1.464805 1_555
O12 Si7 1.703683 1_565
O13 S3 1.498161 1_565
O14 Si3 1.683527 1_555
O15 Si4 1.693929 1_555
O16 Si5 1.713175 1_455
O17 Si6 1.660419 1_555
O18 S1 1.501826 1_555
O19 S2 1.499924 1_555
O20 Si1 1.674631 1_455
O21 Si2 1.688227 1_555
O22 Si0 1.668756 1_565
O23 S0 1.534497 1_565
O24 S4 1.464987 1_555
O25 S5 1.472120 1_555
O26 S6 1.449155 1_555
O27 S7 1.482348 1_555
O28 S8 1.468083 1_555
O29 S9 1.480828 1_555
O30 S10 1.469537 1_555
O31 Si8 1.602093 1_555
O32 S11 1.475239 1_555
O33 S12 1.461724 1_555
O34 S13 1.467865 1_555
O35 Si9 1.601634 1_555
O36 S13 1.491060 1_555
O37 Si9 1.638342 1_555
O38 S10 1.492836 1_555
O39 Si8 1.654941 1_555
O40 S11 1.490307 1_555
O41 S12 1.488646 1_555
O42 S6 1.479810 1_555
O43 S7 1.486803 1_555
O44 S8 1.490477 1_555
O45 S9 1.471399 1_555
O46 S4 1.495713 1_555
O47 S5 1.480408 1_555
O48 Si10 1.612238 1_555
O49 S14 1.471553 1_555
O50 Si11 1.615796 1_555
O51 S15 1.476866 1_555
O52 S16 1.469625 1_555
O53 Si12 1.621919 1_555
O54 Si13 1.601661 1_555
O55 Si14 1.609596 1_555
O56 S17 1.486768 1_555
O57 Si15 1.613855 1_555
O58 Si16 1.620787 1_555
O59 Si17 1.622202 1_555
O60 Si16 1.709078 1_555
O61 Si17 1.702887 1_555
O62 Si13 1.675382 1_555
O63 Si14 1.686598 1_555
O64 S17 1.477189 1_555
O65 Si15 1.685181 1_555
O66 Si11 1.642599 1_555
O67 S15 1.514001 1_555
O68 S16 1.466230 1_555
O69 Si12 1.678058 1_555
O70 Si10 1.677344 1_555
O71 S14 1.477250 1_555
O72 Si16 1.610390 1_555
O73 Si17 1.599399 1_555
O74 Si13 1.604321 1_555
O75 Si14 1.618728 1_555
O76 S17 1.484843 1_555
O77 Si15 1.621161 1_555
O78 Si11 1.636976 1_555
O79 S15 1.449798 1_555
O80 S16 1.498702 1_555
O81 Si12 1.604058 1_555
O82 Si10 1.611475 1_555
O83 S14 1.470311 1_555
O84 S4 1.516739 1_555
O85 S5 1.526085 1_555
O86 S6 1.552461 1_555
O87 S7 1.514110 1_555
O88 S8 1.510450 1_555
O89 S9 1.529142 1_555
O90 S10 1.509004 1_555
O91 Si8 1.679244 1_555
O92 S11 1.535287 1_555
O93 S12 1.502453 1_555
O94 S13 1.522350 1_555
O95 Si9 1.716398 1_555
O96 Si7 1.593065 1_555
O97 S3 1.458906 1_555
O98 Si3 1.578586 1_555
O99 Si4 1.606297 1_555
O100 Si6 1.579755 1_555
O101 Si5 1.606093 1_555
O102 S1 1.480873 1_555
O103 S2 1.474153 1_555
O104 Si2 1.602751 1_555
O105 Si1 1.619645 1_555
O106 Si0 1.597539 1_555
O107 S0 1.458956 1_555
O108 Si10 1.689341 1_555
O109 S14 1.502350 1_555
O110 S15 1.510132 1_555
O111 Si11 1.631673 1_655
O112 S16 1.521682 1_545
O113 Si12 1.629618 1_545
O114 Si13 1.654300 1_545
O115 Si14 1.636982 1_545
O116 S17 1.485473 1_555
O117 Si15 1.600352 1_555
O118 Si17 1.618517 1_555
O119 Si16 1.603197 1_655
O120 S13 1.462193 1_555
O121 Si9 1.622244 1_555
O122 Si8 1.620626 1_455
O123 S10 1.475739 1_555
O124 S11 1.447194 1_565
O125 S12 1.482325 1_565
O126 S6 1.489202 1_565
O127 S7 1.489311 1_565
O128 S8 1.501153 1_555
O129 S9 1.473557 1_555
O130 S5 1.491943 1_455
O131 S4 1.480776 1_555
O132 Si0 1.670043 1_565
O133 S0 1.494755 1_565
O134 S1 1.490476 1_555
O135 S2 1.486693 1_555
O136 Si1 1.675009 1_455
O137 Si2 1.649787 1_555
O138 Si3 1.643027 1_555
O139 Si4 1.669390 1_555
O140 Si5 1.623212 1_455
O141 Si6 1.690697 1_555
O142 Si7 1.643929 1_565
O143 S3 1.508226 1_565
