# generated using pymatgen
data_MgV4O5F7
_symmetry_space_group_name_H-M   'P 1'
_cell_length_a   5.30503694
_cell_length_b   5.44742218
_cell_length_c   8.88279491
_cell_angle_alpha   76.25408029
_cell_angle_beta   90.32898953
_cell_angle_gamma   60.49735384
_symmetry_Int_Tables_number   1
_chemical_formula_structural   MgV4O5F7
_chemical_formula_sum   'Mg1 V4 O5 F7'
_cell_volume   214.71713131
_cell_formula_units_Z   1
loop_
 _symmetry_equiv_pos_site_id
 _symmetry_equiv_pos_as_xyz
  1  'x, y, z'
loop_
 _atom_site_type_symbol
 _atom_site_label
 _atom_site_symmetry_multiplicity
 _atom_site_fract_x
 _atom_site_fract_y
 _atom_site_fract_z
 _atom_site_occupancy
  Mg  Mg0  1  0.05488700  0.90585100  0.34895700  1
  V  V0  1  0.71340700  0.53613400  0.23480700  1
  V  V1  1  0.49946000  0.97515400  0.51509500  1
  V  V2  1  0.29596600  0.48460400  0.74960100  1
  V  V3  1  0.04037100  0.00869200  0.00247800  1
  O  O0  1  0.95863600  0.22889700  0.14024600  1
  O  O1  1  0.49255500  0.76477900  0.37626500  1
  O  O2  1  0.41381100  0.76178900  0.06268900  1
  O  O3  1  0.42958400  0.70686200  0.67436400  1
  O  O4  1  0.46576300  0.20543400  0.63013100  1
  F  F0  1  0.95003000  0.73155300  0.55264700  1
  F  F1  1  0.95654000  0.74023900  0.19470300  1
  F  F2  1  0.59885600  0.21274100  0.33546900  1
  F  F3  1  0.59276900  0.22463200  0.92755600  1
  F  F4  1  0.03454300  0.75387700  0.86898500  1
  F  F5  1  0.06755500  0.28259400  0.82496800  1
  F  F6  1  0.06026600  0.22617000  0.43246600  1
loop_
_geom_bond_atom_site_label_1
_geom_bond_atom_site_label_2
_geom_bond_distance
_geom_bond_site_symmetry_2
Mg0 O1 2.046439 1_555
Mg0 O0 2.085247 1_465
O0 V3 1.820978 1_655
O0 V0 1.932676 1_555
O1 V1 1.883584 1_555
O1 V0 1.956098 1_555
O2 V3 1.743965 1_565
O2 V0 1.878646 1_555
O3 V2 1.697404 1_555
O3 V1 1.957531 1_555
O4 V1 1.743593 1_545
O4 V2 1.918080 1_555
F0 Mg0 2.049387 1_655
F0 V1 2.059627 1_555
F0 V2 2.156731 1_655
F1 Mg0 2.001600 1_655
F1 V0 2.063078 1_555
F1 V3 2.171286 1_665
F2 V1 2.049247 1_545
F2 Mg0 2.140089 1_645
F2 V0 2.141104 1_555
F3 V2 1.922192 1_555
F3 V3 2.079373 1_656
F4 V2 1.987984 1_555
F4 V3 2.039095 1_566
F5 V3 1.956980 1_556
F5 V2 2.024838 1_555
F6 V1 2.050020 1_545
F6 Mg0 2.063908 1_545
F6 V0 2.193981 1_455
