# generated using pymatgen
data_Na2La3NbSi2(SO6)4
_symmetry_space_group_name_H-M   'P 1'
_cell_length_a   9.36521015
_cell_length_b   9.37509486
_cell_length_c   24.41688862
_cell_angle_alpha   90.78603682
_cell_angle_beta   89.82159444
_cell_angle_gamma   120.00088111
_symmetry_Int_Tables_number   1
_chemical_formula_structural   Na2La3NbSi2(SO6)4
_chemical_formula_sum   'Na6 La9 Nb3 Si6 S12 O72'
_cell_volume   1856.37350917
_cell_formula_units_Z   3
loop_
 _symmetry_equiv_pos_site_id
 _symmetry_equiv_pos_as_xyz
  1  'x, y, z'
loop_
 _atom_site_type_symbol
 _atom_site_label
 _atom_site_symmetry_multiplicity
 _atom_site_fract_x
 _atom_site_fract_y
 _atom_site_fract_z
 _atom_site_occupancy
  Na  Na0  1  0.00183830  0.96901776  0.49847488  1
  Na  Na1  1  0.99586834  0.95304829  0.99713664  1
  Na  Na2  1  0.63728041  0.32350380  0.83889344  1
  Na  Na3  1  0.71139418  0.34581926  0.32901851  1
  Na  Na4  1  0.29223072  0.64987910  0.15566115  1
  Na  Na5  1  0.32315488  0.64624105  0.68082080  1
  La  La0  1  0.99698518  0.99592432  0.34950441  1
  La  La1  1  0.01533247  0.00143287  0.85411450  1
  La  La2  1  0.01683023  0.02241700  0.65963497  1
  La  La3  1  0.99635942  0.99763058  0.14497962  1
  La  La4  1  0.65567830  0.33651665  0.69009944  1
  La  La5  1  0.68730073  0.34372559  0.18655503  1
  La  La6  1  0.68238201  0.34767904  0.47427578  1
  La  La7  1  0.32876784  0.67376083  0.01813100  1
  La  La8  1  0.32134050  0.66638857  0.51908391  1
  Nb  Nb0  1  0.66657475  0.34641634  0.97749911  1
  Nb  Nb1  1  0.31271686  0.65647238  0.31487341  1
  Nb  Nb2  1  0.34784064  0.66854234  0.82632784  1
  Si  Si0  1  0.00338484  0.29908455  0.25334036  1
  Si  Si1  1  0.30587799  0.32608764  0.75506713  1
  Si  Si2  1  0.95325675  0.63130695  0.07994831  1
  Si  Si3  1  0.62951715  0.66058252  0.92171487  1
  Si  Si4  1  0.35729090  0.97594427  0.91880017  1
  Si  Si5  1  0.03546893  0.66673928  0.41449577  1
  S  S0  1  0.30515631  0.98153872  0.25381405  1
  S  S1  1  0.67237049  0.69489040  0.25376077  1
  S  S2  1  0.02330959  0.69685976  0.75222350  1
  S  S3  1  0.67693653  0.98018737  0.75520018  1
  S  S4  1  0.96253745  0.32358565  0.58438160  1
  S  S5  1  0.36256637  0.03859411  0.58198135  1
  S  S6  1  0.67539603  0.64414630  0.58346391  1
  S  S7  1  0.67780058  0.05455196  0.07774260  1
  S  S8  1  0.37975280  0.32162974  0.07766024  1
  S  S9  1  0.02616355  0.38606919  0.91362753  1
  S  S10  1  0.61346183  0.95293621  0.41195252  1
  S  S11  1  0.34287984  0.38701867  0.41037484  1
  O  O0  1  0.22446419  0.99957323  0.30289140  1
  O  O1  1  0.77956157  0.77022617  0.30211623  1
  O  O2  1  0.99244478  0.19705183  0.30702476  1
  O  O3  1  0.20838618  0.19797841  0.80254242  1
  O  O4  1  0.98837190  0.77106204  0.79996541  1
  O  O5  1  0.78432275  0.00617921  0.80222595  1
  O  O6  1  0.74612887  0.95407498  0.70348626  1
  O  O7  1  0.20528386  0.25538216  0.69618689  1
  O  O8  1  0.03959597  0.79167596  0.70153459  1
  O  O9  1  0.74681353  0.79089717  0.20391605  1
  O  O10  1  0.03151729  0.22128614  0.19706735  1
  O  O11  1  0.20533350  0.94948558  0.20389744  1
  O  O12  1  0.87302690  0.32833278  0.63370054  1
  O  O13  1  0.45202111  0.12862538  0.63242552  1
  O  O14  1  0.66971042  0.54890258  0.63237604  1
  O  O15  1  0.85211741  0.54019620  0.13448348  1
  O  O16  1  0.66912002  0.13107383  0.13000326  1
  O  O17  1  0.46654272  0.32123574  0.12707652  1
  O  O18  1  0.47711032  0.31940505  0.02662884  1
  O  O19  1  0.83440458  0.50925602  0.02408585  1
  O  O20  1  0.67237997  0.15021844  0.02981862  1
  O  O21  1  0.45254232  0.12792018  0.53218764  1
  O  O22  1  0.67874898  0.55492246  0.53249214  1
  O  O23  1  0.87367039  0.32289122  0.53360611  1
  O  O24  1  0.54050720  0.67322628  0.97486365  1
  O  O25  1  0.11475739  0.44759547  0.96563302  1
  O  O26  1  0.32001499  0.86661540  0.97198831  1
  O  O27  1  0.53559115  0.86924807  0.46369274  1
  O  O28  1  0.34244034  0.46811548  0.46252127  1
  O  O29  1  0.12886125  0.66431554  0.46987365  1
  O  O30  1  0.15724109  0.66562269  0.36100710  1
  O  O31  1  0.51546909  0.85083917  0.36372064  1
  O  O32  1  0.34416562  0.49096521  0.36301688  1
  O  O33  1  0.12902531  0.49992512  0.86711392  1
  O  O34  1  0.37216410  0.86247317  0.86472853  1
  O  O35  1  0.49662234  0.63359511  0.86717109  1
  O  O36  1  0.01885493  0.82981831  0.41451273  1
  O  O37  1  0.78182033  0.97780238  0.41117268  1
  O  O38  1  0.19587295  0.22352163  0.40833890  1
  O  O39  1  0.99252886  0.21865348  0.90331526  1
  O  O40  1  0.21229105  0.01716237  0.90908244  1
  O  O41  1  0.81104388  0.80793705  0.91069298  1
  O  O42  1  0.97655085  0.17214446  0.58351234  1
  O  O43  1  0.19434838  0.01961139  0.58172989  1
  O  O44  1  0.82580619  0.80945727  0.58461373  1
  O  O45  1  0.96541262  0.81164256  0.07638730  1
  O  O46  1  0.83474594  0.05006879  0.07549694  1
  O  O47  1  0.21565749  0.17074101  0.07389014  1
  O  O48  1  0.64753807  0.12150787  0.75000626  1
  O  O49  1  0.49707969  0.36344497  0.75140924  1
  O  O50  1  0.88506859  0.52396347  0.74589251  1
  O  O51  1  0.63569418  0.52200131  0.24919742  1
  O  O52  1  0.85840752  0.34582920  0.25333251  1
  O  O53  1  0.47297371  0.12409223  0.24966466  1
  O  O54  1  0.63564868  0.48207757  0.92663287  1
  O  O55  1  0.86648391  0.38798508  0.91482976  1
  O  O56  1  0.53676391  0.15460415  0.92691845  1
  O  O57  1  0.61965844  0.11519515  0.40952829  1
  O  O58  1  0.49536133  0.37553771  0.40602167  1
  O  O59  1  0.85888839  0.49439157  0.40787596  1
  O  O60  1  0.36453696  0.47103289  0.07716470  1
  O  O61  1  0.13023831  0.63943430  0.08216259  1
  O  O62  1  0.53594534  0.88393460  0.07803988  1
  O  O63  1  0.34758624  0.87274261  0.58414673  1
  O  O64  1  0.52449486  0.65938170  0.58358736  1
  O  O65  1  0.13122953  0.47218592  0.58567320  1
  O  O66  1  0.32389354  0.82898724  0.26164822  1
  O  O67  1  0.51094985  0.69042351  0.26338219  1
  O  O68  1  0.17827302  0.49070602  0.26616416  1
  O  O69  1  0.31361878  0.50651447  0.76879383  1
  O  O70  1  0.17992093  0.69370520  0.76017640  1
  O  O71  1  0.51132964  0.82520198  0.76330160  1
loop_
_geom_bond_atom_site_label_1
_geom_bond_atom_site_label_2
_geom_bond_distance
_geom_bond_site_symmetry_2
Na0 O36 2.462492 1_555
Na0 O43 2.597885 1_565
Na0 O44 2.641535 1_455
Na0 O42 2.886736 1_465
Na0 O37 2.999716 1_455
Na0 O38 3.101949 1_565
Na1 O45 2.296098 1_556
Na1 O41 2.625063 1_555
Na1 O47 2.762674 1_666
Na1 O40 2.807478 1_665
Na1 O46 2.841096 1_566
Na2 O56 2.569648 1_555
Na2 O54 2.595193 1_555
Na2 O49 2.637836 1_555
Na2 O55 2.665941 1_555
Na2 O48 2.893738 1_555
Na3 O52 2.301044 1_555
Na3 O59 2.361025 1_555
Na3 O57 2.743310 1_555
Na3 O58 2.869084 1_555
Na3 O51 2.880499 1_555
Na3 O53 2.887167 1_555
Na4 O61 2.322788 1_555
Na4 O60 2.825341 1_555
Na4 O62 2.948760 1_555
Na4 O66 2.998701 1_555
Na4 O68 3.024186 1_555
Na5 O69 2.509379 1_555
Na5 O70 2.511741 1_555
Na5 O71 2.636113 1_555
Na5 O65 2.877438 1_555
Na5 O64 2.992492 1_555
La0 O2 2.183392 1_565
La0 O36 2.318477 1_655
La0 O1 2.366659 1_555
La0 O0 2.397538 1_655
La0 O37 2.449977 1_555
La0 O38 2.458460 1_665
La1 O40 2.227884 1_555
La1 O3 2.228837 1_555
La1 O41 2.332624 1_445
La1 O4 2.419659 1_445
La1 O39 2.449936 1_455
La1 O5 2.530333 1_455
La2 O7 2.187038 1_555
La2 O42 2.484524 1_455
La2 O8 2.508969 1_545
La2 O6 2.522222 1_445
La2 O43 2.530930 1_555
La2 O44 2.624921 1_445
La3 O45 2.312327 1_555
La3 O10 2.315493 1_665
La3 O46 2.488726 1_565
La3 O47 2.566456 1_665
La3 O9 2.610551 1_555
La3 O11 2.649941 1_655
La4 O49 2.204912 1_555
La4 O13 2.375595 1_555
La4 O50 2.395075 1_555
La4 O14 2.404695 1_555
La4 O48 2.476914 1_555
La4 O12 2.486242 1_555
La5 O15 2.144904 1_555
La5 O52 2.282663 1_555
La5 O16 2.344502 1_555
La5 O17 2.449955 1_555
La5 O51 2.469721 1_555
La5 O53 2.564742 1_555
La6 O59 2.241351 1_555
La6 O22 2.405558 1_555
La6 O23 2.409079 1_555
La6 O57 2.495151 1_555
La6 O58 2.530001 1_555
La6 O21 2.550205 1_555
La7 O26 2.179388 1_554
La7 O24 2.246128 1_554
La7 O61 2.324259 1_555
La7 O25 2.418172 1_554
La7 O62 2.429452 1_555
La7 O60 2.552846 1_555
La8 O29 2.161328 1_555
La8 O28 2.386812 1_555
La8 O27 2.389509 1_555
La8 O63 2.401953 1_555
La8 O65 2.439233 1_555
La8 O64 2.500233 1_555
Nb0 O54 1.912579 1_555
Nb0 O19 1.912821 1_556
Nb0 O56 1.999789 1_555
Nb0 O18 2.048730 1_556
Nb0 O20 2.276645 1_556
Nb0 O55 2.295070 1_555
Nb1 O68 1.848460 1_555
Nb1 O30 1.873071 1_555
Nb1 O66 2.050177 1_555
Nb1 O32 2.094132 1_555
Nb1 O67 2.129340 1_555
Nb1 O31 2.200640 1_555
Nb2 O35 1.875503 1_555
Nb2 O34 1.943446 1_555
Nb2 O69 1.959854 1_555
Nb2 O33 2.116851 1_555
Nb2 O71 2.160588 1_555
Nb2 O70 2.352639 1_555
O0 S0 1.467039 1_555
O1 S1 1.475154 1_555
O2 Si0 1.606016 1_655
O3 Si1 1.598390 1_555
O4 S2 1.467266 1_655
O5 S3 1.464124 1_545
O6 S3 1.489728 1_555
O7 Si1 1.658799 1_555
O8 S2 1.496218 1_555
O9 S1 1.474669 1_555
O10 Si0 1.628410 1_555
O11 S0 1.471691 1_555
O12 S4 1.477968 1_555
O13 S5 1.483946 1_555
O14 S6 1.485855 1_555
O15 Si2 1.616833 1_555
O16 S7 1.477199 1_555
O17 S8 1.458000 1_555
O18 S8 1.547766 1_555
O19 Si2 1.761152 1_555
O20 S7 1.500311 1_555
O21 S5 1.485064 1_555
O22 S6 1.499036 1_555
O23 S4 1.493498 1_555
O24 Si3 1.575084 1_555
O25 S9 1.463356 1_555
O26 Si4 1.592136 1_555
O27 S10 1.480775 1_555
O28 S11 1.475049 1_555
O29 Si5 1.619233 1_555
O30 Si5 1.734551 1_555
O31 S10 1.497553 1_555
O32 S11 1.518557 1_555
O33 S9 1.534721 1_555
O34 Si4 1.732821 1_555
O35 Si3 1.752955 1_555
O36 Si5 1.612315 1_555
O37 S10 1.474140 1_555
O38 S11 1.461296 1_555
O39 S9 1.456472 1_655
O40 Si4 1.605909 1_545
O41 Si3 1.590516 1_555
O42 S4 1.489606 1_555
O43 S5 1.494404 1_555
O44 S6 1.484186 1_555
O45 Si2 1.640232 1_555
O46 S7 1.492105 1_555
O47 S8 1.481414 1_555
O48 S3 1.488905 1_545
O49 Si1 1.646133 1_555
O50 S2 1.491037 1_655
O51 S1 1.481921 1_555
O52 Si0 1.621896 1_655
O53 S0 1.472643 1_545
O54 Si3 1.708795 1_555
O55 S9 1.504686 1_655
O56 Si4 1.687449 1_545
O57 S10 1.495014 1_545
O58 S11 1.488146 1_555
O59 Si5 1.641348 1_655
O60 S8 1.477295 1_555
O61 Si2 1.621754 1_455
O62 S7 1.482814 1_565
O63 S5 1.491367 1_565
O64 S6 1.489774 1_555
O65 S4 1.495270 1_455
O66 S0 1.539967 1_555
O67 S1 1.508988 1_555
O68 Si0 1.747356 1_555
O69 Si1 1.685465 1_555
O70 S2 1.495023 1_555
O71 S3 1.519264 1_555
