# generated using pymatgen
data_K2Na2MgNb2(OF5)2
_symmetry_space_group_name_H-M   'P 1'
_cell_length_a   6.38222009
_cell_length_b   6.38222009
_cell_length_c   9.18565088
_cell_angle_alpha   89.85796054
_cell_angle_beta   89.85796054
_cell_angle_gamma   98.56195815
_symmetry_Int_Tables_number   1
_chemical_formula_structural   K2Na2MgNb2(OF5)2
_chemical_formula_sum   'K2 Na2 Mg1 Nb2 O2 F10'
_cell_volume   369.98418701
_cell_formula_units_Z   1
loop_
 _symmetry_equiv_pos_site_id
 _symmetry_equiv_pos_as_xyz
  1  'x, y, z'
loop_
 _atom_site_type_symbol
 _atom_site_label
 _atom_site_symmetry_multiplicity
 _atom_site_fract_x
 _atom_site_fract_y
 _atom_site_fract_z
 _atom_site_occupancy
  K  K0  1  0.32006035  0.67993965  0.50000000  1
  K  K1  1  0.67993965  0.32006035  0.50000000  1
  Na  Na0  1  0.74543079  0.74543079  0.79055328  1
  Na  Na1  1  0.25456921  0.25456921  0.20944672  1
  Mg  Mg0  1  -0.00000000  0.00000000  0.50000000  1
  Nb  Nb0  1  0.74732367  0.74732367  0.22466365  1
  Nb  Nb1  1  0.25267633  0.25267633  0.77533635  1
  O  O0  1  0.75173155  0.75173155  0.03320134  1
  O  O1  1  0.24826845  0.24826845  0.96679866  1
  F  F0  1  0.77396917  0.77396917  0.50552217  1
  F  F1  1  0.22603083  0.22603083  0.49447783  1
  F  F2  1  0.95619533  0.54769001  0.29907444  1
  F  F3  1  0.50718815  0.50718815  0.28689358  1
  F  F4  1  0.99572918  0.99572918  0.29128549  1
  F  F5  1  0.54769001  0.95619533  0.29907444  1
  F  F6  1  0.04380467  0.45230999  0.70092556  1
  F  F7  1  0.49281185  0.49281185  0.71310642  1
  F  F8  1  0.00427082  0.00427082  0.70871451  1
  F  F9  1  0.45230999  0.04380467  0.70092556  1
loop_
_geom_bond_atom_site_label_1
_geom_bond_atom_site_label_2
_geom_bond_distance
_geom_bond_site_symmetry_2
Na0 O0 2.229697 1_556
Na1 O1 2.229697 1_554
Nb0 O0 1.758949 1_555
Nb1 O1 1.758949 1_555
F0 Mg0 1.882623 1_665
F0 Nb0 2.590231 1_555
F0 Na0 2.628059 1_555
F0 K1 2.870233 1_555
F0 K0 2.870233 1_555
F1 Mg0 1.882623 1_555
F1 Nb1 2.590231 1_555
F1 Na1 2.628059 1_555
F1 K1 2.870233 1_555
F1 K0 2.870233 1_555
F2 Nb0 2.091298 1_555
F2 K1 2.798826 1_555
F2 K0 2.992830 1_655
F3 Nb0 2.077592 1_555
F3 Na1 2.223127 1_555
F3 K0 2.620113 1_555
F3 K1 2.620113 1_555
F4 Mg0 1.917644 1_665
F4 Nb0 2.159301 1_555
F4 Na1 2.279968 1_665
F5 Nb0 2.091298 1_555
F5 K0 2.798826 1_555
F5 K1 2.992830 1_565
F6 Nb1 2.091298 1_555
F6 K0 2.798826 1_555
F6 K1 2.992830 1_455
F7 Nb1 2.077592 1_555
F7 Na0 2.223127 1_555
F7 K0 2.620113 1_555
F7 K1 2.620113 1_555
F8 Mg0 1.917644 1_555
F8 Nb1 2.159301 1_555
F8 Na0 2.279968 1_445
F9 Nb1 2.091298 1_555
F9 K1 2.798826 1_555
F9 K0 2.992830 1_545
