# generated using pymatgen
data_Na3YSiSn(PO6)2
_symmetry_space_group_name_H-M   'P 1'
_cell_length_a   15.92433329
_cell_length_b   9.26786213
_cell_length_c   9.33859245
_cell_angle_alpha   90.00000000
_cell_angle_beta   125.42278256
_cell_angle_gamma   90.00000000
_symmetry_Int_Tables_number   1
_chemical_formula_structural   Na3YSiSn(PO6)2
_chemical_formula_sum   'Na12 Y4 Si4 Sn4 P8 O48'
_cell_volume   1123.11744593
_cell_formula_units_Z   4
loop_
 _symmetry_equiv_pos_site_id
 _symmetry_equiv_pos_as_xyz
  1  'x, y, z'
loop_
 _atom_site_type_symbol
 _atom_site_label
 _atom_site_symmetry_multiplicity
 _atom_site_fract_x
 _atom_site_fract_y
 _atom_site_fract_z
 _atom_site_occupancy
  Na  Na0  1  0.25285380  0.72786907  0.00346276  1
  Na  Na1  1  0.75285380  0.77213093  0.50346276  1
  Na  Na2  1  0.75285380  0.22786907  0.00346276  1
  Na  Na3  1  0.25285380  0.27213093  0.50346276  1
  Na  Na4  1  0.50738615  0.08575793  0.76257362  1
  Na  Na5  1  0.50738615  0.91424207  0.26257362  1
  Na  Na6  1  0.00738615  0.58575793  0.76257362  1
  Na  Na7  1  0.00738615  0.41424207  0.26257362  1
  Na  Na8  1  0.18028232  0.92105663  0.29853500  1
  Na  Na9  1  0.18028232  0.07894337  0.79853500  1
  Na  Na10  1  0.68028232  0.42105663  0.29853500  1
  Na  Na11  1  0.68028232  0.57894337  0.79853500  1
  Y  Y0  1  0.10550506  0.74649492  0.56536587  1
  Y  Y1  1  0.10550506  0.25350508  0.06536587  1
  Y  Y2  1  0.60550506  0.24649492  0.56536587  1
  Y  Y3  1  0.60550506  0.75350508  0.06536587  1
  Si  Si0  1  0.65066946  0.89031306  0.74747438  1
  Si  Si1  1  0.65066946  0.10968694  0.24747438  1
  Si  Si2  1  0.15066946  0.39031306  0.74747438  1
  Si  Si3  1  0.15066946  0.60968694  0.24747438  1
  Sn  Sn0  1  0.89909019  0.75757467  0.94308940  1
  Sn  Sn1  1  0.89909019  0.24242533  0.44308940  1
  Sn  Sn2  1  0.39909019  0.25757467  0.94308940  1
  Sn  Sn3  1  0.39909019  0.74242533  0.44308940  1
  P  P0  1  0.99403631  0.95502784  0.75233834  1
  P  P1  1  0.99403631  0.04497216  0.25233834  1
  P  P2  1  0.49403631  0.45502784  0.75233834  1
  P  P3  1  0.49403631  0.54497216  0.25233834  1
  P  P4  1  0.35269176  0.90952643  0.75198133  1
  P  P5  1  0.35269176  0.09047357  0.25198133  1
  P  P6  1  0.85269176  0.40952643  0.75198133  1
  P  P7  1  0.85269176  0.59047357  0.25198133  1
  O  O0  1  0.15405542  0.56493215  0.75128774  1
  O  O1  1  0.85253189  0.58003608  0.75369120  1
  O  O2  1  0.85253189  0.41996392  0.25369120  1
  O  O3  1  0.15405542  0.43506785  0.25128774  1
  O  O4  1  0.65405542  0.06493215  0.75128774  1
  O  O5  1  0.35253189  0.08003608  0.75369120  1
  O  O6  1  0.35253189  0.91996392  0.25369120  1
  O  O7  1  0.65405542  0.93506785  0.25128774  1
  O  O8  1  0.43147054  0.55209054  0.58393272  1
  O  O9  1  0.55635977  0.54524258  0.91864820  1
  O  O10  1  0.55635977  0.45475742  0.41864820  1
  O  O11  1  0.43147054  0.44790946  0.08393272  1
  O  O12  1  0.93147054  0.05209054  0.58393272  1
  O  O13  1  0.05635977  0.04524258  0.91864820  1
  O  O14  1  0.05635977  0.95475742  0.41864820  1
  O  O15  1  0.93147054  0.94790946  0.08393272  1
  O  O16  1  0.25923603  0.85767742  0.74629489  1
  O  O17  1  0.74679901  0.80665253  0.75812068  1
  O  O18  1  0.74679901  0.19334747  0.25812068  1
  O  O19  1  0.25923603  0.14232258  0.24629489  1
  O  O20  1  0.75923603  0.35767742  0.74629489  1
  O  O21  1  0.24679901  0.30665253  0.75812068  1
  O  O22  1  0.24679901  0.69334747  0.25812068  1
  O  O23  1  0.75923603  0.64232258  0.24629489  1
  O  O24  1  0.34872688  0.87193036  0.58230267  1
  O  O25  1  0.64670741  0.83633711  0.90618015  1
  O  O26  1  0.64670741  0.16366289  0.40618015  1
  O  O27  1  0.34872688  0.12806964  0.08230267  1
  O  O28  1  0.84872688  0.37193036  0.58230267  1
  O  O29  1  0.14670741  0.33633711  0.90618015  1
  O  O30  1  0.14670741  0.66366289  0.40618015  1
  O  O31  1  0.84872688  0.62806964  0.08230267  1
  O  O32  1  0.45069821  0.85289861  0.91743741  1
  O  O33  1  0.54420832  0.82473152  0.56058103  1
  O  O34  1  0.54420832  0.17526848  0.06058103  1
  O  O35  1  0.45069821  0.14710139  0.41743741  1
  O  O36  1  0.95069821  0.35289861  0.91743741  1
  O  O37  1  0.04420832  0.32473152  0.56058103  1
  O  O38  1  0.04420832  0.67526848  0.06058103  1
  O  O39  1  0.95069821  0.64710139  0.41743741  1
  O  O40  1  0.07160273  0.85967316  0.74567206  1
  O  O41  1  0.91508874  0.85342747  0.75103052  1
  O  O42  1  0.91508874  0.14657253  0.25103052  1
  O  O43  1  0.07160273  0.14032684  0.24567206  1
  O  O44  1  0.57160273  0.35967316  0.74567206  1
  O  O45  1  0.41508874  0.35342747  0.75103052  1
  O  O46  1  0.41508874  0.64657253  0.25103052  1
  O  O47  1  0.57160273  0.64032684  0.24567206  1
loop_
_geom_bond_atom_site_label_1
_geom_bond_atom_site_label_2
_geom_bond_distance
_geom_bond_site_symmetry_2
Na0 O46 2.379774 1_555
Na0 O0 2.450816 1_554
Na0 O22 2.456226 1_555
Na0 O6 2.617223 1_555
Na0 O16 2.740110 1_554
Na0 O40 2.750223 1_554
Na1 O41 2.379774 1_555
Na1 O7 2.450816 1_555
Na1 O17 2.456226 1_555
Na1 O1 2.617223 1_555
Na1 O23 2.740110 1_555
Na1 O47 2.750223 1_555
Na2 O42 2.379774 1_555
Na2 O4 2.450816 1_554
Na2 O18 2.456226 1_555
Na2 O2 2.617223 1_555
Na2 O20 2.740110 1_554
Na2 O44 2.750223 1_554
Na3 O45 2.379774 1_555
Na3 O3 2.450816 1_555
Na3 O21 2.456226 1_555
Na3 O5 2.617223 1_555
Na3 O19 2.740110 1_555
Na3 O43 2.750223 1_555
Na4 O4 2.405990 1_555
Na4 O5 2.419399 1_555
Na4 O34 2.623983 1_556
Na4 O44 2.775297 1_555
Na4 O45 2.853452 1_555
Na4 O35 2.855457 1_555
Na4 O24 2.866040 1_545
Na4 O25 2.935156 1_545
Na5 O7 2.405990 1_555
Na5 O6 2.419399 1_555
Na5 O33 2.623983 1_555
Na5 O47 2.775297 1_555
Na5 O46 2.853452 1_555
Na5 O32 2.855457 1_554
Na5 O27 2.866040 1_565
Na5 O26 2.935156 1_565
Na6 O0 2.405990 1_555
Na6 O1 2.419399 1_455
Na6 O38 2.623983 1_556
Na6 O40 2.775297 1_555
Na6 O41 2.853452 1_455
Na6 O39 2.855457 1_455
Na6 O28 2.866040 1_455
Na6 O29 2.935156 1_555
Na7 O3 2.405990 1_555
Na7 O2 2.419399 1_455
Na7 O37 2.623983 1_555
Na7 O43 2.775297 1_555
Na7 O42 2.853452 1_455
Na7 O36 2.855457 1_454
Na7 O31 2.866040 1_455
Na7 O30 2.935156 1_555
Na8 O22 2.486267 1_555
Na8 O24 2.486942 1_555
Na8 O43 2.525504 1_565
Na8 O19 2.595188 1_565
Na8 O30 2.758622 1_555
Na8 O14 2.795697 1_555
Na9 O21 2.486267 1_555
Na9 O27 2.486942 1_556
Na9 O40 2.525504 1_545
Na9 O16 2.595188 1_545
Na9 O29 2.758622 1_555
Na9 O13 2.795697 1_555
Na10 O18 2.486267 1_555
Na10 O28 2.486942 1_555
Na10 O47 2.525504 1_555
Na10 O23 2.595188 1_555
Na10 O26 2.758622 1_555
Na10 O10 2.795697 1_555
Na11 O17 2.486267 1_555
Na11 O31 2.486942 1_556
Na11 O44 2.525504 1_555
Na11 O20 2.595188 1_555
Na11 O25 2.758622 1_555
Na11 O9 2.795697 1_555
O0 Si2 1.618948 1_555
O0 Y0 2.210815 1_555
O1 P6 1.580358 1_555
O1 Sn0 2.205734 1_555
O2 P7 1.580358 1_555
O2 Sn1 2.205734 1_555
O3 Si3 1.618948 1_555
O3 Y1 2.210815 1_555
O4 Si0 1.618948 1_545
O4 Y2 2.210815 1_555
O5 P4 1.580358 1_545
O5 Sn2 2.205734 1_555
O6 P5 1.580358 1_565
O6 Sn3 2.205734 1_555
O7 Si1 1.618948 1_565
O7 Y3 2.210815 1_555
O8 P2 1.568061 1_555
O8 Sn3 2.078783 1_555
O9 P2 1.519658 1_555
O9 Y3 2.229848 1_556
O10 P3 1.519658 1_555
O10 Y2 2.229848 1_555
O11 P3 1.568061 1_555
O11 Sn2 2.078783 1_554
O12 P0 1.568061 1_545
O12 Sn1 2.078783 1_555
O13 P0 1.519658 1_445
O13 Y1 2.229848 1_556
O14 P1 1.519658 1_465
O14 Y0 2.229848 1_555
O15 P1 1.568061 1_565
O15 Sn0 2.078783 1_554
O16 P4 1.535225 1_555
O16 Y0 2.261585 1_555
O17 Si0 1.666727 1_555
O17 Sn0 2.053267 1_555
O18 Si1 1.666727 1_555
O18 Sn1 2.053267 1_555
O19 P5 1.535225 1_555
O19 Y1 2.261585 1_555
O20 P6 1.535225 1_555
O20 Y2 2.261585 1_555
O21 Si2 1.666727 1_555
O21 Sn2 2.053267 1_555
O22 Si3 1.666727 1_555
O22 Sn3 2.053267 1_555
O23 P7 1.535225 1_555
O23 Y3 2.261585 1_555
O24 P4 1.587529 1_555
O24 Sn3 2.232166 1_555
O25 Si0 1.599752 1_555
O25 Y3 2.088150 1_556
O26 Si1 1.599752 1_555
O26 Y2 2.088150 1_555
O27 P5 1.587529 1_555
O27 Sn2 2.232166 1_554
O28 P6 1.587529 1_555
O28 Sn1 2.232166 1_555
O29 Si2 1.599752 1_555
O29 Y1 2.088150 1_556
O30 Si3 1.599752 1_555
O30 Y0 2.088150 1_555
O31 P7 1.587529 1_555
O31 Sn0 2.232166 1_554
O32 P4 1.517632 1_555
O32 Y3 2.210520 1_556
O33 Si0 1.691070 1_555
O33 Sn3 2.046168 1_555
O34 Si1 1.691070 1_555
O34 Sn2 2.046168 1_554
O35 P5 1.517632 1_555
O35 Y2 2.210520 1_555
O36 P6 1.517632 1_555
O36 Y1 2.210520 1_656
O37 Si2 1.691070 1_555
O37 Sn1 2.046168 1_455
O38 Si3 1.691070 1_555
O38 Sn0 2.046168 1_454
O39 P7 1.517632 1_555
O39 Y0 2.210520 1_655
O40 P0 1.549097 1_455
O40 Y0 2.297970 1_555
O41 P0 1.565093 1_555
O41 Sn0 2.144905 1_555
O42 P1 1.565093 1_555
O42 Sn1 2.144905 1_555
O43 P1 1.549097 1_455
O43 Y1 2.297970 1_555
O44 P2 1.549097 1_555
O44 Y2 2.297970 1_555
O45 P2 1.565093 1_555
O45 Sn2 2.144905 1_555
O46 P3 1.565093 1_555
O46 Sn3 2.144905 1_555
O47 P3 1.549097 1_555
O47 Y3 2.297970 1_555
