# generated using pymatgen
data_MgTi2Zn2O6
_symmetry_space_group_name_H-M   'P 1'
_cell_length_a   15.31485967
_cell_length_b   10.90816282
_cell_length_c   10.76156937
_cell_angle_alpha   151.85039099
_cell_angle_beta   161.76428616
_cell_angle_gamma   15.80263026
_symmetry_Int_Tables_number   1
_chemical_formula_structural   MgTi2Zn2O6
_chemical_formula_sum   'Mg1 Ti2 Zn2 O6'
_cell_volume   141.87383422
_cell_formula_units_Z   1
loop_
 _symmetry_equiv_pos_site_id
 _symmetry_equiv_pos_as_xyz
  1  'x, y, z'
loop_
 _atom_site_type_symbol
 _atom_site_label
 _atom_site_symmetry_multiplicity
 _atom_site_fract_x
 _atom_site_fract_y
 _atom_site_fract_z
 _atom_site_occupancy
  Mg  Mg0  1  0.11452189  0.83049180  0.38932497  1
  Ti  Ti0  1  0.92279966  0.79964896  0.65083302  1
  Ti  Ti1  1  0.03109012  0.20732743  0.31160904  1
  Zn  Zn0  1  0.88160717  0.54699656  0.67160982  1
  Zn  Zn1  1  0.99581919  0.57868264  0.26786129  1
  O  O0  1  0.58530716  0.11127957  0.31914509  1
  O  O1  1  0.45818848  0.47170064  0.69718158  1
  O  O2  1  0.58542900  0.86135516  0.38118641  1
  O  O3  1  0.32521931  0.91844359  0.61603434  1
  O  O4  1  0.50037082  0.56632110  0.27464528  1
  O  O5  1  0.48714921  0.10180255  0.74556816  1
loop_
_geom_bond_atom_site_label_1
_geom_bond_atom_site_label_2
_geom_bond_distance
_geom_bond_site_symmetry_2
Mg0 O5 2.015722 1_464
Mg0 O1 2.024049 1_555
Mg0 O3 2.039742 1_555
Mg0 O4 2.133119 1_465
Mg0 O0 2.268205 1_555
O0 Ti0 1.884513 1_545
O0 Zn1 2.056710 1_545
O0 Zn0 2.114698 1_454
O1 Ti1 1.936622 1_656
O1 Zn1 2.075991 1_455
O1 Ti0 2.128782 1_545
O2 Ti0 1.959806 1_555
O2 Zn0 2.034446 1_555
O2 Zn1 2.046875 1_465
O2 Ti1 2.150440 1_655
O3 Ti1 1.951927 1_565
O3 Zn1 2.041200 1_556
O3 Zn0 2.090404 1_465
O4 Ti0 1.948044 1_454
O4 Zn0 2.055140 1_555
O4 Ti1 2.126145 1_565
O5 Ti1 1.991404 1_555
O5 Ti0 2.005609 1_455
O5 Zn0 2.009072 1_545
