# generated using pymatgen
data_MgTi2(Ga2O5)2
_symmetry_space_group_name_H-M   'P 1'
_cell_length_a   5.18709940
_cell_length_b   5.63379335
_cell_length_c   7.61722690
_cell_angle_alpha   70.62911907
_cell_angle_beta   91.45788564
_cell_angle_gamma   64.45814169
_symmetry_Int_Tables_number   1
_chemical_formula_structural   MgTi2(Ga2O5)2
_chemical_formula_sum   'Mg1 Ti2 Ga4 O10'
_cell_volume   185.72713073
_cell_formula_units_Z   1
loop_
 _symmetry_equiv_pos_site_id
 _symmetry_equiv_pos_as_xyz
  1  'x, y, z'
loop_
 _atom_site_type_symbol
 _atom_site_label
 _atom_site_symmetry_multiplicity
 _atom_site_fract_x
 _atom_site_fract_y
 _atom_site_fract_z
 _atom_site_occupancy
  Mg  Mg0  1  0.80746100  0.38797900  0.59080000  1
  Ti  Ti0  1  0.01740900  0.94318200  0.44882200  1
  Ti  Ti1  1  0.00742800  0.00175600  0.01894200  1
  Ga  Ga0  1  0.59053400  0.81641600  0.72087000  1
  Ga  Ga1  1  0.65003900  0.71283500  0.18070500  1
  Ga  Ga2  1  0.33877300  0.30709600  0.82886000  1
  Ga  Ga3  1  0.36392100  0.25625500  0.28835200  1
  O  O0  1  0.74966600  0.84503100  0.94082000  1
  O  O1  1  0.43307500  0.80000600  0.47545700  1
  O  O2  1  0.00726700  0.62009800  0.64934200  1
  O  O3  1  0.65065300  0.39911800  0.83624500  1
  O  O4  1  0.34456900  0.62114500  0.15263500  1
  O  O5  1  0.97102500  0.35287600  0.35118500  1
  O  O6  1  0.61583000  0.15909700  0.52574300  1
  O  O7  1  0.19904200  0.04950200  0.76447700  1
  O  O8  1  0.24734500  0.18460600  0.07076600  1
  O  O9  1  0.79346100  0.95966900  0.23931400  1
loop_
_geom_bond_atom_site_label_1
_geom_bond_atom_site_label_2
_geom_bond_distance
_geom_bond_site_symmetry_2
Mg0 O5 2.064908 1_555
Mg0 O3 2.066920 1_555
Mg0 O7 2.088501 1_655
Mg0 O6 2.097737 1_555
Mg0 O2 2.124897 1_655
Mg0 O1 2.145806 1_555
Ga0 O0 1.933359 1_555
Ga0 O7 1.995648 1_565
Ga0 O1 2.066939 1_555
Ga0 O6 2.068437 1_565
Ga0 O3 2.092826 1_555
Ga0 O2 2.142612 1_655
Ga1 O4 1.893424 1_555
Ga1 O0 1.907300 1_554
Ga1 O5 1.949972 1_555
Ga1 O9 1.993393 1_555
Ga1 O8 2.403253 1_565
Ga2 O8 1.891998 1_556
Ga2 O2 1.897952 1_555
Ga2 O3 1.904473 1_555
Ga2 O7 2.057427 1_555
Ga2 O0 2.386793 1_545
Ga3 O4 1.926595 1_555
Ga3 O8 1.969483 1_555
Ga3 O6 1.970592 1_555
Ga3 O5 1.986100 1_455
Ga3 O9 2.267535 1_545
Ga3 O1 2.348544 1_545
O0 Ti1 2.060943 1_666
O1 Ti0 1.926137 1_555
O2 Ti0 1.972619 1_555
O3 Ti1 2.145406 1_656
O4 Ti1 1.980001 1_565
O5 Ti0 2.076476 1_645
O6 Ti0 2.124117 1_645
O7 Ti1 2.190895 1_556
O8 Ti1 2.028792 1_555
O9 Ti0 1.902401 1_655
O9 Ti1 2.040468 1_665
