# generated using pymatgen
data_Na6Ca2Si5Ge6S7O48
_symmetry_space_group_name_H-M   'P 1'
_cell_length_a   17.33608380
_cell_length_b   8.88185039
_cell_length_c   22.43051743
_cell_angle_alpha   89.17198877
_cell_angle_beta   90.96712682
_cell_angle_gamma   120.87148282
_symmetry_Int_Tables_number   1
_chemical_formula_structural   Na6Ca2Si5Ge6S7O48
_chemical_formula_sum   'Na18 Ca6 Si15 Ge18 S21 O144'
_cell_volume   2963.95372997
_cell_formula_units_Z   3
loop_
 _symmetry_equiv_pos_site_id
 _symmetry_equiv_pos_as_xyz
  1  'x, y, z'
loop_
 _atom_site_type_symbol
 _atom_site_label
 _atom_site_symmetry_multiplicity
 _atom_site_fract_x
 _atom_site_fract_y
 _atom_site_fract_z
 _atom_site_occupancy
  Na  Na0  1  0.66505811  0.36283537  0.58755102  1
  Na  Na1  1  0.51000769  0.67331542  0.58860088  1
  Na  Na2  1  0.82653872  0.98360097  0.58673098  1
  Na  Na3  1  0.16451192  0.96873247  0.09054835  1
  Na  Na4  1  0.32636677  0.67306843  0.09190851  1
  Na  Na5  1  0.00816097  0.34469774  0.09555308  1
  Na  Na6  1  0.00724075  0.99299771  0.49678946  1
  Na  Na7  1  0.48934258  0.00575032  0.49738168  1
  Na  Na8  1  0.98982611  0.97658126  0.00164674  1
  Na  Na9  1  0.50868477  0.01566416  0.99903513  1
  Na  Na10  1  0.33100671  0.31768890  0.82959021  1
  Na  Na11  1  0.82512316  0.33075953  0.83507916  1
  Na  Na12  1  0.32270488  0.32260704  0.33456360  1
  Na  Na13  1  0.83446309  0.34200864  0.33156255  1
  Na  Na14  1  0.16047180  0.65975535  0.16199007  1
  Na  Na15  1  0.67645997  0.68366991  0.16706905  1
  Na  Na16  1  0.17413288  0.66617438  0.66180490  1
  Na  Na17  1  0.66396335  0.66209467  0.65624074  1
  Ca  Ca0  1  0.32684825  0.32633097  0.69442432  1
  Ca  Ca1  1  0.83897595  0.33338527  0.68975919  1
  Ca  Ca2  1  0.33753136  0.34133245  0.18988059  1
  Ca  Ca3  1  0.82902340  0.33268441  0.19443401  1
  Ca  Ca4  1  0.16558352  0.66637397  0.00922477  1
  Ca  Ca5  1  0.66700339  0.66841236  0.50782846  1
  Si  Si0  1  0.63380258  0.98398317  0.25457924  1
  Si  Si1  1  0.86032032  0.73224680  0.25656373  1
  Si  Si2  1  0.13378192  0.28096293  0.75422080  1
  Si  Si3  1  0.36245525  0.98873398  0.75571755  1
  Si  Si4  1  0.46913285  0.33122860  0.58097936  1
  Si  Si5  1  0.68506821  0.05340324  0.58352077  1
  Si  Si6  1  0.84151532  0.64959972  0.59051862  1
  Si  Si7  1  0.97029149  0.61266492  0.08148415  1
  Si  Si8  1  0.34290608  0.03771240  0.08762455  1
  Si  Si9  1  0.18165832  0.32000053  0.08588670  1
  Si  Si10  1  0.81093019  0.67470782  0.91216807  1
  Si  Si11  1  0.66947137  0.96706162  0.91536842  1
  Si  Si12  1  0.30740088  0.93873959  0.41006421  1
  Si  Si13  1  0.16852599  0.36786358  0.41657902  1
  Si  Si14  1  0.01762790  0.65350455  0.41809859  1
  Ge  Ge0  1  0.00627988  0.98747707  0.35938892  1
  Ge  Ge1  1  0.49571595  0.99182949  0.35482174  1
  Ge  Ge2  1  0.99501923  0.99636015  0.85444993  1
  Ge  Ge3  1  0.50939517  0.99385921  0.84892603  1
  Ge  Ge4  1  0.01483767  0.00604579  0.64641894  1
  Ge  Ge5  1  0.48450334  0.01136775  0.63693554  1
  Ge  Ge6  1  0.99174279  0.96089889  0.14474040  1
  Ge  Ge7  1  0.50279332  0.02513101  0.15907632  1
  Ge  Ge8  1  0.32739839  0.29421219  0.99293592  1
  Ge  Ge9  1  0.82001652  0.35732068  0.97477754  1
  Ge  Ge10  1  0.32099785  0.27749198  0.47115145  1
  Ge  Ge11  1  0.83572871  0.38403215  0.48921867  1
  Ge  Ge12  1  0.67261690  0.68790134  0.00792630  1
  Ge  Ge13  1  0.16823329  0.65203506  0.50428638  1
  Ge  Ge14  1  0.15505865  0.63718520  0.32445841  1
  Ge  Ge15  1  0.67652164  0.70297046  0.30663979  1
  Ge  Ge16  1  0.17310619  0.64186477  0.80361594  1
  Ge  Ge17  1  0.67231069  0.69000264  0.81782700  1
  S  S0  1  0.14021741  0.97496152  0.25441482  1
  S  S1  1  0.34844015  0.72268684  0.25208215  1
  S  S2  1  0.01482232  0.29749943  0.25458424  1
  S  S3  1  0.51029747  0.30111588  0.25958019  1
  S  S4  1  0.64267914  0.30739335  0.75526752  1
  S  S5  1  0.01152941  0.72452585  0.75965402  1
  S  S6  1  0.51373658  0.71814538  0.75409103  1
  S  S7  1  0.84788767  0.97750038  0.75355261  1
  S  S8  1  0.99163375  0.34434637  0.58066348  1
  S  S9  1  0.18541944  0.02041186  0.58028618  1
  S  S10  1  0.32397983  0.62685092  0.58164028  1
  S  S11  1  0.48699399  0.62417162  0.07449217  1
  S  S12  1  0.82439881  0.02804016  0.08026978  1
  S  S13  1  0.68353133  0.35090040  0.07793114  1
  S  S14  1  0.32210591  0.65621663  0.91327242  1
  S  S15  1  0.01211225  0.36140043  0.91019680  1
  S  S16  1  0.52164083  0.38636294  0.91619576  1
  S  S17  1  0.17171107  0.98910637  0.91687192  1
  S  S18  1  0.82154322  0.98259236  0.41210149  1
  S  S19  1  0.66695667  0.35951213  0.41373666  1
  S  S20  1  0.51072964  0.65932705  0.41066307  1
  O  O0  1  0.09805010  -0.00796763  0.30939361  1
  O  O1  1  0.57550124  -0.00470633  0.30819701  1
  O  O2  1  0.39607394  0.82932715  0.30525254  1
  O  O3  1  0.91544452  0.84188961  0.31517221  1
  O  O4  1  0.49776042  0.18986405  0.31197510  1
  O  O5  1  0.02219317  0.20100384  0.30623596  1
  O  O6  1  0.07396205  0.15938526  0.80865926  1
  O  O7  1  0.60098468  0.20012013  0.81139079  1
  O  O8  1  0.51927341  0.82227704  0.80774077  1
  O  O9  1  -0.00041034  0.80526407  0.81342925  1
  O  O10  1  0.41884496  -0.00498562  0.81609424  1
  O  O11  1  0.89167781  0.95743565  0.80819763  1
  O  O12  1  0.40733755  0.94901772  0.69578397  1
  O  O13  1  0.89168679  0.97727990  0.69765182  1
  O  O14  1  0.08297106  0.18902147  0.68856571  1
  O  O15  1  0.59342882  0.21645648  0.70006607  1
  O  O16  1  0.01525874  0.81993687  0.70294219  1
  O  O17  1  0.52633416  0.81271573  0.69759961  1
  O  O18  1  0.39582307  0.81878572  0.19442517  1
  O  O19  1  0.90232797  0.85832247  0.19519199  1
  O  O20  1  0.02618552  0.23519888  0.19644772  1
  O  O21  1  0.51312701  0.21562255  0.20168427  1
  O  O22  1  0.09153056  0.97226467  0.19742479  1
  O  O23  1  0.58198232  0.97763616  0.18809613  1
  O  O24  1  0.43809816  0.40576978  0.63320628  1
  O  O25  1  0.96221047  0.36874403  0.63833240  1
  O  O26  1  0.23947125  0.10051636  0.63269786  1
  O  O27  1  0.75308021  0.10595542  0.63828622  1
  O  O28  1  0.30474767  0.53456025  0.63827079  1
  O  O29  1  0.81691316  0.51873262  0.64464017  1
  O  O30  1  0.45731854  0.53890592  0.13285451  1
  O  O31  1  0.93748930  0.46892429  0.13268716  1
  O  O32  1  0.31872658  0.12307706  0.13987934  1
  O  O33  1  0.80411456  0.08219268  0.13584087  1
  O  O34  1  0.25526360  0.40418229  0.13755186  1
  O  O35  1  0.74305097  0.39501418  0.12916652  1
  O  O36  1  0.22853458  0.26545063  0.02867403  1
  O  O37  1  0.71704973  0.31091741  0.02150809  1
  O  O38  1  0.41756002  0.52246113  0.02520143  1
  O  O39  1  0.91046915  0.51705088  0.01725169  1
  O  O40  1  0.36520327  0.15874630  0.02421749  1
  O  O41  1  0.83165835  0.13239664  0.02733085  1
  O  O42  1  0.21836194  0.12535236  0.52326224  1
  O  O43  1  0.73787114  0.20696270  0.52634680  1
  O  O44  1  0.33534906  0.54421823  0.52997052  1
  O  O45  1  0.86616455  0.57871525  0.52853044  1
  O  O46  1  0.41028472  0.31134146  0.51681666  1
  O  O47  1  0.92680932  0.31259286  0.53082156  1
  O  O48  1  0.28969097  0.68320201  0.96980544  1
  O  O49  1  0.76912283  0.71188589  0.97092612  1
  O  O50  1  0.05570235  0.41570077  0.96813712  1
  O  O51  1  0.58133093  0.47327124  0.96963069  1
  O  O52  1  0.16054688  0.90353941  0.97480588  1
  O  O53  1  0.64435048  0.83472708  0.97221321  1
  O  O54  1  0.26976260  0.82592412  0.47173446  1
  O  O55  1  0.79246401  0.88926299  0.46909286  1
  O  O56  1  0.14616478  0.44905105  0.47405196  1
  O  O57  1  0.65515414  0.41705453  0.47210276  1
  O  O58  1  0.08599092  0.69567529  0.47474478  1
  O  O59  1  0.55199134  0.68819985  0.46964586  1
  O  O60  1  0.05439638  0.60264755  0.35898823  1
  O  O61  1  0.56669720  0.64985379  0.36254897  1
  O  O62  1  0.24187955  0.84641926  0.35261199  1
  O  O63  1  0.75561314  0.86988067  0.36198472  1
  O  O64  1  0.19215829  0.49705250  0.35851873  1
  O  O65  1  0.67168772  0.47173693  0.36378658  1
  O  O66  1  0.06842432  0.48910999  0.86111056  1
  O  O67  1  0.56037145  0.49732971  0.86090736  1
  O  O68  1  0.18069036  0.89871265  0.86639943  1
  O  O69  1  0.69051947  0.88347521  0.85724489  1
  O  O70  1  0.25781641  0.63550055  0.86178933  1
  O  O71  1  0.74684615  0.63789825  0.85363893  1
  O  O72  1  0.00663019  0.82640191  0.41169344  1
  O  O73  1  0.49440783  0.81116054  0.40360985  1
  O  O74  1  0.41239016  0.98177830  0.40535908  1
  O  O75  1  0.91411647  0.01594188  0.40389876  1
  O  O76  1  0.08437375  0.16594124  0.40809989  1
  O  O77  1  0.58767722  0.17226615  0.40811585  1
  O  O78  1  -0.00477414  0.17776945  0.90279638  1
  O  O79  1  0.51389862  0.21350057  0.91259936  1
  O  O80  1  0.09422995  0.02124118  0.90992320  1
  O  O81  1  0.58364428  0.00120982  0.90677470  1
  O  O82  1  0.41438069  0.81543953  0.90566904  1
  O  O83  1  0.91630532  0.84114787  0.90789421  1
  O  O84  1  0.45611412  0.13052497  0.58594952  1
  O  O85  1  0.99871023  0.18139895  0.58150792  1
  O  O86  1  0.09509202  0.01036387  0.58691114  1
  O  O87  1  0.58695893  0.05787266  0.59554325  1
  O  O88  1  0.41730013  0.80204172  0.58676458  1
  O  O89  1  0.93173910  0.85388255  0.59905489  1
  O  O90  1  0.49631654  0.79750181  0.07212696  1
  O  O91  1  0.96174617  0.79071453  0.09104306  1
  O  O92  1  0.43421322  0.01404631  0.09860439  1
  O  O93  1  0.91305371  0.03215839  0.08499727  1
  O  O94  1  0.08505590  0.12188505  0.09798825  1
  O  O95  1  0.59594901  0.18670961  0.08801131  1
  O  O96  1  0.35056105  0.15272376  0.75530533  1
  O  O97  1  0.83957262  0.13145601  0.76038198  1
  O  O98  1  0.23359111  0.32602393  0.76006569  1
  O  O99  1  0.73452347  0.34064070  0.75658010  1
  O  O100  1  0.43352769  0.54829003  0.75892665  1
  O  O101  1  0.93917210  0.54179879  0.75871514  1
  O  O102  1  0.34594781  0.55603767  0.25644643  1
  O  O103  1  0.84960224  0.54519089  0.25522725  1
  O  O104  1  0.43668152  0.33408113  0.25776866  1
  O  O105  1  0.93411194  0.30814469  0.25780484  1
  O  O106  1  0.23130980  0.12921485  0.25407880  1
  O  O107  1  0.73374826  0.13859185  0.25913212  1
  O  O108  1  0.32747244  0.49810573  0.91421388  1
  O  O109  1  0.81567625  0.49581252  0.91753847  1
  O  O110  1  0.43306513  0.36962676  0.92362229  1
  O  O111  1  0.92500655  0.35203797  0.90803184  1
  O  O112  1  0.26014488  0.16838701  0.92076552  1
  O  O113  1  0.75581147  0.16467930  0.92848647  1
  O  O114  1  0.31543022  0.13149913  0.41551741  1
  O  O115  1  0.82111683  0.14517088  0.41093678  1
  O  O116  1  0.25726812  0.34769631  0.42927076  1
  O  O117  1  0.75218942  0.35403899  0.41567992  1
  O  O118  1  0.42294031  0.49498441  0.40803090  1
  O  O119  1  0.91730348  0.47885612  0.43070263  1
  O  O120  1  0.15140755  0.45628972  0.06893216  1
  O  O121  1  0.66858904  0.50000092  0.06680462  1
  O  O122  1  0.07485668  0.68583896  0.07127557  1
  O  O123  1  0.57445682  0.63142889  0.06528801  1
  O  O124  1  0.26409185  0.84011998  0.07680444  1
  O  O125  1  0.74757019  0.83582515  0.07295454  1
  O  O126  1  0.17035090  0.84352896  0.57370162  1
  O  O127  1  0.65492346  0.85870034  0.56477147  1
  O  O128  1  0.25112439  0.67119037  0.57275190  1
  O  O129  1  0.76252634  0.68998122  0.57884750  1
  O  O130  1  0.08235364  0.50486466  0.57145646  1
  O  O131  1  0.57445600  0.46631195  0.57234652  1
  O  O132  1  0.13919395  0.80779080  0.25460654  1
  O  O133  1  0.62731248  0.78842578  0.25607272  1
  O  O134  1  0.25979458  0.70470098  0.24813132  1
  O  O135  1  0.75980727  0.72015011  0.25793893  1
  O  O136  1  0.09837616  0.48746030  0.25739553  1
  O  O137  1  0.59890156  0.46641874  0.25993594  1
  O  O138  1  0.12735849  0.46317226  0.75342204  1
  O  O139  1  0.63969467  0.47193492  0.75846280  1
  O  O140  1  0.10180997  0.73660541  0.76250403  1
  O  O141  1  0.59606845  0.69794245  0.75850912  1
  O  O142  1  0.26252747  0.79924182  0.75874592  1
  O  O143  1  0.75605765  0.81103830  0.75107345  1
loop_
_geom_bond_atom_site_label_1
_geom_bond_atom_site_label_2
_geom_bond_distance
_geom_bond_site_symmetry_2
Na0 O131 2.209598 1_555
Na0 O87 2.330800 1_555
Na0 O129 2.508454 1_555
Na0 O29 2.585366 1_555
Na0 O57 2.645946 1_555
Na0 O43 2.702143 1_555
Na0 O15 2.820618 1_555
Na1 O127 2.254586 1_555
Na1 O24 2.266111 1_555
Na1 O88 2.402932 1_555
Na1 O131 2.627319 1_555
Na1 O17 2.700946 1_555
Na1 O59 2.761023 1_555
Na2 O129 2.258449 1_555
Na2 O27 2.376196 1_565
Na2 O85 2.575587 1_565
Na2 O89 2.619173 1_555
Na2 O127 2.627547 1_555
Na2 O13 2.726739 1_555
Na2 O55 2.741717 1_555
Na2 O47 2.808533 1_565
Na3 O122 2.217404 1_555
Na3 O94 2.390142 1_565
Na3 O124 2.536140 1_555
Na3 O32 2.536536 1_565
Na3 O36 2.654801 1_565
Na3 O52 2.660197 1_554
Na3 O22 2.737528 1_555
Na4 O124 2.258040 1_555
Na4 O34 2.285176 1_555
Na4 O90 2.605217 1_555
Na4 O18 2.608812 1_555
Na4 O92 2.623535 1_565
Na4 O120 2.674940 1_555
Na4 O48 2.811832 1_554
Na5 O31 2.204655 1_455
Na5 O120 2.238956 1_555
Na5 O93 2.406075 1_455
Na5 O20 2.527764 1_555
Na5 O122 2.681871 1_555
Na6 O72 2.428529 1_555
Na6 O76 2.449220 1_565
Na6 O86 2.468539 1_565
Na6 O85 2.605452 1_465
Na6 O89 2.619446 1_455
Na6 O75 2.683465 1_465
Na7 O74 2.390367 1_545
Na7 O84 2.502815 1_555
Na7 O88 2.552213 1_545
Na7 O77 2.558292 1_555
Na7 O87 2.650628 1_555
Na7 O73 2.772350 1_545
Na8 O83 2.429606 1_554
Na8 O91 2.468942 1_555
Na8 O93 2.509049 1_565
Na8 O94 2.614312 1_665
Na8 O80 2.651706 1_664
Na8 O78 2.799813 1_664
Na9 O90 2.445854 1_546
Na9 O95 2.491363 1_556
Na9 O81 2.501496 1_555
Na9 O79 2.568883 1_555
Na9 O92 2.594688 1_556
Na9 O82 2.688804 1_545
Na10 O98 2.307716 1_555
Na10 O96 2.374332 1_555
Na10 O112 2.405149 1_555
Na10 O100 2.476221 1_555
Na10 O108 2.523317 1_555
Na10 O110 2.618479 1_555
Na11 O111 2.299837 1_555
Na11 O99 2.370356 1_555
Na11 O109 2.435554 1_555
Na11 O113 2.487208 1_555
Na11 O97 2.560964 1_555
Na11 O101 2.564154 1_555
Na12 O118 2.307649 1_555
Na12 O114 2.427606 1_555
Na12 O106 2.433136 1_555
Na12 O116 2.490742 1_555
Na12 O102 2.567618 1_555
Na12 O104 2.604795 1_555
Na13 O103 2.386873 1_555
Na13 O107 2.388315 1_555
Na13 O115 2.405972 1_555
Na13 O117 2.420502 1_555
Na13 O105 2.540865 1_555
Na13 O119 2.581453 1_555
Na14 O134 2.462142 1_555
Na14 O136 2.524437 1_555
Na14 O124 2.553123 1_555
Na14 O122 2.575696 1_555
Na14 O132 2.604443 1_555
Na14 O120 2.730200 1_555
Na15 O135 2.405511 1_555
Na15 O125 2.469463 1_555
Na15 O133 2.549880 1_555
Na15 O137 2.680700 1_555
Na15 O121 2.757715 1_555
Na15 O123 2.758026 1_555
Na16 O128 2.408303 1_555
Na16 O130 2.515336 1_555
Na16 O126 2.530353 1_555
Na16 O142 2.564464 1_555
Na16 O138 2.565217 1_555
Na16 O140 2.829582 1_555
Na17 O129 2.376546 1_555
Na17 O131 2.489919 1_555
Na17 O143 2.573520 1_555
Na17 O141 2.691793 1_555
Na17 O127 2.729427 1_555
Na17 O139 2.734667 1_555
Ca0 O24 2.183562 1_555
Ca0 O98 2.203942 1_555
Ca0 O96 2.232073 1_555
Ca0 O26 2.264032 1_555
Ca0 O100 2.377096 1_555
Ca0 O28 2.407767 1_555
Ca1 O29 2.113182 1_555
Ca1 O27 2.133852 1_555
Ca1 O25 2.318979 1_555
Ca1 O101 2.351265 1_555
Ca1 O97 2.379607 1_555
Ca1 O99 2.396620 1_555
Ca2 O34 2.113042 1_555
Ca2 O32 2.126958 1_555
Ca2 O104 2.302153 1_555
Ca2 O30 2.305010 1_555
Ca2 O106 2.337698 1_555
Ca2 O102 2.382567 1_555
Ca3 O31 2.150058 1_555
Ca3 O107 2.211905 1_555
Ca3 O103 2.217241 1_555
Ca3 O35 2.328252 1_555
Ca3 O105 2.387083 1_555
Ca3 O33 2.437843 1_555
Ca4 O122 2.191083 1_555
Ca4 O120 2.191814 1_555
Ca4 O124 2.207113 1_555
Ca4 O50 2.254492 1_554
Ca4 O48 2.272365 1_554
Ca4 O52 2.276036 1_554
Ca5 O129 2.216044 1_555
Ca5 O131 2.222244 1_555
Ca5 O127 2.228535 1_555
Ca5 O55 2.229237 1_555
Ca5 O59 2.244435 1_555
Ca5 O57 2.289984 1_555
Ge0 O3 1.740745 1_455
Ge0 O76 1.826767 1_565
Ge0 O72 1.839399 1_555
Ge0 O0 1.945034 1_565
Ge0 O75 2.022171 1_465
Ge0 O5 2.122064 1_565
Ge1 O1 1.735526 1_565
Ge1 O74 1.816504 1_555
Ge1 O73 1.919849 1_555
Ge1 O2 1.930360 1_555
Ge1 O4 1.976615 1_565
Ge1 O77 1.976884 1_565
Ge2 O6 1.730715 1_665
Ge2 O83 1.810133 1_555
Ge2 O11 1.928071 1_555
Ge2 O78 1.953609 1_665
Ge2 O9 1.979717 1_655
Ge2 O80 2.025067 1_665
Ge3 O10 1.727412 1_565
Ge3 O81 1.790152 1_565
Ge3 O8 1.875920 1_555
Ge3 O7 1.897776 1_565
Ge3 O82 2.044053 1_555
Ge3 O79 2.402518 1_565
Ge4 O14 1.722444 1_555
Ge4 O89 1.738495 1_445
Ge4 O86 1.930102 1_555
Ge4 O16 2.071561 1_545
Ge4 O85 2.234130 1_455
Ge4 O13 2.336339 1_445
Ge5 O12 1.765471 1_545
Ge5 O84 1.775039 1_555
Ge5 O87 1.865244 1_555
Ge5 O88 1.968183 1_545
Ge5 O15 2.311593 1_555
Ge6 O19 1.758873 1_555
Ge6 O91 1.797429 1_555
Ge6 O94 1.844265 1_665
Ge6 O22 2.038277 1_655
Ge6 O93 2.203888 1_565
Ge6 O20 2.490513 1_665
Ge7 O23 1.744281 1_545
Ge7 O92 1.758512 1_555
Ge7 O21 1.880952 1_555
Ge7 O18 1.986540 1_545
Ge7 O95 2.202477 1_555
Ge8 O40 1.771677 1_556
Ge8 O36 1.799028 1_556
Ge8 O38 1.956816 1_556
Ge8 O112 1.969845 1_555
Ge8 O110 2.242408 1_555
Ge8 O108 2.510534 1_555
Ge9 O39 1.756396 1_556
Ge9 O109 1.792540 1_555
Ge9 O113 1.817285 1_555
Ge9 O37 1.936652 1_556
Ge9 O111 2.395436 1_555
Ge9 O41 2.399780 1_556
Ge10 O46 1.735892 1_555
Ge10 O116 1.773961 1_555
Ge10 O114 1.778266 1_555
Ge10 O42 1.978713 1_555
Ge10 O118 2.315472 1_555
Ge11 O45 1.771428 1_555
Ge11 O119 1.800124 1_555
Ge11 O43 1.821203 1_555
Ge11 O117 2.103664 1_555
Ge11 O47 2.174376 1_555
Ge12 O53 1.787407 1_554
Ge12 O49 1.791432 1_554
Ge12 O125 1.944633 1_555
Ge12 O51 1.944691 1_554
Ge12 O123 1.995547 1_555
Ge12 O121 2.086650 1_555
Ge13 O58 1.774803 1_555
Ge13 O56 1.781961 1_555
Ge13 O54 1.799322 1_555
Ge13 O128 2.033352 1_555
Ge13 O130 2.053506 1_555
Ge13 O126 2.308458 1_555
Ge14 O60 1.796864 1_555
Ge14 O62 1.802545 1_555
Ge14 O64 1.823155 1_555
Ge14 O136 1.914086 1_555
Ge14 O132 2.274023 1_555
Ge14 O134 2.354874 1_555
Ge15 O135 1.767376 1_555
Ge15 O133 1.788100 1_555
Ge15 O63 1.878456 1_555
Ge15 O137 2.106448 1_555
Ge15 O61 2.135865 1_555
Ge15 O65 2.370454 1_555
Ge16 O138 1.773498 1_555
Ge16 O142 1.777147 1_555
Ge16 O70 1.969985 1_555
Ge16 O140 2.023012 1_555
Ge16 O66 2.073400 1_555
Ge17 O71 1.759822 1_555
Ge17 O69 1.819915 1_555
Ge17 O141 1.885699 1_555
Ge17 O143 1.982585 1_555
Ge17 O67 2.058072 1_555
Ge17 O139 2.183896 1_555
O0 S0 1.492562 1_545
O1 Si0 1.620738 1_545
O2 S1 1.482620 1_555
O3 Si1 1.621532 1_555
O4 S3 1.469520 1_555
O5 S2 1.473726 1_555
O6 Si2 1.608719 1_555
O7 S4 1.518001 1_555
O8 S6 1.499978 1_555
O9 S5 1.482488 1_555
O10 Si3 1.641455 1_545
O11 S7 1.487132 1_555
O12 Si3 1.693455 1_555
O13 S7 1.477332 1_555
O14 Si2 1.692433 1_555
O15 S4 1.483239 1_555
O16 S5 1.501960 1_555
O17 S6 1.466008 1_555
O18 S1 1.536322 1_555
O19 Si1 1.682769 1_555
O20 S2 1.478813 1_555
O21 S3 1.527852 1_555
O22 S0 1.513533 1_555
O23 Si0 1.714436 1_555
O24 Si4 1.584106 1_555
O25 S8 1.457466 1_555
O26 S9 1.438455 1_555
O27 Si5 1.587440 1_555
O28 S10 1.449263 1_555
O29 Si6 1.573095 1_555
O30 S11 1.464987 1_555
O31 Si7 1.583350 1_555
O32 Si8 1.578867 1_555
O33 S12 1.454105 1_555
O34 Si9 1.589436 1_555
O35 S13 1.448117 1_555
O36 Si9 1.731838 1_555
O37 S13 1.521540 1_555
O38 S11 1.534737 1_555
O39 Si7 1.718618 1_555
O40 Si8 1.695815 1_555
O41 S12 1.462361 1_555
O42 S9 1.508269 1_555
O43 Si5 1.746607 1_555
O44 S10 1.449649 1_555
O45 Si6 1.683365 1_555
O46 Si4 1.707676 1_555
O47 S8 1.494588 1_555
O48 S14 1.467065 1_555
O49 Si10 1.631509 1_555
O50 S15 1.450395 1_555
O51 S16 1.506111 1_555
O52 S17 1.460382 1_555
O53 Si11 1.626982 1_555
O54 Si12 1.631789 1_555
O55 S18 1.462097 1_555
O56 Si13 1.631797 1_555
O57 S19 1.467217 1_555
O58 Si14 1.632995 1_555
O59 S20 1.455135 1_555
O60 Si14 1.646088 1_555
O61 S20 1.494977 1_555
O62 Si12 1.627451 1_555
O63 S18 1.545052 1_555
O64 Si13 1.634900 1_555
O65 S19 1.463729 1_555
O66 S15 1.521753 1_555
O67 S16 1.507928 1_555
O68 S17 1.452929 1_555
O69 Si11 1.645017 1_555
O70 S14 1.536821 1_555
O71 Si10 1.629450 1_555
O72 Si14 1.645712 1_555
O73 S20 1.519088 1_555
O74 Si12 1.661731 1_555
O75 S18 1.489200 1_545
O76 Si13 1.642067 1_555
O77 S19 1.524875 1_555
O78 S15 1.513129 1_555
O79 S16 1.474287 1_555
O80 S17 1.514950 1_545
O81 Si11 1.671752 1_545
O82 S14 1.506207 1_555
O83 Si10 1.661976 1_555
O84 Si4 1.680276 1_555
O85 S8 1.513720 1_555
O86 S9 1.531738 1_555
O87 Si5 1.747056 1_555
O88 S10 1.570744 1_555
O89 Si6 1.691971 1_555
O90 S11 1.463410 1_555
O91 Si7 1.679305 1_555
O92 Si8 1.713836 1_555
O93 S12 1.520412 1_555
O94 Si9 1.718142 1_555
O95 S13 1.487590 1_555
O96 Si3 1.572212 1_545
O97 S7 1.457100 1_545
O98 Si2 1.566682 1_555
O99 S4 1.462666 1_555
O100 S6 1.438340 1_555
O101 S5 1.455611 1_655
O102 S1 1.460352 1_555
O103 Si1 1.574844 1_555
O104 S3 1.448264 1_555
O105 S2 1.453030 1_655
O106 S0 1.466533 1_545
O107 Si0 1.566726 1_545
O108 S14 1.454085 1_555
O109 Si10 1.635313 1_555
O110 S16 1.476974 1_555
O111 S15 1.469138 1_655
O112 S17 1.545259 1_545
O113 Si11 1.646726 1_545
O114 Si12 1.651183 1_545
O115 S18 1.447662 1_545
O116 Si13 1.657247 1_555
O117 S19 1.503013 1_555
O118 S20 1.473110 1_555
O119 Si14 1.657210 1_655
O120 Si9 1.586316 1_555
O121 S13 1.491119 1_555
O122 Si7 1.600488 1_455
O123 S11 1.501904 1_555
O124 Si8 1.595641 1_565
O125 S12 1.543610 1_565
O126 S9 1.463721 1_565
O127 Si5 1.589557 1_565
O128 S10 1.513194 1_555
O129 Si6 1.600476 1_555
O130 S8 1.500050 1_455
O131 Si4 1.602482 1_555
O132 S0 1.475704 1_555
O133 Si0 1.681826 1_555
O134 S1 1.462499 1_555
O135 Si1 1.690681 1_555
O136 S2 1.562293 1_555
O137 S3 1.483462 1_555
O138 Si2 1.678045 1_555
O139 S4 1.491426 1_555
O140 S5 1.513165 1_555
O141 S6 1.528654 1_555
O142 Si3 1.687267 1_555
O143 S7 1.518994 1_555
