# generated using pymatgen
data_LiMo(PO4)2
_symmetry_space_group_name_H-M   'P 1'
_cell_length_a   17.22193900
_cell_length_b   4.99739200
_cell_length_c   7.17286659
_cell_angle_alpha   82.43433201
_cell_angle_beta   90.00000000
_cell_angle_gamma   90.00000000
_symmetry_Int_Tables_number   1
_chemical_formula_structural   LiMo(PO4)2
_chemical_formula_sum   'Li4 Mo4 P8 O32'
_cell_volume   611.95707857
_cell_formula_units_Z   4
loop_
 _symmetry_equiv_pos_site_id
 _symmetry_equiv_pos_as_xyz
  1  'x, y, z'
loop_
 _atom_site_type_symbol
 _atom_site_label
 _atom_site_symmetry_multiplicity
 _atom_site_fract_x
 _atom_site_fract_y
 _atom_site_fract_z
 _atom_site_occupancy
  Li  Li0  1  0.11220200  0.20394300  0.50633000  1
  Li  Li1  1  0.61220200  0.29605700  0.99367000  1
  Li  Li2  1  0.38779800  0.70394300  0.00633000  1
  Li  Li3  1  0.88779800  0.79605700  0.49367000  1
  Mo  Mo0  1  0.13043500  0.19665900  0.00177000  1
  Mo  Mo1  1  0.63043500  0.30334100  0.49823000  1
  Mo  Mo2  1  0.36956500  0.69665900  0.50177000  1
  Mo  Mo3  1  0.86956500  0.80334100  0.99823000  1
  P  P0  1  0.71169100  0.86100400  0.25622400  1
  P  P1  1  0.53841400  0.75743100  0.71799500  1
  P  P2  1  0.03841400  0.74256900  0.78200500  1
  P  P3  1  0.21169100  0.63899600  0.24377600  1
  P  P4  1  0.28830900  0.13899600  0.74377600  1
  P  P5  1  0.46158600  0.24256900  0.28200500  1
  P  P6  1  0.96158600  0.25743100  0.21799500  1
  P  P7  1  0.78830900  0.36100400  0.75622400  1
  O  O0  1  0.69910800  0.00631000  0.43676600  1
  O  O1  1  0.18755800  0.94327300  0.18047900  1
  O  O2  1  0.66884300  0.98759400  0.08774200  1
  O  O3  1  0.06897000  0.88485000  0.95017800  1
  O  O4  1  0.30089200  0.99369000  0.56323400  1
  O  O5  1  0.81244200  0.05672700  0.81952100  1
  O  O6  1  0.33115700  0.01240600  0.91225800  1
  O  O7  1  0.93103000  0.11515000  0.04982200  1
  O  O8  1  0.56724600  0.05887900  0.67627100  1
  O  O9  1  0.93597100  0.12880400  0.40615900  1
  O  O10  1  0.19821700  0.14735100  0.77914900  1
  O  O11  1  0.55304500  0.23483700  0.29990700  1
  O  O12  1  0.05304500  0.26516300  0.20009300  1
  O  O13  1  0.43597100  0.37119600  0.09384100  1
  O  O14  1  0.43103000  0.38485000  0.45017800  1
  O  O15  1  0.69821700  0.35264900  0.72085100  1
  O  O16  1  0.06724600  0.44112100  0.82372900  1
  O  O17  1  0.19910800  0.49369000  0.06323400  1
  O  O18  1  0.83115700  0.48759400  0.58774200  1
  O  O19  1  0.31244200  0.44327300  0.68047900  1
  O  O20  1  0.68755800  0.55672700  0.31952100  1
  O  O21  1  0.16884300  0.51240600  0.41225800  1
  O  O22  1  0.80089200  0.50631000  0.93676600  1
  O  O23  1  0.93275400  0.55887900  0.17627100  1
  O  O24  1  0.30178300  0.64735100  0.27914900  1
  O  O25  1  0.56897000  0.61515000  0.54982200  1
  O  O26  1  0.56402900  0.62880400  0.90615900  1
  O  O27  1  0.94695500  0.73483700  0.79990700  1
  O  O28  1  0.44695500  0.76516300  0.70009300  1
  O  O29  1  0.80178300  0.85264900  0.22085100  1
  O  O30  1  0.06402900  0.87119600  0.59384100  1
  O  O31  1  0.43275400  0.94112100  0.32372900  1
loop_
_geom_bond_atom_site_label_1
_geom_bond_atom_site_label_2
_geom_bond_distance
_geom_bond_site_symmetry_2
Li0 O21 1.873286 1_555
Li0 O30 1.890126 1_545
Li0 O12 2.404085 1_555
Li0 O10 2.440915 1_555
Li1 O2 1.873286 1_546
Li1 O26 1.890126 1_555
Li1 O11 2.404085 1_556
Li1 O15 2.440915 1_555
Li2 O6 1.873286 1_564
Li2 O13 1.890126 1_555
Li2 O28 2.404085 1_554
Li2 O24 2.440915 1_555
Li3 O18 1.873286 1_555
Li3 O9 1.890126 1_565
Li3 O27 2.404085 1_555
Li3 O29 2.440915 1_555
Mo0 O1 1.946014 1_545
Mo0 O3 1.958928 1_544
Mo0 O16 1.974034 1_554
Mo0 O17 1.992189 1_555
Mo0 O12 2.011328 1_555
Mo0 O10 2.019128 1_554
Mo1 O20 1.946014 1_555
Mo1 O25 1.958928 1_555
Mo1 O8 1.974034 1_555
Mo1 O0 1.992189 1_555
Mo1 O11 2.011328 1_555
Mo1 O15 2.019128 1_555
Mo2 O19 1.946014 1_555
Mo2 O14 1.958928 1_555
Mo2 O31 1.974034 1_555
Mo2 O4 1.992189 1_555
Mo2 O28 2.011328 1_555
Mo2 O24 2.019128 1_555
Mo3 O5 1.946014 1_565
Mo3 O7 1.958928 1_566
Mo3 O23 1.974034 1_556
Mo3 O22 1.992189 1_555
Mo3 O27 2.011328 1_555
Mo3 O29 2.019128 1_556
O0 P0 1.580795 1_545
O1 P3 1.584070 1_555
O2 P0 1.484552 1_555
O3 P2 1.569543 1_555
O4 P4 1.580795 1_565
O5 P7 1.584070 1_555
O6 P4 1.484552 1_555
O7 P6 1.569543 1_555
O8 P1 1.576961 1_545
O9 P6 1.483565 1_555
O10 P4 1.573609 1_555
O11 P5 1.580386 1_555
O12 P6 1.580386 1_455
O13 P5 1.483565 1_555
O14 P5 1.569543 1_555
O15 P7 1.573609 1_555
O16 P2 1.576961 1_555
O17 P3 1.580795 1_555
O18 P7 1.484552 1_555
O19 P4 1.584070 1_555
O20 P0 1.584070 1_555
O21 P3 1.484552 1_555
O22 P7 1.580795 1_555
O23 P6 1.576961 1_555
O24 P3 1.573609 1_555
O25 P1 1.569543 1_555
O26 P1 1.483565 1_555
O27 P2 1.580386 1_655
O28 P1 1.580386 1_555
O29 P0 1.573609 1_555
O30 P2 1.483565 1_555
O31 P5 1.576961 1_565
