# generated using pymatgen
data_Y2Mg(CuO2)4
_symmetry_space_group_name_H-M   'P 1'
_cell_length_a   5.68250481
_cell_length_b   5.68782392
_cell_length_c   7.05973267
_cell_angle_alpha   113.54586812
_cell_angle_beta   115.89663475
_cell_angle_gamma   89.96450183
_symmetry_Int_Tables_number   1
_chemical_formula_structural   Y2Mg(CuO2)4
_chemical_formula_sum   'Y2 Mg1 Cu4 O8'
_cell_volume   183.94610835
_cell_formula_units_Z   1
loop_
 _symmetry_equiv_pos_site_id
 _symmetry_equiv_pos_as_xyz
  1  'x, y, z'
loop_
 _atom_site_type_symbol
 _atom_site_label
 _atom_site_symmetry_multiplicity
 _atom_site_fract_x
 _atom_site_fract_y
 _atom_site_fract_z
 _atom_site_occupancy
  Y  Y0  1  0.87712500  0.13191100  0.75106100  1
  Y  Y1  1  0.12370500  0.86575500  0.24857600  1
  Mg  Mg0  1  0.38453000  0.64541200  0.75207600  1
  Cu  Cu0  1  0.93876500  0.43621800  0.42331300  1
  Cu  Cu1  1  0.48776300  0.48506400  0.42297400  1
  Cu  Cu2  1  0.51939400  0.06681100  0.09530400  1
  Cu  Cu3  1  0.54894600  0.49987100  0.06017100  1
  O  O0  1  0.51955200  0.14810300  0.38798000  1
  O  O1  1  0.85206500  0.72585200  0.36923100  1
  O  O2  1  0.13361100  0.28181800  0.61462900  1
  O  O3  1  0.47732800  0.82992400  0.59271300  1
  O  O4  1  0.73041200  0.52490500  0.90177600  1
  O  O5  1  0.16866300  0.87726800  0.89773800  1
  O  O6  1  0.26284800  0.47382500  0.11614200  1
  O  O7  1  0.85624500  0.13821500  0.12673200  1
loop_
_geom_bond_atom_site_label_1
_geom_bond_atom_site_label_2
_geom_bond_distance
_geom_bond_site_symmetry_2
Mg0 O3 2.026693 1_555
Mg0 O4 2.052432 1_555
Mg0 O5 2.077895 1_555
Mg0 O2 2.107911 1_555
Cu0 O1 1.854617 1_555
Cu0 O2 1.860535 1_655
Cu0 O7 1.945427 1_555
Cu1 O0 1.851263 1_555
Cu1 O3 1.863041 1_555
Cu1 O6 1.949606 1_555
Cu2 O7 1.853689 1_555
Cu2 O5 1.858206 1_544
Cu2 O0 1.928240 1_555
Cu3 O6 1.851853 1_555
Cu3 O4 1.862434 1_554
Cu3 O1 1.964405 1_555
O0 Y1 2.327108 1_545
O0 Y0 2.519197 1_555
O1 Y1 2.330881 1_655
O1 Y0 2.704028 1_565
O2 Y0 2.379679 1_455
O2 Y1 2.696052 1_545
O3 Y0 2.369302 1_565
O3 Y1 2.472383 1_555
O4 Y0 2.386620 1_555
O4 Y1 2.486168 1_656
O5 Y0 2.368839 1_465
O5 Y1 2.624220 1_556
O6 Y1 2.333901 1_555
O6 Y0 2.509017 1_454
O7 Y1 2.317669 1_645
O7 Y0 2.692226 1_554
