# generated using pymatgen
data_CuAs2PbO7
_symmetry_space_group_name_H-M   'P 1'
_cell_length_a   8.51009700
_cell_length_b   5.70385700
_cell_length_c   14.19540601
_cell_angle_alpha   68.52254200
_cell_angle_beta   90.00000000
_cell_angle_gamma   90.00000000
_symmetry_Int_Tables_number   1
_chemical_formula_structural   CuAs2PbO7
_chemical_formula_sum   'Cu4 As8 Pb4 O28'
_cell_volume   641.20385793
_cell_formula_units_Z   4
loop_
 _symmetry_equiv_pos_site_id
 _symmetry_equiv_pos_as_xyz
  1  'x, y, z'
loop_
 _atom_site_type_symbol
 _atom_site_label
 _atom_site_symmetry_multiplicity
 _atom_site_fract_x
 _atom_site_fract_y
 _atom_site_fract_z
 _atom_site_occupancy
  Cu  Cu0  1  0.36524300  0.67609000  0.61760100  1
  Cu  Cu1  1  0.86524300  0.32391000  0.88239900  1
  Cu  Cu2  1  0.63475700  0.32391000  0.38239900  1
  Cu  Cu3  1  0.13475700  0.67609000  0.11760100  1
  As  As0  1  0.68934200  0.66555500  0.50726300  1
  As  As1  1  0.18934200  0.33444500  0.99273700  1
  As  As2  1  0.31065800  0.33444500  0.49273700  1
  As  As3  1  0.81065800  0.66555500  0.00726300  1
  As  As4  1  0.97366100  0.59241900  0.65936200  1
  As  As5  1  0.47366100  0.40758100  0.84063800  1
  As  As6  1  0.02633900  0.40758100  0.34063800  1
  As  As7  1  0.52633900  0.59241900  0.15936200  1
  Pb  Pb0  1  0.18296600  0.02129600  0.77358700  1
  Pb  Pb1  1  0.68296600  0.97870400  0.72641300  1
  Pb  Pb2  1  0.81703400  0.97870400  0.22641300  1
  Pb  Pb3  1  0.31703400  0.02129600  0.27358700  1
  O  O0  1  0.66332500  0.50285700  0.84585200  1
  O  O1  1  0.16332500  0.49714300  0.65414800  1
  O  O2  1  0.33667500  0.49714300  0.15414800  1
  O  O3  1  0.83667500  0.50285700  0.34585200  1
  O  O4  1  0.45357900  0.15530600  0.80513800  1
  O  O5  1  0.95357900  0.84469400  0.69486200  1
  O  O6  1  0.54642100  0.84469400  0.19486200  1
  O  O7  1  0.04642100  0.15530600  0.30513800  1
  O  O8  1  0.37962500  0.67400600  0.76062400  1
  O  O9  1  0.87962500  0.32599400  0.73937600  1
  O  O10  1  0.62037500  0.32599400  0.23937600  1
  O  O11  1  0.12037500  0.67400600  0.26062400  1
  O  O12  1  0.15002000  0.63847500  0.98501300  1
  O  O13  1  0.65002000  0.36152500  0.51498700  1
  O  O14  1  0.84998000  0.36152500  0.01498700  1
  O  O15  1  0.34998000  0.63847500  0.48501300  1
  O  O16  1  0.10366500  0.32774700  0.46443100  1
  O  O17  1  0.60366500  0.67225300  0.03556900  1
  O  O18  1  0.89633500  0.67225300  0.53556900  1
  O  O19  1  0.39633500  0.32774700  0.96443100  1
  O  O20  1  0.40352800  0.28047700  0.39438400  1
  O  O21  1  0.90352800  0.71952300  0.10561600  1
  O  O22  1  0.59647200  0.71952300  0.60561600  1
  O  O23  1  0.09647200  0.28047700  0.89438400  1
  O  O24  1  0.17510500  0.09452100  0.10618100  1
  O  O25  1  0.67510500  0.90547900  0.39381900  1
  O  O26  1  0.82489500  0.90547900  0.89381900  1
  O  O27  1  0.32489500  0.09452100  0.60618100  1
loop_
_geom_bond_atom_site_label_1
_geom_bond_atom_site_label_2
_geom_bond_distance
_geom_bond_site_symmetry_2
Cu0 O1 1.968729 1_555
Cu0 O15 1.975109 1_555
Cu0 O22 1.982831 1_555
Cu0 O8 2.029641 1_555
Cu0 O27 2.357341 1_565
Cu1 O0 1.968729 1_555
Cu1 O14 1.975109 1_556
Cu1 O23 1.982831 1_655
Cu1 O9 2.029641 1_555
Cu1 O26 2.357341 1_545
Cu2 O3 1.968729 1_555
Cu2 O13 1.975109 1_555
Cu2 O20 1.982831 1_555
Cu2 O10 2.029641 1_555
Cu2 O25 2.357341 1_545
Cu3 O2 1.968729 1_555
Cu3 O12 1.975109 1_554
Cu3 O21 1.982831 1_455
Cu3 O11 2.029641 1_555
Cu3 O24 2.357341 1_565
As0 O25 1.693225 1_555
As0 O22 1.727240 1_555
As0 O13 1.729746 1_555
As0 O18 1.810289 1_555
As1 O24 1.693225 1_556
As1 O23 1.727240 1_555
As1 O12 1.729746 1_555
As1 O19 1.810289 1_555
As2 O27 1.693225 1_555
As2 O20 1.727240 1_555
As2 O15 1.729746 1_555
As2 O16 1.810289 1_555
As3 O26 1.693225 1_554
As3 O21 1.727240 1_555
As3 O14 1.729746 1_555
As3 O17 1.810289 1_555
As4 O5 1.698442 1_555
As4 O1 1.713314 1_655
As4 O9 1.725083 1_555
As4 O18 1.772709 1_555
As5 O4 1.698442 1_555
As5 O0 1.713314 1_555
As5 O8 1.725083 1_555
As5 O19 1.772709 1_555
As6 O7 1.698442 1_555
As6 O3 1.713314 1_455
As6 O11 1.725083 1_555
As6 O16 1.772709 1_555
As7 O6 1.698442 1_555
As7 O2 1.713314 1_555
As7 O10 1.725083 1_555
As7 O17 1.772709 1_555
O0 Pb1 2.626692 1_555
O1 Pb0 2.626692 1_555
O2 Pb3 2.626692 1_555
O3 Pb2 2.626692 1_555
O4 Pb0 2.517757 1_555
O4 Pb1 2.626518 1_545
O5 Pb1 2.517757 1_555
O5 Pb0 2.626518 1_665
O6 Pb2 2.517757 1_555
O6 Pb3 2.626518 1_565
O7 Pb3 2.517757 1_555
O7 Pb2 2.626518 1_445
O8 Pb0 2.650587 1_565
O9 Pb1 2.650587 1_545
O10 Pb2 2.650587 1_545
O11 Pb3 2.650587 1_565
O20 Pb3 2.742986 1_555
O21 Pb2 2.742986 1_555
O22 Pb1 2.742986 1_555
O23 Pb0 2.742986 1_555
O24 Pb3 2.560029 1_555
O25 Pb2 2.560029 1_555
O26 Pb1 2.560029 1_555
O27 Pb0 2.560029 1_555
