# generated using pymatgen
data_KGa2Cl7
_symmetry_space_group_name_H-M   'P 1'
_cell_length_a   9.10793288
_cell_length_b   10.57063616
_cell_length_c   11.96075375
_cell_angle_alpha   90.00000000
_cell_angle_beta   90.00000000
_cell_angle_gamma   90.00000000
_symmetry_Int_Tables_number   1
_chemical_formula_structural   KGa2Cl7
_chemical_formula_sum   'K4 Ga8 Cl28'
_cell_volume   1151.54123847
_cell_formula_units_Z   4
loop_
 _symmetry_equiv_pos_site_id
 _symmetry_equiv_pos_as_xyz
  1  'x, y, z'
loop_
 _atom_site_type_symbol
 _atom_site_label
 _atom_site_symmetry_multiplicity
 _atom_site_fract_x
 _atom_site_fract_y
 _atom_site_fract_z
 _atom_site_occupancy
  K  K0  1  0.36777934  0.86684641  0.11125709  1
  K  K1  1  0.63222066  0.36684641  0.88874291  1
  K  K2  1  0.13222066  0.86684641  0.61125709  1
  K  K3  1  0.86777934  0.36684641  0.38874291  1
  Ga  Ga0  1  0.38250318  0.22175780  0.38628170  1
  Ga  Ga1  1  0.61749682  0.72175780  0.61371830  1
  Ga  Ga2  1  0.11749682  0.22175780  0.88628170  1
  Ga  Ga3  1  0.88250318  0.72175780  0.11371830  1
  Ga  Ga4  1  0.43595806  0.47965228  0.17549418  1
  Ga  Ga5  1  0.56404194  0.97965228  0.82450582  1
  Ga  Ga6  1  0.06404194  0.47965228  0.67549418  1
  Ga  Ga7  1  0.93595806  0.97965228  0.32450582  1
  Cl  Cl0  1  0.26400488  0.34679709  0.25427717  1
  Cl  Cl1  1  0.73599512  0.84679709  0.74572283  1
  Cl  Cl2  1  0.23599512  0.34679709  0.75427717  1
  Cl  Cl3  1  0.76400488  0.84679709  0.24572283  1
  Cl  Cl4  1  0.45495334  0.64029993  0.28511290  1
  Cl  Cl5  1  0.54504666  0.14029993  0.71488710  1
  Cl  Cl6  1  0.04504666  0.64029993  0.78511290  1
  Cl  Cl7  1  0.95495334  0.14029993  0.21488710  1
  Cl  Cl8  1  0.48600006  0.07204752  0.29294219  1
  Cl  Cl9  1  0.51399994  0.57204752  0.70705781  1
  Cl  Cl10  1  0.01399994  0.07204752  0.79294219  1
  Cl  Cl11  1  0.98600006  0.57204752  0.20705781  1
  Cl  Cl12  1  0.34445965  0.52897868  0.01462191  1
  Cl  Cl13  1  0.65554035  0.02897868  0.98537809  1
  Cl  Cl14  1  0.15554035  0.52897868  0.51462191  1
  Cl  Cl15  1  0.84445965  0.02897868  0.48537809  1
  Cl  Cl16  1  0.46492007  0.84561978  0.53028097  1
  Cl  Cl17  1  0.53507993  0.34561978  0.46971903  1
  Cl  Cl18  1  0.03507993  0.84561978  0.03028097  1
  Cl  Cl19  1  0.96492007  0.34561978  0.96971903  1
  Cl  Cl20  1  0.63274346  0.36486219  0.16129243  1
  Cl  Cl21  1  0.36725654  0.86486219  0.83870757  1
  Cl  Cl22  1  0.86725654  0.36486219  0.66129243  1
  Cl  Cl23  1  0.13274346  0.86486219  0.33870757  1
  Cl  Cl24  1  0.20024752  0.16503933  0.49058061  1
  Cl  Cl25  1  0.79975248  0.66503933  0.50941939  1
  Cl  Cl26  1  0.29975248  0.16503933  0.99058061  1
  Cl  Cl27  1  0.70024752  0.66503933  0.00941939  1
loop_
_geom_bond_atom_site_label_1
_geom_bond_atom_site_label_2
_geom_bond_distance
_geom_bond_site_symmetry_2
Cl0 Ga4 2.304987 1_555
Cl0 Ga0 2.324798 1_555
Cl1 Ga5 2.304987 1_555
Cl1 Ga1 2.324798 1_555
Cl2 Ga6 2.304987 1_555
Cl2 Ga2 2.324798 1_555
Cl3 Ga7 2.304987 1_555
Cl3 Ga3 2.324798 1_555
Cl4 Ga4 2.152366 1_555
Cl4 K0 3.269446 1_555
Cl5 Ga5 2.152366 1_545
Cl5 K1 3.269446 1_555
Cl6 Ga6 2.152366 1_555
Cl6 K2 3.269446 1_555
Cl7 Ga7 2.152366 1_545
Cl7 K3 3.269446 1_555
Cl8 Ga0 2.153917 1_555
Cl8 K0 3.253725 1_545
Cl9 Ga1 2.153917 1_555
Cl9 K1 3.253725 1_555
Cl10 Ga2 2.153917 1_555
Cl10 K2 3.253725 1_545
Cl11 Ga3 2.153917 1_555
Cl11 K3 3.253725 1_555
Cl12 Ga4 2.160724 1_555
Cl12 K1 3.474660 1_554
Cl13 Ga5 2.160724 1_545
Cl13 K0 3.474660 1_546
Cl14 Ga6 2.160724 1_555
Cl14 K3 3.474660 1_455
Cl15 Ga7 2.160724 1_545
Cl15 K2 3.474660 1_645
Cl16 Ga1 2.154384 1_555
Cl16 K2 3.189129 1_555
Cl17 Ga0 2.154384 1_555
Cl17 K3 3.189129 1_555
Cl18 Ga3 2.154384 1_455
Cl18 K0 3.189129 1_555
Cl19 Ga2 2.154384 1_655
Cl19 K1 3.189129 1_555
Cl20 Ga4 2.171076 1_555
Cl20 K1 3.259969 1_554
Cl20 K3 3.461792 1_555
Cl21 Ga5 2.171076 1_555
Cl21 K0 3.259969 1_556
Cl21 K2 3.461792 1_555
Cl22 Ga6 2.171076 1_655
Cl22 K3 3.259969 1_555
Cl22 K1 3.461792 1_555
Cl23 Ga7 2.171076 1_455
Cl23 K2 3.259969 1_555
Cl23 K0 3.461792 1_555
Cl24 Ga0 2.161298 1_555
Cl24 K2 3.521775 1_545
Cl25 Ga1 2.161298 1_555
Cl25 K3 3.521775 1_555
Cl26 Ga2 2.161298 1_555
Cl26 K0 3.521775 1_546
Cl27 Ga3 2.161298 1_555
Cl27 K1 3.521775 1_554
