# generated using pymatgen
data_MgV4(O2F)4
_symmetry_space_group_name_H-M   'P 1'
_cell_length_a   13.15176613
_cell_length_b   3.69087900
_cell_length_c   4.66140757
_cell_angle_alpha   90.00000000
_cell_angle_beta   93.97213641
_cell_angle_gamma   90.00000000
_symmetry_Int_Tables_number   1
_chemical_formula_structural   MgV4(O2F)4
_chemical_formula_sum   'Mg1 V4 O8 F4'
_cell_volume   225.72853813
_cell_formula_units_Z   1
loop_
 _symmetry_equiv_pos_site_id
 _symmetry_equiv_pos_as_xyz
  1  'x, y, z'
loop_
 _atom_site_type_symbol
 _atom_site_label
 _atom_site_symmetry_multiplicity
 _atom_site_fract_x
 _atom_site_fract_y
 _atom_site_fract_z
 _atom_site_occupancy
  Mg  Mg0  1  0.77480300  0.25000000  0.15856200  1
  V  V0  1  0.07753700  0.25000000  0.08882200  1
  V  V1  1  0.41510700  0.75000000  0.62093000  1
  V  V2  1  0.58226200  0.25000000  0.43779300  1
  V  V3  1  0.91402000  0.75000000  0.81157200  1
  O  O0  1  0.05488400  0.75000000  0.97402100  1
  O  O1  1  0.08145400  0.25000000  0.43327900  1
  O  O2  1  0.41297500  0.75000000  0.96557300  1
  O  O3  1  0.43700100  0.25000000  0.51401300  1
  O  O4  1  0.56078700  0.75000000  0.55498400  1
  O  O5  1  0.61529700  0.25000000  0.09622700  1
  O  O6  1  0.89767500  0.75000000  0.45848600  1
  O  O7  1  0.92414700  0.25000000  0.96744300  1
  F  F0  1  0.20455900  0.25000000  0.99544500  1
  F  F1  1  0.28526400  0.75000000  0.48475600  1
  F  F2  1  0.73259700  0.25000000  0.55834300  1
  F  F3  1  0.77963100  0.75000000  0.99086300  1
loop_
_geom_bond_atom_site_label_1
_geom_bond_atom_site_label_2
_geom_bond_distance
_geom_bond_site_symmetry_2
Mg0 O5 2.097781 1_555
Mg0 O7 2.212224 1_554
O0 V0 1.938734 1_566
O0 V0 1.938734 1_556
O0 V3 1.952235 1_455
O1 V0 1.602910 1_555
O2 V1 1.608707 1_555
O3 V1 1.938254 1_555
O3 V1 1.938254 1_545
O3 V2 1.967243 1_555
O4 V2 1.950694 1_555
O4 V2 1.950694 1_565
O4 V1 1.961365 1_555
O5 V2 1.679176 1_555
O6 V3 1.645025 1_555
O7 V3 1.984413 1_545
O7 V3 1.984413 1_555
O7 V0 2.057107 1_656
F0 V0 1.755273 1_556
F1 V1 1.780131 1_555
F2 Mg0 1.980964 1_555
F2 V2 2.017683 1_555
F3 V3 2.006742 1_555
F3 Mg0 2.006896 1_566
F3 Mg0 2.006896 1_556
