# generated using pymatgen
data_Na7Hf2Zr2Si5PO24
_symmetry_space_group_name_H-M   'P 1'
_cell_length_a   9.19729885
_cell_length_b   9.20241465
_cell_length_c   22.82625465
_cell_angle_alpha   89.94322826
_cell_angle_beta   90.02130226
_cell_angle_gamma   120.02855523
_symmetry_Int_Tables_number   1
_chemical_formula_structural   Na7Hf2Zr2Si5PO24
_chemical_formula_sum   'Na21 Hf6 Zr6 Si15 P3 O72'
_cell_volume   1672.63866690
_cell_formula_units_Z   3
loop_
 _symmetry_equiv_pos_site_id
 _symmetry_equiv_pos_as_xyz
  1  'x, y, z'
loop_
 _atom_site_type_symbol
 _atom_site_label
 _atom_site_symmetry_multiplicity
 _atom_site_fract_x
 _atom_site_fract_y
 _atom_site_fract_z
 _atom_site_occupancy
  Na  Na0  1  0.63592076  0.00103657  0.25112337  1
  Na  Na1  1  0.36449703  0.36503245  0.24846529  1
  Na  Na2  1  0.00042491  0.63318189  0.25039901  1
  Na  Na3  1  0.63365338  0.63311587  0.74882866  1
  Na  Na4  1  0.99942869  0.36524503  0.74985991  1
  Na  Na5  1  0.36712021  0.00169441  0.75009963  1
  Na  Na6  1  0.30089335  0.33287994  0.58425669  1
  Na  Na7  1  0.03206986  0.70021422  0.58343368  1
  Na  Na8  1  0.66805810  0.96716111  0.58385344  1
  Na  Na9  1  0.29575339  0.96833614  0.08170439  1
  Na  Na10  1  0.03658077  0.33665974  0.08552195  1
  Na  Na11  1  0.97225613  0.66874544  0.91698570  1
  Na  Na12  1  0.32980966  0.29593861  0.91785123  1
  Na  Na13  1  0.33146197  0.02914525  0.41674441  1
  Na  Na14  1  0.70234128  0.66880361  0.41812113  1
  Na  Na15  1  0.99627071  0.00515641  0.49925828  1
  Na  Na16  1  0.98823930  0.99353708  0.99996250  1
  Na  Na17  1  0.66756440  0.31924217  0.83386149  1
  Na  Na18  1  0.68026303  0.33125034  0.33490310  1
  Na  Na19  1  0.34058874  0.66228291  0.16594255  1
  Na  Na20  1  0.33439818  0.66606596  0.66668555  1
  Hf  Hf0  1  0.99671505  0.00085990  0.35208957  1
  Hf  Hf1  1  -0.00023651  0.00329117  0.85162213  1
  Hf  Hf2  1  0.99984287  0.99948213  0.64784572  1
  Hf  Hf3  1  0.99893714  0.99580737  0.14798203  1
  Hf  Hf4  1  0.66711343  0.33350055  0.68549953  1
  Hf  Hf5  1  0.67392821  0.33264755  0.48166588  1
  Zr  Zr0  1  0.66804111  0.34046081  0.18555247  1
  Zr  Zr1  1  0.66610728  0.33043364  0.98157536  1
  Zr  Zr2  1  0.33156461  0.66315466  0.01826147  1
  Zr  Zr3  1  0.33342402  0.67025952  0.51840432  1
  Zr  Zr4  1  0.32903770  0.66862508  0.31488544  1
  Zr  Zr5  1  0.33084866  0.67038511  0.81448012  1
  Si  Si0  1  0.29216227  0.00081855  0.25058839  1
  Si  Si1  1  0.70862729  0.70962685  0.25123844  1
  Si  Si2  1  0.00007287  0.29019197  0.24826263  1
  Si  Si3  1  0.29359541  0.29213823  0.74992161  1
  Si  Si4  1  0.99777016  0.70692184  0.75031742  1
  Si  Si5  1  0.70850969  0.00083854  0.74876767  1
  Si  Si6  1  0.96005169  0.33207428  0.58494573  1
  Si  Si7  1  0.37439314  0.04306643  0.58281315  1
  Si  Si8  1  0.66708298  0.62536397  0.58312132  1
  Si  Si9  1  0.96160500  0.63161597  0.08238419  1
  Si  Si10  1  0.36948573  0.33366203  0.08351339  1
  Si  Si11  1  0.03595764  0.36839426  0.91617091  1
  Si  Si12  1  0.33309318  0.96396856  0.91669631  1
  Si  Si13  1  0.63115844  0.96505746  0.41658622  1
  Si  Si14  1  0.03362523  0.66615902  0.41643802  1
  P  P0  1  0.66739009  0.04040033  0.08468381  1
  P  P1  1  0.62745465  0.66823689  0.91611876  1
  P  P2  1  0.33304353  0.37146332  0.41716114  1
  O  O0  1  0.20511050  0.03081636  0.30805354  1
  O  O1  1  0.82572820  0.79363263  0.30927534  1
  O  O2  1  0.96927030  0.16624210  0.30379777  1
  O  O3  1  0.20431891  0.17249451  0.80724923  1
  O  O4  1  0.96918746  0.79535019  0.80776297  1
  O  O5  1  0.83329459  0.03184832  0.80401901  1
  O  O6  1  0.79309008  0.96950000  0.69040109  1
  O  O7  1  0.17431154  0.20486544  0.69245777  1
  O  O8  1  0.02941395  0.82525691  0.69271185  1
  O  O9  1  0.80011852  0.83344765  0.19584913  1
  O  O10  1  0.03053591  0.20636591  0.18969642  1
  O  O11  1  0.17335834  0.97076511  0.19312917  1
  O  O12  1  0.87553693  0.36516279  0.64284514  1
  O  O13  1  0.49296752  0.12945351  0.64039932  1
  O  O14  1  0.63745815  0.50776094  0.64099785  1
  O  O15  1  0.87542600  0.51043326  0.13991017  1
  O  O16  1  0.63935050  0.12050822  0.13999465  1
  O  O17  1  0.48246280  0.35284447  0.14187416  1
  O  O18  1  0.46013562  0.30285862  0.02658383  1
  O  O19  1  0.84839058  0.53699135  0.02471292  1
  O  O20  1  0.69498007  0.15663959  0.03178745  1
  O  O21  1  0.46189774  0.16111738  0.52539185  1
  O  O22  1  0.69565866  0.53578618  0.52578331  1
  O  O23  1  0.83445200  0.30064592  0.52953656  1
  O  O24  1  0.53920491  0.69008773  0.96893646  1
  O  O25  1  0.15787366  0.46066040  0.97339211  1
  O  O26  1  0.30731686  0.84492338  0.97400061  1
  O  O27  1  0.54084962  0.84375194  0.47394505  1
  O  O28  1  0.31051518  0.45574440  0.47181463  1
  O  O29  1  0.15429456  0.69332177  0.47351370  1
  O  O30  1  0.12414341  0.64149891  0.35827810  1
  O  O31  1  0.51107826  0.87122885  0.35924161  1
  O  O32  1  0.35867573  0.48204190  0.36253519  1
  O  O33  1  0.12878533  0.48815729  0.85894924  1
  O  O34  1  0.35743983  0.87366198  0.85837366  1
  O  O35  1  0.52012002  0.64069440  0.86040238  1
  O  O36  1  0.02554564  0.84022728  0.41212673  1
  O  O37  1  0.81244555  0.97507135  0.41144236  1
  O  O38  1  0.18011561  0.19375877  0.41139424  1
  O  O39  1  0.02732203  0.18797549  0.91138678  1
  O  O40  1  0.15916411  0.97293283  0.91184263  1
  O  O41  1  0.80609839  0.82033634  0.91099392  1
  O  O42  1  0.97754354  0.16427854  0.58878980  1
  O  O43  1  0.18803836  0.02287549  0.58861674  1
  O  O44  1  0.83493348  0.81121995  0.58841353  1
  O  O45  1  0.98737066  0.81922539  0.08777504  1
  O  O46  1  0.82852473  0.03010355  0.08934820  1
  O  O47  1  0.18265938  0.16487697  0.08799279  1
  O  O48  1  0.68879301  0.16755196  0.74448798  1
  O  O49  1  0.47856072  0.30862632  0.74462160  1
  O  O50  1  0.83115319  0.52113386  0.74499367  1
  O  O51  1  0.69219634  0.52413031  0.24509337  1
  O  O52  1  0.83242100  0.30935603  0.24447491  1
  O  O53  1  0.47960489  0.16509748  0.24484458  1
  O  O54  1  0.64182093  0.50785387  0.92208595  1
  O  O55  1  0.85681367  0.36276665  0.92162116  1
  O  O56  1  0.49245523  0.15460593  0.92102968  1
  O  O57  1  0.63389313  0.14307052  0.42193947  1
  O  O58  1  0.49317162  0.35747653  0.42205752  1
  O  O59  1  0.84363178  0.50639397  0.42146857  1
  O  O60  1  0.34608259  0.49772830  0.07923069  1
  O  O61  1  0.14983946  0.65003254  0.07788617  1
  O  O62  1  0.50882435  0.86973406  0.07724585  1
  O  O63  1  0.35591986  0.85628733  0.57786607  1
  O  O64  1  0.49848555  0.64247689  0.57821987  1
  O  O65  1  0.14600658  0.49826106  0.57777376  1
  O  O66  1  0.30937846  0.83178558  0.25464388  1
  O  O67  1  0.52068234  0.68544194  0.25630446  1
  O  O68  1  0.16840367  0.47566705  0.25512238  1
  O  O69  1  0.31452330  0.47886702  0.75567763  1
  O  O70  1  0.16637496  0.68839155  0.75455316  1
  O  O71  1  0.52312020  0.83222287  0.75490947  1
loop_
_geom_bond_atom_site_label_1
_geom_bond_atom_site_label_2
_geom_bond_distance
_geom_bond_site_symmetry_2
Na0 O52 2.491309 1_555
Na0 O67 2.547649 1_545
Na0 O53 2.557085 1_555
Na0 O66 2.601992 1_545
Na0 O31 2.731212 1_545
Na0 O16 2.757565 1_555
Na0 O2 2.914200 1_555
Na0 O9 2.930408 1_545
Na1 O68 2.480045 1_555
Na1 O53 2.542186 1_555
Na1 O67 2.559505 1_555
Na1 O51 2.610904 1_555
Na1 O17 2.689589 1_555
Na1 O32 2.829377 1_555
Na1 O10 2.979596 1_555
Na1 O0 2.989818 1_555
Na2 O51 2.492163 1_455
Na2 O66 2.495265 1_555
Na2 O52 2.584223 1_455
Na2 O68 2.596253 1_555
Na2 O30 2.697319 1_555
Na2 O15 2.768053 1_455
Na3 O50 2.498587 1_555
Na3 O71 2.504967 1_555
Na3 O69 2.546433 1_555
Na3 O49 2.588047 1_555
Na3 O14 2.726976 1_555
Na3 O35 2.767070 1_555
Na4 O48 2.507049 1_555
Na4 O69 2.544924 1_655
Na4 O70 2.577344 1_655
Na4 O50 2.585981 1_555
Na4 O12 2.694897 1_555
Na4 O33 2.748081 1_655
Na4 O5 2.928807 1_555
Na4 O7 2.977160 1_655
Na5 O49 2.479103 1_555
Na5 O70 2.530514 1_545
Na5 O48 2.565005 1_555
Na5 O71 2.596519 1_545
Na5 O34 2.719148 1_545
Na5 O13 2.761620 1_555
Na5 O3 2.962303 1_555
Na5 O8 2.992182 1_545
Na6 O64 2.501197 1_555
Na6 O43 2.502309 1_555
Na6 O65 2.556696 1_555
Na6 O42 2.577608 1_455
Na6 O7 2.732564 1_555
Na6 O28 2.787126 1_555
Na6 O21 2.974042 1_555
Na6 O14 2.977362 1_555
Na7 O44 2.489571 1_455
Na7 O65 2.553120 1_555
Na7 O43 2.574062 1_565
Na7 O63 2.582439 1_555
Na7 O8 2.753298 1_555
Na7 O29 2.763489 1_555
Na8 O42 2.497540 1_565
Na8 O63 2.523825 1_555
Na8 O44 2.574832 1_555
Na8 O64 2.590947 1_555
Na8 O6 2.685358 1_555
Na8 O27 2.761567 1_555
Na8 O23 2.930958 1_565
Na8 O13 2.983659 1_565
Na9 O45 2.459933 1_455
Na9 O47 2.501457 1_565
Na9 O62 2.540484 1_555
Na9 O61 2.540598 1_555
Na9 O26 2.733464 1_554
Na9 O11 2.786408 1_555
Na10 O60 2.469332 1_555
Na10 O46 2.494877 1_455
Na10 O61 2.534614 1_555
Na10 O47 2.536277 1_555
Na10 O10 2.650082 1_555
Na10 O25 2.796414 1_554
Na10 O15 2.944989 1_455
Na10 O20 2.985240 1_455
Na11 O40 2.447048 1_655
Na11 O55 2.464592 1_555
Na11 O41 2.536394 1_555
Na11 O54 2.634057 1_555
Na11 O19 2.725497 1_556
Na11 O4 2.757002 1_555
Na11 O26 2.969770 1_655
Na11 O33 2.998268 1_655
Na12 O56 2.425186 1_555
Na12 O39 2.445878 1_555
Na12 O54 2.538982 1_555
Na12 O40 2.578543 1_545
Na12 O18 2.742741 1_556
Na12 O3 2.772651 1_555
Na13 O57 2.435475 1_555
Na13 O36 2.460555 1_545
Na13 O38 2.521352 1_555
Na13 O58 2.618931 1_555
Na13 O0 2.742581 1_555
Na13 O21 2.758646 1_555
Na13 O29 2.972950 1_545
Na13 O31 2.995309 1_545
Na14 O59 2.423174 1_555
Na14 O37 2.476859 1_555
Na14 O58 2.529887 1_555
Na14 O36 2.578791 1_655
Na14 O22 2.731379 1_555
Na14 O1 2.733508 1_555
Na15 O37 2.546223 1_545
Na15 O42 2.570811 1_555
Na15 O36 2.597519 1_645
Na15 O44 2.621648 1_545
Na15 O38 2.636708 1_655
Na15 O43 2.647259 1_655
Na16 O45 2.563537 1_556
Na16 O39 2.601603 1_665
Na16 O41 2.608155 1_555
Na16 O40 2.618136 1_655
Na16 O47 2.627354 1_666
Na16 O46 2.632932 1_566
Na17 O56 2.530307 1_555
Na17 O48 2.535208 1_555
Na17 O55 2.550333 1_555
Na17 O49 2.647362 1_555
Na17 O50 2.650933 1_555
Na17 O54 2.746412 1_555
Na18 O59 2.517956 1_555
Na18 O57 2.526336 1_555
Na18 O52 2.558294 1_555
Na18 O53 2.673733 1_555
Na18 O51 2.676396 1_555
Na18 O58 2.719572 1_555
Na19 O60 2.509165 1_555
Na19 O67 2.586201 1_555
Na19 O68 2.621914 1_555
Na19 O61 2.632588 1_555
Na19 O66 2.658909 1_555
Na19 O62 2.678794 1_555
Na20 O64 2.594888 1_555
Na20 O71 2.598735 1_555
Na20 O70 2.602695 1_555
Na20 O69 2.608760 1_555
Na20 O65 2.613699 1_555
Na20 O63 2.619218 1_555
Hf0 O2 1.993994 1_555
Hf0 O1 2.016390 1_545
Hf0 O0 2.057201 1_655
Hf0 O37 2.088687 1_545
Hf0 O36 2.126380 1_645
Hf0 O38 2.198881 1_655
Hf1 O5 1.998705 1_455
Hf1 O3 2.014011 1_555
Hf1 O4 2.051358 1_445
Hf1 O39 2.094500 1_555
Hf1 O40 2.127106 1_545
Hf1 O41 2.199940 1_445
Hf2 O6 2.027657 1_555
Hf2 O8 2.031335 1_655
Hf2 O7 2.037454 1_665
Hf2 O42 2.113321 1_565
Hf2 O43 2.120940 1_665
Hf2 O44 2.124965 1_555
Hf3 O9 2.008411 1_555
Hf3 O11 2.014174 1_655
Hf3 O10 2.045832 1_665
Hf3 O45 2.090904 1_555
Hf3 O47 2.125374 1_665
Hf3 O46 2.200029 1_565
Hf4 O14 2.027848 1_555
Hf4 O13 2.035564 1_555
Hf4 O12 2.036986 1_555
Hf4 O49 2.117743 1_555
Hf4 O48 2.117873 1_555
Hf4 O50 2.120779 1_555
Hf5 O23 1.973264 1_555
Hf5 O22 2.044074 1_555
Hf5 O21 2.051390 1_555
Hf5 O59 2.092892 1_555
Hf5 O57 2.097421 1_555
Hf5 O58 2.246159 1_555
O0 Si0 1.631114 1_555
O1 Si1 1.637142 1_555
O2 Si2 1.631641 1_655
O3 Si3 1.640708 1_555
O4 Si4 1.633157 1_555
O5 Si5 1.631268 1_555
O6 Si5 1.639933 1_565
O7 Si3 1.639599 1_555
O8 Si4 1.637013 1_455
O9 Si1 1.625807 1_555
O10 Si2 1.636875 1_555
O11 Si0 1.639470 1_565
O12 Si6 1.637703 1_555
O13 Si7 1.637818 1_555
O14 Si8 1.641063 1_555
O15 Si9 1.645993 1_555
O15 Zr0 2.045081 1_555
O16 P0 1.548004 1_555
O16 Zr0 2.171960 1_555
O17 Si10 1.643580 1_555
O17 Zr0 2.028161 1_555
O18 Si10 1.643840 1_555
O18 Zr1 2.056303 1_554
O19 Si9 1.633770 1_555
O19 Zr1 2.050948 1_554
O20 P0 1.546766 1_555
O20 Zr1 2.088836 1_554
O21 Si7 1.633631 1_555
O22 Si8 1.637320 1_555
O23 Si6 1.637991 1_555
O24 P1 1.522277 1_555
O24 Zr2 2.122139 1_556
O25 Si11 1.653019 1_555
O25 Zr2 2.023988 1_556
O26 Si12 1.644615 1_555
O26 Zr2 2.058705 1_556
O27 Si13 1.649294 1_555
O27 Zr3 2.041610 1_555
O28 P2 1.537454 1_555
O28 Zr3 2.158695 1_555
O29 Si14 1.647262 1_555
O29 Zr3 2.039010 1_555
O30 Si14 1.642422 1_555
O30 Zr4 2.030938 1_555
O31 Si13 1.650877 1_555
O31 Zr4 2.045160 1_555
O32 P2 1.550304 1_555
O32 Zr4 2.161015 1_555
O33 Si11 1.644939 1_555
O33 Zr5 2.043310 1_555
O34 Si12 1.643702 1_555
O34 Zr5 2.026967 1_555
O35 P1 1.550976 1_555
O35 Zr5 2.162844 1_555
O36 Si14 1.643151 1_555
O37 Si13 1.627477 1_555
O38 P2 1.538856 1_555
O39 Si11 1.625781 1_555
O40 Si12 1.646200 1_555
O41 P1 1.539635 1_555
O42 Si6 1.632868 1_555
O43 Si7 1.634355 1_555
O44 Si8 1.637276 1_555
O45 Si9 1.625694 1_555
O46 P0 1.535272 1_555
O47 Si10 1.644423 1_555
O48 Si5 1.635307 1_555
O49 Si3 1.635068 1_555
O50 Si4 1.632235 1_555
O51 Si1 1.642768 1_555
O51 Zr0 2.093272 1_555
O52 Si2 1.639575 1_655
O52 Zr0 2.146496 1_555
O53 Si0 1.632781 1_555
O53 Zr0 2.153556 1_555
O54 P1 1.552126 1_555
O54 Zr1 2.218090 1_555
O55 Si11 1.627150 1_655
O55 Zr1 2.125208 1_555
O56 Si12 1.631692 1_545
O56 Zr1 2.120195 1_555
O57 Si13 1.630416 1_545
O58 P2 1.545190 1_555
O59 Si14 1.629949 1_655
O60 Si10 1.631059 1_555
O60 Zr2 2.114528 1_555
O61 Si9 1.656177 1_455
O61 Zr2 2.111825 1_555
O62 P0 1.526504 1_565
O62 Zr2 2.232957 1_555
O63 Si7 1.644397 1_565
O63 Zr3 2.113186 1_555
O64 Si8 1.638916 1_555
O64 Zr3 2.149538 1_555
O65 Si6 1.634800 1_455
O65 Zr3 2.140056 1_555
O66 Si0 1.643009 1_565
O66 Zr4 2.108416 1_555
O67 Si1 1.632779 1_555
O67 Zr4 2.155725 1_555
O68 Si2 1.640191 1_555
O68 Zr4 2.138772 1_555
O69 Si3 1.635987 1_555
O69 Zr5 2.161017 1_555
O70 Si4 1.645491 1_455
O70 Zr5 2.106139 1_555
O71 Si5 1.639018 1_565
O71 Zr5 2.134483 1_555
