# generated using pymatgen
data_Na3Zr2Ga2P5SO24
_symmetry_space_group_name_H-M   'P 1'
_cell_length_a   8.78934719
_cell_length_b   8.76929122
_cell_length_c   22.71707509
_cell_angle_alpha   90.22847765
_cell_angle_beta   89.81860604
_cell_angle_gamma   120.18507923
_symmetry_Int_Tables_number   1
_chemical_formula_structural   Na3Zr2Ga2P5SO24
_chemical_formula_sum   'Na9 Zr6 Ga6 P15 S3 O72'
_cell_volume   1513.51711923
_cell_formula_units_Z   3
loop_
 _symmetry_equiv_pos_site_id
 _symmetry_equiv_pos_as_xyz
  1  'x, y, z'
loop_
 _atom_site_type_symbol
 _atom_site_label
 _atom_site_symmetry_multiplicity
 _atom_site_fract_x
 _atom_site_fract_y
 _atom_site_fract_z
 _atom_site_occupancy
  Na  Na0  1  0.00287545  0.36543731  0.75102961  1
  Na  Na1  1  0.66734121  0.96818129  0.58361437  1
  Na  Na2  1  0.03291777  0.33370275  0.08358679  1
  Na  Na3  1  0.00510491  0.99636963  0.50311329  1
  Na  Na4  1  0.00392904  0.99570531  0.00264278  1
  Na  Na5  1  0.65997091  0.32903269  0.83370746  1
  Na  Na6  1  0.67421234  0.33593014  0.33310215  1
  Na  Na7  1  0.34072544  0.67021469  0.16732205  1
  Na  Na8  1  0.33362675  0.66697989  0.66659348  1
  Zr  Zr0  1  0.98744585  0.99207913  0.35461444  1
  Zr  Zr1  1  0.00618326  0.00362931  0.85434982  1
  Zr  Zr2  1  0.66179399  0.33483074  0.68474655  1
  Zr  Zr3  1  0.67035683  0.33760824  0.18547083  1
  Zr  Zr4  1  0.66554928  0.32827110  0.98091798  1
  Zr  Zr5  1  0.67286650  0.33453508  0.48064002  1
  Ga  Ga0  1  0.00480879  0.99781519  0.64967955  1
  Ga  Ga1  1  0.99043272  0.99652638  0.14859174  1
  Ga  Ga2  1  0.32920649  0.67113356  0.01906450  1
  Ga  Ga3  1  0.32806305  0.67118489  0.51891763  1
  Ga  Ga4  1  0.33146238  0.66472829  0.31443601  1
  Ga  Ga5  1  0.33216703  0.67573423  0.81366583  1
  P  P0  1  0.70164998  0.71198088  0.24886326  1
  P  P1  1  0.00918636  0.29584362  0.24905846  1
  P  P2  1  0.28886013  0.29535651  0.74922928  1
  P  P3  1  0.00680757  0.71439706  0.74899030  1
  P  P4  1  0.70449686  0.99011704  0.74887729  1
  P  P5  1  0.97134032  0.33565373  0.58404448  1
  P  P6  1  0.36342109  0.03406390  0.58265285  1
  P  P7  1  0.66548372  0.63356624  0.58257928  1
  P  P8  1  0.96649456  0.63743773  0.08300672  1
  P  P9  1  0.66267299  0.02950189  0.08357517  1
  P  P10  1  0.36725740  0.33338055  0.08351020  1
  P  P11  1  0.05333533  0.38801437  0.91668858  1
  P  P12  1  0.33350782  0.94603449  0.91690004  1
  P  P13  1  0.60922366  0.94496128  0.41693016  1
  P  P14  1  0.05564757  0.66728578  0.41598478  1
  S  S0  1  0.28627564  0.99361070  0.24932643  1
  S  S1  1  0.61354280  0.66593004  0.91663743  1
  S  S2  1  0.33388254  0.38467064  0.41677803  1
  O  O0  1  0.20907591  0.02560318  0.30310013  1
  O  O1  1  0.81930760  0.79174571  0.30401331  1
  O  O2  1  0.97764757  0.17842340  0.30353083  1
  O  O3  1  0.20774443  0.18013519  0.80458432  1
  O  O4  1  0.97187528  0.79281154  0.80456730  1
  O  O5  1  0.82533170  0.03025218  0.80311363  1
  O  O6  1  0.78829225  0.96708186  0.69251181  1
  O  O7  1  0.17033159  0.21049573  0.69539721  1
  O  O8  1  0.03354624  0.82593680  0.69437295  1
  O  O9  1  0.79178793  0.82549437  0.19453928  1
  O  O10  1  0.03449540  0.21190154  0.19268233  1
  O  O11  1  0.18000858  0.96902564  0.19640344  1
  O  O12  1  0.88503699  0.36591020  0.63924553  1
  O  O13  1  0.48736823  0.11931543  0.63641168  1
  O  O14  1  0.63446964  0.51523201  0.63686936  1
  O  O15  1  0.88064915  0.51239341  0.13646725  1
  O  O16  1  0.63360230  0.11894812  0.13757420  1
  O  O17  1  0.48584575  0.36409241  0.13742038  1
  O  O18  1  0.45478171  0.30231179  0.02902758  1
  O  O19  1  0.84792333  0.54768109  0.02889160  1
  O  O20  1  0.70235997  0.15454031  0.02992436  1
  O  O21  1  0.45437567  0.15257501  0.52869066  1
  O  O22  1  0.69677312  0.54485223  0.52864267  1
  O  O23  1  0.84476474  0.29809396  0.53086990  1
  O  O24  1  0.53821873  0.69356107  0.97058667  1
  O  O25  1  0.16036487  0.46491544  0.97336318  1
  O  O26  1  0.30553716  0.83863472  0.97257205  1
  O  O27  1  0.53624008  0.83994925  0.47410566  1
  O  O28  1  0.30566535  0.46062724  0.47049138  1
  O  O29  1  0.16155499  0.69498624  0.47219426  1
  O  O30  1  0.13346349  0.63581898  0.36012043  1
  O  O31  1  0.50215237  0.86277497  0.36111182  1
  O  O32  1  0.36239602  0.48768806  0.36284258  1
  O  O33  1  0.13275035  0.49211259  0.85966201  1
  O  O34  1  0.36553743  0.86935797  0.86072383  1
  O  O35  1  0.51083354  0.63824070  0.86274260  1
  O  O36  1  0.03331983  0.83164392  0.41056582  1
  O  O37  1  0.79873501  0.97222277  0.41190851  1
  O  O38  1  0.17655775  0.20350507  0.41101284  1
  O  O39  1  0.02646095  0.19892820  0.91181463  1
  O  O40  1  0.16979521  0.96855211  0.91179322  1
  O  O41  1  0.79471488  0.82427861  0.91158642  1
  O  O42  1  0.97564112  0.16332551  0.59087391  1
  O  O43  1  0.18446542  0.01993456  0.59104529  1
  O  O44  1  0.83004218  0.81691868  0.59048075  1
  O  O45  1  0.98237745  0.81758318  0.09225536  1
  O  O46  1  0.83522395  0.02481956  0.09039303  1
  O  O47  1  0.18318707  0.16872368  0.09130286  1
  O  O48  1  0.69320287  0.16206609  0.74343582  1
  O  O49  1  0.47222945  0.31257522  0.74396258  1
  O  O50  1  0.84289589  0.52527998  0.74369825  1
  O  O51  1  0.68488888  0.52743085  0.24352124  1
  O  O52  1  0.84045432  0.31043912  0.24368981  1
  O  O53  1  0.46529871  0.15523012  0.24420277  1
  O  O54  1  0.63708344  0.50816531  0.92177707  1
  O  O55  1  0.86636474  0.36504675  0.92207243  1
  O  O56  1  0.49595222  0.13519264  0.92218365  1
  O  O57  1  0.63520646  0.13355153  0.42198043  1
  O  O58  1  0.49178797  0.36226176  0.42201025  1
  O  O59  1  0.86630255  0.50482073  0.42190312  1
  O  O60  1  0.34734902  0.49706338  0.07554172  1
  O  O61  1  0.14363865  0.64238910  0.07622519  1
  O  O62  1  0.49886318  0.84908742  0.07465148  1
  O  O63  1  0.35784275  0.85616309  0.57611596  1
  O  O64  1  0.50186031  0.65239891  0.57523642  1
  O  O65  1  0.15057289  0.50098247  0.57473472  1
  O  O66  1  0.30679112  0.83730004  0.25579970  1
  O  O67  1  0.52016565  0.69309314  0.25778582  1
  O  O68  1  0.17179951  0.48005434  0.25725516  1
  O  O69  1  0.30438376  0.47675044  0.75773116  1
  O  O70  1  0.16559455  0.68607688  0.75582124  1
  O  O71  1  0.52134847  0.82785416  0.75748959  1
loop_
_geom_bond_atom_site_label_1
_geom_bond_atom_site_label_2
_geom_bond_distance
_geom_bond_site_symmetry_2
Na0 O69 2.323560 1_555
Na0 O48 2.395389 1_455
Na0 O70 2.432713 1_555
Na0 O50 2.440288 1_455
Na0 O33 2.710714 1_555
Na0 O12 2.746340 1_455
Na0 O7 2.755930 1_555
Na0 O5 2.806846 1_455
Na1 O42 2.374017 1_565
Na1 O63 2.389228 1_555
Na1 O44 2.395705 1_555
Na1 O64 2.401550 1_555
Na1 O6 2.697633 1_555
Na1 O27 2.733837 1_555
Na1 O23 2.777867 1_565
Na1 O13 2.789414 1_565
Na2 O46 2.376733 1_455
Na2 O61 2.378274 1_555
Na2 O60 2.396046 1_555
Na2 O47 2.406913 1_555
Na2 O10 2.705439 1_555
Na2 O25 2.749122 1_554
Na2 O15 2.788084 1_455
Na2 O20 2.795123 1_455
Na3 O43 2.491431 1_565
Na3 O44 2.520673 1_455
Na3 O42 2.557348 1_465
Na3 O36 2.626973 1_555
Na3 O38 2.684330 1_565
Na3 O37 2.694768 1_455
Na4 O45 2.518997 1_455
Na4 O47 2.536310 1_565
Na4 O46 2.568186 1_465
Na4 O40 2.601455 1_554
Na4 O41 2.672004 1_454
Na4 O39 2.672905 1_564
Na5 O56 2.559723 1_555
Na5 O49 2.584508 1_555
Na5 O54 2.607869 1_555
Na5 O48 2.614738 1_555
Na5 O55 2.619560 1_555
Na5 O50 2.636760 1_555
Na6 O59 2.568415 1_555
Na6 O52 2.572297 1_555
Na6 O57 2.599249 1_555
Na6 O51 2.614920 1_555
Na6 O53 2.652018 1_555
Na6 O58 2.655482 1_555
Na7 O67 2.539696 1_555
Na7 O62 2.576752 1_555
Na7 O68 2.584065 1_555
Na7 O66 2.586101 1_555
Na7 O60 2.592101 1_555
Na7 O61 2.633731 1_555
Na8 O70 2.558322 1_555
Na8 O71 2.575656 1_555
Na8 O64 2.584282 1_555
Na8 O63 2.586802 1_555
Na8 O65 2.589224 1_555
Na8 O69 2.593910 1_555
Ga0 O8 1.939874 1_555
Ga0 O7 1.984747 1_565
Ga0 O43 1.996504 1_565
Ga0 O6 2.028689 1_455
Ga0 O44 2.056761 1_455
Ga0 O42 2.085358 1_465
Ga1 O9 1.937791 1_555
Ga1 O10 1.993031 1_665
Ga1 O45 1.994526 1_555
Ga1 O46 2.006219 1_565
Ga1 O47 2.067209 1_665
Ga1 O11 2.105202 1_655
Ga2 O26 1.907197 1_554
Ga2 O25 1.961255 1_554
Ga2 O62 1.977277 1_555
Ga2 O61 1.996422 1_555
Ga2 O24 2.062025 1_554
Ga2 O60 2.064780 1_555
Ga3 O29 1.905458 1_555
Ga3 O27 1.962568 1_555
Ga3 O65 1.982511 1_555
Ga3 O63 1.986600 1_555
Ga3 O64 2.065082 1_555
Ga3 O28 2.068326 1_555
Ga4 O30 1.927932 1_555
Ga4 O31 1.940771 1_555
Ga4 O68 1.997190 1_555
Ga4 O67 2.010749 1_555
Ga4 O32 2.033089 1_555
Ga4 O66 2.111738 1_555
Ga5 O34 1.896985 1_555
Ga5 O33 1.980023 1_555
Ga5 O71 1.985588 1_555
Ga5 O70 2.006271 1_555
Ga5 O69 2.067575 1_555
Ga5 O35 2.085741 1_555
O0 S0 1.488229 1_545
O0 Zr0 2.159397 1_445
O1 P0 1.549886 1_555
O1 Zr0 1.993877 1_555
O2 P1 1.545754 1_655
O2 Zr0 2.044917 1_545
O3 P2 1.546157 1_555
O3 Zr1 2.014008 1_555
O4 P3 1.537553 1_655
O4 Zr1 2.052453 1_665
O5 P4 1.548816 1_545
O5 Zr1 2.079192 1_655
O6 P4 1.537659 1_555
O7 P2 1.534868 1_555
O8 P3 1.525806 1_555
O9 P0 1.533647 1_555
O10 P1 1.544953 1_555
O11 S0 1.472018 1_555
O12 P5 1.553075 1_555
O12 Zr2 2.108180 1_555
O13 P6 1.555412 1_555
O13 Zr2 2.051417 1_555
O14 P7 1.547846 1_555
O14 Zr2 2.034883 1_555
O15 P8 1.555468 1_555
O15 Zr3 2.038777 1_555
O16 P9 1.541821 1_555
O16 Zr3 2.080318 1_555
O17 P10 1.543361 1_555
O17 Zr3 2.065780 1_555
O18 P10 1.549172 1_555
O18 Zr4 2.059893 1_554
O19 P8 1.546747 1_555
O19 Zr4 2.086171 1_554
O20 P9 1.559737 1_555
O20 Zr4 2.043671 1_554
O21 P6 1.546087 1_555
O21 Zr5 2.084409 1_555
O22 P7 1.545179 1_555
O22 Zr5 2.056834 1_555
O23 P5 1.562763 1_555
O23 Zr5 2.046034 1_555
O24 S1 1.467259 1_555
O25 P11 1.536275 1_555
O26 P12 1.523693 1_555
O27 P13 1.535184 1_555
O28 S2 1.466906 1_555
O29 P14 1.527640 1_555
O30 P14 1.528391 1_555
O31 P13 1.526825 1_555
O32 S2 1.469485 1_555
O33 P11 1.536801 1_555
O34 P12 1.530094 1_555
O35 S1 1.468708 1_555
O36 P14 1.554678 1_555
O36 Zr0 2.084578 1_455
O37 P13 1.563088 1_555
O37 Zr0 2.042835 1_555
O38 S2 1.497858 1_555
O38 Zr0 2.176552 1_445
O39 P11 1.556394 1_555
O39 Zr1 2.084641 1_555
O40 P12 1.552393 1_555
O40 Zr1 2.079752 1_565
O41 S1 1.501212 1_555
O41 Zr1 2.163405 1_665
O42 P5 1.539014 1_555
O43 P6 1.525790 1_555
O44 P7 1.539549 1_555
O45 P8 1.528073 1_555
O46 P9 1.545943 1_555
O47 P10 1.544287 1_555
O48 P4 1.565533 1_545
O48 Zr2 2.141980 1_555
O49 P2 1.545601 1_555
O49 Zr2 2.069941 1_555
O50 P3 1.561175 1_655
O50 Zr2 2.106855 1_555
O51 P0 1.553820 1_555
O51 Zr3 2.072693 1_555
O52 P1 1.556543 1_655
O52 Zr3 2.101031 1_555
O53 S0 1.501911 1_545
O53 Zr3 2.165534 1_555
O54 S1 1.503252 1_555
O54 Zr4 2.184535 1_555
O55 P11 1.556345 1_655
O55 Zr4 2.102971 1_555
O56 P12 1.556408 1_545
O56 Zr4 2.079824 1_555
O57 P13 1.555390 1_545
O57 Zr5 2.095012 1_555
O58 S2 1.501486 1_555
O58 Zr5 2.184327 1_555
O59 P14 1.559910 1_655
O59 Zr5 2.085528 1_555
O60 P10 1.542256 1_555
O61 P8 1.542842 1_455
O62 P9 1.525057 1_565
O63 P6 1.542575 1_565
O64 P7 1.537507 1_555
O65 P5 1.527089 1_455
O66 S0 1.477625 1_555
O67 P0 1.531501 1_555
O68 P1 1.537702 1_555
O69 P2 1.538083 1_555
O70 P3 1.543946 1_555
O71 P4 1.533353 1_555
