# generated using pymatgen
data_MgV5O10
_symmetry_space_group_name_H-M   'P 1'
_cell_length_a   5.54774153
_cell_length_b   7.45279797
_cell_length_c   5.43930981
_cell_angle_alpha   69.66361044
_cell_angle_beta   61.62971183
_cell_angle_gamma   78.89941868
_symmetry_Int_Tables_number   1
_chemical_formula_structural   MgV5O10
_chemical_formula_sum   'Mg1 V5 O10'
_cell_volume   185.44707282
_cell_formula_units_Z   1
loop_
 _symmetry_equiv_pos_site_id
 _symmetry_equiv_pos_as_xyz
  1  'x, y, z'
loop_
 _atom_site_type_symbol
 _atom_site_label
 _atom_site_symmetry_multiplicity
 _atom_site_fract_x
 _atom_site_fract_y
 _atom_site_fract_z
 _atom_site_occupancy
  Mg  Mg0  1  0.98054800  0.39274200  0.69194700  1
  V  V0  1  0.00160400  0.98503900  0.00946300  1
  V  V1  1  0.48553400  0.61939000  0.70191100  1
  V  V2  1  0.47643100  0.18582600  0.91097700  1
  V  V3  1  0.52988200  0.39607300  0.28639900  1
  V  V4  1  0.98257200  0.81101600  0.58980400  1
  O  O0  1  0.72327900  0.59199600  0.89370400  1
  O  O1  1  0.78653100  0.79367100  0.39557300  1
  O  O2  1  0.78033300  0.98863400  0.78136000  1
  O  O3  1  0.70455300  0.39742400  0.55071200  1
  O  O4  1  0.73922600  0.20187600  0.08318800  1
  O  O5  1  0.21818600  0.79592100  0.80489800  1
  O  O6  1  0.29279800  0.20003100  0.67798100  1
  O  O7  1  0.26863000  0.59347800  0.49016400  1
  O  O8  1  0.20798500  0.99109500  0.21186200  1
  O  O9  1  0.30603600  0.38654500  0.06111600  1
loop_
_geom_bond_atom_site_label_1
_geom_bond_atom_site_label_2
_geom_bond_distance
_geom_bond_site_symmetry_2
Mg0 O3 2.003606 1_555
Mg0 O6 2.015465 1_655
Mg0 O7 2.027172 1_655
Mg0 O4 2.065490 1_556
Mg0 O0 2.067534 1_555
O0 V1 1.981289 1_555
O0 V3 2.025637 1_556
O0 V4 2.057938 1_555
O1 V4 1.885926 1_555
O1 V1 1.984586 1_555
O1 V0 2.015050 1_655
O2 V4 1.836455 1_555
O2 V2 2.033676 1_565
O2 V0 2.111550 1_656
O3 V1 2.027641 1_555
O3 V2 2.047517 1_555
O3 V3 2.084185 1_555
O4 V0 1.970053 1_645
O4 V3 1.977371 1_555
O4 V2 2.111898 1_554
O5 V1 1.793276 1_555
O5 V0 1.958509 1_556
O5 V4 2.096491 1_455
O6 V2 1.935818 1_555
O6 V3 2.077481 1_555
O6 V0 2.156065 1_546
O7 V4 2.059941 1_455
O7 V3 2.068632 1_555
O7 V1 2.091178 1_555
O8 V0 1.943520 1_555
O8 V2 1.966648 1_564
O8 V4 1.968912 1_455
O9 V2 1.835552 1_554
O9 V1 2.068878 1_554
O9 V3 2.142281 1_555
