# generated using pymatgen
data_Lu4MgTi2O10
_symmetry_space_group_name_H-M   'P 1'
_cell_length_a   4.04798015
_cell_length_b   5.78208182
_cell_length_c   10.53632400
_cell_angle_alpha   89.99833584
_cell_angle_beta   89.99926751
_cell_angle_gamma   69.47836960
_symmetry_Int_Tables_number   1
_chemical_formula_structural   Lu4MgTi2O10
_chemical_formula_sum   'Lu4 Mg1 Ti2 O10'
_cell_volume   230.96066083
_cell_formula_units_Z   1
loop_
 _symmetry_equiv_pos_site_id
 _symmetry_equiv_pos_as_xyz
  1  'x, y, z'
loop_
 _atom_site_type_symbol
 _atom_site_label
 _atom_site_symmetry_multiplicity
 _atom_site_fract_x
 _atom_site_fract_y
 _atom_site_fract_z
 _atom_site_occupancy
  Lu  Lu0  1  0.13675400  0.72609300  0.92805300  1
  Lu  Lu1  1  0.13675300  0.72610000  0.57194400  1
  Lu  Lu2  1  0.85563000  0.28996100  0.05789300  1
  Lu  Lu3  1  0.85562400  0.28997700  0.44210100  1
  Mg  Mg0  1  0.53324100  0.94697500  0.25000600  1
  Ti  Ti0  1  0.21208800  0.57737800  0.24999900  1
  Ti  Ti1  1  0.81797700  0.36430500  0.74999600  1
  O  O0  1  0.04185100  0.90879300  0.37468900  1
  O  O1  1  0.04186700  0.90878200  0.12530400  1
  O  O2  1  0.69987300  0.60023700  0.91039400  1
  O  O3  1  0.69984900  0.60024700  0.58961600  1
  O  O4  1  0.26123400  0.47776600  0.75000500  1
  O  O5  1  0.71649000  0.56785600  0.24999800  1
  O  O6  1  0.29155800  0.41813400  0.07326800  1
  O  O7  1  0.29153800  0.41817100  0.42673600  1
  O  O8  1  0.94550900  0.11045100  0.62325100  1
  O  O9  1  0.94549500  0.11044100  0.87674300  1
loop_
_geom_bond_atom_site_label_1
_geom_bond_atom_site_label_2
_geom_bond_distance
_geom_bond_site_symmetry_2
Lu0 O2 2.143372 1_455
Lu0 O2 2.144119 1_555
Lu0 O9 2.150361 1_465
Lu0 O6 2.263163 1_556
Lu0 O1 2.301808 1_556
Lu0 O4 2.308180 1_555
Lu1 O3 2.143453 1_455
Lu1 O3 2.144044 1_555
Lu1 O8 2.150396 1_465
Lu1 O7 2.263053 1_555
Lu1 O0 2.301810 1_555
Lu1 O4 2.308256 1_555
Lu2 O9 2.141984 1_554
Lu2 O6 2.145398 1_555
Lu2 O6 2.146234 1_655
Lu2 O1 2.182987 1_645
Lu2 O2 2.288695 1_554
Lu2 O5 2.522224 1_555
Lu3 O8 2.141953 1_555
Lu3 O7 2.145441 1_555
Lu3 O7 2.146243 1_655
Lu3 O0 2.183051 1_645
Lu3 O3 2.288846 1_555
Lu3 O5 2.522092 1_555
Mg0 O5 2.053160 1_555
Mg0 O0 2.386368 1_655
Mg0 O1 2.386497 1_655
Mg0 O0 2.457443 1_555
Mg0 O1 2.457553 1_555
O0 Ti0 2.224239 1_555
O1 Ti0 2.224166 1_555
O2 Ti1 2.118611 1_555
O3 Ti1 2.118439 1_555
O4 Ti1 2.114916 1_555
O4 Ti1 2.115466 1_455
O5 Ti0 2.023166 1_555
O5 Ti0 2.026128 1_655
O6 Ti0 2.052096 1_555
O7 Ti0 2.052028 1_555
O8 Ti1 1.916545 1_555
O9 Ti1 1.916549 1_555
