# generated using pymatgen
data_MnSeO4
_symmetry_space_group_name_H-M   'P 1'
_cell_length_a   4.98491009
_cell_length_b   6.94996153
_cell_length_c   9.28500824
_cell_angle_alpha   90.00000000
_cell_angle_beta   90.00000000
_cell_angle_gamma   90.00000000
_symmetry_Int_Tables_number   1
_chemical_formula_structural   MnSeO4
_chemical_formula_sum   'Mn4 Se4 O16'
_cell_volume   321.67849168
_cell_formula_units_Z   4
loop_
 _symmetry_equiv_pos_site_id
 _symmetry_equiv_pos_as_xyz
  1  'x, y, z'
loop_
 _atom_site_type_symbol
 _atom_site_label
 _atom_site_symmetry_multiplicity
 _atom_site_fract_x
 _atom_site_fract_y
 _atom_site_fract_z
 _atom_site_occupancy
  Mn  Mn0  1  -0.00000000  0.00000000  0.00000000  1
  Mn  Mn1  1  0.50000000  0.00000000  0.50000000  1
  Mn  Mn2  1  -0.00000000  0.50000000  0.00000000  1
  Mn  Mn3  1  0.50000000  0.50000000  0.50000000  1
  Se  Se0  1  0.51876714  0.75000000  0.81864520  1
  Se  Se1  1  0.01876714  0.25000000  0.68135480  1
  Se  Se2  1  0.48123286  0.25000000  0.18135480  1
  Se  Se3  1  0.98123286  0.75000000  0.31864520  1
  O  O0  1  0.16543045  0.44822481  0.62576932  1
  O  O1  1  0.66543045  0.55177519  0.87423068  1
  O  O2  1  0.83456955  0.94822481  0.37423068  1
  O  O3  1  0.33456955  0.05177519  0.12576932  1
  O  O4  1  0.83456955  0.55177519  0.37423068  1
  O  O5  1  0.33456955  0.44822481  0.12576932  1
  O  O6  1  0.16543045  0.05177519  0.62576932  1
  O  O7  1  0.66543045  0.94822481  0.87423068  1
  O  O8  1  0.20248040  0.75000000  0.87686864  1
  O  O9  1  0.70248040  0.25000000  0.62313136  1
  O  O10  1  0.79751960  0.25000000  0.12313136  1
  O  O11  1  0.29751960  0.75000000  0.37686864  1
  O  O12  1  0.54598312  0.75000000  0.63826846  1
  O  O13  1  0.04598312  0.25000000  0.86173154  1
  O  O14  1  0.45401688  0.25000000  0.36173154  1
  O  O15  1  0.95401688  0.75000000  0.13826846  1
loop_
_geom_bond_atom_site_label_1
_geom_bond_atom_site_label_2
_geom_bond_distance
_geom_bond_site_symmetry_2
Mn0 O7 2.067540 1_444
Mn0 O3 2.067540 1_555
Mn0 O13 2.172468 1_554
Mn0 O15 2.172468 1_445
Mn0 O10 2.311868 1_455
Mn0 O8 2.311868 1_544
Mn1 O6 2.067540 1_555
Mn1 O2 2.067540 1_545
Mn1 O14 2.172468 1_555
Mn1 O12 2.172468 1_545
Mn1 O9 2.311868 1_555
Mn1 O11 2.311868 1_545
Mn2 O1 2.067540 1_454
Mn2 O5 2.067540 1_555
Mn2 O15 2.172468 1_455
Mn2 O13 2.172468 1_554
Mn2 O10 2.311868 1_455
Mn2 O8 2.311868 1_554
Mn3 O0 2.067540 1_555
Mn3 O4 2.067540 1_555
Mn3 O14 2.172468 1_555
Mn3 O12 2.172468 1_555
Mn3 O9 2.311868 1_555
Mn3 O11 2.311868 1_555
O0 Se1 1.642807 1_555
O1 Se0 1.642807 1_555
O2 Se3 1.642807 1_555
O3 Se2 1.642807 1_555
O4 Se3 1.642807 1_555
O5 Se2 1.642807 1_555
O6 Se1 1.642807 1_555
O7 Se0 1.642807 1_555
O8 Se0 1.666767 1_555
O9 Se1 1.666767 1_655
O10 Se2 1.666767 1_555
O11 Se3 1.666767 1_455
O12 Se0 1.680286 1_555
O13 Se1 1.680286 1_555
O14 Se2 1.680286 1_555
O15 Se3 1.680286 1_555
