# generated using pymatgen
data_Ba2LaMgBiO6
_symmetry_space_group_name_H-M   'P 1'
_cell_length_a   6.83782646
_cell_length_b   6.83782646
_cell_length_c   6.33858867
_cell_angle_alpha   91.00333079
_cell_angle_beta   115.34382548
_cell_angle_gamma   125.94235783
_symmetry_Int_Tables_number   1
_chemical_formula_structural   Ba2LaMgBiO6
_chemical_formula_sum   'Ba2 La1 Mg1 Bi1 O6'
_cell_volume   201.68872113
_cell_formula_units_Z   1
loop_
 _symmetry_equiv_pos_site_id
 _symmetry_equiv_pos_as_xyz
  1  'x, y, z'
loop_
 _atom_site_type_symbol
 _atom_site_label
 _atom_site_symmetry_multiplicity
 _atom_site_fract_x
 _atom_site_fract_y
 _atom_site_fract_z
 _atom_site_occupancy
  Ba  Ba0  1  0.09913826  0.64790429  0.74704354  1
  Ba  Ba1  1  0.98698866  0.22260539  0.20959305  1
  La  La0  1  0.43552220  0.03042892  0.46595112  1
  Mg  Mg0  1  0.69954149  0.78925744  0.48879892  1
  Bi  Bi0  1  0.50177047  0.46914542  0.97091589  1
  O  O0  1  0.97337888  0.19217236  0.68131607  1
  O  O1  1  0.51083985  0.38140401  0.34603353  1
  O  O2  1  0.96463052  0.83519368  0.34603353  1
  O  O3  1  0.48914371  0.70793619  0.68131607  1
  O  O4  1  0.61893045  0.25845267  0.87738311  1
  O  O5  1  0.41803251  0.77799964  0.19603215  1
loop_
_geom_bond_atom_site_label_1
_geom_bond_atom_site_label_2
_geom_bond_distance
_geom_bond_site_symmetry_2
Ba0 O5 2.442752 1_556
Ba0 O0 2.669429 1_455
Ba0 O3 2.669436 1_555
Ba0 O1 2.905556 1_455
Ba0 O2 2.905558 1_455
Ba0 O4 3.269607 1_455
Ba0 O4 3.269613 1_565
Ba1 O4 2.652061 1_554
Ba1 O1 2.739847 1_655
Ba1 O2 2.739854 1_545
Ba1 O3 3.038034 1_655
Ba1 O0 3.038040 1_555
Ba1 O5 3.194532 1_655
Ba1 O5 3.194538 1_545
Ba1 O0 3.309185 1_554
Ba1 O3 3.309191 1_544
La0 O5 2.323767 1_545
La0 O2 2.355966 1_445
La0 O1 2.355972 1_555
La0 O4 2.359473 1_555
La0 O0 2.736184 1_555
La0 O3 2.736190 1_545
Mg0 O5 1.979368 1_555
Mg0 O3 2.110838 1_555
Mg0 O0 2.110839 1_565
Mg0 O1 2.224635 1_555
Mg0 O2 2.224641 1_555
Bi0 O4 2.190994 1_555
Bi0 O1 2.446372 1_556
Bi0 O2 2.446374 1_556
Bi0 O3 2.485544 1_555
Bi0 O0 2.485549 1_455
