# generated using pymatgen
data_Eu5CdCu2
_symmetry_space_group_name_H-M   'P 1'
_cell_length_a   9.43757717
_cell_length_b   9.43757717
_cell_length_c   9.45828618
_cell_angle_alpha   129.31826929
_cell_angle_beta   129.31826929
_cell_angle_gamma   74.48479930
_symmetry_Int_Tables_number   1
_chemical_formula_structural   Eu5CdCu2
_chemical_formula_sum   'Eu10 Cd2 Cu4'
_cell_volume   491.41020198
_cell_formula_units_Z   2
loop_
 _symmetry_equiv_pos_site_id
 _symmetry_equiv_pos_as_xyz
  1  'x, y, z'
loop_
 _atom_site_type_symbol
 _atom_site_label
 _atom_site_symmetry_multiplicity
 _atom_site_fract_x
 _atom_site_fract_y
 _atom_site_fract_z
 _atom_site_occupancy
  Eu  Eu0  1  0.49900797  0.50450928  0.99672298  1
  Eu  Eu1  1  0.00450928  -0.00099203  0.99672298  1
  Eu  Eu2  1  0.53513443  0.03513443  0.84576449  1
  Eu  Eu3  1  0.19271491  0.69271491  0.16425340  1
  Eu  Eu4  1  0.02907623  0.19010597  0.49716427  1
  Eu  Eu5  1  0.69010597  0.52907623  0.49716427  1
  Eu  Eu6  1  0.46842341  0.96842341  0.16556113  1
  Eu  Eu7  1  0.80906344  0.30906344  0.84222196  1
  Eu  Eu8  1  0.96972707  0.80482874  0.49648885  1
  Eu  Eu9  1  0.30482874  0.46972707  0.49648885  1
  Cd  Cd0  1  0.25176994  0.24780517  -0.00155398  1
  Cd  Cd1  1  0.74780517  0.75176994  -0.00155398  1
  Cu  Cu0  1  0.10871636  0.60871636  0.71979312  1
  Cu  Cu1  1  0.88938528  0.38938528  0.27931444  1
  Cu  Cu2  1  0.61205010  0.88768170  0.50272361  1
  Cu  Cu3  1  0.38768170  0.11205010  0.50272361  1
loop_
_geom_bond_atom_site_label_1
_geom_bond_atom_site_label_2
_geom_bond_distance
_geom_bond_site_symmetry_2
Cd0 Eu2 3.408083 1_554
Cd0 Eu5 3.418851 1_555
Cd0 Eu8 3.448041 1_444
Cd0 Eu9 3.449125 1_555
Cd0 Eu4 3.450494 1_554
Cd0 Eu3 3.451301 1_555
Cd0 Eu6 3.454390 1_545
Cd0 Eu7 3.455533 1_454
Cd0 Eu1 3.713979 1_554
Cd0 Eu0 3.799530 1_554
Cd1 Eu2 3.408083 1_564
Cd1 Eu4 3.418851 1_665
Cd1 Eu9 3.448041 1_554
Cd1 Eu8 3.449125 1_555
Cd1 Eu5 3.450494 1_554
Cd1 Eu3 3.451301 1_655
Cd1 Eu6 3.454390 1_555
Cd1 Eu7 3.455533 1_554
Cd1 Eu0 3.713979 1_554
Cd1 Eu1 3.799530 1_664
Cu0 Cu1 2.522223 1_455
Cu0 Eu5 3.106030 1_455
Cu0 Eu4 3.106030 1_555
Cu0 Eu9 3.122681 1_555
Cu0 Eu8 3.122681 1_455
Cu0 Eu1 3.239662 1_565
Cu0 Eu0 3.239662 1_555
Cu0 Eu6 3.273248 1_556
Cu0 Eu3 3.289209 1_556
Cu1 Eu9 3.094740 1_655
Cu1 Eu8 3.094740 1_555
Cu1 Eu5 3.108487 1_555
Cu1 Eu4 3.108487 1_655
Cu1 Eu2 3.225364 1_554
Cu1 Eu7 3.256537 1_554
Cu1 Eu1 3.310218 1_654
Cu1 Eu0 3.310218 1_554
Cu2 Cu3 2.562966 1_565
Cu2 Eu6 3.104287 1_555
Cu2 Eu3 3.109944 1_555
Cu2 Eu2 3.116597 1_565
Cu2 Eu7 3.128942 1_565
Cu2 Eu5 3.238696 1_555
Cu2 Eu1 3.253241 1_665
Cu2 Eu0 3.283506 1_554
Cu2 Eu8 3.285015 1_555
Cu3 Eu6 3.104287 1_545
Cu3 Eu3 3.109944 1_545
Cu3 Eu2 3.116597 1_555
Cu3 Eu7 3.128942 1_555
Cu3 Eu4 3.238696 1_555
Cu3 Eu0 3.253241 1_555
Cu3 Eu1 3.283506 1_554
Cu3 Eu9 3.285015 1_555
