# generated using pymatgen
data_VPO5
_symmetry_space_group_name_H-M   'P 1'
_cell_length_a   6.99760500
_cell_length_b   7.27384809
_cell_length_c   7.29109790
_cell_angle_alpha   91.42599116
_cell_angle_beta   90.40372242
_cell_angle_gamma   116.44409537
_symmetry_Int_Tables_number   1
_chemical_formula_structural   VPO5
_chemical_formula_sum   'V4 P4 O20'
_cell_volume   332.11245987
_cell_formula_units_Z   4
loop_
 _symmetry_equiv_pos_site_id
 _symmetry_equiv_pos_as_xyz
  1  'x, y, z'
loop_
 _atom_site_type_symbol
 _atom_site_label
 _atom_site_symmetry_multiplicity
 _atom_site_fract_x
 _atom_site_fract_y
 _atom_site_fract_z
 _atom_site_occupancy
  V  V0  1  0.70276946  0.46108420  0.26994081  1
  V  V1  1  0.20545766  0.95374696  0.22946369  1
  V  V2  1  0.79454234  0.04625304  0.77053631  1
  V  V3  1  0.29723054  0.53891580  0.73005919  1
  P  P0  1  0.47312441  0.23886546  0.89754210  1
  P  P1  1  0.02068426  0.75735153  0.60388660  1
  P  P2  1  0.97931574  0.24264847  0.39611340  1
  P  P3  1  0.52687559  0.76113454  0.10245790  1
  O  O0  1  0.28333810  0.10680877  0.01374884  1
  O  O1  1  0.40094210  0.33833108  0.74881237  1
  O  O2  1  0.49538103  0.27126994  0.34235137  1
  O  O3  1  0.65021430  0.40648433  0.01809353  1
  O  O4  1  0.83374284  0.58934073  0.49505216  1
  O  O5  1  0.56063042  0.10275151  0.80415697  1
  O  O6  1  0.94765546  0.89773698  0.70644905  1
  O  O7  1  0.01197397  0.74447715  0.15531208  1
  O  O8  1  0.79780038  0.11456622  0.52471995  1
  O  O9  1  0.10532405  0.65754459  0.74400791  1
  O  O10  1  0.89467595  0.34245541  0.25599209  1
  O  O11  1  0.20219962  0.88543378  0.47528005  1
  O  O12  1  0.98802603  0.25552285  0.84468792  1
  O  O13  1  0.05234454  0.10226302  0.29355095  1
  O  O14  1  0.71666190  0.89319123  0.98625116  1
  O  O15  1  0.16625716  0.41065927  0.50494784  1
  O  O16  1  0.34978570  0.59351567  0.98190647  1
  O  O17  1  0.50461897  0.72873006  0.65764863  1
  O  O18  1  0.59905790  0.66166892  0.25118763  1
  O  O19  1  0.43936958  0.89724849  0.19584303  1
loop_
_geom_bond_atom_site_label_1
_geom_bond_atom_site_label_2
_geom_bond_distance
_geom_bond_site_symmetry_2
O0 P0 1.524616 1_554
O0 V1 1.889198 1_545
O1 P0 1.520302 1_555
O1 V3 1.904136 1_555
O2 V0 1.597988 1_555
O3 P0 1.542844 1_554
O3 V0 1.867851 1_555
O4 P1 1.532210 1_655
O4 V0 1.882889 1_555
O5 P0 1.526786 1_555
O5 V2 1.872945 1_555
O6 P1 1.514999 1_655
O6 V2 1.883111 1_565
O7 V1 1.598637 1_555
O7 V0 2.401682 1_455
O8 P2 1.538463 1_555
O8 V2 1.869352 1_555
O9 P1 1.527394 1_555
O9 V3 1.894166 1_555
O10 P2 1.527394 1_555
O10 V0 1.894166 1_555
O11 P1 1.538463 1_555
O11 V1 1.869352 1_555
O12 V2 1.598637 1_555
O12 V3 2.401682 1_655
O13 P2 1.514999 1_455
O13 V1 1.883111 1_545
O14 P3 1.524616 1_556
O14 V2 1.889198 1_565
O15 P2 1.532210 1_455
O15 V3 1.882889 1_555
O16 P3 1.542844 1_556
O16 V3 1.867851 1_555
O17 V3 1.597988 1_555
O18 P3 1.520302 1_555
O18 V0 1.904136 1_555
O19 P3 1.526786 1_555
O19 V1 1.872945 1_555
