# generated using pymatgen
data_Na2MgScP(SO6)2
_symmetry_space_group_name_H-M   'P 1'
_cell_length_a   8.87969812
_cell_length_b   8.83663275
_cell_length_c   22.66494228
_cell_angle_alpha   90.07847305
_cell_angle_beta   90.00000000
_cell_angle_gamma   120.16134559
_symmetry_Int_Tables_number   1
_chemical_formula_structural   Na2MgScP(SO6)2
_chemical_formula_sum   'Na12 Mg6 Sc6 P6 S12 O72'
_cell_volume   1537.66357446
_cell_formula_units_Z   6
loop_
 _symmetry_equiv_pos_site_id
 _symmetry_equiv_pos_as_xyz
  1  'x, y, z'
loop_
 _atom_site_type_symbol
 _atom_site_label
 _atom_site_symmetry_multiplicity
 _atom_site_fract_x
 _atom_site_fract_y
 _atom_site_fract_z
 _atom_site_occupancy
  Na  Na0  1  0.00099309  0.63856981  0.24475654  1
  Na  Na1  1  0.63757672  0.63856981  0.74475654  1
  Na  Na2  1  0.66045171  0.95983721  0.58027205  1
  Na  Na3  1  0.29938649  0.95983721  0.08027205  1
  Na  Na4  1  0.69236628  0.02791211  0.91178251  1
  Na  Na5  1  0.33554482  0.02791211  0.41178251  1
  Na  Na6  1  0.98525731  0.99216910  0.49640030  1
  Na  Na7  1  0.00691179  0.99216910  0.99640030  1
  Na  Na8  1  0.66011381  0.31803516  0.82994425  1
  Na  Na9  1  0.65792235  0.31803516  0.32994425  1
  Na  Na10  1  0.33425458  0.65883220  0.16364617  1
  Na  Na11  1  0.32457662  0.65883220  0.66364617  1
  Mg  Mg0  1  0.99409627  0.00516094  0.35034887  1
  Mg  Mg1  1  0.01106467  0.00516094  0.85034887  1
  Mg  Mg2  1  0.66604152  0.32800006  0.68363276  1
  Mg  Mg3  1  0.66195954  0.32800006  0.18363276  1
  Mg  Mg4  1  0.31975648  0.66231281  0.01693584  1
  Mg  Mg5  1  0.34255533  0.66231281  0.51693584  1
  Sc  Sc0  1  0.99440885  0.99443268  0.64912375  1
  Sc  Sc1  1  0.00002383  0.99443268  0.14912375  1
  Sc  Sc2  1  0.67084719  0.34443272  0.98254543  1
  Sc  Sc3  1  0.67358653  0.34443272  0.48254543  1
  Sc  Sc4  1  0.34672084  0.68171061  0.31555474  1
  Sc  Sc5  1  0.33498877  0.68171061  0.81555474  1
  P  P0  1  0.29807916  0.00639039  0.25209246  1
  P  P1  1  0.70831123  0.00639039  0.75209246  1
  P  P2  1  0.66242575  0.62495957  0.58688030  1
  P  P3  1  0.96253482  0.62495957  0.08688030  1
  P  P4  1  0.32976910  0.96428930  0.92014550  1
  P  P5  1  0.63451921  0.96428930  0.42014550  1
  S  S0  1  0.70708226  0.70452485  0.25067453  1
  S  S1  1  0.99790187  0.29297035  0.25068987  1
  S  S2  1  0.29506848  0.29297035  0.75068987  1
  S  S3  1  0.99744260  0.70452485  0.75067453  1
  S  S4  1  0.96337680  0.33907242  0.58428468  1
  S  S5  1  0.37188902  0.03870178  0.58292105  1
  S  S6  1  0.66681377  0.03870178  0.08292105  1
  S  S7  1  0.37569661  0.33907242  0.08428468  1
  S  S8  1  0.62542407  0.66812243  0.91652402  1
  S  S9  1  0.04222899  0.37170316  0.91719268  1
  S  S10  1  0.32947317  0.37170316  0.41719268  1
  S  S11  1  0.04269736  0.66812243  0.41652402  1
  O  O0  1  0.20916283  0.02205170  0.30800986  1
  O  O1  1  0.81622811  0.78917270  0.30285242  1
  O  O2  1  0.97547196  0.18798299  0.30315801  1
  O  O3  1  0.21251103  0.18798299  0.80315801  1
  O  O4  1  0.97294459  0.78917270  0.80285242  1
  O  O5  1  0.81288887  0.02205170  0.80800986  1
  O  O6  1  0.79269009  0.97259614  0.69609036  1
  O  O7  1  0.19000857  0.21015127  0.69688825  1
  O  O8  1  0.02717379  0.81297568  0.69698724  1
  O  O9  1  0.78580188  0.81297568  0.19698724  1
  O  O10  1  0.02014271  0.21015127  0.19688825  1
  O  O11  1  0.17990605  0.97259614  0.19609036  1
  O  O12  1  0.88074679  0.35969114  0.63694777  1
  O  O13  1  0.48577466  0.12365153  0.63389667  1
  O  O14  1  0.64563315  0.52310523  0.64324570  1
  O  O15  1  0.87747309  0.52310523  0.14324570  1
  O  O16  1  0.63787787  0.12365153  0.13389667  1
  O  O17  1  0.47894535  0.35969114  0.13694777  1
  O  O18  1  0.45345426  0.30338887  0.03102486  1
  O  O19  1  0.84757798  0.53508353  0.03187590  1
  O  O20  1  0.69069445  0.14148818  0.02770734  1
  O  O21  1  0.45079472  0.14148818  0.52770734  1
  O  O22  1  0.68750655  0.53508353  0.53187590  1
  O  O23  1  0.84993561  0.30338887  0.53102486  1
  O  O24  1  0.53806744  0.69054169  0.96802177  1
  O  O25  1  0.14585571  0.45300562  0.96993630  1
  O  O26  1  0.31107715  0.85959542  0.97630083  1
  O  O27  1  0.54851726  0.85959542  0.47630083  1
  O  O28  1  0.30714891  0.45300562  0.46993630  1
  O  O29  1  0.15247325  0.69054169  0.46802177  1
  O  O30  1  0.11856782  0.64131819  0.36131911  1
  O  O31  1  0.51074226  0.87447986  0.36577923  1
  O  O32  1  0.35374562  0.47741360  0.36369283  1
  O  O33  1  0.12366698  0.47741360  0.86369283  1
  O  O34  1  0.36373660  0.87447986  0.86577923  1
  O  O35  1  0.52274937  0.64131819  0.86131911  1
  O  O36  1  0.02901085  0.82861415  0.41114754  1
  O  O37  1  0.81354791  0.98368843  0.41074361  1
  O  O38  1  0.17769766  0.19133256  0.41157211  1
  O  O39  1  0.01363490  0.19133256  0.91157211  1
  O  O40  1  0.17014052  0.98368843  0.91074361  1
  O  O41  1  0.79960330  0.82861415  0.91114754  1
  O  O42  1  0.97694735  0.17576447  0.58902780  1
  O  O43  1  0.19839713  0.02374929  0.58933859  1
  O  O44  1  0.82901012  0.81489897  0.58853745  1
  O  O45  1  0.98588885  0.81489897  0.08853745  1
  O  O46  1  0.82535216  0.02374929  0.08933859  1
  O  O47  1  0.19881712  0.17576447  0.08902780  1
  O  O48  1  0.68452633  0.16442983  0.74386984  1
  O  O49  1  0.47366237  0.31889487  0.74510006  1
  O  O50  1  0.83745353  0.53160962  0.74416251  1
  O  O51  1  0.69415709  0.53160962  0.24416251  1
  O  O52  1  0.84523351  0.31889487  0.24510006  1
  O  O53  1  0.47990450  0.16442983  0.24386984  1
  O  O54  1  0.64581521  0.51102487  0.92144442  1
  O  O55  1  0.86279760  0.35124277  0.92187827  1
  O  O56  1  0.50477085  0.14568150  0.92325181  1
  O  O57  1  0.64091165  0.14568150  0.42325181  1
  O  O58  1  0.48844617  0.35124277  0.42187827  1
  O  O59  1  0.86521066  0.51102487  0.42144442  1
  O  O60  1  0.35699322  0.49385459  0.07587664  1
  O  O61  1  0.14848798  0.65291521  0.08037651  1
  O  O62  1  0.50943576  0.86218173  0.07715178  1
  O  O63  1  0.35274497  0.86218173  0.57715178  1
  O  O64  1  0.50442623  0.65291521  0.58037651  1
  O  O65  1  0.13686037  0.49385459  0.57587664  1
  O  O66  1  0.30386180  0.83002575  0.25523963  1
  O  O67  1  0.53014357  0.68280632  0.25572916  1
  O  O68  1  0.15703180  0.47215207  0.25546952  1
  O  O69  1  0.31511928  0.47215207  0.75546952  1
  O  O70  1  0.15266175  0.68280632  0.75572916  1
  O  O71  1  0.52616296  0.83002575  0.75523963  1
loop_
_geom_bond_atom_site_label_1
_geom_bond_atom_site_label_2
_geom_bond_distance
_geom_bond_site_symmetry_2
Na0 O66 2.361835 1_555
Na0 O51 2.393581 1_455
Na0 O52 2.442698 1_455
Na0 O68 2.487943 1_555
Na0 O15 2.531100 1_455
Na0 O11 2.783829 1_555
Na0 O30 2.836279 1_555
Na0 O1 2.895844 1_455
Na1 O71 2.361842 1_555
Na1 O50 2.393589 1_555
Na1 O49 2.442698 1_555
Na1 O69 2.487951 1_555
Na1 O14 2.531102 1_555
Na1 O6 2.783829 1_555
Na1 O35 2.836283 1_555
Na1 O4 2.895844 1_555
Na2 O64 2.345084 1_555
Na2 O44 2.417166 1_555
Na2 O63 2.417820 1_555
Na2 O42 2.487729 1_565
Na2 O27 2.536774 1_555
Na2 O6 2.854541 1_555
Na2 O23 2.858252 1_565
Na2 O13 2.868781 1_565
Na3 O61 2.345084 1_555
Na3 O45 2.417174 1_455
Na3 O62 2.417803 1_555
Na3 O47 2.487736 1_565
Na3 O26 2.536770 1_554
Na3 O11 2.854544 1_555
Na3 O18 2.858252 1_565
Na3 O16 2.868781 1_565
Na4 O56 2.380489 1_555
Na4 O41 2.386128 1_545
Na4 O39 2.466575 1_655
Na4 O55 2.481770 1_555
Na4 O5 2.595243 1_555
Na4 O34 2.731533 1_545
Na4 O20 2.814006 1_556
Na4 O24 2.880195 1_545
Na5 O57 2.380506 1_555
Na5 O36 2.386122 1_545
Na5 O38 2.466567 1_555
Na5 O58 2.481770 1_555
Na5 O0 2.595239 1_555
Na5 O31 2.731533 1_545
Na5 O21 2.814009 1_555
Na5 O29 2.880195 1_545
Na6 O37 2.446271 1_555
Na6 O36 2.555378 1_655
Na6 O44 2.562170 1_555
Na6 O38 2.588651 1_665
Na6 O42 2.675060 1_565
Na6 O43 2.750387 1_665
Na7 O40 2.446271 1_555
Na7 O41 2.555378 1_455
Na7 O45 2.562170 1_456
Na7 O39 2.588651 1_565
Na7 O47 2.675060 1_566
Na7 O46 2.750387 1_466
Na8 O48 2.446165 1_555
Na8 O49 2.540028 1_555
Na8 O56 2.567586 1_555
Na8 O50 2.616345 1_555
Na8 O55 2.671072 1_555
Na8 O54 2.726384 1_555
Na9 O53 2.446165 1_555
Na9 O52 2.540028 1_555
Na9 O57 2.567586 1_555
Na9 O51 2.616345 1_555
Na9 O58 2.671072 1_555
Na9 O59 2.726384 1_555
Na10 O61 2.489723 1_555
Na10 O60 2.532037 1_555
Na10 O62 2.587013 1_555
Na10 O68 2.632447 1_555
Na10 O67 2.656089 1_555
Na10 O66 2.659433 1_555
Na11 O64 2.489723 1_555
Na11 O65 2.532037 1_555
Na11 O63 2.587013 1_555
Na11 O69 2.632447 1_555
Na11 O70 2.656089 1_555
Na11 O71 2.659433 1_555
Mg0 O2 2.013578 1_555
Mg0 O37 2.043296 1_545
Mg0 O1 2.064315 1_545
Mg0 O0 2.074644 1_655
Mg0 O38 2.142075 1_655
Mg0 O36 2.218280 1_645
Mg1 O3 2.013578 1_555
Mg1 O40 2.043296 1_545
Mg1 O4 2.064315 1_445
Mg1 O5 2.074644 1_455
Mg1 O39 2.142075 1_555
Mg1 O41 2.218280 1_445
Mg2 O14 2.039964 1_555
Mg2 O13 2.045385 1_555
Mg2 O48 2.055219 1_555
Mg2 O12 2.072955 1_555
Mg2 O50 2.162727 1_555
Mg2 O49 2.174333 1_555
Mg3 O15 2.039964 1_555
Mg3 O16 2.045385 1_555
Mg3 O53 2.055219 1_555
Mg3 O17 2.072955 1_555
Mg3 O51 2.162727 1_555
Mg3 O52 2.174333 1_555
Mg4 O26 2.008162 1_554
Mg4 O25 2.016126 1_554
Mg4 O61 2.064142 1_555
Mg4 O24 2.136364 1_554
Mg4 O60 2.147074 1_555
Mg4 O62 2.196134 1_555
Mg5 O27 2.008162 1_555
Mg5 O28 2.016126 1_555
Mg5 O64 2.064142 1_555
Mg5 O29 2.136364 1_555
Mg5 O65 2.147074 1_555
Mg5 O63 2.196134 1_555
O0 P0 1.535603 1_555
O1 S0 1.471896 1_555
O2 S1 1.460093 1_555
O3 S2 1.460093 1_555
O4 S3 1.471896 1_555
O5 P1 1.535603 1_555
O6 P1 1.576531 1_565
O6 Sc0 2.007992 1_555
O7 S2 1.484705 1_555
O7 Sc0 2.118899 1_445
O8 S3 1.489201 1_455
O8 Sc0 2.075128 1_455
O9 S0 1.489201 1_555
O9 Sc1 2.075128 1_655
O10 S1 1.484706 1_455
O10 Sc1 2.118899 1_545
O11 P0 1.576531 1_565
O11 Sc1 2.007992 1_555
O12 S4 1.459449 1_555
O13 S5 1.468272 1_555
O14 P2 1.527306 1_555
O15 P3 1.527306 1_555
O16 S6 1.468272 1_555
O17 S7 1.459449 1_555
O18 S7 1.500357 1_555
O18 Sc2 2.088732 1_554
O19 P3 1.552280 1_555
O19 Sc2 1.972106 1_554
O20 S6 1.498519 1_555
O20 Sc2 2.148840 1_554
O21 S5 1.498519 1_555
O21 Sc3 2.148841 1_555
O22 P2 1.552280 1_555
O22 Sc3 1.972106 1_555
O23 S4 1.500357 1_555
O23 Sc3 2.088732 1_555
O24 S8 1.468704 1_555
O25 S9 1.457830 1_555
O26 P4 1.533711 1_555
O27 P5 1.533711 1_555
O28 S10 1.457830 1_555
O29 S11 1.468704 1_555
O30 S11 1.495013 1_555
O30 Sc4 2.140571 1_555
O31 P5 1.573847 1_555
O31 Sc4 1.954579 1_555
O32 S10 1.479918 1_555
O32 Sc4 2.138207 1_555
O33 S9 1.479918 1_555
O33 Sc5 2.138207 1_555
O34 P4 1.573847 1_555
O34 Sc5 1.954579 1_555
O35 S8 1.495013 1_555
O35 Sc5 2.140571 1_555
O36 S11 1.488153 1_555
O37 P5 1.525865 1_555
O38 S10 1.487912 1_555
O39 S9 1.487915 1_555
O40 P4 1.525856 1_555
O41 S8 1.488158 1_555
O42 S4 1.511212 1_555
O42 Sc0 2.168521 1_545
O43 S5 1.485744 1_555
O43 Sc0 2.171092 1_445
O44 P2 1.584796 1_555
O44 Sc0 2.052371 1_555
O45 P3 1.584800 1_555
O45 Sc1 2.052371 1_655
O46 S6 1.485735 1_555
O46 Sc1 2.171092 1_645
O47 S7 1.511217 1_555
O47 Sc1 2.168521 1_545
O48 P1 1.525371 1_555
O49 S2 1.489461 1_555
O50 S3 1.480828 1_555
O51 S0 1.480832 1_555
O52 S1 1.489452 1_555
O53 P0 1.525376 1_555
O54 S8 1.491767 1_555
O54 Sc2 2.113938 1_555
O55 S9 1.514312 1_655
O55 Sc2 2.167173 1_555
O56 P4 1.576624 1_545
O56 Sc2 2.110983 1_555
O57 P5 1.576616 1_545
O57 Sc3 2.110983 1_555
O58 S10 1.514329 1_555
O58 Sc3 2.167173 1_555
O59 S11 1.491756 1_655
O59 Sc3 2.113938 1_555
O60 S7 1.470927 1_555
O61 P3 1.549016 1_455
O62 S6 1.487318 1_565
O63 S5 1.487310 1_565
O64 P2 1.549033 1_555
O65 S4 1.470917 1_455
O66 P0 1.586591 1_565
O66 Sc4 2.058505 1_555
O67 S0 1.488477 1_555
O67 Sc4 2.115574 1_555
O68 S1 1.505560 1_455
O68 Sc4 2.231505 1_555
O69 S2 1.505563 1_555
O69 Sc5 2.231506 1_555
O70 S3 1.488468 1_455
O70 Sc5 2.115574 1_555
O71 P1 1.586596 1_565
O71 Sc5 2.058505 1_555
