# generated using pymatgen
data_Na18Mg16Ta8Si9(S3O16)9
_symmetry_space_group_name_H-M   'P 1'
_cell_length_a   17.59842301
_cell_length_b   8.84449884
_cell_length_c   22.55332498
_cell_angle_alpha   90.01567028
_cell_angle_beta   90.30383184
_cell_angle_gamma   120.07015975
_symmetry_Int_Tables_number   1
_chemical_formula_structural   Na18Mg16Ta8Si9(S3O16)9
_chemical_formula_sum   'Na18 Mg16 Ta8 Si9 S27 O144'
_cell_volume   3037.89056329
_cell_formula_units_Z   1
loop_
 _symmetry_equiv_pos_site_id
 _symmetry_equiv_pos_as_xyz
  1  'x, y, z'
loop_
 _atom_site_type_symbol
 _atom_site_label
 _atom_site_symmetry_multiplicity
 _atom_site_fract_x
 _atom_site_fract_y
 _atom_site_fract_z
 _atom_site_occupancy
  Na  Na0  1  0.35360789  0.03755267  0.90687931  1
  Na  Na1  1  0.84561234  0.03534267  0.90795173  1
  Na  Na2  1  0.66484608  0.28432626  0.90589904  1
  Na  Na3  1  0.16476549  0.04584983  0.41092948  1
  Na  Na4  1  0.34305683  0.65160822  0.42198706  1
  Na  Na5  1  0.85323535  0.67089524  0.41078480  1
  Na  Na6  1  0.00741831  0.03390645  0.49754745  1
  Na  Na7  1  0.50859994  0.01096554  0.50133162  1
  Na  Na8  1  0.00661518  0.00439596  0.99524386  1
  Na  Na9  1  0.50539222  0.98136402  0.99134858  1
  Na  Na10  1  0.32561586  0.32813093  0.82016309  1
  Na  Na11  1  0.82399450  0.31308948  0.82239805  1
  Na  Na12  1  0.32267706  0.31880360  0.32945277  1
  Na  Na13  1  0.82545656  0.32406786  0.32145488  1
  Na  Na14  1  0.16444211  0.67175873  0.16122912  1
  Na  Na15  1  0.67300067  0.67783459  0.16069579  1
  Na  Na16  1  0.17032556  0.66824327  0.66174838  1
  Na  Na17  1  0.66970787  0.66306291  0.66477157  1
  Mg  Mg0  1  0.00588951  0.00982358  0.34986095  1
  Mg  Mg1  1  0.50608852  0.00835889  0.35234302  1
  Mg  Mg2  1  0.00357082  0.00852557  0.84927569  1
  Mg  Mg3  1  0.50530504  0.00094810  0.84980329  1
  Mg  Mg4  1  0.32979382  0.32487488  0.68688638  1
  Mg  Mg5  1  0.82795813  0.32532543  0.68781519  1
  Mg  Mg6  1  0.32771322  0.32414212  0.18436959  1
  Mg  Mg7  1  0.83070479  0.33320594  0.18740324  1
  Mg  Mg8  1  0.33111792  0.33767619  0.98125280  1
  Mg  Mg9  1  0.83253123  0.32603938  0.97879627  1
  Mg  Mg10  1  0.33041378  0.33405363  0.48292980  1
  Mg  Mg11  1  0.83030133  0.32312669  0.48520228  1
  Mg  Mg12  1  0.16576368  0.66602756  0.01892434  1
  Mg  Mg13  1  0.66606527  0.67442513  0.01701278  1
  Mg  Mg14  1  0.16551127  0.65593107  0.52089066  1
  Mg  Mg15  1  0.66533017  0.66625628  0.52036379  1
  Ta  Ta0  1  0.99940343  0.00799051  0.65049985  1
  Ta  Ta1  1  0.49914350  0.00922521  0.65219552  1
  Ta  Ta2  1  0.99961299  0.98745355  0.15036217  1
  Ta  Ta3  1  0.50434679  0.99846079  0.14637794  1
  Ta  Ta4  1  0.16425975  0.66093003  0.31292010  1
  Ta  Ta5  1  0.66883261  0.67367340  0.30898927  1
  Ta  Ta6  1  0.16735060  0.66232696  0.80863677  1
  Ta  Ta7  1  0.67114190  0.67962924  0.80981599  1
  Si  Si0  1  0.15297283  0.00799609  0.25496701  1
  Si  Si1  1  0.64919207  0.00844733  0.25440722  1
  Si  Si2  1  0.85846174  0.70320418  0.25664187  1
  Si  Si3  1  0.15014137  0.28830560  0.75437114  1
  Si  Si4  1  0.65063412  0.29905362  0.75591268  1
  Si  Si5  1  0.35740277  0.01199471  0.75687523  1
  Si  Si6  1  0.85705624  0.01285348  0.75570715  1
  Si  Si7  1  0.66284979  0.95996456  0.92103066  1
  Si  Si8  1  0.16349991  0.36466214  0.42039134  1
  S  S0  1  0.35555158  0.71085362  0.25134242  1
  S  S1  1  0.00025500  0.28885477  0.24965764  1
  S  S2  1  0.49783489  0.28652621  0.25113778  1
  S  S3  1  0.99911769  0.71202742  0.75109972  1
  S  S4  1  0.49914001  0.70993666  0.74973431  1
  S  S5  1  0.47883976  0.33410926  0.58273083  1
  S  S6  1  0.97861377  0.33490741  0.58451570  1
  S  S7  1  0.18493705  0.03351222  0.58160790  1
  S  S8  1  0.68484103  0.03600784  0.58279873  1
  S  S9  1  0.33558399  0.63040365  0.58290959  1
  S  S10  1  0.83437920  0.62699537  0.58104637  1
  S  S11  1  0.47757730  0.61871303  0.08588038  1
  S  S12  1  0.97882696  0.62132776  0.08313752  1
  S  S13  1  0.33256478  0.03884001  0.08254790  1
  S  S14  1  0.83504949  0.04132749  0.08368570  1
  S  S15  1  0.18641574  0.33599026  0.08358618  1
  S  S16  1  0.68724035  0.33928129  0.08312393  1
  S  S17  1  0.30933798  0.66082795  0.91840124  1
  S  S18  1  0.81407922  0.66801599  0.91848945  1
  S  S19  1  0.02324784  0.37792900  0.91916289  1
  S  S20  1  0.51938402  0.37985005  0.91941774  1
  S  S21  1  0.16460046  0.95429609  0.91899649  1
  S  S22  1  0.31416264  0.95745475  0.41682678  1
  S  S23  1  0.80970178  0.95911617  0.41844453  1
  S  S24  1  0.66487787  0.37633786  0.41867418  1
  S  S25  1  0.01995404  0.65887721  0.41914189  1
  S  S26  1  0.52172592  0.66642363  0.41783113  1
  O  O0  1  0.10972946  0.02371254  0.31438878  1
  O  O1  1  0.60096231  0.03005244  0.30902800  1
  O  O2  1  0.40364857  0.79229223  0.30590732  1
  O  O3  1  0.90615188  0.79551425  0.31676586  1
  O  O4  1  0.48306496  0.18108919  0.30380255  1
  O  O5  1  0.98902804  0.18928950  0.30286273  1
  O  O6  1  0.10700304  0.17379790  0.81065296  1
  O  O7  1  0.60870654  0.18833010  0.81389140  1
  O  O8  1  0.48674060  0.78713175  0.80257719  1
  O  O9  1  0.98703016  0.78931450  0.80400415  1
  O  O10  1  0.40561450  0.01559128  0.81672366  1
  O  O11  1  0.90309946  0.01548687  0.81669881  1
  O  O12  1  0.40276915  0.96826042  0.69719691  1
  O  O13  1  0.90494343  0.97100837  0.69639960  1
  O  O14  1  0.08477868  0.19243411  0.69370081  1
  O  O15  1  0.58317630  0.19202680  0.69599729  1
  O  O16  1  0.01774383  0.82796657  0.69706630  1
  O  O17  1  0.51555538  0.82590579  0.69567924  1
  O  O18  1  0.39873110  0.82910974  0.19833769  1
  O  O19  1  0.90454423  0.83830751  0.19719471  1
  O  O20  1  0.01781983  0.20974564  0.19605620  1
  O  O21  1  0.51256066  0.20069911  0.19733714  1
  O  O22  1  0.08540963  0.97738787  0.19564341  1
  O  O23  1  0.58323839  0.97549095  0.19336674  1
  O  O24  1  0.43776478  0.35336089  0.63568414  1
  O  O25  1  0.93426423  0.34851529  0.63650639  1
  O  O26  1  0.23936091  0.12275290  0.63330482  1
  O  O27  1  0.73784000  0.12124855  0.63522438  1
  O  O28  1  0.32796881  0.52185451  0.63353977  1
  O  O29  1  0.82612999  0.51982915  0.63231242  1
  O  O30  1  0.43372211  0.52047292  0.13885488  1
  O  O31  1  0.93853783  0.52230861  0.13653204  1
  O  O32  1  0.32358254  0.12676988  0.13454204  1
  O  O33  1  0.82661637  0.13139853  0.13527342  1
  O  O34  1  0.23904064  0.35932898  0.13694076  1
  O  O35  1  0.73874705  0.35610198  0.13554776  1
  O  O36  1  0.22403700  0.30387906  0.03007408  1
  O  O37  1  0.71986525  0.30369663  0.02829884  1
  O  O38  1  0.42597600  0.54716861  0.03162445  1
  O  O39  1  0.92583919  0.54564540  0.02934745  1
  O  O40  1  0.34917044  0.14056786  0.02757309  1
  O  O41  1  0.84810071  0.13920961  0.02808298  1
  O  O42  1  0.22032732  0.13349482  0.52586678  1
  O  O43  1  0.72103626  0.14014311  0.52815792  1
  O  O44  1  0.34781852  0.55878643  0.52623287  1
  O  O45  1  0.84682643  0.55328845  0.52480351  1
  O  O46  1  0.42626928  0.30461288  0.52841031  1
  O  O47  1  0.92803610  0.30581856  0.52918590  1
  O  O48  1  0.26680861  0.68800378  0.96985544  1
  O  O49  1  0.77098719  0.69176973  0.97024604  1
  O  O50  1  0.07691344  0.46406252  0.97152557  1
  O  O51  1  0.57459021  0.46040819  0.97212636  1
  O  O52  1  0.15692017  0.85162820  0.97192037  1
  O  O53  1  0.65520099  0.84843505  0.97800532  1
  O  O54  1  0.27276363  0.84985244  0.46877739  1
  O  O55  1  0.76610415  0.84533332  0.46900364  1
  O  O56  1  0.15971788  0.47491652  0.47401386  1
  O  O57  1  0.65708411  0.46479206  0.47095960  1
  O  O58  1  0.07695263  0.68879599  0.47008044  1
  O  O59  1  0.57677223  0.69401952  0.46992397  1
  O  O60  1  0.06638230  0.64434109  0.36296323  1
  O  O61  1  0.56675803  0.64925738  0.36309203  1
  O  O62  1  0.25528455  0.86931440  0.36179453  1
  O  O63  1  0.75326305  0.86531584  0.36247762  1
  O  O64  1  0.17692924  0.49813987  0.35893369  1
  O  O65  1  0.67542410  0.48795224  0.36419752  1
  O  O66  1  0.06803593  0.48468832  0.86451803  1
  O  O67  1  0.56304327  0.48346714  0.86500569  1
  O  O68  1  0.17635198  0.86427669  0.86514756  1
  O  O69  1  0.67543823  0.85279507  0.86112205  1
  O  O70  1  0.25339449  0.64222971  0.86336394  1
  O  O71  1  0.75684705  0.64087611  0.86339112  1
  O  O72  1  0.00907515  0.81285306  0.41285837  1
  O  O73  1  0.50672652  0.81734267  0.41182168  1
  O  O74  1  0.39945939  0.96660252  0.40723468  1
  O  O75  1  0.89611267  0.97443610  0.41160490  1
  O  O76  1  0.07879126  0.17295572  0.41431851  1
  O  O77  1  0.58606885  0.20316157  0.41286594  1
  O  O78  1  0.01143502  0.20030627  0.91496599  1
  O  O79  1  0.50724112  0.20114819  0.91508587  1
  O  O80  1  0.08618206  0.97055453  0.91300312  1
  O  O81  1  0.57897782  0.98494828  0.91328716  1
  O  O82  1  0.39593144  0.81790750  0.91204916  1
  O  O83  1  0.90114095  0.82532950  0.91218051  1
  O  O84  1  0.48727212  0.16714689  0.58887201  1
  O  O85  1  0.98777266  0.16823942  0.58994511  1
  O  O86  1  0.09371816  0.01299275  0.58871221  1
  O  O87  1  0.59333486  0.01495292  0.58931015  1
  O  O88  1  0.41830319  0.81031072  0.58908318  1
  O  O89  1  0.91658124  0.80732400  0.58776079  1
  O  O90  1  0.48539194  0.80509744  0.09256355  1
  O  O91  1  0.98755303  0.80675122  0.08959723  1
  O  O92  1  0.41382879  0.01845259  0.09226397  1
  O  O93  1  0.91883008  0.02779457  0.09116587  1
  O  O94  1  0.09526915  0.17371343  0.09063414  1
  O  O95  1  0.59258384  0.17186652  0.09184330  1
  O  O96  1  0.34652412  0.17447089  0.74320725  1
  O  O97  1  0.84814533  0.17745109  0.74236090  1
  O  O98  1  0.24795056  0.34208336  0.74070380  1
  O  O99  1  0.74702118  0.34160276  0.74175433  1
  O  O100  1  0.42602447  0.53758308  0.73812283  1
  O  O101  1  0.92707277  0.53923259  0.73918500  1
  O  O102  1  0.34685724  0.54085180  0.24158388  1
  O  O103  1  0.84664358  0.51792355  0.24336114  1
  O  O104  1  0.42669529  0.32046582  0.23999092  1
  O  O105  1  0.92756716  0.31808134  0.23936800  1
  O  O106  1  0.24839015  0.16938856  0.24371685  1
  O  O107  1  0.74636251  0.15446167  0.24194567  1
  O  O108  1  0.31437216  0.50037975  0.92107624  1
  O  O109  1  0.81953245  0.50748600  0.92197312  1
  O  O110  1  0.43070163  0.36225341  0.92363429  1
  O  O111  1  0.93617573  0.36498541  0.92111108  1
  O  O112  1  0.24729808  0.12770761  0.92164722  1
  O  O113  1  0.75415199  0.15172022  0.91830461  1
  O  O114  1  0.32165014  0.13008500  0.41932340  1
  O  O115  1  0.81446070  0.12905309  0.42082314  1
  O  O116  1  0.25448251  0.35421486  0.41852533  1
  O  O117  1  0.74717290  0.36730284  0.42046749  1
  O  O118  1  0.43537203  0.50451653  0.42043189  1
  O  O119  1  0.93344856  0.49842744  0.42088465  1
  O  O120  1  0.17404218  0.48870148  0.07760295  1
  O  O121  1  0.67112767  0.48641357  0.07837569  1
  O  O122  1  0.06940266  0.65427852  0.07768278  1
  O  O123  1  0.56714143  0.64912224  0.08301628  1
  O  O124  1  0.25681339  0.86027225  0.07787344  1
  O  O125  1  0.76056153  0.86005561  0.08065800  1
  O  O126  1  0.17279446  0.85589337  0.57672034  1
  O  O127  1  0.67307428  0.85871429  0.57702182  1
  O  O128  1  0.26010433  0.66013360  0.58021314  1
  O  O129  1  0.75799242  0.65420260  0.57670480  1
  O  O130  1  0.06823366  0.48597822  0.58124473  1
  O  O131  1  0.56933925  0.48303776  0.57710552  1
  O  O132  1  0.15508925  0.81902404  0.25664370  1
  O  O133  1  0.64636139  0.81338516  0.25777397  1
  O  O134  1  0.26565941  0.69562146  0.25365173  1
  O  O135  1  0.75726215  0.68824373  0.25951998  1
  O  O136  1  0.08405803  0.46989461  0.25453384  1
  O  O137  1  0.58289546  0.45934069  0.25668177  1
  O  O138  1  0.14670512  0.47836318  0.75872321  1
  O  O139  1  0.64572040  0.48261007  0.75869678  1
  O  O140  1  0.08331363  0.70253782  0.75692720  1
  O  O141  1  0.58259778  0.70039443  0.75369164  1
  O  O142  1  0.25699805  0.82523671  0.76007547  1
  O  O143  1  0.75819312  0.82550632  0.75570990  1
loop_
_geom_bond_atom_site_label_1
_geom_bond_atom_site_label_2
_geom_bond_distance
_geom_bond_site_symmetry_2
Na0 O10 2.281973 1_555
Na0 O79 2.347776 1_555
Na0 O112 2.397577 1_555
Na0 O82 2.406547 1_545
Na0 O110 2.514013 1_555
Na0 O68 2.853528 1_545
Na0 O40 2.884089 1_556
Na1 O113 2.317055 1_555
Na1 O11 2.343047 1_555
Na1 O83 2.496459 1_545
Na1 O78 2.529421 1_655
Na1 O111 2.542922 1_555
Na1 O69 2.794831 1_545
Na1 O41 2.853687 1_556
Na2 O7 2.267066 1_555
Na2 O81 2.305552 1_545
Na2 O113 2.401371 1_555
Na2 O109 2.458130 1_555
Na2 O79 2.497677 1_555
Na2 O71 2.895966 1_555
Na2 O37 2.896982 1_556
Na3 O76 2.294458 1_555
Na3 O0 2.346162 1_555
Na3 O116 2.375326 1_555
Na3 O72 2.469561 1_545
Na3 O114 2.479247 1_555
Na3 O42 2.736610 1_555
Na4 O116 2.290020 1_555
Na4 O74 2.467866 1_555
Na4 O73 2.504731 1_555
Na4 O44 2.505301 1_555
Na4 O118 2.540006 1_555
Na4 O54 2.811521 1_555
Na4 O2 2.870694 1_555
Na4 O64 2.896569 1_555
Na5 O3 2.360497 1_555
Na5 O72 2.376554 1_655
Na5 O117 2.392418 1_555
Na5 O75 2.397272 1_555
Na5 O119 2.554608 1_555
Na5 O45 2.755770 1_555
Na5 O65 2.898999 1_555
Na5 O55 2.974312 1_555
Na6 O76 2.256516 1_555
Na6 O85 2.508304 1_455
Na6 O75 2.607150 1_445
Na6 O86 2.610903 1_555
Na6 O72 2.743564 1_545
Na6 O89 2.745455 1_445
Na7 O87 2.465337 1_555
Na7 O77 2.537194 1_555
Na7 O84 2.544189 1_555
Na7 O88 2.607809 1_545
Na7 O73 2.636266 1_545
Na7 O74 2.747339 1_545
Na8 O80 2.436765 1_545
Na8 O78 2.478635 1_555
Na8 O83 2.545323 1_445
Na8 O94 2.631804 1_556
Na8 O91 2.668059 1_446
Na8 O93 2.732251 1_456
Na9 O81 2.181878 1_555
Na9 O82 2.484081 1_555
Na9 O79 2.584007 1_565
Na9 O90 2.688083 1_556
Na9 O95 2.774983 1_566
Na9 O92 2.907298 1_566
Na10 O98 2.288672 1_555
Na10 O96 2.345495 1_555
Na10 O100 2.594972 1_555
Na10 O108 2.800871 1_555
Na10 O112 2.804966 1_555
Na10 O110 2.889891 1_555
Na11 O97 2.322954 1_555
Na11 O99 2.350106 1_555
Na11 O113 2.549170 1_555
Na11 O101 2.686163 1_555
Na11 O111 2.847699 1_555
Na11 O109 2.853198 1_555
Na12 O106 2.331286 1_555
Na12 O116 2.444560 1_555
Na12 O114 2.620411 1_555
Na12 O102 2.671867 1_555
Na12 O104 2.726597 1_555
Na12 O118 2.744443 1_555
Na13 O107 2.298454 1_555
Na13 O103 2.355586 1_555
Na13 O105 2.605757 1_555
Na13 O117 2.755151 1_555
Na13 O115 2.776168 1_555
Na13 O119 2.834535 1_555
Na14 O122 2.465560 1_555
Na14 O124 2.504931 1_555
Na14 O120 2.546147 1_555
Na14 O132 2.563468 1_555
Na14 O136 2.668260 1_555
Na14 O134 2.673194 1_555
Na15 O125 2.402651 1_555
Na15 O123 2.468887 1_555
Na15 O121 2.501211 1_555
Na15 O135 2.646321 1_555
Na15 O133 2.650170 1_555
Na15 O137 2.811254 1_555
Na16 O128 2.455048 1_555
Na16 O130 2.486871 1_555
Na16 O126 2.522736 1_555
Na16 O142 2.648083 1_555
Na16 O138 2.662454 1_555
Na16 O140 2.746750 1_555
Na17 O143 2.533379 1_555
Na17 O129 2.553364 1_555
Na17 O139 2.559088 1_555
Na17 O131 2.589818 1_555
Na17 O127 2.610544 1_555
Na17 O141 2.649602 1_555
Mg0 O0 1.945553 1_555
Mg0 O3 1.970284 1_445
Mg0 O76 1.991261 1_555
Mg0 O5 2.049547 1_455
Mg0 O72 2.270492 1_545
Mg0 O75 2.278634 1_445
Mg1 O1 1.864183 1_555
Mg1 O4 2.076793 1_555
Mg1 O77 2.088290 1_555
Mg1 O74 2.126189 1_545
Mg1 O2 2.127252 1_545
Mg1 O73 2.161920 1_545
Mg2 O6 1.886769 1_555
Mg2 O11 1.940425 1_455
Mg2 O9 2.077598 1_445
Mg2 O80 2.181631 1_545
Mg2 O78 2.202819 1_555
Mg2 O83 2.233584 1_445
Mg3 O7 1.925651 1_555
Mg3 O10 1.965998 1_555
Mg3 O81 1.978701 1_545
Mg3 O8 2.047805 1_545
Mg3 O82 2.281170 1_545
Mg3 O79 2.289497 1_555
Mg4 O98 1.951667 1_555
Mg4 O96 1.964475 1_555
Mg4 O26 2.077557 1_555
Mg4 O100 2.127877 1_555
Mg4 O28 2.130870 1_555
Mg4 O24 2.133339 1_555
Mg5 O99 1.937317 1_555
Mg5 O97 1.952428 1_555
Mg5 O27 2.071269 1_555
Mg5 O25 2.125953 1_555
Mg5 O29 2.140928 1_555
Mg5 O101 2.152766 1_555
Mg6 O106 1.928655 1_555
Mg6 O34 2.036017 1_555
Mg6 O32 2.046064 1_555
Mg6 O30 2.079498 1_555
Mg6 O104 2.154672 1_555
Mg6 O102 2.190705 1_555
Mg7 O103 1.968856 1_555
Mg7 O107 1.970910 1_555
Mg7 O35 2.082347 1_555
Mg7 O33 2.107730 1_555
Mg7 O105 2.122400 1_555
Mg7 O31 2.135034 1_555
Mg8 O36 2.076198 1_556
Mg8 O38 2.095119 1_556
Mg8 O108 2.102714 1_555
Mg8 O110 2.109452 1_555
Mg8 O112 2.159677 1_555
Mg8 O40 2.187226 1_556
Mg9 O113 1.997168 1_555
Mg9 O41 2.119588 1_556
Mg9 O111 2.129303 1_555
Mg9 O39 2.133434 1_556
Mg9 O109 2.153139 1_555
Mg9 O37 2.201757 1_556
Mg10 O116 2.036078 1_555
Mg10 O44 2.093809 1_555
Mg10 O46 2.094652 1_555
Mg10 O42 2.101090 1_555
Mg10 O118 2.215779 1_555
Mg10 O114 2.248004 1_555
Mg11 O43 2.038946 1_555
Mg11 O47 2.052223 1_555
Mg11 O45 2.104566 1_555
Mg11 O115 2.155702 1_555
Mg11 O117 2.230434 1_555
Mg11 O119 2.238724 1_555
Mg12 O50 1.990154 1_554
Mg12 O52 2.024330 1_554
Mg12 O48 2.024653 1_554
Mg12 O120 2.111973 1_555
Mg12 O122 2.118964 1_555
Mg12 O124 2.122278 1_555
Mg13 O53 1.863588 1_554
Mg13 O51 2.031584 1_554
Mg13 O49 2.069378 1_554
Mg13 O125 2.181459 1_555
Mg13 O121 2.199264 1_555
Mg13 O123 2.221260 1_555
Mg14 O56 1.877666 1_555
Mg14 O58 2.064408 1_555
Mg14 O128 2.115879 1_555
Mg14 O130 2.118981 1_555
Mg14 O126 2.121228 1_555
Mg14 O54 2.160124 1_555
Mg15 O59 2.036690 1_555
Mg15 O57 2.043435 1_555
Mg15 O55 2.050229 1_555
Mg15 O127 2.076866 1_555
Mg15 O131 2.097168 1_555
Mg15 O129 2.106541 1_555
O0 Si0 1.584681 1_555
O1 Si1 1.564590 1_555
O2 S0 1.458487 1_555
O3 Si2 1.584402 1_555
O4 S2 1.452222 1_555
O5 S1 1.443302 1_655
O6 Si3 1.566426 1_555
O7 Si4 1.581178 1_555
O8 S4 1.444204 1_555
O9 S3 1.443652 1_555
O10 Si5 1.582268 1_555
O11 Si6 1.586990 1_555
O12 Si5 1.708560 1_565
O12 Ta1 1.854873 1_565
O13 Si6 1.720625 1_565
O13 Ta0 1.848122 1_565
O14 Si3 1.708705 1_555
O14 Ta0 1.842638 1_455
O15 Si4 1.728443 1_555
O15 Ta1 1.834249 1_555
O16 S3 1.520556 1_455
O16 Ta0 2.062678 1_465
O17 S4 1.526183 1_555
O17 Ta1 2.034989 1_565
O18 S0 1.521278 1_555
O18 Ta3 2.074993 1_555
O19 Si2 1.710082 1_555
O19 Ta2 1.860830 1_555
O20 S1 1.505576 1_555
O20 Ta2 2.096236 1_445
O21 S2 1.521728 1_555
O21 Ta3 2.068629 1_545
O22 Si0 1.713909 1_565
O22 Ta2 1.857153 1_455
O23 Si1 1.723702 1_565
O23 Ta3 1.832780 1_555
O24 S5 1.452648 1_555
O25 S6 1.449932 1_555
O26 S7 1.459386 1_555
O27 S8 1.455839 1_555
O28 S9 1.454942 1_555
O29 S10 1.456294 1_555
O30 S11 1.454776 1_555
O31 S12 1.451628 1_555
O32 S13 1.459296 1_555
O33 S14 1.459495 1_555
O34 S15 1.464499 1_555
O35 S16 1.447435 1_555
O36 S15 1.473863 1_555
O37 S16 1.464924 1_555
O38 S11 1.460933 1_555
O39 S12 1.466759 1_555
O40 S13 1.474159 1_555
O41 S14 1.476208 1_555
O42 S7 1.485695 1_555
O43 S8 1.481114 1_555
O44 S9 1.490182 1_555
O45 S10 1.492500 1_555
O46 S5 1.473364 1_555
O47 S6 1.474513 1_555
O48 S17 1.467637 1_555
O49 S18 1.466526 1_555
O50 S19 1.460694 1_555
O51 S20 1.469109 1_555
O52 S21 1.465207 1_555
O53 Si7 1.584853 1_555
O54 S22 1.457438 1_555
O55 S23 1.462119 1_555
O56 Si8 1.575802 1_555
O57 S24 1.459498 1_555
O58 S25 1.455210 1_555
O59 S26 1.459160 1_555
O60 S25 1.551003 1_555
O60 Ta4 2.007428 1_555
O61 S26 1.518572 1_555
O61 Ta5 2.096913 1_555
O62 S22 1.548609 1_555
O62 Ta4 2.049259 1_555
O63 S23 1.558334 1_555
O63 Ta5 1.998000 1_555
O64 Si8 1.759407 1_555
O64 Ta4 1.876097 1_555
O65 S24 1.529041 1_555
O65 Ta5 2.110096 1_555
O66 S19 1.515526 1_555
O66 Ta6 2.093846 1_555
O67 S20 1.497045 1_555
O67 Ta7 2.212950 1_555
O68 S21 1.522744 1_555
O68 Ta6 2.133739 1_555
O69 Si7 1.728004 1_555
O69 Ta7 1.890079 1_555
O70 S17 1.536793 1_555
O70 Ta6 2.024347 1_555
O71 S18 1.536401 1_555
O71 Ta7 2.085981 1_555
O72 S25 1.473920 1_555
O73 S26 1.490824 1_555
O74 S22 1.479310 1_555
O75 S23 1.466520 1_555
O76 Si8 1.606447 1_555
O77 S24 1.468281 1_555
O78 S19 1.480742 1_555
O79 S20 1.488122 1_555
O80 S21 1.462997 1_555
O81 Si7 1.606884 1_555
O82 S17 1.467560 1_555
O83 S18 1.473003 1_555
O84 S5 1.562478 1_555
O84 Ta1 2.079543 1_555
O85 S6 1.565861 1_555
O85 Ta0 2.050530 1_555
O86 S7 1.531800 1_555
O86 Ta0 2.156322 1_455
O87 S8 1.533467 1_555
O87 Ta1 2.168546 1_555
O88 S9 1.531956 1_555
O88 Ta1 2.148047 1_565
O89 S10 1.531281 1_555
O89 Ta0 2.158913 1_565
O90 S11 1.591089 1_555
O90 Ta3 1.982926 1_555
O91 S12 1.575306 1_555
O91 Ta2 2.033050 1_555
O92 S13 1.543013 1_555
O92 Ta3 2.078483 1_545
O93 S14 1.546248 1_555
O93 Ta2 2.102205 1_545
O94 S15 1.534244 1_555
O94 Ta2 2.146731 1_445
O95 S16 1.593078 1_555
O95 Ta3 1.977602 1_545
O96 Si5 1.572265 1_555
O97 Si6 1.569400 1_555
O98 Si3 1.571413 1_555
O99 Si4 1.577021 1_555
O100 S4 1.441722 1_555
O101 S3 1.438662 1_555
O102 S0 1.449662 1_555
O103 Si2 1.573494 1_555
O104 S2 1.447060 1_555
O105 S1 1.444041 1_655
O106 Si0 1.588816 1_555
O107 Si1 1.569472 1_555
O108 S17 1.466720 1_555
O109 S18 1.472332 1_555
O110 S20 1.492358 1_555
O111 S19 1.479189 1_655
O112 S21 1.495371 1_545
O113 Si7 1.652915 1_545
O114 S22 1.466287 1_545
O115 S23 1.463792 1_545
O116 Si8 1.650141 1_555
O117 S24 1.490249 1_555
O118 S26 1.477731 1_555
O119 S25 1.472641 1_655
O120 S15 1.477977 1_555
O121 S16 1.467930 1_555
O122 S12 1.475616 1_455
O123 S11 1.461897 1_555
O124 S13 1.473476 1_565
O125 S14 1.478632 1_565
O126 S7 1.479508 1_565
O127 S8 1.480848 1_565
O128 S9 1.478665 1_555
O129 S10 1.482358 1_555
O130 S6 1.472305 1_455
O131 S5 1.479050 1_555
O132 Si0 1.690761 1_565
O132 Ta4 1.953725 1_555
O133 Si1 1.702540 1_565
O133 Ta5 1.871664 1_555
O134 S0 1.520120 1_555
O134 Ta4 2.131218 1_555
O135 Si2 1.720057 1_555
O135 Ta5 1.871024 1_555
O136 S1 1.543603 1_555
O136 Ta4 2.042091 1_555
O137 S2 1.515811 1_555
O137 Ta5 2.092687 1_555
O138 Si3 1.714868 1_555
O138 Ta6 1.857106 1_555
O139 Si4 1.669654 1_555
O139 Ta7 1.943703 1_555
O140 S3 1.530479 1_455
O140 Ta6 2.045184 1_555
O141 S4 1.514950 1_555
O141 Ta7 2.080879 1_555
O142 Si5 1.712409 1_565
O142 Ta6 1.872367 1_555
O143 Si6 1.698130 1_565
O143 Ta7 1.881638 1_555
