# generated using pymatgen
data_Na6Y4In4Si3(S3O16)3
_symmetry_space_group_name_H-M   'P 1'
_cell_length_a   18.21313680
_cell_length_b   9.07456546
_cell_length_c   23.63073333
_cell_angle_alpha   89.96095721
_cell_angle_beta   90.02423658
_cell_angle_gamma   119.84458375
_symmetry_Int_Tables_number   1
_chemical_formula_structural   Na6Y4In4Si3(S3O16)3
_chemical_formula_sum   'Na18 Y12 In12 Si9 S27 O144'
_cell_volume   3387.63277766
_cell_formula_units_Z   3
loop_
 _symmetry_equiv_pos_site_id
 _symmetry_equiv_pos_as_xyz
  1  'x, y, z'
loop_
 _atom_site_type_symbol
 _atom_site_label
 _atom_site_symmetry_multiplicity
 _atom_site_fract_x
 _atom_site_fract_y
 _atom_site_fract_z
 _atom_site_occupancy
  Na  Na0  1  0.00634199  0.65796556  0.25347066  1
  Na  Na1  1  0.50562675  0.35679898  0.73776073  1
  Na  Na2  1  0.16220612  0.30752334  0.90954413  1
  Na  Na3  1  0.66258229  0.30993559  0.91120290  1
  Na  Na4  1  0.16280920  0.01809535  0.41822239  1
  Na  Na5  1  0.65950078  0.00958435  0.41742723  1
  Na  Na6  1  0.99377293  0.97934311  0.50164979  1
  Na  Na7  1  0.49344788  0.00028698  0.50557375  1
  Na  Na8  1  0.99640118  0.01153392  0.99645548  1
  Na  Na9  1  0.49413872  0.00931027  0.99829695  1
  Na  Na10  1  0.32955223  0.33080544  0.82593903  1
  Na  Na11  1  0.84236007  0.33627599  0.82412024  1
  Na  Na12  1  0.34717243  0.35689737  0.33310903  1
  Na  Na13  1  0.82909539  0.32786547  0.33597382  1
  Na  Na14  1  0.17539344  0.68842134  0.16843955  1
  Na  Na15  1  0.66074469  0.67828771  0.17357679  1
  Na  Na16  1  0.16538740  0.64497013  0.67102377  1
  Na  Na17  1  0.66432445  0.64698869  0.66093734  1
  Y  Y0  1  0.00252508  0.99940044  0.35170573  1
  Y  Y1  1  0.50065020  0.99474707  0.34957309  1
  Y  Y2  1  0.00170371  0.00997341  0.84752060  1
  Y  Y3  1  0.50350098  0.00944066  0.84936505  1
  Y  Y4  1  0.32941000  0.33259699  0.68037510  1
  Y  Y5  1  0.82313084  0.31524903  0.18469857  1
  Y  Y6  1  0.33937558  0.33083529  0.98143305  1
  Y  Y7  1  0.84152300  0.33361110  0.98244343  1
  Y  Y8  1  0.34553106  0.34753668  0.48527390  1
  Y  Y9  1  0.83919633  0.34860719  0.48261734  1
  Y  Y10  1  0.16723262  0.67014991  0.31464834  1
  Y  Y11  1  0.66544352  0.66298028  0.81251570  1
  In  In0  1  0.00623256  0.01170491  0.65242179  1
  In  In1  1  0.50305152  0.01410638  0.64874412  1
  In  In2  1  0.00315390  0.00018630  0.15075378  1
  In  In3  1  0.50603481  0.99925583  0.15337192  1
  In  In4  1  0.83006778  0.33649304  0.68353195  1
  In  In5  1  0.33040062  0.32476557  0.18432622  1
  In  In6  1  0.16359789  0.65987419  0.01686023  1
  In  In7  1  0.66099974  0.65853540  0.01725318  1
  In  In8  1  0.16225776  0.66373954  0.51781205  1
  In  In9  1  0.65185718  0.65158921  0.52017256  1
  In  In10  1  0.65880818  0.66950573  0.31518782  1
  In  In11  1  0.15902705  0.64705817  0.81243228  1
  Si  Si0  1  0.15155644  0.00471693  0.24854005  1
  Si  Si1  1  0.65013799  0.99340258  0.25157856  1
  Si  Si2  1  0.15322879  0.30497359  0.75102536  1
  Si  Si3  1  0.65355042  0.29792304  0.75121133  1
  Si  Si4  1  0.48756940  0.32991021  0.58836915  1
  Si  Si5  1  0.02090571  0.37277736  0.91792756  1
  Si  Si6  1  0.51897852  0.36895897  0.91623184  1
  Si  Si7  1  0.01881201  0.66617716  0.41520346  1
  Si  Si8  1  0.51837013  0.66724814  0.41584725  1
  S  S0  1  0.35215344  0.70018792  0.24488069  1
  S  S1  1  0.85002399  0.70668707  0.24777952  1
  S  S2  1  -0.00005375  0.29689790  0.24657677  1
  S  S3  1  0.50005254  0.29873280  0.24616238  1
  S  S4  1  0.99963490  0.70105366  0.74705159  1
  S  S5  1  0.49905943  0.70644602  0.74688945  1
  S  S6  1  0.34767515  0.99185235  0.75007645  1
  S  S7  1  0.85274503  0.00552693  0.74518297  1
  S  S8  1  0.98185921  0.33118527  0.58625411  1
  S  S9  1  0.17812697  0.02403148  0.58045755  1
  S  S10  1  0.68672350  0.03406582  0.58317850  1
  S  S11  1  0.32944852  0.64046914  0.58263350  1
  S  S12  1  0.83716479  0.64441444  0.58584444  1
  S  S13  1  0.48178257  0.63274560  0.08627232  1
  S  S14  1  0.98638555  0.64147369  0.08582944  1
  S  S15  1  0.33380348  0.02603555  0.08524518  1
  S  S16  1  0.83315459  0.01983617  0.08339650  1
  S  S17  1  0.18371927  0.33643790  0.08339183  1
  S  S18  1  0.67966454  0.33417164  0.08097387  1
  S  S19  1  0.31173894  0.66885102  0.91875097  1
  S  S20  1  0.81364659  0.66990687  0.92081545  1
  S  S21  1  0.16601143  0.95476638  0.91660524  1
  S  S22  1  0.66624734  0.96138563  0.92022269  1
  S  S23  1  0.31363135  0.96002861  0.41990376  1
  S  S24  1  0.80963147  0.95146473  0.41917693  1
  S  S25  1  0.16642059  0.37052126  0.41961034  1
  S  S26  1  0.66775979  0.37935913  0.41511657  1
  O  O0  1  0.10912161  0.02494641  0.30709856  1
  O  O1  1  0.60762171  0.01432838  0.30913528  1
  O  O2  1  0.40058140  0.78343738  0.29635434  1
  O  O3  1  0.90434805  0.79027623  0.29766884  1
  O  O4  1  0.48593608  0.19303147  0.29655456  1
  O  O5  1  0.98688781  0.19412671  0.29717516  1
  O  O6  1  0.11136248  0.20501148  0.81098011  1
  O  O7  1  0.61683451  0.20133152  0.81253269  1
  O  O8  1  0.49042995  0.78592840  0.79915217  1
  O  O9  1  0.98552330  0.77827124  0.79812644  1
  O  O10  1  0.40110526  0.01434035  0.80079335  1
  O  O11  1  0.90176059  0.02204682  0.79744446  1
  O  O12  1  0.38380205  0.95839881  0.69914665  1
  O  O13  1  0.89100854  0.97361622  0.69482238  1
  O  O14  1  0.09347578  0.20992712  0.69592455  1
  O  O15  1  0.58478264  0.19846683  0.70131205  1
  O  O16  1  0.00539968  0.79752409  0.69509578  1
  O  O17  1  0.50275706  0.80189417  0.69565218  1
  O  O18  1  0.38950104  0.80699208  0.19351273  1
  O  O19  1  0.88564475  0.81260937  0.19601719  1
  O  O20  1  0.00488465  0.21301295  0.19396014  1
  O  O21  1  0.50614371  0.21473357  0.19342098  1
  O  O22  1  0.08437559  0.95922982  0.19557376  1
  O  O23  1  0.59520827  0.97257171  0.19382047  1
  O  O24  1  0.44474092  0.34672590  0.64738704  1
  O  O25  1  0.94042365  0.35413421  0.63684361  1
  O  O26  1  0.23001654  0.11449901  0.63021714  1
  O  O27  1  0.73998431  0.12469908  0.63306859  1
  O  O28  1  0.31480722  0.53236963  0.63299962  1
  O  O29  1  0.82471934  0.53765463  0.63666347  1
  O  O30  1  0.44029157  0.52598603  0.13677459  1
  O  O31  1  0.94708955  0.54308964  0.13794865  1
  O  O32  1  0.32056518  0.10654322  0.13576178  1
  O  O33  1  0.82182290  0.10237274  0.13390973  1
  O  O34  1  0.23659797  0.35319388  0.13328931  1
  O  O35  1  0.73256276  0.34979165  0.13083175  1
  O  O36  1  0.22171156  0.31486995  0.03075770  1
  O  O37  1  0.71928101  0.31427264  0.02890099  1
  O  O38  1  0.43232535  0.55054169  0.03446604  1
  O  O39  1  0.93410215  0.55072343  0.03576413  1
  O  O40  1  0.34567984  0.13000820  0.03395734  1
  O  O41  1  0.84566134  0.12560735  0.03259079  1
  O  O42  1  0.21623428  0.12040972  0.52759751  1
  O  O43  1  0.72449629  0.13592590  0.53068312  1
  O  O44  1  0.33810678  0.55793811  0.53118401  1
  O  O45  1  0.85021953  0.56328956  0.53486445  1
  O  O46  1  0.43182695  0.32273288  0.53350228  1
  O  O47  1  0.93242620  0.31453557  0.53432494  1
  O  O48  1  0.27742539  0.70289314  0.97134107  1
  O  O49  1  0.77704592  0.70130175  0.97250647  1
  O  O50  1  0.07992846  0.45030109  0.97523747  1
  O  O51  1  0.58116620  0.45630913  0.97151792  1
  O  O52  1  0.16012915  0.86387065  0.97050266  1
  O  O53  1  0.66087653  0.86803757  0.97327700  1
  O  O54  1  0.27637305  0.85530151  0.47105418  1
  O  O55  1  0.77216920  0.84650681  0.46975298  1
  O  O56  1  0.16039897  0.45443112  0.47149712  1
  O  O57  1  0.66392612  0.46278193  0.46729734  1
  O  O58  1  0.08291105  0.70088094  0.46867692  1
  O  O59  1  0.58452976  0.71802626  0.46916904  1
  O  O60  1  0.05904559  0.64784582  0.35532021  1
  O  O61  1  0.55728164  0.63061475  0.35910246  1
  O  O62  1  0.26271821  0.87387743  0.36865997  1
  O  O63  1  0.76111213  0.87456739  0.36646562  1
  O  O64  1  0.17798332  0.47225069  0.36827097  1
  O  O65  1  0.68294711  0.48296910  0.36340841  1
  O  O66  1  0.06362358  0.49102617  0.86328849  1
  O  O67  1  0.56259399  0.47427090  0.85866780  1
  O  O68  1  0.18093232  0.87912289  0.86664127  1
  O  O69  1  0.67994594  0.88554910  0.86998069  1
  O  O70  1  0.26018540  0.64860229  0.86853620  1
  O  O71  1  0.76238265  0.65026744  0.87012461  1
  O  O72  1  0.01307683  0.84234716  0.41549663  1
  O  O73  1  0.51107177  0.84166173  0.41314598  1
  O  O74  1  0.40087189  0.99476575  0.41408061  1
  O  O75  1  0.89819598  0.98725091  0.41363261  1
  O  O76  1  0.08632811  0.20313154  0.41620957  1
  O  O77  1  0.58882178  0.21165550  0.41117516  1
  O  O78  1  0.01336573  0.18380869  0.91469004  1
  O  O79  1  0.51172386  0.18038075  0.91606548  1
  O  O80  1  0.08705432  0.96586846  0.91286128  1
  O  O81  1  0.58691617  0.97060256  0.91696313  1
  O  O82  1  0.40000845  0.80840848  0.91328544  1
  O  O83  1  0.90125746  0.81090133  0.91526673  1
  O  O84  1  0.49249257  0.15387917  0.58522841  1
  O  O85  1  0.98773246  0.17323725  0.58915377  1
  O  O86  1  0.09127823  0.00276976  0.58488509  1
  O  O87  1  0.59993698  0.00776136  0.58839242  1
  O  O88  1  0.40703923  0.80710693  0.58869522  1
  O  O89  1  0.91572261  0.81467376  0.59141430  1
  O  O90  1  0.48761828  0.80241558  0.08937683  1
  O  O91  1  0.99108188  0.81066635  0.08632135  1
  O  O92  1  0.41044570  0.00773283  0.09089896  1
  O  O93  1  0.91044587  0.00263712  0.08876592  1
  O  O94  1  0.09675377  0.18467344  0.08789164  1
  O  O95  1  0.59329147  0.18178196  0.08556965  1
  O  O96  1  0.34712169  0.15571326  0.74565761  1
  O  O97  1  0.85066041  0.16691495  0.74073501  1
  O  O98  1  0.24597279  0.31823711  0.74735393  1
  O  O99  1  0.74750738  0.31702497  0.74499665  1
  O  O100  1  0.42563795  0.52995191  0.74541639  1
  O  O101  1  0.92644573  0.52439259  0.74315097  1
  O  O102  1  0.34984503  0.53445308  0.24053978  1
  O  O103  1  0.85214747  0.54384607  0.24157741  1
  O  O104  1  0.42640550  0.32811079  0.24188220  1
  O  O105  1  0.92829828  0.33267889  0.24274250  1
  O  O106  1  0.24435720  0.17462333  0.24260507  1
  O  O107  1  0.74409263  0.16766295  0.24817328  1
  O  O108  1  0.31067451  0.50229306  0.92453928  1
  O  O109  1  0.81275505  0.50406142  0.92599842  1
  O  O110  1  0.42543130  0.35042101  0.92138403  1
  O  O111  1  0.92572973  0.34844461  0.92210755  1
  O  O112  1  0.23802474  0.13534025  0.92134642  1
  O  O113  1  0.73811947  0.14042843  0.92458864  1
  O  O114  1  0.31095580  0.12193913  0.42318573  1
  O  O115  1  0.81058225  0.11879635  0.42411667  1
  O  O116  1  0.23762434  0.33540916  0.42283668  1
  O  O117  1  0.73990355  0.34225483  0.41903291  1
  O  O118  1  0.42354456  0.50296537  0.42010957  1
  O  O119  1  0.92521379  0.49824307  0.42027122  1
  O  O120  1  0.17800327  0.49545240  0.08197389  1
  O  O121  1  0.67462104  0.49326572  0.08017307  1
  O  O122  1  0.07322081  0.66376283  0.08139721  1
  O  O123  1  0.56881419  0.65467203  0.08285152  1
  O  O124  1  0.25615247  0.85421025  0.07936511  1
  O  O125  1  0.75604605  0.84928973  0.07781752  1
  O  O126  1  0.17238860  0.85414454  0.57998561  1
  O  O127  1  0.68502769  0.86908892  0.58041984  1
  O  O128  1  0.25296921  0.66243444  0.57787285  1
  O  O129  1  0.76239570  0.66456515  0.57922387  1
  O  O130  1  0.06850991  0.48325001  0.58269286  1
  O  O131  1  0.58325889  0.49905758  0.58560734  1
  O  O132  1  0.15832074  0.82979486  0.25011032  1
  O  O133  1  0.66406360  0.82808152  0.25102107  1
  O  O134  1  0.26467112  0.67102510  0.24926046  1
  O  O135  1  0.76296626  0.67155438  0.25526696  1
  O  O136  1  0.07915432  0.46445723  0.24969055  1
  O  O137  1  0.58034737  0.46343455  0.25023606  1
  O  O138  1  0.16406793  0.49651932  0.75001250  1
  O  O139  1  0.65886194  0.48513156  0.75131559  1
  O  O140  1  0.08003355  0.69741889  0.75133375  1
  O  O141  1  0.57787840  0.69453236  0.74912283  1
  O  O142  1  0.26052324  0.84976046  0.75760147  1
  O  O143  1  0.76607729  0.86041075  0.75066639  1
loop_
_geom_bond_atom_site_label_1
_geom_bond_atom_site_label_2
_geom_bond_distance
_geom_bond_site_symmetry_2
Na0 O132 2.409096 1_555
Na0 O103 2.478597 1_455
Na0 O105 2.573457 1_455
Na0 O60 2.609196 1_555
Na0 O136 2.677359 1_555
Na0 O22 2.737702 1_555
Na0 O3 2.864694 1_455
Na0 O31 2.930051 1_455
Na1 O24 2.386673 1_555
Na1 O139 2.452092 1_555
Na1 O96 2.540773 1_555
Na1 O100 2.627365 1_555
Na1 O15 2.636107 1_555
Na1 O141 2.680188 1_555
Na2 O78 2.365355 1_555
Na2 O108 2.409286 1_555
Na2 O6 2.508291 1_555
Na2 O112 2.563705 1_555
Na2 O80 2.695922 1_545
Na2 O70 2.864170 1_555
Na2 O50 2.875994 1_555
Na3 O79 2.393687 1_555
Na3 O109 2.431224 1_555
Na3 O7 2.507249 1_555
Na3 O113 2.542459 1_555
Na3 O81 2.678755 1_545
Na3 O51 2.821226 1_555
Na3 O71 2.862581 1_555
Na3 O37 2.959864 1_556
Na4 O114 2.377252 1_555
Na4 O72 2.378208 1_545
Na4 O116 2.501033 1_555
Na4 O76 2.662676 1_555
Na4 O42 2.755183 1_555
Na4 O58 2.766396 1_545
Na4 O0 2.813122 1_555
Na4 O62 2.961367 1_545
Na5 O73 2.353790 1_545
Na5 O115 2.421667 1_555
Na5 O59 2.600161 1_545
Na5 O117 2.619047 1_555
Na5 O77 2.718510 1_555
Na5 O1 2.735236 1_555
Na5 O43 2.920471 1_555
Na5 O63 2.938887 1_545
Na6 O72 2.500584 1_655
Na6 O89 2.576280 1_555
Na6 O86 2.586414 1_665
Na6 O75 2.735411 1_555
Na6 O85 2.753453 1_565
Na6 O76 2.762645 1_665
Na7 O84 2.348131 1_555
Na7 O88 2.580708 1_545
Na7 O73 2.722180 1_545
Na7 O74 2.726331 1_545
Na7 O87 2.731741 1_555
Na7 O77 2.890286 1_555
Na8 O78 2.405903 1_655
Na8 O83 2.619212 1_545
Na8 O93 2.663185 1_556
Na8 O80 2.735838 1_645
Na8 O94 2.760603 1_656
Na8 O91 2.767803 1_546
Na9 O79 2.406249 1_555
Na9 O92 2.663315 1_556
Na9 O95 2.674334 1_556
Na9 O82 2.681368 1_545
Na9 O81 2.695759 1_545
Na9 O90 2.818537 1_546
Na10 O98 2.367249 1_555
Na10 O96 2.595504 1_555
Na10 O100 2.607591 1_555
Na10 O110 2.802843 1_555
Na10 O112 2.839520 1_555
Na10 O108 2.916664 1_555
Na11 O99 2.491645 1_555
Na11 O101 2.513254 1_555
Na11 O97 2.550130 1_555
Na11 O111 2.740418 1_555
Na12 O118 2.466711 1_555
Na12 O104 2.678920 1_555
Na12 O102 2.701992 1_555
Na12 O106 2.781196 1_555
Na12 O114 2.847314 1_555
Na12 O116 2.851401 1_555
Na13 O107 2.564434 1_555
Na13 O117 2.592774 1_555
Na13 O119 2.594328 1_555
Na13 O115 2.722132 1_555
Na13 O105 2.836347 1_555
Na13 O103 2.858191 1_555
Na14 O132 2.422420 1_555
Na14 O134 2.562983 1_555
Na14 O124 2.579398 1_555
Na14 O122 2.706776 1_555
Na14 O120 2.707638 1_555
Na14 O136 2.709483 1_555
Na15 O133 2.263193 1_555
Na15 O137 2.526457 1_555
Na15 O123 2.661980 1_555
Na15 O135 2.703036 1_555
Na15 O125 2.803400 1_555
Na15 O121 2.860504 1_555
Na16 O138 2.294291 1_555
Na16 O140 2.642899 1_555
Na16 O130 2.654750 1_555
Na16 O128 2.676912 1_555
Na16 O142 2.727427 1_555
Na16 O126 2.828629 1_555
Na17 O131 2.275764 1_555
Na17 O139 2.564940 1_555
Na17 O129 2.581357 1_555
Na17 O127 2.657720 1_555
Na17 O141 2.772674 1_555
Na17 O143 2.848025 1_555
In0 O14 1.993389 1_555
In0 O16 2.182363 1_545
In0 O13 2.192449 1_445
In0 O85 2.232848 1_455
In0 O89 2.249578 1_445
In0 O86 2.253911 1_555
In1 O15 2.020018 1_555
In1 O84 2.034324 1_555
In1 O17 2.219010 1_545
In1 O87 2.292241 1_555
In1 O12 2.302154 1_545
In1 O88 2.309146 1_545
In2 O22 1.998393 1_545
In2 O20 2.171509 1_555
In2 O91 2.225149 1_445
In2 O19 2.235070 1_445
In2 O93 2.243317 1_455
In2 O94 2.252497 1_555
In3 O23 1.999959 1_555
In3 O21 2.172044 1_565
In3 O18 2.182282 1_555
In3 O90 2.235394 1_555
In3 O95 2.283597 1_565
In3 O92 2.312422 1_565
In4 O99 2.034454 1_555
In4 O27 2.161190 1_555
In4 O29 2.177739 1_555
In4 O97 2.215203 1_555
In4 O25 2.228014 1_555
In4 O101 2.235098 1_555
In5 O106 2.020632 1_555
In5 O102 2.200695 1_555
In5 O104 2.203045 1_555
In5 O34 2.208245 1_555
In5 O32 2.218207 1_555
In5 O30 2.228088 1_555
In6 O50 2.005801 1_554
In6 O52 2.178182 1_554
In6 O48 2.191620 1_554
In6 O120 2.246947 1_555
In6 O122 2.257550 1_555
In6 O124 2.275057 1_555
In7 O51 1.998871 1_554
In7 O53 2.166982 1_554
In7 O121 2.210988 1_555
In7 O49 2.218288 1_554
In7 O125 2.249486 1_555
In7 O123 2.273037 1_555
In8 O58 2.008245 1_555
In8 O56 2.178402 1_555
In8 O128 2.182094 1_555
In8 O126 2.205441 1_555
In8 O54 2.228401 1_555
In8 O130 2.272440 1_555
In9 O59 2.013292 1_555
In9 O131 2.036006 1_555
In9 O57 2.218797 1_555
In9 O127 2.259144 1_555
In9 O55 2.343390 1_555
In9 O129 2.403366 1_555
In10 O61 1.993059 1_555
In10 O133 2.058919 1_555
In10 O63 2.225541 1_555
In10 O65 2.257153 1_555
In10 O137 2.288482 1_555
In10 O135 2.360348 1_555
In11 O66 2.004755 1_555
In11 O138 2.044011 1_555
In11 O140 2.239438 1_555
In11 O142 2.256985 1_555
In11 O70 2.263763 1_555
In11 O68 2.324201 1_555
O0 Si0 1.639616 1_555
O0 Y0 2.118389 1_545
O1 Si1 1.622705 1_545
O1 Y1 2.096973 1_545
O2 S0 1.471516 1_555
O2 Y1 2.259027 1_555
O3 S1 1.482371 1_555
O3 Y0 2.247935 1_655
O4 S3 1.468815 1_555
O4 Y1 2.314243 1_545
O5 S2 1.460793 1_655
O5 Y0 2.315506 1_645
O6 Si2 1.649928 1_555
O6 Y2 2.085221 1_555
O7 Si3 1.652566 1_555
O7 Y3 2.114830 1_555
O8 S5 1.477964 1_555
O8 Y3 2.258533 1_565
O9 S4 1.481357 1_555
O9 Y2 2.292706 1_665
O10 S6 1.492203 1_545
O10 Y3 2.208634 1_555
O11 S7 1.486850 1_555
O11 Y2 2.218602 1_655
O12 S6 1.474283 1_555
O13 S7 1.479117 1_565
O14 Si2 1.640053 1_555
O15 Si3 1.627508 1_555
O16 S4 1.480519 1_455
O17 S5 1.470139 1_555
O18 S0 1.489442 1_555
O19 S1 1.489759 1_555
O20 S2 1.484265 1_555
O21 S3 1.494065 1_555
O22 Si0 1.652520 1_565
O23 Si1 1.646344 1_555
O24 Si4 1.642084 1_555
O24 Y4 2.183934 1_555
O25 S8 1.483093 1_555
O26 S9 1.475780 1_555
O26 Y4 2.243745 1_555
O27 S10 1.487820 1_555
O28 S11 1.479275 1_555
O28 Y4 2.255514 1_555
O29 S12 1.487336 1_555
O30 S13 1.484711 1_555
O31 S14 1.479683 1_555
O31 Y5 2.438319 1_555
O32 S15 1.481097 1_555
O33 S16 1.477730 1_555
O33 Y5 2.264956 1_555
O34 S17 1.481384 1_555
O35 S18 1.483160 1_555
O35 Y5 2.225268 1_555
O36 S17 1.483227 1_555
O36 Y6 2.380127 1_554
O37 S18 1.482613 1_555
O37 Y7 2.409534 1_554
O38 S13 1.482597 1_555
O38 Y6 2.248050 1_554
O39 S14 1.484757 1_555
O39 Y7 2.237760 1_554
O40 S15 1.483711 1_555
O40 Y6 2.253886 1_554
O41 S16 1.481753 1_555
O41 Y7 2.260807 1_554
O42 S9 1.483917 1_555
O42 Y8 2.441771 1_555
O43 S10 1.494249 1_555
O43 Y9 2.316296 1_555
O44 S11 1.477451 1_555
O44 Y8 2.258453 1_555
O45 S12 1.491791 1_555
O45 Y9 2.230181 1_555
O46 Si4 1.627630 1_555
O46 Y8 2.042071 1_555
O47 S8 1.484313 1_555
O47 Y9 2.234301 1_555
O48 S19 1.491222 1_555
O49 S20 1.485859 1_555
O50 Si5 1.652859 1_555
O51 Si6 1.650627 1_555
O52 S21 1.491548 1_555
O53 S22 1.488326 1_555
O54 S23 1.477134 1_555
O55 S24 1.467451 1_555
O56 S25 1.476383 1_555
O57 S26 1.467099 1_555
O58 Si7 1.640792 1_555
O59 Si8 1.642818 1_555
O60 Si7 1.640008 1_555
O60 Y10 2.109897 1_555
O61 Si8 1.626879 1_555
O62 S23 1.488693 1_555
O62 Y10 2.207404 1_555
O63 S24 1.485223 1_555
O64 S25 1.474304 1_555
O64 Y10 2.283798 1_555
O65 S26 1.481024 1_555
O66 Si5 1.609936 1_555
O67 Si6 1.624266 1_555
O67 Y11 2.106497 1_555
O68 S21 1.458115 1_555
O69 S22 1.455223 1_555
O69 Y11 2.337837 1_555
O70 S19 1.466655 1_555
O71 S20 1.473810 1_555
O71 Y11 2.276896 1_555
O72 Si7 1.653152 1_555
O72 Y0 2.147060 1_555
O73 Si8 1.654093 1_555
O73 Y1 2.117083 1_555
O74 S23 1.464443 1_555
O74 Y1 2.372513 1_555
O75 S24 1.484343 1_555
O75 Y0 2.357511 1_655
O76 S25 1.495452 1_555
O76 Y0 2.294414 1_545
O77 S26 1.487978 1_555
O77 Y1 2.329845 1_545
O78 Si5 1.652594 1_555
O78 Y2 2.173155 1_555
O79 Si6 1.649505 1_555
O79 Y3 2.164469 1_555
O80 S21 1.493339 1_555
O80 Y2 2.361591 1_565
O81 S22 1.490219 1_555
O81 Y3 2.348214 1_565
O82 S19 1.476020 1_555
O82 Y3 2.395557 1_565
O83 S20 1.472524 1_555
O83 Y2 2.425351 1_665
O84 Si4 1.645594 1_555
O85 S8 1.490964 1_555
O86 S9 1.498860 1_555
O87 S10 1.481628 1_555
O88 S11 1.475614 1_555
O89 S12 1.500497 1_555
O90 S13 1.491498 1_555
O91 S14 1.494679 1_555
O92 S15 1.491484 1_555
O93 S16 1.496871 1_555
O94 S17 1.498533 1_555
O95 S18 1.494519 1_555
O96 S6 1.495587 1_545
O96 Y4 2.360498 1_555
O97 S7 1.487433 1_555
O98 Si2 1.634940 1_555
O98 Y4 2.153163 1_555
O99 Si3 1.638577 1_555
O100 S5 1.490952 1_555
O100 Y4 2.349203 1_555
O101 S4 1.492841 1_555
O102 S0 1.487109 1_555
O103 S1 1.504589 1_555
O103 Y5 2.302420 1_555
O104 S3 1.495414 1_555
O105 S2 1.496017 1_655
O105 Y5 2.296033 1_555
O106 Si0 1.630897 1_555
O107 Si1 1.655900 1_545
O107 Y5 2.048415 1_555
O108 S19 1.508011 1_555
O108 Y6 2.303839 1_555
O109 S20 1.501880 1_555
O109 Y7 2.291145 1_555
O110 Si6 1.631225 1_555
O110 Y6 2.055725 1_555
O111 Si5 1.637842 1_655
O111 Y7 2.049201 1_555
O112 S21 1.509618 1_545
O112 Y6 2.304905 1_555
O113 S22 1.499081 1_545
O113 Y7 2.281272 1_555
O114 S23 1.496181 1_545
O114 Y8 2.336755 1_555
O115 S24 1.514503 1_545
O115 Y9 2.335231 1_555
O116 S25 1.483337 1_555
O116 Y8 2.415369 1_555
O117 S26 1.512822 1_555
O117 Y9 2.329262 1_555
O118 Si8 1.628720 1_555
O118 Y8 2.093733 1_555
O119 Si7 1.630041 1_655
O119 Y9 2.085833 1_555
O120 S17 1.497873 1_555
O121 S18 1.491659 1_555
O122 S14 1.494953 1_455
O123 S13 1.498299 1_555
O124 S15 1.502000 1_565
O125 S16 1.490544 1_565
O126 S9 1.492444 1_565
O127 S10 1.483443 1_565
O128 S11 1.506258 1_555
O129 S12 1.469687 1_555
O130 S8 1.494774 1_455
O131 Si4 1.653816 1_555
O132 Si0 1.652502 1_565
O132 Y10 2.163745 1_555
O133 Si1 1.641308 1_555
O134 S0 1.483194 1_555
O134 Y10 2.350593 1_555
O135 S1 1.464269 1_555
O136 S2 1.488427 1_555
O136 Y10 2.331372 1_555
O137 S3 1.485391 1_555
O138 Si2 1.649024 1_555
O139 Si3 1.652828 1_555
O139 Y11 2.126271 1_555
O140 S4 1.484412 1_455
O141 S5 1.493200 1_555
O141 Y11 2.306822 1_555
O142 S6 1.475337 1_555
O143 S7 1.474318 1_565
O143 Y11 2.331457 1_555
