# generated using pymatgen
data_NaGa2P(SO6)2
_symmetry_space_group_name_H-M   'P 1'
_cell_length_a   8.48328136
_cell_length_b   8.48363620
_cell_length_c   22.17029472
_cell_angle_alpha   89.99768803
_cell_angle_beta   90.00000000
_cell_angle_gamma   119.99861642
_symmetry_Int_Tables_number   1
_chemical_formula_structural   NaGa2P(SO6)2
_chemical_formula_sum   'Na6 Ga12 P6 S12 O72'
_cell_volume   1381.82822708
_cell_formula_units_Z   6
loop_
 _symmetry_equiv_pos_site_id
 _symmetry_equiv_pos_as_xyz
  1  'x, y, z'
loop_
 _atom_site_type_symbol
 _atom_site_label
 _atom_site_symmetry_multiplicity
 _atom_site_fract_x
 _atom_site_fract_y
 _atom_site_fract_z
 _atom_site_occupancy
  Na  Na0  1  0.99364032  0.99583819  0.49996959  1
  Na  Na1  1  0.00219786  0.99583819  0.99996959  1
  Na  Na2  1  0.66420196  0.32694801  0.83333888  1
  Na  Na3  1  0.66274706  0.32694801  0.33333888  1
  Na  Na4  1  0.32889641  0.66876516  0.16668683  1
  Na  Na5  1  0.33986775  0.66876516  0.66668683  1
  Ga  Ga0  1  0.00054649  0.00138269  0.35149562  1
  Ga  Ga1  1  0.00083621  0.00138269  0.85149562  1
  Ga  Ga2  1  0.98437600  0.98943752  0.64817812  1
  Ga  Ga3  1  0.00506152  0.98943752  0.14817812  1
  Ga  Ga4  1  0.66577007  0.33215510  0.68495690  1
  Ga  Ga5  1  0.66638603  0.33215510  0.18495690  1
  Ga  Ga6  1  0.66591294  0.33318123  0.98176031  1
  Ga  Ga7  1  0.66726929  0.33318123  0.48176031  1
  Ga  Ga8  1  0.32206393  0.67178082  0.01833898  1
  Ga  Ga9  1  0.34971589  0.67178082  0.51833898  1
  Ga  Ga10  1  0.33822725  0.68259257  0.31510881  1
  Ga  Ga11  1  0.34436432  0.68259257  0.81510881  1
  P  P0  1  0.29138887  0.00222409  0.25054080  1
  P  P1  1  0.71083521  0.00222409  0.75054080  1
  P  P2  1  0.66671366  0.61974515  0.58334068  1
  P  P3  1  0.95303250  0.61974515  0.08334068  1
  P  P4  1  0.33329623  0.96086378  0.91667745  1
  P  P5  1  0.62756655  0.96086378  0.41667745  1
  S  S0  1  0.70911244  0.70932290  0.25003030  1
  S  S1  1  0.00146365  0.29042698  0.24965187  1
  S  S2  1  0.28896333  0.29042698  0.74965187  1
  S  S3  1  0.00021047  0.70932290  0.75003030  1
  S  S4  1  0.95938760  0.33515594  0.58306833  1
  S  S5  1  0.37400896  0.04244642  0.58361059  1
  S  S6  1  0.66843846  0.04244642  0.08361059  1
  S  S7  1  0.37576934  0.33515594  0.08306833  1
  S  S8  1  0.62181261  0.66622362  0.91727878  1
  S  S9  1  0.04489488  0.37774730  0.91604263  1
  S  S10  1  0.33285142  0.37774730  0.41604263  1
  S  S11  1  0.04441001  0.66622362  0.41727878  1
  O  O0  1  0.20745745  0.03611805  0.30718301  1
  O  O1  1  0.82078763  0.78728596  0.30465007  1
  O  O2  1  0.96560008  0.17843293  0.30454817  1
  O  O3  1  0.21283285  0.17843293  0.80454817  1
  O  O4  1  0.96649833  0.78728596  0.80465007  1
  O  O5  1  0.82866061  0.03611805  0.80718301  1
  O  O6  1  0.79126205  0.96563273  0.69359981  1
  O  O7  1  0.17815840  0.21021976  0.69481947  1
  O  O8  1  0.03736045  0.82271067  0.69547451  1
  O  O9  1  0.78535022  0.82271067  0.19547451  1
  O  O10  1  0.03206136  0.21021976  0.19481947  1
  O  O11  1  0.17437067  0.96563273  0.19359981  1
  O  O12  1  0.88094480  0.36768497  0.63790559  1
  O  O13  1  0.48769665  0.11902291  0.63799725  1
  O  O14  1  0.63234707  0.50334310  0.64039627  1
  O  O15  1  0.87099703  0.50334310  0.14039627  1
  O  O16  1  0.63132726  0.11902291  0.13799725  1
  O  O17  1  0.48674117  0.36768497  0.13790559  1
  O  O18  1  0.45239709  0.29806480  0.02869773  1
  O  O19  1  0.83667745  0.53773969  0.02623694  1
  O  O20  1  0.70107740  0.15340408  0.02877116  1
  O  O21  1  0.45232769  0.15340408  0.52877116  1
  O  O22  1  0.70106324  0.53773969  0.52623694  1
  O  O23  1  0.84566871  0.29806480  0.52869773  1
  O  O24  1  0.54205472  0.69791274  0.97190808  1
  O  O25  1  0.15666738  0.45347646  0.97109413  1
  O  O26  1  0.29717101  0.84226583  0.97321378  1
  O  O27  1  0.54509382  0.84226583  0.47321378  1
  O  O28  1  0.29680809  0.45347646  0.47109413  1
  O  O29  1  0.15585702  0.69791274  0.47190808  1
  O  O30  1  0.12014951  0.63015776  0.36220655  1
  O  O31  1  0.50901408  0.87846487  0.36020333  1
  O  O32  1  0.36460020  0.48923032  0.36138247  1
  O  O33  1  0.12462912  0.48923032  0.86138247  1
  O  O34  1  0.36944979  0.87846487  0.86020333  1
  O  O35  1  0.51000726  0.63015776  0.86220655  1
  O  O36  1  0.02640902  0.83047887  0.41052151  1
  O  O37  1  0.81658415  0.97809247  0.40854126  1
  O  O38  1  0.16958084  0.19463302  0.41035121  1
  O  O39  1  0.02505218  0.19463302  0.91035121  1
  O  O40  1  0.16150832  0.97809247  0.90854126  1
  O  O41  1  0.80406985  0.83047887  0.91052151  1
  O  O42  1  0.97986553  0.17220574  0.58976772  1
  O  O43  1  0.19330493  0.02670436  0.59098127  1
  O  O44  1  0.83803897  0.81069012  0.58942117  1
  O  O45  1  0.97265115  0.81069012  0.08942117  1
  O  O46  1  0.83339943  0.02670436  0.09098127  1
  O  O47  1  0.19234021  0.17220574  0.08976772  1
  O  O48  1  0.69063298  0.17244184  0.74230876  1
  O  O49  1  0.47200161  0.30932524  0.74367707  1
  O  O50  1  0.83560282  0.52784760  0.74349400  1
  O  O51  1  0.69224578  0.52784760  0.24349400  1
  O  O52  1  0.83732463  0.30932524  0.24367707  1
  O  O53  1  0.48180986  0.17244184  0.24230876  1
  O  O54  1  0.64165198  0.50297738  0.92299215  1
  O  O55  1  0.86268721  0.35971198  0.92271687  1
  O  O56  1  0.50524854  0.14993035  0.92486148  1
  O  O57  1  0.64468281  0.14993035  0.42486148  1
  O  O58  1  0.49702578  0.35971198  0.42271687  1
  O  O59  1  0.86132639  0.50297738  0.42299215  1
  O  O60  1  0.36002184  0.50008532  0.07571897  1
  O  O61  1  0.14404390  0.63933883  0.07725845  1
  O  O62  1  0.50553665  0.85902402  0.07683994  1
  O  O63  1  0.35348638  0.85902402  0.57683994  1
  O  O64  1  0.49529393  0.63933883  0.57725845  1
  O  O65  1  0.14006247  0.50008532  0.57571897  1
  O  O66  1  0.30807519  0.82925100  0.25652947  1
  O  O67  1  0.52556846  0.68792667  0.25651761  1
  O  O68  1  0.16595613  0.47193008  0.25713730  1
  O  O69  1  0.30597295  0.47193008  0.75713730  1
  O  O70  1  0.16235721  0.68792667  0.75651761  1
  O  O71  1  0.52117482  0.82925100  0.75652947  1
loop_
_geom_bond_atom_site_label_1
_geom_bond_atom_site_label_2
_geom_bond_distance
_geom_bond_site_symmetry_2
Na0 O44 2.463540 1_555
Na0 O37 2.482203 1_555
Na0 O36 2.523507 1_655
Na0 O42 2.528032 1_565
Na0 O38 2.549957 1_665
Na0 O43 2.562309 1_665
Na1 O45 2.463540 1_456
Na1 O40 2.482203 1_555
Na1 O41 2.523507 1_455
Na1 O47 2.528032 1_566
Na1 O39 2.549957 1_565
Na1 O46 2.562309 1_466
Na2 O48 2.476994 1_555
Na2 O56 2.483053 1_555
Na2 O55 2.524082 1_555
Na2 O49 2.527564 1_555
Na2 O54 2.550169 1_555
Na2 O50 2.551140 1_555
Na3 O53 2.476994 1_555
Na3 O57 2.483053 1_555
Na3 O58 2.524082 1_555
Na3 O52 2.527564 1_555
Na3 O59 2.550169 1_555
Na3 O51 2.551140 1_555
Na4 O61 2.461895 1_555
Na4 O66 2.468401 1_555
Na4 O62 2.529761 1_555
Na4 O68 2.532202 1_555
Na4 O67 2.550540 1_555
Na4 O60 2.561840 1_555
Na5 O64 2.461895 1_555
Na5 O71 2.468401 1_555
Na5 O63 2.529761 1_555
Na5 O69 2.532202 1_555
Na5 O70 2.550540 1_555
Na5 O65 2.561840 1_555
Ga0 O0 1.901516 1_555
Ga0 O37 1.940536 1_445
Ga0 O2 1.967861 1_455
Ga0 O1 1.983331 1_445
Ga0 O38 2.023873 1_555
Ga0 O36 2.044684 1_545
Ga1 O5 1.901516 1_455
Ga1 O40 1.940536 1_545
Ga1 O3 1.967860 1_555
Ga1 O4 1.983331 1_445
Ga1 O39 2.023873 1_555
Ga1 O41 2.044684 1_445
Ga2 O6 1.846034 1_555
Ga2 O44 1.911886 1_555
Ga2 O8 1.984398 1_655
Ga2 O42 2.035132 1_565
Ga2 O7 2.049671 1_665
Ga2 O43 2.070991 1_665
Ga3 O11 1.846034 1_555
Ga3 O45 1.911886 1_455
Ga3 O9 1.984398 1_455
Ga3 O47 2.035132 1_565
Ga3 O10 2.049671 1_565
Ga3 O46 2.070991 1_465
Ga4 O14 1.891348 1_555
Ga4 O48 1.944927 1_555
Ga4 O13 1.975887 1_555
Ga4 O12 1.990182 1_555
Ga4 O49 2.028789 1_555
Ga4 O50 2.030903 1_555
Ga5 O15 1.891348 1_555
Ga5 O53 1.944927 1_555
Ga5 O16 1.975887 1_555
Ga5 O17 1.990182 1_555
Ga5 O52 2.028789 1_555
Ga5 O51 2.030903 1_555
Ga6 O19 1.889117 1_556
Ga6 O56 1.935764 1_555
Ga6 O18 1.978100 1_556
Ga6 O20 1.989023 1_556
Ga6 O54 2.027620 1_555
Ga6 O55 2.043275 1_555
Ga7 O22 1.889117 1_555
Ga7 O57 1.935764 1_555
Ga7 O23 1.978100 1_555
Ga7 O21 1.989023 1_555
Ga7 O59 2.027620 1_555
Ga7 O58 2.043275 1_555
Ga8 O26 1.855438 1_554
Ga8 O61 1.909738 1_555
Ga8 O25 1.974201 1_554
Ga8 O62 2.038600 1_555
Ga8 O24 2.043995 1_554
Ga8 O60 2.076672 1_555
Ga9 O27 1.855438 1_555
Ga9 O64 1.909738 1_555
Ga9 O28 1.974201 1_555
Ga9 O63 2.038600 1_555
Ga9 O29 2.043995 1_555
Ga9 O65 2.076672 1_555
Ga10 O31 1.858119 1_555
Ga10 O66 1.902167 1_555
Ga10 O30 1.971743 1_555
Ga10 O67 2.035500 1_555
Ga10 O32 2.039693 1_555
Ga10 O68 2.090479 1_555
Ga11 O34 1.858119 1_555
Ga11 O71 1.902167 1_555
Ga11 O35 1.971743 1_555
Ga11 O70 2.035500 1_555
Ga11 O33 2.039693 1_555
Ga11 O69 2.090479 1_555
O0 P0 1.539926 1_555
O1 S0 1.474732 1_555
O2 S1 1.478983 1_655
O3 S2 1.478983 1_555
O4 S3 1.474732 1_655
O5 P1 1.539926 1_555
O6 P1 1.538619 1_565
O7 S2 1.478132 1_555
O8 S3 1.477953 1_555
O9 S0 1.477953 1_555
O10 S1 1.478132 1_555
O11 P0 1.538619 1_565
O12 S4 1.476723 1_555
O13 S5 1.476351 1_555
O14 P2 1.540214 1_555
O15 P3 1.540214 1_555
O16 S6 1.476351 1_555
O17 S7 1.476723 1_555
O18 S7 1.476204 1_555
O19 P3 1.540934 1_555
O20 S6 1.476557 1_555
O21 S5 1.476557 1_555
O22 P2 1.540934 1_555
O23 S4 1.476204 1_555
O24 S8 1.476100 1_555
O25 S9 1.480670 1_555
O26 P4 1.539119 1_555
O27 P5 1.539119 1_555
O28 S10 1.480670 1_555
O29 S11 1.476100 1_555
O30 S11 1.481156 1_555
O31 P5 1.537793 1_555
O32 S10 1.476742 1_555
O33 S9 1.476742 1_555
O34 P4 1.537793 1_555
O35 S8 1.481156 1_555
O36 S11 1.483349 1_555
O37 P5 1.546195 1_555
O38 S10 1.481911 1_555
O39 S9 1.481914 1_555
O40 P4 1.546186 1_555
O41 S8 1.483354 1_555
O42 S4 1.484393 1_555
O43 S5 1.479795 1_555
O44 P2 1.549319 1_555
O45 P3 1.549322 1_555
O46 S6 1.479787 1_555
O47 S7 1.484398 1_555
O48 P1 1.547727 1_555
O49 S2 1.485056 1_555
O50 S3 1.480364 1_655
O51 S0 1.480368 1_555
O52 S1 1.485047 1_655
O53 P0 1.547732 1_555
O54 S8 1.481702 1_555
O55 S9 1.482585 1_655
O56 P4 1.547219 1_545
O57 P5 1.547212 1_545
O58 S10 1.482602 1_555
O59 S11 1.481692 1_655
O60 S7 1.479544 1_555
O61 P3 1.549896 1_455
O62 S6 1.484383 1_565
O63 S5 1.484376 1_565
O64 P2 1.549913 1_555
O65 S4 1.479535 1_455
O66 P0 1.548789 1_565
O67 S0 1.481699 1_555
O68 S1 1.482294 1_555
O69 S2 1.482297 1_555
O70 S3 1.481691 1_555
O71 P1 1.548794 1_565
