# generated using pymatgen
data_MgNb2In2O8
_symmetry_space_group_name_H-M   'P 1'
_cell_length_a   5.33621605
_cell_length_b   5.38805213
_cell_length_c   6.75395176
_cell_angle_alpha   89.35039052
_cell_angle_beta   93.60297082
_cell_angle_gamma   99.04218227
_symmetry_Int_Tables_number   1
_chemical_formula_structural   MgNb2In2O8
_chemical_formula_sum   'Mg1 Nb2 In2 O8'
_cell_volume   191.39588253
_cell_formula_units_Z   1
loop_
 _symmetry_equiv_pos_site_id
 _symmetry_equiv_pos_as_xyz
  1  'x, y, z'
loop_
 _atom_site_type_symbol
 _atom_site_label
 _atom_site_symmetry_multiplicity
 _atom_site_fract_x
 _atom_site_fract_y
 _atom_site_fract_z
 _atom_site_occupancy
  Mg  Mg0  1  0.66703055  0.97385094  0.36673322  1
  Nb  Nb0  1  0.02762299  0.74279979  0.12796097  1
  Nb  Nb1  1  0.97707620  0.22433632  0.83570507  1
  In  In0  1  0.45992403  0.69925423  0.80045044  1
  In  In1  1  0.41206313  0.38218948  0.33136721  1
  O  O0  1  0.18819545  0.41008965  0.65071239  1
  O  O1  1  0.71287030  0.01154699  0.67107209  1
  O  O2  1  0.79457670  0.64994829  0.32322908  1
  O  O3  1  0.30977643  0.80024510  0.31844601  1
  O  O4  1  0.23642408  0.47923600  0.02955722  1
  O  O5  1  0.86929869  0.06349311  0.11085177  1
  O  O6  1  0.78172954  0.51955228  0.90332854  1
  O  O7  1  0.20091191  0.95595783  0.88475300  1
loop_
_geom_bond_atom_site_label_1
_geom_bond_atom_site_label_2
_geom_bond_distance
_geom_bond_site_symmetry_2
Mg0 O3 1.995971 1_555
Mg0 O2 2.001356 1_555
Mg0 O1 2.063197 1_565
Mg0 O5 2.106334 1_565
Nb0 O2 1.879288 1_455
Nb0 O3 1.907085 1_555
Nb0 O5 2.038350 1_465
Nb0 O4 2.076454 1_555
Nb0 O7 2.164865 1_554
Nb0 O6 2.182989 1_454
Nb1 O0 1.904232 1_655
Nb1 O1 1.965294 1_555
Nb1 O7 2.027250 1_645
Nb1 O6 2.103056 1_555
Nb1 O5 2.115737 1_556
Nb1 O4 2.175161 1_656
In0 O0 2.166580 1_555
In0 O6 2.174063 1_555
In0 O1 2.194941 1_565
In0 O7 2.205725 1_555
In0 O4 2.228914 1_556
In1 O4 2.279632 1_555
In1 O2 2.310299 1_555
In1 O3 2.399026 1_555
In1 O0 2.547407 1_555
In1 Mg0 2.763509 1_545
