# generated using pymatgen
data_P4(S2O)3
_symmetry_space_group_name_H-M   'P 1'
_cell_length_a   12.45936996
_cell_length_b   6.68008345
_cell_length_c   7.31879656
_cell_angle_alpha   75.56755279
_cell_angle_beta   90.00000000
_cell_angle_gamma   90.00000000
_symmetry_Int_Tables_number   1
_chemical_formula_structural   P4(S2O)3
_chemical_formula_sum   'P8 S12 O6'
_cell_volume   589.91757791
_cell_formula_units_Z   2
loop_
 _symmetry_equiv_pos_site_id
 _symmetry_equiv_pos_as_xyz
  1  'x, y, z'
loop_
 _atom_site_type_symbol
 _atom_site_label
 _atom_site_symmetry_multiplicity
 _atom_site_fract_x
 _atom_site_fract_y
 _atom_site_fract_z
 _atom_site_occupancy
  P  P0  1  0.86834569  0.18008634  0.18132906  1
  P  P1  1  0.25000000  0.20474123  0.96018660  1
  P  P2  1  0.36834569  0.81991366  0.81867094  1
  P  P3  1  0.13165431  0.81991366  0.81867094  1
  P  P4  1  0.63165431  0.18008634  0.18132906  1
  P  P5  1  0.25000000  0.70267160  0.17774129  1
  P  P6  1  0.75000000  0.79525877  0.03981340  1
  P  P7  1  0.75000000  0.29732840  0.82225871  1
  S  S0  1  0.98004436  0.28891681  0.29958271  1
  S  S1  1  0.48004436  0.71108319  0.70041729  1
  S  S2  1  0.01995564  0.71108319  0.70041729  1
  S  S3  1  0.51995564  0.28891681  0.29958271  1
  S  S4  1  0.75000000  0.51750979  0.60467704  1
  S  S5  1  0.25000000  0.48249021  0.39532296  1
  S  S6  1  0.88617841  0.87087961  0.18502297  1
  S  S7  1  0.61382159  0.87087961  0.18502297  1
  S  S8  1  0.11382159  0.12912039  0.81497703  1
  S  S9  1  0.25000000  0.99260961  0.23051962  1
  S  S10  1  0.75000000  0.00739039  0.76948038  1
  S  S11  1  0.38617841  0.12912039  0.81497703  1
  O  O0  1  0.65011236  0.29806617  0.96251995  1
  O  O1  1  0.25000000  0.80168101  0.73348686  1
  O  O2  1  0.84988764  0.29806617  0.96251995  1
  O  O3  1  0.34988764  0.70193383  0.03748005  1
  O  O4  1  0.15011236  0.70193383  0.03748005  1
  O  O5  1  0.75000000  0.19831899  0.26651314  1
loop_
_geom_bond_atom_site_label_1
_geom_bond_atom_site_label_2
_geom_bond_distance
_geom_bond_site_symmetry_2
P0 S0 1.878304 1_555
P0 S6 2.070908 1_545
P1 S9 2.127205 1_546
P1 S8 2.128621 1_555
P1 S11 2.128621 1_555
P2 S1 1.878304 1_555
P2 S11 2.070908 1_565
P3 S2 1.878304 1_555
P3 S8 2.070908 1_565
P4 S3 1.878304 1_555
P4 S7 2.070908 1_545
P5 S5 1.879271 1_555
P5 S9 2.067213 1_555
P6 S10 2.127205 1_564
P6 S6 2.128621 1_555
P6 S7 2.128621 1_555
P7 S4 1.879271 1_555
P7 S10 2.067213 1_555
O0 P7 1.614066 1_555
O0 P4 1.615373 1_556
O1 P2 1.617268 1_555
O1 P3 1.617268 1_555
O2 P7 1.614066 1_555
O2 P0 1.615373 1_556
O3 P5 1.614066 1_555
O3 P2 1.615373 1_554
O4 P5 1.614066 1_555
O4 P3 1.615373 1_554
O5 P4 1.617268 1_555
O5 P0 1.617268 1_555
