# generated using pymatgen
data_NpIr2
_symmetry_space_group_name_H-M   'P 1'
_cell_length_a   5.36160904
_cell_length_b   5.36139609
_cell_length_c   5.36092991
_cell_angle_alpha   60.00236206
_cell_angle_beta   60.00373713
_cell_angle_gamma   60.00736118
_symmetry_Int_Tables_number   1
_chemical_formula_structural   NpIr2
_chemical_formula_sum   'Np2 Ir4'
_cell_volume   108.97888021
_cell_formula_units_Z   2
loop_
 _symmetry_equiv_pos_site_id
 _symmetry_equiv_pos_as_xyz
  1  'x, y, z'
loop_
 _atom_site_type_symbol
 _atom_site_label
 _atom_site_symmetry_multiplicity
 _atom_site_fract_x
 _atom_site_fract_y
 _atom_site_fract_z
 _atom_site_occupancy
  Np  Np0  1  0.87500715  0.87500056  0.87498757  1
  Np  Np1  1  0.12499470  0.12499850  0.12500968  1
  Ir  Ir0  1  0.49999937  0.50000029  0.50000016  1
  Ir  Ir1  1  0.50000013  0.50000004  0.00000056  1
  Ir  Ir2  1  0.00000016  0.49999841  0.50000102  1
  Ir  Ir3  1  0.49999948  0.00000019  0.50000101  1
loop_
_geom_bond_atom_site_label_1
_geom_bond_atom_site_label_2
_geom_bond_distance
_geom_bond_site_symmetry_2
Np0 Np1 3.282879 1_665
Np0 Np1 3.283041 1_666
Np0 Np1 3.283391 1_656
Np0 Np1 3.283612 1_566
Ir0 Ir1 2.680461 1_555
Ir0 Ir1 2.680468 1_556
Ir0 Ir3 2.680696 1_555
Ir0 Ir3 2.680700 1_565
Ir0 Ir2 2.680803 1_555
Ir0 Ir2 2.680806 1_655
Ir0 Np1 3.143398 1_556
Ir0 Np0 3.143409 1_554
Ir0 Np1 3.143584 1_565
Ir0 Np0 3.143587 1_545
Ir0 Np0 3.143647 1_455
Ir0 Np1 3.143665 1_655
Ir1 Ir3 2.680676 1_564
Ir1 Ir3 2.680678 1_555
Ir1 Ir2 2.680785 1_654
Ir1 Ir2 2.680787 1_555
Ir1 Np0 3.143391 1_554
Ir1 Np1 3.143397 1_555
Ir1 Np1 3.143623 1_565
Ir1 Np0 3.143637 1_544
Ir1 Np1 3.143695 1_655
Ir1 Np0 3.143697 1_454
Ir2 Ir3 2.681043 1_555
Ir2 Ir3 2.681056 1_465
Ir2 Np0 3.143227 1_455
Ir2 Np1 3.143235 1_555
Ir2 Np1 3.143271 1_556
Ir2 Np0 3.143289 1_454
Ir2 Np0 3.143404 1_445
Ir2 Np1 3.143418 1_565
Ir3 Np0 3.143281 1_545
Ir3 Np1 3.143293 1_555
Ir3 Np1 3.143328 1_556
Ir3 Np0 3.143352 1_544
Ir3 Np0 3.143532 1_445
Ir3 Np1 3.143542 1_655
