# generated using pymatgen
data_K2Mg(SbO3)2
_symmetry_space_group_name_H-M   'P 1'
_cell_length_a   5.93874695
_cell_length_b   5.93874695
_cell_length_c   6.48997587
_cell_angle_alpha   62.77201521
_cell_angle_beta   62.77201521
_cell_angle_gamma   59.99998941
_symmetry_Int_Tables_number   1
_chemical_formula_structural   K2Mg(SbO3)2
_chemical_formula_sum   'K2 Mg1 Sb2 O6'
_cell_volume   168.30479717
_cell_formula_units_Z   1
loop_
 _symmetry_equiv_pos_site_id
 _symmetry_equiv_pos_as_xyz
  1  'x, y, z'
loop_
 _atom_site_type_symbol
 _atom_site_label
 _atom_site_symmetry_multiplicity
 _atom_site_fract_x
 _atom_site_fract_y
 _atom_site_fract_z
 _atom_site_occupancy
  K  K0  1  0.38215200  0.38215200  0.85354400  1
  K  K1  1  0.61784800  0.61784800  0.14645600  1
  Mg  Mg0  1  0.00000000  0.00000000  0.00000000  1
  Sb  Sb0  1  0.17699500  0.17699500  0.46901400  1
  Sb  Sb1  1  0.82300500  0.82300500  0.53098600  1
  O  O0  1  0.99020500  0.12958900  0.27363000  1
  O  O1  1  0.12958900  0.60657500  0.27363000  1
  O  O2  1  0.60657500  0.99020500  0.27363000  1
  O  O3  1  0.00979500  0.87041100  0.72637000  1
  O  O4  1  0.87041100  0.39342500  0.72637000  1
  O  O5  1  0.39342500  0.00979500  0.72637000  1
loop_
_geom_bond_atom_site_label_1
_geom_bond_atom_site_label_2
_geom_bond_distance
_geom_bond_site_symmetry_2
K0 O5 2.654658 1_555
K0 O3 2.654660 1_555
K0 O4 2.654663 1_555
K0 O1 3.007166 1_556
K0 O2 3.007166 1_546
K0 O0 3.007170 1_456
K1 O2 2.654658 1_555
K1 O0 2.654660 1_555
K1 O1 2.654663 1_555
K1 O4 3.007166 1_554
K1 O5 3.007166 1_564
K1 O3 3.007170 1_654
Mg0 O0 2.204683 1_455
Mg0 O3 2.204683 1_544
Mg0 O4 2.204686 1_454
Mg0 O1 2.204686 1_545
Mg0 O5 2.204687 1_554
Mg0 O2 2.204687 1_445
O0 Sb1 2.144350 1_545
O0 Sb0 2.200876 1_655
O1 Sb1 2.144356 1_455
O1 Sb0 2.200876 1_555
O2 Sb1 2.144358 1_555
O2 Sb0 2.200876 1_565
O3 Sb0 2.144350 1_565
O3 Sb1 2.200876 1_455
O4 Sb0 2.144356 1_655
O4 Sb1 2.200876 1_555
O5 Sb0 2.144358 1_555
O5 Sb1 2.200876 1_545
