# generated using pymatgen
data_Na2MgMn2O4
_symmetry_space_group_name_H-M   'P 1'
_cell_length_a   3.21121767
_cell_length_b   5.46379958
_cell_length_c   6.95835146
_cell_angle_alpha   88.60742747
_cell_angle_beta   90.00000000
_cell_angle_gamma   90.00000000
_symmetry_Int_Tables_number   1
_chemical_formula_structural   Na2MgMn2O4
_chemical_formula_sum   'Na2 Mg1 Mn2 O4'
_cell_volume   122.05134719
_cell_formula_units_Z   1
loop_
 _symmetry_equiv_pos_site_id
 _symmetry_equiv_pos_as_xyz
  1  'x, y, z'
loop_
 _atom_site_type_symbol
 _atom_site_label
 _atom_site_symmetry_multiplicity
 _atom_site_fract_x
 _atom_site_fract_y
 _atom_site_fract_z
 _atom_site_occupancy
  Na  Na0  1  0.25000100  0.31816913  0.07153081  1
  Na  Na1  1  0.74999900  0.83151438  0.87531477  1
  Mg  Mg0  1  0.25000000  0.00047230  0.38146481  1
  Mn  Mn0  1  0.25000100  0.36560497  0.67561143  1
  Mn  Mn1  1  0.74999900  0.60364050  0.34638079  1
  O  O0  1  0.74999900  0.22041771  0.37493278  1
  O  O1  1  0.25000100  0.71785581  0.56721606  1
  O  O2  1  0.74999900  0.27647694  0.84139225  1
  O  O3  1  0.25000100  0.74917326  0.16824032  1
loop_
_geom_bond_atom_site_label_1
_geom_bond_atom_site_label_2
_geom_bond_distance
_geom_bond_site_symmetry_2
Na0 O2 2.282984 1_554
Na0 O2 2.282993 1_454
Na0 O3 2.464857 1_555
Na0 O0 2.695456 1_555
Na0 O0 2.695463 1_455
Na1 O2 2.436902 1_565
Na1 O3 2.624952 1_556
Na1 O3 2.624960 1_656
Na1 O1 2.761241 1_555
Na1 O1 2.761249 1_655
Mg0 O1 1.989481 1_545
Mg0 O0 2.005381 1_555
Mg0 O0 2.005386 1_455
Mg0 O3 2.045878 1_545
Mn0 O2 2.029410 1_555
Mn0 O2 2.029420 1_455
Mn0 O1 2.050008 1_555
Mn1 O0 2.098445 1_555
Mn1 O3 2.167684 1_555
Mn1 O3 2.167693 1_655
Mn1 O1 2.318469 1_555
Mn1 O1 2.318478 1_655
