# generated using pymatgen
data_MgVCrP2(HO5)2
_symmetry_space_group_name_H-M   'P 1'
_cell_length_a   5.43014825
_cell_length_b   7.50278742
_cell_length_c   5.18773572
_cell_angle_alpha   110.83014517
_cell_angle_beta   93.16817105
_cell_angle_gamma   109.82568205
_symmetry_Int_Tables_number   1
_chemical_formula_structural   MgVCrP2(HO5)2
_chemical_formula_sum   'Mg1 V1 Cr1 P2 H2 O10'
_cell_volume   182.07638362
_cell_formula_units_Z   1
loop_
 _symmetry_equiv_pos_site_id
 _symmetry_equiv_pos_as_xyz
  1  'x, y, z'
loop_
 _atom_site_type_symbol
 _atom_site_label
 _atom_site_symmetry_multiplicity
 _atom_site_fract_x
 _atom_site_fract_y
 _atom_site_fract_z
 _atom_site_occupancy
  Mg  Mg0  1  0.51029208  0.00744478  0.98783343  1
  V  V0  1  0.01013333  0.50793137  0.98831162  1
  Cr  Cr0  1  0.01060234  0.00797672  0.98817299  1
  P  P0  1  0.36278021  0.25954011  0.62902216  1
  P  P1  1  0.65775862  0.75635188  0.34748627  1
  H  H0  1  0.96361735  0.31519030  0.31640493  1
  H  H1  1  0.05694647  0.70014073  0.65978207  1
  O  O0  1  0.12515112  0.76458322  0.86632363  1
  O  O1  1  0.16528231  0.37000999  0.66424244  1
  O  O2  1  0.36287004  0.61386870  0.24872310  1
  O  O3  1  0.31835947  0.12356575  0.30886535  1
  O  O4  1  0.29704883  0.11357566  0.79027059  1
  O  O5  1  0.72474616  0.90242334  0.18644345  1
  O  O6  1  0.70218223  0.89237934  0.66764424  1
  O  O7  1  0.65727352  0.40283988  0.72808176  1
  O  O8  1  0.85462361  0.64537522  0.31235282  1
  O  O9  1  0.89533231  0.25073201  0.11003916  1
loop_
_geom_bond_atom_site_label_1
_geom_bond_atom_site_label_2
_geom_bond_distance
_geom_bond_site_symmetry_2
Mg0 O4 2.024843 1_555
Mg0 O5 2.026265 1_546
Mg0 O6 2.090886 1_545
Mg0 O3 2.096373 1_556
Mg0 O0 2.131633 1_545
Mg0 O9 2.132374 1_556
Cr0 O3 1.999043 1_556
Cr0 O6 2.000815 1_445
Cr0 O5 2.004132 1_446
Cr0 O4 2.005057 1_555
Cr0 O9 2.026547 1_456
Cr0 O0 2.028355 1_545
H0 O9 0.991848 1_555
H1 O0 0.992593 1_555
O0 V0 2.143149 1_555
O1 P0 1.545114 1_555
O1 V0 2.029191 1_555
O2 P1 1.525799 1_555
O2 V0 2.010782 1_554
O3 P0 1.562449 1_555
O4 P0 1.563928 1_555
O5 P1 1.563884 1_555
O6 P1 1.562541 1_555
O7 P0 1.525536 1_555
O7 V0 2.011921 1_655
O8 P1 1.544877 1_555
O8 V0 2.029062 1_654
O9 V0 2.146012 1_654
