# generated using pymatgen
data_Na3CaZr(PO4)3
_symmetry_space_group_name_H-M   'P 1'
_cell_length_a   9.28778201
_cell_length_b   9.30418378
_cell_length_c   22.61622931
_cell_angle_alpha   90.00000000
_cell_angle_beta   90.00817451
_cell_angle_gamma   120.05843681
_symmetry_Int_Tables_number   1
_chemical_formula_structural   Na3CaZr(PO4)3
_chemical_formula_sum   'Na18 Ca6 Zr6 P18 O72'
_cell_volume   1691.55095269
_cell_formula_units_Z   6
loop_
 _symmetry_equiv_pos_site_id
 _symmetry_equiv_pos_as_xyz
  1  'x, y, z'
loop_
 _atom_site_type_symbol
 _atom_site_label
 _atom_site_symmetry_multiplicity
 _atom_site_fract_x
 _atom_site_fract_y
 _atom_site_fract_z
 _atom_site_occupancy
  Na  Na0  1  0.97701341  0.95942378  0.49403933  1
  Na  Na1  1  0.97701341  0.01758963  0.99403933  1
  Na  Na2  1  0.66738468  0.33949572  0.82741369  1
  Na  Na3  1  0.66738468  0.32788796  0.32741369  1
  Na  Na4  1  0.32655472  0.66111923  0.16070382  1
  Na  Na5  1  0.32655472  0.66543649  0.66070382  1
  Na  Na6  1  0.36927975  0.35219402  0.24330832  1
  Na  Na7  1  0.98652438  0.64590050  0.24475177  1
  Na  Na8  1  0.98652438  0.34062388  0.74475177  1
  Na  Na9  1  0.36927975  0.01708574  0.74330832  1
  Na  Na10  1  0.32199229  0.34524202  0.57734370  1
  Na  Na11  1  0.65394125  0.96906688  0.57766449  1
  Na  Na12  1  0.32199229  0.97674927  0.07734370  1
  Na  Na13  1  0.65394125  0.68487337  0.07766449  1
  Na  Na14  1  0.99241666  0.68333842  0.91059514  1
  Na  Na15  1  0.31677766  0.29635687  0.91069886  1
  Na  Na16  1  0.99241666  0.30907924  0.41059514  1
  Na  Na17  1  0.31677766  0.02042179  0.41069886  1
  Ca  Ca0  1  0.98569645  0.99472927  0.34933416  1
  Ca  Ca1  1  0.98569645  0.99096717  0.84933416  1
  Ca  Ca2  1  0.67444282  0.34969115  0.68310830  1
  Ca  Ca3  1  0.67444282  0.32475067  0.18310830  1
  Ca  Ca4  1  0.32894108  0.66132555  0.01632877  1
  Ca  Ca5  1  0.32894108  0.66761653  0.51632877  1
  Zr  Zr0  1  0.99480544  0.98987551  0.64984668  1
  Zr  Zr1  1  0.99480544  0.00492993  0.14984668  1
  Zr  Zr2  1  0.67208839  0.32617810  0.98282067  1
  Zr  Zr3  1  0.67208839  0.34590929  0.48282067  1
  Zr  Zr4  1  0.34530632  0.67410972  0.31636353  1
  Zr  Zr5  1  0.34530632  0.67119760  0.81636353  1
  P  P0  1  0.29226694  0.99028537  0.25283741  1
  P  P1  1  0.69393250  0.70094974  0.24756331  1
  P  P2  1  0.01570756  0.31280848  0.25537888  1
  P  P3  1  0.29226694  0.30198157  0.75283741  1
  P  P4  1  0.01570756  0.70289908  0.75537888  1
  P  P5  1  0.69393250  0.99298276  0.74756331  1
  P  P6  1  0.96388071  0.31915285  0.58610437  1
  P  P7  1  0.36450950  0.04267656  0.58657645  1
  P  P8  1  0.67284275  0.64030718  0.58393069  1
  P  P9  1  0.96388071  0.64472686  0.08610437  1
  P  P10  1  0.67284275  0.03253456  0.08393069  1
  P  P11  1  0.36450950  0.32183194  0.08657645  1
  P  P12  1  0.63048338  0.65229385  0.92265046  1
  P  P13  1  0.03086798  0.37351753  0.91431928  1
  P  P14  1  0.34368990  0.97402941  0.91863984  1
  P  P15  1  0.63048338  0.97819053  0.42265046  1
  P  P16  1  0.34368990  0.36966149  0.41863984  1
  P  P17  1  0.03086798  0.65735145  0.41431928  1
  O  O0  1  0.21368084  0.00465776  0.30993544  1
  O  O1  1  0.80400886  0.78234567  0.30020323  1
  O  O2  1  0.00162836  0.22844396  0.31409484  1
  O  O3  1  0.21368084  0.20902309  0.80993544  1
  O  O4  1  0.00162836  0.77318440  0.81409484  1
  O  O5  1  0.80400886  0.02166319  0.80020323  1
  O  O6  1  0.78247692  0.97511016  0.69024590  1
  O  O7  1  0.17144500  0.20166603  0.69881934  1
  O  O8  1  0.02013849  0.82201882  0.70375151  1
  O  O9  1  0.78247692  0.80736676  0.19024590  1
  O  O10  1  0.02013849  0.19811967  0.20375151  1
  O  O11  1  0.17144500  0.96977897  0.19881934  1
  O  O12  1  0.88821295  0.33240680  0.64380236  1
  O  O13  1  0.45673471  0.12115248  0.64367004  1
  O  O14  1  0.64426750  0.53651452  0.63820804  1
  O  O15  1  0.88821295  0.55580516  0.14380236  1
  O  O16  1  0.64426750  0.10775198  0.13820804  1
  O  O17  1  0.45673471  0.33558123  0.14367004  1
  O  O18  1  0.46479442  0.30099916  0.03283610  1
  O  O19  1  0.84946315  0.53733701  0.03202684  1
  O  O20  1  0.68810091  0.14420999  0.02850033  1
  O  O21  1  0.46479442  0.16379426  0.53283610  1
  O  O22  1  0.68810091  0.54388992  0.52850033  1
  O  O23  1  0.84946315  0.31212514  0.53202684  1
  O  O24  1  0.55867227  0.66613354  0.98098874  1
  O  O25  1  0.13527979  0.45910552  0.96792866  1
  O  O26  1  0.32371838  0.87978086  0.97561317  1
  O  O27  1  0.55867227  0.89253972  0.48098874  1
  O  O28  1  0.32371838  0.44393852  0.47561317  1
  O  O29  1  0.13527979  0.67617527  0.46792866  1
  O  O30  1  0.12265597  0.63773866  0.35778048  1
  O  O31  1  0.50985452  0.86648910  0.37056161  1
  O  O32  1  0.35590458  0.48315803  0.36404308  1
  O  O33  1  0.12265597  0.48491831  0.85778048  1
  O  O34  1  0.35590458  0.87274755  0.86404308  1
  O  O35  1  0.50985452  0.64336642  0.87056161  1
  O  O36  1  0.00470620  0.80602160  0.41051218  1
  O  O37  1  0.80987121  0.01698682  0.41535555  1
  O  O38  1  0.19424267  0.19237413  0.41254871  1
  O  O39  1  0.00470620  0.19868460  0.91051218  1
  O  O40  1  0.19424267  0.00186854  0.91254871  1
  O  O41  1  0.80987121  0.79288439  0.91535555  1
  O  O42  1  0.96022331  0.14699197  0.58405533  1
  O  O43  1  0.19157372  0.03730049  0.58694673  1
  O  O44  1  0.83971046  0.81101418  0.58573925  1
  O  O45  1  0.96022331  0.81323134  0.08405533  1
  O  O46  1  0.83971046  0.02869628  0.08573925  1
  O  O47  1  0.19157372  0.15427323  0.08694673  1
  O  O48  1  0.66083990  0.13894467  0.74330145  1
  O  O49  1  0.46404786  0.32069818  0.74650541  1
  O  O50  1  0.87700141  0.52223667  0.74861712  1
  O  O51  1  0.66083990  0.52189423  0.24330145  1
  O  O52  1  0.87700141  0.35476373  0.24861712  1
  O  O53  1  0.46404786  0.14334867  0.24650541  1
  O  O54  1  0.62594490  0.48039595  0.91920744  1
  O  O55  1  0.86129434  0.37476647  0.91780809  1
  O  O56  1  0.50652483  0.14912756  0.91878200  1
  O  O57  1  0.62594490  0.14554794  0.41920744  1
  O  O58  1  0.50652483  0.35739627  0.41878200  1
  O  O59  1  0.86129434  0.48652687  0.41780809  1
  O  O60  1  0.34480776  0.47403205  0.07999672  1
  O  O61  1  0.14548136  0.68653678  0.08093019  1
  O  O62  1  0.52759100  0.85436933  0.07792170  1
  O  O63  1  0.34480776  0.87077672  0.57999672  1
  O  O64  1  0.52759100  0.67322267  0.57792170  1
  O  O65  1  0.14548136  0.45894558  0.58093019  1
  O  O66  1  0.29765429  0.82331975  0.25287473  1
  O  O67  1  0.52123605  0.69323786  0.25247559  1
  O  O68  1  0.18956458  0.47853681  0.25109020  1
  O  O69  1  0.29765429  0.47433554  0.75287473  1
  O  O70  1  0.18956458  0.71102877  0.75109020  1
  O  O71  1  0.52123605  0.82799919  0.75247559  1
loop_
_geom_bond_atom_site_label_1
_geom_bond_atom_site_label_2
_geom_bond_distance
_geom_bond_site_symmetry_2
Na0 O36 2.457593 1_655
Na0 O44 2.463894 1_555
Na0 O37 2.587577 1_565
Na0 O43 2.731968 1_665
Na0 O42 2.736279 1_565
Na0 O38 2.790233 1_665
Na1 O39 2.457593 1_655
Na1 O46 2.463894 1_556
Na1 O41 2.587577 1_545
Na1 O47 2.731968 1_656
Na1 O45 2.736279 1_546
Na1 O40 2.790233 1_655
Na2 O50 2.557726 1_555
Na2 O49 2.571702 1_555
Na2 O54 2.585022 1_555
Na2 O55 2.633939 1_555
Na2 O56 2.643735 1_555
Na2 O48 2.643976 1_555
Na3 O52 2.557726 1_555
Na3 O53 2.571702 1_555
Na3 O57 2.585022 1_555
Na3 O59 2.633939 1_555
Na3 O58 2.643735 1_555
Na3 O51 2.643976 1_555
Na4 O68 2.553223 1_555
Na4 O61 2.556735 1_555
Na4 O60 2.585759 1_555
Na4 O62 2.619601 1_555
Na4 O66 2.664753 1_555
Na4 O67 2.669119 1_555
Na5 O70 2.553223 1_555
Na5 O65 2.556735 1_555
Na5 O63 2.585759 1_555
Na5 O64 2.619601 1_555
Na5 O69 2.664753 1_555
Na5 O71 2.669119 1_555
Na6 O51 2.354312 1_555
Na6 O17 2.426511 1_555
Na6 O68 2.482854 1_555
Na6 O53 2.503808 1_555
Na6 O67 2.759943 1_555
Na6 O10 2.951807 1_555
Na6 O32 3.017934 1_555
Na7 O52 2.370578 1_555
Na7 O15 2.445729 1_555
Na7 O66 2.516022 1_655
Na7 O51 2.643100 1_555
Na7 O11 2.815225 1_655
Na7 O1 2.866086 1_555
Na7 O30 2.869533 1_655
Na8 O50 2.370570 1_555
Na8 O12 2.445728 1_555
Na8 O69 2.516021 1_655
Na8 O48 2.643102 1_555
Na8 O7 2.815225 1_655
Na8 O5 2.866086 1_555
Na8 O33 2.869535 1_655
Na9 O48 2.354313 1_555
Na9 O13 2.426509 1_555
Na9 O70 2.482846 1_545
Na9 O49 2.503799 1_555
Na9 O71 2.759935 1_545
Na9 O8 2.951807 1_545
Na9 O34 3.017930 1_545
Na10 O65 2.356021 1_555
Na10 O28 2.474324 1_555
Na10 O43 2.499373 1_555
Na10 O64 2.668578 1_555
Na10 O21 2.804620 1_555
Na10 O42 2.916620 1_455
Na10 O14 2.946840 1_555
Na10 O7 3.068766 1_555
Na11 O27 2.332112 1_555
Na11 O64 2.391236 1_555
Na11 O42 2.477086 1_565
Na11 O63 2.540156 1_555
Na11 O44 2.777495 1_555
Na11 O6 2.800572 1_555
Na11 O23 2.957213 1_565
Na12 O61 2.356006 1_555
Na12 O26 2.474317 1_554
Na12 O47 2.499382 1_565
Na12 O62 2.668563 1_555
Na12 O18 2.804620 1_565
Na12 O45 2.916621 1_455
Na12 O16 2.946840 1_565
Na12 O11 3.068768 1_555
Na13 O24 2.332115 1_554
Na13 O62 2.391253 1_555
Na13 O45 2.477085 1_555
Na13 O60 2.540152 1_555
Na13 O46 2.777503 1_565
Na13 O9 2.800574 1_555
Na13 O19 2.957213 1_555
Na14 O4 2.323299 1_655
Na14 O41 2.378259 1_555
Na14 O55 2.499980 1_555
Na14 O40 2.594955 1_665
Na15 O40 2.383407 1_555
Na15 O3 2.447534 1_555
Na15 O54 2.507735 1_555
Na15 O39 2.566755 1_555
Na15 O56 2.726538 1_555
Na15 O35 2.943529 1_555
Na16 O2 2.323302 1_655
Na16 O37 2.378266 1_555
Na16 O59 2.499963 1_555
Na16 O38 2.594962 1_655
Na17 O38 2.383399 1_555
Na17 O0 2.447533 1_555
Na17 O57 2.507737 1_555
Na17 O36 2.566757 1_545
Na17 O58 2.726523 1_555
Na17 O31 2.943529 1_545
Ca0 O1 2.155474 1_555
Ca0 O2 2.250184 1_665
Ca0 O0 2.256273 1_665
Ca0 O37 2.297531 1_565
Ca0 O36 2.310578 1_655
Ca0 O38 2.368199 1_665
Ca1 O5 2.155474 1_565
Ca1 O4 2.250184 1_655
Ca1 O3 2.256273 1_665
Ca1 O41 2.297530 1_555
Ca1 O39 2.310578 1_665
Ca1 O40 2.368199 1_665
Ca2 O14 2.149221 1_555
Ca2 O12 2.253547 1_555
Ca2 O13 2.257855 1_555
Ca2 O50 2.298977 1_555
Ca2 O49 2.328050 1_555
Ca2 O48 2.337932 1_555
Ca3 O16 2.149221 1_555
Ca3 O15 2.253547 1_555
Ca3 O17 2.257855 1_555
Ca3 O52 2.298977 1_555
Ca3 O53 2.328050 1_555
Ca3 O51 2.337932 1_555
Ca4 O25 2.140733 1_554
Ca4 O26 2.253951 1_554
Ca4 O24 2.257948 1_554
Ca4 O62 2.291313 1_555
Ca4 O60 2.321424 1_555
Ca4 O61 2.343963 1_555
Ca5 O29 2.140733 1_555
Ca5 O28 2.253951 1_555
Ca5 O27 2.257948 1_555
Ca5 O64 2.291313 1_555
Ca5 O63 2.321424 1_555
Ca5 O65 2.343963 1_555
O0 P0 1.521917 1_545
O1 P1 1.503370 1_555
O2 P2 1.514552 1_555
O3 P3 1.521917 1_555
O4 P4 1.514552 1_555
O5 P5 1.503370 1_545
O6 P5 1.587975 1_555
O6 Zr0 2.114668 1_555
O7 P3 1.604152 1_555
O7 Zr0 2.135933 1_445
O8 P4 1.596151 1_555
O8 Zr0 2.085373 1_455
O9 P1 1.587975 1_555
O9 Zr1 2.114668 1_565
O10 P2 1.596151 1_555
O10 Zr1 2.085373 1_455
O11 P0 1.604152 1_555
O11 Zr1 2.135933 1_465
O12 P6 1.516241 1_555
O13 P7 1.518977 1_555
O14 P8 1.501081 1_555
O15 P9 1.516241 1_555
O16 P10 1.501081 1_555
O17 P11 1.518977 1_555
O18 P11 1.601097 1_555
O18 Zr2 2.142423 1_554
O19 P9 1.599812 1_555
O19 Zr2 2.137633 1_554
O20 P10 1.588655 1_555
O20 Zr2 2.051360 1_554
O21 P7 1.601097 1_555
O21 Zr3 2.142423 1_555
O22 P8 1.588655 1_555
O22 Zr3 2.051360 1_555
O23 P6 1.599812 1_555
O23 Zr3 2.137633 1_555
O24 P12 1.512781 1_555
O25 P13 1.506862 1_555
O26 P14 1.516833 1_555
O27 P15 1.512781 1_555
O28 P16 1.516833 1_555
O29 P17 1.506862 1_555
O30 P17 1.597272 1_555
O30 Zr4 2.137233 1_555
O31 P15 1.598858 1_555
O31 Zr4 2.073910 1_555
O32 P16 1.591441 1_555
O32 Zr4 2.122295 1_555
O33 P13 1.597272 1_555
O33 Zr5 2.137233 1_555
O34 P14 1.591441 1_555
O34 Zr5 2.122295 1_555
O35 P12 1.598858 1_555
O35 Zr5 2.073910 1_555
O36 P17 1.522020 1_555
O37 P15 1.526781 1_545
O38 P16 1.540400 1_555
O39 P13 1.522029 1_555
O40 P14 1.540394 1_545
O41 P12 1.526778 1_555
O42 P6 1.585752 1_555
O42 Zr0 2.219091 1_545
O43 P7 1.581752 1_555
O43 Zr0 2.179724 1_445
O44 P8 1.568556 1_555
O44 Zr0 2.131788 1_555
O45 P9 1.585761 1_555
O45 Zr1 2.219091 1_565
O46 P10 1.568551 1_555
O46 Zr1 2.131788 1_555
O47 P11 1.581747 1_555
O47 Zr1 2.179724 1_455
O48 P5 1.538250 1_545
O49 P3 1.522522 1_555
O50 P4 1.529429 1_655
O51 P1 1.538259 1_555
O52 P2 1.529423 1_655
O53 P0 1.522518 1_545
O54 P12 1.580597 1_555
O54 Zr2 2.219958 1_555
O55 P13 1.582795 1_655
O55 Zr2 2.158538 1_555
O56 P14 1.572632 1_545
O56 Zr2 2.153512 1_555
O57 P15 1.580578 1_545
O57 Zr3 2.219958 1_555
O58 P16 1.572643 1_555
O58 Zr3 2.153512 1_555
O59 P17 1.582804 1_655
O59 Zr3 2.158538 1_555
O60 P11 1.523331 1_555
O61 P9 1.533831 1_455
O62 P10 1.531677 1_565
O63 P7 1.523312 1_565
O64 P8 1.531689 1_555
O65 P6 1.533837 1_455
O66 P0 1.579135 1_555
O66 Zr4 2.190951 1_555
O67 P1 1.573200 1_555
O67 Zr4 2.121019 1_555
O68 P2 1.581214 1_555
O68 Zr4 2.223818 1_555
O69 P3 1.579145 1_555
O69 Zr5 2.190951 1_555
O70 P4 1.581210 1_555
O70 Zr5 2.223818 1_555
O71 P5 1.573196 1_555
O71 Zr5 2.121019 1_555
