# generated using pymatgen
data_Na3MgTaSi2SO12
_symmetry_space_group_name_H-M   'P 1'
_cell_length_a   9.01763155
_cell_length_b   9.01763124
_cell_length_c   22.39943177
_cell_angle_alpha   89.21838887
_cell_angle_beta   90.78161112
_cell_angle_gamma   119.60526999
_symmetry_Int_Tables_number   1
_chemical_formula_structural   Na3MgTaSi2SO12
_chemical_formula_sum   'Na18 Mg6 Ta6 Si12 S6 O72'
_cell_volume   1583.47867445
_cell_formula_units_Z   6
loop_
 _symmetry_equiv_pos_site_id
 _symmetry_equiv_pos_as_xyz
  1  'x, y, z'
loop_
 _atom_site_type_symbol
 _atom_site_label
 _atom_site_symmetry_multiplicity
 _atom_site_fract_x
 _atom_site_fract_y
 _atom_site_fract_z
 _atom_site_occupancy
  Na  Na0  1  0.66323785  0.01324800  0.25467002  1
  Na  Na1  1  0.97410323  0.61420892  0.24534592  1
  Na  Na2  1  0.98675200  0.33676215  0.75467002  1
  Na  Na3  1  0.38579108  0.02589677  0.74534592  1
  Na  Na4  1  0.32990485  0.34658100  0.58800302  1
  Na  Na5  1  0.64077023  0.94754192  0.57867892  1
  Na  Na6  1  0.65341900  0.67009515  0.08800302  1
  Na  Na7  1  0.05245808  0.35922977  0.07867892  1
  Na  Na8  1  0.99657085  0.67991500  0.92133702  1
  Na  Na9  1  0.30743623  0.28087592  0.91201292  1
  Na  Na10  1  0.32008500  0.00342915  0.42133702  1
  Na  Na11  1  0.71912408  0.69256377  0.41201292  1
  Na  Na12  1  0.98662699  0.97772691  0.49292575  1
  Na  Na13  1  0.02227309  0.01337301  0.99292575  1
  Na  Na14  1  0.65329399  0.31105991  0.82625875  1
  Na  Na15  1  0.68894009  0.34670601  0.32625875  1
  Na  Na16  1  0.31995999  0.64439391  0.15959275  1
  Na  Na17  1  0.35560609  0.68004001  0.65959275  1
  Mg  Mg0  1  0.98176465  0.99396409  0.35273146  1
  Mg  Mg1  1  0.00603591  0.01823535  0.85273146  1
  Mg  Mg2  1  0.64843165  0.32729709  0.68606446  1
  Mg  Mg3  1  0.67270291  0.35156835  0.18606446  1
  Mg  Mg4  1  0.31509765  0.66063109  0.01939846  1
  Mg  Mg5  1  0.33936891  0.68490235  0.51939846  1
  Ta  Ta0  1  0.99484275  0.99882516  0.64648273  1
  Ta  Ta1  1  0.00117484  0.00515725  0.14648273  1
  Ta  Ta2  1  0.66150975  0.33215816  0.97981573  1
  Ta  Ta3  1  0.66784184  0.33849025  0.47981573  1
  Ta  Ta4  1  0.32817575  0.66549216  0.31314973  1
  Ta  Ta5  1  0.33450784  0.67182425  0.81314973  1
  Si  Si0  1  0.70230894  0.70255291  0.25304334  1
  Si  Si1  1  0.00050004  0.29207705  0.25151672  1
  Si  Si2  1  0.29744709  0.29769106  0.75304334  1
  Si  Si3  1  0.70792295  -0.00050004  0.75151672  1
  Si  Si4  1  0.36897594  0.03588591  0.58637634  1
  Si  Si5  1  0.66716704  0.62541005  0.58484972  1
  Si  Si6  1  0.96411409  0.63102406  0.08637634  1
  Si  Si7  1  0.37458995  0.33283296  0.08484972  1
  Si  Si8  1  0.03564194  0.36921991  0.91971034  1
  Si  Si9  1  0.33383304  0.95874405  0.91818372  1
  Si  Si10  1  0.63078009  0.96435806  0.41971034  1
  Si  Si11  1  0.04125595  0.66616696  0.41818372  1
  S  S0  1  0.29038196  0.00045765  0.25180768  1
  S  S1  1  -0.00045765  0.70961804  0.75180768  1
  S  S2  1  0.95704896  0.33379065  0.58514068  1
  S  S3  1  0.66620935  0.04295104  0.08514068  1
  S  S4  1  0.62371496  0.66712465  0.91847468  1
  S  S5  1  0.33287535  0.37628504  0.41847468  1
  O  O0  1  0.21796309  0.02161785  0.30630780  1
  O  O1  1  0.81795496  0.78813428  0.31046532  1
  O  O2  1  0.98319875  0.17362298  0.30591501  1
  O  O3  1  0.21186572  0.18204504  0.81046532  1
  O  O4  1  0.97838215  0.78203691  0.80630780  1
  O  O5  1  0.82637702  0.01680125  0.80591501  1
  O  O6  1  0.79985928  0.97246570  0.68933580  1
  O  O7  1  0.16239742  0.19551814  0.69308154  1
  O  O8  1  0.02501264  0.82525144  0.69824094  1
  O  O9  1  0.80448186  0.83760258  0.19308154  1
  O  O10  1  0.02753430  0.20014072  0.18933580  1
  O  O11  1  0.17474856  0.97498736  0.19824094  1
  O  O12  1  0.88463009  0.35495085  0.63964080  1
  O  O13  1  0.48462196  0.12146728  0.64379832  1
  O  O14  1  0.64986575  0.50695598  0.63924801  1
  O  O15  1  0.87853272  0.51537804  0.14379832  1
  O  O16  1  0.64504915  0.11536991  0.13964080  1
  O  O17  1  0.49304402  0.35013425  0.13924801  1
  O  O18  1  0.46652628  0.30579870  0.02266880  1
  O  O19  1  0.82906442  0.52885114  0.02641454  1
  O  O20  1  0.69167964  0.15858444  0.03157394  1
  O  O21  1  0.47114886  0.17093558  0.52641454  1
  O  O22  1  0.69420130  0.53347372  0.52266880  1
  O  O23  1  0.84141556  0.30832036  0.53157394  1
  O  O24  1  0.55129609  0.68828485  0.97297480  1
  O  O25  1  0.15128796  0.45480128  0.97713232  1
  O  O26  1  0.31653175  0.84028998  0.97258201  1
  O  O27  1  0.54519872  0.84871204  0.47713232  1
  O  O28  1  0.31171515  0.44870391  0.47297480  1
  O  O29  1  0.15971002  0.68346825  0.47258201  1
  O  O30  1  0.13319228  0.63913270  0.35600280  1
  O  O31  1  0.49573042  0.86218514  0.35974854  1
  O  O32  1  0.35834564  0.49191844  0.36490794  1
  O  O33  1  0.13781486  0.50426958  0.85974854  1
  O  O34  1  0.36086730  0.86680772  0.85600280  1
  O  O35  1  0.50808156  0.64165436  0.86490794  1
  O  O36  1  0.02556361  0.83710095  0.41072134  1
  O  O37  1  0.81711216  0.98827777  0.41268995  1
  O  O38  1  0.19675181  0.20141213  0.40903412  1
  O  O39  1  0.01172223  0.18288784  0.91268995  1
  O  O40  1  0.16289905  0.97443639  0.91072134  1
  O  O41  1  0.79858787  0.80324819  0.90903412  1
  O  O42  1  0.95929058  0.16426498  0.58618856  1
  O  O43  1  0.18360240  0.03830066  0.59020740  1
  O  O44  1  0.83892535  0.82237092  0.58928858  1
  O  O45  1  0.96169934  0.81639760  0.09020740  1
  O  O46  1  0.83573502  0.04070942  0.08618856  1
  O  O47  1  0.17762908  0.16107465  0.08928858  1
  O  O48  1  0.69223061  0.17043395  0.74405434  1
  O  O49  1  0.48377916  0.32161077  0.74602295  1
  O  O50  1  0.86341881  0.53474513  0.74236712  1
  O  O51  1  0.67838923  0.51622084  0.24602295  1
  O  O52  1  0.82956605  0.30776939  0.24405434  1
  O  O53  1  0.46525487  0.13658119  0.24236712  1
  O  O54  1  0.62595758  0.49759798  0.91952156  1
  O  O55  1  0.85026940  0.37163366  0.92354040  1
  O  O56  1  0.50559235  0.15570392  0.92262158  1
  O  O57  1  0.62836634  0.14973060  0.42354040  1
  O  O58  1  0.50240202  0.37404242  0.41952156  1
  O  O59  1  0.84429608  0.49440765  0.42262158  1
  O  O60  1  0.35889661  0.50376795  0.07738834  1
  O  O61  1  0.15044516  0.65494477  0.07935695  1
  O  O62  1  0.53008481  0.86807913  0.07570112  1
  O  O63  1  0.34505523  0.84955484  0.57935695  1
  O  O64  1  0.49623205  0.64110339  0.57738834  1
  O  O65  1  0.13192087  0.46991519  0.57570112  1
  O  O66  1  0.29262358  0.83093198  0.25285556  1
  O  O67  1  0.51693540  0.70496766  0.25687440  1
  O  O68  1  0.17225835  0.48903792  0.25595558  1
  O  O69  1  0.29503234  0.48306460  0.75687440  1
  O  O70  1  0.16906802  0.70737642  0.75285556  1
  O  O71  1  0.51096208  0.82774165  0.75595558  1
loop_
_geom_bond_atom_site_label_1
_geom_bond_atom_site_label_2
_geom_bond_distance
_geom_bond_site_symmetry_2
Na0 O52 2.327344 1_555
Na0 O67 2.417735 1_545
Na0 O53 2.537791 1_555
Na0 O2 2.750652 1_555
Na0 O16 2.754404 1_555
Na0 O31 2.766530 1_545
Na0 O9 2.852195 1_545
Na0 O66 2.905724 1_545
Na1 O51 2.358940 1_555
Na1 O52 2.403809 1_555
Na1 O15 2.440038 1_555
Na1 O68 2.549009 1_655
Na1 O66 2.558766 1_655
Na1 O30 2.802129 1_655
Na2 O48 2.327344 1_555
Na2 O69 2.417735 1_655
Na2 O50 2.537791 1_555
Na2 O5 2.750652 1_555
Na2 O12 2.754404 1_555
Na2 O33 2.766530 1_655
Na2 O7 2.852195 1_655
Na2 O70 2.905723 1_655
Na3 O49 2.358940 1_555
Na3 O48 2.403809 1_555
Na3 O13 2.440038 1_555
Na3 O71 2.549009 1_545
Na3 O70 2.558766 1_545
Na3 O34 2.802129 1_545
Na4 O64 2.327349 1_555
Na4 O43 2.417735 1_555
Na4 O65 2.537804 1_555
Na4 O14 2.750652 1_555
Na4 O28 2.754388 1_555
Na4 O7 2.766530 1_555
Na4 O21 2.852195 1_555
Na4 O42 2.905724 1_455
Na5 O63 2.358950 1_555
Na5 O64 2.403800 1_555
Na5 O27 2.440017 1_555
Na5 O44 2.549009 1_555
Na5 O42 2.558766 1_565
Na5 O6 2.802129 1_555
Na6 O60 2.327349 1_555
Na6 O45 2.417735 1_555
Na6 O62 2.537804 1_555
Na6 O17 2.750652 1_555
Na6 O24 2.754388 1_554
Na6 O9 2.766530 1_555
Na6 O19 2.852195 1_555
Na6 O46 2.905723 1_565
Na7 O61 2.358950 1_555
Na7 O60 2.403800 1_555
Na7 O25 2.440017 1_554
Na7 O47 2.549009 1_555
Na7 O46 2.558766 1_455
Na7 O10 2.802129 1_555
Na8 O40 2.327344 1_655
Na8 O55 2.417743 1_555
Na8 O41 2.537791 1_555
Na8 O26 2.750652 1_655
Na8 O4 2.754404 1_555
Na8 O19 2.766510 1_556
Na8 O33 2.852195 1_655
Na8 O54 2.905716 1_555
Na9 O39 2.358940 1_555
Na9 O40 2.403809 1_545
Na9 O3 2.440038 1_555
Na9 O56 2.549022 1_555
Na9 O54 2.558770 1_555
Na9 O18 2.802115 1_556
Na10 O36 2.327344 1_545
Na10 O57 2.417743 1_555
Na10 O38 2.537791 1_555
Na10 O29 2.750652 1_545
Na10 O0 2.754404 1_555
Na10 O21 2.766510 1_555
Na10 O31 2.852195 1_545
Na10 O58 2.905716 1_555
Na11 O37 2.358940 1_555
Na11 O36 2.403809 1_655
Na11 O1 2.440038 1_555
Na11 O59 2.549022 1_555
Na11 O58 2.558770 1_555
Na11 O22 2.802115 1_555
Na12 O37 2.374843 1_555
Na12 O36 2.375536 1_655
Na12 O44 2.558897 1_555
Na12 O43 2.677675 1_665
Na12 O38 2.721685 1_665
Na12 O42 2.788193 1_565
Na13 O39 2.374843 1_555
Na13 O40 2.375536 1_545
Na13 O47 2.558897 1_556
Na13 O45 2.677675 1_446
Na13 O41 2.721685 1_445
Na13 O46 2.788193 1_456
Na14 O49 2.374843 1_555
Na14 O48 2.375536 1_555
Na14 O56 2.558897 1_555
Na14 O55 2.677675 1_555
Na14 O50 2.721685 1_555
Na14 O54 2.788193 1_555
Na15 O51 2.374843 1_555
Na15 O52 2.375536 1_555
Na15 O59 2.558897 1_555
Na15 O57 2.677675 1_555
Na15 O53 2.721685 1_555
Na15 O58 2.788193 1_555
Na16 O61 2.374843 1_555
Na16 O60 2.375536 1_555
Na16 O68 2.558897 1_555
Na16 O67 2.677675 1_555
Na16 O62 2.721685 1_555
Na16 O66 2.788193 1_555
Na17 O63 2.374843 1_555
Na17 O64 2.375536 1_555
Na17 O71 2.558897 1_555
Na17 O69 2.677675 1_555
Na17 O65 2.721685 1_555
Na17 O70 2.788193 1_555
Mg0 O2 1.912562 1_565
Mg0 O1 1.955567 1_555
Mg0 O37 1.997056 1_555
Mg0 O36 2.081353 1_655
Mg0 O0 2.282268 1_665
Mg0 O38 2.294079 1_665
Mg1 O5 1.912562 1_455
Mg1 O3 1.955567 1_555
Mg1 O39 1.997056 1_555
Mg1 O40 2.081353 1_545
Mg1 O4 2.282268 1_445
Mg1 O41 2.294079 1_445
Mg2 O14 1.912562 1_555
Mg2 O13 1.955567 1_555
Mg2 O49 1.997056 1_555
Mg2 O48 2.081353 1_555
Mg2 O12 2.282268 1_555
Mg2 O50 2.294079 1_555
Mg3 O17 1.912562 1_555
Mg3 O15 1.955567 1_555
Mg3 O51 1.997056 1_555
Mg3 O52 2.081353 1_555
Mg3 O16 2.282268 1_555
Mg3 O53 2.294079 1_555
Mg4 O26 1.912562 1_554
Mg4 O25 1.955567 1_554
Mg4 O61 1.997056 1_555
Mg4 O60 2.081353 1_555
Mg4 O24 2.282268 1_554
Mg4 O62 2.294079 1_555
Mg5 O29 1.912562 1_555
Mg5 O27 1.955567 1_555
Mg5 O63 1.997056 1_555
Mg5 O64 2.081353 1_555
Mg5 O28 2.282268 1_555
Mg5 O65 2.294079 1_555
O0 S0 1.450652 1_555
O1 Si0 1.591472 1_555
O2 Si1 1.566868 1_655
O3 Si2 1.591472 1_555
O4 S1 1.450652 1_655
O5 Si3 1.566868 1_555
O6 Si3 1.710892 1_565
O6 Ta0 1.922585 1_555
O7 Si2 1.736792 1_555
O7 Ta0 1.969272 1_445
O8 S1 1.522000 1_555
O8 Ta0 2.056861 1_455
O9 Si0 1.736792 1_555
O9 Ta1 1.969272 1_665
O10 Si1 1.710892 1_555
O10 Ta1 1.922585 1_555
O11 S0 1.522000 1_565
O11 Ta1 2.056861 1_565
O12 S2 1.450652 1_555
O13 Si4 1.591472 1_555
O14 Si5 1.566868 1_555
O15 Si6 1.591472 1_555
O16 S3 1.450652 1_555
O17 Si7 1.566868 1_555
O18 Si7 1.710892 1_555
O18 Ta2 1.922585 1_554
O19 Si6 1.736792 1_555
O19 Ta2 1.969272 1_554
O20 S3 1.522000 1_555
O20 Ta2 2.056861 1_554
O21 Si4 1.736792 1_555
O21 Ta3 1.969272 1_555
O22 Si5 1.710892 1_555
O22 Ta3 1.922585 1_555
O23 S2 1.522000 1_555
O23 Ta3 2.056861 1_555
O24 S4 1.450652 1_555
O25 Si8 1.591472 1_555
O26 Si9 1.566868 1_555
O27 Si10 1.591472 1_555
O28 S5 1.450652 1_555
O29 Si11 1.566868 1_555
O30 Si11 1.710892 1_555
O30 Ta4 1.922585 1_555
O31 Si10 1.736792 1_555
O31 Ta4 1.969272 1_555
O32 S5 1.522000 1_555
O32 Ta4 2.056861 1_555
O33 Si8 1.736792 1_555
O33 Ta5 1.969272 1_555
O34 Si9 1.710892 1_555
O34 Ta5 1.922585 1_555
O35 S4 1.522000 1_555
O35 Ta5 2.056861 1_555
O36 Si11 1.622276 1_555
O37 Si10 1.594603 1_555
O38 S5 1.458660 1_555
O39 Si8 1.594603 1_555
O40 Si9 1.622276 1_555
O41 S4 1.458660 1_555
O42 S2 1.538663 1_555
O42 Ta0 2.135008 1_545
O43 Si4 1.685858 1_555
O43 Ta0 2.015104 1_445
O44 Si5 1.687007 1_555
O44 Ta0 1.986457 1_555
O45 Si6 1.685857 1_555
O45 Ta1 2.015104 1_665
O46 S3 1.538663 1_555
O46 Ta1 2.135008 1_655
O47 Si7 1.687007 1_555
O47 Ta1 1.986457 1_555
O48 Si3 1.622276 1_555
O49 Si2 1.594603 1_555
O50 S1 1.458660 1_655
O51 Si0 1.594603 1_555
O52 Si1 1.622276 1_655
O53 S0 1.458660 1_555
O54 S4 1.538677 1_555
O54 Ta2 2.135008 1_555
O55 Si8 1.685843 1_655
O55 Ta2 2.015104 1_555
O56 Si9 1.687004 1_545
O56 Ta2 1.986457 1_555
O57 Si10 1.685842 1_545
O57 Ta3 2.015104 1_555
O58 S5 1.538677 1_555
O58 Ta3 2.135008 1_555
O59 Si11 1.687004 1_655
O59 Ta3 1.986457 1_555
O60 Si7 1.622288 1_555
O61 Si6 1.594588 1_455
O62 S3 1.458653 1_565
O63 Si4 1.594588 1_565
O64 Si5 1.622288 1_555
O65 S2 1.458653 1_455
O66 S0 1.538663 1_565
O66 Ta4 2.135008 1_555
O67 Si0 1.685858 1_555
O67 Ta4 2.015104 1_555
O68 Si1 1.687007 1_555
O68 Ta4 1.986457 1_555
O69 Si2 1.685857 1_555
O69 Ta5 2.015104 1_555
O70 S1 1.538663 1_555
O70 Ta5 2.135008 1_555
O71 Si3 1.687007 1_565
O71 Ta5 1.986457 1_555
