# generated using pymatgen
data_Ba2MgCuTeO6
_symmetry_space_group_name_H-M   'P 1'
_cell_length_a   5.78566776
_cell_length_b   5.84116058
_cell_length_c   6.88220595
_cell_angle_alpha   115.03299557
_cell_angle_beta   114.80703249
_cell_angle_gamma   90.10438986
_symmetry_Int_Tables_number   1
_chemical_formula_structural   Ba2MgCuTeO6
_chemical_formula_sum   'Ba2 Mg1 Cu1 Te1 O6'
_cell_volume   186.68688498
_cell_formula_units_Z   1
loop_
 _symmetry_equiv_pos_site_id
 _symmetry_equiv_pos_as_xyz
  1  'x, y, z'
loop_
 _atom_site_type_symbol
 _atom_site_label
 _atom_site_symmetry_multiplicity
 _atom_site_fract_x
 _atom_site_fract_y
 _atom_site_fract_z
 _atom_site_occupancy
  Ba  Ba0  1  0.81777600  0.31791000  0.63557600  1
  Ba  Ba1  1  0.18222400  0.68209000  0.36442400  1
  Mg  Mg0  1  0.50000000  0.00000000  0.00000000  1
  Cu  Cu0  1  0.00000000  0.00000000  0.00000000  1
  Te  Te0  1  0.50000000  0.50000000  0.00000000  1
  O  O0  1  0.75082400  0.76321700  0.99978000  1
  O  O1  1  0.24889700  0.76218900  0.99995700  1
  O  O2  1  0.75110300  0.23781100  0.00004300  1
  O  O3  1  0.24917700  0.23678300  0.00022000  1
  O  O4  1  0.30768000  0.30779700  0.61546800  1
  O  O5  1  0.69231900  0.69220300  0.38453200  1
loop_
_geom_bond_atom_site_label_1
_geom_bond_atom_site_label_2
_geom_bond_distance
_geom_bond_site_symmetry_2
Ba0 O4 2.894724 1_655
Ba0 O4 2.895208 1_555
Ba0 O2 2.909279 1_556
Ba0 O1 2.909484 1_655
Ba0 O0 2.915368 1_555
Ba0 O3 2.916647 1_656
Ba0 O5 3.231412 1_555
Ba0 O5 3.234804 1_545
Ba1 O5 2.894730 1_455
Ba1 O5 2.895202 1_555
Ba1 O1 2.909279 1_554
Ba1 O2 2.909484 1_455
Ba1 O3 2.915371 1_555
Ba1 O0 2.916645 1_454
Ba1 O4 3.231412 1_555
Ba1 O4 3.234804 1_565
Mg0 O3 2.006549 1_555
Mg0 O0 2.006553 1_544
Mg0 O1 2.008019 1_544
Mg0 O2 2.008019 1_555
Cu0 O0 1.995098 1_444
Cu0 O3 1.995102 1_555
Cu0 O1 2.002643 1_544
Cu0 O2 2.002643 1_455
O0 Te0 2.113174 1_556
O1 Te0 2.112868 1_556
O2 Te0 2.112868 1_555
O3 Te0 2.113170 1_555
O4 Te0 2.124195 1_556
O5 Te0 2.124195 1_555
