# generated using pymatgen
data_Ba2DyMgNbO6
_symmetry_space_group_name_H-M   'P 1'
_cell_length_a   6.83594973
_cell_length_b   6.83705919
_cell_length_c   6.83594985
_cell_angle_alpha   51.66495665
_cell_angle_beta   51.66539874
_cell_angle_gamma   51.66495674
_symmetry_Int_Tables_number   1
_chemical_formula_structural   Ba2DyMgNbO6
_chemical_formula_sum   'Ba2 Dy1 Mg1 Nb1 O6'
_cell_volume   181.60624812
_cell_formula_units_Z   1
loop_
 _symmetry_equiv_pos_site_id
 _symmetry_equiv_pos_as_xyz
  1  'x, y, z'
loop_
 _atom_site_type_symbol
 _atom_site_label
 _atom_site_symmetry_multiplicity
 _atom_site_fract_x
 _atom_site_fract_y
 _atom_site_fract_z
 _atom_site_occupancy
  Ba  Ba0  1  0.69831189  0.69680605  0.69831189  1
  Ba  Ba1  1  0.27404514  0.27253415  0.27404514  1
  Dy  Dy0  1  0.49393655  0.49240646  0.49393655  1
  Mg  Mg0  1  0.86800016  0.86639313  0.86800016  1
  Nb  Nb0  1  0.01977438  0.01851258  0.01977438  1
  O  O0  1  0.24703536  0.77127134  0.77191490  1
  O  O1  1  0.24104061  0.74871750  0.24104061  1
  O  O2  1  0.77148543  0.24604750  0.77148543  1
  O  O3  1  0.24091981  0.24031148  0.74853577  1
  O  O4  1  0.74853577  0.24031148  0.24091981  1
  O  O5  1  0.77191490  0.77127134  0.24703536  1
loop_
_geom_bond_atom_site_label_1
_geom_bond_atom_site_label_2
_geom_bond_distance
_geom_bond_site_symmetry_2
Ba0 O0 2.544200 1_555
Ba0 O5 2.544200 1_555
Ba0 O2 2.546364 1_555
Ba0 Mg0 3.006923 1_555
Ba0 O3 3.083293 1_655
Ba0 O4 3.083293 1_556
Ba0 O1 3.087472 1_655
Ba0 O1 3.087472 1_556
Ba0 O3 3.088747 1_565
Ba0 O4 3.088747 1_565
Ba1 O4 2.980772 1_555
Ba1 O3 2.980772 1_555
Ba1 O5 2.983076 1_545
Ba1 O0 2.983076 1_545
Ba1 O2 2.985713 1_455
Ba1 O2 2.985713 1_554
Ba1 O5 2.988179 1_455
Ba1 O0 2.988179 1_554
Ba1 O1 2.990330 1_555
Dy0 O3 2.287798 1_555
Dy0 O4 2.287798 1_555
Dy0 O1 2.288979 1_555
Dy0 O2 2.563865 1_555
Dy0 O5 2.572676 1_555
Dy0 O0 2.572676 1_555
Mg0 O0 1.973906 1_655
Mg0 O5 1.973906 1_556
Mg0 O2 1.974683 1_565
Nb0 O1 1.973339 1_545
Nb0 O3 1.975244 1_554
Nb0 O4 1.975244 1_455
Nb0 O5 2.274148 1_445
Nb0 O0 2.274148 1_544
Nb0 O2 2.281306 1_454
