# generated using pymatgen
data_Ba2Nd4Mg(CuO5)2
_symmetry_space_group_name_H-M   'P 1'
_cell_length_a   5.99510849
_cell_length_b   6.48233476
_cell_length_c   7.65597237
_cell_angle_alpha   86.02656381
_cell_angle_beta   90.00000000
_cell_angle_gamma   90.00000000
_symmetry_Int_Tables_number   1
_chemical_formula_structural   Ba2Nd4Mg(CuO5)2
_chemical_formula_sum   'Ba2 Nd4 Mg1 Cu2 O10'
_cell_volume   296.81352165
_cell_formula_units_Z   1
loop_
 _symmetry_equiv_pos_site_id
 _symmetry_equiv_pos_as_xyz
  1  'x, y, z'
loop_
 _atom_site_type_symbol
 _atom_site_label
 _atom_site_symmetry_multiplicity
 _atom_site_fract_x
 _atom_site_fract_y
 _atom_site_fract_z
 _atom_site_occupancy
  Ba  Ba0  1  -0.00000000  0.42864765  0.42427823  1
  Ba  Ba1  1  -0.00000000  0.01116194  0.04135483  1
  Nd  Nd0  1  0.50000000  0.81087602  0.35243715  1
  Nd  Nd1  1  0.50000000  0.70509929  0.87511072  1
  Nd  Nd2  1  0.50000000  0.31795944  0.18072593  1
  Nd  Nd3  1  0.50000000  0.20725826  0.69560421  1
  Mg  Mg0  1  0.00000000  0.65725596  0.74174854  1
  Cu  Cu0  1  0.00000000  0.50603889  0.03711321  1
  Cu  Cu1  1  0.00000000  0.96916667  0.49695931  1
  O  O0  1  0.25689184  0.63766360  0.15722336  1
  O  O1  1  0.23703071  0.42779847  0.81889155  1
  O  O2  1  0.24354547  0.10803639  0.32926047  1
  O  O3  1  0.24281600  0.86990613  0.68117291  1
  O  O4  1  0.74310816  0.63766360  0.15722336  1
  O  O5  1  0.75718400  0.86990613  0.68117291  1
  O  O6  1  0.75645453  0.10803639  0.32926047  1
  O  O7  1  0.76296929  0.42779847  0.81889155  1
  O  O8  1  0.50000000  0.03926020  0.99192693  1
  O  O9  1  0.50000000  0.47046649  0.46964432  1
loop_
_geom_bond_atom_site_label_1
_geom_bond_atom_site_label_2
_geom_bond_distance
_geom_bond_site_symmetry_2
Ba0 O6 2.681403 1_455
Ba0 O2 2.681403 1_555
Ba0 O0 2.829135 1_555
Ba0 O4 2.829135 1_455
Ba0 Mg0 2.933052 1_555
Ba0 Cu0 2.971806 1_555
Ba0 Cu1 2.991899 1_545
Ba0 O9 3.031913 1_555
Ba0 O9 3.031913 1_455
Ba0 O7 3.338319 1_455
Ba0 O1 3.338319 1_555
Ba0 Cu1 3.585614 1_555
Ba1 O6 2.752545 1_455
Ba1 O2 2.752545 1_555
Ba1 O4 2.953487 1_445
Ba1 O0 2.953487 1_545
Ba1 O8 3.025253 1_554
Ba1 O8 3.025253 1_454
Ba1 O3 3.303257 1_544
Ba1 O5 3.303257 1_444
Nd0 O9 2.323809 1_555
Nd0 O4 2.418918 1_555
Nd0 O0 2.418918 1_555
Nd0 O6 2.461411 1_565
Nd0 O2 2.461411 1_565
Nd0 O5 2.998570 1_555
Nd0 O3 2.998570 1_555
Nd0 O8 3.040294 1_564
Nd1 O5 2.345926 1_555
Nd1 O3 2.345926 1_555
Nd1 O8 2.400105 1_565
Nd1 O1 2.451354 1_555
Nd1 O7 2.451354 1_555
Nd1 O0 2.617130 1_556
Nd1 O4 2.617130 1_556
Nd2 O2 2.300932 1_555
Nd2 O6 2.300932 1_555
Nd2 O8 2.390624 1_554
Nd2 O9 2.484576 1_555
Nd2 O4 2.529792 1_555
Nd2 O0 2.529792 1_555
Nd3 O9 2.344093 1_555
Nd3 O7 2.367947 1_555
Nd3 O1 2.367947 1_555
Nd3 O8 2.447507 1_555
Nd3 O5 2.684251 1_545
Nd3 O3 2.684251 1_545
Mg0 O3 2.036110 1_555
Mg0 O5 2.036110 1_455
Mg0 O1 2.111587 1_555
Mg0 O7 2.111587 1_455
Cu0 O0 2.013511 1_555
Cu0 O4 2.013511 1_455
Cu0 O7 2.277106 1_454
Cu0 O1 2.277106 1_554
Cu1 O3 2.096755 1_555
Cu1 O5 2.096755 1_455
Cu1 O6 2.104855 1_465
Cu1 O2 2.104855 1_565
