# generated using pymatgen
data_Cu3Sb
_symmetry_space_group_name_H-M   'P 1'
_cell_length_a   4.34370600
_cell_length_b   4.98255000
_cell_length_c   5.49945000
_cell_angle_alpha   90.00000000
_cell_angle_beta   90.00000000
_cell_angle_gamma   90.00000000
_symmetry_Int_Tables_number   1
_chemical_formula_structural   Cu3Sb
_chemical_formula_sum   'Cu6 Sb2'
_cell_volume   119.02312431
_cell_formula_units_Z   2
loop_
 _symmetry_equiv_pos_site_id
 _symmetry_equiv_pos_as_xyz
  1  'x, y, z'
loop_
 _atom_site_type_symbol
 _atom_site_label
 _atom_site_symmetry_multiplicity
 _atom_site_fract_x
 _atom_site_fract_y
 _atom_site_fract_z
 _atom_site_occupancy
  Cu  Cu0  1  0.50000000  0.70331800  0.00000000  1
  Cu  Cu1  1  0.00000000  0.29668200  0.50000000  1
  Cu  Cu2  1  0.00000000  0.85120300  0.24825400  1
  Cu  Cu3  1  0.50000000  0.14879700  0.25174600  1
  Cu  Cu4  1  0.00000000  0.85120300  0.75174600  1
  Cu  Cu5  1  0.50000000  0.14879700  0.74825400  1
  Sb  Sb0  1  0.00000000  0.33999200  0.00000000  1
  Sb  Sb1  1  0.50000000  0.66000800  0.50000000  1
loop_
_geom_bond_atom_site_label_1
_geom_bond_atom_site_label_2
_geom_bond_distance
_geom_bond_site_symmetry_2
Cu0 Cu3 2.616001 1_565
Cu0 Cu5 2.616001 1_564
Cu0 Cu4 2.669049 1_654
Cu0 Cu2 2.669049 1_655
Cu0 Cu4 2.669049 1_554
Cu0 Cu2 2.669049 1_555
Cu0 Sb1 2.758180 1_554
Cu0 Sb1 2.758180 1_555
Cu0 Sb0 2.827383 1_655
Cu0 Sb0 2.827383 1_555
Cu0 Cu3 3.090391 1_555
Cu0 Cu5 3.090391 1_554
Cu1 Cu4 2.616001 1_545
Cu1 Cu2 2.616001 1_545
Cu1 Cu5 2.669049 1_555
Cu1 Cu5 2.669049 1_455
Cu1 Cu3 2.669049 1_555
Cu1 Cu3 2.669049 1_455
Cu1 Sb0 2.758180 1_555
Cu1 Sb0 2.758180 1_556
Cu1 Sb1 2.827383 1_555
Cu1 Sb1 2.827383 1_455
Cu1 Cu4 3.090391 1_555
Cu1 Cu2 3.090391 1_555
Cu2 Cu3 2.629818 1_565
Cu2 Cu3 2.629818 1_465
Cu2 Cu4 2.730521 1_554
Cu2 Sb1 2.746126 1_455
Cu2 Sb1 2.746126 1_555
Cu2 Cu4 2.768929 1_555
Cu2 Sb0 2.791986 1_565
Cu2 Sb0 2.889953 1_555
Cu3 Cu5 2.730521 1_555
Cu3 Sb0 2.746126 1_555
Cu3 Sb0 2.746126 1_655
Cu3 Cu5 2.768929 1_554
Cu3 Sb1 2.791986 1_545
Cu3 Sb1 2.889953 1_555
Cu4 Cu5 2.629818 1_565
Cu4 Cu5 2.629818 1_465
Cu4 Sb1 2.746126 1_455
Cu4 Sb1 2.746126 1_555
Cu4 Sb0 2.791986 1_566
Cu4 Sb0 2.889953 1_556
Cu5 Sb0 2.746126 1_556
Cu5 Sb0 2.746126 1_656
Cu5 Sb1 2.791986 1_545
Cu5 Sb1 2.889953 1_555
