# generated using pymatgen
data_Fe3BO6
_symmetry_space_group_name_H-M   'P 1'
_cell_length_a   4.46920401
_cell_length_b   8.59569376
_cell_length_c   10.09319898
_cell_angle_alpha   90.00000000
_cell_angle_beta   90.00000000
_cell_angle_gamma   90.00000000
_symmetry_Int_Tables_number   1
_chemical_formula_structural   Fe3BO6
_chemical_formula_sum   'Fe12 B4 O24'
_cell_volume   387.73941375
_cell_formula_units_Z   4
loop_
 _symmetry_equiv_pos_site_id
 _symmetry_equiv_pos_as_xyz
  1  'x, y, z'
loop_
 _atom_site_type_symbol
 _atom_site_label
 _atom_site_symmetry_multiplicity
 _atom_site_fract_x
 _atom_site_fract_y
 _atom_site_fract_z
 _atom_site_occupancy
  Fe  Fe0  1  0.48311745  0.75000000  0.91119736  1
  Fe  Fe1  1  0.98311745  0.25000000  0.58880264  1
  Fe  Fe2  1  0.51688255  0.25000000  0.08880264  1
  Fe  Fe3  1  0.01688255  0.75000000  0.41119736  1
  Fe  Fe4  1  0.52317041  0.43422523  0.37089526  1
  Fe  Fe5  1  0.02317041  0.56577477  0.12910474  1
  Fe  Fe6  1  0.47682959  0.93422523  0.62910474  1
  Fe  Fe7  1  0.97682959  0.06577477  0.87089526  1
  Fe  Fe8  1  0.47682959  0.56577477  0.62910474  1
  Fe  Fe9  1  0.97682959  0.43422523  0.87089526  1
  Fe  Fe10  1  0.52317041  0.06577477  0.37089526  1
  Fe  Fe11  1  0.02317041  0.93422523  0.12910474  1
  B  B0  1  0.08961440  0.25000000  0.28307920  1
  B  B1  1  0.91038560  0.75000000  0.71692080  1
  B  B2  1  0.41038560  0.25000000  0.78307920  1
  B  B3  1  0.58961440  0.75000000  0.21692080  1
  O  O0  1  0.77513129  0.75000000  0.58155855  1
  O  O1  1  0.27513129  0.25000000  0.91844145  1
  O  O2  1  0.22486871  0.25000000  0.41844145  1
  O  O3  1  0.72486871  0.75000000  0.08155855  1
  O  O4  1  0.76453172  0.41886594  0.03567079  1
  O  O5  1  0.26453172  0.58113406  0.46432921  1
  O  O6  1  0.23546828  0.91886594  0.96432921  1
  O  O7  1  0.73546828  0.08113406  0.53567079  1
  O  O8  1  0.26733494  0.75000000  0.21818840  1
  O  O9  1  0.23266506  0.75000000  0.71818840  1
  O  O10  1  0.76733494  0.25000000  0.28181160  1
  O  O11  1  0.73266506  0.25000000  0.78181160  1
  O  O12  1  0.73362309  0.88697094  0.28499163  1
  O  O13  1  0.23362309  0.11302906  0.21500837  1
  O  O14  1  0.26637691  0.38697094  0.71500837  1
  O  O15  1  0.76637691  0.61302906  0.78499163  1
  O  O16  1  0.26637691  0.11302906  0.71500837  1
  O  O17  1  0.76637691  0.88697094  0.78499163  1
  O  O18  1  0.73362309  0.61302906  0.28499163  1
  O  O19  1  0.23362309  0.38697094  0.21500837  1
  O  O20  1  0.26453172  0.91886594  0.46432921  1
  O  O21  1  0.76453172  0.08113406  0.03567079  1
  O  O22  1  0.73546828  0.41886594  0.53567079  1
  O  O23  1  0.23546828  0.58113406  0.96432921  1
loop_
_geom_bond_atom_site_label_1
_geom_bond_atom_site_label_2
_geom_bond_distance
_geom_bond_site_symmetry_2
Fe0 O6 1.902496 1_555
Fe0 O23 1.902496 1_555
Fe0 O3 2.030760 1_556
Fe0 O15 2.147419 1_555
Fe0 O17 2.147419 1_555
Fe0 O9 2.246751 1_555
Fe1 O7 1.902496 1_555
Fe1 O22 1.902496 1_555
Fe1 O2 2.030760 1_655
Fe1 O14 2.147419 1_655
Fe1 O16 2.147419 1_655
Fe1 O11 2.246751 1_555
Fe2 O21 1.902496 1_555
Fe2 O4 1.902496 1_555
Fe2 O1 2.030760 1_554
Fe2 O13 2.147419 1_555
Fe2 O19 2.147419 1_555
Fe2 O10 2.246751 1_555
Fe3 O5 1.902496 1_555
Fe3 O20 1.902496 1_555
Fe3 O0 2.030760 1_455
Fe3 O12 2.147419 1_455
Fe3 O18 2.147419 1_455
Fe3 O8 2.246751 1_555
Fe4 O22 1.919270 1_555
Fe4 O5 1.954504 1_555
Fe4 O18 1.999650 1_555
Fe4 O19 2.077287 1_555
Fe4 O10 2.122928 1_555
Fe4 O2 2.124913 1_555
Fe5 O23 1.919270 1_554
Fe5 O4 1.954504 1_455
Fe5 O19 1.999650 1_555
Fe5 O18 2.077287 1_455
Fe5 O8 2.122928 1_555
Fe5 O3 2.124913 1_455
Fe6 O20 1.919270 1_555
Fe6 O7 1.954504 1_565
Fe6 O16 1.999650 1_565
Fe6 O17 2.077287 1_555
Fe6 O9 2.122928 1_555
Fe6 O0 2.124913 1_555
Fe7 O21 1.919270 1_556
Fe7 O6 1.954504 1_645
Fe7 O17 1.999650 1_545
Fe7 O16 2.077287 1_655
Fe7 O11 2.122928 1_555
Fe7 O1 2.124913 1_655
Fe8 O5 1.919270 1_555
Fe8 O22 1.954504 1_555
Fe8 O14 1.999650 1_555
Fe8 O15 2.077287 1_555
Fe8 O9 2.122928 1_555
Fe8 O0 2.124913 1_555
Fe9 O4 1.919270 1_556
Fe9 O23 1.954504 1_655
Fe9 O15 1.999650 1_555
Fe9 O14 2.077287 1_655
Fe9 O11 2.122928 1_555
Fe9 O1 2.124913 1_655
Fe10 O7 1.919270 1_555
Fe10 O20 1.954504 1_545
Fe10 O12 1.999650 1_545
Fe10 O13 2.077287 1_555
Fe10 O10 2.122928 1_555
Fe10 O2 2.124913 1_555
Fe11 O6 1.919270 1_554
Fe11 O21 1.954504 1_465
Fe11 O13 1.999650 1_565
Fe11 O12 2.077287 1_455
Fe11 O8 2.122928 1_555
Fe11 O3 2.124913 1_455
B0 O10 1.440389 1_455
B0 O2 1.493988 1_555
B0 O19 1.507463 1_555
B0 O13 1.507463 1_555
B1 O9 1.440389 1_655
B1 O0 1.493988 1_555
B1 O15 1.507463 1_555
B1 O17 1.507463 1_555
B2 O11 1.440389 1_555
B2 O1 1.493988 1_555
B2 O14 1.507463 1_555
B2 O16 1.507463 1_555
B3 O8 1.440389 1_555
B3 O3 1.493988 1_555
B3 O18 1.507463 1_555
B3 O12 1.507463 1_555
