# generated using pymatgen
data_MgZn2(SbO3)4
_symmetry_space_group_name_H-M   'P 1'
_cell_length_a   5.34418587
_cell_length_b   5.34939376
_cell_length_c   9.65880027
_cell_angle_alpha   83.57424239
_cell_angle_beta   83.49141359
_cell_angle_gamma   76.96818623
_symmetry_Int_Tables_number   1
_chemical_formula_structural   MgZn2(SbO3)4
_chemical_formula_sum   'Mg1 Zn2 Sb4 O12'
_cell_volume   266.21600073
_cell_formula_units_Z   1
loop_
 _symmetry_equiv_pos_site_id
 _symmetry_equiv_pos_as_xyz
  1  'x, y, z'
loop_
 _atom_site_type_symbol
 _atom_site_label
 _atom_site_symmetry_multiplicity
 _atom_site_fract_x
 _atom_site_fract_y
 _atom_site_fract_z
 _atom_site_occupancy
  Mg  Mg0  1  0.21262623  0.21619530  0.85436916  1
  Zn  Zn0  1  0.91014052  0.90828580  0.01210115  1
  Zn  Zn1  1  0.49450692  0.49501642  0.50034682  1
  Sb  Sb0  1  0.55752876  0.55941440  0.84371715  1
  Sb  Sb1  1  0.03301022  0.03362724  0.31033096  1
  Sb  Sb2  1  0.47704043  0.47691491  0.17303979  1
  Sb  Sb3  1  0.97272872  0.97136745  0.63909585  1
  O  O0  1  0.73370671  0.73610200  0.68524699  1
  O  O1  1  0.39970174  0.40577074  0.70428059  1
  O  O2  1  0.61838784  0.61654359  0.31229694  1
  O  O3  1  0.16698299  0.78638204  0.16639173  1
  O  O4  1  0.78663854  0.16641456  0.16585443  1
  O  O5  1  0.84076391  0.24150845  0.85616838  1
  O  O6  1  0.36096206  0.36316041  0.00226200  1
  O  O7  1  0.15639454  0.77642411  0.46962718  1
  O  O8  1  0.77695987  0.15759446  0.47062309  1
  O  O9  1  0.67579815  0.67439291  0.01308404  1
  O  O10  1  0.26601226  0.26528251  0.30592129  1
  O  O11  1  0.24066559  0.84404669  0.85809948  1
loop_
_geom_bond_atom_site_label_1
_geom_bond_atom_site_label_2
_geom_bond_distance
_geom_bond_site_symmetry_2
Mg0 O11 1.958967 1_545
Mg0 O5 1.959424 1_455
Mg0 O1 1.982203 1_555
Mg0 O6 2.018952 1_556
O0 Sb0 1.968111 1_555
O0 Sb3 1.970950 1_555
O1 Sb0 2.004673 1_555
O1 Zn1 2.009206 1_555
O2 Sb2 1.909806 1_555
O2 Zn1 1.953764 1_555
O3 Sb1 1.988381 1_565
O3 Sb2 2.062419 1_555
O3 Zn0 2.091109 1_455
O4 Sb1 1.989564 1_655
O4 Sb2 2.064368 1_555
O4 Zn0 2.091299 1_545
O5 Sb0 2.008055 1_555
O5 Zn0 2.193384 1_546
O5 Sb3 2.620111 1_545
O6 Sb2 2.025560 1_555
O6 Sb0 2.079317 1_554
O7 Sb1 2.010516 1_565
O7 Sb3 2.070378 1_455
O7 Zn1 2.100956 1_555
O8 Sb1 2.012344 1_655
O8 Sb3 2.070749 1_545
O8 Zn1 2.099519 1_555
O9 Zn0 1.958391 1_555
O9 Sb0 2.022089 1_554
O9 Sb2 2.097588 1_555
O10 Sb1 1.939091 1_555
O10 Sb2 2.030582 1_555
O11 Sb0 2.009074 1_555
O11 Zn0 2.166978 1_456
O11 Sb3 2.629286 1_455
