# generated using pymatgen
data_Zr2Be17
_symmetry_space_group_name_H-M   'P 1'
_cell_length_a   5.68107072
_cell_length_b   5.68107159
_cell_length_c   5.68107134
_cell_angle_alpha   82.91023638
_cell_angle_beta   82.91022991
_cell_angle_gamma   82.91024633
_symmetry_Int_Tables_number   1
_chemical_formula_structural   Zr2Be17
_chemical_formula_sum   'Zr2 Be17'
_cell_volume   179.46799402
_cell_formula_units_Z   1
loop_
 _symmetry_equiv_pos_site_id
 _symmetry_equiv_pos_as_xyz
  1  'x, y, z'
loop_
 _atom_site_type_symbol
 _atom_site_label
 _atom_site_symmetry_multiplicity
 _atom_site_fract_x
 _atom_site_fract_y
 _atom_site_fract_z
 _atom_site_occupancy
  Zr  Zr0  1  0.16235370  0.16235370  0.16235370  1
  Zr  Zr1  1  0.83764630  0.83764630  0.83764630  1
  Be  Be0  1  0.40313741  0.40313741  0.40313741  1
  Be  Be1  1  0.59686259  0.59686259  0.59686259  1
  Be  Be2  1  0.50000000  0.50000000  -0.00000000  1
  Be  Be3  1  0.00000000  0.50000000  0.50000000  1
  Be  Be4  1  0.50000000  -0.00000000  0.50000000  1
  Be  Be5  1  0.78667463  0.21332537  0.50000000  1
  Be  Be6  1  0.50000000  0.78667463  0.21332537  1
  Be  Be7  1  0.21332537  0.50000000  0.78667463  1
  Be  Be8  1  0.21332537  0.78667463  0.50000000  1
  Be  Be9  1  0.50000000  0.21332537  0.78667463  1
  Be  Be10  1  0.78667463  0.50000000  0.21332537  1
  Be  Be11  1  0.15678065  0.66010512  0.15678065  1
  Be  Be12  1  0.15678065  0.15678065  0.66010512  1
  Be  Be13  1  0.66010512  0.15678065  0.15678065  1
  Be  Be14  1  0.33989488  0.84321935  0.84321935  1
  Be  Be15  1  0.84321935  0.33989488  0.84321935  1
  Be  Be16  1  0.84321935  0.84321935  0.33989488  1
loop_
_geom_bond_atom_site_label_1
_geom_bond_atom_site_label_2
_geom_bond_distance
_geom_bond_site_symmetry_2
Be0 Be1 2.128549 1_555
Be0 Be3 2.302917 1_555
Be0 Be2 2.302917 1_555
Be0 Be4 2.302917 1_555
Be0 Be12 2.350230 1_555
Be0 Be13 2.350231 1_555
Be0 Be11 2.350231 1_555
Be0 Be10 2.404732 1_555
Be0 Be7 2.404733 1_555
Be0 Be6 2.404733 1_555
Be0 Be5 2.404733 1_555
Be0 Be9 2.404733 1_555
Be0 Be8 2.404733 1_555
Be0 Zr0 2.645604 1_555
Be1 Be3 2.302917 1_655
Be1 Be2 2.302917 1_556
Be1 Be4 2.302917 1_565
Be1 Be16 2.350230 1_555
Be1 Be14 2.350231 1_555
Be1 Be15 2.350231 1_555
Be1 Be7 2.404732 1_555
Be1 Be10 2.404733 1_555
Be1 Be9 2.404733 1_555
Be1 Be8 2.404733 1_555
Be1 Be6 2.404733 1_555
Be1 Be5 2.404733 1_555
Be1 Zr1 2.645604 1_555
Be2 Be7 2.146709 1_554
Be2 Be9 2.146709 1_554
Be2 Be6 2.146709 1_555
Be2 Zr1 2.871314 1_554
Be2 Zr0 2.871314 1_555
Be3 Be5 2.146709 1_455
Be3 Be8 2.146709 1_555
Be3 Be7 2.146709 1_555
Be3 Zr1 2.871315 1_455
Be3 Zr0 2.871315 1_555
Be4 Be8 2.146709 1_545
Be4 Be5 2.146709 1_555
Be4 Be6 2.146709 1_545
Be4 Be9 2.146709 1_555
Be4 Zr1 2.871315 1_545
Be4 Zr0 2.871315 1_555
Be5 Be9 2.156399 1_555
Be5 Zr0 2.700436 1_655
Be5 Zr1 2.700437 1_545
Be6 Be8 2.156399 1_555
Be6 Zr1 2.700436 1_554
Be6 Zr0 2.700437 1_565
Be7 Be8 2.156400 1_555
Be7 Be9 2.156400 1_555
Be7 Zr0 2.700437 1_556
Be7 Zr1 2.700437 1_455
Be8 Zr1 2.700436 1_455
Be8 Zr0 2.700437 1_565
Be9 Zr0 2.700436 1_556
Be9 Zr1 2.700437 1_545
Be10 Be2 2.146709 1_555
Be10 Be3 2.146709 1_655
Be10 Be5 2.156400 1_555
Be10 Be6 2.156400 1_555
Be10 Be13 2.231565 1_555
Be10 Be16 2.231565 1_555
Be10 Be11 2.363188 1_655
Be10 Be15 2.363189 1_554
Be10 Zr1 2.700437 1_554
Be10 Zr0 2.700437 1_655
Be11 Be14 2.165617 1_554
Be11 Be16 2.165617 1_455
Be11 Be3 2.180836 1_555
Be11 Be2 2.180836 1_555
Be11 Be6 2.231564 1_555
Be11 Be8 2.231565 1_555
Be11 Be7 2.363189 1_554
Be11 Zr1 2.738621 1_454
Be11 Zr0 2.820335 1_555
Be11 Zr0 2.861508 1_565
Be12 Be15 2.165617 1_455
Be12 Be14 2.165618 1_545
Be12 Be4 2.180836 1_555
Be12 Be3 2.180836 1_555
Be12 Be9 2.231564 1_555
Be12 Be7 2.231565 1_555
Be12 Be5 2.363189 1_455
Be12 Be8 2.363189 1_545
Be12 Zr1 2.738620 1_445
Be12 Zr0 2.820334 1_555
Be12 Zr0 2.861508 1_556
Be13 Be15 2.165617 1_554
Be13 Be16 2.165618 1_545
Be13 Be4 2.180836 1_555
Be13 Be2 2.180836 1_555
Be13 Be5 2.231565 1_555
Be13 Be6 2.363189 1_545
Be13 Be9 2.363189 1_554
Be13 Zr1 2.738621 1_544
Be13 Zr0 2.820334 1_555
Be13 Zr0 2.861508 1_655
Be14 Be4 2.180836 1_565
Be14 Be2 2.180836 1_556
Be14 Be7 2.231565 1_555
Be14 Be8 2.231565 1_555
Be14 Be9 2.363189 1_565
Be14 Be6 2.363189 1_556
Be14 Zr0 2.738621 1_566
Be14 Zr1 2.820334 1_555
Be14 Zr1 2.861508 1_455
Be15 Be3 2.180836 1_655
Be15 Be2 2.180836 1_556
Be15 Be9 2.231564 1_555
Be15 Be5 2.231565 1_555
Be15 Be7 2.363188 1_655
Be15 Zr0 2.738621 1_656
Be15 Zr1 2.820335 1_555
Be15 Zr1 2.861508 1_545
Be16 Be4 2.180836 1_565
Be16 Be3 2.180836 1_655
Be16 Be6 2.231564 1_555
Be16 Be8 2.363189 1_655
Be16 Be5 2.363189 1_565
Be16 Zr0 2.738620 1_665
Be16 Zr1 2.820334 1_555
Be16 Zr1 2.861508 1_554
