# generated using pymatgen
data_Na4AlInSi(PO6)2
_symmetry_space_group_name_H-M   'P 1'
_cell_length_a   8.99522806
_cell_length_b   8.99926786
_cell_length_c   21.93726306
_cell_angle_alpha   89.99908118
_cell_angle_beta   89.85013931
_cell_angle_gamma   120.08889431
_symmetry_Int_Tables_number   1
_chemical_formula_structural   Na4AlInSi(PO6)2
_chemical_formula_sum   'Na24 Al6 In6 Si6 P12 O72'
_cell_volume   1536.52883650
_cell_formula_units_Z   6
loop_
 _symmetry_equiv_pos_site_id
 _symmetry_equiv_pos_as_xyz
  1  'x, y, z'
loop_
 _atom_site_type_symbol
 _atom_site_label
 _atom_site_symmetry_multiplicity
 _atom_site_fract_x
 _atom_site_fract_y
 _atom_site_fract_z
 _atom_site_occupancy
  Na  Na0  1  0.63473301  0.00253683  0.25350410  1
  Na  Na1  1  0.36564035  0.36796682  0.25037804  1
  Na  Na2  1  0.00037521  0.62324898  0.25068692  1
  Na  Na3  1  0.63599780  0.63738764  0.74559105  1
  Na  Na4  1  0.99384319  0.36032906  0.74907893  1
  Na  Na5  1  0.37680740  0.00455844  0.74726921  1
  Na  Na6  1  0.29775316  0.33059718  0.58230215  1
  Na  Na7  1  0.04332763  0.70958851  0.58128856  1
  Na  Na8  1  0.66281617  0.96306869  0.58737599  1
  Na  Na9  1  0.29815434  0.96639624  0.08283212  1
  Na  Na10  1  0.67378547  0.69642087  0.08404819  1
  Na  Na11  1  0.02950518  0.33763787  0.08986678  1
  Na  Na12  1  0.97365122  0.67372573  0.92054624  1
  Na  Na13  1  0.69368791  0.03293840  0.91149323  1
  Na  Na14  1  0.33312250  0.29726565  0.91620452  1
  Na  Na15  1  0.96717364  0.30284127  0.41222861  1
  Na  Na16  1  0.32787956  0.02713250  0.41985743  1
  Na  Na17  1  0.70141481  0.66806738  0.41631997  1
  Na  Na18  1  0.00388028  0.99579769  0.49932338  1
  Na  Na19  1  0.00335801  0.99506920  0.00143797  1
  Na  Na20  1  0.66332743  0.32380164  0.83147537  1
  Na  Na21  1  0.67344882  0.33493382  0.33625946  1
  Na  Na22  1  0.32540852  0.66260510  0.16918663  1
  Na  Na23  1  0.33707659  0.67385692  0.66443799  1
  Al  Al0  1  0.99840477  0.99642767  0.35025146  1
  Al  Al1  1  0.00404014  0.99988649  0.64697944  1
  Al  Al2  1  0.00156623  0.00153582  0.15224868  1
  Al  Al3  1  0.66505689  0.32669741  0.68217312  1
  Al  Al4  1  0.66792613  0.33658577  0.48356789  1
  Al  Al5  1  0.31885606  0.65514122  0.31688021  1
  In  In0  1  0.99905013  0.99972274  0.84409912  1
  In  In1  1  0.67127297  0.33295581  0.18776094  1
  In  In2  1  0.66999642  0.33664381  0.98819513  1
  In  In3  1  0.32941829  0.67034751  0.01622953  1
  In  In4  1  0.32966372  0.67270312  0.51504929  1
  In  In5  1  0.33885958  0.67579743  0.81226026  1
  Si  Si0  1  0.00853988  0.28679112  0.25323219  1
  Si  Si1  1  0.71236149  0.01000409  0.74323330  1
  Si  Si2  1  0.37784638  0.05263673  0.58378008  1
  Si  Si3  1  0.96981125  0.64624247  0.08775641  1
  Si  Si4  1  0.33387791  0.97349840  0.91557339  1
  Si  Si5  1  0.03023940  0.66709713  0.41477176  1
  P  P0  1  0.28028182  0.99212588  0.25245765  1
  P  P1  1  0.70911436  0.71945518  0.25256175  1
  P  P2  1  0.30033832  0.29266718  0.74420066  1
  P  P3  1  0.98929385  0.69852632  0.74360903  1
  P  P4  1  0.94704455  0.32637136  0.58360417  1
  P  P5  1  0.67322421  0.61822281  0.58423834  1
  P  P6  1  0.67581886  0.03095314  0.08693637  1
  P  P7  1  0.35818808  0.32499452  0.08713763  1
  P  P8  1  0.63194679  0.66489645  0.91586111  1
  P  P9  1  0.03521337  0.36665938  0.91540663  1
  P  P10  1  0.62946381  0.96002384  0.41353612  1
  P  P11  1  0.33266152  0.37038224  0.41463607  1
  O  O0  1  0.19319583  0.01732179  0.30880476  1
  O  O1  1  0.82460818  0.80465005  0.30829748  1
  O  O2  1  0.98235520  0.16558263  0.31156177  1
  O  O3  1  0.23720728  0.19127176  0.80498231  1
  O  O4  1  0.95544046  0.76261507  0.80498742  1
  O  O5  1  0.81596759  0.04861798  0.80818505  1
  O  O6  1  0.81858492  0.97951361  0.68868822  1
  O  O7  1  0.17609936  0.19390632  0.69134594  1
  O  O8  1  0.02200849  0.82655896  0.69126261  1
  O  O9  1  0.79475264  0.82624615  0.19431085  1
  O  O10  1  0.03355485  0.19719378  0.19192435  1
  O  O11  1  0.17264022  0.96722679  0.19438678  1
  O  O12  1  0.86357095  0.35691737  0.64000368  1
  O  O13  1  0.49712446  0.14347566  0.64268914  1
  O  O14  1  0.65003887  0.50675870  0.64044358  1
  O  O15  1  0.88773239  0.51773042  0.14588827  1
  O  O16  1  0.62832710  0.10701001  0.14182221  1
  O  O17  1  0.47533104  0.35990963  0.14308864  1
  O  O18  1  0.43364523  0.28981305  0.02880291  1
  O  O19  1  0.85152392  0.57110643  0.02588209  1
  O  O20  1  0.70925243  0.14069289  0.02842735  1
  O  O21  1  0.46895086  0.17080876  0.52227430  1
  O  O22  1  0.69775792  0.53458868  0.52583910  1
  O  O23  1  0.83804582  0.30370228  0.52568610  1
  O  O24  1  0.54933898  0.68766149  0.97441144  1
  O  O25  1  0.14393839  0.44410827  0.97350914  1
  O  O26  1  0.29652627  0.85857811  0.97712873  1
  O  O27  1  0.56693022  0.85078346  0.47322672  1
  O  O28  1  0.29232957  0.43908770  0.47403798  1
  O  O29  1  0.14762597  0.72235628  0.47701110  1
  O  O30  1  0.12870026  0.62815110  0.35882457  1
  O  O31  1  0.50292576  0.86399870  0.36026055  1
  O  O32  1  0.36469302  0.49623087  0.36083139  1
  O  O33  1  0.11888948  0.47447559  0.85734337  1
  O  O34  1  0.37084973  0.89376372  0.85431958  1
  O  O35  1  0.52113108  0.63333705  0.85838333  1
  O  O36  1  0.00637457  0.83671886  0.40460145  1
  O  O37  1  0.81330693  0.98586089  0.40547623  1
  O  O38  1  0.17387009  0.18702483  0.40683042  1
  O  O39  1  0.01251801  0.18562240  0.91296606  1
  O  O40  1  0.16038047  0.98857004  0.91175444  1
  O  O41  1  0.80900096  0.82998645  0.91252256  1
  O  O42  1  0.96597399  0.16263983  0.58830602  1
  O  O43  1  0.18016658  0.02789450  0.59029397  1
  O  O44  1  0.83572969  0.80233146  0.58870215  1
  O  O45  1  0.98534350  0.83426265  0.09620138  1
  O  O46  1  0.84133230  0.02178368  0.09540626  1
  O  O47  1  0.17920658  0.16332402  0.09384748  1
  O  O48  1  0.68871420  0.18017777  0.73816565  1
  O  O49  1  0.48527777  0.32293016  0.73727098  1
  O  O50  1  0.82757436  0.51835684  0.73570666  1
  O  O51  1  0.68290005  0.53389318  0.25073559  1
  O  O52  1  0.83386556  0.30633681  0.25324149  1
  O  O53  1  0.46235565  0.15771740  0.24966674  1
  O  O54  1  0.65351484  0.50530072  0.91886149  1
  O  O55  1  0.85812822  0.35573679  0.91967406  1
  O  O56  1  0.50761830  0.16228466  0.92044844  1
  O  O57  1  0.64225168  0.13907212  0.42035767  1
  O  O58  1  0.49889865  0.35723873  0.42018138  1
  O  O59  1  0.83969748  0.48945403  0.42459231  1
  O  O60  1  0.34223784  0.48814204  0.08157910  1
  O  O61  1  0.15952876  0.66223687  0.08453168  1
  O  O62  1  0.52061478  0.84648434  0.08161384  1
  O  O63  1  0.35862215  0.85876594  0.58285162  1
  O  O64  1  0.50811987  0.63491874  0.58117534  1
  O  O65  1  0.13233491  0.48692446  0.58106050  1
  O  O66  1  0.30477272  0.83184164  0.25790383  1
  O  O67  1  0.52761024  0.70330336  0.25854965  1
  O  O68  1  0.18281541  0.48328802  0.25818068  1
  O  O69  1  0.30855354  0.46983902  0.74702820  1
  O  O70  1  0.15128638  0.67810245  0.74583886  1
  O  O71  1  0.52236285  0.83211768  0.74378247  1
loop_
_geom_bond_atom_site_label_1
_geom_bond_atom_site_label_2
_geom_bond_distance
_geom_bond_site_symmetry_2
Na0 O67 2.364317 1_545
Na0 O52 2.402663 1_555
Na0 O53 2.556071 1_555
Na0 O66 2.570088 1_545
Na0 O16 2.635284 1_555
Na0 O31 2.635912 1_545
Na1 O68 2.349625 1_555
Na1 O53 2.446944 1_555
Na1 O51 2.470093 1_555
Na1 O17 2.564764 1_555
Na1 O67 2.618142 1_555
Na1 O32 2.685783 1_555
Na1 O10 2.889018 1_555
Na2 O66 2.427904 1_555
Na2 O52 2.469152 1_455
Na2 O15 2.502254 1_455
Na2 O68 2.525995 1_555
Na2 O51 2.549393 1_455
Na2 O30 2.631576 1_555
Na3 O71 2.431814 1_555
Na3 O50 2.452164 1_555
Na3 O49 2.456424 1_555
Na3 O69 2.548824 1_555
Na3 O14 2.620299 1_555
Na3 O35 2.672120 1_555
Na3 O4 2.827944 1_555
Na3 O6 2.941776 1_555
Na4 O48 2.400168 1_555
Na4 O70 2.475350 1_655
Na4 O69 2.487804 1_655
Na4 O50 2.545662 1_555
Na4 O33 2.610876 1_655
Na4 O12 2.660502 1_555
Na4 O5 2.756618 1_555
Na5 O48 2.441398 1_555
Na5 O71 2.482963 1_545
Na5 O49 2.530773 1_555
Na5 O34 2.541192 1_545
Na5 O13 2.574459 1_555
Na5 O70 2.602276 1_545
Na5 O3 2.847904 1_555
Na6 O43 2.383313 1_555
Na6 O64 2.425937 1_555
Na6 O65 2.508615 1_555
Na6 O28 2.577716 1_555
Na6 O42 2.585276 1_455
Na6 O7 2.658837 1_555
Na6 O21 2.895373 1_555
Na7 O44 2.402363 1_455
Na7 O29 2.450921 1_555
Na7 O63 2.455599 1_555
Na7 O43 2.495096 1_565
Na7 O65 2.502987 1_555
Na7 O8 2.676792 1_555
Na8 O42 2.398313 1_565
Na8 O63 2.409217 1_555
Na8 O64 2.560535 1_555
Na8 O6 2.594829 1_555
Na8 O44 2.601673 1_555
Na8 O27 2.678269 1_555
Na9 O61 2.371923 1_555
Na9 O45 2.461353 1_455
Na9 O47 2.498774 1_565
Na9 O26 2.510916 1_554
Na9 O11 2.693989 1_555
Na9 O62 2.708223 1_555
Na9 O18 2.792289 1_565
Na9 O16 2.889377 1_565
Na10 O62 2.364529 1_555
Na10 O45 2.445847 1_555
Na10 O46 2.546386 1_565
Na10 O60 2.608906 1_555
Na10 O24 2.639998 1_554
Na10 O9 2.671902 1_555
Na10 O19 2.693210 1_555
Na10 O17 2.932983 1_555
Na11 O60 2.440903 1_555
Na11 O46 2.476712 1_455
Na11 O47 2.529912 1_555
Na11 O61 2.547218 1_555
Na11 O10 2.580265 1_555
Na11 O25 2.736874 1_554
Na11 O15 2.797786 1_455
Na11 O20 2.856136 1_455
Na12 O40 2.472417 1_655
Na12 O54 2.493082 1_555
Na12 O55 2.507539 1_555
Na12 O41 2.508327 1_555
Na12 O19 2.523648 1_556
Na12 O4 2.688249 1_555
Na12 O26 2.813847 1_655
Na13 O56 2.479260 1_555
Na13 O39 2.482617 1_655
Na13 O5 2.489418 1_555
Na13 O41 2.512356 1_545
Na13 O55 2.520284 1_555
Na13 O20 2.721414 1_556
Na13 O34 2.819073 1_545
Na14 O40 2.411227 1_545
Na14 O56 2.420854 1_555
Na14 O54 2.530838 1_555
Na14 O39 2.535198 1_555
Na14 O3 2.606399 1_555
Na14 O18 2.644996 1_556
Na14 O25 2.909693 1_555
Na14 O35 2.911377 1_555
Na15 O37 2.473290 1_545
Na15 O59 2.477500 1_555
Na15 O57 2.534657 1_555
Na15 O38 2.549349 1_655
Na15 O2 2.566888 1_555
Na15 O23 2.745538 1_555
Na15 O30 2.789282 1_655
Na15 O28 2.884721 1_655
Na16 O38 2.464173 1_555
Na16 O57 2.481020 1_555
Na16 O36 2.539325 1_545
Na16 O58 2.570895 1_555
Na16 O21 2.588396 1_555
Na16 O29 2.693305 1_545
Na16 O0 2.705324 1_555
Na16 O31 2.941253 1_545
Na17 O36 2.390889 1_655
Na17 O58 2.457647 1_555
Na17 O59 2.483914 1_555
Na17 O37 2.522144 1_555
Na17 O1 2.640983 1_555
Na17 O22 2.678826 1_555
Na17 O27 2.777101 1_555
Na17 O32 2.893122 1_555
Na18 O43 2.477478 1_565
Na18 O36 2.529793 1_555
Na18 O44 2.550960 1_455
Na18 O42 2.586702 1_465
Na18 O38 2.600350 1_565
Na18 O37 2.655158 1_455
Na19 O40 2.436688 1_554
Na19 O45 2.491004 1_455
Na19 O41 2.545963 1_454
Na19 O47 2.553373 1_565
Na19 O39 2.563527 1_564
Na19 O46 2.601348 1_465
Na20 O56 2.414216 1_555
Na20 O48 2.491257 1_555
Na20 O55 2.531695 1_555
Na20 O54 2.548404 1_555
Na20 O49 2.615468 1_555
Na20 O50 2.655565 1_555
Na21 O52 2.413251 1_555
Na21 O59 2.419746 1_555
Na21 O57 2.467869 1_555
Na21 O58 2.489139 1_555
Na21 O51 2.565050 1_555
Na21 O53 2.596161 1_555
Na22 O61 2.384282 1_555
Na22 O68 2.443792 1_555
Na22 O60 2.533459 1_555
Na22 O66 2.534446 1_555
Na22 O62 2.565346 1_555
Na22 O67 2.576077 1_555
Na23 O71 2.339041 1_555
Na23 O63 2.384250 1_555
Na23 O70 2.455939 1_555
Na23 O69 2.498905 1_555
Na23 O64 2.520359 1_555
Na23 O65 2.545297 1_555
Al0 O2 1.810933 1_565
Al0 O1 1.889947 1_555
Al0 O0 1.895660 1_665
Al0 O36 1.896345 1_655
Al0 O37 2.019810 1_555
Al0 O38 2.066294 1_665
Al1 O6 1.827311 1_455
Al1 O8 1.912184 1_555
Al1 O7 1.920844 1_565
Al1 O43 1.925920 1_565
Al1 O44 2.097298 1_455
Al1 O42 2.103403 1_465
Al2 O10 1.853115 1_555
Al2 O45 1.892036 1_445
Al2 O11 1.949803 1_545
Al2 O9 1.961929 1_445
Al2 O46 1.984522 1_455
Al2 O47 1.992745 1_555
Al3 O13 1.805637 1_555
Al3 O48 1.890860 1_555
Al3 O12 1.903367 1_555
Al3 O14 1.924088 1_555
Al3 O50 1.992990 1_555
Al3 O49 2.003019 1_555
Al4 O21 1.861398 1_555
Al4 O22 1.904976 1_555
Al4 O23 1.935054 1_555
Al4 O59 1.952417 1_555
Al4 O58 2.138750 1_555
Al4 O57 2.173876 1_555
Al5 O30 1.845707 1_555
Al5 O68 1.912637 1_555
Al5 O32 1.933392 1_555
Al5 O31 2.016867 1_555
Al5 O66 2.102701 1_555
Al5 O67 2.126667 1_555
In0 O5 2.063951 1_565
In0 O40 2.115688 1_655
In0 O3 2.141206 1_665
In0 O4 2.146081 1_555
In0 O41 2.208396 1_555
In0 O39 2.212163 1_665
In1 O15 2.035729 1_555
In1 O16 2.124577 1_555
In1 O17 2.136229 1_555
In1 O52 2.149922 1_555
In1 O53 2.208592 1_555
In1 O51 2.236195 1_555
In2 O19 2.086715 1_556
In2 O56 2.125474 1_555
In2 O18 2.140764 1_556
In2 O20 2.153886 1_556
In2 O55 2.201817 1_555
In2 O54 2.205857 1_555
In3 O26 2.048546 1_554
In3 O25 2.099859 1_554
In3 O24 2.112040 1_554
In3 O61 2.112338 1_555
In3 O62 2.192562 1_555
In3 O60 2.224304 1_555
In4 O29 2.078000 1_555
In4 O27 2.127279 1_555
In4 O28 2.153104 1_555
In4 O63 2.156081 1_555
In4 O65 2.248056 1_555
In4 O64 2.314356 1_555
In5 O34 2.053589 1_555
In5 O35 2.120101 1_555
In5 O33 2.137975 1_555
In5 O71 2.149172 1_555
In5 O70 2.240177 1_555
In5 O69 2.247883 1_555
O0 P0 1.538198 1_545
O1 P1 1.539516 1_555
O2 Si0 1.619697 1_655
O3 P2 1.552241 1_555
O4 P3 1.553174 1_555
O5 Si1 1.643709 1_555
O6 Si1 1.636146 1_565
O7 P2 1.547306 1_555
O8 P3 1.546304 1_455
O9 P1 1.549985 1_555
O10 Si0 1.640112 1_555
O11 P0 1.549037 1_555
O12 P4 1.540216 1_555
O13 Si2 1.617820 1_555
O14 P5 1.535841 1_555
O15 Si3 1.627197 1_555
O16 P6 1.546358 1_555
O17 P7 1.546094 1_555
O18 P7 1.552268 1_555
O19 Si3 1.648620 1_555
O20 P6 1.553491 1_555
O21 Si2 1.656316 1_555
O22 P5 1.556131 1_555
O23 P4 1.556675 1_555
O24 P8 1.546467 1_555
O25 P9 1.545955 1_555
O26 Si4 1.629443 1_555
O27 P10 1.561778 1_555
O28 P11 1.560287 1_555
O29 Si5 1.645457 1_555
O30 Si5 1.648993 1_555
O31 P10 1.558523 1_555
O32 P11 1.558792 1_555
O33 P9 1.546954 1_555
O34 Si4 1.633431 1_555
O35 P8 1.544959 1_555
O36 Si5 1.659754 1_555
O37 P10 1.559811 1_555
O38 P11 1.558960 1_555
O39 P9 1.537987 1_555
O40 Si4 1.635228 1_555
O41 P8 1.541430 1_555
O42 P4 1.569198 1_555
O43 Si2 1.683324 1_555
O44 P5 1.569656 1_555
O45 Si3 1.637058 1_555
O46 P6 1.543562 1_555
O47 P7 1.542906 1_555
O48 Si1 1.652168 1_555
O49 P2 1.552143 1_555
O50 P3 1.552893 1_555
O51 P1 1.565589 1_555
O52 Si0 1.666384 1_655
O53 P0 1.568151 1_545
O54 P8 1.544095 1_555
O55 P9 1.548563 1_655
O56 Si4 1.636725 1_545
O57 P10 1.564026 1_545
O58 P11 1.563052 1_555
O59 Si5 1.670465 1_655
O60 P7 1.549966 1_555
O61 Si3 1.640462 1_455
O62 P6 1.547771 1_565
O63 Si2 1.664868 1_565
O64 P5 1.567492 1_555
O65 P4 1.566388 1_455
O66 P0 1.569140 1_555
O67 P1 1.570007 1_555
O68 Si0 1.678578 1_555
O69 P2 1.559923 1_555
O70 P3 1.558335 1_455
O71 Si1 1.655409 1_565
