# generated using pymatgen
data_Pt(PbO2)2
_symmetry_space_group_name_H-M   'P 1'
_cell_length_a   6.33741981
_cell_length_b   7.97211251
_cell_length_c   9.14450499
_cell_angle_alpha   90.00000000
_cell_angle_beta   90.00000000
_cell_angle_gamma   90.00000000
_symmetry_Int_Tables_number   1
_chemical_formula_structural   Pt(PbO2)2
_chemical_formula_sum   'Pt4 Pb8 O16'
_cell_volume   462.00438498
_cell_formula_units_Z   4
loop_
 _symmetry_equiv_pos_site_id
 _symmetry_equiv_pos_as_xyz
  1  'x, y, z'
loop_
 _atom_site_type_symbol
 _atom_site_label
 _atom_site_symmetry_multiplicity
 _atom_site_fract_x
 _atom_site_fract_y
 _atom_site_fract_z
 _atom_site_occupancy
  Pt  Pt0  1  0.74895760  0.50000000  0.50000000  1
  Pt  Pt1  1  0.25104240  0.00000000  0.00000000  1
  Pt  Pt2  1  0.25104240  0.50000000  0.50000000  1
  Pt  Pt3  1  0.74895760  0.00000000  0.00000000  1
  Pb  Pb0  1  0.50000000  0.13907176  0.65614683  1
  Pb  Pb1  1  0.50000000  0.86092824  0.34385317  1
  Pb  Pb2  1  0.50000000  0.63907176  0.84385317  1
  Pb  Pb3  1  0.50000000  0.36092824  0.15614683  1
  Pb  Pb4  1  0.00000000  0.60893376  0.17323362  1
  Pb  Pb5  1  0.00000000  0.39106624  0.82676638  1
  Pb  Pb6  1  0.00000000  0.10893376  0.32676638  1
  Pb  Pb7  1  0.00000000  0.89106624  0.67323362  1
  O  O0  1  0.00000000  0.60797161  0.60382433  1
  O  O1  1  0.00000000  0.39202839  0.39617567  1
  O  O2  1  0.00000000  0.10797161  0.89617567  1
  O  O3  1  0.00000000  0.89202839  0.10382433  1
  O  O4  1  0.50000000  0.62646467  0.58891512  1
  O  O5  1  0.50000000  0.37353533  0.41108488  1
  O  O6  1  0.50000000  0.12646467  0.91108488  1
  O  O7  1  0.50000000  0.87353533  0.08891512  1
  O  O8  1  0.74980188  0.33274011  0.66633119  1
  O  O9  1  0.74980188  0.66725989  0.33366881  1
  O  O10  1  0.25019812  0.83274011  0.83366881  1
  O  O11  1  0.25019812  0.16725989  0.16633119  1
  O  O12  1  0.74980188  0.83274011  0.83366881  1
  O  O13  1  0.74980188  0.16725989  0.16633119  1
  O  O14  1  0.25019812  0.33274011  0.66633119  1
  O  O15  1  0.25019812  0.66725989  0.33366881  1
loop_
_geom_bond_atom_site_label_1
_geom_bond_atom_site_label_2
_geom_bond_distance
_geom_bond_site_symmetry_2
O0 Pt2 2.042907 1_555
O0 Pt0 2.042907 1_455
O0 Pb7 2.344416 1_555
O0 Pb5 2.673273 1_555
O1 Pt2 2.042907 1_555
O1 Pt0 2.042907 1_455
O1 Pb6 2.344416 1_555
O1 Pb4 2.673273 1_555
O2 Pt1 2.042907 1_556
O2 Pt3 2.042907 1_456
O2 Pb5 2.344416 1_555
O2 Pb7 2.673273 1_545
O3 Pt1 2.042907 1_565
O3 Pt3 2.042907 1_465
O3 Pb4 2.344416 1_555
O3 Pb6 2.673273 1_565
O4 Pt2 2.041285 1_555
O4 Pt0 2.041285 1_555
O4 Pb2 2.333448 1_555
O5 Pt2 2.041285 1_555
O5 Pt0 2.041285 1_555
O5 Pb3 2.333448 1_555
O6 Pt3 2.041285 1_556
O6 Pt1 2.041285 1_556
O6 Pb0 2.333448 1_555
O7 Pt3 2.041285 1_565
O7 Pt1 2.041285 1_565
O7 Pb1 2.333448 1_555
O8 Pt0 2.022749 1_555
O8 Pb5 2.209695 1_655
O8 Pb0 2.213288 1_555
O9 Pt0 2.022749 1_555
O9 Pb4 2.209695 1_655
O9 Pb1 2.213288 1_555
O10 Pt1 2.022749 1_566
O10 Pb7 2.209695 1_555
O10 Pb2 2.213288 1_555
O11 Pt1 2.022749 1_555
O11 Pb6 2.209695 1_555
O11 Pb3 2.213288 1_555
O12 Pt3 2.022749 1_566
O12 Pb7 2.209695 1_655
O12 Pb2 2.213288 1_555
O13 Pt3 2.022749 1_555
O13 Pb6 2.209695 1_655
O13 Pb3 2.213288 1_555
O14 Pt2 2.022749 1_555
O14 Pb5 2.209695 1_555
O14 Pb0 2.213288 1_555
O15 Pt2 2.022749 1_555
O15 Pb4 2.209695 1_555
O15 Pb1 2.213288 1_555
