# generated using pymatgen
data_MgCu6OF11
_symmetry_space_group_name_H-M   'P 1'
_cell_length_a   5.57238002
_cell_length_b   4.73793170
_cell_length_c   8.92422216
_cell_angle_alpha   89.36897476
_cell_angle_beta   89.09922547
_cell_angle_gamma   94.88944307
_symmetry_Int_Tables_number   1
_chemical_formula_structural   MgCu6OF11
_chemical_formula_sum   'Mg1 Cu6 O1 F11'
_cell_volume   234.70890041
_cell_formula_units_Z   1
loop_
 _symmetry_equiv_pos_site_id
 _symmetry_equiv_pos_as_xyz
  1  'x, y, z'
loop_
 _atom_site_type_symbol
 _atom_site_label
 _atom_site_symmetry_multiplicity
 _atom_site_fract_x
 _atom_site_fract_y
 _atom_site_fract_z
 _atom_site_occupancy
  Mg  Mg0  1  0.01787700  0.66923400  0.75873600  1
  Cu  Cu0  1  0.00600800  0.02639000  0.02657200  1
  Cu  Cu1  1  0.51027700  0.56656100  0.05115700  1
  Cu  Cu2  1  0.35918400  0.97540600  0.30419500  1
  Cu  Cu3  1  0.81107600  0.51638700  0.32894100  1
  Cu  Cu4  1  0.27622700  0.32521000  0.57562000  1
  Cu  Cu5  1  0.63042100  0.01873500  0.68098800  1
  O  O0  1  0.56597600  0.70939400  0.24338200  1
  F  F0  1  0.28068200  0.24472400  0.10601100  1
  F  F1  1  0.05653900  0.77947800  0.24494600  1
  F  F2  1  0.78989400  0.29072000  0.08483400  1
  F  F3  1  0.07878900  0.29245300  0.40349800  1
  F  F4  1  0.57206700  0.23402100  0.42837500  1
  F  F5  1  0.29593800  0.79321700  0.62260900  1
  F  F6  1  0.80493600  0.73655800  0.59278500  1
  F  F7  1  0.46385400  0.31704200  0.75820200  1
  F  F8  1  0.22098800  0.76077900  0.93194800  1
  F  F9  1  0.97255200  0.25474700  0.72802500  1
  F  F10  1  0.76171500  0.79449900  0.90261300  1
loop_
_geom_bond_atom_site_label_1
_geom_bond_atom_site_label_2
_geom_bond_distance
_geom_bond_site_symmetry_2
Cu0 F2 1.881704 1_455
Cu0 F0 1.922431 1_555
Cu0 F8 1.995107 1_544
Cu0 F10 2.025624 1_444
Cu0 F1 2.295413 1_545
Cu1 O0 1.871792 1_555
Cu1 F0 1.957787 1_555
Cu1 F10 2.130459 1_554
Cu1 F2 2.139937 1_555
Cu1 F8 2.205081 1_554
Cu2 O0 1.858449 1_555
Cu2 F1 1.938404 1_555
Cu2 F4 1.990020 1_565
Cu2 F0 2.239957 1_565
Cu2 F3 2.422599 1_565
Cu3 O0 1.874814 1_555
Cu3 F1 1.908695 1_655
Cu3 F4 1.995995 1_555
Cu3 F3 2.019735 1_655
Cu3 F2 2.437354 1_555
Cu3 F6 2.586726 1_555
Cu4 F3 1.903489 1_555
Cu4 F7 1.951577 1_555
Cu4 F9 2.155496 1_455
Cu4 F4 2.167223 1_555
Cu4 F5 2.255021 1_555
Cu4 F5 2.562504 1_545
Cu5 F7 1.886500 1_555
Cu5 F6 1.890348 1_545
Cu5 F5 2.142522 1_545
Cu5 F9 2.175631 1_555
Cu5 F10 2.389042 1_545
Cu5 F4 2.501460 1_555
F5 Mg0 1.997910 1_555
F6 Mg0 1.952541 1_655
F8 Mg0 1.960780 1_555
F9 Mg0 1.981146 1_655
F10 Mg0 2.035192 1_655
