# generated using pymatgen
data_La3SbI3
_symmetry_space_group_name_H-M   'P 1'
_cell_length_a   11.21495927
_cell_length_b   11.21478668
_cell_length_c   11.21494768
_cell_angle_alpha   109.46947406
_cell_angle_beta   109.46893367
_cell_angle_gamma   109.47305960
_symmetry_Int_Tables_number   1
_chemical_formula_structural   La3SbI3
_chemical_formula_sum   'La12 Sb4 I12'
_cell_volume   1085.86501311
_cell_formula_units_Z   4
loop_
 _symmetry_equiv_pos_site_id
 _symmetry_equiv_pos_as_xyz
  1  'x, y, z'
loop_
 _atom_site_type_symbol
 _atom_site_label
 _atom_site_symmetry_multiplicity
 _atom_site_fract_x
 _atom_site_fract_y
 _atom_site_fract_z
 _atom_site_occupancy
  La  La0  1  0.25970051  0.00976104  0.01940900  1
  La  La1  1  0.01945310  0.25968304  0.00974169  1
  La  La2  1  0.49025100  0.74996023  0.00970418  1
  La  La3  1  0.75001085  0.24020763  0.25982524  1
  La  La4  1  0.00976848  0.01950262  0.25976310  1
  La  La5  1  0.00972870  0.49028467  0.75001982  1
  La  La6  1  0.24035046  0.25982370  0.74999625  1
  La  La7  1  0.25977801  0.75009688  0.24031651  1
  La  La8  1  0.24031771  0.48056756  0.49028586  1
  La  La9  1  0.48054638  0.49027420  0.24025715  1
  La  La10  1  0.74992275  0.00963973  0.49027554  1
  La  La11  1  0.49015846  0.24013638  0.48026775  1
  Sb  Sb0  1  0.00002811  0.24996903  0.50004385  1
  Sb  Sb1  1  0.25000861  0.49998789  0.00002748  1
  Sb  Sb2  1  0.49998005  -0.00005078  0.24992871  1
  Sb  Sb3  1  0.25005477  0.24997589  0.25001288  1
  I  I0  1  0.75757531  0.74238383  0.24998186  1
  I  I1  1  0.50762097  0.25003282  0.99240662  1
  I  I2  1  0.25009791  0.99240782  0.50749376  1
  I  I3  1  0.51517522  0.50756888  0.75756236  1
  I  I4  1  0.99239675  0.98480212  0.74237418  1
  I  I5  1  0.74236276  0.99242007  0.98484178  1
  I  I6  1  0.50745602  0.75756973  0.51515029  1
  I  I7  1  0.75746893  0.51520253  0.50761913  1
  I  I8  1  0.99236495  0.50754746  0.24993786  1
  I  I9  1  0.98497259  0.74258579  0.99267667  1
  I  I10  1  0.25001243  0.75762307  0.74243027  1
  I  I11  1  0.74244122  0.25003718  0.75765119  1
loop_
_geom_bond_atom_site_label_1
_geom_bond_atom_site_label_2
_geom_bond_distance
_geom_bond_site_symmetry_2
La0 Sb3 3.113523 1_555
La0 Sb2 3.114599 1_555
La1 Sb1 3.114153 1_555
La1 Sb3 3.114346 1_555
La2 Sb2 3.113720 1_565
La2 Sb1 3.113908 1_555
La3 Sb2 3.113040 1_555
La3 Sb0 3.113720 1_655
La4 Sb0 3.113753 1_555
La4 Sb3 3.113763 1_555
La5 Sb0 3.114377 1_555
La5 Sb1 3.114397 1_556
La6 Sb0 3.113349 1_555
La6 Sb1 3.114073 1_556
La7 Sb2 3.113250 1_565
La7 Sb1 3.114678 1_555
La8 Sb3 3.114456 1_555
La8 Sb0 3.114615 1_555
La9 Sb1 3.113714 1_555
La9 Sb3 3.113992 1_555
La10 Sb2 3.114454 1_555
La10 Sb0 3.114777 1_655
La11 Sb3 3.111957 1_555
La11 Sb2 3.112876 1_555
I0 La2 3.345749 1_555
I0 La10 3.345809 1_565
I0 La9 3.371997 1_555
I0 La4 3.372762 1_665
I1 La0 3.345641 1_556
I1 La9 3.345646 1_556
I1 La6 3.372534 1_555
I1 La3 3.373692 1_556
I2 La11 3.344636 1_565
I2 La4 3.345588 1_565
I2 La7 3.370507 1_555
I2 La6 3.373759 1_565
I3 La6 3.344459 1_555
I3 La8 3.345439 1_555
I3 La2 3.372421 1_556
I3 La11 3.374155 1_555
I4 La1 3.345795 1_666
I4 La6 3.346709 1_665
I4 La0 3.372001 1_666
I4 La10 3.372075 1_565
I5 La3 3.345468 1_566
I5 La4 3.346204 1_666
I5 La2 3.372062 1_556
I5 La1 3.372268 1_666
I6 La7 3.344910 1_555
I6 La9 3.346275 1_555
I6 La8 3.371107 1_555
I6 La10 3.371909 1_565
I7 La11 3.344820 1_555
I7 La3 3.346768 1_555
I7 La9 3.371790 1_555
I7 La5 3.373268 1_655
I8 La1 3.345550 1_655
I8 La8 3.346361 1_655
I8 La7 3.373029 1_655
I8 La3 3.373146 1_555
I9 La7 3.344247 1_656
I9 La0 3.345304 1_666
I9 La4 3.370758 1_666
I9 La5 3.373947 1_655
I10 La2 3.345737 1_556
I10 La5 3.345776 1_555
I10 La0 3.372181 1_566
I10 La8 3.372713 1_555
I11 La5 3.345489 1_655
I11 La10 3.346133 1_555
I11 La1 3.372447 1_656
I11 La11 3.374615 1_555
