# generated using pymatgen
data_MgTa2(FeO4)2
_symmetry_space_group_name_H-M   'P 1'
_cell_length_a   5.11899908
_cell_length_b   5.02253964
_cell_length_c   5.97512600
_cell_angle_alpha   89.99999933
_cell_angle_beta   90.00000958
_cell_angle_gamma   91.21528394
_symmetry_Int_Tables_number   1
_chemical_formula_structural   MgTa2(FeO4)2
_chemical_formula_sum   'Mg1 Ta2 Fe2 O8'
_cell_volume   153.58817920
_cell_formula_units_Z   1
loop_
 _symmetry_equiv_pos_site_id
 _symmetry_equiv_pos_as_xyz
  1  'x, y, z'
loop_
 _atom_site_type_symbol
 _atom_site_label
 _atom_site_symmetry_multiplicity
 _atom_site_fract_x
 _atom_site_fract_y
 _atom_site_fract_z
 _atom_site_occupancy
  Mg  Mg0  1  0.50000000  0.25000000  0.07867400  1
  Ta  Ta0  1  0.00000000  0.75000000  0.82608700  1
  Ta  Ta1  1  0.00000000  0.25000000  0.18768500  1
  Fe  Fe0  1  0.49999800  0.75000000  0.36723300  1
  Fe  Fe1  1  0.50000200  0.25000000  0.63346200  1
  O  O0  1  0.25049900  0.91048600  0.63150000  1
  O  O1  1  0.21470600  0.43169400  0.90400100  1
  O  O2  1  0.27744900  0.39991900  0.35955000  1
  O  O3  1  0.22174700  0.94375100  0.11195000  1
  O  O4  1  0.78529300  0.06830600  0.90400100  1
  O  O5  1  0.74950100  0.58951400  0.63150000  1
  O  O6  1  0.77825400  0.55624900  0.11195000  1
  O  O7  1  0.72255100  0.10008100  0.35955000  1
loop_
_geom_bond_atom_site_label_1
_geom_bond_atom_site_label_2
_geom_bond_distance
_geom_bond_site_symmetry_2
Mg0 O4 2.027662 1_554
Mg0 O1 2.027666 1_554
Mg0 O3 2.083590 1_545
Mg0 O6 2.083593 1_555
Mg0 O7 2.172052 1_555
Mg0 O2 2.172052 1_555
Fe0 O2 2.075231 1_555
Fe0 O7 2.075242 1_565
Fe0 O0 2.194975 1_555
Fe0 O5 2.194987 1_555
Fe0 O3 2.315441 1_555
Fe0 O6 2.315458 1_555
Fe1 O5 2.108730 1_555
Fe1 O0 2.108742 1_545
Fe1 O7 2.140058 1_555
Fe1 O2 2.140069 1_555
Fe1 O4 2.373852 1_555
Fe1 O1 2.373868 1_555
O0 Ta0 1.897894 1_555
O1 Ta0 2.013728 1_555
O1 Ta1 2.207124 1_556
O2 Ta1 1.895601 1_555
O3 Ta1 1.983241 1_565
O3 Ta0 2.259670 1_554
O4 Ta0 2.013731 1_645
O4 Ta1 2.207126 1_656
O5 Ta0 1.897894 1_655
O6 Ta1 1.983238 1_655
O6 Ta0 2.259668 1_654
O7 Ta1 1.895601 1_655
