# generated using pymatgen
data_MgFe4(PO3)12
_symmetry_space_group_name_H-M   'P 1'
_cell_length_a   8.56529606
_cell_length_b   8.64361400
_cell_length_c   8.75858962
_cell_angle_alpha   91.13512842
_cell_angle_beta   90.60824851
_cell_angle_gamma   91.38867080
_symmetry_Int_Tables_number   1
_chemical_formula_structural   MgFe4(PO3)12
_chemical_formula_sum   'Mg1 Fe4 P12 O36'
_cell_volume   648.08557002
_cell_formula_units_Z   1
loop_
 _symmetry_equiv_pos_site_id
 _symmetry_equiv_pos_as_xyz
  1  'x, y, z'
loop_
 _atom_site_type_symbol
 _atom_site_label
 _atom_site_symmetry_multiplicity
 _atom_site_fract_x
 _atom_site_fract_y
 _atom_site_fract_z
 _atom_site_occupancy
  Mg  Mg0  1  0.65196900  0.62809000  0.61104700  1
  Fe  Fe0  1  0.88236100  0.65153200  0.33746400  1
  Fe  Fe1  1  0.62787100  0.34894300  0.85266200  1
  Fe  Fe2  1  0.36118700  0.86653700  0.65742500  1
  Fe  Fe3  1  0.12872200  0.14007800  0.14807300  1
  P  P0  1  0.68582900  0.97407800  0.80660900  1
  P  P1  1  0.70263400  0.32048000  0.43271400  1
  P  P2  1  0.80266400  0.69584400  0.94396400  1
  P  P3  1  0.81790500  0.02060400  0.32595100  1
  P  P4  1  0.03257700  0.68108200  0.69291300  1
  P  P5  1  0.18853800  0.51156300  0.19390000  1
  P  P6  1  0.20485100  0.18822500  0.55113000  1
  P  P7  1  0.29822600  0.80302100  0.05528700  1
  P  P8  1  0.31261300  0.48351900  0.69111100  1
  P  P9  1  0.46437600  0.32018500  0.18482300  1
  P  P10  1  0.52991400  0.82609500  0.32188500  1
  P  P11  1  0.96425900  0.17294800  0.80541400  1
  O  O0  1  0.62639700  0.69487200  0.38228100  1
  O  O1  1  0.96805000  0.72488100  0.85768500  1
  O  O2  1  0.89561000  0.88889700  0.40067800  1
  O  O3  1  0.89613400  0.63562300  0.59052400  1
  O  O4  1  0.04858900  0.20980900  0.64695600  1
  O  O5  1  0.10280300  0.37130300  0.12688100  1
  O  O6  1  0.08096400  0.11825000  0.92049100  1
  O  O7  1  0.11932200  0.59827900  0.32479800  1
  O  O8  1  0.13813900  0.81056600  0.63970800  1
  O  O9  1  0.13807300  0.53509200  0.73052900  1
  O  O10  1  0.16190100  0.15146300  0.38891200  1
  O  O11  1  0.18964600  0.91313700  0.13215600  1
  O  O12  1  0.22440500  0.62981200  0.05556100  1
  O  O13  1  0.27886600  0.36235400  0.55283100  1
  O  O14  1  0.31377500  0.08668600  0.63972800  1
  O  O15  1  0.34941400  0.83148800  0.89376600  1
  O  O16  1  0.36194900  0.46395600  0.24385500  1
  O  O17  1  0.35735900  0.18686400  0.13503000  1
  O  O18  1  0.38590700  0.40590800  0.82275200  1
  O  O19  1  0.40662000  0.88093600  0.43034100  1
  O  O20  1  0.40351700  0.62271500  0.62766700  1
  O  O21  1  0.45458700  0.78107700  0.15903100  1
  O  O22  1  0.54221800  0.27358100  0.34434700  1
  O  O23  1  0.86420300  0.30629100  0.84452200  1
  O  O24  1  0.58799900  0.37538400  0.08024800  1
  O  O25  1  0.60812700  0.86796900  0.68252800  1
  O  O26  1  0.89931200  0.09714500  0.19432200  1
  O  O27  1  0.64406500  0.96500400  0.26799200  1
  O  O28  1  0.65498900  0.38463600  0.58789800  1
  O  O29  1  0.69710900  0.59514800  0.84130300  1
  O  O30  1  0.73175600  0.86724900  0.94713900  1
  O  O31  1  0.77325100  0.15033100  0.45424400  1
  O  O32  1  0.81067100  0.41953200  0.34282400  1
  O  O33  1  0.83716900  0.65474000  0.10278100  1
  O  O34  1  0.85491100  0.02531000  0.74578100  1
  O  O35  1  0.59194500  0.10588200  0.85890600  1
loop_
_geom_bond_atom_site_label_1
_geom_bond_atom_site_label_2
_geom_bond_distance
_geom_bond_site_symmetry_2
Mg0 O29 2.075873 1_555
Mg0 O3 2.100505 1_555
Mg0 O0 2.106774 1_555
Mg0 O28 2.110876 1_555
Mg0 O20 2.134025 1_555
Mg0 O25 2.196214 1_555
Fe0 O32 2.084519 1_555
Fe0 O33 2.088429 1_555
Fe0 O7 2.095630 1_655
Fe0 O2 2.114529 1_555
Fe0 O3 2.225485 1_555
Fe0 O0 2.270093 1_555
Fe1 O24 2.035295 1_556
Fe1 O23 2.068041 1_555
Fe1 O35 2.117816 1_555
Fe1 O18 2.156233 1_555
Fe1 O29 2.199746 1_555
Fe1 O28 2.358604 1_555
Fe2 O8 1.963153 1_555
Fe2 O14 1.964105 1_565
Fe2 O19 2.036341 1_555
Fe2 O15 2.101119 1_555
Fe2 O25 2.123900 1_555
Fe2 O20 2.158295 1_555
Fe3 O17 1.994967 1_555
Fe3 O5 2.028188 1_555
Fe3 O6 2.034751 1_554
Fe3 O26 2.037252 1_455
Fe3 O11 2.044481 1_545
Fe3 O10 2.125500 1_555
O0 P10 1.519604 1_555
O1 P4 1.592785 1_655
O1 P2 1.629036 1_555
O2 P3 1.491429 1_565
O3 P4 1.505305 1_655
O4 P6 1.600118 1_555
O4 P11 1.605327 1_455
O5 P5 1.507688 1_555
O6 P11 1.503010 1_455
O7 P5 1.493194 1_555
O8 P4 1.505945 1_555
O9 P4 1.607112 1_555
O9 P8 1.609366 1_555
O10 P6 1.490077 1_555
O11 P7 1.501650 1_555
O12 P7 1.611075 1_555
O12 P5 1.627551 1_555
O13 P8 1.604646 1_555
O13 P6 1.618681 1_555
O14 P6 1.514657 1_555
O15 P7 1.508599 1_556
O16 P5 1.609314 1_555
O16 P9 1.618127 1_555
O17 P9 1.509564 1_555
O18 P8 1.486343 1_555
O19 P10 1.506656 1_555
O20 P8 1.533911 1_555
O21 P10 1.596412 1_555
O21 P7 1.627450 1_555
O22 P9 1.604535 1_555
O22 P1 1.609117 1_555
O23 P11 1.489519 1_555
O24 P9 1.483640 1_555
O25 P0 1.542978 1_555
O26 P3 1.509293 1_555
O27 P10 1.611135 1_555
O27 P3 1.626455 1_565
O28 P1 1.521296 1_555
O29 P2 1.515606 1_555
O30 P0 1.604596 1_555
O30 P2 1.614621 1_555
O31 P1 1.617423 1_555
O31 P3 1.626726 1_555
O32 P1 1.487603 1_555
O33 P2 1.471202 1_554
O34 P0 1.603738 1_545
O34 P11 1.638227 1_555
O35 P0 1.478487 1_545
