# generated using pymatgen
data_Na3Nb10Zn2Si3(P5O24)3
_symmetry_space_group_name_H-M   'P 1'
_cell_length_a   8.80993411
_cell_length_b   8.80855901
_cell_length_c   22.79503288
_cell_angle_alpha   89.88628083
_cell_angle_beta   90.00185581
_cell_angle_gamma   120.00468015
_symmetry_Int_Tables_number   1
_chemical_formula_structural   Na3Nb10Zn2Si3(P5O24)3
_chemical_formula_sum   'Na3 Nb10 Zn2 Si3 P15 O72'
_cell_volume   1531.88716482
_cell_formula_units_Z   1
loop_
 _symmetry_equiv_pos_site_id
 _symmetry_equiv_pos_as_xyz
  1  'x, y, z'
loop_
 _atom_site_type_symbol
 _atom_site_label
 _atom_site_symmetry_multiplicity
 _atom_site_fract_x
 _atom_site_fract_y
 _atom_site_fract_z
 _atom_site_occupancy
  Na  Na0  1  0.00081149  0.00098014  0.00186395  1
  Na  Na1  1  0.66665958  0.33350221  0.84061796  1
  Na  Na2  1  0.66672154  0.33333282  0.34162249  1
  Nb  Nb0  1  0.99375571  0.99793821  0.35995789  1
  Nb  Nb1  1  0.99824727  0.99532781  0.85652682  1
  Nb  Nb2  1  0.00166990  0.99657010  0.64186767  1
  Nb  Nb3  1  0.99759220  0.00141597  0.14727346  1
  Nb  Nb4  1  0.66895231  0.33537075  0.68589866  1
  Nb  Nb5  1  0.66840917  0.33539457  0.18865964  1
  Nb  Nb6  1  0.33326883  0.66572887  0.02535309  1
  Nb  Nb7  1  0.33194765  0.66627756  0.52200749  1
  Nb  Nb8  1  0.33270698  0.66453497  0.30918805  1
  Nb  Nb9  1  0.33123900  0.66594176  0.80993094  1
  Zn  Zn0  1  0.66703935  0.33350432  0.98067314  1
  Zn  Zn1  1  0.66693692  0.33373735  0.47945471  1
  Si  Si0  1  0.71554164  0.71440065  0.25172520  1
  Si  Si1  1  0.99811930  0.28385929  0.25145098  1
  Si  Si2  1  0.99721635  0.71192472  0.74971927  1
  P  P0  1  0.28423720  0.00141600  0.25129618  1
  P  P1  1  0.28535878  0.28330401  0.74990751  1
  P  P2  1  0.71620285  0.00132396  0.74997768  1
  P  P3  1  0.95237544  0.33272416  0.58106330  1
  P  P4  1  0.38308063  0.04856330  0.58105207  1
  P  P5  1  0.66543105  0.61875998  0.58088853  1
  P  P6  1  0.95048805  0.62117728  0.08097296  1
  P  P7  1  0.66998132  0.05023064  0.08100461  1
  P  P8  1  0.37981861  0.32847312  0.08087659  1
  P  P9  1  0.61729095  0.66212823  0.91683679  1
  P  P10  1  0.04457889  0.38113196  0.91689850  1
  P  P11  1  0.33833752  0.95555767  0.91681271  1
  P  P12  1  0.61605764  0.95628515  0.41648868  1
  P  P13  1  0.33813903  0.38150865  0.41641345  1
  P  P14  1  0.04402609  0.66247878  0.41617702  1
  O  O0  1  0.20311811  0.03537890  0.30539996  1
  O  O1  1  0.84043952  0.80320472  0.30830850  1
  O  O2  1  0.96711908  0.16024061  0.30804422  1
  O  O3  1  0.19846028  0.16855132  0.80502365  1
  O  O4  1  0.96800369  0.80629200  0.80736323  1
  O  O5  1  0.83187253  0.03322330  0.80518132  1
  O  O6  1  0.80091089  0.97383849  0.69559977  1
  O  O7  1  0.17212355  0.20173012  0.69542137  1
  O  O8  1  0.02669737  0.83496036  0.69323540  1
  O  O9  1  0.80655708  0.83226288  0.19305538  1
  O  O10  1  0.03043507  0.19681574  0.19282054  1
  O  O11  1  0.17307308  0.97231827  0.19537604  1
  O  O12  1  0.86503832  0.36299499  0.63762734  1
  O  O13  1  0.49583870  0.13315247  0.63780029  1
  O  O14  1  0.63725768  0.50307490  0.63763970  1
  O  O15  1  0.86668546  0.50606287  0.13711423  1
  O  O16  1  0.63927158  0.13149104  0.13702773  1
  O  O17  1  0.49250158  0.35989322  0.13699374  1
  O  O18  1  0.45243479  0.29545546  0.02631760  1
  O  O19  1  0.84335888  0.54921924  0.02673698  1
  O  O20  1  0.70585296  0.15690736  0.02644916  1
  O  O21  1  0.45530264  0.16038577  0.52774430  1
  O  O22  1  0.70675757  0.54702280  0.52801972  1
  O  O23  1  0.84034366  0.29385792  0.52801282  1
  O  O24  1  0.53188067  0.69455512  0.97159624  1
  O  O25  1  0.16290061  0.46813704  0.97142613  1
  O  O26  1  0.30429967  0.83728603  0.97152842  1
  O  O27  1  0.52917498  0.83764521  0.47177841  1
  O  O28  1  0.30746415  0.46999078  0.47145882  1
  O  O29  1  0.16241862  0.69140060  0.47150597  1
  O  O30  1  0.14072566  0.64538790  0.36214409  1
  O  O31  1  0.50438843  0.86084381  0.36223129  1
  O  O32  1  0.35575996  0.49710555  0.36214150  1
  O  O33  1  0.14312302  0.49361793  0.86169836  1
  O  O34  1  0.35170603  0.85780274  0.86173410  1
  O  O35  1  0.50820539  0.64928054  0.86171134  1
  O  O36  1  0.03848533  0.83545257  0.40833935  1
  O  O37  1  0.79707779  0.96361249  0.40935639  1
  O  O38  1  0.16791448  0.20159539  0.40786492  1
  O  O39  1  0.03430371  0.19862270  0.90887992  1
  O  O40  1  0.16544709  0.96771517  0.90907668  1
  O  O41  1  0.80136242  0.83757813  0.90965829  1
  O  O42  1  0.97998079  0.17641575  0.59693288  1
  O  O43  1  0.19696937  0.02298118  0.59510614  1
  O  O44  1  0.82285418  0.80525999  0.59566570  1
  O  O45  1  0.98490632  0.81013530  0.09216474  1
  O  O46  1  0.82805457  0.01821239  0.09140554  1
  O  O47  1  0.19147643  0.17120276  0.09144741  1
  O  O48  1  0.69173688  0.16269092  0.74206468  1
  O  O49  1  0.46889604  0.30256605  0.74211494  1
  O  O50  1  0.82528504  0.51743004  0.74170636  1
  O  O51  1  0.68915079  0.51875777  0.24062554  1
  O  O52  1  0.82475035  0.30312067  0.24056168  1
  O  O53  1  0.46884006  0.16356332  0.24074551  1
  O  O54  1  0.64165405  0.50541443  0.91983372  1
  O  O55  1  0.86540072  0.36168718  0.91945294  1
  O  O56  1  0.49634695  0.13567495  0.91931603  1
  O  O57  1  0.63964595  0.13697216  0.42064838  1
  O  O58  1  0.49856110  0.36336378  0.42043149  1
  O  O59  1  0.86445182  0.50350616  0.42068372  1
  O  O60  1  0.35863381  0.49567226  0.07361502  1
  O  O61  1  0.13727270  0.63972113  0.07385213  1
  O  O62  1  0.50388414  0.86197302  0.07361333  1
  O  O63  1  0.35798372  0.86178693  0.57456274  1
  O  O64  1  0.50213547  0.64047026  0.57470244  1
  O  O65  1  0.13759963  0.49692954  0.57471784  1
  O  O66  1  0.30615694  0.84054953  0.25996643  1
  O  O67  1  0.52494222  0.69553294  0.26086885  1
  O  O68  1  0.16539565  0.47758307  0.26081662  1
  O  O69  1  0.30926955  0.46719623  0.76060121  1
  O  O70  1  0.16832064  0.69107437  0.76094221  1
  O  O71  1  0.53444673  0.83845251  0.76059865  1
loop_
_geom_bond_atom_site_label_1
_geom_bond_atom_site_label_2
_geom_bond_distance
_geom_bond_site_symmetry_2
Na0 O47 2.594751 1_555
Na0 O46 2.595774 1_455
Na0 O45 2.614071 1_445
Na0 O41 2.656917 1_444
Na0 O39 2.661236 1_554
Na0 O40 2.662878 1_544
Na1 O56 2.424628 1_555
Na1 O55 2.433816 1_555
Na1 O54 2.438606 1_555
Na1 O50 2.717115 1_555
Na1 O49 2.771078 1_555
Na1 O48 2.775863 1_555
Na2 O57 2.422531 1_555
Na2 O58 2.426113 1_555
Na2 O59 2.434821 1_555
Na2 O51 2.769363 1_555
Na2 O52 2.772953 1_555
Na2 O53 2.822969 1_555
Nb0 O2 1.956565 1_565
Nb0 O37 1.958699 1_555
Nb0 O1 1.960504 1_555
Nb0 O36 1.994466 1_655
Nb0 O38 2.004918 1_665
Nb0 O0 2.108940 1_665
Nb1 O4 1.913964 1_555
Nb1 O41 1.997301 1_555
Nb1 O40 2.005221 1_655
Nb1 O5 2.029143 1_565
Nb1 O3 2.029531 1_665
Nb1 O39 2.042391 1_665
Nb2 O43 1.936365 1_565
Nb2 O8 1.937388 1_555
Nb2 O44 1.944874 1_455
Nb2 O42 1.972715 1_465
Nb2 O7 2.074998 1_565
Nb2 O6 2.076889 1_455
Nb3 O9 1.904629 1_545
Nb3 O10 1.906085 1_655
Nb3 O11 2.013237 1_645
Nb3 O46 2.023549 1_555
Nb3 O47 2.052170 1_655
Nb3 O45 2.061434 1_545
Nb4 O12 1.957777 1_555
Nb4 O14 1.968856 1_555
Nb4 O50 1.971290 1_555
Nb4 O13 1.997896 1_555
Nb4 O48 2.071406 1_555
Nb4 O49 2.078768 1_555
Nb5 O51 1.938489 1_555
Nb5 O52 1.941095 1_555
Nb5 O15 2.014606 1_555
Nb5 O53 2.030593 1_555
Nb5 O17 2.041723 1_555
Nb5 O16 2.055315 1_555
Nb6 O60 1.957631 1_555
Nb6 O61 1.964617 1_555
Nb6 O62 1.966331 1_555
Nb6 O24 2.045055 1_554
Nb6 O25 2.046672 1_554
Nb6 O26 2.057303 1_554
Nb7 O29 1.983507 1_555
Nb7 O27 1.994673 1_555
Nb7 O28 1.999644 1_555
Nb7 O65 2.009739 1_555
Nb7 O63 2.016613 1_555
Nb7 O64 2.020454 1_555
Nb8 O68 1.918268 1_555
Nb8 O67 1.921553 1_555
Nb8 O32 1.991441 1_555
Nb8 O30 2.015015 1_555
Nb8 O66 2.018228 1_555
Nb8 O31 2.032772 1_555
Nb9 O70 1.916461 1_555
Nb9 O33 1.979954 1_555
Nb9 O34 1.996554 1_555
Nb9 O69 2.008888 1_555
Nb9 O71 2.012761 1_555
Nb9 O35 2.018277 1_555
O0 P0 1.528595 1_555
O1 Si0 1.621524 1_555
O2 Si1 1.619113 1_555
O3 P1 1.551571 1_555
O4 Si2 1.643806 1_555
O5 P2 1.554296 1_555
O6 P2 1.527733 1_565
O7 P1 1.529917 1_555
O8 Si2 1.616403 1_455
O9 Si0 1.634429 1_555
O10 Si1 1.636314 1_455
O11 P0 1.549144 1_565
O12 P3 1.591304 1_555
O13 P4 1.574424 1_555
O14 P5 1.585985 1_555
O15 P6 1.567539 1_555
O16 P7 1.553621 1_555
O17 P8 1.557233 1_555
O18 P8 1.492702 1_555
O18 Zn0 2.033336 1_554
O19 P6 1.491882 1_555
O19 Zn0 2.044947 1_554
O20 P7 1.492568 1_555
O20 Zn0 2.037414 1_554
O21 P4 1.490013 1_555
O21 Zn1 2.040998 1_555
O22 P5 1.489088 1_555
O22 Zn1 2.056043 1_555
O23 P3 1.489078 1_555
O23 Zn1 2.053664 1_555
O24 P9 1.556383 1_555
O25 P10 1.556794 1_555
O26 P11 1.553485 1_555
O27 P12 1.568838 1_555
O28 P13 1.571459 1_555
O29 P14 1.574463 1_555
O30 P14 1.547431 1_555
O31 P12 1.543101 1_555
O32 P13 1.558309 1_555
O33 P10 1.566382 1_555
O34 P11 1.561213 1_555
O35 P9 1.551489 1_555
O36 P14 1.558562 1_555
O37 P12 1.571921 1_555
O38 P13 1.556510 1_555
O39 P10 1.575353 1_555
O40 P11 1.589216 1_555
O41 P9 1.592937 1_555
O42 P3 1.555200 1_555
O43 P4 1.572263 1_555
O44 P5 1.568175 1_555
O45 P6 1.557025 1_555
O46 P7 1.570881 1_555
O47 P8 1.558889 1_555
O48 P2 1.550742 1_555
O49 P1 1.549317 1_555
O50 Si2 1.633599 1_555
O51 Si0 1.639799 1_555
O52 Si1 1.637755 1_555
O53 P0 1.555080 1_555
O54 P9 1.500753 1_555
O54 Zn0 2.143998 1_555
O55 P10 1.501364 1_655
O55 Zn0 2.151260 1_555
O56 P11 1.499910 1_545
O56 Zn0 2.154732 1_555
O57 P12 1.501713 1_545
O57 Zn1 2.109785 1_555
O58 P13 1.502408 1_555
O58 Zn1 2.112904 1_555
O59 P14 1.502684 1_655
O59 Zn1 2.109176 1_555
O60 P8 1.582804 1_555
O61 P6 1.578600 1_455
O62 P7 1.579151 1_565
O63 P4 1.553931 1_565
O64 P5 1.549557 1_555
O65 P3 1.553841 1_455
O66 P0 1.535191 1_565
O67 Si0 1.615996 1_555
O68 Si1 1.617271 1_455
O69 P1 1.545291 1_555
O70 Si2 1.627320 1_455
O71 P2 1.543359 1_565
