# generated using pymatgen
data_RbNO3
_symmetry_space_group_name_H-M   'P 1'
_cell_length_a   4.79716951
_cell_length_b   4.79716951
_cell_length_c   4.79716951
_cell_angle_alpha   106.34426069
_cell_angle_beta   73.65573931
_cell_angle_gamma   106.34426069
_symmetry_Int_Tables_number   1
_chemical_formula_structural   RbNO3
_chemical_formula_sum   'Rb1 N1 O3'
_cell_volume   99.17254870
_cell_formula_units_Z   1
loop_
 _symmetry_equiv_pos_site_id
 _symmetry_equiv_pos_as_xyz
  1  'x, y, z'
loop_
 _atom_site_type_symbol
 _atom_site_label
 _atom_site_symmetry_multiplicity
 _atom_site_fract_x
 _atom_site_fract_y
 _atom_site_fract_z
 _atom_site_occupancy
  Rb  Rb0  1  0.50000000  0.50000000  0.50000000  1
  N  N0  1  0.00000000  0.00000000  -0.00000000  1
  O  O0  1  -0.00000000  0.21921225  0.21921225  1
  O  O1  1  0.21921225  0.00000000  0.78078775  1
  O  O2  1  0.78078775  0.78078775  -0.00000000  1
loop_
_geom_bond_atom_site_label_1
_geom_bond_atom_site_label_2
_geom_bond_distance
_geom_bond_site_symmetry_2
N0 O0 1.260683 1_555
N0 O1 1.260683 1_554
N0 O2 1.260683 1_445
O0 Rb0 2.891504 1_455
O0 Rb0 2.891504 1_555
O1 Rb0 2.891504 1_545
O1 Rb0 2.891504 1_555
O2 Rb0 2.891504 1_554
O2 Rb0 2.891504 1_555
