# generated using pymatgen
data_MgCo2(NiO2)4
_symmetry_space_group_name_H-M   'P 1'
_cell_length_a   6.24322526
_cell_length_b   6.23354805
_cell_length_c   6.20145075
_cell_angle_alpha   60.27333728
_cell_angle_beta   60.11866872
_cell_angle_gamma   59.60879100
_symmetry_Int_Tables_number   1
_chemical_formula_structural   MgCo2(NiO2)4
_chemical_formula_sum   'Mg1 Co2 Ni4 O8'
_cell_volume   170.64491017
_cell_formula_units_Z   1
loop_
 _symmetry_equiv_pos_site_id
 _symmetry_equiv_pos_as_xyz
  1  'x, y, z'
loop_
 _atom_site_type_symbol
 _atom_site_label
 _atom_site_symmetry_multiplicity
 _atom_site_fract_x
 _atom_site_fract_y
 _atom_site_fract_z
 _atom_site_occupancy
  Mg  Mg0  1  0.37500000  0.37498800  0.37497300  1
  Co  Co0  1  0.12500100  0.12499500  0.12500700  1
  Co  Co1  1  0.87500400  0.87502200  0.87502700  1
  Ni  Ni0  1  0.51677200  0.94258500  0.52070600  1
  Ni  Ni1  1  0.52003200  0.52065000  0.94257700  1
  Ni  Ni2  1  0.94259600  0.51676700  0.52002100  1
  Ni  Ni3  1  0.52061600  0.52002000  0.51675500  1
  O  O0  1  0.74685100  0.25150600  0.25142300  1
  O  O1  1  0.25015900  0.25146200  0.25147300  1
  O  O2  1  0.74738200  0.26019400  0.74645200  1
  O  O3  1  0.74594000  0.74648000  0.26021000  1
  O  O4  1  0.25147500  0.25014600  0.74682600  1
  O  O5  1  0.25149300  0.74683300  0.25017100  1
  O  O6  1  0.26018100  0.74738700  0.74596800  1
  O  O7  1  0.74650200  0.74596100  0.74740700  1
loop_
_geom_bond_atom_site_label_1
_geom_bond_atom_site_label_2
_geom_bond_distance
_geom_bond_site_symmetry_2
Mg0 O5 1.890350 1_555
Mg0 O0 1.890392 1_555
Mg0 O4 1.890401 1_555
Mg0 O1 1.890459 1_555
Mg0 Ni1 2.198325 1_554
Mg0 Ni0 2.198348 1_545
Mg0 Ni2 2.198360 1_455
Mg0 Ni3 2.198477 1_555
Co0 O1 1.922025 1_555
Co0 O0 1.922338 1_455
Co0 O5 1.922390 1_545
Co0 O4 1.922491 1_554
Co1 O2 1.958105 1_565
Co1 O6 1.958139 1_655
Co1 O7 1.958156 1_555
Co1 O3 1.958171 1_556
Ni0 O3 2.009194 1_555
Ni0 O6 2.013696 1_555
Ni0 O7 2.014308 1_555
Ni0 O4 2.350393 1_565
Ni0 O1 2.367244 1_565
Ni0 O0 2.404104 1_565
Ni1 O2 2.009088 1_555
Ni1 O7 2.013672 1_555
Ni1 O6 2.014453 1_555
Ni1 O5 2.350806 1_556
Ni1 O0 2.366493 1_556
Ni1 O1 2.404342 1_556
Ni2 O7 2.009101 1_555
Ni2 O2 2.013674 1_555
Ni2 O3 2.014456 1_555
Ni2 O1 2.351090 1_655
Ni2 O4 2.366590 1_655
Ni2 O5 2.403940 1_655
Ni3 O6 2.009073 1_555
Ni3 O3 2.013648 1_555
Ni3 O2 2.014449 1_555
Ni3 O0 2.351090 1_555
Ni3 O5 2.366693 1_555
Ni3 O4 2.404180 1_555
