# generated using pymatgen
data_TmCuPb
_symmetry_space_group_name_H-M   'P 1'
_cell_length_a   4.53470659
_cell_length_b   4.53470659
_cell_length_c   7.27683141
_cell_angle_alpha   90.00000000
_cell_angle_beta   90.00000000
_cell_angle_gamma   120.00000831
_symmetry_Int_Tables_number   1
_chemical_formula_structural   TmCuPb
_chemical_formula_sum   'Tm2 Cu2 Pb2'
_cell_volume   129.58994117
_cell_formula_units_Z   2
loop_
 _symmetry_equiv_pos_site_id
 _symmetry_equiv_pos_as_xyz
  1  'x, y, z'
loop_
 _atom_site_type_symbol
 _atom_site_label
 _atom_site_symmetry_multiplicity
 _atom_site_fract_x
 _atom_site_fract_y
 _atom_site_fract_z
 _atom_site_occupancy
  Tm  Tm0  1  0.00000000  0.00000000  0.99380684  1
  Tm  Tm1  1  0.00000000  0.00000000  0.49380684  1
  Cu  Cu0  1  0.66666700  0.33333300  0.32845728  1
  Cu  Cu1  1  0.33333300  0.66666700  0.82845728  1
  Pb  Pb0  1  0.66666700  0.33333300  0.72393488  1
  Pb  Pb1  1  0.33333300  0.66666700  0.22393488  1
loop_
_geom_bond_atom_site_label_1
_geom_bond_atom_site_label_2
_geom_bond_distance
_geom_bond_site_symmetry_2
Tm0 Tm1 3.638416 1_555
Tm0 Tm1 3.638416 1_556
Cu0 Pb1 2.726354 1_545
Cu0 Pb1 2.726354 1_655
Cu0 Pb1 2.726362 1_555
Cu0 Pb0 2.877824 1_555
Cu0 Tm1 2.881362 1_655
Cu0 Tm1 2.881366 1_665
Cu0 Tm1 2.881366 1_555
Cu0 Tm0 3.575567 1_654
Cu0 Tm0 3.575570 1_554
Cu0 Tm0 3.575570 1_664
Cu1 Pb0 2.726354 1_455
Cu1 Pb0 2.726354 1_565
Cu1 Pb0 2.726362 1_555
Cu1 Pb1 2.877824 1_556
Cu1 Tm0 2.881362 1_565
Cu1 Tm0 2.881366 1_665
Cu1 Tm0 2.881366 1_555
Cu1 Tm1 3.575567 1_565
Cu1 Tm1 3.575570 1_665
Cu1 Tm1 3.575570 1_555
Pb0 Tm1 3.107862 1_655
Pb0 Tm1 3.107865 1_665
Pb0 Tm1 3.107865 1_555
Pb0 Tm0 3.272777 1_655
Pb0 Tm0 3.272780 1_665
Pb0 Tm0 3.272780 1_555
Pb1 Tm0 3.107862 1_564
Pb1 Tm0 3.107865 1_664
Pb1 Tm0 3.107865 1_554
Pb1 Tm1 3.272777 1_565
Pb1 Tm1 3.272780 1_665
Pb1 Tm1 3.272780 1_555
