# generated using pymatgen
data_Li2H2SeO5
_symmetry_space_group_name_H-M   'P 1'
_cell_length_a   5.07095200
_cell_length_b   5.72311100
_cell_length_c   8.58615605
_cell_angle_alpha   72.78102981
_cell_angle_beta   90.00000000
_cell_angle_gamma   90.00000000
_symmetry_Int_Tables_number   1
_chemical_formula_structural   Li2H2SeO5
_chemical_formula_sum   'Li4 H4 Se2 O10'
_cell_volume   238.01583432
_cell_formula_units_Z   2
loop_
 _symmetry_equiv_pos_site_id
 _symmetry_equiv_pos_as_xyz
  1  'x, y, z'
loop_
 _atom_site_type_symbol
 _atom_site_label
 _atom_site_symmetry_multiplicity
 _atom_site_fract_x
 _atom_site_fract_y
 _atom_site_fract_z
 _atom_site_occupancy
  Li  Li0  1  0.41125700  0.56214300  0.10338500  1
  Li  Li1  1  0.89902600  0.68755000  0.49554000  1
  Li  Li2  1  0.91125700  0.43785700  0.89661500  1
  Li  Li3  1  0.39902600  0.31245000  0.50446000  1
  H  H0  1  0.78436800  0.99664400  0.94274400  1
  H  H1  1  0.02617300  0.04349800  0.81774700  1
  H  H2  1  0.28436800  0.00335600  0.05725600  1
  H  H3  1  0.52617300  0.95650200  0.18225300  1
  Se  Se0  1  0.89725300  0.28471200  0.29179600  1
  Se  Se1  1  0.39725300  0.71528800  0.70820400  1
  O  O0  1  0.76854800  0.39447400  0.43580100  1
  O  O1  1  0.26854800  0.60552600  0.56419900  1
  O  O2  1  0.44553400  0.90712600  0.09233000  1
  O  O3  1  0.27760000  0.55408600  0.88999600  1
  O  O4  1  0.81265700  0.99262600  0.32560200  1
  O  O5  1  0.31265700  0.00737400  0.67439800  1
  O  O6  1  0.77760000  0.44591400  0.11000400  1
  O  O7  1  0.94553400  0.09287400  0.90767000  1
  O  O8  1  0.22542500  0.32243300  0.28997300  1
  O  O9  1  0.72542500  0.67756700  0.71002700  1
loop_
_geom_bond_atom_site_label_1
_geom_bond_atom_site_label_2
_geom_bond_distance
_geom_bond_site_symmetry_2
Li0 O2 1.956126 1_555
Li0 O3 1.966835 1_554
Li0 O6 1.968351 1_555
Li0 O8 2.008852 1_555
Li1 O4 1.964942 1_555
Li1 O1 1.978708 1_655
Li1 O0 2.005889 1_555
Li1 O9 2.026696 1_555
Li2 O7 1.956126 1_555
Li2 O6 1.966835 1_556
Li2 O3 1.968351 1_655
Li2 O9 2.008852 1_555
Li3 O5 1.964942 1_555
Li3 O0 1.978708 1_555
Li3 O1 2.005889 1_555
Li3 O8 2.026696 1_555
H0 O7 0.981697 1_565
H1 O7 0.986087 1_455
H2 O2 0.981697 1_545
H3 O2 0.986087 1_555
O0 Se0 1.676076 1_555
O1 Se1 1.676076 1_555
O3 Se1 1.674250 1_555
O4 Se0 1.665950 1_565
O5 Se1 1.665950 1_545
O6 Se0 1.674250 1_555
O8 Se0 1.677565 1_455
O9 Se1 1.677565 1_555
