# generated using pymatgen
data_BaNdMgMn2O5
_symmetry_space_group_name_H-M   'P 1'
_cell_length_a   5.06102042
_cell_length_b   3.86600709
_cell_length_c   8.36929185
_cell_angle_alpha   90.00000000
_cell_angle_beta   90.00000000
_cell_angle_gamma   90.00000000
_symmetry_Int_Tables_number   1
_chemical_formula_structural   BaNdMgMn2O5
_chemical_formula_sum   'Ba1 Nd1 Mg1 Mn2 O5'
_cell_volume   163.75306910
_cell_formula_units_Z   1
loop_
 _symmetry_equiv_pos_site_id
 _symmetry_equiv_pos_as_xyz
  1  'x, y, z'
loop_
 _atom_site_type_symbol
 _atom_site_label
 _atom_site_symmetry_multiplicity
 _atom_site_fract_x
 _atom_site_fract_y
 _atom_site_fract_z
 _atom_site_occupancy
  Ba  Ba0  1  0.00000000  0.00000000  0.61974403  1
  Nd  Nd0  1  0.00000000  0.00000000  0.05720184  1
  Mg  Mg0  1  0.50000000  0.00000000  0.43106870  1
  Mn  Mn0  1  0.50000000  0.50000000  0.18119179  1
  Mn  Mn1  1  0.50000000  0.50000000  0.79527125  1
  O  O0  1  0.50000000  0.00000000  0.70325223  1
  O  O1  1  0.00000000  0.50000000  0.20146920  1
  O  O2  1  0.00000000  0.50000000  0.82407664  1
  O  O3  1  0.50000000  0.00000000  0.18697687  1
  O  O4  1  0.50000000  0.50000000  0.44974646  1
loop_
_geom_bond_atom_site_label_1
_geom_bond_atom_site_label_2
_geom_bond_distance
_geom_bond_site_symmetry_2
Ba0 O2 2.580893 1_545
Ba0 O2 2.580893 1_555
Ba0 O0 2.625252 1_555
Ba0 O0 2.625252 1_455
Nd0 O1 2.279113 1_545
Nd0 O1 2.279113 1_555
Nd0 O2 2.746501 1_554
Nd0 O2 2.746501 1_544
Nd0 O3 2.753752 1_455
Nd0 O3 2.753752 1_555
Mg0 O4 1.939314 1_545
Mg0 O4 1.939314 1_555
Mg0 O3 2.042876 1_555
Mg0 O0 2.277983 1_555
Mn0 O3 1.933610 1_555
Mn0 O3 1.933610 1_565
Mn0 O4 2.247612 1_555
Mn0 O1 2.536195 1_655
Mn0 O1 2.536195 1_555
Mn1 O0 2.080771 1_555
Mn1 O0 2.080771 1_565
Mn1 O2 2.541968 1_555
Mn1 O2 2.541968 1_655
