# generated using pymatgen
data_MgCd2(CoO2)4
_symmetry_space_group_name_H-M   'P 1'
_cell_length_a   6.51838519
_cell_length_b   6.06093714
_cell_length_c   5.86626630
_cell_angle_alpha   61.05692308
_cell_angle_beta   90.00000047
_cell_angle_gamma   119.48095624
_symmetry_Int_Tables_number   1
_chemical_formula_structural   MgCd2(CoO2)4
_chemical_formula_sum   'Mg1 Cd2 Co4 O8'
_cell_volume   167.70410184
_cell_formula_units_Z   1
loop_
 _symmetry_equiv_pos_site_id
 _symmetry_equiv_pos_as_xyz
  1  'x, y, z'
loop_
 _atom_site_type_symbol
 _atom_site_label
 _atom_site_symmetry_multiplicity
 _atom_site_fract_x
 _atom_site_fract_y
 _atom_site_fract_z
 _atom_site_occupancy
  Mg  Mg0  1  0.37123788  0.18500824  0.90749588  1
  Cd  Cd0  1  0.88330175  0.15925636  0.92037182  1
  Cd  Cd1  1  0.91880942  0.82297205  0.58851398  1
  Co  Co0  1  0.40278269  0.22814105  0.38592948  1
  Co  Co1  1  0.84779572  0.32512388  0.33743806  1
  Co  Co2  1  0.36909042  0.69160822  0.40135191  1
  Co  Co3  1  0.36909042  0.69160823  0.90703987  1
  O  O0  1  0.18358155  0.24468350  0.14185340  1
  O  O1  1  0.58059933  0.14998004  0.18867920  1
  O  O2  1  0.56372864  0.69552131  0.15223985  1
  O  O3  1  0.17457919  0.71198727  0.14400687  1
  O  O4  1  0.58059933  0.14998004  0.66133976  1
  O  O5  1  0.18358155  0.24468350  0.61346410  1
  O  O6  1  0.16357612  0.66866682  0.66566609  1
  O  O7  1  0.54306297  0.65577951  0.67210975  1
loop_
_geom_bond_atom_site_label_1
_geom_bond_atom_site_label_2
_geom_bond_distance
_geom_bond_site_symmetry_2
Mg0 O3 2.078551 1_546
Mg0 O7 2.084143 1_555
Mg0 O5 2.105679 1_555
Mg0 O0 2.105683 1_556
Mg0 O1 2.138817 1_556
Mg0 O4 2.138821 1_555
Cd0 O2 2.150868 1_546
Cd0 O6 2.255195 1_655
Cd0 O5 2.332585 1_655
Cd0 O0 2.332589 1_656
Cd0 O1 2.485744 1_556
Cd0 O4 2.485748 1_555
Cd1 O7 2.083831 1_555
Cd1 O6 2.164270 1_655
Cd1 O0 2.356530 1_665
Cd1 O5 2.356533 1_665
Co0 O4 1.994443 1_555
Co0 O1 1.994447 1_555
Co0 O0 2.025780 1_555
Co0 O5 2.025784 1_555
Co0 O2 2.078633 1_555
Co0 O6 2.456147 1_545
Co1 O3 1.957452 1_655
Co1 O4 1.999671 1_555
Co1 O1 1.999674 1_555
Co2 O2 1.919019 1_555
Co2 O7 1.940237 1_555
Co2 O6 1.956035 1_555
Co2 O5 1.965129 1_555
Co2 O3 1.968641 1_555
Co2 O1 2.012660 1_565
Co3 O2 1.919023 1_556
Co3 O7 1.940242 1_555
Co3 O6 1.956040 1_555
Co3 O0 1.965130 1_556
Co3 O3 1.968645 1_556
Co3 O4 2.012661 1_565
