# generated using pymatgen
data_Na6Zn4Si3Ge4(S3O16)3
_symmetry_space_group_name_H-M   'P 1'
_cell_length_a   17.35104208
_cell_length_b   8.65014146
_cell_length_c   22.13406496
_cell_angle_alpha   90.21132436
_cell_angle_beta   89.67238939
_cell_angle_gamma   120.01007744
_symmetry_Int_Tables_number   1
_chemical_formula_structural   Na6Zn4Si3Ge4(S3O16)3
_chemical_formula_sum   'Na18 Zn12 Si9 Ge12 S27 O144'
_cell_volume   2876.66424973
_cell_formula_units_Z   3
loop_
 _symmetry_equiv_pos_site_id
 _symmetry_equiv_pos_as_xyz
  1  'x, y, z'
loop_
 _atom_site_type_symbol
 _atom_site_label
 _atom_site_symmetry_multiplicity
 _atom_site_fract_x
 _atom_site_fract_y
 _atom_site_fract_z
 _atom_site_occupancy
  Na  Na0  1  0.99986633  0.63424739  0.25092894  1
  Na  Na1  1  0.49960716  0.62338033  0.24561623  1
  Na  Na2  1  0.00201943  0.37366477  0.74483995  1
  Na  Na3  1  0.50027320  0.36943516  0.75044236  1
  Na  Na4  1  0.67144882  0.31490341  0.91328644  1
  Na  Na5  1  0.17014411  0.03009641  0.41595693  1
  Na  Na6  1  0.99444434  0.00179565  0.50162700  1
  Na  Na7  1  0.50201216  0.00446197  0.50098194  1
  Na  Na8  1  0.00238012  0.99984269  0.99744433  1
  Na  Na9  1  0.49400305  0.98527352  0.99914941  1
  Na  Na10  1  0.31797993  0.31705755  0.83313634  1
  Na  Na11  1  0.83581671  0.34759328  0.83468675  1
  Na  Na12  1  0.33240165  0.32073570  0.33678512  1
  Na  Na13  1  0.82450660  0.32824920  0.33753260  1
  Na  Na14  1  0.17437804  0.66209485  0.16389019  1
  Na  Na15  1  0.66708768  0.66425318  0.16423307  1
  Na  Na16  1  0.16536753  0.65899623  0.66900530  1
  Na  Na17  1  0.67581317  0.68952589  0.66558724  1
  Zn  Zn0  1  0.99558480  0.00010207  0.35287815  1
  Zn  Zn1  1  0.49512124  0.99041085  0.85189607  1
  Zn  Zn2  1  0.31950479  0.32735320  0.68626721  1
  Zn  Zn3  1  0.83366803  0.31844787  0.67488988  1
  Zn  Zn4  1  0.33172768  0.34731624  0.17241090  1
  Zn  Zn5  1  0.82956623  0.32746658  0.18050897  1
  Zn  Zn6  1  0.83862716  0.34640768  0.98188958  1
  Zn  Zn7  1  0.33740100  0.33059405  0.48439147  1
  Zn  Zn8  1  0.17173306  0.67162040  0.31894282  1
  Zn  Zn9  1  0.67369376  0.65937709  0.32132431  1
  Zn  Zn10  1  0.17129394  0.67476632  0.81408693  1
  Zn  Zn11  1  0.67538091  0.67569525  0.81620452  1
  Si  Si0  1  0.14465729  0.28892974  0.75390243  1
  Si  Si1  1  0.98074746  0.33922059  0.58144365  1
  Si  Si2  1  0.68379109  0.02881044  0.58441109  1
  Si  Si3  1  0.48169670  0.61999678  0.08205453  1
  Si  Si4  1  0.18466180  0.34228486  0.08389991  1
  Si  Si5  1  0.81449637  0.67288003  0.91515868  1
  Si  Si6  1  0.17322028  0.95858823  0.91819156  1
  Si  Si7  1  0.31086071  0.95585444  0.41660613  1
  Si  Si8  1  0.67363240  0.38159819  0.41861109  1
  Ge  Ge0  1  0.50133689  0.01744844  0.36249991  1
  Ge  Ge1  1  0.01080192  0.99099073  0.85951337  1
  Ge  Ge2  1  0.00191772  0.02728585  0.64802392  1
  Ge  Ge3  1  0.50557160  0.99870096  0.64682293  1
  Ge  Ge4  1  0.00636997  0.01248212  0.14542104  1
  Ge  Ge5  1  0.49699083  0.98666531  0.14346848  1
  Ge  Ge6  1  0.32284338  0.33449125  0.98485503  1
  Ge  Ge7  1  0.82281126  0.31515728  0.48811836  1
  Ge  Ge8  1  0.16449069  0.65871359  0.01357877  1
  Ge  Ge9  1  0.66844812  0.67665790  0.01489487  1
  Ge  Ge10  1  0.16945826  0.66444718  0.51868612  1
  Ge  Ge11  1  0.66636347  0.66347622  0.51827136  1
  S  S0  1  0.14755185  0.00509302  0.24946367  1
  S  S1  1  0.64294792  0.00293680  0.25097481  1
  S  S2  1  0.35819417  0.71876838  0.25152333  1
  S  S3  1  0.85505588  0.71382966  0.24684944  1
  S  S4  1  0.99926997  0.29034899  0.24937420  1
  S  S5  1  0.49904823  0.27926646  0.24924471  1
  S  S6  1  0.64705375  0.28983866  0.74976669  1
  S  S7  1  0.99666021  0.71731122  0.74810122  1
  S  S8  1  0.50145105  0.71036886  0.74925688  1
  S  S9  1  0.35846338  0.99939141  0.74640576  1
  S  S10  1  0.85610705  0.99750129  0.75083479  1
  S  S11  1  0.48227918  0.33242071  0.58641963  1
  S  S12  1  0.18198996  0.03159264  0.58298635  1
  S  S13  1  0.33404157  0.63194861  0.58367604  1
  S  S14  1  0.83399416  0.62889575  0.58378200  1
  S  S15  1  0.98318877  0.63395315  0.08645320  1
  S  S16  1  0.33362158  0.03890228  0.08442853  1
  S  S17  1  0.83329473  0.03547471  0.08441037  1
  S  S18  1  0.68278622  0.33213654  0.08430841  1
  S  S19  1  0.31400215  0.66501895  0.91800796  1
  S  S20  1  0.01999375  0.37066563  0.91543719  1
  S  S21  1  0.51740309  0.37570016  0.91700861  1
  S  S22  1  0.66535482  0.95843292  0.91675830  1
  S  S23  1  0.81249787  0.96181061  0.41762483  1
  S  S24  1  0.16582131  0.37417654  0.41661691  1
  S  S25  1  0.01712284  0.65942930  0.41685387  1
  S  S26  1  0.52131843  0.66976921  0.41374335  1
  O  O0  1  0.10610221  0.02521613  0.30560782  1
  O  O1  1  0.59985994  0.02771162  0.30587234  1
  O  O2  1  0.41848611  0.80845098  0.30443232  1
  O  O3  1  0.91021012  0.78970760  0.30157442  1
  O  O4  1  0.48804426  0.17128312  0.30524516  1
  O  O5  1  0.98632743  0.18429759  0.30354017  1
  O  O6  1  0.09130005  0.15765549  0.81202213  1
  O  O7  1  0.60628605  0.18780635  0.80597091  1
  O  O8  1  0.48812458  0.79018267  0.80385280  1
  O  O9  1  0.98258009  0.79437554  0.80549532  1
  O  O10  1  0.41272707  0.03187811  0.80114109  1
  O  O11  1  0.91196923  0.02087576  0.80362842  1
  O  O12  1  0.40355062  0.97038091  0.69066491  1
  O  O13  1  0.89458322  0.96686439  0.69231530  1
  O  O14  1  0.08057825  0.20298511  0.69207122  1
  O  O15  1  0.58425971  0.19878774  0.69574270  1
  O  O16  1  0.00794938  0.82818891  0.69290222  1
  O  O17  1  0.51487512  0.82192311  0.69319474  1
  O  O18  1  0.39904310  0.82751120  0.19395412  1
  O  O19  1  0.90097102  0.82798094  0.19140971  1
  O  O20  1  0.01237132  0.20592499  0.19302379  1
  O  O21  1  0.51318970  0.19412775  0.19355786  1
  O  O22  1  0.08439567  0.96989263  0.19540965  1
  O  O23  1  0.58533689  0.96808821  0.19491691  1
  O  O24  1  0.44367143  0.36198227  0.64142936  1
  O  O25  1  0.95156805  0.38411272  0.64491979  1
  O  O26  1  0.23788475  0.11017516  0.63572143  1
  O  O27  1  0.73976445  0.09725400  0.64461669  1
  O  O28  1  0.32086931  0.52771707  0.63803863  1
  O  O29  1  0.81563283  0.52279156  0.63816309  1
  O  O30  1  0.45268108  0.52044868  0.14652441  1
  O  O31  1  0.94541708  0.53033690  0.14292726  1
  O  O32  1  0.31880535  0.11052765  0.13997398  1
  O  O33  1  0.81898479  0.11175267  0.14011119  1
  O  O34  1  0.23935232  0.38594179  0.14510094  1
  O  O35  1  0.73633218  0.36075554  0.13862458  1
  O  O36  1  0.22578685  0.29301250  0.02521774  1
  O  O37  1  0.71810093  0.29373230  0.02918141  1
  O  O38  1  0.41326448  0.52254586  0.02503674  1
  O  O39  1  0.92833329  0.55485487  0.03333646  1
  O  O40  1  0.35196499  0.15170081  0.02994801  1
  O  O41  1  0.84872425  0.14441381  0.03021672  1
  O  O42  1  0.21748225  0.13869666  0.52702654  1
  O  O43  1  0.72354935  0.15668040  0.52468514  1
  O  O44  1  0.34944512  0.55621053  0.52807523  1
  O  O45  1  0.85014728  0.54871856  0.52827648  1
  O  O46  1  0.42972287  0.30272972  0.53158420  1
  O  O47  1  0.91325904  0.30345388  0.52345870  1
  O  O48  1  0.27156772  0.69149273  0.97381844  1
  O  O49  1  0.76581735  0.70682207  0.97755985  1
  O  O50  1  0.07722504  0.45389967  0.97154897  1
  O  O51  1  0.58047185  0.46279758  0.96988400  1
  O  O52  1  0.15240653  0.82830245  0.97939552  1
  O  O53  1  0.64821066  0.84482080  0.97255094  1
  O  O54  1  0.26348270  0.82433698  0.47684304  1
  O  O55  1  0.76924107  0.84724281  0.47195059  1
  O  O56  1  0.14976757  0.45590213  0.47165261  1
  O  O57  1  0.65012809  0.47301626  0.47713868  1
  O  O58  1  0.08000376  0.69772288  0.46862387  1
  O  O59  1  0.57826557  0.70206039  0.46802554  1
  O  O60  1  0.05169329  0.63026641  0.35894935  1
  O  O61  1  0.55925466  0.64366993  0.35708675  1
  O  O62  1  0.24846998  0.88453836  0.35807384  1
  O  O63  1  0.76101598  0.89150283  0.36175616  1
  O  O64  1  0.17570526  0.47218431  0.36077450  1
  O  O65  1  0.69249131  0.48574941  0.35634566  1
  O  O66  1  0.05840412  0.47722446  0.86089870  1
  O  O67  1  0.55289138  0.47512223  0.86011496  1
  O  O68  1  0.19117961  0.88143098  0.85782819  1
  O  O69  1  0.67491824  0.87662677  0.86165621  1
  O  O70  1  0.26229316  0.63329683  0.86320022  1
  O  O71  1  0.74618759  0.61063483  0.85972292  1
  O  O72  1  0.01157336  0.82672952  0.41373654  1
  O  O73  1  0.51529983  0.83790667  0.40949250  1
  O  O74  1  0.40873495  0.96479037  0.41077041  1
  O  O75  1  0.90131657  0.97729542  0.41446226  1
  O  O76  1  0.08630454  0.18999289  0.41462710  1
  O  O77  1  0.58299053  0.17932941  0.41249753  1
  O  O78  1  0.01338454  0.19339701  0.91334190  1
  O  O79  1  0.51169877  0.19751867  0.91448773  1
  O  O80  1  0.08295038  0.97788349  0.91571254  1
  O  O81  1  0.58633461  0.98360492  0.91508912  1
  O  O82  1  0.40309755  0.82619702  0.91589838  1
  O  O83  1  0.91203994  0.85746884  0.90739425  1
  O  O84  1  0.49142430  0.16743274  0.59196868  1
  O  O85  1  0.98807100  0.15271441  0.58641936  1
  O  O86  1  0.08969295  0.00576489  0.59032910  1
  O  O87  1  0.58298929  0.00936264  0.59066202  1
  O  O88  1  0.41424965  0.81758241  0.58973343  1
  O  O89  1  0.91553264  0.80981797  0.58848044  1
  O  O90  1  0.49168358  0.82491195  0.08904572  1
  O  O91  1  0.99065529  0.81654463  0.09234861  1
  O  O92  1  0.41817141  0.02312406  0.08929786  1
  O  O93  1  0.91384703  0.01222348  0.09102123  1
  O  O94  1  0.08376033  0.15874336  0.09030557  1
  O  O95  1  0.59001780  0.16866003  0.09188012  1
  O  O96  1  0.35364723  0.16350464  0.73923361  1
  O  O97  1  0.85107067  0.16374915  0.74759805  1
  O  O98  1  0.23933067  0.29982063  0.75004465  1
  O  O99  1  0.73484256  0.30873181  0.74240604  1
  O  O100  1  0.42328442  0.53027046  0.74261967  1
  O  O101  1  0.91680219  0.53744536  0.74535014  1
  O  O102  1  0.35261271  0.54279085  0.24859860  1
  O  O103  1  0.84702201  0.53430609  0.24083369  1
  O  O104  1  0.41831363  0.29382322  0.24686616  1
  O  O105  1  0.91965576  0.31219708  0.24354145  1
  O  O106  1  0.23539377  0.16218922  0.24241247  1
  O  O107  1  0.73083863  0.16277999  0.24509971  1
  O  O108  1  0.32374577  0.50215342  0.92477475  1
  O  O109  1  0.82340943  0.49698417  0.92544309  1
  O  O110  1  0.42962805  0.35831491  0.92709929  1
  O  O111  1  0.93127920  0.34968096  0.92431206  1
  O  O112  1  0.26311375  0.16004425  0.92939275  1
  O  O113  1  0.74614710  0.13462382  0.92407789  1
  O  O114  1  0.32328281  0.15296182  0.42517929  1
  O  O115  1  0.82232748  0.14298369  0.42447625  1
  O  O116  1  0.24636676  0.35812682  0.42321200  1
  O  O117  1  0.76249938  0.36136344  0.42997052  1
  O  O118  1  0.43187786  0.51558382  0.42162266  1
  O  O119  1  0.92896592  0.50137728  0.42593999  1
  O  O120  1  0.17155935  0.51717194  0.06985389  1
  O  O121  1  0.67325056  0.49293831  0.07775224  1
  O  O122  1  0.07348581  0.65548462  0.08030331  1
  O  O123  1  0.58357520  0.65171477  0.06876811  1
  O  O124  1  0.25629024  0.85639078  0.07616128  1
  O  O125  1  0.75155487  0.85424263  0.07905659  1
  O  O126  1  0.17351218  0.85014840  0.57599832  1
  O  O127  1  0.67091298  0.82722905  0.56968585  1
  O  O128  1  0.25198512  0.64966137  0.57836756  1
  O  O129  1  0.75399922  0.65231122  0.57475380  1
  O  O130  1  0.08253656  0.51209882  0.56813728  1
  O  O131  1  0.57381539  0.49379709  0.57985788  1
  O  O132  1  0.14986736  0.83561926  0.24942683  1
  O  O133  1  0.64962653  0.83871501  0.25483586  1
  O  O134  1  0.27032559  0.70209638  0.25424993  1
  O  O135  1  0.76770104  0.70162828  0.24916957  1
  O  O136  1  0.07985351  0.47116595  0.25189845  1
  O  O137  1  0.57886055  0.45986203  0.25199074  1
  O  O138  1  0.14885721  0.48086540  0.75628355  1
  O  O139  1  0.64920658  0.46372156  0.74987229  1
  O  O140  1  0.07767341  0.70230303  0.75081482  1
  O  O141  1  0.58276716  0.69393502  0.75204281  1
  O  O142  1  0.27078873  0.83870135  0.74790458  1
  O  O143  1  0.76655752  0.83859376  0.75233585  1
loop_
_geom_bond_atom_site_label_1
_geom_bond_atom_site_label_2
_geom_bond_distance
_geom_bond_site_symmetry_2
Na0 O132 2.296451 1_655
Na0 O103 2.354235 1_555
Na0 O105 2.417691 1_555
Na0 O136 2.423967 1_655
Na0 O31 2.564288 1_555
Na0 O60 2.565650 1_655
Na0 O3 2.747084 1_555
Na0 O22 2.799457 1_655
Na1 O102 2.283702 1_555
Na1 O133 2.332389 1_555
Na1 O30 2.355236 1_555
Na1 O137 2.420933 1_555
Na1 O104 2.468771 1_555
Na1 O61 2.652127 1_555
Na1 O23 2.816340 1_555
Na1 O2 2.907996 1_555
Na2 O138 2.248918 1_555
Na2 O97 2.324303 1_455
Na2 O25 2.401784 1_455
Na2 O140 2.467464 1_555
Na2 O101 2.507714 1_455
Na2 O14 2.717366 1_555
Na2 O66 2.737463 1_555
Na2 O11 2.946806 1_455
Na3 O96 2.275494 1_555
Na3 O139 2.287931 1_555
Na3 O100 2.369277 1_555
Na3 O141 2.431042 1_555
Na3 O67 2.595406 1_555
Na3 O24 2.598727 1_555
Na3 O10 2.767763 1_555
Na3 O15 2.808339 1_555
Na4 O109 2.314315 1_555
Na4 O79 2.428739 1_555
Na4 O81 2.482321 1_545
Na4 O113 2.489350 1_555
Na4 O71 2.513497 1_555
Na4 O7 2.626265 1_555
Na4 O37 2.728489 1_556
Na4 O51 2.771893 1_555
Na5 O114 2.326206 1_555
Na5 O72 2.413797 1_545
Na5 O76 2.458356 1_555
Na5 O116 2.464054 1_555
Na5 O62 2.598772 1_545
Na5 O42 2.614420 1_555
Na5 O0 2.680591 1_555
Na5 O58 2.752634 1_545
Na6 O85 2.315775 1_555
Na6 O89 2.459091 1_545
Na6 O75 2.463381 1_545
Na6 O76 2.508243 1_655
Na6 O86 2.562619 1_655
Na6 O72 2.566695 1_645
Na7 O87 2.426476 1_555
Na7 O77 2.441811 1_555
Na7 O74 2.490081 1_545
Na7 O84 2.512124 1_555
Na7 O88 2.513535 1_545
Na7 O73 2.556368 1_545
Na8 O80 2.344628 1_555
Na8 O78 2.450322 1_565
Na8 O83 2.456235 1_455
Na8 O94 2.485695 1_566
Na8 O91 2.581663 1_456
Na8 O93 2.605334 1_466
Na9 O82 2.370715 1_555
Na9 O90 2.418387 1_556
Na9 O81 2.453045 1_555
Na9 O92 2.493177 1_566
Na9 O79 2.536027 1_565
Na9 O95 2.622241 1_566
Na10 O98 2.256133 1_555
Na10 O112 2.448460 1_555
Na10 O108 2.550649 1_555
Na10 O96 2.693398 1_555
Na10 O100 2.714502 1_555
Na10 O110 2.748577 1_555
Na11 O109 2.450663 1_555
Na11 O101 2.503073 1_555
Na11 O111 2.585855 1_555
Na11 O97 2.589858 1_555
Na11 O99 2.607922 1_555
Na11 O113 2.617987 1_555
Na12 O114 2.397270 1_555
Na12 O116 2.537378 1_555
Na12 O118 2.539635 1_555
Na12 O104 2.558756 1_555
Na12 O106 2.605236 1_555
Na12 O102 2.639797 1_555
Na13 O117 2.388429 1_555
Na13 O115 2.496869 1_555
Na13 O107 2.562292 1_555
Na13 O119 2.580840 1_555
Na13 O103 2.689375 1_555
Na13 O105 2.694599 1_555
Na14 O120 2.413866 1_555
Na14 O124 2.493664 1_555
Na14 O134 2.519547 1_555
Na14 O122 2.535130 1_555
Na14 O136 2.547520 1_555
Na14 O132 2.574251 1_555
Na15 O125 2.446451 1_555
Na15 O121 2.450869 1_555
Na15 O135 2.480926 1_555
Na15 O123 2.540167 1_555
Na15 O137 2.554670 1_555
Na15 O133 2.611317 1_555
Na16 O138 2.400485 1_555
Na16 O142 2.446277 1_555
Na16 O140 2.503623 1_555
Na16 O128 2.525020 1_555
Na16 O126 2.603840 1_555
Na16 O130 2.617969 1_555
Na17 O143 2.411222 1_555
Na17 O127 2.460467 1_555
Na17 O141 2.509089 1_555
Na17 O129 2.527263 1_555
Na17 O131 2.572293 1_555
Na17 O139 2.573647 1_555
Ge0 O74 1.783952 1_545
Ge0 O77 1.792970 1_555
Ge0 O4 1.937195 1_555
Ge0 O73 1.985889 1_545
Ge0 O1 2.079834 1_555
Ge0 O2 2.095503 1_545
Ge1 O6 1.764763 1_565
Ge1 O80 1.813322 1_555
Ge1 O83 1.844483 1_455
Ge1 O9 1.928862 1_455
Ge1 O78 2.096125 1_565
Ge1 O11 2.237782 1_465
Ge2 O14 1.747144 1_555
Ge2 O85 1.835646 1_455
Ge2 O13 1.926626 1_445
Ge2 O16 2.039071 1_545
Ge2 O86 2.060231 1_555
Ge2 O89 2.169354 1_445
Ge3 O87 1.793307 1_565
Ge3 O15 1.916098 1_565
Ge3 O17 1.917877 1_555
Ge3 O12 1.919252 1_555
Ge3 O84 2.009869 1_565
Ge3 O88 2.021654 1_555
Ge4 O94 1.784734 1_555
Ge4 O22 1.926616 1_545
Ge4 O20 1.932594 1_555
Ge4 O91 1.963066 1_445
Ge4 O19 1.999707 1_445
Ge4 O93 2.011352 1_455
Ge5 O90 1.810308 1_555
Ge5 O18 1.918728 1_555
Ge5 O95 1.959058 1_565
Ge5 O92 1.964791 1_565
Ge5 O23 1.984966 1_555
Ge5 O21 2.003254 1_565
Ge6 O36 1.773019 1_556
Ge6 O112 1.815122 1_555
Ge6 O38 1.830569 1_556
Ge6 O108 1.965532 1_555
Ge6 O40 2.137330 1_556
Ge6 O110 2.168541 1_555
Ge7 O43 1.769500 1_555
Ge7 O47 1.805152 1_555
Ge7 O117 1.830011 1_555
Ge7 O45 2.032198 1_555
Ge7 O115 2.043192 1_555
Ge7 O119 2.213802 1_555
Ge8 O52 1.756730 1_554
Ge8 O120 1.796889 1_555
Ge8 O50 1.901963 1_554
Ge8 O48 1.939812 1_554
Ge8 O122 2.145885 1_555
Ge8 O124 2.159411 1_555
Ge9 O49 1.774800 1_554
Ge9 O123 1.816888 1_555
Ge9 O53 1.908518 1_554
Ge9 O51 1.980904 1_554
Ge9 O125 2.060935 1_555
Ge9 O121 2.149020 1_555
Ge10 O54 1.779691 1_555
Ge10 O130 1.792477 1_555
Ge10 O56 1.956633 1_555
Ge10 O128 2.004463 1_555
Ge10 O126 2.016797 1_555
Ge10 O58 2.046636 1_555
Ge11 O57 1.774864 1_555
Ge11 O127 1.784662 1_555
Ge11 O55 1.979165 1_555
Ge11 O129 2.013445 1_555
Ge11 O59 2.053622 1_555
Ge11 O131 2.055041 1_555
O0 S0 1.485008 1_555
O0 Zn0 2.093106 1_455
O1 S1 1.493086 1_555
O2 S2 1.504381 1_555
O3 S3 1.480849 1_555
O3 Zn0 2.025653 1_565
O4 S5 1.507576 1_555
O5 S4 1.458881 1_555
O5 Zn0 2.006958 1_555
O6 Si0 1.657409 1_555
O7 S6 1.483398 1_555
O7 Zn1 2.089288 1_545
O8 S8 1.463134 1_555
O8 Zn1 1.980640 1_555
O9 S7 1.506984 1_555
O10 S9 1.476174 1_545
O10 Zn1 1.992197 1_545
O11 S10 1.470038 1_545
O12 S9 1.542800 1_555
O13 S10 1.535648 1_555
O14 Si0 1.686696 1_555
O15 S6 1.544944 1_555
O16 S7 1.506313 1_455
O17 S8 1.518516 1_555
O18 S2 1.530510 1_555
O19 S3 1.525238 1_555
O20 S4 1.515503 1_455
O21 S5 1.514078 1_555
O22 S0 1.550336 1_565
O23 S1 1.529593 1_565
O24 S11 1.468463 1_555
O24 Zn2 2.246864 1_555
O25 Si1 1.601754 1_555
O25 Zn3 1.942281 1_555
O26 S12 1.453526 1_555
O26 Zn2 2.031701 1_555
O27 Si2 1.582201 1_555
O27 Zn3 1.910295 1_555
O28 S13 1.453178 1_555
O28 Zn2 2.028870 1_555
O29 S14 1.450513 1_555
O29 Zn3 2.109498 1_555
O30 Si3 1.611965 1_555
O30 Zn4 1.955552 1_555
O31 S15 1.485487 1_555
O31 Zn5 2.067652 1_555
O32 S16 1.453130 1_555
O32 Zn4 2.071881 1_555
O33 S17 1.473563 1_555
O33 Zn5 1.990455 1_555
O34 Si4 1.590777 1_555
O34 Zn4 1.895860 1_555
O35 S18 1.466408 1_555
O35 Zn5 2.011081 1_555
O36 Si4 1.633231 1_555
O37 S18 1.471987 1_555
O37 Zn6 2.168407 1_554
O38 Si3 1.649619 1_555
O39 S15 1.453185 1_555
O39 Zn6 2.041641 1_554
O40 S16 1.483616 1_555
O41 S17 1.466576 1_555
O41 Zn6 2.133075 1_554
O42 S12 1.483503 1_555
O42 Zn7 2.123560 1_555
O43 Si2 1.638306 1_555
O44 S13 1.476700 1_555
O44 Zn7 2.089925 1_555
O45 S14 1.501047 1_555
O46 S11 1.465182 1_555
O46 Zn7 2.030382 1_555
O47 Si1 1.663139 1_555
O48 S19 1.508882 1_555
O49 Si5 1.714359 1_555
O50 S20 1.529484 1_555
O51 S21 1.522589 1_555
O52 Si6 1.683527 1_555
O53 S22 1.513820 1_555
O54 Si7 1.676553 1_555
O55 S23 1.498591 1_555
O56 S24 1.499339 1_555
O57 Si8 1.666989 1_555
O58 S25 1.504373 1_555
O59 S26 1.494301 1_555
O60 S25 1.485355 1_555
O60 Zn8 2.118056 1_555
O61 S26 1.481209 1_555
O61 Zn9 2.073824 1_555
O62 Si7 1.604074 1_555
O62 Zn8 1.861053 1_555
O63 S23 1.469910 1_555
O63 Zn9 2.021710 1_555
O64 S24 1.461423 1_555
O64 Zn8 1.992396 1_555
O65 Si8 1.589731 1_555
O65 Zn9 1.861306 1_555
O66 S20 1.461346 1_555
O66 Zn10 2.114700 1_555
O67 S21 1.474445 1_555
O67 Zn11 2.184509 1_555
O68 Si6 1.588831 1_555
O68 Zn10 1.904272 1_555
O69 S22 1.457588 1_555
O69 Zn11 2.008500 1_555
O70 S19 1.454528 1_555
O70 Zn10 2.095830 1_555
O71 Si5 1.604260 1_555
O71 Zn11 1.860939 1_555
O72 S25 1.499512 1_555
O72 Zn0 2.139141 1_465
O73 S26 1.512655 1_555
O74 Si7 1.665193 1_555
O75 S23 1.479923 1_555
O75 Zn0 2.055734 1_565
O76 S24 1.498397 1_555
O76 Zn0 2.113179 1_455
O77 Si8 1.673677 1_555
O78 S20 1.479950 1_555
O79 S21 1.495102 1_555
O79 Zn1 2.163883 1_545
O80 Si6 1.657300 1_555
O81 S22 1.492620 1_555
O81 Zn1 2.140976 1_555
O82 S19 1.476312 1_555
O82 Zn1 2.072261 1_555
O83 Si5 1.654993 1_555
O84 S11 1.518262 1_555
O85 Si1 1.684508 1_555
O86 S12 1.510088 1_555
O87 Si2 1.676182 1_555
O88 S13 1.516044 1_555
O89 S14 1.499107 1_555
O90 Si3 1.699096 1_555
O91 S15 1.523955 1_555
O92 S16 1.544221 1_555
O93 S17 1.516273 1_555
O94 Si4 1.680554 1_555
O95 S18 1.529856 1_555
O96 S9 1.472391 1_545
O96 Zn2 2.143417 1_555
O97 S10 1.485714 1_545
O97 Zn3 2.213014 1_555
O98 Si0 1.599445 1_555
O98 Zn2 1.906115 1_555
O99 S6 1.456646 1_555
O99 Zn3 2.237870 1_555
O100 S8 1.474815 1_555
O100 Zn2 2.174187 1_555
O101 S7 1.479236 1_555
O101 Zn3 2.317783 1_555
O102 S2 1.477375 1_555
O102 Zn4 2.281926 1_555
O103 S3 1.493595 1_555
O103 Zn5 2.126197 1_555
O104 S5 1.469111 1_555
O104 Zn4 2.432366 1_555
O105 S4 1.491304 1_555
O105 Zn5 2.154110 1_555
O106 S0 1.456382 1_555
O106 Zn4 2.251705 1_555
O107 S1 1.464290 1_555
O107 Zn5 2.133943 1_555
O108 S19 1.508594 1_555
O109 Si5 1.621451 1_555
O109 Zn6 1.920162 1_555
O110 S21 1.469438 1_555
O111 S20 1.469101 1_655
O111 Zn6 2.034864 1_555
O112 Si6 1.677310 1_545
O113 S22 1.475742 1_545
O113 Zn6 2.152668 1_555
O114 Si7 1.618638 1_545
O114 Zn7 1.936741 1_555
O115 S23 1.496426 1_545
O116 S24 1.479962 1_555
O116 Zn7 2.188271 1_555
O117 Si8 1.657150 1_555
O118 S26 1.464852 1_555
O118 Zn7 2.131774 1_555
O119 S25 1.468317 1_655
O120 Si4 1.668892 1_555
O121 S18 1.488345 1_555
O122 S15 1.487874 1_455
O123 Si3 1.672132 1_555
O124 S16 1.485936 1_565
O125 S17 1.503210 1_565
O126 S12 1.508799 1_565
O127 Si2 1.674386 1_565
O128 S13 1.511505 1_555
O129 S14 1.513995 1_555
O130 Si1 1.672623 1_455
O131 S11 1.507762 1_555
O132 S0 1.486471 1_565
O132 Zn8 2.255009 1_555
O133 S1 1.484703 1_565
O133 Zn9 2.327781 1_555
O134 S2 1.458751 1_555
O134 Zn8 2.137751 1_555
O135 S3 1.466371 1_555
O135 Zn9 2.173244 1_555
O136 S4 1.489009 1_455
O136 Zn8 2.234547 1_555
O137 S5 1.482598 1_555
O137 Zn9 2.282503 1_555
O138 Si0 1.625718 1_555
O138 Zn10 1.984546 1_555
O139 S6 1.485775 1_555
O139 Zn11 2.208789 1_555
O140 S7 1.476454 1_455
O140 Zn10 2.252176 1_555
O141 S8 1.488756 1_555
O141 Zn11 2.214810 1_555
O142 S9 1.460126 1_555
O142 Zn10 2.162090 1_555
O143 S10 1.472445 1_555
O143 Zn11 2.060586 1_555
