# generated using pymatgen
data_Na4Y2Si3Sn2(SO8)3
_symmetry_space_group_name_H-M   'P 1'
_cell_length_a   9.18054144
_cell_length_b   9.15141775
_cell_length_c   23.49605491
_cell_angle_alpha   90.14631491
_cell_angle_beta   89.13116879
_cell_angle_gamma   119.67663540
_symmetry_Int_Tables_number   1
_chemical_formula_structural   Na4Y2Si3Sn2(SO8)3
_chemical_formula_sum   'Na12 Y6 Si9 Sn6 S9 O72'
_cell_volume   1714.86990822
_cell_formula_units_Z   3
loop_
 _symmetry_equiv_pos_site_id
 _symmetry_equiv_pos_as_xyz
  1  'x, y, z'
loop_
 _atom_site_type_symbol
 _atom_site_label
 _atom_site_symmetry_multiplicity
 _atom_site_fract_x
 _atom_site_fract_y
 _atom_site_fract_z
 _atom_site_occupancy
  Na  Na0  1  0.99192331  0.64450303  0.25206948  1
  Na  Na1  1  0.99348194  0.35142480  0.74129445  1
  Na  Na2  1  0.66107618  0.98060212  0.59007711  1
  Na  Na3  1  0.67241331  0.69711127  0.08099108  1
  Na  Na4  1  0.33901620  0.30839451  0.90344252  1
  Na  Na5  1  0.31918639  0.01933826  0.42053982  1
  Na  Na6  1  0.00918618  0.99582999  0.50691853  1
  Na  Na7  1  0.98058436  0.97177804  0.99822446  1
  Na  Na8  1  0.64975943  0.32319584  0.82273867  1
  Na  Na9  1  0.65777413  0.34312443  0.33327909  1
  Na  Na10  1  0.32503145  0.67733973  0.17260080  1
  Na  Na11  1  0.32412054  0.66567980  0.66389386  1
  Y  Y0  1  0.99566549  0.98903322  0.35219130  1
  Y  Y1  1  0.98734638  0.98939457  0.84922235  1
  Y  Y2  1  0.65366147  0.32649364  0.68530327  1
  Y  Y3  1  0.65987723  0.33132744  0.18805710  1
  Y  Y4  1  0.32805834  0.67145684  0.01803120  1
  Y  Y5  1  0.31315693  0.65638446  0.52169606  1
  Si  Si0  1  0.29781457  0.99359404  0.25412754  1
  Si  Si1  1  0.69057322  0.70410045  0.25092026  1
  Si  Si2  1  0.29526167  0.29920224  0.75652257  1
  Si  Si3  1  0.71090021  0.00103962  0.74674552  1
  Si  Si4  1  0.96012892  0.32590762  0.58728923  1
  Si  Si5  1  0.36956389  0.04523372  0.58042223  1
  Si  Si6  1  0.96634093  0.63858130  0.08764352  1
  Si  Si7  1  0.63132981  0.66217274  0.92235813  1
  Si  Si8  1  0.02791403  0.65324224  0.41637513  1
  Sn  Sn0  1  0.01927392  0.02837742  0.64876063  1
  Sn  Sn1  1  0.99449540  0.97352926  0.15752927  1
  Sn  Sn2  1  0.68457234  0.35716100  0.98379686  1
  Sn  Sn3  1  0.68126502  0.33781126  0.48838782  1
  Sn  Sn4  1  0.32996510  0.67050491  0.31617073  1
  Sn  Sn5  1  0.37297446  0.67392006  0.80950319  1
  S  S0  1  0.00818134  0.29409923  0.24820824  1
  S  S1  1  0.01168816  0.70753211  0.74970168  1
  S  S2  1  0.67766392  0.63734374  0.58215498  1
  S  S3  1  0.67735166  0.04479137  0.08144779  1
  S  S4  1  0.36194540  0.32229050  0.08247538  1
  S  S5  1  0.03600640  0.37580928  0.91635686  1
  S  S6  1  0.34309816  0.96891581  0.91593768  1
  S  S7  1  0.62213659  0.96537552  0.41763216  1
  S  S8  1  0.34325232  0.37783473  0.41539788  1
  O  O0  1  0.21774160  0.02226512  0.31107804  1
  O  O1  1  0.81956539  0.80143574  0.30050637  1
  O  O2  1  0.98754329  0.19743931  0.29950496  1
  O  O3  1  0.21758541  0.20112997  0.81624894  1
  O  O4  1  0.98846394  0.78343746  0.80191989  1
  O  O5  1  0.81572553  0.01690001  0.80283591  1
  O  O6  1  0.79514313  0.96599063  0.68857000  1
  O  O7  1  0.17010021  0.21157772  0.70150112  1
  O  O8  1  0.03500138  0.81163049  0.69844281  1
  O  O9  1  0.76344961  0.81435915  0.18846454  1
  O  O10  1  0.02905191  0.20966514  0.19535295  1
  O  O11  1  0.17347327  0.95605461  0.19671108  1
  O  O12  1  0.88109883  0.35379185  0.64472722  1
  O  O13  1  0.48884928  0.13562543  0.63288584  1
  O  O14  1  0.65096460  0.53474097  0.63271959  1
  O  O15  1  0.87607958  0.53140837  0.14355854  1
  O  O16  1  0.65113561  0.12211774  0.13189742  1
  O  O17  1  0.47179857  0.34586047  0.13058591  1
  O  O18  1  0.43718046  0.29438868  0.02814480  1
  O  O19  1  0.83964994  0.55410411  0.03022544  1
  O  O20  1  0.69232638  0.14522792  0.02796339  1
  O  O21  1  0.45239412  0.16027034  0.51904008  1
  O  O22  1  0.69947393  0.55558072  0.52902531  1
  O  O23  1  0.83630784  0.28862970  0.53069989  1
  O  O24  1  0.54432417  0.67251781  0.98127903  1
  O  O25  1  0.13697691  0.46228543  0.96657596  1
  O  O26  1  0.31983249  0.86817998  0.96747970  1
  O  O27  1  0.54996145  0.86595472  0.46910997  1
  O  O28  1  0.33031492  0.46031922  0.46608345  1
  O  O29  1  0.15747638  0.68890902  0.46605537  1
  O  O30  1  0.11238904  0.62405091  0.35486313  1
  O  O31  1  0.51623612  0.87944871  0.36609204  1
  O  O32  1  0.36445820  0.48118696  0.36248402  1
  O  O33  1  0.10879136  0.47566879  0.86386531  1
  O  O34  1  0.35860744  0.88404745  0.86410534  1
  O  O35  1  0.49946684  0.62160810  0.86774914  1
  O  O36  1  0.01688639  0.82608134  0.41325733  1
  O  O37  1  0.79457582  0.99815153  0.40961751  1
  O  O38  1  0.19063168  0.20876251  0.41130478  1
  O  O39  1  0.02643351  0.20957462  0.91433536  1
  O  O40  1  0.19793100  0.99773387  0.91330119  1
  O  O41  1  0.81803656  0.81949471  0.91714798  1
  O  O42  1  0.95610733  0.14082762  0.58701590  1
  O  O43  1  0.17716156  0.01707120  0.58913730  1
  O  O44  1  0.83127423  0.80496342  0.58588297  1
  O  O45  1  0.96794965  0.82539296  0.08853300  1
  O  O46  1  0.83251217  0.03093724  0.08476754  1
  O  O47  1  0.19145271  0.17569019  0.09006934  1
  O  O48  1  0.70075709  0.17263978  0.74625242  1
  O  O49  1  0.48632759  0.34198566  0.75053898  1
  O  O50  1  0.86440280  0.53718309  0.74532042  1
  O  O51  1  0.68739306  0.52518336  0.24555590  1
  O  O52  1  0.86169316  0.31962979  0.24266778  1
  O  O53  1  0.48549590  0.14563666  0.24556111  1
  O  O54  1  0.62920538  0.47353854  0.92246690  1
  O  O55  1  0.86032846  0.35059275  0.92354946  1
  O  O56  1  0.49942748  0.13953119  0.92111090  1
  O  O57  1  0.62235251  0.13058532  0.42006061  1
  O  O58  1  0.49271841  0.35214081  0.41693887  1
  O  O59  1  0.83788623  0.48284369  0.42434568  1
  O  O60  1  0.35364483  0.47989722  0.07760097  1
  O  O61  1  0.15230259  0.66468675  0.08042735  1
  O  O62  1  0.53247833  0.87085462  0.07686467  1
  O  O63  1  0.36892228  0.86764426  0.57517447  1
  O  O64  1  0.53214313  0.66362672  0.57556908  1
  O  O65  1  0.15035436  0.47757693  0.58147076  1
  O  O66  1  0.28980359  0.80695155  0.25572448  1
  O  O67  1  0.50099838  0.67958074  0.25953900  1
  O  O68  1  0.16099943  0.46500519  0.25042395  1
  O  O69  1  0.28350683  0.47897310  0.75740804  1
  O  O70  1  0.16426526  0.68707928  0.75578708  1
  O  O71  1  0.51768446  0.83336092  0.75048197  1
loop_
_geom_bond_atom_site_label_1
_geom_bond_atom_site_label_2
_geom_bond_distance
_geom_bond_site_symmetry_2
Na0 O66 2.382609 1_655
Na0 O51 2.453814 1_555
Na0 O52 2.608098 1_555
Na0 O30 2.716584 1_655
Na0 O68 2.762576 1_655
Na0 O15 2.771535 1_555
Na0 O11 2.801152 1_655
Na0 O1 2.837047 1_555
Na1 O69 2.354999 1_655
Na1 O48 2.355866 1_555
Na1 O50 2.508700 1_555
Na1 O12 2.511266 1_555
Na1 O7 2.672810 1_655
Na1 O70 2.692871 1_655
Na2 O42 2.356566 1_565
Na2 O63 2.380381 1_555
Na2 O64 2.557149 1_555
Na2 O6 2.671926 1_555
Na2 O44 2.741555 1_555
Na2 O13 2.773087 1_565
Na2 O23 2.818177 1_565
Na3 O45 2.372864 1_555
Na3 O62 2.493009 1_555
Na3 O24 2.596372 1_554
Na3 O60 2.601520 1_555
Na3 O46 2.656580 1_565
Na3 O9 2.718203 1_555
Na3 O19 2.723754 1_555
Na4 O3 2.319256 1_555
Na4 O54 2.372145 1_555
Na4 O40 2.482305 1_545
Na4 O39 2.554905 1_555
Na4 O35 2.623556 1_555
Na4 O56 2.646591 1_555
Na5 O57 2.444645 1_555
Na5 O36 2.451924 1_545
Na5 O38 2.545687 1_555
Na5 O58 2.648333 1_555
Na5 O21 2.650288 1_555
Na5 O0 2.753278 1_555
Na5 O29 2.831029 1_545
Na5 O31 2.960192 1_545
Na6 O43 2.437086 1_565
Na6 O42 2.477849 1_465
Na6 O44 2.502140 1_455
Na6 O36 2.710661 1_555
Na6 O38 2.883332 1_565
Na7 O41 2.410672 1_555
Na7 O45 2.482678 1_556
Na7 O46 2.629663 1_566
Na7 O40 2.726115 1_655
Na7 O39 2.808509 1_665
Na7 O47 2.901005 1_666
Na8 O49 2.343651 1_555
Na8 O48 2.438808 1_555
Na8 O50 2.667425 1_555
Na8 O54 2.765221 1_555
Na8 O56 2.774581 1_555
Na8 O55 3.011032 1_555
Na9 O58 2.489874 1_555
Na9 O51 2.578777 1_555
Na9 O59 2.635747 1_555
Na9 O53 2.695369 1_555
Na9 O57 2.724033 1_555
Na9 O52 2.891190 1_555
Na10 O66 2.382201 1_555
Na10 O68 2.534610 1_555
Na10 O67 2.617225 1_555
Na10 O61 2.671957 1_555
Na10 O62 2.893766 1_555
Na10 O60 2.957667 1_555
Na11 O65 2.572170 1_555
Na11 O70 2.653346 1_555
Na11 O71 2.654276 1_555
Na11 O63 2.677972 1_555
Na11 O69 2.692524 1_555
Na11 O64 2.805259 1_555
O0 Si0 1.599733 1_545
O0 Y0 2.123694 1_445
O1 Si1 1.595383 1_555
O1 Y0 2.082390 1_555
O2 S0 1.450383 1_655
O2 Y0 2.308927 1_545
O3 Si2 1.620405 1_555
O3 Y1 2.173715 1_445
O4 S1 1.472308 1_655
O4 Y1 2.189962 1_555
O5 Si3 1.607244 1_555
O5 Y1 2.044469 1_545
O6 Si3 1.667561 1_565
O6 Sn0 2.053254 1_665
O7 Si2 1.661928 1_555
O7 Sn0 2.001599 1_555
O8 S1 1.483248 1_555
O8 Sn0 2.370335 1_565
O9 Si1 1.711290 1_555
O9 Sn1 2.012082 1_555
O10 S0 1.520046 1_555
O10 Sn1 2.209109 1_445
O11 Si0 1.702078 1_555
O11 Sn1 1.969708 1_455
O12 Si4 1.601477 1_555
O12 Y2 2.180690 1_555
O13 Si5 1.594293 1_555
O13 Y2 2.070202 1_555
O14 S2 1.456778 1_555
O14 Y2 2.284444 1_555
O15 Si6 1.594810 1_555
O15 Y3 2.175675 1_555
O16 S3 1.455848 1_555
O16 Y3 2.291577 1_555
O17 S4 1.469478 1_555
O17 Y3 2.263076 1_555
O18 S4 1.522527 1_555
O18 Sn2 2.283296 1_554
O19 Si6 1.709504 1_555
O19 Sn2 1.990354 1_554
O20 S3 1.522654 1_555
O20 Sn2 2.234461 1_554
O21 Si5 1.717083 1_555
O21 Sn3 2.037899 1_555
O22 S2 1.514699 1_555
O22 Sn3 2.139278 1_555
O23 Si4 1.684042 1_555
O23 Sn3 1.973957 1_555
O24 Si7 1.613766 1_555
O24 Y4 2.148651 1_556
O25 S5 1.476425 1_555
O25 Y4 2.220499 1_556
O26 S6 1.471380 1_555
O26 Y4 2.192215 1_556
O27 S7 1.454016 1_555
O27 Y5 2.394393 1_555
O28 S8 1.442938 1_555
O28 Y5 2.283263 1_555
O29 Si8 1.593620 1_555
O29 Y5 2.078537 1_555
O30 Si8 1.711973 1_555
O30 Sn4 2.025623 1_555
O31 S7 1.517854 1_555
O31 Sn4 2.183556 1_555
O32 S8 1.514768 1_555
O32 Sn4 2.202136 1_555
O33 S5 1.476099 1_555
O33 Sn5 2.523114 1_555
O34 S6 1.485283 1_555
O34 Sn5 2.365275 1_555
O35 Si7 1.687990 1_555
O35 Sn5 2.013129 1_555
O36 Si8 1.636107 1_555
O36 Y0 2.151167 1_455
O37 S7 1.467189 1_555
O37 Y0 2.304799 1_555
O38 S8 1.490995 1_555
O38 Y0 2.381912 1_445
O39 S5 1.480422 1_555
O39 Y1 2.411297 1_445
O40 S6 1.483284 1_555
O40 Y1 2.439635 1_455
O41 Si7 1.605220 1_555
O41 Y1 2.219239 1_555
O42 Si4 1.675770 1_555
O42 Sn0 2.030776 1_655
O43 Si5 1.663398 1_555
O43 Sn0 2.039726 1_555
O44 S2 1.486758 1_555
O44 Sn0 2.430923 1_665
O45 Si6 1.702405 1_555
O45 Sn1 2.049123 1_555
O46 S3 1.494486 1_555
O46 Sn1 2.503106 1_545
O47 S4 1.481569 1_555
O47 Sn1 2.412500 1_445
O48 Si3 1.618592 1_555
O48 Y2 2.202733 1_555
O49 Si2 1.600824 1_555
O49 Y2 2.207402 1_555
O50 S1 1.478284 1_655
O50 Y2 2.413366 1_555
O51 Si1 1.627685 1_555
O51 Y3 2.142575 1_555
O52 S0 1.482137 1_655
O52 Y3 2.315143 1_555
O53 Si0 1.600712 1_545
O53 Y3 2.128018 1_555
O54 Si7 1.716706 1_555
O54 Sn2 2.008793 1_555
O55 S5 1.518680 1_655
O55 Sn2 2.153440 1_555
O56 S6 1.515857 1_545
O56 Sn2 2.394548 1_555
O57 S7 1.511856 1_545
O57 Sn3 2.336968 1_555
O58 S8 1.503501 1_555
O58 Sn3 2.479052 1_555
O59 Si8 1.675716 1_655
O59 Sn3 2.036702 1_555
O60 S4 1.486327 1_555
O60 Y4 2.348962 1_555
O61 Si6 1.608730 1_455
O61 Y4 2.141589 1_555
O62 S3 1.490431 1_565
O62 Y4 2.331833 1_555
O63 Si5 1.626658 1_565
O63 Y5 2.146098 1_555
O64 S2 1.480282 1_555
O64 Y5 2.364998 1_555
O65 Si4 1.608893 1_455
O65 Y5 2.100083 1_555
O66 Si0 1.673345 1_555
O66 Sn4 2.047700 1_555
O67 Si1 1.650209 1_555
O67 Sn4 2.012704 1_555
O68 S0 1.498734 1_555
O68 Sn4 2.344886 1_555
O69 Si2 1.701229 1_555
O69 Sn5 1.980916 1_555
O70 S1 1.511084 1_555
O70 Sn5 2.362486 1_555
O71 Si3 1.676166 1_565
O71 Sn5 1.962668 1_555
