# generated using pymatgen
data_Na7(Cu6S5)2
_symmetry_space_group_name_H-M   'P 1'
_cell_length_a   3.78717200
_cell_length_b   16.16217500
_cell_length_c   16.22885257
_cell_angle_alpha   89.62609389
_cell_angle_beta   90.00000000
_cell_angle_gamma   90.00000000
_symmetry_Int_Tables_number   1
_chemical_formula_structural   Na7(Cu6S5)2
_chemical_formula_sum   'Na14 Cu24 S20'
_cell_volume   993.32965639
_cell_formula_units_Z   2
loop_
 _symmetry_equiv_pos_site_id
 _symmetry_equiv_pos_as_xyz
  1  'x, y, z'
loop_
 _atom_site_type_symbol
 _atom_site_label
 _atom_site_symmetry_multiplicity
 _atom_site_fract_x
 _atom_site_fract_y
 _atom_site_fract_z
 _atom_site_occupancy
  Na  Na0  1  0.50000000  0.50000000  0.00000000  1
  Na  Na1  1  0.00000000  0.31531300  0.89583600  1
  Na  Na2  1  0.00000000  0.68468700  0.10416400  1
  Na  Na3  1  0.00000000  0.11901400  0.29089300  1
  Na  Na4  1  0.00000000  0.88098600  0.70910700  1
  Na  Na5  1  0.50000000  0.28058000  0.40653700  1
  Na  Na6  1  0.50000000  0.71942000  0.59346300  1
  Na  Na7  1  0.50000000  0.00000000  0.00000000  1
  Na  Na8  1  0.00000000  0.19760800  0.08504900  1
  Na  Na9  1  0.00000000  0.80239200  0.91495100  1
  Na  Na10  1  0.00000000  0.39403300  0.69598300  1
  Na  Na11  1  0.00000000  0.60596700  0.30401700  1
  Na  Na12  1  0.50000000  0.20254800  0.60660300  1
  Na  Na13  1  0.50000000  0.79745200  0.39339700  1
  Cu  Cu0  1  0.50000000  0.50879300  0.58030800  1
  Cu  Cu1  1  0.50000000  0.49120700  0.41969200  1
  Cu  Cu2  1  0.00000000  0.58796100  0.50135700  1
  Cu  Cu3  1  0.00000000  0.41203900  0.49864300  1
  Cu  Cu4  1  0.50000000  0.55269200  0.73289400  1
  Cu  Cu5  1  0.50000000  0.44730800  0.26710600  1
  Cu  Cu6  1  0.00000000  0.67634800  0.75204400  1
  Cu  Cu7  1  0.00000000  0.32365200  0.24795600  1
  Cu  Cu8  1  0.50000000  0.65076500  0.86569700  1
  Cu  Cu9  1  0.50000000  0.34923500  0.13430300  1
  Cu  Cu10  1  0.00000000  0.52367500  0.84711100  1
  Cu  Cu11  1  0.00000000  0.47632500  0.15288900  1
  Cu  Cu12  1  0.50000000  0.07439500  0.44910000  1
  Cu  Cu13  1  0.50000000  0.92560500  0.55090000  1
  Cu  Cu14  1  0.00000000  0.95370700  0.43424200  1
  Cu  Cu15  1  0.00000000  0.04629300  0.56575800  1
  Cu  Cu16  1  0.50000000  0.98667000  0.19663700  1
  Cu  Cu17  1  0.50000000  0.01333000  0.80336300  1
  Cu  Cu18  1  0.00000000  0.91269100  0.27782300  1
  Cu  Cu19  1  0.00000000  0.08730900  0.72217700  1
  Cu  Cu20  1  0.50000000  0.81281100  0.19421600  1
  Cu  Cu21  1  0.50000000  0.18718900  0.80578400  1
  Cu  Cu22  1  0.00000000  0.88847500  0.10748500  1
  Cu  Cu23  1  0.00000000  0.11152500  0.89251500  1
  S  S0  1  0.00000000  0.57782900  0.64584100  1
  S  S1  1  0.00000000  0.42217100  0.35415900  1
  S  S2  1  0.50000000  0.36970000  0.56201600  1
  S  S3  1  0.50000000  0.63030000  0.43798400  1
  S  S4  1  0.50000000  0.44381600  0.82456800  1
  S  S5  1  0.50000000  0.55618400  0.17543200  1
  S  S6  1  0.50000000  0.75684200  0.76756600  1
  S  S7  1  0.50000000  0.24315800  0.23243400  1
  S  S8  1  0.00000000  0.62650100  0.94188600  1
  S  S9  1  0.00000000  0.37349900  0.05811400  1
  S  S10  1  0.50000000  0.97777600  0.34419600  1
  S  S11  1  0.50000000  0.02222400  0.65580400  1
  S  S12  1  0.00000000  0.15337900  0.47148000  1
  S  S13  1  0.00000000  0.84662100  0.52852000  1
  S  S14  1  0.00000000  0.02927400  0.13558300  1
  S  S15  1  0.00000000  0.97072600  0.86441700  1
  S  S16  1  0.00000000  0.77350900  0.26278900  1
  S  S17  1  0.00000000  0.22649100  0.73721100  1
  S  S18  1  0.50000000  0.17445800  0.94676700  1
  S  S19  1  0.50000000  0.82554200  0.05323300  1
loop_
_geom_bond_atom_site_label_1
_geom_bond_atom_site_label_2
_geom_bond_distance
_geom_bond_site_symmetry_2
Na0 S8 2.937702 1_654
Na0 S9 2.937702 1_555
Na0 S9 2.937702 1_655
Na0 S8 2.937702 1_554
Na0 S5 2.994004 1_555
Na0 S4 2.994004 1_554
Na1 S9 2.802227 1_556
Na1 S17 2.955687 1_555
Na1 S4 3.034056 1_455
Na1 S4 3.034056 1_555
Na1 S18 3.070318 1_455
Na1 S18 3.070318 1_555
Na2 S8 2.802227 1_554
Na2 S16 2.955687 1_555
Na2 S5 3.034056 1_455
Na2 S5 3.034056 1_555
Na2 S19 3.070318 1_555
Na2 S19 3.070318 1_455
Na3 S7 2.913192 1_555
Na3 S7 2.913192 1_455
Na3 S14 2.916212 1_555
Na3 S12 2.986444 1_555
Na3 S10 3.085285 1_445
Na3 S10 3.085285 1_545
Na4 S6 2.913192 1_455
Na4 S6 2.913192 1_555
Na4 S15 2.916212 1_555
Na4 S13 2.986444 1_555
Na4 S11 3.085285 1_465
Na4 S11 3.085285 1_565
Na5 S7 2.893357 1_555
Na5 S2 2.913568 1_555
Na5 S12 2.982398 1_655
Na5 S12 2.982398 1_555
Na5 S1 3.085401 1_555
Na5 S1 3.085401 1_655
Na6 S6 2.893357 1_555
Na6 S3 2.913568 1_555
Na6 S13 2.982398 1_655
Na6 S13 2.982398 1_555
Na6 S0 3.085401 1_655
Na6 S0 3.085401 1_555
Na7 S14 2.943582 1_655
Na7 S15 2.943582 1_644
Na7 S14 2.943582 1_555
Na7 S15 2.943582 1_544
Na7 S18 2.943605 1_554
Na7 S19 2.943605 1_545
Na8 S14 2.836434 1_555
Na8 S9 2.873371 1_555
Na8 S18 2.961902 1_554
Na8 S18 2.961902 1_454
Na8 S7 3.141935 1_555
Na8 S7 3.141935 1_455
Na9 S15 2.836434 1_555
Na9 S8 2.873371 1_555
Na9 S19 2.961902 1_556
Na9 S19 2.961902 1_456
Na9 S6 3.141935 1_455
Na9 S6 3.141935 1_555
Na10 S17 2.785039 1_555
Na10 S2 2.911758 1_555
Na10 S2 2.911758 1_455
Na10 S4 2.934220 1_555
Na10 S4 2.934220 1_455
Na10 S0 3.074860 1_555
Na11 S16 2.785039 1_555
Na11 S3 2.911758 1_455
Na11 S3 2.911758 1_555
Na11 S5 2.934220 1_455
Na11 S5 2.934220 1_555
Na11 S1 3.074860 1_555
Na12 S2 2.792203 1_555
Na12 S17 2.870348 1_555
Na12 S17 2.870348 1_655
Na12 S12 3.008105 1_555
Na12 S12 3.008105 1_655
Na12 S11 3.016800 1_555
Na13 S3 2.792203 1_555
Na13 S16 2.870348 1_655
Na13 S16 2.870348 1_555
Na13 S13 3.008105 1_555
Na13 S13 3.008105 1_655
Na13 S10 3.016800 1_555
Cu0 S2 2.269481 1_555
Cu0 S0 2.444829 1_655
Cu0 S0 2.444829 1_555
Cu1 S3 2.269481 1_555
Cu1 S1 2.444829 1_655
Cu1 S1 2.444829 1_555
Cu2 S3 2.258869 1_555
Cu2 S3 2.258869 1_455
Cu2 S0 2.349454 1_555
Cu3 S2 2.258869 1_455
Cu3 S2 2.258869 1_555
Cu3 S1 2.349454 1_555
Cu4 S4 2.296894 1_555
Cu4 S0 2.395652 1_655
Cu4 S0 2.395652 1_555
Cu5 S5 2.296894 1_555
Cu5 S1 2.395652 1_655
Cu5 S1 2.395652 1_555
Cu6 S6 2.312119 1_455
Cu6 S6 2.312119 1_555
Cu6 S0 2.354106 1_555
Cu7 S7 2.312119 1_455
Cu7 S7 2.312119 1_555
Cu7 S1 2.354106 1_555
Cu8 S8 2.293897 1_555
Cu8 S8 2.293897 1_655
Cu8 S6 2.332355 1_555
Cu9 S9 2.293897 1_655
Cu9 S9 2.293897 1_555
Cu9 S7 2.332355 1_555
Cu10 S8 2.271776 1_555
Cu10 S4 2.321975 1_455
Cu10 S4 2.321975 1_555
Cu11 S9 2.271776 1_555
Cu11 S5 2.321975 1_455
Cu11 S5 2.321975 1_555
Cu12 S12 2.313703 1_655
Cu12 S12 2.313703 1_555
Cu12 S10 2.317675 1_545
Cu13 S13 2.313703 1_555
Cu13 S13 2.313703 1_655
Cu13 S11 2.317675 1_565
Cu14 S13 2.302581 1_555
Cu14 S10 2.421797 1_555
Cu14 S10 2.421797 1_455
Cu15 S12 2.302581 1_555
Cu15 S11 2.421797 1_455
Cu15 S11 2.421797 1_555
Cu16 S14 2.243358 1_665
Cu16 S14 2.243358 1_565
Cu16 S10 2.398087 1_555
Cu17 S15 2.243358 1_645
Cu17 S15 2.243358 1_545
Cu17 S11 2.398087 1_555
Cu18 S16 2.264259 1_555
Cu18 S10 2.422241 1_555
Cu18 S10 2.422241 1_455
Cu19 S17 2.264259 1_555
Cu19 S11 2.422241 1_555
Cu19 S11 2.422241 1_455
Cu20 S16 2.284379 1_655
Cu20 S16 2.284379 1_555
Cu20 S19 2.295888 1_555
Cu21 S17 2.284379 1_555
Cu21 S17 2.284379 1_655
Cu21 S18 2.295888 1_555
Cu22 S14 2.323772 1_565
Cu22 S19 2.325319 1_555
Cu22 S19 2.325319 1_455
Cu23 S15 2.323772 1_545
Cu23 S18 2.325319 1_555
Cu23 S18 2.325319 1_455
