# generated using pymatgen
data_RbCuCl3
_symmetry_space_group_name_H-M   'P 1'
_cell_length_a   6.22716955
_cell_length_b   7.04645449
_cell_length_c   11.80800118
_cell_angle_alpha   90.00000000
_cell_angle_beta   90.00000000
_cell_angle_gamma   90.00000000
_symmetry_Int_Tables_number   1
_chemical_formula_structural   RbCuCl3
_chemical_formula_sum   'Rb4 Cu4 Cl12'
_cell_volume   518.12879617
_cell_formula_units_Z   4
loop_
 _symmetry_equiv_pos_site_id
 _symmetry_equiv_pos_as_xyz
  1  'x, y, z'
loop_
 _atom_site_type_symbol
 _atom_site_label
 _atom_site_symmetry_multiplicity
 _atom_site_fract_x
 _atom_site_fract_y
 _atom_site_fract_z
 _atom_site_occupancy
  Rb  Rb0  1  0.25000000  0.50000000  0.83836142  1
  Rb  Rb1  1  0.75000000  0.00000000  0.66163858  1
  Rb  Rb2  1  0.75000000  0.50000000  0.16163858  1
  Rb  Rb3  1  0.25000000  0.00000000  0.33836142  1
  Cu  Cu0  1  0.50000000  0.00000000  0.00000000  1
  Cu  Cu1  1  0.00000000  0.50000000  0.50000000  1
  Cu  Cu2  1  0.50000000  0.50000000  0.50000000  1
  Cu  Cu3  1  0.00000000  0.00000000  0.00000000  1
  Cl  Cl0  1  0.75000000  0.50000000  0.64754433  1
  Cl  Cl1  1  0.25000000  0.00000000  0.85245567  1
  Cl  Cl2  1  0.25000000  0.50000000  0.35245567  1
  Cl  Cl3  1  0.75000000  0.00000000  0.14754433  1
  Cl  Cl4  1  0.68276358  0.75776770  0.91415709  1
  Cl  Cl5  1  0.18276358  0.74223230  0.58584291  1
  Cl  Cl6  1  0.31723642  0.25776770  0.58584291  1
  Cl  Cl7  1  0.81723642  0.24223230  0.91415709  1
  Cl  Cl8  1  0.18276358  0.75776770  0.08584291  1
  Cl  Cl9  1  0.68276358  0.74223230  0.41415709  1
  Cl  Cl10  1  0.81723642  0.25776770  0.41415709  1
  Cl  Cl11  1  0.31723642  0.24223230  0.08584291  1
loop_
_geom_bond_atom_site_label_1
_geom_bond_atom_site_label_2
_geom_bond_distance
_geom_bond_site_symmetry_2
Cl0 Cu1 2.336424 1_655
Cl0 Cu2 2.336424 1_555
Cl0 Rb1 3.527156 1_565
Cl0 Rb1 3.527156 1_555
Cl0 Rb0 3.843329 1_655
Cl0 Rb0 3.843329 1_555
Cl1 Cu3 2.336424 1_556
Cl1 Cu0 2.336424 1_556
Cl1 Rb0 3.527156 1_545
Cl1 Rb0 3.527156 1_555
Cl1 Rb1 3.843329 1_455
Cl1 Rb1 3.843329 1_555
Cl2 Cu1 2.336424 1_555
Cl2 Cu2 2.336424 1_555
Cl2 Rb3 3.527156 1_555
Cl2 Rb3 3.527156 1_565
Cl2 Rb2 3.843329 1_555
Cl2 Rb2 3.843329 1_455
Cl3 Cu0 2.336424 1_555
Cl3 Cu3 2.336424 1_655
Cl3 Rb2 3.527156 1_545
Cl3 Rb2 3.527156 1_555
Cl3 Rb3 3.843329 1_655
Cl3 Rb3 3.843329 1_555
Cl4 Cu0 2.288265 1_566
Cl4 Cu3 2.800612 1_666
Cl4 Rb0 3.370843 1_555
Cl4 Rb1 3.461142 1_565
Cl4 Rb2 3.466127 1_556
Cl5 Cu1 2.288265 1_555
Cl5 Cu2 2.800612 1_555
Cl5 Rb1 3.370843 1_465
Cl5 Rb0 3.461142 1_555
Cl5 Rb3 3.466127 1_565
Cl6 Cu2 2.288265 1_555
Cl6 Cu1 2.800612 1_555
Cl6 Rb1 3.370843 1_555
Cl6 Rb0 3.461142 1_555
Cl6 Rb3 3.466127 1_555
Cl7 Cu3 2.288265 1_656
Cl7 Cu0 2.800612 1_556
Cl7 Rb0 3.370843 1_655
Cl7 Rb1 3.461142 1_555
Cl7 Rb2 3.466127 1_556
Cl8 Cu3 2.288265 1_565
Cl8 Cu0 2.800612 1_565
Cl8 Rb2 3.370843 1_455
Cl8 Rb3 3.461142 1_565
Cl8 Rb0 3.466127 1_554
Cl9 Cu2 2.288265 1_555
Cl9 Cu1 2.800612 1_655
Cl9 Rb3 3.370843 1_565
Cl9 Rb2 3.461142 1_555
Cl9 Rb1 3.466127 1_565
Cl10 Cu1 2.288265 1_655
Cl10 Cu2 2.800612 1_555
Cl10 Rb3 3.370843 1_655
Cl10 Rb2 3.461142 1_555
Cl10 Rb1 3.466127 1_555
Cl11 Cu0 2.288265 1_555
Cl11 Cu3 2.800612 1_555
Cl11 Rb2 3.370843 1_555
Cl11 Rb3 3.461142 1_555
Cl11 Rb0 3.466127 1_554
