# generated using pymatgen
data_P4Se5
_symmetry_space_group_name_H-M   'P 1'
_cell_length_a   6.81272973
_cell_length_b   11.48749228
_cell_length_c   13.19550120
_cell_angle_alpha   90.00000000
_cell_angle_beta   90.00000000
_cell_angle_gamma   90.00000000
_symmetry_Int_Tables_number   1
_chemical_formula_structural   P4Se5
_chemical_formula_sum   'P16 Se20'
_cell_volume   1032.69549697
_cell_formula_units_Z   4
loop_
 _symmetry_equiv_pos_site_id
 _symmetry_equiv_pos_as_xyz
  1  'x, y, z'
loop_
 _atom_site_type_symbol
 _atom_site_label
 _atom_site_symmetry_multiplicity
 _atom_site_fract_x
 _atom_site_fract_y
 _atom_site_fract_z
 _atom_site_occupancy
  P  P0  1  0.49034707  0.46999412  0.94087186  1
  P  P1  1  0.50965293  0.96999412  0.05912814  1
  P  P2  1  0.00965293  0.46999412  0.44087186  1
  P  P3  1  0.99034707  0.96999412  0.55912814  1
  P  P4  1  0.79660261  0.52017163  0.89165754  1
  P  P5  1  0.20339739  0.02017163  0.10834246  1
  P  P6  1  0.70339739  0.52017163  0.39165754  1
  P  P7  1  0.29660261  0.02017163  0.60834246  1
  P  P8  1  0.40010677  0.65149613  0.90189882  1
  P  P9  1  0.59989323  0.15149613  0.09810118  1
  P  P10  1  0.09989323  0.65149613  0.40189882  1
  P  P11  1  0.90010677  0.15149613  0.59810118  1
  P  P12  1  0.46095323  0.48588617  0.68308280  1
  P  P13  1  0.53904677  0.98588617  0.31691720  1
  P  P14  1  0.03904677  0.48588617  0.18308280  1
  P  P15  1  0.96095323  0.98588617  0.81691720  1
  Se  Se0  1  0.36402086  0.36739999  0.81451534  1
  Se  Se1  1  0.63597914  0.86739999  0.18548466  1
  Se  Se2  1  0.13597914  0.36739999  0.31451534  1
  Se  Se3  1  0.86402086  0.86739999  0.68548466  1
  Se  Se4  1  0.78541868  0.49815379  0.72009561  1
  Se  Se5  1  0.21458132  0.99815379  0.27990439  1
  Se  Se6  1  0.71458132  0.49815379  0.22009561  1
  Se  Se7  1  0.28541868  0.99815379  0.77990439  1
  Se  Se8  1  0.32882827  0.65798801  0.73410412  1
  Se  Se9  1  0.67117173  0.15798801  0.26589588  1
  Se  Se10  1  0.17117173  0.65798801  0.23410412  1
  Se  Se11  1  0.82882827  0.15798801  0.76589588  1
  Se  Se12  1  0.71407138  0.71048702  0.92936498  1
  Se  Se13  1  0.28592862  0.21048702  0.07063502  1
  Se  Se14  1  0.78592862  0.71048702  0.42936498  1
  Se  Se15  1  0.21407138  0.21048702  0.57063502  1
  Se  Se16  1  0.18429356  0.74222214  0.98532089  1
  Se  Se17  1  0.81570644  0.24222214  0.01467911  1
  Se  Se18  1  0.31570644  0.74222214  0.48532089  1
  Se  Se19  1  0.68429356  0.24222214  0.51467911  1
loop_
_geom_bond_atom_site_label_1
_geom_bond_atom_site_label_2
_geom_bond_distance
_geom_bond_site_symmetry_2
P0 Se0 2.215778 1_555
P0 P8 2.233756 1_555
P0 P4 2.259911 1_555
P1 Se1 2.215778 1_555
P1 P9 2.233756 1_565
P1 P5 2.259911 1_565
P2 Se2 2.215778 1_555
P2 P6 2.259911 1_455
P3 Se3 2.215778 1_555
P3 P7 2.259911 1_665
P4 Se4 2.279205 1_555
P4 Se12 2.311577 1_555
P5 Se5 2.279205 1_545
P5 Se13 2.311577 1_555
P6 Se6 2.279205 1_555
P6 Se14 2.311577 1_555
P7 Se7 2.279205 1_545
P7 Se15 2.311577 1_555
P8 Se16 2.111795 1_555
P8 Se8 2.267987 1_555
P8 Se12 2.272819 1_555
P9 Se17 2.111795 1_555
P9 Se9 2.267987 1_555
P9 Se13 2.272819 1_555
P10 Se18 2.111795 1_555
P10 P2 2.233756 1_555
P10 Se10 2.267987 1_555
P10 Se14 2.272819 1_455
P11 Se19 2.111795 1_555
P11 P3 2.233756 1_545
P11 Se11 2.267987 1_555
P11 Se15 2.272819 1_655
P12 Se4 2.268190 1_555
P12 Se8 2.274227 1_555
P12 Se0 2.301428 1_555
P13 Se5 2.268190 1_555
P13 Se9 2.274227 1_565
P13 Se1 2.301428 1_555
P14 Se6 2.268190 1_455
P14 Se10 2.274227 1_555
P14 Se2 2.301428 1_555
P15 Se7 2.268190 1_655
P15 Se11 2.274227 1_565
P15 Se3 2.301428 1_555
