# generated using pymatgen
data_Na4Mg(WO4)2
_symmetry_space_group_name_H-M   'P 1'
_cell_length_a   6.56028938
_cell_length_b   6.56028938
_cell_length_c   6.71828687
_cell_angle_alpha   59.09790876
_cell_angle_beta   59.09790876
_cell_angle_gamma   59.17359731
_symmetry_Int_Tables_number   1
_chemical_formula_structural   Na4Mg(WO4)2
_chemical_formula_sum   'Na4 Mg1 W2 O8'
_cell_volume   200.36449963
_cell_formula_units_Z   1
loop_
 _symmetry_equiv_pos_site_id
 _symmetry_equiv_pos_as_xyz
  1  'x, y, z'
loop_
 _atom_site_type_symbol
 _atom_site_label
 _atom_site_symmetry_multiplicity
 _atom_site_fract_x
 _atom_site_fract_y
 _atom_site_fract_z
 _atom_site_occupancy
  Na  Na0  1  0.00878400  0.00878400  0.51649046  1
  Na  Na1  1  0.89791596  0.45498686  0.06485950  1
  Na  Na2  1  0.45498686  0.89791596  0.06485950  1
  Na  Na3  1  0.00981647  0.00981647  0.94392508  1
  Mg  Mg0  1  0.42407722  0.42407722  0.81619821  1
  W  W0  1  0.31723508  0.31723508  0.42255419  1
  W  W1  1  0.73707471  0.73707471  0.50281923  1
  O  O0  1  0.27075948  0.27075948  0.74909353  1
  O  O1  1  0.16274951  0.67629966  0.31963332  1
  O  O2  1  0.67629966  0.16274951  0.31963332  1
  O  O3  1  0.26993466  0.26993466  0.19051293  1
  O  O4  1  0.76978280  0.76978280  0.19382554  1
  O  O5  1  0.79972166  0.36164674  0.65921476  1
  O  O6  1  0.36164674  0.79972166  0.65921476  1
  O  O7  1  0.76921520  0.76921520  0.74716568  1
loop_
_geom_bond_atom_site_label_1
_geom_bond_atom_site_label_2
_geom_bond_distance
_geom_bond_site_symmetry_2
Na0 O7 2.206763 1_445
Na0 O6 2.415448 1_545
Na0 O5 2.415448 1_455
Na0 O3 2.442728 1_555
Na0 O2 2.619145 1_455
Na0 O1 2.619145 1_545
Na1 O4 2.243394 1_555
Na1 O7 2.250727 1_554
Na1 O2 2.376757 1_555
Na1 O3 2.483891 1_655
Na1 O0 2.493560 1_654
Na2 O4 2.243394 1_555
Na2 O7 2.250727 1_554
Na2 O1 2.376757 1_555
Na2 O3 2.483891 1_565
Na2 O0 2.493560 1_564
Na3 O4 2.210954 1_446
Na3 O5 2.408011 1_455
Na3 O6 2.408011 1_545
Na3 O0 2.444288 1_555
Na3 O2 2.616052 1_456
Na3 O1 2.616052 1_546
Mg0 O5 2.023037 1_555
Mg0 O6 2.023037 1_555
Mg0 O3 2.047712 1_556
Mg0 O0 2.048140 1_555
O0 W0 1.928686 1_555
O1 W0 1.911558 1_555
O1 W1 2.303203 1_455
O2 W0 1.911558 1_555
O2 W1 2.303203 1_545
O3 W0 1.927494 1_555
O4 W1 1.879790 1_555
O5 W1 2.021620 1_555
O6 W1 2.021620 1_555
O7 W1 1.881582 1_555
