# generated using pymatgen
data_Na10La8Si5S7O48
_symmetry_space_group_name_H-M   'P 1'
_cell_length_a   19.31929537
_cell_length_b   9.65755720
_cell_length_c   24.95546154
_cell_angle_alpha   90.02985164
_cell_angle_beta   89.65602548
_cell_angle_gamma   119.94802562
_symmetry_Int_Tables_number   1
_chemical_formula_structural   Na10La8Si5S7O48
_chemical_formula_sum   'Na30 La24 Si15 S21 O144'
_cell_volume   4034.33932808
_cell_formula_units_Z   3
loop_
 _symmetry_equiv_pos_site_id
 _symmetry_equiv_pos_as_xyz
  1  'x, y, z'
loop_
 _atom_site_type_symbol
 _atom_site_label
 _atom_site_symmetry_multiplicity
 _atom_site_fract_x
 _atom_site_fract_y
 _atom_site_fract_z
 _atom_site_occupancy
  Na  Na0  1  0.33035791  0.00106905  0.24892140  1
  Na  Na1  1  0.82928432  -0.00001678  0.24958867  1
  Na  Na2  1  0.18201486  0.38003121  0.24233359  1
  Na  Na3  1  0.68214693  0.38087335  0.24316164  1
  Na  Na4  1  0.99139614  0.61949267  0.25736803  1
  Na  Na5  1  0.49272833  0.62018863  0.25820400  1
  Na  Na6  1  0.83078205  0.65711202  0.74800937  1
  Na  Na7  1  0.99090672  0.36411681  0.75737436  1
  Na  Na8  1  0.49331920  0.34959252  0.75720032  1
  Na  Na9  1  0.17950706  0.98036921  0.74502069  1
  Na  Na10  1  0.02127502  0.71571665  0.58560938  1
  Na  Na11  1  0.32748456  0.96892249  0.59111491  1
  Na  Na12  1  0.02451279  0.32996820  0.08362179  1
  Na  Na13  1  0.52437612  0.32965939  0.08448180  1
  Na  Na14  1  0.15715826  0.29884161  0.92403260  1
  Na  Na15  1  0.65982526  0.30103191  0.92482252  1
  Na  Na16  1  0.15811837  0.01714839  0.42452058  1
  Na  Na17  1  0.65857903  0.01613014  0.42574759  1
  Na  Na18  1  0.00301338  0.99512435  0.50055271  1
  Na  Na19  1  0.51181801  0.98919443  0.49953267  1
  Na  Na20  1  0.00613966  0.01495447  0.99978576  1
  Na  Na21  1  0.50609319  0.01164282  0.00240897  1
  Na  Na22  1  0.34604722  0.33044451  0.83702776  1
  Na  Na23  1  0.84993934  0.33034915  0.83114783  1
  Na  Na24  1  0.35356336  0.36866353  0.33320715  1
  Na  Na25  1  0.85218816  0.36670516  0.33474516  1
  Na  Na26  1  0.17429249  0.64962905  0.16630258  1
  Na  Na27  1  0.67434716  0.64966671  0.16741077  1
  Na  Na28  1  0.17197602  0.68515565  0.67207245  1
  Na  Na29  1  0.67932978  0.71323211  0.66242892  1
  La  La0  1  0.98958163  0.98651003  0.34906068  1
  La  La1  1  0.49064458  0.98816974  0.34909627  1
  La  La2  1  0.99114676  0.99341358  0.84900013  1
  La  La3  1  0.48997567  0.00370107  0.85000834  1
  La  La4  1  0.99914150  0.99518506  0.65190760  1
  La  La5  1  0.50643171  0.99753841  0.64966958  1
  La  La6  1  0.00096788  0.00431124  0.15150263  1
  La  La7  1  0.50115081  0.00442679  0.15184366  1
  La  La8  1  0.32800967  0.32253929  0.67983644  1
  La  La9  1  0.82611519  0.30762165  0.68299326  1
  La  La10  1  0.33066175  0.34424982  0.17995418  1
  La  La11  1  0.83038328  0.34379223  0.17981977  1
  La  La12  1  0.33492978  0.33242160  0.98388590  1
  La  La13  1  0.83609169  0.33332137  0.98326814  1
  La  La14  1  0.33862404  0.34700891  0.48330989  1
  La  La15  1  0.83435850  0.33704510  0.48412300  1
  La  La16  1  0.16601309  0.65507529  0.01588210  1
  La  La17  1  0.66595779  0.65531733  0.01651620  1
  La  La18  1  0.16122290  0.66529787  0.51426443  1
  La  La19  1  0.66150430  0.67854253  0.51844888  1
  La  La20  1  0.15959100  0.65030163  0.31935099  1
  La  La21  1  0.65972557  0.64993303  0.32046587  1
  La  La22  1  0.16320202  0.66868810  0.81746548  1
  La  La23  1  0.66622630  0.67948980  0.81933648  1
  Si  Si0  1  0.34876536  0.70002972  0.24921686  1
  Si  Si1  1  0.84858599  0.69976637  0.24903319  1
  Si  Si2  1  0.99821268  0.29911840  0.24831967  1
  Si  Si3  1  0.49830776  0.29968551  0.24835637  1
  Si  Si4  1  0.99847607  0.69689489  0.74833764  1
  Si  Si5  1  0.35016241  0.00384816  0.74517530  1
  Si  Si6  1  0.84915888  0.99481303  0.74968104  1
  Si  Si7  1  0.18245539  0.03022347  0.58017538  1
  Si  Si8  1  0.68139558  0.03254599  0.58009977  1
  Si  Si9  1  0.17965056  0.33064554  0.08185267  1
  Si  Si10  1  0.67959303  0.33000600  0.08144975  1
  Si  Si11  1  0.01655459  0.36240520  0.91651380  1
  Si  Si12  1  0.51695995  0.36721287  0.91534008  1
  Si  Si13  1  0.01479095  0.67055038  0.41650247  1
  Si  Si14  1  0.51617894  0.67172097  0.41447721  1
  S  S0  1  0.15034295  0.99975226  0.25163184  1
  S  S1  1  0.65047639  0.99943232  0.25141337  1
  S  S2  1  0.14948436  0.29801231  0.75118315  1
  S  S3  1  0.64862417  0.30278763  0.75215789  1
  S  S4  1  0.49906197  0.69575197  0.75068349  1
  S  S5  1  0.48206399  0.32912868  0.58476877  1
  S  S6  1  0.98362070  0.33524140  0.58383303  1
  S  S7  1  0.33297773  0.63772181  0.58366684  1
  S  S8  1  0.83318112  0.63162112  0.58489704  1
  S  S9  1  0.48448470  0.63341513  0.08307407  1
  S  S10  1  0.98465240  0.63357955  0.08327667  1
  S  S11  1  0.33336549  0.03426149  0.08461073  1
  S  S12  1  0.83316647  0.03421275  0.08463321  1
  S  S13  1  0.31521507  0.66239438  0.91624474  1
  S  S14  1  0.81416708  0.66126140  0.91591755  1
  S  S15  1  0.16720793  0.97157395  0.91649940  1
  S  S16  1  0.66573881  0.97119199  0.91767992  1
  S  S17  1  0.31426689  0.96763164  0.41735114  1
  S  S18  1  0.81391396  0.96654256  0.41612881  1
  S  S19  1  0.16711153  0.36032176  0.41644272  1
  S  S20  1  0.66685142  0.36172279  0.41714567  1
  O  O0  1  0.11348853  0.02339235  0.30045787  1
  O  O1  1  0.61354504  0.02342003  0.30022087  1
  O  O2  1  0.40651643  0.78013317  0.30125126  1
  O  O3  1  0.90669050  0.77917703  0.30102438  1
  O  O4  1  0.48691326  0.18314726  0.29934817  1
  O  O5  1  0.98770102  0.18363704  0.29943680  1
  O  O6  1  0.11308337  0.20195261  0.80037759  1
  O  O7  1  0.61153509  0.20543549  0.80095325  1
  O  O8  1  0.49263676  0.77734025  0.79896430  1
  O  O9  1  0.98858710  0.79306493  0.79918075  1
  O  O10  1  0.40936904  0.03240307  0.79673114  1
  O  O11  1  0.90522112  0.02493208  0.80237407  1
  O  O12  1  0.39425602  0.98939777  0.69050817  1
  O  O13  1  0.89284665  0.96960040  0.69697510  1
  O  O14  1  0.09967430  0.21905230  0.70354688  1
  O  O15  1  0.59914858  0.22128396  0.70458041  1
  O  O16  1  0.01449097  0.80525846  0.69345259  1
  O  O17  1  0.50830138  0.79141748  0.70202522  1
  O  O18  1  0.39331935  0.81339451  0.19703438  1
  O  O19  1  0.89347990  0.81355843  0.19702823  1
  O  O20  1  0.01371571  0.22241558  0.19350832  1
  O  O21  1  0.51325740  0.22225588  0.19345153  1
  O  O22  1  0.09986891  0.97584767  0.20411677  1
  O  O23  1  0.59995862  0.97580896  0.20394230  1
  O  O24  1  0.44526516  0.35156496  0.63422723  1
  O  O25  1  0.94653777  0.35661623  0.63312846  1
  O  O26  1  0.23631249  0.11635689  0.63490129  1
  O  O27  1  0.73492292  0.12561590  0.63271834  1
  O  O28  1  0.32599876  0.54314295  0.63204437  1
  O  O29  1  0.82577306  0.54168089  0.63482515  1
  O  O30  1  0.44796867  0.53884892  0.13291952  1
  O  O31  1  0.94804575  0.53873141  0.13308033  1
  O  O32  1  0.32533204  0.10860989  0.13468661  1
  O  O33  1  0.82494715  0.10817114  0.13472025  1
  O  O34  1  0.22911431  0.34412499  0.13741880  1
  O  O35  1  0.72895734  0.34391535  0.13709680  1
  O  O36  1  0.22834340  0.32274270  0.02820737  1
  O  O37  1  0.72788916  0.32238286  0.02770029  1
  O  O38  1  0.43438710  0.54853135  0.03632802  1
  O  O39  1  0.93444278  0.54884450  0.03652267  1
  O  O40  1  0.34288877  0.13809628  0.03780232  1
  O  O41  1  0.84260458  0.13793491  0.03784169  1
  O  O42  1  0.23099093  0.13772433  0.52731035  1
  O  O43  1  0.72439976  0.13078446  0.52412609  1
  O  O44  1  0.34203831  0.55857766  0.53539218  1
  O  O45  1  0.84334114  0.54811619  0.53782495  1
  O  O46  1  0.43187342  0.31361183  0.53775828  1
  O  O47  1  0.93477303  0.31992646  0.53622278  1
  O  O48  1  0.27754835  0.68482660  0.96486029  1
  O  O49  1  0.77341764  0.68092218  0.96330994  1
  O  O50  1  0.07210932  0.45643989  0.96979048  1
  O  O51  1  0.57254212  0.45627534  0.96866915  1
  O  O52  1  0.16154315  0.87438396  0.96376647  1
  O  O53  1  0.65898075  0.87488817  0.96551909  1
  O  O54  1  0.27434921  0.86940124  0.46573680  1
  O  O55  1  0.77255458  0.86492887  0.46311477  1
  O  O56  1  0.16086969  0.44634585  0.46348519  1
  O  O57  1  0.66070700  0.44867113  0.46373057  1
  O  O58  1  0.07076497  0.68782987  0.46959092  1
  O  O59  1  0.57578903  0.69008386  0.46445554  1
  O  O60  1  0.05898233  0.65552211  0.36137954  1
  O  O61  1  0.55547634  0.65419402  0.35739620  1
  O  O62  1  0.26778680  0.88770572  0.36843627  1
  O  O63  1  0.76947860  0.89083823  0.36595629  1
  O  O64  1  0.17658569  0.45279168  0.36668636  1
  O  O65  1  0.67590856  0.45186796  0.36662444  1
  O  O66  1  0.06089903  0.46571733  0.86141084  1
  O  O67  1  0.56133772  0.46912301  0.86010776  1
  O  O68  1  0.17645403  0.89791970  0.86663880  1
  O  O69  1  0.67583570  0.89526172  0.86890461  1
  O  O70  1  0.26740679  0.64739259  0.86818944  1
  O  O71  1  0.76847336  0.64798409  0.86656500  1
  O  O72  1  0.01889138  0.84634653  0.41510288  1
  O  O73  1  0.51802896  0.84548629  0.41459975  1
  O  O74  1  0.39586344  0.99030858  0.41496096  1
  O  O75  1  0.89590602  0.99074363  0.41438580  1
  O  O76  1  0.09498935  0.19843282  0.41359893  1
  O  O77  1  0.59488011  0.19864202  0.41402341  1
  O  O78  1  0.01912675  0.19290119  0.91523530  1
  O  O79  1  0.51853760  0.19522236  0.91277347  1
  O  O80  1  0.09534987  0.99059812  0.91382433  1
  O  O81  1  0.59347751  0.98861294  0.91294178  1
  O  O82  1  0.39720590  0.80118999  0.91220731  1
  O  O83  1  0.89588898  0.80085812  0.91400304  1
  O  O84  1  0.48368780  0.17684021  0.58834081  1
  O  O85  1  0.99397118  0.19395011  0.58710349  1
  O  O86  1  0.09017108  0.99644466  0.58344974  1
  O  O87  1  0.59156733  0.01544081  0.58500017  1
  O  O88  1  0.40413325  0.80206035  0.58683003  1
  O  O89  1  0.90864471  0.79113562  0.58635040  1
  O  O90  1  0.49343436  0.79407439  0.08647618  1
  O  O91  1  0.99352895  0.79404647  0.08678831  1
  O  O92  1  0.40838870  0.02527698  0.08624234  1
  O  O93  1  0.90817490  0.02521574  0.08635629  1
  O  O94  1  0.08764365  0.17451164  0.08282699  1
  O  O95  1  0.58727272  0.17400575  0.08256073  1
  O  O96  1  0.34501885  0.17315827  0.74465326  1
  O  O97  1  0.84543285  0.16172970  0.74659467  1
  O  O98  1  0.22945568  0.31146821  0.74479181  1
  O  O99  1  0.73131753  0.33120259  0.74647582  1
  O  O100  1  0.42729348  0.53269678  0.74642956  1
  O  O101  1  0.91677846  0.51961895  0.74475875  1
  O  O102  1  0.33643158  0.51704903  0.24563650  1
  O  O103  1  0.83654600  0.51708624  0.24538268  1
  O  O104  1  0.41663986  0.31523180  0.24454751  1
  O  O105  1  0.91675555  0.31507779  0.24451822  1
  O  O106  1  0.23105188  0.14385506  0.24480299  1
  O  O107  1  0.73109139  0.14370234  0.24459668  1
  O  O108  1  0.31759721  0.51042081  0.92062372  1
  O  O109  1  0.81572826  0.50904319  0.92036078  1
  O  O110  1  0.42694009  0.34446946  0.92025962  1
  O  O111  1  0.92704043  0.34275767  0.92167839  1
  O  O112  1  0.23862404  0.13671843  0.91996601  1
  O  O113  1  0.73675841  0.13580760  0.92097349  1
  O  O114  1  0.31670526  0.12427875  0.42140342  1
  O  O115  1  0.81645988  0.12342801  0.42052804  1
  O  O116  1  0.23840171  0.33878827  0.42047880  1
  O  O117  1  0.73825174  0.33988917  0.42045539  1
  O  O118  1  0.42699402  0.51159296  0.42055358  1
  O  O119  1  0.92616388  0.51060013  0.42139284  1
  O  O120  1  0.16719443  0.49058303  0.08094497  1
  O  O121  1  0.66679394  0.48981866  0.08074283  1
  O  O122  1  0.06395516  0.64325308  0.07804095  1
  O  O123  1  0.56371809  0.64292353  0.07789622  1
  O  O124  1  0.26205518  0.87429809  0.07865843  1
  O  O125  1  0.76195630  0.87408702  0.07862312  1
  O  O126  1  0.17923670  0.85279841  0.57906767  1
  O  O127  1  0.67316102  0.85288335  0.58098151  1
  O  O128  1  0.26090831  0.65563643  0.57936950  1
  O  O129  1  0.76225098  0.65010227  0.57869173  1
  O  O130  1  0.06317096  0.48513868  0.57877386  1
  O  O131  1  0.56352250  0.46799585  0.57936190  1
  O  O132  1  0.16005646  0.85632502  0.25642871  1
  O  O133  1  0.66017474  0.85614469  0.25617287  1
  O  O134  1  0.26008837  0.68707849  0.25491436  1
  O  O135  1  0.75997146  0.68688420  0.25482888  1
  O  O136  1  0.07862604  0.48061714  0.25319114  1
  O  O137  1  0.57890177  0.48049690  0.25323329  1
  O  O138  1  0.15675314  0.45835533  0.75527100  1
  O  O139  1  0.65288051  0.46156042  0.75624611  1
  O  O140  1  0.07892235  0.67573135  0.75317048  1
  O  O141  1  0.57041498  0.67307997  0.75353592  1
  O  O142  1  0.25824736  0.85353127  0.75236709  1
  O  O143  1  0.76279171  0.82472921  0.75548609  1
loop_
_geom_bond_atom_site_label_1
_geom_bond_atom_site_label_2
_geom_bond_distance
_geom_bond_site_symmetry_2
Na0 O104 2.635253 1_555
Na0 O134 2.636008 1_545
Na0 O132 2.866162 1_545
Na0 O106 2.869976 1_555
Na0 O4 2.925210 1_555
Na0 O18 2.936176 1_545
Na0 O32 3.053216 1_555
Na1 O135 2.628504 1_545
Na1 O105 2.644874 1_555
Na1 O133 2.844821 1_545
Na1 O107 2.858770 1_555
Na1 O5 2.946807 1_555
Na1 O19 2.950841 1_545
Na2 O134 2.589565 1_555
Na2 O102 2.592082 1_555
Na2 O136 2.633846 1_555
Na2 O34 2.844057 1_555
Na2 O106 2.874369 1_555
Na3 O135 2.578219 1_555
Na3 O103 2.591388 1_555
Na3 O137 2.622433 1_555
Na3 O35 2.871210 1_555
Na3 O107 2.881781 1_555
Na4 O105 2.568486 1_555
Na4 O136 2.627556 1_655
Na4 O103 2.659629 1_555
Na4 O60 2.854739 1_655
Na4 O132 2.899528 1_655
Na4 O3 2.956302 1_555
Na5 O104 2.575520 1_555
Na5 O137 2.616635 1_555
Na5 O102 2.686307 1_555
Na5 O61 2.709729 1_555
Na5 O133 2.880671 1_555
Na5 O2 2.976509 1_555
Na6 O143 2.549566 1_555
Na6 O101 2.594388 1_555
Na6 O99 2.750043 1_555
Na6 O13 2.922342 1_555
Na6 O9 2.949162 1_555
Na6 O139 2.988759 1_555
Na6 O29 3.020358 1_555
Na7 O97 2.513023 1_555
Na7 O101 2.560972 1_555
Na7 O140 2.616878 1_655
Na7 O138 2.860679 1_655
Na7 O66 2.871703 1_655
Na8 O96 2.519128 1_555
Na8 O100 2.661402 1_555
Na8 O141 2.709170 1_555
Na8 O139 2.709870 1_555
Na8 O10 2.830341 1_555
Na8 O67 2.859614 1_555
Na9 O142 2.390025 1_555
Na9 O140 2.600187 1_555
Na9 O96 2.783283 1_565
Na9 O98 2.841672 1_565
Na10 O86 2.349725 1_555
Na10 O89 2.616763 1_455
Na10 O126 2.655698 1_555
Na10 O130 2.727720 1_555
Na10 O16 2.848587 1_555
Na11 O126 2.520699 1_555
Na11 O128 2.648125 1_555
Na11 O84 2.662914 1_565
Na11 O88 2.679835 1_555
Na11 O12 2.763834 1_555
Na11 O26 2.967005 1_565
Na12 O94 2.360044 1_555
Na12 O120 2.395355 1_555
Na12 O93 2.666877 1_455
Na12 O122 2.729726 1_555
Na12 O20 2.902105 1_555
Na12 O50 3.042683 1_554
Na13 O95 2.358280 1_555
Na13 O121 2.391531 1_555
Na13 O92 2.662061 1_555
Na13 O123 2.731431 1_555
Na13 O21 2.879338 1_555
Na14 O78 2.342833 1_555
Na14 O80 2.608897 1_545
Na14 O112 2.719754 1_555
Na14 O108 2.731902 1_555
Na14 O36 2.903194 1_556
Na14 O50 2.965256 1_555
Na15 O79 2.410369 1_555
Na15 O81 2.641344 1_545
Na15 O109 2.659860 1_555
Na15 O113 2.670293 1_555
Na15 O37 2.851705 1_556
Na15 O51 2.964602 1_555
Na16 O72 2.363967 1_545
Na16 O76 2.600632 1_555
Na16 O116 2.693105 1_555
Na16 O114 2.701043 1_555
Na16 O42 2.884706 1_555
Na16 O58 2.974927 1_545
Na17 O73 2.388948 1_545
Na17 O77 2.622482 1_555
Na17 O115 2.689575 1_555
Na17 O117 2.712170 1_555
Na17 O43 2.738489 1_555
Na17 O59 2.891803 1_545
Na18 O72 2.671121 1_555
Na18 O86 2.671226 1_555
Na18 O89 2.856709 1_455
Na18 O76 2.862884 1_565
Na18 O85 2.951077 1_465
Na18 O75 2.978826 1_455
Na19 O73 2.567719 1_555
Na19 O87 2.576076 1_565
Na19 O77 2.818296 1_565
Na19 O88 2.921655 1_555
Na20 O94 2.600329 1_556
Na20 O78 2.652414 1_555
Na20 O80 2.826211 1_545
Na20 O93 2.897775 1_456
Na20 O91 2.967233 1_446
Na20 O83 3.007949 1_445
Na21 O95 2.549186 1_555
Na21 O79 2.788706 1_554
Na21 O92 2.856158 1_555
Na21 O81 2.865927 1_544
Na21 O90 2.891622 1_545
Na22 O110 2.569496 1_555
Na22 O96 2.754759 1_555
Na22 O112 2.857807 1_555
Na22 O100 2.879519 1_555
Na22 O108 2.934556 1_555
Na23 O97 2.639862 1_555
Na23 O111 2.683117 1_555
Na23 O101 2.696380 1_555
Na24 O118 2.597718 1_555
Na24 O104 2.690884 1_555
Na24 O102 2.724790 1_555
Na25 O119 2.588514 1_555
Na25 O105 2.731413 1_555
Na25 O103 2.761062 1_555
Na25 O117 2.976940 1_555
Na25 O115 2.991249 1_555
Na26 O120 2.589474 1_555
Na26 O134 2.685678 1_555
Na26 O136 2.779459 1_555
Na26 O124 2.941734 1_555
Na27 O121 2.618721 1_555
Na27 O135 2.659633 1_555
Na27 O137 2.757671 1_555
Na27 O125 2.961252 1_555
Na28 O142 2.601539 1_555
Na28 O140 2.670054 1_555
Na28 O126 2.793044 1_555
Na28 O138 2.923896 1_555
Na28 O128 2.970829 1_555
Na29 O127 2.476025 1_555
Na29 O143 2.731527 1_555
Na29 O129 2.870284 1_555
Na29 O141 2.979263 1_555
La0 O3 2.197705 1_555
La0 O5 2.287204 1_565
La0 O72 2.376564 1_655
La0 O75 2.443942 1_555
La0 O0 2.538216 1_665
La0 O76 2.608523 1_665
La1 O2 2.205517 1_555
La1 O4 2.287190 1_565
La1 O73 2.364624 1_555
La1 O74 2.461028 1_555
La1 O1 2.529772 1_565
La1 O77 2.600216 1_565
La2 O11 2.174925 1_565
La2 O9 2.279169 1_555
La2 O78 2.388232 1_665
La2 O83 2.454951 1_555
La2 O6 2.511811 1_665
La2 O80 2.600816 1_655
La3 O10 2.173902 1_555
La3 O79 2.273180 1_555
La3 O82 2.432396 1_545
La3 O7 2.491852 1_555
La3 O8 2.552020 1_545
La3 O81 2.610554 1_545
La4 O13 2.238067 1_555
La4 O16 2.252991 1_655
La4 O14 2.437594 1_665
La4 O86 2.440108 1_655
La4 O89 2.491513 1_555
La4 O85 2.550840 1_565
La5 O87 2.241463 1_565
La5 O12 2.354751 1_555
La5 O17 2.397093 1_555
La5 O15 2.432573 1_565
La5 O88 2.497608 1_555
La5 O84 2.510870 1_565
La6 O20 2.253691 1_555
La6 O19 2.269596 1_445
La6 O94 2.379791 1_555
La6 O22 2.450557 1_545
La6 O93 2.508842 1_455
La6 O91 2.541714 1_445
La7 O21 2.251173 1_555
La7 O18 2.269799 1_545
La7 O95 2.384876 1_555
La7 O23 2.442862 1_545
La7 O92 2.515584 1_555
La7 O90 2.550947 1_545
La8 O26 2.204612 1_555
La8 O96 2.299518 1_555
La8 O24 2.416816 1_555
La8 O98 2.454405 1_555
La8 O28 2.459435 1_555
La8 O100 2.589995 1_555
La9 O27 2.167937 1_555
La9 O97 2.275545 1_555
La9 O25 2.460018 1_555
La9 O101 2.466623 1_555
La9 O99 2.509381 1_555
La9 O29 2.563673 1_555
La10 O34 2.235657 1_555
La10 O102 2.301684 1_555
La10 O30 2.400763 1_555
La10 O104 2.435850 1_555
La10 O32 2.496070 1_555
La10 O106 2.512999 1_555
La11 O35 2.236892 1_555
La11 O103 2.300573 1_555
La11 O31 2.402022 1_555
La11 O105 2.441924 1_555
La11 O33 2.493168 1_555
La11 O107 2.508391 1_555
La12 O36 2.291919 1_556
La12 O110 2.335443 1_555
La12 O40 2.376825 1_556
La12 O38 2.405008 1_556
La12 O112 2.469793 1_555
La12 O108 2.478613 1_555
La13 O111 2.294734 1_555
La13 O37 2.315647 1_556
La13 O41 2.381809 1_556
La13 O39 2.405748 1_556
La13 O113 2.473047 1_555
La13 O109 2.485161 1_555
La14 O118 2.270455 1_555
La14 O42 2.322378 1_555
La14 O44 2.394199 1_555
La14 O46 2.409513 1_555
La14 O116 2.469144 1_555
La14 O114 2.507575 1_555
La15 O43 2.286694 1_555
La15 O119 2.325302 1_555
La15 O45 2.372360 1_555
La15 O47 2.414926 1_555
La15 O117 2.461501 1_555
La15 O115 2.487016 1_555
La16 O50 2.200517 1_554
La16 O120 2.280307 1_555
La16 O48 2.386662 1_554
La16 O122 2.458763 1_555
La16 O52 2.524210 1_554
La16 O124 2.547290 1_555
La17 O51 2.222081 1_554
La17 O121 2.269936 1_555
La17 O49 2.364070 1_554
La17 O123 2.447420 1_555
La17 O125 2.534665 1_555
La17 O53 2.534693 1_554
La18 O58 2.178902 1_555
La18 O126 2.321623 1_555
La18 O54 2.407903 1_555
La18 O130 2.425460 1_555
La18 O56 2.461724 1_555
La18 O128 2.564076 1_555
La19 O59 2.186646 1_555
La19 O127 2.223454 1_555
La19 O55 2.420960 1_555
La19 O131 2.480770 1_555
La19 O129 2.587128 1_555
La19 O57 2.599273 1_555
La20 O60 2.225723 1_555
La20 O136 2.308036 1_555
La20 O134 2.399195 1_555
La20 O64 2.402898 1_555
La20 O62 2.523744 1_555
La20 O132 2.531766 1_555
La21 O61 2.228850 1_555
La21 O137 2.325591 1_555
La21 O65 2.384796 1_555
La21 O135 2.415287 1_555
La21 O63 2.509640 1_555
La21 O133 2.554673 1_555
La22 O66 2.249323 1_555
La22 O140 2.317813 1_555
La22 O142 2.427352 1_555
La22 O68 2.430528 1_555
La22 O70 2.478250 1_555
La22 O138 2.509393 1_555
La23 O67 2.266269 1_555
La23 O143 2.311013 1_555
La23 O69 2.349637 1_555
La23 O71 2.451956 1_555
La23 O141 2.459366 1_555
La23 O139 2.536653 1_555
O0 S0 1.481670 1_545
O1 S1 1.483439 1_545
O2 Si0 1.638314 1_555
O3 Si1 1.639688 1_555
O4 Si3 1.638668 1_555
O5 Si2 1.638472 1_555
O6 S2 1.483847 1_555
O7 S3 1.482663 1_555
O8 S4 1.477445 1_555
O9 Si4 1.637687 1_555
O10 Si5 1.655928 1_555
O11 Si6 1.639817 1_545
O12 Si5 1.646463 1_565
O13 Si6 1.641096 1_555
O14 S2 1.483528 1_555
O15 S3 1.484716 1_555
O16 Si4 1.655324 1_455
O17 S4 1.481167 1_555
O18 Si0 1.637833 1_555
O19 Si1 1.637245 1_555
O20 Si2 1.650747 1_455
O21 Si3 1.652206 1_555
O22 S0 1.482911 1_555
O23 S1 1.482996 1_555
O24 S5 1.489547 1_555
O25 S6 1.485275 1_555
O26 Si7 1.670762 1_555
O27 Si8 1.639698 1_555
O28 S7 1.478597 1_555
O29 S8 1.484010 1_555
O30 S9 1.492133 1_555
O31 S10 1.492577 1_555
O32 S11 1.486375 1_555
O33 S12 1.485822 1_555
O34 Si9 1.656660 1_555
O35 Si10 1.656454 1_555
O36 Si9 1.655129 1_555
O37 Si10 1.651863 1_555
O38 S9 1.479876 1_555
O39 S10 1.480537 1_555
O40 S11 1.489426 1_555
O41 S12 1.488788 1_555
O42 Si7 1.646868 1_555
O43 Si8 1.655901 1_555
O44 S7 1.481988 1_555
O45 S8 1.491013 1_555
O46 S5 1.485730 1_555
O47 S6 1.482578 1_555
O48 S13 1.481523 1_555
O49 S14 1.480684 1_555
O50 Si11 1.669448 1_555
O51 Si12 1.660679 1_555
O52 S15 1.476961 1_555
O53 S16 1.478303 1_555
O54 S17 1.487374 1_555
O55 S18 1.477643 1_555
O56 S19 1.476566 1_555
O57 S20 1.472266 1_555
O58 Si13 1.670103 1_555
O59 Si14 1.651177 1_555
O60 Si13 1.658818 1_555
O61 Si14 1.658088 1_555
O62 S17 1.487408 1_555
O63 S18 1.491473 1_555
O64 S19 1.485947 1_555
O65 S20 1.491476 1_555
O66 Si11 1.659592 1_555
O67 Si12 1.657797 1_555
O68 S15 1.486413 1_555
O69 S16 1.482031 1_555
O70 S13 1.480461 1_555
O71 S14 1.487439 1_555
O72 Si13 1.660011 1_555
O73 Si14 1.660596 1_555
O74 S17 1.480105 1_555
O75 S18 1.481623 1_555
O76 S19 1.488926 1_555
O77 S20 1.494864 1_555
O78 Si11 1.662644 1_555
O79 Si12 1.677615 1_555
O80 S15 1.490378 1_555
O81 S16 1.492553 1_555
O82 S13 1.481312 1_555
O83 S14 1.478675 1_555
O84 S5 1.489371 1_555
O85 S6 1.476931 1_555
O86 Si7 1.645995 1_565
O87 Si8 1.662878 1_555
O88 S7 1.495901 1_555
O89 S8 1.502723 1_555
O90 S9 1.475358 1_555
O91 S10 1.474250 1_555
O92 S11 1.495396 1_555
O93 S12 1.495254 1_555
O94 Si9 1.660507 1_555
O95 Si10 1.663804 1_555
O96 Si5 1.686989 1_555
O97 Si6 1.650980 1_545
O98 S2 1.491953 1_555
O99 S3 1.485688 1_555
O100 S4 1.495019 1_555
O101 Si4 1.653432 1_555
O102 Si0 1.663504 1_555
O103 Si1 1.662926 1_555
O104 Si3 1.661099 1_555
O105 Si2 1.659291 1_555
O106 S0 1.492498 1_545
O107 S1 1.492081 1_545
O108 S13 1.495276 1_555
O109 S14 1.489546 1_555
O110 Si12 1.644363 1_555
O111 Si11 1.647117 1_655
O112 S15 1.503005 1_545
O113 S16 1.496687 1_545
O114 S17 1.493265 1_545
O115 S18 1.495185 1_545
O116 S19 1.495974 1_555
O117 S20 1.498609 1_555
O118 Si14 1.649232 1_555
O119 Si13 1.640028 1_655
O120 Si9 1.677929 1_555
O121 Si10 1.680670 1_555
O122 S10 1.492566 1_455
O123 S9 1.491834 1_555
O124 S11 1.477794 1_565
O125 S12 1.478064 1_565
O126 Si7 1.683531 1_565
O127 Si8 1.661558 1_565
O128 S7 1.490752 1_555
O129 S8 1.476613 1_555
O130 S6 1.500024 1_455
O131 S5 1.477773 1_555
O132 S0 1.492707 1_555
O133 S1 1.491123 1_555
O134 Si0 1.659514 1_555
O135 Si1 1.658805 1_555
O136 Si2 1.668504 1_455
O137 Si3 1.666070 1_555
O138 S2 1.486923 1_555
O139 S3 1.497466 1_555
O140 Si4 1.670683 1_455
O141 S4 1.501929 1_555
O142 Si5 1.647887 1_565
O143 Si6 1.662549 1_555
