# generated using pymatgen
data_Na3ZrAlSi(PO6)2
_symmetry_space_group_name_H-M   'P 1'
_cell_length_a   8.95291706
_cell_length_b   8.95291675
_cell_length_c   22.09421171
_cell_angle_alpha   89.82689422
_cell_angle_beta   90.17310578
_cell_angle_gamma   120.26144580
_symmetry_Int_Tables_number   1
_chemical_formula_structural   Na3ZrAlSi(PO6)2
_chemical_formula_sum   'Na18 Zr6 Al6 Si6 P12 O72'
_cell_volume   1529.62659494
_cell_formula_units_Z   6
loop_
 _symmetry_equiv_pos_site_id
 _symmetry_equiv_pos_as_xyz
  1  'x, y, z'
loop_
 _atom_site_type_symbol
 _atom_site_label
 _atom_site_symmetry_multiplicity
 _atom_site_fract_x
 _atom_site_fract_y
 _atom_site_fract_z
 _atom_site_occupancy
  Na  Na0  1  0.00542252  0.99545470  0.49473978  1
  Na  Na1  1  0.00454530  0.99457748  0.99473978  1
  Na  Na2  1  0.66600643  0.32768889  0.82817746  1
  Na  Na3  1  0.67231111  0.33399357  0.32817746  1
  Na  Na4  1  0.36199636  0.67918972  0.16088541  1
  Na  Na5  1  0.32081028  0.63800364  0.66088541  1
  Na  Na6  1  0.35681157  0.36237553  0.24493193  1
  Na  Na7  1  0.99731544  0.62441512  0.24459607  1
  Na  Na8  1  0.63762447  0.64318843  0.74493193  1
  Na  Na9  1  0.37558488  0.00268456  0.74459607  1
  Na  Na10  1  0.03175460  0.69688974  0.57696833  1
  Na  Na11  1  0.66042668  0.96287141  0.58546928  1
  Na  Na12  1  0.30311026  0.96824540  0.07696833  1
  Na  Na13  1  0.03712859  0.33957332  0.08546928  1
  Na  Na14  1  0.97096135  0.67005978  0.91892655  1
  Na  Na15  1  0.69602368  0.03405231  0.90830847  1
  Na  Na16  1  0.96594769  0.30397632  0.40830847  1
  Na  Na17  1  0.32994022  0.02903865  0.41892655  1
  Zr  Zr0  1  0.00796968  0.00866892  0.64585314  1
  Zr  Zr1  1  0.99133108  0.99203032  0.14585314  1
  Zr  Zr2  1  0.66091078  0.33720856  0.97949603  1
  Zr  Zr3  1  0.66279144  0.33908922  0.47949603  1
  Zr  Zr4  1  0.33138826  0.66810798  0.31251531  1
  Zr  Zr5  1  0.33189202  0.66861174  0.81251531  1
  Al  Al0  1  0.98784193  0.99130921  0.35311705  1
  Al  Al1  1  0.00869079  0.01215807  0.85311705  1
  Al  Al2  1  0.67034463  0.32479715  0.68589475  1
  Al  Al3  1  0.67520285  0.32965537  0.18589475  1
  Al  Al4  1  0.32702046  0.66976991  0.01892689  1
  Al  Al5  1  0.33023009  0.67297954  0.51892689  1
  Si  Si0  1  0.98213235  0.27801674  0.25254885  1
  Si  Si1  1  0.72198326  0.01786765  0.75254885  1
  Si  Si2  1  0.37805431  0.03214809  0.58412866  1
  Si  Si3  1  0.96785191  0.62194569  0.08412866  1
  Si  Si4  1  0.31803055  0.95775633  0.91684159  1
  Si  Si5  1  0.04224367  0.68196945  0.41684159  1
  P  P0  1  0.30167798  0.01581133  0.25148136  1
  P  P1  1  0.71392966  0.70098515  0.25286211  1
  P  P2  1  0.29901485  0.28607034  0.75286211  1
  P  P3  1  0.98418867  0.69832202  0.75148136  1
  P  P4  1  0.96253693  0.34655316  0.58313995  1
  P  P5  1  0.64853388  0.61350607  0.58887466  1
  P  P6  1  0.65344684  0.03746307  0.08313995  1
  P  P7  1  0.38649393  0.35146612  0.08887466  1
  P  P8  1  0.62196979  0.67766120  0.91894446  1
  P  P9  1  0.05012317  0.36702584  0.92181286  1
  P  P10  1  0.63297416  0.94987683  0.42181286  1
  P  P11  1  0.32233880  0.37803021  0.41894446  1
  O  O0  1  0.21085568  0.03580442  0.30779253  1
  O  O1  1  0.82898112  0.79826226  0.30702705  1
  O  O2  1  0.97473425  0.16635590  0.31235566  1
  O  O3  1  0.20173774  0.17101888  0.80702705  1
  O  O4  1  0.96419558  0.78914432  0.80779253  1
  O  O5  1  0.83364410  0.02526575  0.81235566  1
  O  O6  1  0.80120353  0.97944622  0.69185590  1
  O  O7  1  0.19751431  0.20367846  0.69395268  1
  O  O8  1  0.02018987  0.81376295  0.69447179  1
  O  O9  1  0.79632154  0.80248569  0.19395268  1
  O  O10  1  0.02055378  0.19879647  0.19185590  1
  O  O11  1  0.18623705  0.97981013  0.19447179  1
  O  O12  1  0.86797260  0.37211507  0.63663474  1
  O  O13  1  0.50046423  0.13717370  0.64202711  1
  O  O14  1  0.63830710  0.51172268  0.64667687  1
  O  O15  1  0.86282630  0.49953577  0.14202711  1
  O  O16  1  0.62788493  0.13202740  0.13663474  1
  O  O17  1  0.48827732  0.36169290  0.14667687  1
  O  O18  1  0.46919154  0.31267137  0.03398545  1
  O  O19  1  0.86192445  0.53867392  0.02122037  1
  O  O20  1  0.68098251  0.14182978  0.02396153  1
  O  O21  1  0.46132608  0.13807555  0.52122037  1
  O  O22  1  0.68732863  0.53080846  0.53398545  1
  O  O23  1  0.85817022  0.31901749  0.52396153  1
  O  O24  1  0.51258857  0.68539730  0.97060812  1
  O  O25  1  0.14852238  0.45373802  0.98068060  1
  O  O26  1  0.29495992  0.83363649  0.97524314  1
  O  O27  1  0.54626198  0.85147762  0.48068060  1
  O  O28  1  0.31460270  0.48741143  0.47060812  1
  O  O29  1  0.16636351  0.70504008  0.47524314  1
  O  O30  1  0.12846718  0.64860514  0.35644207  1
  O  O31  1  0.51436074  0.85910957  0.36712154  1
  O  O32  1  0.34201993  0.46890930  0.35723848  1
  O  O33  1  0.14089043  0.48563926  0.86712154  1
  O  O34  1  0.35139486  0.87153282  0.85644207  1
  O  O35  1  0.53109070  0.65798007  0.85723848  1
  O  O36  1  0.03257975  0.85810145  0.40819852  1
  O  O37  1  0.81376400  0.97233515  0.41415777  1
  O  O38  1  0.15672842  0.19733800  0.41759110  1
  O  O39  1  0.02766485  0.18623600  0.91415777  1
  O  O40  1  0.14189855  0.96742025  0.90819852  1
  O  O41  1  0.80266200  0.84327158  0.91759110  1
  O  O42  1  0.97451320  0.17957951  0.58828248  1
  O  O43  1  0.17899090  0.99823723  0.58558584  1
  O  O44  1  0.81178426  0.80066197  0.58968414  1
  O  O45  1  0.00176277  0.82100910  0.08558584  1
  O  O46  1  0.82042049  0.02548680  0.08828248  1
  O  O47  1  0.19933803  0.18821574  0.08968414  1
  O  O48  1  0.69538690  0.18373038  0.74385722  1
  O  O49  1  0.47935789  0.30273840  0.74811614  1
  O  O50  1  0.81832254  0.52141751  0.74343796  1
  O  O51  1  0.69726160  0.52064211  0.24811614  1
  O  O52  1  0.81626962  0.30461310  0.24385722  1
  O  O53  1  0.47858249  0.18167746  0.24343796  1
  O  O54  1  0.65243625  0.52074786  0.92210367  1
  O  O55  1  0.86405772  0.34576691  0.92126991  1
  O  O56  1  0.49572557  0.14735328  0.91945893  1
  O  O57  1  0.65423309  0.13594228  0.42126991  1
  O  O58  1  0.47925214  0.34756375  0.42210367  1
  O  O59  1  0.85264672  0.50427443  0.41945893  1
  O  O60  1  0.37041082  0.51241836  0.07959365  1
  O  O61  1  0.16030580  0.63912478  0.07982335  1
  O  O62  1  0.49261824  0.85680283  0.07659708  1
  O  O63  1  0.36087522  0.83969420  0.57982335  1
  O  O64  1  0.48758164  0.62958918  0.57959365  1
  O  O65  1  0.14319717  0.50738176  0.57659708  1
  O  O66  1  0.32467343  0.85493672  0.25469436  1
  O  O67  1  0.52948848  0.67554841  0.25507187  1
  O  O68  1  0.15858712  0.47680009  0.25373941  1
  O  O69  1  0.32445159  0.47051152  0.75507187  1
  O  O70  1  0.14506328  0.67532657  0.75469436  1
  O  O71  1  0.52319991  0.84141288  0.75373941  1
loop_
_geom_bond_atom_site_label_1
_geom_bond_atom_site_label_2
_geom_bond_distance
_geom_bond_site_symmetry_2
Na0 O38 2.352642 1_565
Na0 O36 2.354920 1_555
Na0 O37 2.404739 1_455
Na0 O43 2.527160 1_555
Na0 O44 2.720281 1_455
Na0 O42 2.747592 1_465
Na1 O41 2.352642 1_455
Na1 O40 2.354920 1_555
Na1 O39 2.404739 1_565
Na1 O45 2.527160 1_556
Na1 O47 2.720281 1_566
Na1 O46 2.747592 1_466
Na2 O48 2.358011 1_555
Na2 O49 2.362114 1_555
Na2 O50 2.446454 1_555
Na2 O56 2.552723 1_555
Na2 O55 2.662964 1_555
Na2 O54 2.746576 1_555
Na3 O52 2.358011 1_555
Na3 O51 2.362114 1_555
Na3 O53 2.446454 1_555
Na3 O59 2.552723 1_555
Na3 O57 2.662964 1_555
Na3 O58 2.746576 1_555
Na4 O62 2.342069 1_555
Na4 O60 2.364588 1_555
Na4 O61 2.434850 1_555
Na4 O67 2.571023 1_555
Na4 O66 2.727089 1_555
Na4 O68 2.735462 1_555
Na5 O65 2.342069 1_555
Na5 O64 2.364588 1_555
Na5 O63 2.434850 1_555
Na5 O69 2.571023 1_555
Na5 O70 2.727089 1_555
Na5 O71 2.735462 1_555
Na6 O53 2.363260 1_555
Na6 O67 2.436072 1_555
Na6 O68 2.464252 1_555
Na6 O17 2.474027 1_555
Na6 O51 2.636181 1_555
Na6 O32 2.688459 1_555
Na6 O10 2.851025 1_555
Na6 O0 2.884538 1_555
Na7 O51 2.360306 1_555
Na7 O68 2.406650 1_655
Na7 O52 2.479489 1_555
Na7 O15 2.545067 1_555
Na7 O66 2.607916 1_655
Na7 O30 2.694736 1_655
Na8 O50 2.363260 1_555
Na8 O69 2.436073 1_555
Na8 O71 2.464251 1_555
Na8 O14 2.474027 1_555
Na8 O49 2.636181 1_555
Na8 O35 2.688459 1_555
Na8 O6 2.851025 1_555
Na8 O4 2.884538 1_555
Na9 O49 2.360306 1_555
Na9 O71 2.406650 1_545
Na9 O48 2.479489 1_555
Na9 O13 2.545067 1_555
Na9 O70 2.607916 1_545
Na9 O34 2.694736 1_545
Na10 O43 2.338775 1_555
Na10 O65 2.362301 1_555
Na10 O29 2.536900 1_555
Na10 O63 2.554083 1_555
Na10 O44 2.582552 1_455
Na10 O8 2.823613 1_555
Na10 O22 2.826846 1_455
Na10 O12 2.834404 1_455
Na11 O63 2.332812 1_555
Na11 O44 2.436360 1_555
Na11 O42 2.485213 1_565
Na11 O27 2.524248 1_555
Na11 O64 2.581110 1_555
Na11 O6 2.632721 1_555
Na11 O13 2.884926 1_565
Na12 O45 2.338776 1_555
Na12 O62 2.362301 1_555
Na12 O26 2.536900 1_554
Na12 O61 2.554083 1_555
Na12 O47 2.582551 1_565
Na12 O11 2.823613 1_555
Na12 O18 2.826846 1_565
Na12 O16 2.834404 1_565
Na13 O61 2.332812 1_555
Na13 O47 2.436360 1_555
Na13 O46 2.485213 1_455
Na13 O25 2.524248 1_554
Na13 O60 2.581110 1_555
Na13 O10 2.632721 1_555
Na13 O15 2.884926 1_455
Na14 O40 2.319001 1_655
Na14 O54 2.466310 1_555
Na14 O19 2.506908 1_556
Na14 O55 2.558692 1_555
Na14 O41 2.651524 1_555
Na14 O4 2.686598 1_555
Na14 O26 2.795490 1_655
Na14 O33 2.984033 1_655
Na15 O41 2.347607 1_545
Na15 O55 2.429859 1_555
Na15 O5 2.476521 1_555
Na15 O56 2.478501 1_555
Na15 O39 2.571058 1_655
Na15 O20 2.761616 1_556
Na15 O34 2.900704 1_545
Na16 O38 2.347607 1_655
Na16 O57 2.429859 1_555
Na16 O2 2.476521 1_555
Na16 O59 2.478501 1_555
Na16 O37 2.571058 1_545
Na16 O23 2.761616 1_555
Na16 O30 2.900704 1_655
Na17 O36 2.319001 1_545
Na17 O58 2.466310 1_555
Na17 O21 2.506908 1_555
Na17 O57 2.558693 1_555
Na17 O38 2.651524 1_555
Na17 O0 2.686598 1_555
Na17 O29 2.795490 1_545
Na17 O31 2.984033 1_545
Al0 O2 1.859322 1_565
Al0 O36 1.879759 1_655
Al0 O1 1.889786 1_555
Al0 O37 2.005273 1_555
Al0 O0 2.087111 1_665
Al0 O38 2.215775 1_665
Al1 O5 1.859322 1_455
Al1 O40 1.879759 1_545
Al1 O3 1.889786 1_555
Al1 O39 2.005273 1_555
Al1 O4 2.087111 1_445
Al1 O41 2.215775 1_445
Al2 O13 1.870883 1_555
Al2 O48 1.886595 1_555
Al2 O12 1.935966 1_555
Al2 O14 2.026651 1_555
Al2 O50 2.030546 1_555
Al2 O49 2.127163 1_555
Al3 O15 1.870883 1_555
Al3 O52 1.886595 1_555
Al3 O16 1.935966 1_555
Al3 O17 2.026651 1_555
Al3 O53 2.030546 1_555
Al3 O51 2.127163 1_555
Al4 O26 1.892209 1_554
Al4 O24 1.922232 1_554
Al4 O61 1.926266 1_555
Al4 O25 1.973619 1_554
Al4 O62 2.030963 1_555
Al4 O60 2.114037 1_555
Al5 O29 1.892209 1_555
Al5 O28 1.922232 1_555
Al5 O63 1.926266 1_555
Al5 O27 1.973619 1_555
Al5 O65 2.030963 1_555
Al5 O64 2.114037 1_555
O0 P0 1.547668 1_555
O1 P1 1.531777 1_555
O2 Si0 1.635737 1_555
O3 P2 1.531777 1_555
O4 P3 1.547668 1_555
O5 Si1 1.635737 1_555
O6 Si1 1.635230 1_565
O6 Zr0 2.012443 1_665
O7 P2 1.544993 1_555
O7 Zr0 2.017786 1_555
O8 P3 1.554817 1_455
O8 Zr0 2.095515 1_565
O9 P1 1.544993 1_555
O9 Zr1 2.017786 1_555
O10 Si0 1.635230 1_455
O10 Zr1 2.012443 1_445
O11 P0 1.554817 1_565
O11 Zr1 2.095515 1_455
O12 P4 1.539176 1_555
O13 Si2 1.637613 1_555
O14 P5 1.542506 1_555
O15 Si3 1.637613 1_555
O16 P6 1.539176 1_555
O17 P7 1.542506 1_555
O18 P7 1.551349 1_555
O18 Zr2 2.018581 1_554
O19 Si3 1.634849 1_555
O19 Zr2 2.017500 1_554
O20 P6 1.551067 1_555
O20 Zr2 2.088674 1_554
O21 Si2 1.634849 1_555
O21 Zr3 2.017500 1_555
O22 P5 1.551349 1_555
O22 Zr3 2.018581 1_555
O23 P4 1.551067 1_555
O23 Zr3 2.088675 1_555
O24 P8 1.530467 1_555
O25 P9 1.542821 1_555
O26 Si4 1.644409 1_555
O27 P10 1.542821 1_555
O28 P11 1.530467 1_555
O29 Si5 1.644409 1_555
O30 Si5 1.645301 1_555
O30 Zr4 1.990691 1_555
O31 P10 1.541630 1_555
O31 Zr4 2.059230 1_555
O32 P11 1.549841 1_555
O32 Zr4 2.079873 1_555
O33 P9 1.541630 1_555
O33 Zr5 2.059230 1_555
O34 Si4 1.645301 1_555
O34 Zr5 1.990691 1_555
O35 P8 1.549841 1_555
O35 Zr5 2.079873 1_555
O36 Si5 1.632832 1_555
O37 P10 1.536985 1_555
O38 P11 1.548809 1_555
O39 P9 1.536984 1_555
O40 Si4 1.632832 1_555
O41 P8 1.548809 1_555
O42 P4 1.555503 1_555
O42 Zr0 2.120587 1_655
O43 Si2 1.650570 1_565
O43 Zr0 2.069627 1_565
O44 P5 1.573470 1_555
O44 Zr0 2.190258 1_665
O45 Si3 1.650570 1_455
O45 Zr1 2.069627 1_455
O46 P6 1.555503 1_555
O46 Zr1 2.120587 1_545
O47 P7 1.573470 1_555
O47 Zr1 2.190258 1_445
O48 Si1 1.628818 1_555
O49 P2 1.548635 1_555
O50 P3 1.541048 1_555
O51 P1 1.548635 1_555
O52 Si0 1.628819 1_555
O53 P0 1.541048 1_555
O54 P8 1.561515 1_555
O54 Zr2 2.103880 1_555
O55 P9 1.578508 1_655
O55 Zr2 2.200413 1_555
O56 Si4 1.641301 1_545
O56 Zr2 2.074607 1_555
O57 P10 1.578508 1_545
O57 Zr3 2.200413 1_555
O58 P11 1.561515 1_555
O58 Zr3 2.103880 1_555
O59 Si5 1.641301 1_655
O59 Zr3 2.074608 1_555
O60 P7 1.531797 1_555
O61 Si3 1.653880 1_455
O62 P6 1.537243 1_565
O63 Si2 1.653880 1_565
O64 P5 1.531797 1_555
O65 P4 1.537243 1_455
O66 P0 1.555647 1_565
O66 Zr4 2.126362 1_555
O67 P1 1.549965 1_555
O67 Zr4 2.157500 1_555
O68 Si0 1.682267 1_455
O68 Zr4 2.084224 1_555
O69 P2 1.549965 1_555
O69 Zr5 2.157500 1_555
O70 P3 1.555647 1_455
O70 Zr5 2.126362 1_555
O71 Si1 1.682267 1_565
O71 Zr5 2.084224 1_555
