# generated using pymatgen
data_Rb2UCl5
_symmetry_space_group_name_H-M   'P 1'
_cell_length_a   8.23965201
_cell_length_b   8.95436845
_cell_length_c   13.24171673
_cell_angle_alpha   90.00000000
_cell_angle_beta   90.00000000
_cell_angle_gamma   90.00000000
_symmetry_Int_Tables_number   1
_chemical_formula_structural   Rb2UCl5
_chemical_formula_sum   'Rb8 U4 Cl20'
_cell_volume   976.98551301
_cell_formula_units_Z   4
loop_
 _symmetry_equiv_pos_site_id
 _symmetry_equiv_pos_as_xyz
  1  'x, y, z'
loop_
 _atom_site_type_symbol
 _atom_site_label
 _atom_site_symmetry_multiplicity
 _atom_site_fract_x
 _atom_site_fract_y
 _atom_site_fract_z
 _atom_site_occupancy
  Rb  Rb0  1  0.44417103  0.50596080  0.67108398  1
  Rb  Rb1  1  0.94417103  0.49403920  0.82891602  1
  Rb  Rb2  1  0.55582897  0.00596080  0.32891602  1
  Rb  Rb3  1  0.05582897  0.99403920  0.17108398  1
  Rb  Rb4  1  0.94417103  0.00596080  0.82891602  1
  Rb  Rb5  1  0.44417103  0.99403920  0.67108398  1
  Rb  Rb6  1  0.05582897  0.50596080  0.17108398  1
  Rb  Rb7  1  0.55582897  0.49403920  0.32891602  1
  U  U0  1  0.92658681  0.75000000  0.50585519  1
  U  U1  1  0.42658681  0.25000000  0.99414481  1
  U  U2  1  0.07341319  0.25000000  0.49414481  1
  U  U3  1  0.57341319  0.75000000  0.00585519  1
  Cl  Cl0  1  0.33763416  0.95712999  0.92459438  1
  Cl  Cl1  1  0.83763416  0.04287001  0.57540562  1
  Cl  Cl2  1  0.66236584  0.45712999  0.07540562  1
  Cl  Cl3  1  0.16236584  0.54287001  0.42459438  1
  Cl  Cl4  1  0.66236584  0.04287001  0.07540562  1
  Cl  Cl5  1  0.16236584  0.95712999  0.42459438  1
  Cl  Cl6  1  0.33763416  0.54287001  0.92459438  1
  Cl  Cl7  1  0.83763416  0.45712999  0.57540562  1
  Cl  Cl8  1  0.38176307  0.75000000  0.17949427  1
  Cl  Cl9  1  0.88176307  0.25000000  0.32050573  1
  Cl  Cl10  1  0.61823693  0.25000000  0.82050573  1
  Cl  Cl11  1  0.11823693  0.75000000  0.67949427  1
  Cl  Cl12  1  0.08643703  0.25000000  0.98973980  1
  Cl  Cl13  1  0.58643703  0.75000000  0.51026020  1
  Cl  Cl14  1  0.91356297  0.75000000  0.01026020  1
  Cl  Cl15  1  0.41356297  0.25000000  0.48973980  1
  Cl  Cl16  1  0.65717779  0.75000000  0.80064744  1
  Cl  Cl17  1  0.15717779  0.25000000  0.69935256  1
  Cl  Cl18  1  0.34282221  0.25000000  0.19935256  1
  Cl  Cl19  1  0.84282221  0.75000000  0.30064744  1
loop_
_geom_bond_atom_site_label_1
_geom_bond_atom_site_label_2
_geom_bond_distance
_geom_bond_site_symmetry_2
Cl0 U1 2.874493 1_565
Cl0 U3 2.893450 1_556
Cl0 Rb5 3.485495 1_555
Cl0 Rb4 3.508119 1_465
Cl1 U0 2.874493 1_545
Cl1 U2 2.893450 1_655
Cl1 Rb4 3.485495 1_555
Cl1 Rb5 3.508119 1_545
Cl2 U3 2.874493 1_555
Cl2 U1 2.893450 1_554
Cl2 Rb7 3.485495 1_555
Cl2 Rb6 3.508119 1_655
Cl3 U2 2.874493 1_555
Cl3 U0 2.893450 1_455
Cl3 Rb6 3.485495 1_555
Cl3 Rb7 3.508119 1_555
Cl4 U3 2.874493 1_545
Cl4 U1 2.893450 1_554
Cl4 Rb2 3.485495 1_555
Cl4 Rb3 3.508119 1_645
Cl5 U2 2.874493 1_565
Cl5 U0 2.893450 1_455
Cl5 Rb3 3.485495 1_555
Cl5 Rb2 3.508119 1_565
Cl6 U1 2.874493 1_555
Cl6 U3 2.893450 1_556
Cl6 Rb0 3.485495 1_555
Cl6 Rb1 3.508119 1_455
Cl7 U0 2.874493 1_555
Cl7 U2 2.893450 1_655
Cl7 Rb1 3.485495 1_555
Cl7 Rb0 3.508119 1_555
Cl8 U3 2.789326 1_555
Cl8 Rb2 3.350377 1_565
Cl8 Rb7 3.350377 1_555
Cl8 Rb3 3.464092 1_555
Cl8 Rb6 3.464092 1_555
Cl9 U2 2.789326 1_655
Cl9 Rb6 3.350377 1_655
Cl9 Rb3 3.350377 1_645
Cl9 Rb7 3.464092 1_555
Cl9 Rb2 3.464092 1_555
Cl10 U1 2.789326 1_555
Cl10 Rb0 3.350377 1_555
Cl10 Rb5 3.350377 1_545
Cl10 Rb1 3.464092 1_555
Cl10 Rb4 3.464092 1_555
Cl11 U0 2.789326 1_455
Cl11 Rb4 3.350377 1_465
Cl11 Rb1 3.350377 1_455
Cl11 Rb5 3.464092 1_555
Cl11 Rb0 3.464092 1_555
Cl12 U1 2.803323 1_555
Cl12 Rb1 3.268700 1_455
Cl12 Rb4 3.268700 1_455
Cl12 Rb6 3.329114 1_556
Cl12 Rb3 3.329114 1_546
Cl13 U0 2.803323 1_555
Cl13 Rb5 3.268700 1_555
Cl13 Rb0 3.268700 1_555
Cl13 Rb2 3.329114 1_565
Cl13 Rb7 3.329114 1_555
Cl14 U3 2.803323 1_555
Cl14 Rb3 3.268700 1_655
Cl14 Rb6 3.268700 1_655
Cl14 Rb4 3.329114 1_564
Cl14 Rb1 3.329114 1_554
Cl15 U2 2.803323 1_555
Cl15 Rb7 3.268700 1_555
Cl15 Rb2 3.268700 1_555
Cl15 Rb0 3.329114 1_555
Cl15 Rb5 3.329114 1_545
Cl16 U3 2.803587 1_556
Cl16 Rb5 3.286181 1_555
Cl16 Rb0 3.286181 1_555
Cl16 Rb4 3.314386 1_565
Cl16 Rb1 3.314386 1_555
Cl17 U2 2.803587 1_555
Cl17 Rb1 3.286181 1_455
Cl17 Rb4 3.286181 1_455
Cl17 Rb0 3.314386 1_555
Cl17 Rb5 3.314386 1_545
Cl18 U1 2.803587 1_554
Cl18 Rb7 3.286181 1_555
Cl18 Rb2 3.286181 1_555
Cl18 Rb6 3.314386 1_555
Cl18 Rb3 3.314386 1_545
Cl19 U0 2.803587 1_555
Cl19 Rb3 3.286181 1_655
Cl19 Rb6 3.286181 1_655
Cl19 Rb2 3.314386 1_565
Cl19 Rb7 3.314386 1_555
