# generated using pymatgen
data_Na6MgTi3Si2(PO6)4
_symmetry_space_group_name_H-M   'P 1'
_cell_length_a   15.42141685
_cell_length_b   8.87521315
_cell_length_c   8.88246462
_cell_angle_alpha   90.35940028
_cell_angle_beta   124.78287607
_cell_angle_gamma   89.99584273
_symmetry_Int_Tables_number   1
_chemical_formula_structural   Na6MgTi3Si2(PO6)4
_chemical_formula_sum   'Na12 Mg2 Ti6 Si4 P8 O48'
_cell_volume   998.47297718
_cell_formula_units_Z   2
loop_
 _symmetry_equiv_pos_site_id
 _symmetry_equiv_pos_as_xyz
  1  'x, y, z'
loop_
 _atom_site_type_symbol
 _atom_site_label
 _atom_site_symmetry_multiplicity
 _atom_site_fract_x
 _atom_site_fract_y
 _atom_site_fract_z
 _atom_site_occupancy
  Na  Na0  1  0.24971170  0.74779769  0.99847410  1
  Na  Na1  1  0.74806213  0.74735730  0.49002809  1
  Na  Na2  1  0.74971170  0.24779769  0.99847410  1
  Na  Na3  1  0.24806213  0.24735730  0.49002809  1
  Na  Na4  1  0.50985148  0.10360330  0.77058737  1
  Na  Na5  1  0.49790896  0.88306605  0.23605820  1
  Na  Na6  1  0.00985148  0.60360330  0.77058737  1
  Na  Na7  1  0.99790896  0.38306605  0.23605820  1
  Na  Na8  1  0.80081584  0.93179867  0.22187517  1
  Na  Na9  1  0.18461580  0.07066065  0.79092897  1
  Na  Na10  1  0.30081584  0.43179867  0.22187517  1
  Na  Na11  1  0.68461580  0.57066065  0.79092897  1
  Mg  Mg0  1  0.10431799  0.24470409  0.06299700  1
  Mg  Mg1  1  0.60431799  0.74470409  0.06299700  1
  Ti  Ti0  1  0.10314318  0.74507201  0.55838209  1
  Ti  Ti1  1  0.89230732  0.75492157  0.93491563  1
  Ti  Ti2  1  0.89793416  0.25496460  0.44356640  1
  Ti  Ti3  1  0.60314318  0.24507201  0.55838209  1
  Ti  Ti4  1  0.39230732  0.25492157  0.93491563  1
  Ti  Ti5  1  0.39793416  0.75496460  0.44356640  1
  Si  Si0  1  0.64916920  0.89816522  0.75169510  1
  Si  Si1  1  0.35400172  0.10071280  0.25262160  1
  Si  Si2  1  0.14916920  0.39816522  0.75169510  1
  Si  Si3  1  0.85400172  0.60071280  0.25262160  1
  P  P0  1  0.99622850  0.95812614  0.74460882  1
  P  P1  1  0.00148931  0.03975302  0.25647090  1
  P  P2  1  0.49622850  0.45812614  0.74460882  1
  P  P3  1  0.50148931  0.53975302  0.25647090  1
  P  P4  1  0.35560180  0.89463784  0.75959328  1
  P  P5  1  0.64476516  0.11426783  0.24387267  1
  P  P6  1  0.85560180  0.39463784  0.75959328  1
  P  P7  1  0.14476516  0.61426783  0.24387267  1
  O  O0  1  0.15584221  0.58064094  0.72813285  1
  O  O1  1  0.85187468  0.57113250  0.75201733  1
  O  O2  1  0.85428388  0.41517445  0.26270805  1
  O  O3  1  0.15154189  0.44168975  0.25407431  1
  O  O4  1  0.65584221  0.08064094  0.72813285  1
  O  O5  1  0.35187468  0.07113250  0.75201733  1
  O  O6  1  0.35428388  0.91517445  0.26270805  1
  O  O7  1  0.65154189  0.94168975  0.25407431  1
  O  O8  1  0.42809101  0.55239355  0.56589635  1
  O  O9  1  0.56482527  0.55777644  0.91011877  1
  O  O10  1  0.56356831  0.44475767  0.43192247  1
  O  O11  1  0.44011861  0.42907563  0.08635983  1
  O  O12  1  0.92809101  0.05239355  0.56589635  1
  O  O13  1  0.06482527  0.05777644  0.91011877  1
  O  O14  1  0.06356831  0.94475767  0.43192247  1
  O  O15  1  0.94011861  0.92907563  0.08635983  1
  O  O16  1  0.25332852  0.84117921  0.73730704  1
  O  O17  1  0.74725820  0.81242065  0.76053626  1
  O  O18  1  0.74144173  0.17919171  0.25425194  1
  O  O19  1  0.26209285  0.18548780  0.24897522  1
  O  O20  1  0.75332852  0.34117921  0.73730704  1
  O  O21  1  0.24725820  0.31242065  0.76053626  1
  O  O22  1  0.24144173  0.67919171  0.25425194  1
  O  O23  1  0.76209285  0.68548780  0.24897522  1
  O  O24  1  0.36100169  0.84510877  0.59393248  1
  O  O25  1  0.64822608  0.87383001  0.92831339  1
  O  O26  1  0.64407016  0.17144843  0.40879597  1
  O  O27  1  0.35714663  0.13959076  0.07097095  1
  O  O28  1  0.86100169  0.34510877  0.59393248  1
  O  O29  1  0.14822608  0.37383001  0.92831339  1
  O  O30  1  0.14407016  0.67144843  0.40879597  1
  O  O31  1  0.85714663  0.63959076  0.07097095  1
  O  O32  1  0.45202663  0.83726878  0.93736434  1
  O  O33  1  0.53806473  0.82239188  0.56933952  1
  O  O34  1  0.54222684  0.16847162  0.06401552  1
  O  O35  1  0.46995633  0.16111329  0.42997824  1
  O  O36  1  0.95202663  0.33726878  0.93736434  1
  O  O37  1  0.03806473  0.32239188  0.56933952  1
  O  O38  1  0.04222684  0.66847162  0.06401552  1
  O  O39  1  0.96995633  0.66111329  0.42997824  1
  O  O40  1  0.07548271  0.85370213  0.73291786  1
  O  O41  1  0.92157637  0.84825856  0.75621054  1
  O  O42  1  0.91236466  0.12927800  0.25213051  1
  O  O43  1  0.07366575  0.14900868  0.24705484  1
  O  O44  1  0.57548271  0.35370213  0.73291786  1
  O  O45  1  0.42157637  0.34825856  0.75621054  1
  O  O46  1  0.41236466  0.62927800  0.25213051  1
  O  O47  1  0.57366575  0.64900868  0.24705484  1
loop_
_geom_bond_atom_site_label_1
_geom_bond_atom_site_label_2
_geom_bond_distance
_geom_bond_site_symmetry_2
Na0 O22 2.428306 1_556
Na0 O6 2.440123 1_556
Na0 O0 2.460140 1_555
Na0 O46 2.460891 1_556
Na0 O16 2.498649 1_555
Na0 O40 2.542254 1_555
Na1 O23 2.333805 1_555
Na1 O47 2.450943 1_555
Na1 O7 2.463447 1_555
Na1 O17 2.474577 1_555
Na1 O1 2.493855 1_555
Na1 O41 2.511521 1_555
Na2 O18 2.428306 1_556
Na2 O2 2.440123 1_556
Na2 O4 2.460140 1_555
Na2 O42 2.460891 1_556
Na2 O20 2.498649 1_555
Na2 O44 2.542254 1_555
Na3 O19 2.333805 1_555
Na3 O43 2.450943 1_555
Na3 O3 2.463447 1_555
Na3 O21 2.474577 1_555
Na3 O5 2.493855 1_555
Na3 O45 2.511521 1_555
Na4 O5 2.363573 1_555
Na4 O34 2.422890 1_556
Na4 O4 2.494011 1_555
Na4 O45 2.527659 1_555
Na4 O44 2.541528 1_555
Na4 O25 2.701737 1_545
Na4 O35 2.772724 1_555
Na5 O7 2.340120 1_555
Na5 O32 2.355771 1_554
Na5 O47 2.358309 1_555
Na5 O6 2.374930 1_555
Na5 O46 2.655835 1_555
Na5 O33 2.713953 1_555
Na5 O27 2.907792 1_565
Na6 O1 2.363573 1_455
Na6 O38 2.422890 1_556
Na6 O0 2.494011 1_555
Na6 O41 2.527659 1_455
Na6 O40 2.541528 1_555
Na6 O29 2.701737 1_555
Na6 O39 2.772724 1_455
Na7 O3 2.340120 1_655
Na7 O36 2.355771 1_554
Na7 O43 2.358309 1_655
Na7 O2 2.374930 1_555
Na7 O42 2.655835 1_555
Na7 O37 2.713953 1_655
Na7 O31 2.907792 1_555
Na8 O23 2.316076 1_555
Na8 O42 2.360165 1_565
Na8 O25 2.363037 1_554
Na8 O18 2.456473 1_565
Na8 O7 2.477827 1_555
Na8 O12 2.729815 1_565
Na9 O40 2.409212 1_545
Na9 O21 2.432103 1_555
Na9 O16 2.461950 1_545
Na9 O27 2.463933 1_556
Na9 O13 2.603757 1_555
Na9 O5 2.791021 1_555
Na9 O14 2.840077 1_545
Na9 O37 2.992066 1_555
Na10 O19 2.316076 1_555
Na10 O46 2.360165 1_555
Na10 O29 2.363037 1_554
Na10 O22 2.456473 1_555
Na10 O3 2.477827 1_555
Na10 O8 2.729815 1_555
Na11 O44 2.409212 1_555
Na11 O17 2.432103 1_555
Na11 O20 2.461950 1_555
Na11 O31 2.463933 1_556
Na11 O9 2.603757 1_555
Na11 O1 2.791021 1_555
Na11 O10 2.840077 1_555
Na11 O33 2.992066 1_555
Mg0 O13 1.998891 1_554
Mg0 O29 2.035826 1_554
Mg0 O19 2.085673 1_555
Mg0 O36 2.111145 1_454
Mg0 O43 2.125288 1_555
Mg0 O3 2.240585 1_555
Mg1 O9 1.998891 1_554
Mg1 O25 2.035826 1_554
Mg1 O23 2.085673 1_555
Mg1 O32 2.111145 1_554
Mg1 O47 2.125288 1_555
Mg1 O7 2.240585 1_555
O0 Si2 1.645010 1_555
O0 Ti0 1.921726 1_555
O1 P6 1.567936 1_555
O1 Ti1 2.121306 1_555
O2 Si3 1.649560 1_555
O2 Ti2 1.962238 1_555
O3 P7 1.534943 1_555
O4 Si0 1.645010 1_545
O4 Ti3 1.921726 1_555
O5 P4 1.567936 1_545
O5 Ti4 2.121306 1_555
O6 Si1 1.649560 1_565
O6 Ti5 1.962238 1_555
O7 P5 1.534943 1_565
O8 P2 1.561219 1_555
O8 Ti5 2.019184 1_555
O9 P2 1.507317 1_555
O10 P3 1.539547 1_555
O10 Ti3 2.004434 1_555
O11 P3 1.579132 1_555
O11 Ti4 1.893330 1_554
O12 P0 1.561219 1_545
O12 Ti2 2.019184 1_555
O13 P0 1.507317 1_445
O14 P1 1.539547 1_565
O14 Ti0 2.004434 1_555
O15 P1 1.579132 1_665
O15 Ti1 1.893330 1_554
O16 P4 1.547438 1_555
O16 Ti0 2.097901 1_555
O17 Si0 1.654845 1_555
O17 Ti1 1.928693 1_555
O18 P5 1.551099 1_555
O18 Ti2 2.111880 1_555
O19 Si1 1.588662 1_555
O20 P6 1.547438 1_555
O20 Ti3 2.097901 1_555
O21 Si2 1.654845 1_555
O21 Ti4 1.928693 1_555
O22 P7 1.551099 1_555
O22 Ti5 2.111880 1_555
O23 Si3 1.588662 1_555
O24 P4 1.580219 1_555
O24 Ti5 1.898103 1_555
O25 Si0 1.593203 1_555
O26 P5 1.553143 1_555
O26 Ti3 1.880582 1_555
O27 Si1 1.679607 1_555
O27 Ti4 1.888244 1_554
O28 P6 1.580219 1_555
O28 Ti2 1.898103 1_555
O29 Si2 1.593203 1_555
O30 P7 1.553143 1_555
O30 Ti0 1.880582 1_555
O31 Si3 1.679607 1_555
O31 Ti1 1.888244 1_554
O32 P4 1.514866 1_555
O33 Si0 1.682760 1_555
O33 Ti5 1.874431 1_555
O34 P5 1.552872 1_555
O34 Ti4 2.057867 1_554
O35 Si1 1.655966 1_555
O35 Ti3 1.841609 1_555
O36 P6 1.514866 1_555
O37 Si2 1.682760 1_555
O37 Ti2 1.874431 1_455
O38 P7 1.552872 1_555
O38 Ti1 2.057867 1_454
O39 Si3 1.655966 1_555
O39 Ti0 1.841609 1_655
O40 P0 1.583336 1_455
O40 Ti0 2.061704 1_555
O41 P0 1.556784 1_555
O41 Ti1 2.060004 1_555
O42 P1 1.568956 1_655
O42 Ti2 2.143175 1_555
O43 P1 1.514446 1_555
O44 P2 1.583336 1_555
O44 Ti3 2.061704 1_555
O45 P2 1.556784 1_555
O45 Ti4 2.060004 1_555
O46 P3 1.568956 1_555
O46 Ti5 2.143175 1_555
O47 P3 1.514446 1_555
