# generated using pymatgen
data_MgMn6(O5F)2
_symmetry_space_group_name_H-M   'P 1'
_cell_length_a   5.14431318
_cell_length_b   7.48603810
_cell_length_c   5.76855193
_cell_angle_alpha   98.62628574
_cell_angle_beta   80.80602964
_cell_angle_gamma   95.67022670
_symmetry_Int_Tables_number   1
_chemical_formula_structural   MgMn6(O5F)2
_chemical_formula_sum   'Mg1 Mn6 O10 F2'
_cell_volume   216.17692661
_cell_formula_units_Z   1
loop_
 _symmetry_equiv_pos_site_id
 _symmetry_equiv_pos_as_xyz
  1  'x, y, z'
loop_
 _atom_site_type_symbol
 _atom_site_label
 _atom_site_symmetry_multiplicity
 _atom_site_fract_x
 _atom_site_fract_y
 _atom_site_fract_z
 _atom_site_occupancy
  Mg  Mg0  1  0.01846954  0.49925898  0.99390865  1
  Mn  Mn0  1  0.49495475  0.00792799  0.52160488  1
  Mn  Mn1  1  0.52192066  0.67538984  0.15906150  1
  Mn  Mn2  1  0.51804486  0.33337172  0.84834019  1
  Mn  Mn3  1  0.89759296  0.69968693  0.62414054  1
  Mn  Mn4  1  0.06816966  0.28497217  0.40604208  1
  Mn  Mn5  1  0.96866872  0.02020221  0.98572081  1
  O  O0  1  0.86444403  0.42516481  0.67803705  1
  O  O1  1  0.84607823  0.75743913  0.98761370  1
  O  O2  1  0.81345387  0.09566017  0.31050583  1
  O  O3  1  0.64876539  0.09602799  0.79958322  1
  O  O4  1  0.62005143  0.77014128  0.45833308  1
  O  O5  1  0.64573725  0.44563469  0.14051239  1
  O  O6  1  0.39092670  0.57097671  0.87496955  1
  O  O7  1  0.36955154  0.24602117  0.56462769  1
  O  O8  1  0.17214474  0.25760203  0.04431949  1
  O  O9  1  0.15276811  0.92177860  0.68285002  1
  F  F0  1  0.35364289  0.90984508  0.20751387  1
  F  F1  1  0.14849966  0.58111149  0.31945448  1
loop_
_geom_bond_atom_site_label_1
_geom_bond_atom_site_label_2
_geom_bond_distance
_geom_bond_site_symmetry_2
Mg0 O6 1.979221 1_555
Mg0 O5 1.996126 1_456
Mg0 O0 2.080132 1_455
Mg0 O8 2.120398 1_556
Mg0 O1 2.212091 1_455
Mn0 O3 1.901958 1_555
Mn0 O4 1.916364 1_545
Mn0 O7 1.923013 1_555
Mn0 O9 1.952485 1_545
Mn0 O2 1.997114 1_555
Mn1 O5 1.874807 1_555
Mn1 O4 1.891744 1_555
Mn1 O1 1.894464 1_554
Mn1 O6 1.901391 1_554
Mn2 O7 1.915566 1_555
Mn2 O3 1.927165 1_555
Mn2 O6 1.931543 1_555
Mn2 O5 1.948896 1_556
Mn2 O0 2.003472 1_555
Mn2 O8 2.028844 1_556
Mn3 O4 1.991991 1_555
Mn3 O9 2.035672 1_655
Mn3 O1 2.055847 1_555
Mn3 O0 2.110588 1_555
Mn4 O2 1.912764 1_455
Mn4 O0 1.964565 1_455
Mn4 O7 1.987016 1_555
Mn4 O8 2.053971 1_555
Mn5 O9 1.927496 1_645
Mn5 O2 1.939178 1_556
Mn5 O8 1.983326 1_656
Mn5 O1 2.006551 1_545
Mn5 O3 2.261748 1_555
F0 Mn1 1.995944 1_555
F0 Mn0 2.065607 1_565
F1 Mg0 2.079606 1_554
F1 Mn1 2.098667 1_555
F1 Mn3 2.139289 1_455
F1 Mn4 2.328116 1_555
