# generated using pymatgen
data_KSb2F7
_symmetry_space_group_name_H-M   'P 1'
_cell_length_a   7.55752417
_cell_length_b   8.43981295
_cell_length_c   10.42911439
_cell_angle_alpha   78.47584222
_cell_angle_beta   90.00000000
_cell_angle_gamma   90.00000000
_symmetry_Int_Tables_number   1
_chemical_formula_structural   KSb2F7
_chemical_formula_sum   'K4 Sb8 F28'
_cell_volume   651.80128012
_cell_formula_units_Z   4
loop_
 _symmetry_equiv_pos_site_id
 _symmetry_equiv_pos_as_xyz
  1  'x, y, z'
loop_
 _atom_site_type_symbol
 _atom_site_label
 _atom_site_symmetry_multiplicity
 _atom_site_fract_x
 _atom_site_fract_y
 _atom_site_fract_z
 _atom_site_occupancy
  K  K0  1  0.33469860  0.33007727  0.42967126  1
  K  K1  1  0.83469860  0.16992273  0.57032874  1
  K  K2  1  0.66530140  0.66992273  0.57032874  1
  K  K3  1  0.16530140  0.83007727  0.42967126  1
  Sb  Sb0  1  0.68696017  0.98742558  0.24959752  1
  Sb  Sb1  1  0.18696017  0.51257442  0.75040248  1
  Sb  Sb2  1  0.31303983  0.01257442  0.75040248  1
  Sb  Sb3  1  0.81303983  0.48742558  0.24959752  1
  Sb  Sb4  1  0.32093913  0.66079885  0.09921427  1
  Sb  Sb5  1  0.82093913  0.83920115  0.90078573  1
  Sb  Sb6  1  0.67906087  0.33920115  0.90078573  1
  Sb  Sb7  1  0.17906087  0.16079885  0.09921427  1
  F  F0  1  0.42929923  0.05501459  0.11883493  1
  F  F1  1  0.92929923  0.44498541  0.88116507  1
  F  F2  1  0.57070077  0.94498541  0.88116507  1
  F  F3  1  0.07070077  0.55501459  0.11883493  1
  F  F4  1  0.10810833  0.93261651  0.12472218  1
  F  F5  1  0.60810833  0.56738349  0.87527782  1
  F  F6  1  0.89189167  0.06738349  0.87527782  1
  F  F7  1  0.39189167  0.43261651  0.12472218  1
  F  F8  1  0.21179512  0.13552897  0.28561913  1
  F  F9  1  0.71179512  0.36447103  0.71438087  1
  F  F10  1  0.78820488  0.86447103  0.71438087  1
  F  F11  1  0.28820488  0.63552897  0.28561913  1
  F  F12  1  0.88055652  0.68824521  0.30257138  1
  F  F13  1  0.38055652  0.81175479  0.69742862  1
  F  F14  1  0.11944348  0.31175479  0.69742862  1
  F  F15  1  0.61944348  0.18824521  0.30257138  1
  F  F16  1  0.58037585  0.68886041  0.15529506  1
  F  F17  1  0.08037585  0.81113959  0.84470494  1
  F  F18  1  0.41962415  0.31113959  0.84470494  1
  F  F19  1  0.91962415  0.18886041  0.15529506  1
  F  F20  1  0.65950020  0.45901452  0.40701846  1
  F  F21  1  0.15950020  0.04098548  0.59298154  1
  F  F22  1  0.34049980  0.54098548  0.59298154  1
  F  F23  1  0.84049980  0.95901452  0.40701846  1
  F  F24  1  0.98890852  0.37826357  0.37452953  1
  F  F25  1  0.48890852  0.12173643  0.62547047  1
  F  F26  1  0.01109148  0.62173643  0.62547047  1
  F  F27  1  0.51109148  0.87826357  0.37452953  1
loop_
_geom_bond_atom_site_label_1
_geom_bond_atom_site_label_2
_geom_bond_distance
_geom_bond_site_symmetry_2
F0 Sb7 2.083876 1_555
F0 Sb0 2.380388 1_545
F1 Sb6 2.083876 1_555
F1 Sb1 2.380388 1_655
F2 Sb5 2.083876 1_555
F2 Sb2 2.380388 1_565
F3 Sb4 2.083876 1_555
F3 Sb3 2.380388 1_455
F4 Sb7 1.965292 1_565
F4 K3 3.154468 1_555
F5 Sb6 1.965292 1_555
F5 K2 3.154468 1_555
F6 Sb5 1.965292 1_545
F6 K1 3.154468 1_555
F7 Sb4 1.965292 1_555
F7 K0 3.154468 1_555
F8 Sb7 1.928810 1_555
F8 K0 2.607949 1_555
F8 K3 2.734748 1_545
F9 Sb6 1.928810 1_555
F9 K1 2.607949 1_555
F9 K2 2.734748 1_555
F10 Sb5 1.928810 1_555
F10 K2 2.607949 1_555
F10 K1 2.734748 1_565
F11 Sb4 1.928810 1_555
F11 K3 2.607949 1_555
F11 K0 2.734748 1_555
F12 Sb3 1.952523 1_555
F12 K3 2.907731 1_655
F12 K2 3.208697 1_555
F13 Sb2 1.952523 1_565
F13 K2 2.907731 1_555
F13 K3 3.208697 1_555
F14 Sb1 1.952523 1_555
F14 K1 2.907731 1_455
F14 K0 3.208697 1_555
F15 Sb0 1.952523 1_545
F15 K0 2.907731 1_555
F15 K1 3.208697 1_555
F16 Sb4 2.073127 1_555
F16 Sb3 2.506247 1_555
F17 Sb5 2.073127 1_455
F17 Sb2 2.506247 1_565
F18 Sb6 2.073127 1_555
F18 Sb1 2.506247 1_555
F19 Sb7 2.073127 1_655
F19 Sb0 2.506247 1_545
F20 Sb3 1.985462 1_555
F20 K0 2.676344 1_555
F20 K2 2.698629 1_555
F20 K1 2.991085 1_555
F21 Sb2 1.985462 1_555
F21 K1 2.676344 1_455
F21 K3 2.698629 1_545
F21 K0 2.991085 1_555
F22 Sb1 1.985462 1_555
F22 K2 2.676344 1_555
F22 K0 2.698629 1_555
F22 K3 2.991085 1_555
F23 Sb0 1.985462 1_555
F23 K3 2.676344 1_655
F23 K1 2.698629 1_565
F23 K2 2.991085 1_555
F24 Sb3 1.957905 1_555
F24 K1 2.680529 1_555
F24 K0 2.689254 1_655
F25 Sb2 1.957905 1_555
F25 K0 2.680529 1_555
F25 K1 2.689254 1_555
F26 Sb1 1.957905 1_555
F26 K3 2.680529 1_555
F26 K2 2.689254 1_455
F27 Sb0 1.957905 1_555
F27 K2 2.680529 1_555
F27 K3 2.689254 1_555
