# generated using pymatgen
data_MgCr2(CoO4)2
_symmetry_space_group_name_H-M   'P 1'
_cell_length_a   5.15358312
_cell_length_b   5.15825571
_cell_length_c   6.35733405
_cell_angle_alpha   89.99053697
_cell_angle_beta   89.99883343
_cell_angle_gamma   112.91244830
_symmetry_Int_Tables_number   1
_chemical_formula_structural   MgCr2(CoO4)2
_chemical_formula_sum   'Mg1 Cr2 Co2 O8'
_cell_volume   155.66621161
_cell_formula_units_Z   1
loop_
 _symmetry_equiv_pos_site_id
 _symmetry_equiv_pos_as_xyz
  1  'x, y, z'
loop_
 _atom_site_type_symbol
 _atom_site_label
 _atom_site_symmetry_multiplicity
 _atom_site_fract_x
 _atom_site_fract_y
 _atom_site_fract_z
 _atom_site_occupancy
  Mg  Mg0  1  0.66250200  0.33702300  0.75041100  1
  Cr  Cr0  1  0.34071800  0.65831700  0.74955300  1
  Cr  Cr1  1  0.63941500  0.36211300  0.25032300  1
  Co  Co0  1  0.99882400  0.00025900  0.00518800  1
  Co  Co1  1  0.99867900  0.99974200  0.49513200  1
  O  O0  1  0.23658500  0.76166300  0.53043900  1
  O  O1  1  0.76301600  0.23772500  0.02863400  1
  O  O2  1  0.78893000  0.72457400  0.25005900  1
  O  O3  1  0.27787800  0.21447800  0.25004500  1
  O  O4  1  0.24477100  0.27454400  0.75007300  1
  O  O5  1  0.72424900  0.75416300  0.74990500  1
  O  O6  1  0.23636900  0.76254800  0.96811200  1
  O  O7  1  0.76306400  0.23785100  0.47212800  1
loop_
_geom_bond_atom_site_label_1
_geom_bond_atom_site_label_2
_geom_bond_distance
_geom_bond_site_symmetry_2
Mg0 O1 1.966092 1_556
Mg0 O7 1.966423 1_555
Mg0 O5 2.048901 1_555
Mg0 O4 2.048959 1_555
Cr0 O6 1.653540 1_555
Cr0 O0 1.653820 1_555
Cr0 O5 1.841282 1_555
Cr0 O4 1.844218 1_555
Cr1 O3 1.716587 1_555
Cr1 O2 1.722680 1_555
Cr1 O1 1.766977 1_555
Cr1 O7 1.767214 1_555
Co0 O1 2.039265 1_555
Co0 O6 2.055882 1_644
Co0 O2 2.101707 1_545
Co0 O3 2.115571 1_655
Co0 O4 2.200347 1_654
Co0 O5 2.202216 1_544
Co1 O7 2.040974 1_565
Co1 O0 2.057697 1_655
Co1 O2 2.101583 1_555
Co1 O3 2.117379 1_665
Co1 O5 2.198293 1_555
Co1 O4 2.201276 1_665
