# generated using pymatgen
data_Na8La2Zr2Si5SO24
_symmetry_space_group_name_H-M   'P 1'
_cell_length_a   9.55936312
_cell_length_b   9.55367370
_cell_length_c   23.06712883
_cell_angle_alpha   90.12789794
_cell_angle_beta   89.71563976
_cell_angle_gamma   120.09741745
_symmetry_Int_Tables_number   1
_chemical_formula_structural   Na8La2Zr2Si5SO24
_chemical_formula_sum   'Na24 La6 Zr6 Si15 S3 O72'
_cell_volume   1822.59850052
_cell_formula_units_Z   3
loop_
 _symmetry_equiv_pos_site_id
 _symmetry_equiv_pos_as_xyz
  1  'x, y, z'
loop_
 _atom_site_type_symbol
 _atom_site_label
 _atom_site_symmetry_multiplicity
 _atom_site_fract_x
 _atom_site_fract_y
 _atom_site_fract_z
 _atom_site_occupancy
  Na  Na0  1  0.64913328  0.00605038  0.25379730  1
  Na  Na1  1  0.35000841  0.35986910  0.24705288  1
  Na  Na2  1  0.00090574  0.64209603  0.24964313  1
  Na  Na3  1  0.63669280  0.63429732  0.74206133  1
  Na  Na4  1  0.98860024  0.35464764  0.74548563  1
  Na  Na5  1  0.36956485  0.01374065  0.74596669  1
  Na  Na6  1  0.30050915  0.33765001  0.59273319  1
  Na  Na7  1  0.03828762  0.70391175  0.58398823  1
  Na  Na8  1  0.66622353  0.95909659  0.58467026  1
  Na  Na9  1  0.27891922  0.96466454  0.08188081  1
  Na  Na10  1  0.67114244  0.68329154  0.09511251  1
  Na  Na11  1  0.05179921  0.33961651  0.09306055  1
  Na  Na12  1  0.98475069  0.67245837  0.91143175  1
  Na  Na13  1  0.70905263  0.05304012  0.89926030  1
  Na  Na14  1  0.31331822  0.27606542  0.91571460  1
  Na  Na15  1  0.95071119  0.29738779  0.40744494  1
  Na  Na16  1  0.32955186  0.01569576  0.41470695  1
  Na  Na17  1  0.71356918  0.67988001  0.41931442  1
  Na  Na18  1  0.98273083  0.98103928  0.50433655  1
  Na  Na19  1  0.03635519  0.01603407  0.99871603  1
  Na  Na20  1  0.66859807  0.32003530  0.82826498  1
  Na  Na21  1  0.67597996  0.32965037  0.33256866  1
  Na  Na22  1  0.31879252  0.64816472  0.17042134  1
  Na  Na23  1  0.33715688  0.66646551  0.66600617  1
  La  La0  1  0.99574795  0.99502269  0.34262496  1
  La  La1  1  0.00805141  0.00552707  0.83751849  1
  La  La2  1  0.00534291  0.99930307  0.16009711  1
  La  La3  1  0.66748571  0.33495211  0.98089896  1
  La  La4  1  0.31560429  0.65704625  0.01651797  1
  La  La5  1  0.33511501  0.67560362  0.51976734  1
  Zr  Zr0  1  -0.00037140  -0.00042933  0.65008839  1
  Zr  Zr1  1  0.66773164  0.33370655  0.68271985  1
  Zr  Zr2  1  0.66483803  0.34428445  0.18475966  1
  Zr  Zr3  1  0.67726614  0.33074848  0.48688836  1
  Zr  Zr4  1  0.33071599  0.68007152  0.31845470  1
  Zr  Zr5  1  0.31853126  0.66642558  0.80969407  1
  Si  Si0  1  0.32439779  0.00413814  0.25083144  1
  Si  Si1  1  0.67297593  0.68036028  0.25102626  1
  Si  Si2  1  0.00112335  0.32435489  0.25050753  1
  Si  Si3  1  0.30993256  0.31053390  0.74828884  1
  Si  Si4  1  0.99488189  0.69155016  0.74932315  1
  Si  Si5  1  0.69084182  0.99778506  0.74894515  1
  Si  Si6  1  0.95755725  0.31854605  0.58600612  1
  Si  Si7  1  0.36759187  0.04899397  0.58457477  1
  Si  Si8  1  0.67933311  0.63098545  0.58416331  1
  Si  Si9  1  0.96579135  0.63813758  0.08330669  1
  Si  Si10  1  0.36416226  0.33206291  0.08346225  1
  Si  Si11  1  0.03185982  0.36178131  0.91243439  1
  Si  Si12  1  0.33367383  0.96625287  0.91468268  1
  Si  Si13  1  0.63802433  0.97737523  0.41942370  1
  Si  Si14  1  0.02200332  0.66005097  0.42028617  1
  S  S0  1  0.66947928  0.03510402  0.08704213  1
  S  S1  1  0.62712254  0.66836826  0.91167525  1
  S  S2  1  0.34363341  0.36833824  0.41674944  1
  O  O0  1  0.25322174  0.05458600  0.30640469  1
  O  O1  1  0.79943919  0.75462878  0.30493500  1
  O  O2  1  0.95665675  0.20278876  0.30602330  1
  O  O3  1  0.25392478  0.20803528  0.80829938  1
  O  O4  1  0.95299625  0.74845503  0.80990344  1
  O  O5  1  0.79356144  0.04045137  0.80846684  1
  O  O6  1  0.79957534  0.97348334  0.69708216  1
  O  O7  1  0.17472223  0.20238712  0.69684611  1
  O  O8  1  0.02337954  0.82538903  0.69753092  1
  O  O9  1  0.74173065  0.79943253  0.19467669  1
  O  O10  1  0.04618548  0.25110154  0.19382988  1
  O  O11  1  0.20161763  0.95288609  0.19583663  1
  O  O12  1  0.85891055  0.33393162  0.64090717  1
  O  O13  1  0.47877899  0.14822537  0.63991781  1
  O  O14  1  0.67123779  0.52251325  0.63988073  1
  O  O15  1  0.84613058  0.52076699  0.13635734  1
  O  O16  1  0.67045198  0.13584882  0.13650149  1
  O  O17  1  0.47539057  0.31943170  0.13648009  1
  O  O18  1  0.44184260  0.32040753  0.02139283  1
  O  O19  1  0.88085293  0.55627931  0.02149605  1
  O  O20  1  0.67601008  0.11710623  0.03154069  1
  O  O21  1  0.46383565  0.15612004  0.52561415  1
  O  O22  1  0.69174590  0.53500080  0.52524577  1
  O  O23  1  0.84786606  0.30633608  0.52743406  1
  O  O24  1  0.55268731  0.67410118  0.96777888  1
  O  O25  1  0.12328237  0.43782796  0.97415064  1
  O  O26  1  0.33429942  0.88351609  0.97696620  1
  O  O27  1  0.56856499  0.87388601  0.47889923  1
  O  O28  1  0.32521451  0.43984414  0.47135556  1
  O  O29  1  0.11981474  0.68052268  0.47996613  1
  O  O30  1  0.13099169  0.64853908  0.36573182  1
  O  O31  1  0.51595968  0.86678382  0.36563576  1
  O  O32  1  0.34770681  0.46846380  0.36654819  1
  O  O33  1  0.15218486  0.47881200  0.85882395  1
  O  O34  1  0.33228666  0.84718640  0.86086302  1
  O  O35  1  0.52783583  0.66964825  0.86238862  1
  O  O36  1  0.00109979  0.82015304  0.41500082  1
  O  O37  1  0.82390510  0.01331725  0.41241022  1
  O  O38  1  0.20466824  0.20152008  0.41245473  1
  O  O39  1  0.00292583  0.17746881  0.91124491  1
  O  O40  1  0.16743674  0.97763411  0.91419041  1
  O  O41  1  0.79179895  0.81153254  0.90990234  1
  O  O42  1  0.96223978  0.14833374  0.58849056  1
  O  O43  1  0.18872910  0.03709809  0.58849511  1
  O  O44  1  0.84661094  0.81061351  0.58767727  1
  O  O45  1  0.97945862  0.81663903  0.08594554  1
  O  O46  1  0.81420311  0.01662060  0.08888231  1
  O  O47  1  0.17880206  0.17660440  0.08629036  1
  O  O48  1  0.65909524  0.15089650  0.73922888  1
  O  O49  1  0.49374573  0.34174848  0.73765674  1
  O  O50  1  0.84727561  0.50588987  0.73910591  1
  O  O51  1  0.64660168  0.49686469  0.24135573  1
  O  O52  1  0.84398465  0.34965771  0.24147088  1
  O  O53  1  0.51021604  0.15140023  0.24024572  1
  O  O54  1  0.63465733  0.51676093  0.90769075  1
  O  O55  1  0.86128746  0.36408153  0.90627405  1
  O  O56  1  0.49926540  0.14330476  0.90637679  1
  O  O57  1  0.63436923  0.15076091  0.41992162  1
  O  O58  1  0.49860293  0.36571136  0.41670916  1
  O  O59  1  0.84289233  0.48916893  0.41933694  1
  O  O60  1  0.37004021  0.50646586  0.09204572  1
  O  O61  1  0.14340443  0.65160239  0.09242693  1
  O  O62  1  0.52050225  0.87447023  0.09074247  1
  O  O63  1  0.34692831  0.86768005  0.58666183  1
  O  O64  1  0.51687647  0.64757772  0.58584577  1
  O  O65  1  0.14005800  0.47497366  0.58562400  1
  O  O66  1  0.34192181  0.84223834  0.26131365  1
  O  O67  1  0.49115633  0.64945142  0.26493477  1
  O  O68  1  0.16093794  0.50434042  0.26136538  1
  O  O69  1  0.32026515  0.48855936  0.75101171  1
  O  O70  1  0.16596682  0.68464492  0.75116683  1
  O  O71  1  0.51437843  0.82766039  0.75239363  1
loop_
_geom_bond_atom_site_label_1
_geom_bond_atom_site_label_2
_geom_bond_distance
_geom_bond_site_symmetry_2
Na0 O53 2.375921 1_555
Na0 O66 2.547624 1_545
Na0 O2 2.847711 1_555
Na0 O52 2.862321 1_555
Na0 O9 2.875461 1_545
Na0 O31 2.886204 1_545
Na0 O16 2.942108 1_555
Na0 O67 2.965321 1_545
Na1 O67 2.429237 1_555
Na1 O51 2.458497 1_555
Na1 O68 2.788318 1_555
Na1 O10 2.832865 1_555
Na1 O17 2.919080 1_555
Na1 O0 2.921583 1_555
Na1 O32 2.946894 1_555
Na2 O52 2.426630 1_455
Na2 O68 2.484034 1_555
Na2 O66 2.847865 1_555
Na2 O11 2.883923 1_555
Na2 O1 2.921939 1_455
Na2 O15 2.943837 1_455
Na2 O30 2.945592 1_555
Na2 O51 2.953811 1_455
Na3 O49 2.420500 1_555
Na3 O69 2.627167 1_555
Na3 O71 2.645406 1_555
Na3 O14 2.672043 1_555
Na3 O50 2.834955 1_555
Na4 O50 2.428022 1_555
Na4 O12 2.678979 1_555
Na4 O70 2.733235 1_655
Na4 O48 2.754154 1_555
Na4 O69 2.764100 1_655
Na4 O33 2.975537 1_655
Na4 O5 2.996114 1_555
Na4 O7 3.018119 1_655
Na5 O48 2.400158 1_555
Na5 O13 2.714444 1_555
Na5 O49 2.745066 1_555
Na5 O70 2.747670 1_545
Na5 O71 2.751395 1_545
Na5 O3 2.960620 1_555
Na5 O34 3.020581 1_545
Na5 O8 3.081090 1_545
Na6 O65 2.474333 1_555
Na6 O43 2.513702 1_555
Na6 O64 2.631927 1_555
Na6 O7 2.703732 1_555
Na6 O42 2.806036 1_455
Na6 O28 2.936400 1_555
Na7 O44 2.505027 1_455
Na7 O63 2.555047 1_555
Na7 O29 2.562923 1_555
Na7 O43 2.760478 1_565
Na7 O65 2.804739 1_555
Na7 O8 2.894047 1_555
Na8 O42 2.480821 1_565
Na8 O64 2.575840 1_555
Na8 O27 2.595872 1_555
Na8 O63 2.721464 1_555
Na8 O44 2.728665 1_555
Na8 O6 2.867603 1_555
Na9 O45 2.478141 1_455
Na9 O61 2.607103 1_555
Na9 O47 2.639660 1_565
Na9 O26 2.669948 1_554
Na9 O11 2.714235 1_555
Na9 O62 2.849354 1_555
Na10 O9 2.492832 1_555
Na10 O60 2.503680 1_555
Na10 O45 2.565836 1_555
Na10 O46 2.768443 1_565
Na10 O62 2.839002 1_555
Na10 O15 2.956620 1_555
Na11 O47 2.411861 1_555
Na11 O10 2.466399 1_555
Na11 O60 2.632908 1_555
Na11 O61 2.652053 1_555
Na11 O46 2.767966 1_455
Na11 O25 2.867178 1_554
Na12 O4 2.517893 1_555
Na12 O40 2.539280 1_655
Na12 O55 2.568905 1_555
Na12 O19 2.747029 1_556
Na12 O41 2.761805 1_555
Na12 O54 2.903408 1_555
Na13 O5 2.265589 1_555
Na13 O39 2.457297 1_655
Na13 O56 2.554009 1_555
Na13 O55 2.576300 1_555
Na13 O41 2.800786 1_545
Na14 O40 2.467221 1_545
Na14 O3 2.553576 1_555
Na14 O39 2.627043 1_555
Na14 O56 2.659118 1_555
Na14 O18 2.671031 1_556
Na14 O54 2.769441 1_555
Na15 O37 2.355507 1_555
Na15 O2 2.516759 1_555
Na15 O59 2.526558 1_555
Na15 O57 2.633333 1_555
Na16 O57 2.530191 1_555
Na16 O38 2.589638 1_555
Na16 O0 2.684346 1_555
Na16 O36 2.732271 1_545
Na16 O21 2.877957 1_555
Na16 O58 2.894103 1_555
Na16 O31 2.999311 1_545
Na17 O36 2.379968 1_655
Na17 O58 2.655111 1_555
Na17 O59 2.665902 1_555
Na17 O1 2.746627 1_555
Na17 O22 2.765975 1_555
Na17 O37 2.813601 1_565
Na18 O44 2.429855 1_555
Na18 O42 2.580204 1_565
Na18 O36 2.625432 1_655
Na18 O43 2.628462 1_665
Na18 O37 2.720499 1_565
Na18 O38 2.987196 1_665
Na19 O40 2.437195 1_545
Na19 O47 2.491320 1_556
Na19 O45 2.634476 1_446
Na19 O39 2.658297 1_555
Na19 O46 2.967116 1_456
Na19 O41 2.988020 1_445
Na20 O56 2.441528 1_555
Na20 O55 2.461731 1_555
Na20 O48 2.584050 1_555
Na20 O50 2.690659 1_555
Na20 O54 2.754016 1_555
Na20 O49 2.754929 1_555
Na21 O59 2.540407 1_555
Na21 O57 2.542604 1_555
Na21 O52 2.586885 1_555
Na21 O53 2.693910 1_555
Na21 O58 2.703892 1_555
Na21 O51 2.743838 1_555
Na22 O60 2.446743 1_555
Na22 O61 2.476747 1_555
Na22 O68 2.543191 1_555
Na22 O66 2.731036 1_555
Na22 O67 2.735566 1_555
Na22 O62 2.751722 1_555
Na23 O69 2.548775 1_555
Na23 O71 2.572107 1_555
Na23 O64 2.584775 1_555
Na23 O70 2.611270 1_555
Na23 O63 2.624467 1_555
Na23 O65 2.626276 1_555
La0 O1 2.288395 1_555
La0 O2 2.355198 1_565
La0 O37 2.362366 1_565
La0 O0 2.378402 1_665
La0 O36 2.383263 1_655
La0 O38 2.557599 1_665
La1 O3 2.269602 1_555
La1 O4 2.326924 1_445
La1 O5 2.337792 1_455
La1 O39 2.379168 1_555
La1 O40 2.440584 1_545
La1 O41 2.575502 1_445
La2 O11 2.290878 1_555
La2 O45 2.364345 1_455
La2 O10 2.365902 1_565
La2 O47 2.384349 1_565
La2 O9 2.406963 1_455
La2 O46 2.529559 1_465
La3 O19 2.278772 1_556
La3 O18 2.285706 1_556
La3 O20 2.425828 1_556
La3 O55 2.434380 1_555
La3 O56 2.440016 1_555
La3 O54 2.555819 1_555
La4 O25 2.206428 1_554
La4 O26 2.272652 1_554
La4 O61 2.379991 1_555
La4 O24 2.456033 1_554
La4 O60 2.479241 1_555
La4 O62 2.649437 1_555
La5 O29 2.279690 1_555
La5 O27 2.281352 1_555
La5 O63 2.354232 1_555
La5 O65 2.420503 1_555
La5 O64 2.430779 1_555
La5 O28 2.470873 1_555
O0 Si0 1.629727 1_555
O1 Si1 1.631544 1_555
O2 Si2 1.635713 1_655
O3 Si3 1.623156 1_555
O4 Si4 1.618028 1_555
O5 Si5 1.620158 1_545
O6 Si5 1.671515 1_555
O6 Zr0 2.096903 1_665
O7 Si3 1.678276 1_555
O7 Zr0 2.115458 1_555
O8 Si4 1.670540 1_455
O8 Zr0 2.099488 1_565
O9 Si1 1.632130 1_555
O10 Si2 1.636240 1_555
O11 Si0 1.631630 1_565
O12 Si6 1.625109 1_555
O12 Zr1 2.061254 1_555
O13 Si7 1.629615 1_555
O13 Zr1 2.043819 1_555
O14 Si8 1.629814 1_555
O14 Zr1 2.044088 1_555
O15 Si9 1.664070 1_555
O15 Zr2 2.037496 1_555
O16 S0 1.488055 1_555
O16 Zr2 2.303066 1_555
O17 Si10 1.668238 1_555
O17 Zr2 2.040570 1_555
O18 Si10 1.638727 1_555
O19 Si9 1.635058 1_555
O20 S0 1.487058 1_555
O21 Si7 1.671245 1_555
O21 Zr3 2.078146 1_555
O22 Si8 1.674511 1_555
O22 Zr3 2.081451 1_555
O23 Si6 1.682037 1_555
O23 Zr3 1.996576 1_555
O24 S1 1.487871 1_555
O25 Si11 1.639884 1_555
O26 Si12 1.642815 1_555
O27 Si13 1.624561 1_555
O28 S2 1.482865 1_555
O29 Si14 1.623522 1_555
O30 Si14 1.668070 1_555
O30 Zr4 2.080668 1_555
O31 Si13 1.670128 1_555
O31 Zr4 2.084359 1_555
O32 S2 1.491522 1_555
O32 Zr4 2.384370 1_555
O33 Si11 1.674700 1_555
O33 Zr5 2.039175 1_555
O34 Si12 1.677527 1_555
O34 Zr5 2.038977 1_555
O35 S1 1.488600 1_555
O35 Zr5 2.333213 1_555
O36 Si14 1.643768 1_555
O37 Si13 1.639180 1_545
O38 S2 1.480442 1_555
O39 Si11 1.639901 1_555
O40 Si12 1.646432 1_555
O41 S1 1.480093 1_555
O42 Si6 1.650184 1_555
O42 Zr0 2.165660 1_655
O43 Si7 1.657763 1_555
O43 Zr0 2.177531 1_555
O44 Si8 1.660431 1_555
O44 Zr0 2.198184 1_665
O45 Si9 1.644728 1_555
O46 S0 1.480743 1_555
O47 Si10 1.646107 1_555
O48 Si5 1.652093 1_545
O48 Zr1 2.149582 1_555
O49 Si3 1.645331 1_555
O49 Zr1 2.117737 1_555
O50 Si4 1.638280 1_555
O50 Zr1 2.127073 1_555
O51 Si1 1.655918 1_555
O51 Zr2 2.025771 1_555
O52 Si2 1.651015 1_655
O52 Zr2 2.140198 1_555
O53 Si0 1.638607 1_555
O53 Zr2 2.116275 1_555
O54 S1 1.488453 1_555
O55 Si11 1.648534 1_655
O56 Si12 1.648211 1_545
O57 Si13 1.674278 1_545
O57 Zr3 2.190525 1_555
O58 S2 1.494148 1_555
O58 Zr3 2.500231 1_555
O59 Si14 1.671538 1_655
O59 Zr3 2.192758 1_555
O60 Si10 1.650238 1_555
O61 Si9 1.651646 1_455
O62 S0 1.482555 1_565
O63 Si7 1.642866 1_565
O64 Si8 1.638493 1_555
O65 Si6 1.631593 1_455
O66 Si0 1.655556 1_565
O66 Zr4 1.997592 1_555
O67 Si1 1.640483 1_555
O67 Zr4 2.095597 1_555
O68 Si2 1.649430 1_555
O68 Zr4 2.113151 1_555
O69 Si3 1.654542 1_555
O69 Zr5 2.176670 1_555
O70 Si4 1.670273 1_455
O70 Zr5 2.062796 1_555
O71 Si5 1.656201 1_555
O71 Zr5 2.171873 1_555
