# generated using pymatgen
data_Na2NbGa3Si2(SO6)4
_symmetry_space_group_name_H-M   'P 1'
_cell_length_a   8.67407398
_cell_length_b   8.65342970
_cell_length_c   22.52431260
_cell_angle_alpha   90.19217550
_cell_angle_beta   89.34339054
_cell_angle_gamma   119.95945389
_symmetry_Int_Tables_number   1
_chemical_formula_structural   Na2NbGa3Si2(SO6)4
_chemical_formula_sum   'Na6 Nb3 Ga9 Si6 S12 O72'
_cell_volume   1464.67315420
_cell_formula_units_Z   3
loop_
 _symmetry_equiv_pos_site_id
 _symmetry_equiv_pos_as_xyz
  1  'x, y, z'
loop_
 _atom_site_type_symbol
 _atom_site_label
 _atom_site_symmetry_multiplicity
 _atom_site_fract_x
 _atom_site_fract_y
 _atom_site_fract_z
 _atom_site_occupancy
  Na  Na0  1  0.00083293  0.99581364  0.49838317  1
  Na  Na1  1  0.00016053  0.98923372  0.99882603  1
  Na  Na2  1  0.65479609  0.32973509  0.83227553  1
  Na  Na3  1  0.67698862  0.33622496  0.33193941  1
  Na  Na4  1  0.32504236  0.66182224  0.16004579  1
  Na  Na5  1  0.33080716  0.65980346  0.66664371  1
  Nb  Nb0  1  0.66570489  0.34660284  0.97840210  1
  Nb  Nb1  1  0.31285307  0.65360840  0.31038044  1
  Nb  Nb2  1  0.34401372  0.66454485  0.81454699  1
  Ga  Ga0  1  0.99510750  0.99511850  0.35036625  1
  Ga  Ga1  1  0.01745490  0.99912696  0.85631554  1
  Ga  Ga2  1  0.00755555  0.00987452  0.65264102  1
  Ga  Ga3  1  0.00021989  0.00163975  0.14470955  1
  Ga  Ga4  1  0.65467099  0.33254264  0.68718917  1
  Ga  Ga5  1  0.69561103  0.33926851  0.18389014  1
  Ga  Ga6  1  0.67877604  0.34182870  0.48056275  1
  Ga  Ga7  1  0.33282938  0.68285093  0.01791113  1
  Ga  Ga8  1  0.32434909  0.67204035  0.51533291  1
  Si  Si0  1  0.98239409  0.26358186  0.24889277  1
  Si  Si1  1  0.28612930  0.28064710  0.74867289  1
  Si  Si2  1  0.96972973  0.63438304  0.08587629  1
  Si  Si3  1  0.62994694  0.68359002  0.92027621  1
  Si  Si4  1  0.32980281  0.95600128  0.91826739  1
  Si  Si5  1  0.03405084  0.67195333  0.42048848  1
  S  S0  1  0.29313162  0.00856208  0.24913117  1
  S  S1  1  0.71196964  0.70806974  0.24995634  1
  S  S2  1  0.99575208  0.70805172  0.74787569  1
  S  S3  1  0.71637584  0.00564876  0.74847059  1
  S  S4  1  0.95426512  0.33131035  0.58399324  1
  S  S5  1  0.37909624  0.04437401  0.58239916  1
  S  S6  1  0.66653708  0.62701275  0.58316676  1
  S  S7  1  0.66645157  0.04261390  0.08468330  1
  S  S8  1  0.37721211  0.33487053  0.08644823  1
  S  S9  1  0.04596346  0.37444169  0.91787561  1
  S  S10  1  0.62280138  0.95675370  0.41846359  1
  S  S11  1  0.33395914  0.37542086  0.41896964  1
  O  O0  1  0.21480018  0.03117152  0.30433156  1
  O  O1  1  0.81857883  0.78298497  0.30400258  1
  O  O2  1  0.96867248  0.16342884  0.31069741  1
  O  O3  1  0.19489366  0.16519136  0.80736843  1
  O  O4  1  0.96092836  0.78178888  0.80156563  1
  O  O5  1  0.81745620  0.02960883  0.80202676  1
  O  O6  1  0.78740657  0.96532413  0.69378568  1
  O  O7  1  0.16998571  0.20850910  0.68859176  1
  O  O8  1  0.02739898  0.81742398  0.69336396  1
  O  O9  1  0.78662067  0.81898994  0.19689660  1
  O  O10  1  0.03577650  0.19297137  0.19061948  1
  O  O11  1  0.18074768  0.96358634  0.19675431  1
  O  O12  1  0.87301927  0.36292636  0.63757624  1
  O  O13  1  0.48859705  0.12361035  0.63587759  1
  O  O14  1  0.63474009  0.51542740  0.63665361  1
  O  O15  1  0.87451220  0.50815251  0.14219398  1
  O  O16  1  0.63090292  0.11965864  0.13869544  1
  O  O17  1  0.48629499  0.35828724  0.13875382  1
  O  O18  1  0.45994344  0.30379984  0.03056720  1
  O  O19  1  0.83583065  0.53224236  0.02697546  1
  O  O20  1  0.69298382  0.15367780  0.03093798  1
  O  O21  1  0.46064102  0.15650755  0.52847986  1
  O  O22  1  0.69850369  0.54712392  0.52913914  1
  O  O23  1  0.84544045  0.30220844  0.53007911  1
  O  O24  1  0.52897555  0.69479516  0.97786209  1
  O  O25  1  0.15240529  0.45271276  0.97068338  1
  O  O26  1  0.29459061  0.83533956  0.97500297  1
  O  O27  1  0.54451534  0.84426421  0.47249778  1
  O  O28  1  0.30595936  0.45944217  0.47239252  1
  O  O29  1  0.16382118  0.70586186  0.47560757  1
  O  O30  1  0.13476621  0.63704663  0.36058178  1
  O  O31  1  0.51328831  0.87388237  0.36465619  1
  O  O32  1  0.36701542  0.48971613  0.36435655  1
  O  O33  1  0.12362675  0.48833743  0.86299117  1
  O  O34  1  0.36267734  0.86291660  0.85755617  1
  O  O35  1  0.50132079  0.63110270  0.85948022  1
  O  O36  1  0.02108983  0.84906397  0.40654337  1
  O  O37  1  0.80089742  0.97681848  0.41230480  1
  O  O38  1  0.17399467  0.20097332  0.41171013  1
  O  O39  1  0.02098514  0.19764227  0.90947546  1
  O  O40  1  0.16164475  0.98203966  0.91163228  1
  O  O41  1  0.81876401  0.85085593  0.90507317  1
  O  O42  1  0.96968226  0.16789394  0.58903846  1
  O  O43  1  0.19783485  0.02200506  0.58825428  1
  O  O44  1  0.82823222  0.80647512  0.59040143  1
  O  O45  1  0.97892345  0.82726527  0.09157716  1
  O  O46  1  0.83026543  0.03119414  0.08920250  1
  O  O47  1  0.20090874  0.17174141  0.08874317  1
  O  O48  1  0.69651120  0.16490335  0.74064292  1
  O  O49  1  0.48847877  0.31146055  0.74234768  1
  O  O50  1  0.83938341  0.52626873  0.74051465  1
  O  O51  1  0.68180195  0.52610756  0.24394418  1
  O  O52  1  0.81994661  0.30468389  0.24552432  1
  O  O53  1  0.47041362  0.16463563  0.24205712  1
  O  O54  1  0.64377652  0.49871664  0.92343010  1
  O  O55  1  0.86711121  0.36030118  0.92246604  1
  O  O56  1  0.51501302  0.14977209  0.92492661  1
  O  O57  1  0.63397985  0.13295032  0.42516080  1
  O  O58  1  0.49469667  0.35826241  0.42426834  1
  O  O59  1  0.84291858  0.48793863  0.42430535  1
  O  O60  1  0.36230323  0.49413906  0.07831669  1
  O  O61  1  0.15866738  0.64094499  0.07652487  1
  O  O62  1  0.50937658  0.86386232  0.07978039  1
  O  O63  1  0.36404839  0.86453843  0.57697779  1
  O  O64  1  0.50456137  0.64424394  0.57577636  1
  O  O65  1  0.13590815  0.49208614  0.57755663  1
  O  O66  1  0.31676483  0.84390329  0.25749343  1
  O  O67  1  0.53203870  0.69466200  0.25910986  1
  O  O68  1  0.17058147  0.47395694  0.25818535  1
  O  O69  1  0.30713359  0.48351060  0.75589410  1
  O  O70  1  0.15834617  0.69204054  0.75367599  1
  O  O71  1  0.53203569  0.84315614  0.75329329  1
loop_
_geom_bond_atom_site_label_1
_geom_bond_atom_site_label_2
_geom_bond_distance
_geom_bond_site_symmetry_2
Na0 O36 2.473786 1_555
Na0 O38 2.551839 1_565
Na0 O37 2.565938 1_455
Na0 O44 2.592965 1_455
Na0 O43 2.599714 1_565
Na0 O42 2.613189 1_465
Na1 O40 2.417922 1_555
Na1 O45 2.473032 1_456
Na1 O41 2.558583 1_455
Na1 O46 2.628355 1_466
Na1 O47 2.634575 1_566
Na1 O39 2.650680 1_565
Na2 O49 2.458885 1_555
Na2 O56 2.515627 1_555
Na2 O54 2.545179 1_555
Na2 O48 2.627543 1_555
Na2 O50 2.637399 1_555
Na2 O55 2.680321 1_555
Na3 O52 2.383264 1_555
Na3 O59 2.507303 1_555
Na3 O51 2.565447 1_555
Na3 O53 2.630560 1_555
Na3 O57 2.644557 1_555
Na3 O58 2.661704 1_555
Na4 O61 2.335373 1_555
Na4 O60 2.456765 1_555
Na4 O62 2.458609 1_555
Na4 O68 2.665547 1_555
Na4 O66 2.718768 1_555
Na4 O67 2.803830 1_555
Na5 O69 2.471636 1_555
Na5 O70 2.550395 1_555
Na5 O65 2.568769 1_555
Na5 O64 2.570771 1_555
Na5 O71 2.581582 1_555
Na5 O63 2.607950 1_555
Nb0 O54 1.889019 1_555
Nb0 O19 1.900734 1_556
Nb0 O56 1.964474 1_555
Nb0 O18 1.999461 1_556
Nb0 O55 2.096957 1_555
Nb0 O20 2.158145 1_556
Nb1 O30 1.850755 1_555
Nb1 O68 1.851148 1_555
Nb1 O66 2.021947 1_555
Nb1 O67 2.086233 1_555
Nb1 O32 2.097699 1_555
Nb1 O31 2.207657 1_555
Nb2 O35 1.843344 1_555
Nb2 O34 1.904277 1_555
Nb2 O69 1.948612 1_555
Nb2 O33 2.054781 1_555
Nb2 O71 2.097001 1_555
Nb2 O70 2.228379 1_555
Ga0 O2 1.821869 1_565
Ga0 O36 1.884420 1_655
Ga0 O1 2.005331 1_555
Ga0 O0 2.041326 1_665
Ga0 O37 2.119074 1_555
Ga0 O38 2.182207 1_665
Ga1 O40 1.833100 1_555
Ga1 O3 1.847195 1_565
Ga1 O41 1.892127 1_455
Ga1 O39 2.078498 1_565
Ga1 O4 2.091792 1_455
Ga1 O5 2.254378 1_465
Ga2 O7 1.786990 1_555
Ga2 O6 1.969921 1_445
Ga2 O8 1.986092 1_545
Ga2 O42 2.121952 1_455
Ga2 O43 2.147452 1_555
Ga2 O44 2.186726 1_445
Ga3 O10 1.841611 1_555
Ga3 O45 1.859524 1_445
Ga3 O47 2.046720 1_555
Ga3 O46 2.054935 1_455
Ga3 O9 2.085759 1_445
Ga3 O11 2.120002 1_545
Ga4 O49 1.831057 1_555
Ga4 O13 2.025485 1_555
Ga4 O14 2.029775 1_555
Ga4 O50 2.041573 1_555
Ga4 O48 2.057503 1_555
Ga4 O12 2.088337 1_555
Ga5 O15 1.771059 1_555
Ga5 O52 1.881351 1_555
Ga5 O16 1.974218 1_555
Ga5 O51 2.152477 1_555
Ga5 O17 2.167730 1_555
Ga5 O53 2.195958 1_555
Ga6 O59 1.844690 1_555
Ga6 O23 1.996492 1_555
Ga6 O22 2.017438 1_555
Ga6 O21 2.061782 1_555
Ga6 O57 2.066356 1_555
Ga6 O58 2.109962 1_555
Ga7 O26 1.799540 1_554
Ga7 O24 1.873220 1_554
Ga7 O61 1.888667 1_555
Ga7 O62 2.092645 1_555
Ga7 O25 2.111387 1_554
Ga7 O60 2.241236 1_555
Ga8 O29 1.806240 1_555
Ga8 O27 1.980870 1_555
Ga8 O28 2.010954 1_555
Ga8 O63 2.060061 1_555
Ga8 O65 2.116819 1_555
Ga8 O64 2.186646 1_555
O0 S0 1.468888 1_555
O1 S1 1.476180 1_555
O2 Si0 1.613849 1_555
O3 Si1 1.602355 1_555
O4 S2 1.462812 1_555
O5 S3 1.451870 1_555
O6 S3 1.487620 1_565
O7 Si1 1.622794 1_555
O8 S2 1.489726 1_455
O9 S1 1.462234 1_555
O10 Si0 1.604325 1_455
O11 S0 1.462164 1_565
O12 S4 1.482907 1_555
O13 S5 1.481044 1_555
O14 S6 1.481241 1_555
O15 Si2 1.602708 1_555
O16 S7 1.486923 1_555
O17 S8 1.468613 1_555
O18 S8 1.530124 1_555
O19 Si2 1.700725 1_555
O20 S7 1.490854 1_555
O21 S5 1.489825 1_555
O22 S6 1.487886 1_555
O23 S4 1.488616 1_555
O24 Si3 1.586457 1_555
O25 S9 1.456434 1_555
O26 Si4 1.580538 1_555
O27 S10 1.489552 1_555
O28 S11 1.483033 1_555
O29 Si5 1.610661 1_555
O30 Si5 1.705584 1_555
O31 S10 1.491872 1_555
O32 S11 1.513427 1_555
O33 S9 1.509777 1_555
O34 Si4 1.677269 1_555
O35 Si3 1.688504 1_555
O36 Si5 1.623681 1_555
O37 S10 1.470785 1_555
O38 S11 1.463671 1_555
O39 S9 1.446142 1_555
O40 Si4 1.591898 1_555
O41 Si3 1.586663 1_555
O42 S4 1.490240 1_555
O43 S5 1.489416 1_555
O44 S6 1.494493 1_555
O45 Si2 1.635413 1_555
O46 S7 1.477432 1_555
O47 S8 1.475328 1_555
O48 S3 1.483045 1_555
O49 Si1 1.642922 1_555
O50 S2 1.487976 1_555
O51 S1 1.467658 1_555
O52 Si0 1.618938 1_555
O53 S0 1.461387 1_555
O54 Si3 1.664750 1_555
O55 S9 1.496411 1_655
O56 Si4 1.651777 1_545
O57 S10 1.485940 1_545
O58 S11 1.480175 1_555
O59 Si5 1.628661 1_655
O60 S8 1.459455 1_555
O61 Si2 1.622551 1_455
O62 S7 1.469206 1_565
O63 S5 1.499969 1_565
O64 S6 1.496230 1_555
O65 S4 1.498616 1_455
O66 S0 1.549889 1_565
O67 S1 1.517823 1_555
O68 Si0 1.749216 1_455
O69 Si1 1.679473 1_555
O70 S2 1.491601 1_455
O71 S3 1.515636 1_565
