# generated using pymatgen
data_Eu2As7Pd12
_symmetry_space_group_name_H-M   'P 1'
_cell_length_a   10.05713460
_cell_length_b   10.05739831
_cell_length_c   4.13344422
_cell_angle_alpha   89.99818187
_cell_angle_beta   90.00217920
_cell_angle_gamma   120.00017647
_symmetry_Int_Tables_number   1
_chemical_formula_structural   Eu2As7Pd12
_chemical_formula_sum   'Eu2 As7 Pd12'
_cell_volume   362.07776276
_cell_formula_units_Z   1
loop_
 _symmetry_equiv_pos_site_id
 _symmetry_equiv_pos_as_xyz
  1  'x, y, z'
loop_
 _atom_site_type_symbol
 _atom_site_label
 _atom_site_symmetry_multiplicity
 _atom_site_fract_x
 _atom_site_fract_y
 _atom_site_fract_z
 _atom_site_occupancy
  Eu  Eu0  1  0.66669551  0.33335578  0.24367299  1
  Eu  Eu1  1  0.00000864  -0.00000349  0.75162606  1
  As  As0  1  0.33327930  0.66661953  0.49141078  1
  As  As1  1  0.74351557  0.78360459  0.25287366  1
  As  As2  1  0.04011839  0.25650225  0.25289925  1
  As  As3  1  0.21635325  0.95984648  0.25304374  1
  As  As4  1  0.92312157  0.55008311  0.74256843  1
  As  As5  1  0.62693640  0.07687906  0.74249268  1
  As  As6  1  0.44996088  0.37308395  0.74256938  1
  Pd  Pd0  1  0.76793386  0.04612854  0.24840410  1
  Pd  Pd1  1  0.27820407  0.23208173  0.24842179  1
  Pd  Pd2  1  0.95389534  0.72177539  0.24845889  1
  Pd  Pd3  1  0.89952839  0.28741862  0.74627728  1
  Pd  Pd4  1  0.38789549  0.10050675  0.74628596  1
  Pd  Pd5  1  0.71259359  0.61210270  0.74627863  1
  Pd  Pd6  1  0.47744298  0.55810966  0.22523375  1
  Pd  Pd7  1  0.08065177  0.52254793  0.22526045  1
  Pd  Pd8  1  0.44188115  0.91936566  0.22526879  1
  Pd  Pd9  1  0.19031698  0.77371552  0.77282132  1
  Pd  Pd10  1  0.58341183  0.80967267  0.77286200  1
  Pd  Pd11  1  0.22625305  0.41660556  0.77278707  1
loop_
_geom_bond_atom_site_label_1
_geom_bond_atom_site_label_2
_geom_bond_distance
_geom_bond_site_symmetry_2
Eu0 Pd5 3.317388 1_554
Eu0 Pd3 3.317520 1_554
Eu0 Pd4 3.317613 1_554
Eu0 Pd3 3.330776 1_555
Eu0 Pd5 3.330869 1_555
Eu0 Pd4 3.331082 1_555
Eu0 Pd2 3.510037 1_555
Eu0 Pd0 3.510445 1_555
Eu0 Pd1 3.510517 1_555
Eu0 Pd7 3.610679 1_655
Eu0 Pd8 3.611082 1_545
Eu0 Pd6 3.611159 1_555
Eu1 Pd1 3.310931 1_556
Eu1 Pd0 3.310991 1_456
Eu1 Pd2 3.311237 1_446
Eu1 Pd0 3.327447 1_455
Eu1 Pd1 3.327465 1_555
Eu1 Pd2 3.327627 1_445
Eu1 Pd4 3.506698 1_555
Eu1 Pd5 3.506923 1_445
Eu1 Pd3 3.507014 1_455
Eu1 Pd9 3.633998 1_545
Eu1 Pd10 3.634002 1_445
Eu1 Pd11 3.634176 1_555
As0 Pd7 2.466463 1_555
As0 Pd6 2.467007 1_555
As0 Pd8 2.467436 1_555
As0 Pd11 2.475338 1_555
As0 Pd9 2.475741 1_555
As0 Pd10 2.476340 1_555
As1 Pd2 2.485843 1_555
As1 Pd6 2.499645 1_555
As1 Pd0 2.526553 1_565
As1 Pd5 2.587408 1_555
As1 Pd5 2.630664 1_554
As1 Pd10 2.649523 1_554
As1 Pd10 2.775529 1_555
As1 Eu1 3.166475 1_665
As1 Eu1 3.173237 1_664
As2 Pd0 2.485658 1_455
As2 Pd7 2.499593 1_555
As2 Pd1 2.526303 1_555
As2 Pd3 2.587421 1_455
As2 Pd3 2.630684 1_454
As2 Pd11 2.649754 1_554
As2 Pd11 2.774997 1_555
As2 Eu1 3.166492 1_555
As2 Eu1 3.173441 1_554
As3 Pd1 2.486097 1_565
As3 Pd8 2.499395 1_555
As3 Pd2 2.525981 1_455
As3 Pd4 2.587206 1_565
As3 Pd4 2.631487 1_564
As3 Pd9 2.650104 1_554
As3 Pd9 2.774609 1_555
As3 Eu1 3.165967 1_565
As3 Eu1 3.173484 1_564
As4 Pd5 2.488573 1_555
As4 Pd9 2.500296 1_655
As4 Pd3 2.531481 1_555
As4 Pd2 2.591184 1_555
As4 Pd2 2.629804 1_556
As4 Pd7 2.646870 1_656
As4 Pd7 2.756432 1_655
As4 Eu0 3.167489 1_555
As4 Eu0 3.173479 1_556
As5 Pd3 2.488909 1_555
As5 Pd10 2.500621 1_545
As5 Pd4 2.531313 1_555
As5 Pd0 2.591566 1_555
As5 Pd0 2.630149 1_556
As5 Pd8 2.647121 1_546
As5 Pd8 2.756017 1_545
As5 Eu0 3.167511 1_555
As5 Eu0 3.173958 1_556
As6 Pd4 2.488780 1_555
As6 Pd11 2.500778 1_555
As6 Pd5 2.531025 1_555
As6 Pd1 2.591739 1_555
As6 Pd1 2.630069 1_556
As6 Pd6 2.646773 1_556
As6 Pd6 2.756334 1_555
As6 Eu0 3.167761 1_555
As6 Eu0 3.173584 1_556
Pd0 Pd8 2.864741 1_545
Pd0 Pd10 2.924004 1_544
Pd0 Pd3 2.943490 1_555
Pd0 Pd3 2.955771 1_554
Pd0 Pd10 3.063577 1_545
Pd1 Pd6 2.864557 1_555
Pd1 Pd11 2.924313 1_554
Pd1 Pd4 2.943224 1_555
Pd1 Pd4 2.955714 1_554
Pd1 Pd11 3.063468 1_555
Pd2 Pd7 2.864185 1_655
Pd2 Pd9 2.924021 1_654
Pd2 Pd5 2.943401 1_555
Pd2 Pd5 2.955950 1_554
Pd2 Pd9 3.062967 1_655
Pd3 Pd7 2.919339 1_656
Pd3 Pd7 3.039844 1_655
Pd4 Pd9 2.869110 1_545
Pd4 Pd8 2.919315 1_546
Pd4 Pd8 3.039938 1_545
Pd5 Pd6 2.919456 1_556
Pd5 Pd6 3.040023 1_555
Pd7 Pd9 2.882487 1_554
Pd7 Pd9 3.151863 1_555
Pd8 Pd9 2.887558 1_554
Pd8 Pd9 3.156470 1_555
Pd10 Pd5 2.868783 1_555
Pd10 Pd8 2.882831 1_556
Pd10 Pd6 2.887359 1_556
Pd10 Pd8 3.152185 1_555
Pd10 Pd6 3.156686 1_555
Pd11 Pd3 2.868449 1_455
Pd11 Pd6 2.882598 1_556
Pd11 Pd7 2.887574 1_556
Pd11 Pd6 3.151939 1_555
Pd11 Pd7 3.156163 1_555
