# generated using pymatgen
data_Pr2I5
_symmetry_space_group_name_H-M   'P 1'
_cell_length_a   4.37736226
_cell_length_b   9.02096798
_cell_length_c   14.80144107
_cell_angle_alpha   92.33346013
_cell_angle_beta   90.00000000
_cell_angle_gamma   90.00000000
_symmetry_Int_Tables_number   1
_chemical_formula_structural   Pr2I5
_chemical_formula_sum   'Pr4 I10'
_cell_volume   583.99531003
_cell_formula_units_Z   2
loop_
 _symmetry_equiv_pos_site_id
 _symmetry_equiv_pos_as_xyz
  1  'x, y, z'
loop_
 _atom_site_type_symbol
 _atom_site_label
 _atom_site_symmetry_multiplicity
 _atom_site_fract_x
 _atom_site_fract_y
 _atom_site_fract_z
 _atom_site_occupancy
  Pr  Pr0  1  0.75000000  0.89937323  0.84641253  1
  Pr  Pr1  1  0.25000000  0.10062677  0.15358747  1
  Pr  Pr2  1  0.75000000  0.41479958  0.34182842  1
  Pr  Pr3  1  0.25000000  0.58520042  0.65817158  1
  I  I0  1  0.75000000  0.35246061  0.71745522  1
  I  I1  1  0.25000000  0.64753939  0.28254478  1
  I  I2  1  0.75000000  0.86144463  0.07285125  1
  I  I3  1  0.25000000  0.13855537  0.92714875  1
  I  I4  1  0.25000000  0.31275234  0.48751019  1
  I  I5  1  0.75000000  0.68724766  0.51248981  1
  I  I6  1  0.25000000  0.94569854  0.68754217  1
  I  I7  1  0.75000000  0.05430146  0.31245783  1
  I  I8  1  0.25000000  0.64288180  0.87790760  1
  I  I9  1  0.75000000  0.35711820  0.12209240  1
loop_
_geom_bond_atom_site_label_1
_geom_bond_atom_site_label_2
_geom_bond_distance
_geom_bond_site_symmetry_2
I0 Pr3 3.180941 1_655
I0 Pr3 3.180941 1_555
I1 Pr2 3.180941 1_555
I1 Pr2 3.180941 1_455
I2 Pr1 3.265561 1_665
I2 Pr1 3.265561 1_565
I2 Pr0 3.382869 1_554
I3 Pr0 3.265561 1_545
I3 Pr0 3.265561 1_445
I3 Pr1 3.382869 1_556
I4 Pr2 3.232497 1_555
I4 Pr2 3.232497 1_455
I4 Pr3 3.451929 1_555
I5 Pr3 3.232497 1_655
I5 Pr3 3.232497 1_555
I5 Pr2 3.451929 1_555
I6 Pr0 3.251859 1_555
I6 Pr0 3.251859 1_455
I6 Pr3 3.263379 1_555
I7 Pr1 3.251859 1_555
I7 Pr1 3.251859 1_655
I7 Pr2 3.263379 1_555
I8 Pr0 3.232515 1_555
I8 Pr0 3.232515 1_455
I8 Pr3 3.272784 1_555
I9 Pr1 3.232515 1_655
I9 Pr1 3.232515 1_555
I9 Pr2 3.272784 1_555
