# generated using pymatgen
data_Na3LaNb3Si3(PO8)3
_symmetry_space_group_name_H-M   'P 1'
_cell_length_a   9.06381243
_cell_length_b   9.06193571
_cell_length_c   22.98968417
_cell_angle_alpha   90.01317691
_cell_angle_beta   89.97244932
_cell_angle_gamma   119.74537601
_symmetry_Int_Tables_number   1
_chemical_formula_structural   Na3LaNb3Si3(PO8)3
_chemical_formula_sum   'Na9 La3 Nb9 Si9 P9 O72'
_cell_volume   1639.47221133
_cell_formula_units_Z   3
loop_
 _symmetry_equiv_pos_site_id
 _symmetry_equiv_pos_as_xyz
  1  'x, y, z'
loop_
 _atom_site_type_symbol
 _atom_site_label
 _atom_site_symmetry_multiplicity
 _atom_site_fract_x
 _atom_site_fract_y
 _atom_site_fract_z
 _atom_site_occupancy
  Na  Na0  1  0.64639263  0.00712226  0.24625762  1
  Na  Na1  1  0.36191863  0.35236578  0.24474805  1
  Na  Na2  1  0.70712301  0.67653034  0.41587241  1
  Na  Na3  1  0.01231375  0.01309657  0.49918322  1
  Na  Na4  1  0.99957016  0.00040332  0.00112504  1
  Na  Na5  1  0.66833479  0.33296915  0.83246857  1
  Na  Na6  1  0.68349474  0.34658707  0.33144308  1
  Na  Na7  1  0.32032254  0.65972583  0.16322731  1
  Na  Na8  1  0.34023113  0.66481530  0.66610877  1
  La  La0  1  0.01070113  0.00421582  0.35875698  1
  La  La1  1  0.66431770  0.33526182  0.68860464  1
  La  La2  1  0.67240637  0.34994605  0.16867182  1
  Nb  Nb0  1  0.00101881  0.00180874  0.85929768  1
  Nb  Nb1  1  0.99728431  0.99689923  0.64486540  1
  Nb  Nb2  1  0.99690524  0.99491226  0.14498013  1
  Nb  Nb3  1  0.65978335  0.33150648  0.97910852  1
  Nb  Nb4  1  0.66892779  0.33395089  0.48026656  1
  Nb  Nb5  1  0.33569515  0.66452433  0.01344882  1
  Nb  Nb6  1  0.33481947  0.66848095  0.52093909  1
  Nb  Nb7  1  0.33279920  0.66800551  0.31594978  1
  Nb  Nb8  1  0.33294047  0.66605223  0.81356730  1
  Si  Si0  1  0.69672113  0.70108511  0.25300201  1
  Si  Si1  1  0.66532730  0.63166692  0.58334189  1
  Si  Si2  1  0.35665333  0.33271556  0.08291015  1
  Si  Si3  1  0.62247902  0.66304816  0.91426494  1
  Si  Si4  1  0.03971859  0.38017792  0.91485553  1
  Si  Si5  1  0.33828737  0.95817102  0.91478494  1
  Si  Si6  1  0.61002683  0.96194375  0.41946242  1
  Si  Si7  1  0.34600497  0.38524519  0.42051208  1
  Si  Si8  1  0.03780933  0.64833872  0.42071379  1
  P  P0  1  0.29261254  0.98773414  0.24551125  1
  P  P1  1  0.00741032  0.29996568  0.24715163  1
  P  P2  1  0.27114310  0.28784294  0.75323824  1
  P  P3  1  0.01819469  0.72944785  0.75334301  1
  P  P4  1  0.71162983  0.98309674  0.75347342  1
  P  P5  1  0.96475511  0.33131357  0.58296423  1
  P  P6  1  0.36686979  0.03656853  0.58289745  1
  P  P7  1  0.97647220  0.64146905  0.07868430  1
  P  P8  1  0.66571682  0.02742008  0.08152087  1
  O  O0  1  0.23033633  0.03421570  0.29977799  1
  O  O1  1  0.78773726  0.77731588  0.31381101  1
  O  O2  1  0.98112074  0.19901307  0.30233327  1
  O  O3  1  0.16807172  0.18292730  0.80697765  1
  O  O4  1  0.01404707  0.83141883  0.80680511  1
  O  O5  1  0.81748692  0.98676773  0.80703545  1
  O  O6  1  0.80794264  0.97631361  0.69701845  1
  O  O7  1  0.16994695  0.19511298  0.69709199  1
  O  O8  1  0.02682847  0.83316109  0.69689380  1
  O  O9  1  0.81399729  0.83273365  0.19662394  1
  O  O10  1  0.02617660  0.19636359  0.19366804  1
  O  O11  1  0.17520230  0.97656839  0.19220452  1
  O  O12  1  0.90232864  0.36920744  0.63858407  1
  O  O13  1  0.46783138  0.09410042  0.63850907  1
  O  O14  1  0.62364350  0.52435355  0.64159882  1
  O  O15  1  0.93566624  0.55289787  0.13743362  1
  O  O16  1  0.63011405  0.07726128  0.14109994  1
  O  O17  1  0.44276228  0.37532455  0.14609760  1
  O  O18  1  0.48039219  0.31203360  0.03260860  1
  O  O19  1  0.84356689  0.53501632  0.03094717  1
  O  O20  1  0.69267375  0.16090005  0.03337869  1
  O  O21  1  0.46428222  0.15980116  0.53109624  1
  O  O22  1  0.69568524  0.53104150  0.52725575  1
  O  O23  1  0.83983655  0.30190832  0.53098152  1
  O  O24  1  0.52960709  0.69368579  0.96944357  1
  O  O25  1  0.16695105  0.47517368  0.96896187  1
  O  O26  1  0.30988774  0.83630623  0.96941481  1
  O  O27  1  0.49607727  0.84577020  0.47312027  1
  O  O28  1  0.35017334  0.50333164  0.47386037  1
  O  O29  1  0.15026679  0.65434904  0.47547209  1
  O  O30  1  0.13910828  0.64049445  0.36010391  1
  O  O31  1  0.49952393  0.86574530  0.35765977  1
  O  O32  1  0.36144143  0.49764976  0.35868260  1
  O  O33  1  0.13594785  0.50357220  0.85777828  1
  O  O34  1  0.36675500  0.86371909  0.85764644  1
  O  O35  1  0.49782275  0.63307649  0.85773633  1
  O  O36  1  0.00013932  0.80245948  0.42415962  1
  O  O37  1  0.78677255  0.96425213  0.42228143  1
  O  O38  1  0.18437305  0.20273920  0.42604354  1
  O  O39  1  0.01587469  0.18874513  0.90786048  1
  O  O40  1  0.17360714  0.98636415  0.90749240  1
  O  O41  1  0.81351170  0.82807606  0.90764934  1
  O  O42  1  0.97541391  0.16309700  0.59011134  1
  O  O43  1  0.19051206  0.03102460  0.59052112  1
  O  O44  1  0.84468661  0.81994893  0.59309863  1
  O  O45  1  0.97787780  0.81526818  0.08531388  1
  O  O46  1  0.83272397  0.01507335  0.08624953  1
  O  O47  1  0.17138321  0.15406742  0.08765088  1
  O  O48  1  0.69458992  0.14098926  0.75553260  1
  O  O49  1  0.44551588  0.30304055  0.75674504  1
  O  O50  1  0.86070670  0.55500232  0.75517165  1
  O  O51  1  0.65439713  0.50622309  0.24662188  1
  O  O52  1  0.85100608  0.31973640  0.23945045  1
  O  O53  1  0.47636988  0.13108211  0.23627139  1
  O  O54  1  0.63975912  0.49292697  0.92639442  1
  O  O55  1  0.85254679  0.35976990  0.92749094  1
  O  O56  1  0.50720457  0.14617230  0.92685041  1
  O  O57  1  0.62187341  0.14656821  0.42507423  1
  O  O58  1  0.52745064  0.38357240  0.42353785  1
  O  O59  1  0.85254967  0.47064197  0.42471182  1
  O  O60  1  0.32998948  0.49414948  0.06679452  1
  O  O61  1  0.15710692  0.67797954  0.06409242  1
  O  O62  1  0.51523418  0.85023945  0.06690848  1
  O  O63  1  0.32369595  0.85114252  0.57132162  1
  O  O64  1  0.51344481  0.67719536  0.57301190  1
  O  O65  1  0.14780151  0.47728236  0.57154577  1
  O  O66  1  0.28927283  0.81480765  0.25070347  1
  O  O67  1  0.51231521  0.70459808  0.25298378  1
  O  O68  1  0.17914861  0.47134077  0.24997589  1
  O  O69  1  0.28470835  0.46721119  0.75569299  1
  O  O70  1  0.18416695  0.71703199  0.75499255  1
  O  O71  1  0.53453002  0.81708487  0.75512321  1
loop_
_geom_bond_atom_site_label_1
_geom_bond_atom_site_label_2
_geom_bond_distance
_geom_bond_site_symmetry_2
Na0 O53 2.325425 1_555
Na0 O67 2.389656 1_545
Na0 O52 2.505157 1_555
Na0 O16 2.522770 1_555
Na0 O66 2.815514 1_545
Na0 O31 2.877250 1_545
Na0 O9 2.913217 1_545
Na0 O2 2.942458 1_555
Na1 O51 2.303451 1_555
Na1 O17 2.360322 1_555
Na1 O68 2.386036 1_555
Na1 O53 2.683084 1_555
Na1 O67 2.786529 1_555
Na1 O0 2.814820 1_555
Na1 O10 2.893412 1_555
Na1 O32 2.932272 1_555
Na2 O36 2.320572 1_655
Na2 O58 2.332559 1_555
Na2 O37 2.339471 1_555
Na2 O1 2.492102 1_555
Na2 O59 2.774979 1_555
Na3 O38 2.356294 1_555
Na3 O36 2.533793 1_545
Na3 O37 2.570178 1_445
Na3 O42 2.603553 1_455
Na3 O43 2.605212 1_555
Na3 O44 2.719073 1_445
Na4 O47 2.484150 1_655
Na4 O45 2.504626 1_545
Na4 O46 2.516133 1_555
Na4 O39 2.698734 1_654
Na4 O41 2.699893 1_544
Na4 O40 2.708111 1_644
Na5 O48 2.573058 1_555
Na5 O49 2.577312 1_555
Na5 O50 2.600741 1_555
Na5 O54 2.683554 1_555
Na5 O55 2.686975 1_555
Na5 O56 2.692934 1_555
Na6 O51 2.518961 1_555
Na6 O59 2.549923 1_555
Na6 O58 2.657549 1_555
Na6 O52 2.683355 1_555
Na6 O57 2.688284 1_555
Na6 O53 2.913656 1_555
Na7 O68 2.521999 1_555
Na7 O66 2.547375 1_555
Na7 O67 2.598543 1_555
Na7 O60 2.702342 1_555
Na7 O61 2.767001 1_555
Na7 O62 2.824250 1_555
Na8 O71 2.604629 1_555
Na8 O69 2.609188 1_555
Na8 O64 2.623025 1_555
Na8 O70 2.657310 1_555
Na8 O65 2.777944 1_555
Na8 O63 2.806270 1_555
La0 O1 2.292876 1_445
La0 O38 2.301785 1_555
La0 O0 2.309969 1_555
La0 O2 2.311192 1_455
La0 O36 2.332397 1_545
La0 O37 2.377274 1_445
La1 O14 2.206356 1_555
La1 O12 2.325982 1_555
La1 O13 2.326537 1_555
La1 O49 2.427938 1_555
La1 O50 2.441245 1_555
La1 O48 2.454184 1_555
La2 O17 2.265117 1_555
La2 O15 2.288269 1_555
La2 O51 2.339136 1_555
La2 O16 2.390484 1_555
La2 O52 2.405333 1_555
La2 O53 2.451086 1_555
Nb0 O39 1.976655 1_555
Nb0 O40 1.978196 1_545
Nb0 O41 1.986598 1_445
Nb0 O3 1.991578 1_555
Nb0 O5 2.001561 1_445
Nb0 O4 2.008567 1_545
Nb1 O44 1.923684 1_555
Nb1 O6 2.024353 1_555
Nb1 O8 2.024701 1_655
Nb1 O43 2.045606 1_665
Nb1 O42 2.046811 1_565
Nb1 O7 2.080523 1_665
Nb2 O9 1.974634 1_555
Nb2 O47 2.013387 1_665
Nb2 O11 2.021455 1_655
Nb2 O10 2.043185 1_665
Nb2 O45 2.069316 1_555
Nb2 O46 2.083916 1_565
Nb3 O56 1.967867 1_555
Nb3 O18 1.975134 1_556
Nb3 O54 1.976309 1_555
Nb3 O55 2.020026 1_555
Nb3 O20 2.119973 1_556
Nb3 O19 2.132769 1_556
Nb4 O59 1.971928 1_555
Nb4 O57 1.989011 1_555
Nb4 O22 1.996301 1_555
Nb4 O58 2.030142 1_555
Nb4 O23 2.071613 1_555
Nb4 O21 2.095392 1_555
Nb5 O24 1.928712 1_554
Nb5 O25 1.930300 1_554
Nb5 O60 1.952440 1_555
Nb5 O26 1.965970 1_554
Nb5 O61 2.045615 1_555
Nb5 O62 2.067444 1_555
Nb6 O27 1.896083 1_555
Nb6 O28 1.906908 1_555
Nb6 O29 1.922536 1_555
Nb6 O64 1.983828 1_555
Nb6 O63 2.063078 1_555
Nb6 O65 2.076926 1_555
Nb7 O31 1.930709 1_555
Nb7 O30 1.933576 1_555
Nb7 O32 1.953031 1_555
Nb7 O67 2.077362 1_555
Nb7 O66 2.167399 1_555
Nb7 O68 2.225761 1_555
Nb8 O33 1.944031 1_555
Nb8 O34 1.945276 1_555
Nb8 O35 1.948988 1_555
Nb8 O69 2.103799 1_555
Nb8 O70 2.113128 1_555
Nb8 O71 2.129330 1_555
O0 P0 1.512444 1_545
O1 Si0 1.596019 1_555
O2 P1 1.512279 1_655
O3 P2 1.555985 1_555
O4 P3 1.549136 1_555
O5 P4 1.551585 1_555
O6 P4 1.581916 1_555
O7 P2 1.565048 1_555
O8 P3 1.581476 1_555
O9 Si0 1.724555 1_555
O10 P1 1.606212 1_555
O11 P0 1.593405 1_555
O12 P5 1.504993 1_555
O13 P6 1.507038 1_555
O14 Si1 1.586731 1_555
O15 P7 1.520082 1_555
O16 P8 1.525822 1_555
O17 Si2 1.603199 1_555
O18 Si2 1.684495 1_555
O19 P7 1.560067 1_555
O20 P8 1.566792 1_555
O21 P6 1.570375 1_555
O22 Si1 1.678646 1_555
O23 P5 1.575730 1_555
O24 Si3 1.620362 1_555
O25 Si4 1.622963 1_555
O26 Si5 1.606675 1_555
O27 Si6 1.617766 1_555
O28 Si7 1.615566 1_555
O29 Si8 1.603998 1_555
O30 Si8 1.689117 1_555
O31 Si6 1.707701 1_555
O32 Si7 1.713674 1_555
O33 Si4 1.662747 1_555
O34 Si5 1.656203 1_555
O35 Si3 1.654083 1_555
O36 Si8 1.595788 1_555
O37 Si6 1.593065 1_555
O38 Si7 1.579029 1_555
O39 Si4 1.646152 1_555
O40 Si5 1.643165 1_555
O41 Si3 1.639521 1_555
O42 P5 1.583127 1_555
O43 P6 1.583795 1_555
O44 Si1 1.688811 1_555
O45 P7 1.576027 1_555
O46 P8 1.576043 1_555
O47 Si2 1.659795 1_555
O48 P4 1.514120 1_545
O49 P2 1.519053 1_555
O50 P3 1.516303 1_655
O51 Si0 1.616965 1_555
O52 P1 1.524916 1_655
O53 P0 1.536062 1_545
O54 Si3 1.648860 1_555
O55 Si4 1.638563 1_655
O56 Si5 1.653900 1_545
O57 Si6 1.627557 1_545
O58 Si7 1.653660 1_555
O59 Si8 1.654649 1_655
O60 Si2 1.639183 1_555
O61 P7 1.537713 1_455
O62 P8 1.542164 1_565
O63 P6 1.547529 1_565
O64 Si1 1.638807 1_555
O65 P5 1.547022 1_455
O66 P0 1.556862 1_555
O67 Si0 1.687442 1_555
O68 P1 1.562146 1_555
O69 P2 1.569063 1_555
O70 P3 1.563697 1_555
O71 P4 1.563657 1_555
