# generated using pymatgen
data_KNa(BH4)2
_symmetry_space_group_name_H-M   'P 1'
_cell_length_a   7.47685892
_cell_length_b   7.47685892
_cell_length_c   7.47685924
_cell_angle_alpha   35.82128693
_cell_angle_beta   35.82128693
_cell_angle_gamma   35.82129135
_symmetry_Int_Tables_number   1
_chemical_formula_structural   KNa(BH4)2
_chemical_formula_sum   'K1 Na1 B2 H8'
_cell_volume   128.01564396
_cell_formula_units_Z   1
loop_
 _symmetry_equiv_pos_site_id
 _symmetry_equiv_pos_as_xyz
  1  'x, y, z'
loop_
 _atom_site_type_symbol
 _atom_site_label
 _atom_site_symmetry_multiplicity
 _atom_site_fract_x
 _atom_site_fract_y
 _atom_site_fract_z
 _atom_site_occupancy
  K  K0  1  0.50000000  0.50000000  0.50000000  1
  Na  Na0  1  0.00000000  0.00000000  0.00000000  1
  B  B0  1  0.73865200  0.73865200  0.73865200  1
  B  B1  1  0.26134800  0.26134800  0.26134800  1
  H  H0  1  0.68031600  0.68031600  0.68031600  1
  H  H1  1  0.31968400  0.31968400  0.31968400  1
  H  H2  1  0.90396600  0.46821100  0.90396600  1
  H  H3  1  0.46821100  0.90396600  0.90396600  1
  H  H4  1  0.90396600  0.90396600  0.46821100  1
  H  H5  1  0.53178900  0.09603400  0.09603400  1
  H  H6  1  0.09603400  0.09603400  0.53178900  1
  H  H7  1  0.09603400  0.53178900  0.09603400  1
loop_
_geom_bond_atom_site_label_1
_geom_bond_atom_site_label_2
_geom_bond_distance
_geom_bond_site_symmetry_2
B0 H0 1.223228 1_555
B0 H4 1.231080 1_555
B0 H2 1.231080 1_555
B0 H3 1.231080 1_555
B1 H1 1.223228 1_555
B1 H6 1.231080 1_555
B1 H7 1.231080 1_555
B1 H5 1.231080 1_555
H0 Na0 2.670481 1_665
H0 Na0 2.670481 1_656
H0 Na0 2.670481 1_566
H1 Na0 2.670481 1_556
H1 Na0 2.670481 1_655
H1 Na0 2.670481 1_565
H2 Na0 2.443304 1_656
H2 K0 2.786472 1_655
H2 K0 2.786472 1_556
H3 Na0 2.443304 1_566
H3 K0 2.786472 1_565
H3 K0 2.786472 1_556
H4 Na0 2.443304 1_665
H4 K0 2.786472 1_565
H4 K0 2.786472 1_655
H5 Na0 2.443304 1_655
H5 K0 2.786472 1_545
H5 K0 2.786472 1_554
H6 Na0 2.443304 1_556
H6 K0 2.786472 1_545
H6 K0 2.786472 1_455
H7 Na0 2.443304 1_565
H7 K0 2.786472 1_455
H7 K0 2.786472 1_554
