# generated using pymatgen
data_Na8Zr2Sc2Si5SO24
_symmetry_space_group_name_H-M   'P 1'
_cell_length_a   9.25083486
_cell_length_b   9.23613394
_cell_length_c   22.85489346
_cell_angle_alpha   90.06670530
_cell_angle_beta   89.72333084
_cell_angle_gamma   119.94462203
_symmetry_Int_Tables_number   1
_chemical_formula_structural   Na8Zr2Sc2Si5SO24
_chemical_formula_sum   'Na24 Zr6 Sc6 Si15 S3 O72'
_cell_volume   1692.06696955
_cell_formula_units_Z   3
loop_
 _symmetry_equiv_pos_site_id
 _symmetry_equiv_pos_as_xyz
  1  'x, y, z'
loop_
 _atom_site_type_symbol
 _atom_site_label
 _atom_site_symmetry_multiplicity
 _atom_site_fract_x
 _atom_site_fract_y
 _atom_site_fract_z
 _atom_site_occupancy
  Na  Na0  1  0.64133845  0.00283954  0.25225098  1
  Na  Na1  1  0.35848420  0.36139653  0.24761583  1
  Na  Na2  1  0.00005525  0.63731592  0.24994051  1
  Na  Na3  1  0.63622405  0.63580396  0.74765073  1
  Na  Na4  1  0.99667523  0.36115830  0.75003996  1
  Na  Na5  1  0.36670293  0.00435438  0.74989292  1
  Na  Na6  1  0.30126012  0.33767346  0.58544089  1
  Na  Na7  1  0.03657746  0.69985667  0.58242070  1
  Na  Na8  1  0.66377421  0.96215093  0.58277900  1
  Na  Na9  1  0.28697113  0.96528471  0.08148484  1
  Na  Na10  1  0.66920773  0.69137377  0.08644314  1
  Na  Na11  1  0.04456435  0.33854743  0.08569712  1
  Na  Na12  1  0.97671826  0.66890476  0.91660303  1
  Na  Na13  1  0.70356239  0.04439262  0.91146438  1
  Na  Na14  1  0.32143360  0.28577027  0.91803869  1
  Na  Na15  1  0.96003721  0.29537161  0.41295421  1
  Na  Na16  1  0.32783154  0.02036700  0.41589362  1
  Na  Na17  1  0.71274131  0.68110987  0.41750009  1
  Na  Na18  1  0.99234471  0.99053062  0.50043893  1
  Na  Na19  1  0.01703316  0.00622328  0.99987124  1
  Na  Na20  1  0.66765553  0.32576406  0.83246025  1
  Na  Na21  1  0.67348133  0.33087591  0.33226503  1
  Na  Na22  1  0.32627107  0.65648026  0.16614360  1
  Na  Na23  1  0.33501071  0.66647471  0.66364070  1
  Zr  Zr0  1  0.99915525  0.99938038  0.64921170  1
  Zr  Zr1  1  0.66685390  0.33320292  0.68431255  1
  Zr  Zr2  1  0.67002698  0.34701822  0.18630733  1
  Zr  Zr3  1  0.67601230  0.33211295  0.48511687  1
  Zr  Zr4  1  0.32914179  0.67648662  0.31324273  1
  Zr  Zr5  1  0.32194795  0.67056504  0.81336061  1
  Sc  Sc0  1  0.99062506  0.99037747  0.34732648  1
  Sc  Sc1  1  0.01054114  0.00900031  0.84833328  1
  Sc  Sc2  1  0.01048528  0.00026339  0.15222640  1
  Sc  Sc3  1  0.66405619  0.33471503  0.98313760  1
  Sc  Sc4  1  0.30894482  0.65296179  0.01694102  1
  Sc  Sc5  1  0.33679734  0.68188390  0.52000283  1
  Si  Si0  1  0.29371155  0.00418659  0.25076567  1
  Si  Si1  1  0.70648579  0.71063459  0.24914494  1
  Si  Si2  1  0.99975750  0.29001792  0.24994923  1
  Si  Si3  1  0.29592154  0.29576393  0.75037077  1
  Si  Si4  1  0.99538960  0.70744148  0.75146751  1
  Si  Si5  1  0.70747519  0.99925055  0.75200913  1
  Si  Si6  1  0.96706523  0.33455794  0.58411670  1
  Si  Si7  1  0.37184741  0.04062850  0.58294334  1
  Si  Si8  1  0.66404937  0.62746846  0.58270072  1
  Si  Si9  1  0.95975613  0.63036850  0.08157981  1
  Si  Si10  1  0.37102902  0.33500532  0.08179236  1
  Si  Si11  1  0.03325069  0.36603173  0.91729903  1
  Si  Si12  1  0.33423433  0.96353189  0.91876490  1
  Si  Si13  1  0.63013804  0.96169258  0.41745650  1
  Si  Si14  1  0.03791212  0.66879736  0.41801672  1
  S  S0  1  0.66683109  0.04006092  0.08274383  1
  S  S1  1  0.62474436  0.66743553  0.91752344  1
  S  S2  1  0.33305878  0.37470133  0.41707002  1
  O  O0  1  0.21378094  0.03924509  0.30860664  1
  O  O1  1  0.82238767  0.78584834  0.30697899  1
  O  O2  1  0.96764222  0.17661891  0.30832025  1
  O  O3  1  0.21358085  0.17767325  0.80742299  1
  O  O4  1  0.96345087  0.78991793  0.80892703  1
  O  O5  1  0.82388696  0.03159909  0.80885665  1
  O  O6  1  0.79159363  0.96648073  0.69347380  1
  O  O7  1  0.17557548  0.21128930  0.69310419  1
  O  O8  1  0.03397463  0.82574702  0.69338164  1
  O  O9  1  0.78638466  0.82561674  0.19138459  1
  O  O10  1  0.03226517  0.20842269  0.19172085  1
  O  O11  1  0.17729688  0.96302705  0.19310673  1
  O  O12  1  0.87586314  0.36666370  0.64001789  1
  O  O13  1  0.49202249  0.12796540  0.63963949  1
  O  O14  1  0.63566076  0.50860408  0.63989611  1
  O  O15  1  0.87310899  0.50681464  0.13906563  1
  O  O16  1  0.63877592  0.11766262  0.13550600  1
  O  O17  1  0.49097495  0.36019550  0.13936976  1
  O  O18  1  0.46114665  0.30192406  0.02578309  1
  O  O19  1  0.84061749  0.53685008  0.02560107  1
  O  O20  1  0.69279846  0.14605401  0.03067088  1
  O  O21  1  0.45904650  0.16071448  0.52536988  1
  O  O22  1  0.69720518  0.53867372  0.52540997  1
  O  O23  1  0.84366361  0.29857672  0.52699439  1
  O  O24  1  0.54585775  0.69256073  0.96991309  1
  O  O25  1  0.15625326  0.45393635  0.97336825  1
  O  O26  1  0.30967326  0.84347013  0.97487024  1
  O  O27  1  0.54198840  0.84108557  0.47350737  1
  O  O28  1  0.30855840  0.45323836  0.46925394  1
  O  O29  1  0.15580710  0.69354644  0.47385529  1
  O  O30  1  0.12402298  0.63193128  0.36033491  1
  O  O31  1  0.50934442  0.87081487  0.36001791  1
  O  O32  1  0.35976112  0.47899846  0.36406984  1
  O  O33  1  0.12858349  0.49054054  0.86075660  1
  O  O34  1  0.36703281  0.87398967  0.86097749  1
  O  O35  1  0.52059073  0.64046141  0.86482349  1
  O  O36  1  0.02480187  0.83840065  0.41201593  1
  O  O37  1  0.81775359  0.98642915  0.41195970  1
  O  O38  1  0.18388116  0.20664768  0.41122770  1
  O  O39  1  0.01428201  0.18046210  0.91269385  1
  O  O40  1  0.16243976  0.97297738  0.91300277  1
  O  O41  1  0.79276894  0.81648344  0.91165552  1
  O  O42  1  0.97664029  0.16292419  0.58813041  1
  O  O43  1  0.18784208  0.02412809  0.58806497  1
  O  O44  1  0.83449986  0.81037252  0.58802454  1
  O  O45  1  0.97292953  0.81325497  0.08751436  1
  O  O46  1  0.81800255  0.02478669  0.08817399  1
  O  O47  1  0.18470435  0.16908526  0.08747490  1
  O  O48  1  0.68708358  0.16525345  0.74487280  1
  O  O49  1  0.48059407  0.31298014  0.74441435  1
  O  O50  1  0.83296600  0.52008256  0.74487050  1
  O  O51  1  0.68796980  0.52249165  0.24452702  1
  O  O52  1  0.83199307  0.30944316  0.24321326  1
  O  O53  1  0.48300485  0.16429587  0.24232012  1
  O  O54  1  0.64129141  0.51522551  0.92236006  1
  O  O55  1  0.85185317  0.35643684  0.92292557  1
  O  O56  1  0.50264245  0.14925704  0.92223258  1
  O  O57  1  0.63894425  0.14581399  0.42095059  1
  O  O58  1  0.48518239  0.35803213  0.42149599  1
  O  O59  1  0.84933164  0.49949924  0.42102636  1
  O  O60  1  0.36577136  0.51038386  0.07788508  1
  O  O61  1  0.14650655  0.64846787  0.07926596  1
  O  O62  1  0.51775041  0.87204798  0.07658850  1
  O  O63  1  0.35634543  0.85731531  0.57890466  1
  O  O64  1  0.49621235  0.64085443  0.57727548  1
  O  O65  1  0.14895947  0.49892645  0.57641659  1
  O  O66  1  0.31194411  0.83441447  0.25546600  1
  O  O67  1  0.51703434  0.68130464  0.25778703  1
  O  O68  1  0.16794286  0.47715635  0.25675311  1
  O  O69  1  0.31686253  0.48219786  0.75770241  1
  O  O70  1  0.16533957  0.69010688  0.75523091  1
  O  O71  1  0.52254882  0.82973756  0.75705510  1
loop_
_geom_bond_atom_site_label_1
_geom_bond_atom_site_label_2
_geom_bond_distance
_geom_bond_site_symmetry_2
Na0 O52 2.486824 1_555
Na0 O53 2.570071 1_555
Na0 O67 2.597673 1_545
Na0 O66 2.641290 1_545
Na0 O31 2.745136 1_545
Na0 O16 2.876947 1_555
Na0 O2 2.919908 1_555
Na0 O9 2.929877 1_545
Na1 O68 2.484170 1_555
Na1 O67 2.571158 1_555
Na1 O53 2.597545 1_555
Na1 O51 2.641941 1_555
Na1 O17 2.758080 1_555
Na1 O32 2.871327 1_555
Na1 O10 2.917474 1_555
Na1 O0 2.933173 1_555
Na2 O66 2.532566 1_555
Na2 O51 2.534080 1_455
Na2 O52 2.629114 1_455
Na2 O68 2.630783 1_555
Na2 O30 2.787221 1_555
Na2 O15 2.803885 1_455
Na2 O11 2.913729 1_555
Na2 O1 2.916997 1_455
Na3 O71 2.497559 1_555
Na3 O50 2.529754 1_555
Na3 O69 2.569747 1_555
Na3 O49 2.585235 1_555
Na3 O14 2.726267 1_555
Na3 O35 2.887153 1_555
Na3 O6 2.921674 1_555
Na3 O4 2.980862 1_555
Na4 O48 2.513886 1_555
Na4 O50 2.585240 1_555
Na4 O69 2.598589 1_655
Na4 O70 2.635851 1_655
Na4 O12 2.767443 1_555
Na4 O33 2.808393 1_655
Na4 O7 2.934327 1_655
Na4 O5 2.959487 1_555
Na5 O49 2.500490 1_555
Na5 O70 2.551477 1_545
Na5 O48 2.570156 1_555
Na5 O71 2.651516 1_545
Na5 O13 2.766610 1_555
Na5 O34 2.811811 1_545
Na5 O3 2.922107 1_555
Na5 O8 2.971183 1_545
Na6 O64 2.466754 1_555
Na6 O65 2.518751 1_555
Na6 O43 2.541136 1_555
Na6 O42 2.605096 1_455
Na6 O7 2.719058 1_555
Na6 O28 2.850988 1_555
Na6 O14 2.961080 1_555
Na6 O21 3.007312 1_555
Na7 O44 2.540721 1_455
Na7 O65 2.543202 1_555
Na7 O63 2.564198 1_555
Na7 O43 2.600332 1_565
Na7 O29 2.722859 1_555
Na7 O8 2.793624 1_555
Na7 O12 2.972643 1_455
Na7 O22 3.023137 1_455
Na8 O63 2.507324 1_555
Na8 O42 2.544658 1_565
Na8 O64 2.575586 1_555
Na8 O44 2.585813 1_555
Na8 O27 2.742184 1_555
Na8 O6 2.789567 1_555
Na8 O23 2.979340 1_565
Na8 O13 2.993882 1_565
Na9 O47 2.496572 1_565
Na9 O45 2.520845 1_455
Na9 O61 2.541228 1_555
Na9 O62 2.672967 1_555
Na9 O26 2.733468 1_554
Na9 O11 2.737144 1_555
Na10 O45 2.450538 1_555
Na10 O60 2.456044 1_555
Na10 O62 2.671436 1_555
Na10 O9 2.672303 1_555
Na10 O46 2.673536 1_565
Na10 O24 2.904683 1_554
Na10 O17 2.914188 1_555
Na10 O19 2.952673 1_555
Na11 O47 2.481628 1_555
Na11 O61 2.531674 1_555
Na11 O60 2.582180 1_555
Na11 O46 2.594155 1_455
Na11 O10 2.682667 1_555
Na11 O25 2.770496 1_554
Na12 O40 2.455217 1_655
Na12 O55 2.520998 1_555
Na12 O41 2.661628 1_555
Na12 O54 2.694436 1_555
Na12 O4 2.732530 1_555
Na12 O19 2.778903 1_556
Na12 O33 2.933430 1_655
Na12 O26 2.989459 1_655
Na13 O39 2.497359 1_655
Na13 O56 2.499108 1_555
Na13 O55 2.512278 1_555
Na13 O41 2.616548 1_545
Na13 O5 2.618750 1_555
Na13 O20 2.898096 1_556
Na13 O34 2.939269 1_545
Na14 O39 2.505711 1_555
Na14 O40 2.506321 1_545
Na14 O56 2.553613 1_555
Na14 O54 2.645465 1_555
Na14 O3 2.721695 1_555
Na14 O18 2.755709 1_556
Na14 O25 2.948332 1_555
Na15 O37 2.475018 1_545
Na15 O59 2.561710 1_555
Na15 O38 2.579585 1_655
Na15 O57 2.581426 1_555
Na15 O2 2.645003 1_555
Na15 O23 2.820918 1_555
Na15 O30 2.948519 1_655
Na16 O36 2.447330 1_545
Na16 O57 2.512538 1_555
Na16 O38 2.652162 1_555
Na16 O58 2.707479 1_555
Na16 O0 2.713974 1_555
Na16 O21 2.804465 1_555
Na16 O29 2.931272 1_545
Na16 O31 2.940912 1_545
Na17 O37 2.485307 1_555
Na17 O36 2.504007 1_655
Na17 O59 2.556162 1_555
Na17 O58 2.659265 1_555
Na17 O1 2.710431 1_555
Na17 O22 2.765720 1_555
Na17 O27 2.936487 1_555
Na18 O44 2.542022 1_555
Na18 O36 2.560699 1_655
Na18 O37 2.582544 1_555
Na18 O42 2.606490 1_565
Na18 O43 2.617447 1_665
Na18 O38 2.779345 1_665
Na19 O40 2.496097 1_545
Na19 O47 2.524077 1_556
Na19 O39 2.570816 1_555
Na19 O45 2.574834 1_446
Na19 O46 2.787616 1_456
Na19 O41 2.800476 1_445
Na20 O48 2.548121 1_555
Na20 O56 2.586634 1_555
Na20 O50 2.608821 1_555
Na20 O55 2.609485 1_555
Na20 O49 2.624280 1_555
Na20 O54 2.784968 1_555
Na21 O57 2.566823 1_555
Na21 O52 2.567443 1_555
Na21 O59 2.585048 1_555
Na21 O51 2.634383 1_555
Na21 O53 2.649335 1_555
Na21 O58 2.767108 1_555
Na22 O60 2.549893 1_555
Na22 O61 2.573357 1_555
Na22 O68 2.594964 1_555
Na22 O66 2.663262 1_555
Na22 O67 2.680369 1_555
Na22 O62 2.782926 1_555
Na23 O64 2.549264 1_555
Na23 O63 2.559946 1_555
Na23 O65 2.588057 1_555
Na23 O70 2.683720 1_555
Na23 O71 2.694133 1_555
Na23 O69 2.695606 1_555
O0 Si0 1.621031 1_555
O0 Sc0 2.074026 1_445
O1 Si1 1.627043 1_555
O1 Sc0 1.978833 1_555
O2 Si2 1.629034 1_555
O2 Sc0 2.041905 1_545
O3 Si3 1.623072 1_555
O3 Sc1 1.973416 1_555
O4 Si4 1.615789 1_555
O4 Sc1 2.053020 1_665
O5 Si5 1.621241 1_545
O5 Sc1 2.052900 1_655
O6 Si5 1.646524 1_555
O6 Zr0 2.049881 1_555
O7 Si3 1.644909 1_555
O7 Zr0 2.079161 1_445
O8 Si4 1.641090 1_455
O8 Zr0 2.053609 1_455
O9 Si1 1.620810 1_555
O9 Sc2 2.085115 1_665
O10 Si2 1.627721 1_455
O10 Sc2 2.040268 1_555
O11 Si0 1.626251 1_565
O11 Sc2 1.979149 1_565
O12 Si6 1.634175 1_555
O12 Zr1 2.060122 1_555
O13 Si7 1.637644 1_555
O13 Zr1 2.049943 1_555
O14 Si8 1.641703 1_555
O14 Zr1 2.052221 1_555
O15 Si9 1.658627 1_555
O15 Zr2 2.022251 1_555
O16 S0 1.488582 1_555
O16 Zr2 2.303303 1_555
O17 Si10 1.665132 1_555
O17 Zr2 2.031731 1_555
O18 Si10 1.634028 1_555
O18 Sc3 1.995143 1_554
O19 Si9 1.630418 1_555
O19 Sc3 2.015438 1_554
O20 S0 1.482447 1_555
O20 Sc3 2.181038 1_554
O21 Si7 1.646891 1_555
O21 Zr3 2.048034 1_555
O22 Si8 1.651024 1_555
O22 Zr3 2.037282 1_555
O23 Si6 1.659113 1_555
O23 Zr3 1.977863 1_555
O24 S1 1.476503 1_555
O24 Sc4 2.295699 1_556
O25 Si11 1.638731 1_555
O25 Sc4 1.945032 1_556
O26 Si12 1.635392 1_555
O26 Sc4 2.003164 1_556
O27 Si13 1.622737 1_555
O27 Sc5 2.022909 1_555
O28 S2 1.469518 1_555
O28 Sc5 2.306446 1_555
O29 Si14 1.623035 1_555
O29 Sc5 2.030929 1_555
O30 Si14 1.657725 1_555
O30 Zr4 2.032258 1_555
O31 Si13 1.658842 1_555
O31 Zr4 2.041810 1_555
O32 S2 1.489470 1_555
O32 Zr4 2.297965 1_555
O33 Si11 1.658360 1_555
O33 Zr5 2.038137 1_555
O34 Si12 1.662660 1_555
O34 Zr5 2.026257 1_555
O35 S1 1.487275 1_555
O35 Zr5 2.317160 1_555
O36 Si14 1.636368 1_555
O36 Sc0 2.169918 1_455
O37 Si13 1.637798 1_555
O37 Sc0 2.158693 1_555
O38 S2 1.481339 1_555
O38 Sc0 2.402584 1_445
O39 Si11 1.636761 1_555
O39 Sc1 2.147833 1_555
O40 Si12 1.640460 1_555
O40 Sc1 2.181221 1_565
O41 S1 1.480325 1_555
O41 Sc1 2.390887 1_665
O42 Si6 1.633958 1_555
O42 Zr0 2.143751 1_545
O43 Si7 1.635102 1_555
O43 Zr0 2.151962 1_445
O44 Si8 1.642268 1_555
O44 Zr0 2.164138 1_555
O45 Si9 1.637267 1_555
O45 Sc2 2.165960 1_665
O46 S0 1.479755 1_555
O46 Sc2 2.406979 1_655
O47 Si10 1.642433 1_555
O47 Sc2 2.166191 1_555
O48 Si5 1.643955 1_545
O48 Zr1 2.157381 1_555
O49 Si3 1.639808 1_555
O49 Zr1 2.132392 1_555
O50 Si4 1.637297 1_555
O50 Zr1 2.150171 1_555
O51 Si1 1.662144 1_555
O51 Zr2 2.037956 1_555
O52 Si2 1.656751 1_555
O52 Zr2 2.143806 1_555
O53 Si0 1.643989 1_555
O53 Zr2 2.132833 1_555
O54 S1 1.492440 1_555
O54 Sc3 2.261018 1_555
O55 Si11 1.640066 1_655
O55 Sc3 2.140501 1_555
O56 Si12 1.645858 1_545
O56 Sc3 2.135982 1_555
O57 Si13 1.663248 1_545
O57 Zr3 2.153817 1_555
O58 S2 1.494007 1_555
O58 Zr3 2.394886 1_555
O59 Si14 1.664016 1_655
O59 Zr3 2.148115 1_555
O60 Si10 1.647176 1_555
O60 Sc4 2.157090 1_555
O61 Si9 1.651108 1_455
O61 Sc4 2.050853 1_555
O62 S0 1.481439 1_565
O62 Sc4 2.408542 1_555
O63 Si7 1.628821 1_565
O63 Sc5 2.043305 1_555
O64 Si8 1.623225 1_555
O64 Sc5 2.146975 1_555
O65 Si6 1.616973 1_455
O65 Sc5 2.142275 1_555
O66 Si0 1.662327 1_565
O66 Zr4 2.033422 1_555
O67 Si1 1.645222 1_555
O67 Zr4 2.128666 1_555
O68 Si2 1.658124 1_455
O68 Zr4 2.133607 1_555
O69 Si3 1.642337 1_555
O69 Zr5 2.135631 1_555
O70 Si4 1.660545 1_455
O70 Zr5 2.043701 1_555
O71 Si5 1.647948 1_555
O71 Zr5 2.125738 1_555
