# generated using pymatgen
data_Na3NbGa3P5SO24
_symmetry_space_group_name_H-M   'P 1'
_cell_length_a   8.63806048
_cell_length_b   8.62094692
_cell_length_c   22.21594340
_cell_angle_alpha   89.58961809
_cell_angle_beta   90.20349347
_cell_angle_gamma   119.96064222
_symmetry_Int_Tables_number   1
_chemical_formula_structural   Na3NbGa3P5SO24
_chemical_formula_sum   'Na9 Nb3 Ga9 P15 S3 O72'
_cell_volume   1433.26853116
_cell_formula_units_Z   3
loop_
 _symmetry_equiv_pos_site_id
 _symmetry_equiv_pos_as_xyz
  1  'x, y, z'
loop_
 _atom_site_type_symbol
 _atom_site_label
 _atom_site_symmetry_multiplicity
 _atom_site_fract_x
 _atom_site_fract_y
 _atom_site_fract_z
 _atom_site_occupancy
  Na  Na0  1  0.63915253  0.63589263  0.74759160  1
  Na  Na1  1  0.30103046  0.96585183  0.08511357  1
  Na  Na2  1  0.33102142  0.02871283  0.41335629  1
  Na  Na3  1  0.98931204  0.99995715  0.50087322  1
  Na  Na4  1  0.99246665  0.00031548  0.99887469  1
  Na  Na5  1  0.66661165  0.32508022  0.83060394  1
  Na  Na6  1  0.66942635  0.33612504  0.32794018  1
  Na  Na7  1  0.33337308  0.66190133  0.16762086  1
  Na  Na8  1  0.32528464  0.66326034  0.66131563  1
  Nb  Nb0  1  0.66856078  0.33456803  0.97994840  1
  Nb  Nb1  1  0.67828925  0.34290513  0.47942317  1
  Nb  Nb2  1  0.32815316  0.66601974  0.81153762  1
  Ga  Ga0  1  0.00129216  0.00205967  0.35141020  1
  Ga  Ga1  1  0.00135022  0.00165519  0.85190534  1
  Ga  Ga2  1  0.99344316  0.00127187  0.64810077  1
  Ga  Ga3  1  0.00076068  0.99837890  0.14774964  1
  Ga  Ga4  1  0.67421025  0.33646241  0.68565015  1
  Ga  Ga5  1  0.65837688  0.32605381  0.18396140  1
  Ga  Ga6  1  0.33383783  0.66147495  0.01912749  1
  Ga  Ga7  1  0.33405519  0.65660301  0.51717882  1
  Ga  Ga8  1  0.33376556  0.67398732  0.31518483  1
  P  P0  1  0.29221106  -0.00012693  0.24998001  1
  P  P1  1  0.28657091  0.27772994  0.74873142  1
  P  P2  1  0.99642008  0.71599712  0.74851382  1
  P  P3  1  0.71898493  0.01093099  0.74963895  1
  P  P4  1  0.96467201  0.33526255  0.58631761  1
  P  P5  1  0.66621746  0.62992583  0.58655821  1
  P  P6  1  0.95767865  0.62288799  0.08695499  1
  P  P7  1  0.67002842  0.03824220  0.08608075  1
  P  P8  1  0.37405763  0.33843067  0.08578976  1
  P  P9  1  0.62777311  0.67601090  0.91760783  1
  P  P10  1  0.04684984  0.37124975  0.91857629  1
  P  P11  1  0.32504312  0.95300415  0.91871879  1
  P  P12  1  0.62494755  0.94749802  0.41645772  1
  P  P13  1  0.32643530  0.37977771  0.41476331  1
  P  P14  1  0.05315996  0.67233733  0.41548344  1
  S  S0  1  0.70937802  0.70936914  0.25004046  1
  S  S1  1  0.00030797  0.29116818  0.24961200  1
  S  S2  1  0.37300409  0.03902360  0.58466221  1
  O  O0  1  0.20939499  0.03084472  0.30752749  1
  O  O1  1  0.81940208  0.78976853  0.30480298  1
  O  O2  1  0.96712065  0.17948677  0.30468436  1
  O  O3  1  0.20850440  0.17261172  0.80657387  1
  O  O4  1  0.96062382  0.79197666  0.80545120  1
  O  O5  1  0.82552350  0.03570702  0.80686106  1
  O  O6  1  0.78607366  0.95629607  0.69420399  1
  O  O7  1  0.17229991  0.20677080  0.69231562  1
  O  O8  1  0.03637505  0.83040411  0.69189854  1
  O  O9  1  0.78820077  0.82131516  0.19538109  1
  O  O10  1  0.02911578  0.20980095  0.19534884  1
  O  O11  1  0.17753123  0.96879279  0.19251387  1
  O  O12  1  0.87435385  0.36529477  0.64021510  1
  O  O13  1  0.48665187  0.12341830  0.63758875  1
  O  O14  1  0.63282790  0.51144622  0.64261714  1
  O  O15  1  0.87005322  0.50324466  0.14144360  1
  O  O16  1  0.62691214  0.12163447  0.13955552  1
  O  O17  1  0.49209927  0.36929036  0.14057485  1
  O  O18  1  0.46320414  0.30122826  0.02912292  1
  O  O19  1  0.83908411  0.53450430  0.02898620  1
  O  O20  1  0.69885228  0.15985869  0.02848529  1
  O  O21  1  0.45652513  0.15030322  0.52804444  1
  O  O22  1  0.69196166  0.53160688  0.53004294  1
  O  O23  1  0.84136610  0.30597151  0.52877980  1
  O  O24  1  0.53955663  0.70085160  0.97275223  1
  O  O25  1  0.15917624  0.45917832  0.97389720  1
  O  O26  1  0.30087885  0.84403806  0.97600106  1
  O  O27  1  0.54206146  0.84021955  0.47392973  1
  O  O28  1  0.29614638  0.45446208  0.47251632  1
  O  O29  1  0.16631909  0.70761883  0.47247097  1
  O  O30  1  0.12401949  0.62875389  0.35939049  1
  O  O31  1  0.50312665  0.87917942  0.36089600  1
  O  O32  1  0.36889222  0.49648115  0.35862797  1
  O  O33  1  0.13090058  0.49305123  0.86137586  1
  O  O34  1  0.36100786  0.86653746  0.86246788  1
  O  O35  1  0.51002056  0.63774846  0.85953063  1
  O  O36  1  0.02587434  0.83545699  0.40924180  1
  O  O37  1  0.81305810  0.97662853  0.40821540  1
  O  O38  1  0.16810471  0.18622310  0.40909846  1
  O  O39  1  0.02359427  0.18725355  0.91000789  1
  O  O40  1  0.16348445  0.97507902  0.90987243  1
  O  O41  1  0.81286223  0.83618658  0.90958522  1
  O  O42  1  0.97594257  0.16342790  0.58899907  1
  O  O43  1  0.19752495  0.02742611  0.58834947  1
  O  O44  1  0.83966162  0.81059970  0.58884305  1
  O  O45  1  0.97632589  0.81065703  0.08969840  1
  O  O46  1  0.83951196  0.02600058  0.09136559  1
  O  O47  1  0.19190287  0.16317097  0.08954115  1
  O  O48  1  0.68777316  0.16928135  0.74219305  1
  O  O49  1  0.48055106  0.31459838  0.74286815  1
  O  O50  1  0.83183100  0.52581898  0.74359902  1
  O  O51  1  0.69436640  0.53068635  0.24443276  1
  O  O52  1  0.83885054  0.31017303  0.24397678  1
  O  O53  1  0.47983597  0.17009380  0.24406647  1
  O  O54  1  0.64028894  0.50104114  0.92325603  1
  O  O55  1  0.86055844  0.35997968  0.92269615  1
  O  O56  1  0.49938437  0.13984712  0.92289983  1
  O  O57  1  0.64001185  0.13891926  0.42508720  1
  O  O58  1  0.49545373  0.35292723  0.42395990  1
  O  O59  1  0.86079690  0.50303357  0.42307088  1
  O  O60  1  0.35697444  0.50399973  0.07675990  1
  O  O61  1  0.14489910  0.64687431  0.07762551  1
  O  O62  1  0.49826271  0.85751252  0.07638769  1
  O  O63  1  0.35786019  0.86242205  0.57760436  1
  O  O64  1  0.49847964  0.64484873  0.57707488  1
  O  O65  1  0.14505854  0.50525891  0.57632664  1
  O  O66  1  0.30943301  0.82943036  0.25597123  1
  O  O67  1  0.52913164  0.69038934  0.25581694  1
  O  O68  1  0.16356957  0.46940539  0.25558938  1
  O  O69  1  0.31256249  0.47467806  0.75651571  1
  O  O70  1  0.16482254  0.69264065  0.75606047  1
  O  O71  1  0.52711824  0.83577694  0.75751191  1
loop_
_geom_bond_atom_site_label_1
_geom_bond_atom_site_label_2
_geom_bond_distance
_geom_bond_site_symmetry_2
Na0 O50 2.293084 1_555
Na0 O71 2.372156 1_555
Na0 O49 2.402704 1_555
Na0 O69 2.452224 1_555
Na0 O14 2.563025 1_555
Na0 O6 2.666352 1_555
Na0 O4 2.727876 1_555
Na0 O35 2.732565 1_555
Na1 O47 2.323059 1_565
Na1 O62 2.325253 1_555
Na1 O61 2.389383 1_555
Na1 O45 2.432967 1_455
Na1 O11 2.622526 1_555
Na1 O26 2.648366 1_554
Na1 O16 2.722809 1_565
Na1 O18 2.790068 1_565
Na2 O36 2.312169 1_545
Na2 O57 2.358036 1_555
Na2 O38 2.395648 1_555
Na2 O58 2.434535 1_555
Na2 O0 2.575434 1_555
Na2 O31 2.679232 1_545
Na2 O29 2.727458 1_545
Na2 O21 2.765771 1_555
Na3 O44 2.453536 1_555
Na3 O42 2.456838 1_565
Na3 O37 2.504718 1_555
Na3 O38 2.572773 1_665
Na3 O43 2.573697 1_665
Na3 O36 2.597721 1_655
Na4 O39 2.468316 1_655
Na4 O41 2.483878 1_545
Na4 O46 2.516901 1_556
Na4 O40 2.546989 1_645
Na4 O45 2.547759 1_546
Na4 O47 2.568307 1_656
Na5 O48 2.445567 1_555
Na5 O49 2.495115 1_555
Na5 O50 2.504507 1_555
Na5 O56 2.551692 1_555
Na5 O55 2.562035 1_555
Na5 O54 2.642389 1_555
Na6 O53 2.424462 1_555
Na6 O51 2.428756 1_555
Na6 O52 2.454328 1_555
Na6 O59 2.629182 1_555
Na6 O58 2.659770 1_555
Na6 O57 2.670705 1_555
Na7 O68 2.503468 1_555
Na7 O60 2.507721 1_555
Na7 O66 2.514554 1_555
Na7 O67 2.515424 1_555
Na7 O61 2.536649 1_555
Na7 O62 2.559887 1_555
Na8 O65 2.396227 1_555
Na8 O63 2.441543 1_555
Na8 O64 2.455037 1_555
Na8 O70 2.606678 1_555
Na8 O69 2.627197 1_555
Na8 O71 2.692193 1_555
Nb0 O19 1.951177 1_556
Nb0 O20 1.966739 1_556
Nb0 O18 1.980596 1_556
Nb0 O54 2.006883 1_555
Nb0 O55 2.016043 1_555
Nb0 O56 2.031474 1_555
Nb1 O23 1.928747 1_555
Nb1 O22 1.938659 1_555
Nb1 O59 1.942653 1_555
Nb1 O57 2.026275 1_555
Nb1 O58 2.034939 1_555
Nb1 O21 2.098900 1_555
Nb2 O33 1.950556 1_555
Nb2 O70 1.967027 1_555
Nb2 O34 1.970970 1_555
Nb2 O71 2.003345 1_555
Nb2 O35 2.007735 1_555
Nb2 O69 2.009762 1_555
Ga0 O0 1.951106 1_555
Ga0 O2 1.982518 1_455
Ga0 O37 1.984697 1_445
Ga0 O38 1.992611 1_555
Ga0 O1 2.008400 1_445
Ga0 O36 2.008702 1_545
Ga1 O3 1.935392 1_555
Ga1 O5 1.955674 1_455
Ga1 O4 1.960952 1_445
Ga1 O40 1.993949 1_545
Ga1 O39 1.995984 1_555
Ga1 O41 1.999167 1_445
Ga2 O6 1.929161 1_545
Ga2 O7 1.941828 1_655
Ga2 O8 1.943362 1_645
Ga2 O42 1.970895 1_555
Ga2 O44 2.009299 1_545
Ga2 O43 2.129778 1_655
Ga3 O11 1.939128 1_555
Ga3 O46 1.969897 1_465
Ga3 O9 2.003087 1_455
Ga3 O45 2.003396 1_455
Ga3 O47 2.015601 1_565
Ga3 O10 2.019943 1_565
Ga4 O12 1.910276 1_555
Ga4 O48 1.952063 1_555
Ga4 O14 1.957784 1_555
Ga4 O50 1.993407 1_555
Ga4 O49 2.036292 1_555
Ga4 O13 2.044965 1_555
Ga5 O17 1.910692 1_555
Ga5 O16 1.922847 1_555
Ga5 O15 1.941850 1_555
Ga5 O53 1.971563 1_555
Ga5 O52 2.102980 1_555
Ga5 O51 2.120564 1_555
Ga6 O25 1.927101 1_554
Ga6 O24 1.933893 1_554
Ga6 O60 1.940768 1_555
Ga6 O26 1.974859 1_554
Ga6 O62 2.027843 1_555
Ga6 O61 2.043513 1_555
Ga7 O28 1.892364 1_555
Ga7 O27 1.951141 1_555
Ga7 O29 1.974660 1_555
Ga7 O64 1.981556 1_555
Ga7 O65 1.989323 1_555
Ga7 O63 2.158801 1_555
Ga8 O30 1.923699 1_555
Ga8 O31 1.931595 1_555
Ga8 O32 1.950848 1_555
Ga8 O66 1.955651 1_555
Ga8 O67 2.093386 1_555
Ga8 O68 2.110610 1_555
O0 P0 1.555539 1_555
O1 S0 1.486504 1_555
O2 S1 1.488629 1_655
O3 P1 1.518670 1_555
O4 P2 1.530234 1_555
O5 P3 1.519163 1_555
O6 P3 1.536354 1_565
O7 P1 1.522651 1_555
O8 P2 1.522884 1_455
O9 S0 1.484011 1_555
O10 S1 1.481827 1_555
O11 P0 1.553635 1_565
O12 P4 1.523896 1_555
O13 S2 1.471826 1_555
O14 P5 1.538691 1_555
O15 P6 1.520189 1_555
O16 P7 1.532873 1_555
O17 P8 1.522065 1_555
O18 P8 1.593750 1_555
O19 P6 1.585428 1_555
O20 P7 1.587692 1_555
O21 S2 1.523416 1_555
O22 P5 1.596796 1_555
O23 P4 1.599533 1_555
O24 P9 1.516822 1_555
O25 P10 1.515506 1_555
O26 P11 1.527874 1_555
O27 P12 1.525241 1_555
O28 P13 1.520413 1_555
O29 P14 1.533160 1_555
O30 P14 1.520055 1_555
O31 P12 1.536230 1_555
O32 P13 1.522734 1_555
O33 P10 1.571793 1_555
O34 P11 1.568835 1_555
O35 P9 1.571555 1_555
O36 P14 1.542833 1_555
O37 P12 1.526697 1_555
O38 P13 1.546945 1_555
O39 P10 1.509462 1_555
O40 P11 1.511685 1_555
O41 P9 1.512658 1_555
O42 P4 1.533052 1_555
O43 S2 1.470968 1_555
O44 P5 1.530708 1_555
O45 P6 1.546258 1_555
O46 P7 1.523537 1_555
O47 P8 1.546017 1_555
O48 P3 1.525678 1_555
O49 P1 1.547475 1_555
O50 P2 1.547429 1_555
O51 S0 1.486048 1_555
O52 S1 1.488067 1_655
O53 P0 1.555849 1_555
O54 P9 1.569329 1_555
O55 P10 1.565914 1_655
O56 P11 1.565058 1_545
O57 P12 1.602131 1_545
O58 P13 1.600517 1_555
O59 P14 1.579832 1_655
O60 P8 1.518370 1_555
O61 P6 1.539114 1_455
O62 P7 1.539128 1_565
O63 S2 1.471044 1_565
O64 P5 1.530999 1_555
O65 P4 1.530340 1_455
O66 P0 1.553804 1_565
O67 S0 1.487981 1_555
O68 S1 1.484834 1_555
O69 P1 1.608195 1_555
O70 P2 1.573232 1_455
O71 P3 1.598799 1_565
