# generated using pymatgen
data_VPbO3
_symmetry_space_group_name_H-M   'P 1'
_cell_length_a   5.41937668
_cell_length_b   5.41937668
_cell_length_c   6.26617969
_cell_angle_alpha   64.38122016
_cell_angle_beta   64.38136608
_cell_angle_gamma   89.99844494
_symmetry_Int_Tables_number   1
_chemical_formula_structural   VPbO3
_chemical_formula_sum   'V2 Pb2 O6'
_cell_volume   145.62135938
_cell_formula_units_Z   2
loop_
 _symmetry_equiv_pos_site_id
 _symmetry_equiv_pos_as_xyz
  1  'x, y, z'
loop_
 _atom_site_type_symbol
 _atom_site_label
 _atom_site_symmetry_multiplicity
 _atom_site_fract_x
 _atom_site_fract_y
 _atom_site_fract_z
 _atom_site_occupancy
  V  V0  1  0.21619100  0.71619100  0.56764100  1
  V  V1  1  0.71619100  0.21619200  0.56764100  1
  Pb  Pb0  1  0.00418100  0.00418100  0.99164600  1
  Pb  Pb1  1  0.50418300  0.50418200  0.99164600  1
  O  O0  1  0.38653500  0.88653300  0.22691400  1
  O  O1  1  0.88653400  0.38653400  0.22691500  1
  O  O2  1  0.40362400  0.90362300  0.69274800  1
  O  O3  1  0.90362300  0.40362400  0.69274900  1
  O  O4  1  0.90361900  0.90362000  0.69275000  1
  O  O5  1  0.40362000  0.40362200  0.69274900  1
loop_
_geom_bond_atom_site_label_1
_geom_bond_atom_site_label_2
_geom_bond_distance
_geom_bond_site_symmetry_2
O0 V0 1.689402 1_555
O1 V1 1.689397 1_555
O2 V0 2.013806 1_555
O2 V1 2.014145 1_565
O2 Pb1 2.422278 1_555
O2 Pb0 2.422286 1_565
O3 V1 2.013807 1_555
O3 V0 2.014139 1_655
O3 Pb1 2.422274 1_555
O3 Pb0 2.422278 1_655
O4 V1 2.013926 1_565
O4 V0 2.013932 1_655
O4 Pb0 2.422243 1_665
O4 Pb1 2.422379 1_555
O5 V0 2.013917 1_555
O5 V1 2.013930 1_555
O5 Pb1 2.422249 1_555
O5 Pb0 2.422397 1_555
