# generated using pymatgen
data_K2OsBr6
_symmetry_space_group_name_H-M   'P 1'
_cell_length_a   7.30783278
_cell_length_b   7.30783185
_cell_length_c   7.30783546
_cell_angle_alpha   59.99998831
_cell_angle_beta   59.99999258
_cell_angle_gamma   60.00002226
_symmetry_Int_Tables_number   1
_chemical_formula_structural   K2OsBr6
_chemical_formula_sum   'K2 Os1 Br6'
_cell_volume   275.96303994
_cell_formula_units_Z   1
loop_
 _symmetry_equiv_pos_site_id
 _symmetry_equiv_pos_as_xyz
  1  'x, y, z'
loop_
 _atom_site_type_symbol
 _atom_site_label
 _atom_site_symmetry_multiplicity
 _atom_site_fract_x
 _atom_site_fract_y
 _atom_site_fract_z
 _atom_site_occupancy
  K  K0  1  0.25000000  0.25000000  0.25000000  1
  K  K1  1  0.75000000  0.75000000  0.75000000  1
  Os  Os0  1  -0.00000000  0.00000000  -0.00000000  1
  Br  Br0  1  0.75895686  0.24104314  0.24104314  1
  Br  Br1  1  0.75895686  0.75895686  0.24104314  1
  Br  Br2  1  0.75895686  0.24104314  0.75895686  1
  Br  Br3  1  0.24104314  0.24104314  0.75895686  1
  Br  Br4  1  0.24104314  0.75895686  0.24104314  1
  Br  Br5  1  0.24104314  0.75895686  0.75895686  1
loop_
_geom_bond_atom_site_label_1
_geom_bond_atom_site_label_2
_geom_bond_distance
_geom_bond_site_symmetry_2
Br0 Os0 2.491142 1_655
Br0 K1 3.655089 1_554
Br0 K1 3.655089 1_545
Br0 K0 3.655089 1_655
Br0 K0 3.655089 1_555
Br1 Os0 2.491140 1_665
Br1 K0 3.655090 1_655
Br1 K0 3.655090 1_565
Br1 K1 3.655090 1_554
Br1 K1 3.655090 1_555
Br2 Os0 2.491142 1_656
Br2 K1 3.655088 1_555
Br2 K1 3.655088 1_545
Br2 K0 3.655089 1_556
Br2 K0 3.655089 1_655
Br3 Os0 2.491140 1_556
Br3 K1 3.655090 1_455
Br3 K1 3.655090 1_545
Br3 K0 3.655090 1_556
Br3 K0 3.655090 1_555
Br4 Os0 2.491142 1_565
Br4 K0 3.655088 1_555
Br4 K0 3.655088 1_565
Br4 K1 3.655089 1_554
Br4 K1 3.655089 1_455
Br5 Os0 2.491142 1_566
Br5 K0 3.655089 1_556
Br5 K0 3.655089 1_565
Br5 K1 3.655089 1_455
Br5 K1 3.655089 1_555
