# generated using pymatgen
data_Cs3MnBr5
_symmetry_space_group_name_H-M   'P 1'
_cell_length_a   9.70688979
_cell_length_b   9.70688863
_cell_length_c   10.33635706
_cell_angle_alpha   118.00513813
_cell_angle_beta   118.00513610
_cell_angle_gamma   90.00000084
_symmetry_Int_Tables_number   1
_chemical_formula_structural   Cs3MnBr5
_chemical_formula_sum   'Cs6 Mn2 Br10'
_cell_volume   728.20009610
_cell_formula_units_Z   2
loop_
 _symmetry_equiv_pos_site_id
 _symmetry_equiv_pos_as_xyz
  1  'x, y, z'
loop_
 _atom_site_type_symbol
 _atom_site_label
 _atom_site_symmetry_multiplicity
 _atom_site_fract_x
 _atom_site_fract_y
 _atom_site_fract_z
 _atom_site_occupancy
  Cs  Cs0  1  0.75000000  0.75000000  0.50000000  1
  Cs  Cs1  1  0.25000000  0.25000000  0.50000000  1
  Cs  Cs2  1  0.34043501  0.84043501  -0.00000000  1
  Cs  Cs3  1  0.15956499  0.34043501  0.00000000  1
  Cs  Cs4  1  0.84043501  0.65956499  -0.00000000  1
  Cs  Cs5  1  0.65956499  0.15956499  0.00000000  1
  Mn  Mn0  1  0.25000000  0.75000000  0.50000000  1
  Mn  Mn1  1  0.75000000  0.25000000  0.50000000  1
  Br  Br0  1  0.00866778  0.50866778  0.30780777  1
  Br  Br1  1  0.70086002  0.20085902  0.69219223  1
  Br  Br2  1  0.99133222  0.49133222  0.69219223  1
  Br  Br3  1  0.20085902  0.99133222  0.69219223  1
  Br  Br4  1  0.50000000  0.50000000  0.00000000  1
  Br  Br5  1  0.00000000  0.00000000  0.00000000  1
  Br  Br6  1  0.29913998  0.79913998  0.30780777  1
  Br  Br7  1  0.50866778  0.29913998  0.30780777  1
  Br  Br8  1  0.79913998  0.00866778  0.30780777  1
  Br  Br9  1  0.49133222  0.70086002  0.69219223  1
loop_
_geom_bond_atom_site_label_1
_geom_bond_atom_site_label_2
_geom_bond_distance
_geom_bond_site_symmetry_2
Br0 Mn0 2.486214 1_555
Br0 Cs5 3.583204 1_455
Br0 Cs4 3.798958 1_455
Br0 Cs3 3.798958 1_555
Br0 Cs1 4.006557 1_555
Br0 Cs0 4.006557 1_455
Br1 Mn1 2.486219 1_555
Br1 Cs5 3.583198 1_556
Br1 Cs3 3.798958 1_656
Br1 Cs4 3.798966 1_556
Br1 Cs0 4.006549 1_545
Br1 Cs1 4.006561 1_555
Br2 Mn1 2.486214 1_555
Br2 Cs2 3.583204 1_656
Br2 Cs3 3.798958 1_656
Br2 Cs4 3.798958 1_556
Br2 Cs0 4.006557 1_555
Br2 Cs1 4.006557 1_655
Br3 Mn0 2.486219 1_555
Br3 Cs3 3.583198 1_566
Br3 Cs2 3.798958 1_556
Br3 Cs5 3.798966 1_566
Br3 Cs0 4.006549 1_455
Br3 Cs1 4.006561 1_565
Br4 Cs2 3.649545 1_555
Br4 Cs5 3.649545 1_555
Br4 Cs3 3.649545 1_555
Br4 Cs4 3.649545 1_555
Br4 Cs1 3.864209 1_554
Br4 Cs0 3.864209 1_555
Br5 Cs3 3.649545 1_555
Br5 Cs4 3.649545 1_445
Br5 Cs2 3.649545 1_545
Br5 Cs5 3.649545 1_455
Br5 Cs0 3.864209 1_444
Br5 Cs1 3.864209 1_555
Br6 Mn0 2.486214 1_555
Br6 Cs2 3.583203 1_555
Br6 Cs3 3.798958 1_555
Br6 Cs4 3.798959 1_455
Br6 Cs1 4.006557 1_565
Br6 Cs0 4.006558 1_555
Br7 Mn1 2.486214 1_555
Br7 Cs3 3.583204 1_555
Br7 Cs2 3.798958 1_545
Br7 Cs5 3.798958 1_555
Br7 Cs1 4.006557 1_555
Br7 Cs0 4.006557 1_555
Br8 Mn1 2.486214 1_555
Br8 Cs4 3.583203 1_545
Br8 Cs5 3.798958 1_555
Br8 Cs2 3.798959 1_545
Br8 Cs0 4.006557 1_545
Br8 Cs1 4.006558 1_655
Br9 Mn0 2.486214 1_555
Br9 Cs4 3.583204 1_556
Br9 Cs5 3.798958 1_566
Br9 Cs2 3.798958 1_556
Br9 Cs0 4.006557 1_555
Br9 Cs1 4.006557 1_555
