# generated using pymatgen
data_LaNb7O19
_symmetry_space_group_name_H-M   'P 1'
_cell_length_a   6.34107608
_cell_length_b   6.34107608
_cell_length_c   20.38251000
_cell_angle_alpha   90.00000000
_cell_angle_beta   90.00000000
_cell_angle_gamma   120.00000087
_symmetry_Int_Tables_number   1
_chemical_formula_structural   LaNb7O19
_chemical_formula_sum   'La2 Nb14 O38'
_cell_volume   709.76441266
_cell_formula_units_Z   2
loop_
 _symmetry_equiv_pos_site_id
 _symmetry_equiv_pos_as_xyz
  1  'x, y, z'
loop_
 _atom_site_type_symbol
 _atom_site_label
 _atom_site_symmetry_multiplicity
 _atom_site_fract_x
 _atom_site_fract_y
 _atom_site_fract_z
 _atom_site_occupancy
  La  La0  1  0.33333300  0.66666700  0.15283400  1
  La  La1  1  0.66666700  0.33333300  0.84716600  1
  Nb  Nb0  1  0.33333300  0.66666700  0.84169300  1
  Nb  Nb1  1  0.66666700  0.33333300  0.15830700  1
  Nb  Nb2  1  0.35934900  0.00084300  0.68845800  1
  Nb  Nb3  1  0.64149400  0.64065100  0.68845800  1
  Nb  Nb4  1  0.99915700  0.35850600  0.68845800  1
  Nb  Nb5  1  0.35898500  0.00000000  0.50000000  1
  Nb  Nb6  1  0.64101500  0.64101500  0.50000000  1
  Nb  Nb7  1  0.00000000  0.35898500  0.50000000  1
  Nb  Nb8  1  0.35850600  0.99915700  0.31154200  1
  Nb  Nb9  1  0.64065100  0.64149400  0.31154200  1
  Nb  Nb10  1  0.00084300  0.35934900  0.31154200  1
  Nb  Nb11  1  0.64509400  0.00000000  0.00000000  1
  Nb  Nb12  1  0.35490600  0.35490600  0.00000000  1
  Nb  Nb13  1  0.00000000  0.64509400  0.00000000  1
  O  O0  1  0.33333300  0.66666700  0.68297800  1
  O  O1  1  0.33333300  0.66666700  0.51085400  1
  O  O2  1  0.33333300  0.66666700  0.28460500  1
  O  O3  1  0.33333300  0.66666700  0.02288000  1
  O  O4  1  0.66666700  0.33333300  0.71539500  1
  O  O5  1  0.66666700  0.33333300  0.48914600  1
  O  O6  1  0.66666700  0.33333300  0.31702200  1
  O  O7  1  0.66666700  0.33333300  0.97712000  1
  O  O8  1  0.37799800  0.94909600  0.79152800  1
  O  O9  1  0.57109900  0.62200200  0.79152800  1
  O  O10  1  0.05090400  0.42890100  0.79152800  1
  O  O11  1  0.37608600  0.96659000  0.40292600  1
  O  O12  1  0.59050400  0.62391400  0.40292600  1
  O  O13  1  0.03341000  0.40949600  0.40292600  1
  O  O14  1  0.40949600  0.03341000  0.59707400  1
  O  O15  1  0.62391400  0.59050400  0.59707400  1
  O  O16  1  0.75760300  0.75760300  0.00000000  1
  O  O17  1  0.24239700  0.00000000  0.00000000  1
  O  O18  1  0.00000000  0.24239700  0.00000000  1
  O  O19  1  0.75440300  0.00005500  0.30627600  1
  O  O20  1  0.99994500  0.75434800  0.30627600  1
  O  O21  1  0.24565200  0.24559700  0.30627600  1
  O  O22  1  0.75645600  0.00000000  0.50000000  1
  O  O23  1  0.00000000  0.75645600  0.50000000  1
  O  O24  1  0.24354400  0.24354400  0.50000000  1
  O  O25  1  0.75434800  0.99994500  0.69372400  1
  O  O26  1  0.00005500  0.75440300  0.69372400  1
  O  O27  1  0.24559700  0.24565200  0.69372400  1
  O  O28  1  0.05551500  0.61807900  0.90570900  1
  O  O29  1  0.38192100  0.43743600  0.90570900  1
  O  O30  1  0.56256400  0.94448500  0.90570900  1
  O  O31  1  0.94448500  0.56256400  0.09429100  1
  O  O32  1  0.43743600  0.38192100  0.09429100  1
  O  O33  1  0.61807900  0.05551500  0.09429100  1
  O  O34  1  0.94909600  0.37799800  0.20847200  1
  O  O35  1  0.62200200  0.57109900  0.20847200  1
  O  O36  1  0.42890100  0.05090400  0.20847200  1
  O  O37  1  0.96659000  0.37608600  0.59707400  1
loop_
_geom_bond_atom_site_label_1
_geom_bond_atom_site_label_2
_geom_bond_distance
_geom_bond_site_symmetry_2
La0 O34 2.472487 1_455
La0 O36 2.472487 1_565
La0 O35 2.472487 1_555
La0 O31 2.512307 1_455
La0 O33 2.512309 1_565
La0 O32 2.512313 1_555
La0 O3 2.648789 1_555
La0 O2 2.685824 1_555
La1 O8 2.472487 1_545
La1 O10 2.472487 1_655
La1 O9 2.472487 1_555
La1 O30 2.512307 1_545
La1 O28 2.512309 1_655
La1 O29 2.512313 1_555
La1 O7 2.648789 1_555
La1 O4 2.685824 1_555
Nb0 O8 1.955967 1_555
Nb0 O10 1.955971 1_555
Nb0 O9 1.955978 1_555
Nb0 O28 2.087616 1_555
Nb0 O30 2.087618 1_555
Nb0 O29 2.087621 1_555
Nb1 O34 1.955967 1_555
Nb1 O36 1.955971 1_555
Nb1 O35 1.955978 1_555
Nb1 O33 2.087616 1_555
Nb1 O31 2.087618 1_555
Nb1 O32 2.087621 1_555
Nb2 O14 1.883482 1_555
Nb2 O27 2.015275 1_555
Nb2 O26 2.020874 1_545
Nb2 O0 2.044609 1_545
Nb2 O4 2.106066 1_555
Nb2 O8 2.138674 1_545
Nb2 O25 2.509867 1_545
Nb3 O15 1.883482 1_555
Nb3 O26 2.015275 1_655
Nb3 O25 2.020874 1_555
Nb3 O0 2.044615 1_555
Nb3 O4 2.106069 1_555
Nb3 O9 2.138672 1_555
Nb3 O27 2.509867 1_555
Nb4 O37 1.883482 1_555
Nb4 O25 2.015275 1_545
Nb4 O27 2.020874 1_655
Nb4 O0 2.044612 1_655
Nb4 O4 2.106063 1_555
Nb4 O10 2.138673 1_655
Nb4 O26 2.509867 1_655
Nb5 O14 1.998629 1_555
Nb5 O11 1.998629 1_545
Nb5 O23 2.012782 1_545
Nb5 O24 2.012782 1_555
Nb5 O1 2.049212 1_545
Nb5 O5 2.049215 1_555
Nb5 O22 2.520394 1_555
Nb6 O12 1.998629 1_555
Nb6 O15 1.998629 1_555
Nb6 O22 2.012782 1_565
Nb6 O23 2.012782 1_655
Nb6 O1 2.049219 1_555
Nb6 O5 2.049219 1_555
Nb6 O24 2.520394 1_555
Nb7 O13 1.998629 1_555
Nb7 O37 1.998629 1_455
Nb7 O22 2.012782 1_455
Nb7 O24 2.012782 1_555
Nb7 O5 2.049212 1_455
Nb7 O1 2.049215 1_555
Nb7 O23 2.520394 1_555
Nb8 O11 1.883482 1_555
Nb8 O20 2.015275 1_455
Nb8 O21 2.020874 1_565
Nb8 O6 2.044612 1_565
Nb8 O2 2.106063 1_555
Nb8 O36 2.138673 1_565
Nb8 O19 2.509867 1_565
Nb9 O12 1.883482 1_555
Nb9 O19 2.015275 1_565
Nb9 O20 2.020874 1_555
Nb9 O6 2.044615 1_555
Nb9 O2 2.106069 1_555
Nb9 O35 2.138672 1_555
Nb9 O21 2.509867 1_555
Nb10 O13 1.883482 1_555
Nb10 O21 2.015275 1_555
Nb10 O19 2.020874 1_455
Nb10 O6 2.044609 1_455
Nb10 O2 2.106066 1_555
Nb10 O34 2.138674 1_455
Nb10 O20 2.509867 1_455
Nb11 O30 1.976669 1_544
Nb11 O33 1.976669 1_555
Nb11 O18 1.992011 1_655
Nb11 O16 1.992011 1_545
Nb11 O7 2.101128 1_554
Nb11 O3 2.101131 1_545
Nb12 O32 1.976669 1_555
Nb12 O29 1.976669 1_554
Nb12 O18 1.992011 1_555
Nb12 O17 1.992011 1_555
Nb12 O7 2.101134 1_554
Nb12 O3 2.101134 1_555
Nb13 O31 1.976669 1_455
Nb13 O28 1.976669 1_554
Nb13 O17 1.992011 1_565
Nb13 O16 1.992011 1_455
Nb13 O3 2.101128 1_555
Nb13 O7 2.101131 1_454
