# generated using pymatgen
data_NaCu3F7
_symmetry_space_group_name_H-M   'P 1'
_cell_length_a   7.04156512
_cell_length_b   7.04154515
_cell_length_c   6.87689971
_cell_angle_alpha   63.89944543
_cell_angle_beta   63.89998534
_cell_angle_gamma   61.99615579
_symmetry_Int_Tables_number   1
_chemical_formula_structural   NaCu3F7
_chemical_formula_sum   'Na2 Cu6 F14'
_cell_volume   258.38057228
_cell_formula_units_Z   2
loop_
 _symmetry_equiv_pos_site_id
 _symmetry_equiv_pos_as_xyz
  1  'x, y, z'
loop_
 _atom_site_type_symbol
 _atom_site_label
 _atom_site_symmetry_multiplicity
 _atom_site_fract_x
 _atom_site_fract_y
 _atom_site_fract_z
 _atom_site_occupancy
  Na  Na0  1  0.50000162  0.50000051  0.00000161  1
  Na  Na1  1  0.49999972  0.49999825  0.49999886  1
  Cu  Cu0  1  0.49999831  -0.00000187  0.50000201  1
  Cu  Cu1  1  0.00000011  0.50000074  -0.00000208  1
  Cu  Cu2  1  0.00000020  -0.00000016  0.49999992  1
  Cu  Cu3  1  0.00000045  -0.00000124  0.00000050  1
  Cu  Cu4  1  -0.00000199  0.49999935  0.50000154  1
  Cu  Cu5  1  0.50000082  0.00000216  -0.00000027  1
  F  F0  1  0.11073595  0.88926470  0.24999848  1
  F  F1  1  0.88926646  0.11073281  0.75000114  1
  F  F2  1  0.62075685  0.68845445  0.10657534  1
  F  F3  1  0.31156086  0.37924007  0.39341164  1
  F  F4  1  0.37924413  0.31154855  0.89342392  1
  F  F5  1  0.68843559  0.62075926  0.60659045  1
  F  F6  1  0.62972108  0.02928343  0.17994877  1
  F  F7  1  0.97071376  0.37028058  0.32004028  1
  F  F8  1  0.88543304  0.30288184  0.00172003  1
  F  F9  1  0.69711738  0.11456794  0.49827399  1
  F  F10  1  0.11456992  0.69712469  0.99828007  1
  F  F11  1  0.30288031  0.88542838  0.50172192  1
  F  F12  1  0.02928658  0.62971970  0.67996291  1
  F  F13  1  0.37027886  0.97071586  0.82004895  1
loop_
_geom_bond_atom_site_label_1
_geom_bond_atom_site_label_2
_geom_bond_distance
_geom_bond_site_symmetry_2
Cu0 F9 1.899001 1_555
Cu0 F11 1.899022 1_545
Cu0 F13 1.931221 1_545
Cu0 F6 1.931256 1_555
Cu0 F5 2.288040 1_545
Cu0 F3 2.288057 1_555
Cu1 F8 1.899003 1_455
Cu1 F10 1.899066 1_554
Cu1 F12 1.931137 1_554
Cu1 F7 1.931182 1_455
Cu1 F2 2.288094 1_455
Cu1 F4 2.288095 1_554
Cu2 F11 1.896754 1_545
Cu2 F9 1.896782 1_455
Cu2 F1 1.897580 1_455
Cu2 F0 1.897588 1_545
Cu2 F12 2.291892 1_545
Cu2 F7 2.291893 1_455
Cu3 F10 1.896707 1_544
Cu3 F8 1.896765 1_455
Cu3 F0 1.897560 1_545
Cu3 F1 1.897562 1_454
Cu3 F13 2.291899 1_544
Cu3 F6 2.291901 1_455
Cu4 F5 1.858798 1_455
Cu4 F3 1.858800 1_555
Cu4 F7 1.950520 1_455
Cu4 F12 1.950548 1_555
Cu5 F4 1.858685 1_554
Cu5 F2 1.858692 1_545
Cu5 F6 1.950439 1_555
Cu5 F13 1.950480 1_544
F2 Na0 2.341962 1_555
F2 Na1 2.383330 1_555
F3 Na1 2.341952 1_555
F3 Na0 2.383246 1_555
F4 Na0 2.341982 1_556
F4 Na1 2.383326 1_555
F5 Na1 2.341971 1_555
F5 Na0 2.383239 1_556
F6 Na0 2.809711 1_555
F7 Na1 2.809722 1_555
F8 Na0 2.401867 1_555
F9 Na1 2.401864 1_555
F10 Na0 2.401875 1_556
F11 Na1 2.401861 1_555
F12 Na1 2.809718 1_555
F13 Na0 2.809702 1_556
