# generated using pymatgen
data_DyCoO3
_symmetry_space_group_name_H-M   'P 1'
_cell_length_a   5.12056865
_cell_length_b   5.41427635
_cell_length_c   7.35305120
_cell_angle_alpha   90.00000000
_cell_angle_beta   90.00000000
_cell_angle_gamma   90.00000000
_symmetry_Int_Tables_number   1
_chemical_formula_structural   DyCoO3
_chemical_formula_sum   'Dy4 Co4 O12'
_cell_volume   203.85726899
_cell_formula_units_Z   4
loop_
 _symmetry_equiv_pos_site_id
 _symmetry_equiv_pos_as_xyz
  1  'x, y, z'
loop_
 _atom_site_type_symbol
 _atom_site_label
 _atom_site_symmetry_multiplicity
 _atom_site_fract_x
 _atom_site_fract_y
 _atom_site_fract_z
 _atom_site_occupancy
  Dy  Dy0  1  0.51863772  0.57043262  0.25000000  1
  Dy  Dy1  1  0.98136228  0.07043262  0.25000000  1
  Dy  Dy2  1  0.48136228  0.42956738  0.75000000  1
  Dy  Dy3  1  0.01863772  0.92956738  0.75000000  1
  Co  Co0  1  0.00000000  0.50000000  -0.00000000  1
  Co  Co1  1  0.50000000  -0.00000000  0.50000000  1
  Co  Co2  1  0.00000000  0.50000000  0.50000000  1
  Co  Co3  1  0.50000000  -0.00000000  -0.00000000  1
  O  O0  1  0.40247993  0.97417087  0.25000000  1
  O  O1  1  0.09752007  0.47417087  0.25000000  1
  O  O2  1  0.59752007  0.02582913  0.75000000  1
  O  O3  1  0.90247993  0.52582913  0.75000000  1
  O  O4  1  0.80655602  0.80071801  0.04902843  1
  O  O5  1  0.69344398  0.30071801  0.45097157  1
  O  O6  1  0.19344398  0.19928199  0.54902843  1
  O  O7  1  0.30655602  0.69928199  0.95097157  1
  O  O8  1  0.19344398  0.19928199  0.95097157  1
  O  O9  1  0.30655602  0.69928199  0.54902843  1
  O  O10  1  0.80655602  0.80071801  0.45097157  1
  O  O11  1  0.69344398  0.30071801  0.04902843  1
loop_
_geom_bond_atom_site_label_1
_geom_bond_atom_site_label_2
_geom_bond_distance
_geom_bond_site_symmetry_2
Dy0 O1 2.218453 1_555
Dy0 O11 2.262184 1_555
Dy0 O5 2.262184 1_555
Dy0 O0 2.265427 1_555
Dy0 O10 2.431443 1_555
Dy0 O4 2.431443 1_555
Dy0 O9 2.549633 1_555
Dy0 O7 2.549633 1_554
Dy1 O0 2.218453 1_645
Dy1 O10 2.262184 1_545
Dy1 O4 2.262184 1_545
Dy1 O1 2.265427 1_655
Dy1 O11 2.431443 1_555
Dy1 O5 2.431443 1_555
Dy1 O6 2.549633 1_655
Dy1 O8 2.549633 1_654
Dy2 O3 2.218453 1_555
Dy2 O9 2.262184 1_555
Dy2 O7 2.262184 1_555
Dy2 O2 2.265427 1_555
Dy2 O8 2.431443 1_555
Dy2 O6 2.431443 1_555
Dy2 O11 2.549633 1_556
Dy2 O5 2.549633 1_555
Dy3 O2 2.218453 1_465
Dy3 O8 2.262184 1_565
Dy3 O6 2.262184 1_565
Dy3 O3 2.265427 1_455
Dy3 O9 2.431443 1_555
Dy3 O7 2.431443 1_555
Dy3 O4 2.549633 1_456
Dy3 O10 2.549633 1_455
Co0 O3 1.910007 1_454
Co0 O1 1.910007 1_555
Co0 O7 1.938614 1_554
Co0 O11 1.938614 1_455
Co0 O4 1.939608 1_455
Co0 O8 1.939608 1_554
Co1 O2 1.910007 1_555
Co1 O0 1.910007 1_545
Co1 O6 1.938614 1_555
Co1 O10 1.938614 1_545
Co1 O5 1.939608 1_555
Co1 O9 1.939608 1_545
Co2 O3 1.910007 1_455
Co2 O1 1.910007 1_555
Co2 O9 1.938614 1_555
Co2 O5 1.938614 1_455
Co2 O10 1.939608 1_455
Co2 O6 1.939608 1_555
Co3 O2 1.910007 1_554
Co3 O0 1.910007 1_545
Co3 O8 1.938614 1_554
Co3 O4 1.938614 1_545
Co3 O11 1.939608 1_555
Co3 O7 1.939608 1_544
