# generated using pymatgen
data_Co3(P3O10)2
_symmetry_space_group_name_H-M   'P 1'
_cell_length_a   8.35121017
_cell_length_b   8.35121017
_cell_length_c   12.39550600
_cell_angle_alpha   90.00000000
_cell_angle_beta   90.00000000
_cell_angle_gamma   105.38933063
_symmetry_Int_Tables_number   1
_chemical_formula_structural   Co3(P3O10)2
_chemical_formula_sum   'Co6 P12 O40'
_cell_volume   833.49954540
_cell_formula_units_Z   2
loop_
 _symmetry_equiv_pos_site_id
 _symmetry_equiv_pos_as_xyz
  1  'x, y, z'
loop_
 _atom_site_type_symbol
 _atom_site_label
 _atom_site_symmetry_multiplicity
 _atom_site_fract_x
 _atom_site_fract_y
 _atom_site_fract_z
 _atom_site_occupancy
  Co  Co0  1  0.69942800  0.30057200  0.25000000  1
  Co  Co1  1  0.86068300  0.86068300  0.00000000  1
  Co  Co2  1  0.13931700  0.13931700  0.50000000  1
  Co  Co3  1  0.24290900  0.75709100  0.25000000  1
  Co  Co4  1  0.75709100  0.24290900  0.75000000  1
  Co  Co5  1  0.30057200  0.69942800  0.75000000  1
  P  P0  1  0.29962500  0.17716700  0.27757300  1
  P  P1  1  0.63166100  0.90972100  0.31715100  1
  P  P2  1  0.09027900  0.36833900  0.18284900  1
  P  P3  1  0.15105000  0.74128700  0.51401100  1
  P  P4  1  0.17716700  0.29962500  0.72242700  1
  P  P5  1  0.84895000  0.25871300  0.01401100  1
  P  P6  1  0.90972100  0.63166100  0.68284900  1
  P  P7  1  0.36833900  0.09027900  0.81715100  1
  P  P8  1  0.70037500  0.82283300  0.77757300  1
  P  P9  1  0.25871300  0.84895000  0.98598900  1
  P  P10  1  0.74128700  0.15105000  0.48598900  1
  P  P11  1  0.82283300  0.70037500  0.22242700  1
  O  O0  1  0.79041600  0.83490300  0.30883300  1
  O  O1  1  0.15645400  0.68197500  0.39923100  1
  O  O2  1  0.00903800  0.73149300  0.20967300  1
  O  O3  1  0.83490300  0.79041600  0.69116700  1
  O  O4  1  0.33729000  0.94243100  0.74300000  1
  O  O5  1  0.84179600  0.07316200  0.02354700  1
  O  O6  1  0.26317700  0.25432200  0.38524200  1
  O  O7  1  0.26850700  0.99096200  0.29032700  1
  O  O8  1  0.52665300  0.22526100  0.80046000  1
  O  O9  1  0.84354600  0.31802500  0.89923100  1
  O  O10  1  0.74567800  0.73682300  0.11475800  1
  O  O11  1  0.27697400  0.69230700  0.58749000  1
  O  O12  1  0.03392100  0.35639800  0.05859300  1
  O  O13  1  0.20958400  0.16509700  0.80883300  1
  O  O14  1  0.96607900  0.64360200  0.55859300  1
  O  O15  1  0.64360200  0.96607900  0.44140700  1
  O  O16  1  0.46575000  0.27106200  0.23118100  1
  O  O17  1  0.30769300  0.72302600  0.91251000  1
  O  O18  1  0.94243100  0.33729000  0.25700000  1
  O  O19  1  0.73682300  0.74567800  0.88524200  1
  O  O20  1  0.92683800  0.15820400  0.47645300  1
  O  O21  1  0.16509700  0.20958400  0.19116700  1
  O  O22  1  0.35639800  0.03392100  0.94140700  1
  O  O23  1  0.53425000  0.72893800  0.73118100  1
  O  O24  1  0.07316200  0.84179600  0.97645300  1
  O  O25  1  0.72302600  0.30769300  0.08749000  1
  O  O26  1  0.73149300  0.00903800  0.79032700  1
  O  O27  1  0.31802500  0.84354600  0.10076900  1
  O  O28  1  0.15820400  0.92683800  0.52354700  1
  O  O29  1  0.22526100  0.52665300  0.19954000  1
  O  O30  1  0.72893800  0.53425000  0.26881900  1
  O  O31  1  0.47334700  0.77473900  0.30046000  1
  O  O32  1  0.25432200  0.26317700  0.61475800  1
  O  O33  1  0.05756900  0.66271000  0.75700000  1
  O  O34  1  0.99096200  0.26850700  0.70967300  1
  O  O35  1  0.27106200  0.46575000  0.76881900  1
  O  O36  1  0.66271000  0.05756900  0.24300000  1
  O  O37  1  0.77473900  0.47334700  0.69954000  1
  O  O38  1  0.69230700  0.27697400  0.41251000  1
  O  O39  1  0.68197500  0.15645400  0.60076900  1
loop_
_geom_bond_atom_site_label_1
_geom_bond_atom_site_label_2
_geom_bond_distance
_geom_bond_site_symmetry_2
Co0 O30 1.915260 1_555
Co0 O16 1.915260 1_555
Co0 O36 1.972211 1_555
Co0 O18 1.972211 1_555
Co0 O25 2.023348 1_555
Co0 O38 2.023348 1_555
Co1 O24 1.845892 1_654
Co1 O5 1.845892 1_565
Co1 O10 1.867767 1_555
Co1 O19 1.867767 1_554
Co2 O20 1.845892 1_455
Co2 O28 1.845892 1_545
Co2 O32 1.867767 1_555
Co2 O6 1.867767 1_555
Co3 O2 1.971952 1_555
Co3 O7 1.971952 1_555
Co3 O29 1.991447 1_555
Co3 O31 1.991447 1_555
Co3 O27 2.023896 1_555
Co3 O1 2.023896 1_555
Co4 O26 1.971952 1_555
Co4 O34 1.971952 1_555
Co4 O8 1.991447 1_555
Co4 O37 1.991447 1_555
Co4 O39 2.023896 1_555
Co4 O9 2.023896 1_555
Co5 O23 1.915260 1_555
Co5 O35 1.915260 1_555
Co5 O4 1.972211 1_555
Co5 O33 1.972211 1_555
Co5 O17 2.023348 1_555
Co5 O11 2.023348 1_555
O0 P1 1.611966 1_555
O0 P11 1.626052 1_555
O1 P3 1.511121 1_555
O2 P11 1.515316 1_455
O3 P6 1.611966 1_555
O3 P8 1.626052 1_555
O4 P7 1.505535 1_565
O5 P5 1.539347 1_555
O6 P0 1.546966 1_555
O7 P0 1.515316 1_565
O8 P7 1.506815 1_555
O9 P5 1.511121 1_556
O10 P11 1.546966 1_555
O11 P3 1.526793 1_555
O12 P2 1.605870 1_555
O12 P5 1.639588 1_455
O13 P7 1.611966 1_555
O13 P4 1.626052 1_555
O14 P6 1.605870 1_555
O14 P3 1.639588 1_655
O15 P1 1.605870 1_555
O15 P10 1.639588 1_565
O16 P0 1.514230 1_555
O17 P9 1.526793 1_555
O18 P2 1.505535 1_655
O19 P8 1.546966 1_555
O20 P10 1.539347 1_555
O21 P2 1.611966 1_555
O21 P0 1.626052 1_555
O22 P7 1.605870 1_555
O22 P9 1.639588 1_545
O23 P8 1.514230 1_555
O24 P9 1.539347 1_555
O25 P5 1.526793 1_555
O26 P8 1.515316 1_545
O27 P9 1.511121 1_554
O28 P3 1.539347 1_555
O29 P2 1.506815 1_555
O30 P11 1.514230 1_555
O31 P1 1.506815 1_555
O32 P4 1.546966 1_555
O33 P6 1.505535 1_455
O34 P4 1.515316 1_655
O35 P4 1.514230 1_555
O36 P1 1.505535 1_545
O37 P6 1.506815 1_555
O38 P10 1.526793 1_555
O39 P10 1.511121 1_555
