# generated using pymatgen
data_Na6Ta4Si9Sn4(SO16)3
_symmetry_space_group_name_H-M   'P 1'
_cell_length_a   17.87201980
_cell_length_b   8.92820905
_cell_length_c   22.80165823
_cell_angle_alpha   89.89360677
_cell_angle_beta   89.73989445
_cell_angle_gamma   119.90478954
_symmetry_Int_Tables_number   1
_chemical_formula_structural   Na6Ta4Si9Sn4(SO16)3
_chemical_formula_sum   'Na18 Ta12 Si27 Sn12 S9 O144'
_cell_volume   3153.85363597
_cell_formula_units_Z   3
loop_
 _symmetry_equiv_pos_site_id
 _symmetry_equiv_pos_as_xyz
  1  'x, y, z'
loop_
 _atom_site_type_symbol
 _atom_site_label
 _atom_site_symmetry_multiplicity
 _atom_site_fract_x
 _atom_site_fract_y
 _atom_site_fract_z
 _atom_site_occupancy
  Na  Na0  1  0.00350565  0.64771354  0.24314075  1
  Na  Na1  1  0.50074971  0.62419024  0.24699899  1
  Na  Na2  1  0.00025802  0.37765377  0.74734358  1
  Na  Na3  1  0.50333924  0.36421943  0.74505713  1
  Na  Na4  1  0.33295285  0.97040014  0.58935921  1
  Na  Na5  1  0.83083614  0.69281786  0.08163770  1
  Na  Na6  1  0.99745064  0.01268294  0.50357283  1
  Na  Na7  1  0.50477932  0.99937868  0.50460895  1
  Na  Na8  1  0.00416502  0.01031916  0.99970046  1
  Na  Na9  1  0.49834079  0.98449519  0.99666752  1
  Na  Na10  1  0.32748838  0.34014319  0.82786160  1
  Na  Na11  1  0.82548839  0.33784480  0.83117233  1
  Na  Na12  1  0.32844513  0.31583150  0.33337437  1
  Na  Na13  1  0.81985720  0.31062419  0.33231427  1
  Na  Na14  1  0.17399316  0.68539543  0.16077496  1
  Na  Na15  1  0.66247449  0.65435488  0.16836675  1
  Na  Na16  1  0.16538542  0.67397725  0.67074996  1
  Na  Na17  1  0.66583605  0.66057024  0.66772558  1
  Ta  Ta0  1  0.00104232  0.00130327  0.35526741  1
  Ta  Ta1  1  0.50421990  0.00945576  0.35603042  1
  Ta  Ta2  1  0.00270642  0.99794748  0.85530078  1
  Ta  Ta3  1  0.49987080  0.98508514  0.85103918  1
  Ta  Ta4  1  0.00552132  0.99650749  0.64058829  1
  Ta  Ta5  1  0.50542801  0.01460007  0.13944803  1
  Ta  Ta6  1  0.33366468  0.34513218  0.98558639  1
  Ta  Ta7  1  0.83192173  0.34133416  0.97344153  1
  Ta  Ta8  1  0.33308905  0.32640115  0.47576966  1
  Ta  Ta9  1  0.83269849  0.32071202  0.48644923  1
  Ta  Ta10  1  0.16842300  0.65176161  0.02274231  1
  Ta  Ta11  1  0.66815681  0.68481593  0.52407049  1
  Si  Si0  1  0.14893566  0.99921629  0.25274920  1
  Si  Si1  1  0.64554343  0.00599162  0.24720465  1
  Si  Si2  1  0.85475800  0.71494700  0.24921775  1
  Si  Si3  1  0.49920249  0.28830242  0.24998304  1
  Si  Si4  1  0.14424962  0.28405774  0.74741000  1
  Si  Si5  1  0.64863841  0.29525571  0.75272739  1
  Si  Si6  1  0.99887027  0.70883386  0.75038681  1
  Si  Si7  1  0.50152215  0.70874691  0.74673673  1
  Si  Si8  1  0.35450211  0.99202200  0.74936700  1
  Si  Si9  1  0.47857160  0.33419269  0.58365733  1
  Si  Si10  1  0.98000446  0.33660387  0.58863231  1
  Si  Si11  1  0.19232881  0.04539106  0.58200630  1
  Si  Si12  1  0.68593460  0.04679610  0.58857019  1
  Si  Si13  1  0.83288065  0.62392531  0.58089550  1
  Si  Si14  1  0.48016374  0.62330342  0.08841903  1
  Si  Si15  1  0.97765467  0.61466881  0.08355555  1
  Si  Si16  1  0.33167392  0.04040618  0.08124469  1
  Si  Si17  1  0.18740832  0.32699789  0.08844179  1
  Si  Si18  1  0.68967163  0.34046762  0.07998670  1
  Si  Si19  1  0.31182260  0.66610625  0.91529358  1
  Si  Si20  1  0.81110003  0.67499584  0.91762867  1
  Si  Si21  1  0.02397826  0.37923058  0.91476742  1
  Si  Si22  1  0.66564469  0.95691298  0.91653265  1
  Si  Si23  1  0.31409185  0.95565675  0.41914384  1
  Si  Si24  1  0.80984947  0.95830801  0.41484628  1
  Si  Si25  1  0.16709235  0.37928447  0.41597604  1
  Si  Si26  1  0.52410720  0.66769315  0.41463386  1
  Sn  Sn0  1  0.50744650  0.01629656  0.65005373  1
  Sn  Sn1  1  0.00547225  0.98587283  0.14637147  1
  Sn  Sn2  1  0.33457304  0.32384731  0.69022727  1
  Sn  Sn3  1  0.82931882  0.34602324  0.68614185  1
  Sn  Sn4  1  0.33045781  0.31209455  0.18568832  1
  Sn  Sn5  1  0.82873127  0.34557366  0.18618166  1
  Sn  Sn6  1  0.66264428  0.66956631  0.01820250  1
  Sn  Sn7  1  0.16547519  0.65856415  0.52076828  1
  Sn  Sn8  1  0.17618224  0.67951309  0.31763637  1
  Sn  Sn9  1  0.66711127  0.67622539  0.30988140  1
  Sn  Sn10  1  0.16768830  0.65739905  0.80994211  1
  Sn  Sn11  1  0.66885857  0.67374115  0.81452871  1
  S  S0  1  0.35728728  0.71731063  0.25004375  1
  S  S1  1  0.00122523  0.28956056  0.25051664  1
  S  S2  1  0.85828025  0.99822404  0.74977561  1
  S  S3  1  0.33367279  0.61906414  0.58310587  1
  S  S4  1  0.83460805  0.04852978  0.08450037  1
  S  S5  1  0.51581183  0.36713158  0.91680029  1
  S  S6  1  0.16890520  0.95839724  0.91744695  1
  S  S7  1  0.66934104  0.37999750  0.41686446  1
  S  S8  1  0.01727851  0.66343986  0.41544484  1
  O  O0  1  0.09609497  0.01663436  0.30929412  1
  O  O1  1  0.59612377  0.02650439  0.30576092  1
  O  O2  1  0.40810322  0.80347545  0.30397121  1
  O  O3  1  0.92050437  0.82136077  0.30368188  1
  O  O4  1  0.48835178  0.16790474  0.30805272  1
  O  O5  1  0.99269200  0.18470262  0.30371255  1
  O  O6  1  0.09307658  0.16522863  0.80595806  1
  O  O7  1  0.59596133  0.17086825  0.80903393  1
  O  O8  1  0.48966687  0.80144603  0.80631511  1
  O  O9  1  0.98798564  0.80787191  0.80832857  1
  O  O10  1  0.41860914  0.01791279  0.80471266  1
  O  O11  1  0.91030565  0.01598604  0.80355446  1
  O  O12  1  0.39334647  0.96506948  0.68723775  1
  O  O13  1  0.89981813  0.97995134  0.69644821  1
  O  O14  1  0.08058935  0.18400588  0.69167313  1
  O  O15  1  0.58799806  0.22827370  0.69420972  1
  O  O16  1  0.00520313  0.82557872  0.69257576  1
  O  O17  1  0.51895629  0.82767756  0.68937369  1
  O  O18  1  0.39754780  0.81812494  0.19691250  1
  O  O19  1  0.89470968  0.82550312  0.18802957  1
  O  O20  1  0.01444413  0.21267484  0.19697865  1
  O  O21  1  0.50544901  0.18458692  0.19244273  1
  O  O22  1  0.08618694  0.94647844  0.19527195  1
  O  O23  1  0.58307434  0.98202461  0.19145926  1
  O  O24  1  0.44405632  0.37340021  0.64474518  1
  O  O25  1  0.93762508  0.36409042  0.64772913  1
  O  O26  1  0.25344165  0.12512915  0.63875813  1
  O  O27  1  0.74691131  0.12607781  0.64445675  1
  O  O28  1  0.32227632  0.51906527  0.63679911  1
  O  O29  1  0.81023698  0.51099311  0.63997340  1
  O  O30  1  0.43813147  0.51177075  0.14818307  1
  O  O31  1  0.94311955  0.50991205  0.14679399  1
  O  O32  1  0.30815032  0.10512911  0.14107820  1
  O  O33  1  0.82337996  0.12728875  0.13906737  1
  O  O34  1  0.24565916  0.36537578  0.14594355  1
  O  O35  1  0.74925202  0.38868092  0.13873215  1
  O  O36  1  0.23517558  0.30308281  0.02968886  1
  O  O37  1  0.73573997  0.30590065  0.02463917  1
  O  O38  1  0.41747190  0.52594974  0.03067103  1
  O  O39  1  0.91064827  0.51023472  0.03086250  1
  O  O40  1  0.34759106  0.16761104  0.02487285  1
  O  O41  1  0.84266313  0.14824077  0.03161004  1
  O  O42  1  0.23516863  0.16631982  0.52416311  1
  O  O43  1  0.73612917  0.16517770  0.52884068  1
  O  O44  1  0.33983104  0.53350147  0.52965067  1
  O  O45  1  0.84815754  0.52813578  0.52355918  1
  O  O46  1  0.41244706  0.30984979  0.52943642  1
  O  O47  1  0.91789983  0.30932078  0.52996884  1
  O  O48  1  0.26347530  0.68921526  0.97320596  1
  O  O49  1  0.77339190  0.70654063  0.97887023  1
  O  O50  1  0.08610488  0.47715059  0.97085601  1
  O  O51  1  0.57003026  0.44739614  0.96922264  1
  O  O52  1  0.15420914  0.85116514  0.96949279  1
  O  O53  1  0.64324219  0.83680262  0.97497466  1
  O  O54  1  0.27277974  0.83852344  0.47750163  1
  O  O55  1  0.76509100  0.83830809  0.47241803  1
  O  O56  1  0.14222400  0.45625355  0.47215813  1
  O  O57  1  0.65476860  0.45686434  0.46858011  1
  O  O58  1  0.07122054  0.69332306  0.46698403  1
  O  O59  1  0.58754592  0.69715944  0.46984638  1
  O  O60  1  0.05496890  0.63803331  0.36054303  1
  O  O61  1  0.55775324  0.62399529  0.35399318  1
  O  O62  1  0.25535232  0.88598873  0.36068492  1
  O  O63  1  0.75235467  0.88042138  0.35666164  1
  O  O64  1  0.18243640  0.49044277  0.35534886  1
  O  O65  1  0.68235789  0.47823221  0.36221917  1
  O  O66  1  0.05822337  0.49214292  0.85478472  1
  O  O67  1  0.55320382  0.47196181  0.86283426  1
  O  O68  1  0.18190290  0.88572873  0.86317880  1
  O  O69  1  0.68573907  0.87832920  0.85849914  1
  O  O70  1  0.25170956  0.62438458  0.85837057  1
  O  O71  1  0.75087904  0.63381263  0.86117038  1
  O  O72  1  0.00796297  0.82132367  0.41001530  1
  O  O73  1  0.51496461  0.84207920  0.40641045  1
  O  O74  1  0.41024349  0.97792404  0.40874167  1
  O  O75  1  0.90747199  0.98065037  0.40623824  1
  O  O76  1  0.08209161  0.18453944  0.40605627  1
  O  O77  1  0.58999428  0.20098678  0.41137700  1
  O  O78  1  0.01459734  0.18670346  0.90798535  1
  O  O79  1  0.50591159  0.19394989  0.91157215  1
  O  O80  1  0.08916785  0.97760957  0.91214313  1
  O  O81  1  0.58232128  0.98522136  0.90935169  1
  O  O82  1  0.40730069  0.83897386  0.91025541  1
  O  O83  1  0.90861249  0.84239338  0.90862201  1
  O  O84  1  0.47901709  0.15032977  0.58517137  1
  O  O85  1  0.98568624  0.15939377  0.59160590  1
  O  O86  1  0.09564133  0.02330995  0.58873495  1
  O  O87  1  0.59132323  0.02746492  0.58664176  1
  O  O88  1  0.41090443  0.79417771  0.58436617  1
  O  O89  1  0.91862577  0.81496113  0.58819809  1
  O  O90  1  0.48567859  0.81175429  0.09270434  1
  O  O91  1  0.97756254  0.80037135  0.08445647  1
  O  O92  1  0.41741384  0.02084546  0.08960929  1
  O  O93  1  0.91341655  0.03084864  0.08794535  1
  O  O94  1  0.08957437  0.16021647  0.08976489  1
  O  O95  1  0.59442683  0.16810919  0.08745678  1
  O  O96  1  0.35438688  0.17561267  0.74984363  1
  O  O97  1  0.85346985  0.15871708  0.74871983  1
  O  O98  1  0.23828603  0.30215834  0.74425370  1
  O  O99  1  0.74057757  0.30009604  0.74986354  1
  O  O100  1  0.41539731  0.51795966  0.74604034  1
  O  O101  1  0.91523907  0.51307693  0.74824628  1
  O  O102  1  0.35136179  0.54615042  0.24922331  1
  O  O103  1  0.85746302  0.53183855  0.24899557  1
  O  O104  1  0.41544541  0.31759403  0.24828631  1
  O  O105  1  0.92219877  0.30363197  0.24851359  1
  O  O106  1  0.24100418  0.17411779  0.24994283  1
  O  O107  1  0.74284157  0.17440059  0.24393454  1
  O  O108  1  0.32463108  0.49545203  0.92663308  1
  O  O109  1  0.82482966  0.50442801  0.92371282  1
  O  O110  1  0.42917209  0.35134878  0.92410695  1
  O  O111  1  0.92766490  0.35079224  0.92900838  1
  O  O112  1  0.24425946  0.13567783  0.92415803  1
  O  O113  1  0.75281492  0.14649831  0.92591851  1
  O  O114  1  0.32688064  0.15065279  0.42487410  1
  O  O115  1  0.82512462  0.15646551  0.42469749  1
  O  O116  1  0.25244642  0.36061449  0.42439916  1
  O  O117  1  0.74498201  0.35307818  0.42283646  1
  O  O118  1  0.42729725  0.50661413  0.42838816  1
  O  O119  1  0.93001902  0.51090639  0.42125331  1
  O  O120  1  0.17786175  0.49904919  0.07738475  1
  O  O121  1  0.68113178  0.51296758  0.07388292  1
  O  O122  1  0.07435839  0.64687861  0.07280000  1
  O  O123  1  0.57505175  0.64378004  0.08006775  1
  O  O124  1  0.24789539  0.85072828  0.06993096  1
  O  O125  1  0.75812618  0.87035097  0.08216487  1
  O  O126  1  0.18373877  0.85450475  0.57527642  1
  O  O127  1  0.67735707  0.85604418  0.57717280  1
  O  O128  1  0.25558167  0.64206118  0.58063977  1
  O  O129  1  0.74900114  0.64534637  0.56861480  1
  O  O130  1  0.07447635  0.50729098  0.57964502  1
  O  O131  1  0.57473059  0.49836530  0.56988342  1
  O  O132  1  0.15100385  0.81406421  0.25828527  1
  O  O133  1  0.64649962  0.82483662  0.24984420  1
  O  O134  1  0.26880040  0.69653160  0.25294858  1
  O  O135  1  0.75879140  0.68439577  0.25567285  1
  O  O136  1  0.07708548  0.46767069  0.25628725  1
  O  O137  1  0.58577061  0.47723019  0.25371012  1
  O  O138  1  0.14445415  0.46632566  0.75011627  1
  O  O139  1  0.65629015  0.48580443  0.75929219  1
  O  O140  1  0.08574033  0.69470220  0.75415815  1
  O  O141  1  0.58519095  0.68057574  0.75531721  1
  O  O142  1  0.25863847  0.82686706  0.75535773  1
  O  O143  1  0.77179980  0.84365836  0.75302962  1
loop_
_geom_bond_atom_site_label_1
_geom_bond_atom_site_label_2
_geom_bond_distance
_geom_bond_site_symmetry_2
Na0 O103 2.281328 1_455
Na0 O132 2.319562 1_555
Na0 O31 2.492434 1_455
Na0 O136 2.551981 1_555
Na0 O22 2.556242 1_555
Na0 O105 2.666413 1_455
Na0 O60 2.849618 1_555
Na0 O3 2.965170 1_455
Na1 O133 2.312496 1_555
Na1 O104 2.378299 1_555
Na1 O102 2.399993 1_555
Na1 O137 2.458292 1_555
Na1 O30 2.499574 1_555
Na1 O61 2.648410 1_555
Na2 O138 2.288972 1_555
Na2 O97 2.364300 1_455
Na2 O101 2.367013 1_455
Na2 O140 2.462227 1_555
Na2 O25 2.513117 1_455
Na2 O66 2.663873 1_555
Na3 O96 2.336884 1_555
Na3 O139 2.409677 1_555
Na3 O141 2.461317 1_555
Na3 O24 2.543387 1_555
Na3 O100 2.550643 1_555
Na3 O15 2.631939 1_555
Na3 O67 2.847464 1_555
Na4 O84 2.284728 1_565
Na4 O126 2.354347 1_555
Na4 O12 2.494168 1_555
Na4 O128 2.551063 1_555
Na4 O88 2.571789 1_555
Na4 O26 2.673037 1_565
Na4 O54 2.796707 1_555
Na4 O46 2.957023 1_565
Na5 O91 2.300782 1_555
Na5 O121 2.342990 1_555
Na5 O125 2.500980 1_555
Na5 O49 2.589617 1_554
Na5 O93 2.620961 1_565
Na5 O35 2.686254 1_555
Na5 O19 2.697951 1_555
Na5 O39 2.888416 1_555
Na6 O85 2.463686 1_555
Na6 O89 2.511410 1_545
Na6 O86 2.593239 1_655
Na6 O75 2.677620 1_545
Na6 O76 2.688702 1_655
Na6 O72 2.799114 1_645
Na7 O87 2.365415 1_565
Na7 O84 2.454182 1_565
Na7 O88 2.524605 1_555
Na7 O73 2.698497 1_555
Na7 O77 2.702143 1_565
Na7 O74 2.716974 1_555
Na8 O94 2.517964 1_556
Na8 O91 2.562044 1_446
Na8 O78 2.565065 1_555
Na8 O80 2.606914 1_545
Na8 O83 2.639653 1_445
Na8 O93 2.642129 1_456
Na9 O82 2.479591 1_555
Na9 O81 2.485906 1_555
Na9 O90 2.619154 1_556
Na9 O79 2.648033 1_565
Na9 O92 2.670409 1_566
Na9 O95 2.675766 1_566
Na10 O98 2.404541 1_555
Na10 O100 2.438195 1_555
Na10 O96 2.501931 1_555
Na10 O108 2.660583 1_555
Na10 O112 2.759369 1_555
Na10 O110 2.825662 1_555
Na11 O99 2.317669 1_555
Na11 O101 2.460711 1_555
Na11 O109 2.587176 1_555
Na11 O113 2.649722 1_555
Na11 O97 2.672550 1_555
Na11 O111 2.855178 1_555
Na12 O106 2.392997 1_555
Na12 O104 2.475914 1_555
Na12 O114 2.544688 1_555
Na12 O116 2.613708 1_555
Na12 O102 2.686340 1_555
Na12 O118 2.786398 1_555
Na13 O107 2.408292 1_555
Na13 O115 2.541803 1_555
Na13 O103 2.571509 1_555
Na13 O117 2.584237 1_555
Na13 O105 2.661395 1_555
Na13 O119 2.779507 1_555
Na14 O124 2.496771 1_555
Na14 O120 2.552159 1_555
Na14 O122 2.595651 1_555
Na14 O132 2.627514 1_555
Na14 O134 2.676412 1_555
Na14 O136 2.848566 1_555
Na15 O137 2.443277 1_555
Na15 O133 2.507745 1_555
Na15 O123 2.527031 1_555
Na15 O135 2.563356 1_555
Na15 O121 2.601797 1_555
Na15 O125 2.678228 1_555
Na16 O140 2.432433 1_555
Na16 O142 2.476544 1_555
Na16 O138 2.478286 1_555
Na16 O130 2.607876 1_555
Na16 O126 2.626387 1_555
Na16 O128 2.707668 1_555
Na17 O141 2.515959 1_555
Na17 O139 2.557776 1_555
Na17 O127 2.641189 1_555
Na17 O143 2.645809 1_555
Na17 O131 2.723857 1_555
Na17 O129 2.739861 1_555
O0 Si0 1.647570 1_545
O0 Ta0 1.937757 1_555
O1 Si1 1.657659 1_555
O1 Ta1 1.941084 1_555
O2 S0 1.498539 1_555
O2 Ta1 2.149085 1_565
O3 Si2 1.652289 1_555
O3 Ta0 1.937261 1_665
O4 Si3 1.652520 1_555
O4 Ta1 1.917181 1_555
O5 S1 1.490877 1_655
O5 Ta0 2.079287 1_655
O6 Si4 1.661436 1_555
O6 Ta2 1.917553 1_545
O7 Si5 1.645972 1_555
O7 Ta3 1.938226 1_545
O8 Si7 1.658847 1_555
O8 Ta3 1.863104 1_555
O9 Si6 1.654906 1_555
O9 Ta2 1.913217 1_655
O10 Si8 1.645849 1_545
O10 Ta3 1.936010 1_545
O11 S2 1.502466 1_545
O11 Ta2 2.104131 1_645
O12 Si8 1.644891 1_555
O12 Sn0 2.034518 1_565
O13 S2 1.472945 1_555
O13 Ta4 2.216299 1_655
O14 Si4 1.646670 1_555
O14 Ta4 1.934191 1_545
O15 Si5 1.637797 1_555
O15 Sn0 1.992874 1_555
O16 Si6 1.647051 1_455
O16 Ta4 1.928398 1_555
O17 Si7 1.611403 1_555
O17 Sn0 2.005884 1_565
O18 S0 1.462134 1_555
O18 Ta5 2.259967 1_565
O19 Si2 1.647353 1_555
O19 Sn1 2.005658 1_655
O20 S1 1.476303 1_555
O20 Sn1 2.268089 1_545
O21 Si3 1.642428 1_555
O21 Ta5 1.941583 1_555
O22 Si0 1.638925 1_555
O22 Sn1 1.991713 1_555
O23 Si1 1.638167 1_565
O23 Ta5 1.957766 1_565
O24 Si9 1.628666 1_555
O24 Sn2 2.053426 1_555
O25 Si10 1.620789 1_555
O25 Sn3 2.052479 1_555
O26 Si11 1.617160 1_555
O26 Sn2 2.021275 1_555
O27 Si12 1.599782 1_555
O27 Sn3 2.016074 1_555
O28 S3 1.466236 1_555
O28 Sn2 2.224136 1_555
O29 Si13 1.605664 1_555
O29 Sn3 1.972882 1_555
O30 Si14 1.628706 1_555
O30 Sn4 2.042373 1_555
O31 Si15 1.657171 1_555
O31 Sn5 2.031324 1_555
O32 Si16 1.616154 1_555
O32 Sn4 1.970832 1_555
O33 S4 1.491471 1_555
O33 Sn5 2.187298 1_555
O34 Si17 1.605821 1_555
O34 Sn4 2.018446 1_555
O35 Si18 1.634452 1_555
O35 Sn5 1.973299 1_555
O36 Si17 1.655755 1_555
O36 Ta6 1.890529 1_554
O37 Si18 1.615917 1_555
O37 Ta7 1.963640 1_554
O38 Si14 1.670710 1_555
O38 Ta6 1.874969 1_554
O39 Si15 1.628160 1_555
O39 Ta7 1.968843 1_554
O40 Si16 1.640749 1_555
O40 Ta6 1.940760 1_554
O41 S4 1.460926 1_555
O41 Ta7 2.256534 1_554
O42 Si11 1.628722 1_555
O42 Ta8 1.950781 1_555
O43 Si12 1.677754 1_555
O43 Ta9 1.852419 1_555
O44 S3 1.472210 1_555
O44 Ta8 2.174966 1_555
O45 Si13 1.657981 1_555
O45 Ta9 1.928655 1_555
O46 Si9 1.652422 1_555
O46 Ta8 1.937748 1_555
O47 Si10 1.680961 1_555
O47 Ta9 1.865873 1_555
O48 Si19 1.643565 1_555
O48 Ta10 1.920471 1_556
O49 Si20 1.632672 1_555
O49 Sn6 2.040132 1_556
O50 Si21 1.637650 1_555
O50 Ta10 1.931374 1_556
O51 S5 1.484106 1_555
O51 Sn6 2.161670 1_556
O52 S6 1.461551 1_555
O52 Ta10 2.270244 1_556
O53 Si22 1.627196 1_555
O53 Sn6 1.958336 1_556
O54 Si23 1.620323 1_555
O54 Sn7 2.033988 1_555
O55 Si24 1.625328 1_555
O55 Ta11 1.968399 1_555
O56 Si25 1.616630 1_555
O56 Sn7 1.981670 1_555
O57 S7 1.451816 1_555
O57 Ta11 2.308018 1_555
O58 S8 1.461714 1_555
O58 Sn7 2.230808 1_555
O59 Si26 1.629834 1_555
O59 Ta11 1.946886 1_555
O60 S8 1.489324 1_555
O60 Sn8 2.228615 1_555
O61 Si26 1.629130 1_555
O61 Sn9 2.029935 1_555
O62 Si23 1.621860 1_555
O62 Sn8 1.944823 1_555
O63 Si24 1.613346 1_555
O63 Sn9 2.008726 1_555
O64 Si25 1.640508 1_555
O64 Sn8 1.945533 1_555
O65 S7 1.471645 1_555
O65 Sn9 2.258028 1_555
O66 Si21 1.622818 1_555
O66 Sn10 2.036615 1_555
O67 S5 1.483691 1_555
O67 Sn11 2.233845 1_555
O68 S6 1.468578 1_555
O68 Sn10 2.278034 1_555
O69 Si22 1.619452 1_555
O69 Sn11 1.973011 1_555
O70 Si19 1.610288 1_555
O70 Sn10 2.004079 1_555
O71 Si20 1.603293 1_555
O71 Sn11 1.985125 1_555
O72 S8 1.504533 1_555
O72 Ta0 2.085162 1_565
O73 Si26 1.654941 1_555
O73 Ta1 1.967591 1_565
O74 Si23 1.644456 1_555
O74 Ta1 1.963073 1_565
O75 Si24 1.664948 1_555
O75 Ta0 1.963517 1_665
O76 Si25 1.659194 1_555
O76 Ta0 1.942958 1_555
O77 S7 1.524285 1_555
O77 Ta1 2.068458 1_555
O78 Si21 1.649419 1_555
O78 Ta2 1.995264 1_545
O79 S5 1.471170 1_555
O79 Ta3 2.281305 1_545
O80 S6 1.523185 1_555
O80 Ta2 2.097070 1_555
O81 Si22 1.638789 1_555
O81 Ta3 1.988787 1_555
O82 Si19 1.636625 1_555
O82 Ta3 2.020679 1_555
O83 Si20 1.646669 1_555
O83 Ta2 1.970113 1_655
O84 Si9 1.645849 1_555
O84 Sn0 2.117879 1_555
O85 Si10 1.636469 1_555
O85 Ta4 1.999909 1_645
O86 Si11 1.645049 1_555
O86 Ta4 1.909624 1_545
O87 Si12 1.612625 1_555
O87 Sn0 2.044125 1_555
O88 S3 1.482945 1_555
O88 Sn0 2.403292 1_565
O89 Si13 1.637788 1_555
O89 Ta4 1.995032 1_655
O90 Si14 1.638752 1_555
O90 Ta5 1.978302 1_565
O91 Si15 1.658978 1_555
O91 Sn1 2.043578 1_655
O92 Si16 1.638393 1_555
O92 Ta5 1.967811 1_555
O93 S4 1.495838 1_555
O93 Sn1 2.306392 1_645
O94 Si17 1.636665 1_555
O94 Sn1 1.997534 1_545
O95 Si18 1.636795 1_555
O95 Ta5 1.901818 1_555
O96 Si8 1.640220 1_545
O96 Sn2 2.046901 1_555
O97 S2 1.477817 1_545
O97 Sn3 2.394864 1_555
O98 Si4 1.607428 1_555
O98 Sn2 2.040577 1_555
O99 Si5 1.623036 1_555
O99 Sn3 2.030515 1_555
O100 Si7 1.630022 1_555
O100 Sn2 2.058731 1_555
O101 Si6 1.639282 1_555
O101 Sn3 2.081275 1_555
O102 S0 1.478370 1_555
O102 Sn4 2.417201 1_555
O103 Si2 1.659479 1_555
O103 Sn5 2.060265 1_555
O104 Si3 1.643612 1_555
O104 Sn4 2.071797 1_555
O105 S1 1.479909 1_655
O105 Sn5 2.365154 1_555
O106 Si0 1.608313 1_545
O106 Sn4 2.056271 1_555
O107 Si1 1.637525 1_555
O107 Sn5 2.015198 1_555
O108 Si19 1.669603 1_555
O108 Ta6 1.961008 1_555
O109 Si20 1.664541 1_555
O109 Ta7 1.897716 1_555
O110 S5 1.491726 1_555
O110 Ta6 2.182952 1_555
O111 Si21 1.640628 1_655
O111 Ta7 1.949721 1_555
O112 S6 1.489852 1_545
O112 Ta6 2.250041 1_555
O113 Si22 1.647097 1_545
O113 Ta7 1.941042 1_555
O114 Si23 1.644572 1_545
O114 Ta8 1.911947 1_555
O115 Si24 1.665971 1_545
O115 Ta9 1.990675 1_555
O116 Si25 1.627192 1_555
O116 Ta8 1.998875 1_555
O117 S7 1.493099 1_555
O117 Ta9 2.261808 1_555
O118 Si26 1.634771 1_555
O118 Ta8 1.966380 1_555
O119 S8 1.477833 1_655
O119 Ta9 2.267329 1_555
O120 Si17 1.646995 1_555
O120 Ta10 1.914353 1_555
O121 Si18 1.627390 1_555
O121 Sn6 2.033157 1_555
O122 Si15 1.621771 1_455
O122 Ta10 2.010021 1_555
O123 Si14 1.622762 1_555
O123 Sn6 2.028030 1_555
O124 Si16 1.628837 1_565
O124 Ta10 1.958537 1_555
O125 S4 1.494886 1_565
O125 Sn6 2.287944 1_555
O126 Si11 1.640719 1_565
O126 Sn7 2.038152 1_555
O127 Si12 1.653232 1_565
O127 Ta11 1.894273 1_555
O128 S3 1.509818 1_555
O128 Sn7 2.175901 1_555
O129 Si13 1.628426 1_555
O129 Ta11 1.939864 1_555
O130 Si10 1.626396 1_455
O130 Sn7 2.013602 1_555
O131 Si9 1.637738 1_555
O131 Ta11 1.963790 1_555
O132 Si0 1.676352 1_555
O132 Sn8 2.003884 1_555
O133 Si1 1.626982 1_565
O133 Sn9 2.062860 1_555
O134 S0 1.498738 1_555
O134 Sn8 2.159820 1_555
O135 Si2 1.602738 1_555
O135 Sn9 2.019885 1_555
O136 S1 1.495606 1_555
O136 Sn8 2.315813 1_555
O137 Si3 1.626551 1_555
O137 Sn9 2.088138 1_555
O138 Si4 1.626793 1_555
O138 Sn10 2.061786 1_555
O139 Si5 1.644549 1_555
O139 Sn11 2.021591 1_555
O140 Si6 1.621788 1_455
O140 Sn10 2.091774 1_555
O141 Si7 1.647740 1_555
O141 Sn11 2.042426 1_555
O142 Si8 1.614419 1_555
O142 Sn10 2.000706 1_555
O143 S2 1.473274 1_555
O143 Sn11 2.199609 1_555
