# generated using pymatgen
data_Sr4MgFe2(ClO3)2
_symmetry_space_group_name_H-M   'P 1'
_cell_length_a   3.89132404
_cell_length_b   4.02785452
_cell_length_c   17.11785322
_cell_angle_alpha   83.77758491
_cell_angle_beta   93.76770470
_cell_angle_gamma   89.99103379
_symmetry_Int_Tables_number   1
_chemical_formula_structural   Sr4MgFe2(ClO3)2
_chemical_formula_sum   'Sr4 Mg1 Fe2 Cl2 O6'
_cell_volume   266.13558947
_cell_formula_units_Z   1
loop_
 _symmetry_equiv_pos_site_id
 _symmetry_equiv_pos_as_xyz
  1  'x, y, z'
loop_
 _atom_site_type_symbol
 _atom_site_label
 _atom_site_symmetry_multiplicity
 _atom_site_fract_x
 _atom_site_fract_y
 _atom_site_fract_z
 _atom_site_occupancy
  Sr  Sr0  1  0.15016760  0.50022342  0.41226714  1
  Sr  Sr1  1  0.32814104  0.17005659  0.04836293  1
  Sr  Sr2  1  0.77624796  0.73421419  0.88689492  1
  Sr  Sr3  1  0.72354548  0.82737020  0.68472277  1
  Mg  Mg0  1  0.29107508  0.07806956  0.24923444  1
  Fe  Fe0  1  0.82998643  0.61362062  0.17288862  1
  Fe  Fe1  1  0.25125072  0.28060808  0.79080022  1
  Cl  Cl0  1  0.65063518  0.00096639  0.40922876  1
  Cl  Cl1  1  0.19704200  0.37879040  0.58382030  1
  O  O0  1  0.21146439  0.56699226  0.27288102  1
  O  O1  1  0.28804351  0.24819768  0.91580202  1
  O  O2  1  0.24750872  0.79069242  0.77410297  1
  O  O3  1  0.75218613  0.10272328  0.19613662  1
  O  O4  1  0.74443222  0.29037305  0.76782066  1
  O  O5  1  0.80827555  0.66710385  0.05725963  1
loop_
_geom_bond_atom_site_label_1
_geom_bond_atom_site_label_2
_geom_bond_distance
_geom_bond_site_symmetry_2
Mg0 O3 2.061663 1_555
Mg0 O0 2.080165 1_555
Mg0 O0 2.081700 1_545
Mg0 O3 2.227835 1_455
Fe0 O5 1.963884 1_555
Fe0 O3 2.077657 1_565
Fe0 O3 2.079219 1_555
Fe0 O0 2.182874 1_655
Fe1 O4 1.983738 1_555
Fe1 O4 1.985069 1_455
Fe1 O2 2.024248 1_545
Fe1 O2 2.043333 1_555
Fe1 O1 2.124924 1_555
Cl0 Sr0 2.794985 1_645
Cl0 Sr0 2.799231 1_655
Cl0 Sr0 2.802705 1_545
Cl0 Sr0 2.806066 1_555
Cl0 Mg0 2.977715 1_555
Cl1 Sr0 2.917955 1_555
Cl1 Sr3 3.264671 1_555
Cl1 Sr3 3.276667 1_455
Cl1 Sr3 3.288740 1_545
Cl1 Sr3 3.301392 1_445
O0 Sr0 2.399560 1_555
O1 Sr1 2.251914 1_556
O1 Sr2 2.756970 1_555
O1 Sr2 2.775368 1_455
O1 Sr2 2.912777 1_545
O1 Sr2 2.931034 1_445
O2 Sr3 2.461870 1_455
O2 Sr3 2.473402 1_555
O2 Sr2 2.719452 1_555
O2 Sr2 2.740938 1_455
O3 Sr1 2.915076 1_555
O4 Sr3 2.454816 1_555
O4 Sr3 2.463287 1_545
O4 Sr2 2.850047 1_555
O4 Sr2 2.857461 1_545
O5 Sr1 2.740885 1_565
O5 Sr1 2.748085 1_555
O5 Sr1 2.862590 1_665
O5 Sr1 2.868630 1_655
O5 Sr2 2.893893 1_554
