# generated using pymatgen
data_PuB4
_symmetry_space_group_name_H-M   'P 1'
_cell_length_a   4.04892477
_cell_length_b   7.12777817
_cell_length_c   7.12777713
_cell_angle_alpha   90.15297153
_cell_angle_beta   90.00000000
_cell_angle_gamma   90.00000000
_symmetry_Int_Tables_number   1
_chemical_formula_structural   PuB4
_chemical_formula_sum   'Pu4 B16'
_cell_volume   205.70575724
_cell_formula_units_Z   4
loop_
 _symmetry_equiv_pos_site_id
 _symmetry_equiv_pos_as_xyz
  1  'x, y, z'
loop_
 _atom_site_type_symbol
 _atom_site_label
 _atom_site_symmetry_multiplicity
 _atom_site_fract_x
 _atom_site_fract_y
 _atom_site_fract_z
 _atom_site_occupancy
  Pu  Pu0  1  0.00000000  0.68706226  0.18706226  1
  Pu  Pu1  1  0.00000000  0.81423203  0.68576797  1
  Pu  Pu2  1  0.00000000  0.18576797  0.31423203  1
  Pu  Pu3  1  0.00000000  0.31293774  0.81293774  1
  B  B0  1  0.50000000  0.46185858  0.32351041  1
  B  B1  1  0.50000000  0.53814142  0.67648959  1
  B  B2  1  0.50000000  0.32374212  0.53831336  1
  B  B3  1  0.50000000  0.67625788  0.46168664  1
  B  B4  1  0.20187167  -0.00000000  0.00000000  1
  B  B5  1  0.79812833  0.50000000  0.50000000  1
  B  B6  1  0.79812833  -0.00000000  0.00000000  1
  B  B7  1  0.20187167  0.50000000  0.50000000  1
  B  B8  1  0.50000000  0.08822272  0.58822272  1
  B  B9  1  0.50000000  0.41253258  0.08746742  1
  B  B10  1  0.50000000  0.58746742  0.91253258  1
  B  B11  1  0.50000000  0.91177728  0.41177728  1
  B  B12  1  0.50000000  0.17648959  0.03814142  1
  B  B13  1  0.50000000  0.96168664  0.17625788  1
  B  B14  1  0.50000000  0.03831336  0.82374212  1
  B  B15  1  0.50000000  0.82351041  0.96185858  1
loop_
_geom_bond_atom_site_label_1
_geom_bond_atom_site_label_2
_geom_bond_distance
_geom_bond_site_symmetry_2
B0 B9 1.717886 1_555
B0 B7 1.763996 1_555
B0 B5 1.763996 1_555
B0 B3 1.815857 1_555
B0 B2 1.822467 1_555
B0 Pu0 2.762128 1_655
B0 Pu0 2.762128 1_555
B0 Pu2 2.823970 1_555
B0 Pu2 2.823970 1_655
B1 B10 1.717886 1_555
B1 B7 1.763996 1_555
B1 B5 1.763996 1_555
B1 B2 1.815857 1_555
B1 B3 1.822467 1_555
B1 Pu3 2.762128 1_655
B1 Pu3 2.762128 1_555
B1 Pu1 2.823970 1_555
B1 Pu1 2.823970 1_655
B2 B8 1.716938 1_555
B2 B5 1.764045 1_555
B2 B7 1.764045 1_555
B2 Pu2 2.758312 1_555
B2 Pu2 2.758312 1_655
B2 Pu3 2.817240 1_555
B2 Pu3 2.817240 1_655
B3 B5 1.764045 1_555
B3 B7 1.764045 1_555
B3 Pu1 2.758312 1_655
B3 Pu1 2.758312 1_555
B3 Pu0 2.817240 1_555
B3 Pu0 2.817240 1_655
B4 B6 1.634726 1_455
B4 Pu2 2.724356 1_555
B4 Pu1 2.724356 1_544
B4 Pu0 2.727107 1_545
B4 Pu3 2.727107 1_554
B5 B7 1.634726 1_655
B5 Pu1 2.724357 1_655
B5 Pu2 2.724357 1_655
B5 Pu0 2.727106 1_655
B5 Pu3 2.727106 1_655
B6 Pu1 2.724356 1_644
B6 Pu2 2.724356 1_655
B6 Pu3 2.727107 1_654
B6 Pu0 2.727107 1_645
B7 Pu2 2.724357 1_555
B7 Pu1 2.724357 1_555
B7 Pu3 2.727106 1_555
B7 Pu0 2.727106 1_555
B8 Pu2 2.898811 1_555
B8 Pu2 2.898811 1_655
B8 Pu1 2.898811 1_645
B8 Pu1 2.898811 1_545
B8 Pu3 3.035746 1_655
B8 Pu3 3.035746 1_555
B9 Pu3 2.902411 1_554
B9 Pu3 2.902411 1_654
B9 Pu0 2.902411 1_555
B9 Pu0 2.902411 1_655
B9 Pu2 3.055721 1_555
B9 Pu2 3.055721 1_655
B10 B15 1.717886 1_555
B10 B9 1.765731 1_556
B10 Pu0 2.902411 1_556
B10 Pu0 2.902411 1_656
B10 Pu3 2.902411 1_555
B10 Pu3 2.902411 1_655
B10 Pu1 3.055721 1_555
B10 Pu1 3.055721 1_655
B11 B13 1.716938 1_555
B11 B3 1.716938 1_555
B11 B8 1.776229 1_565
B11 Pu1 2.898811 1_655
B11 Pu1 2.898811 1_555
B11 Pu2 2.898811 1_665
B11 Pu2 2.898811 1_565
B11 Pu0 3.035746 1_555
B11 Pu0 3.035746 1_655
B12 B9 1.717886 1_555
B12 B4 1.763996 1_555
B12 B6 1.763996 1_555
B12 B14 1.815857 1_554
B12 B13 1.822467 1_545
B12 Pu3 2.762128 1_554
B12 Pu3 2.762128 1_654
B12 Pu2 2.823970 1_655
B12 Pu2 2.823970 1_555
B13 B4 1.764045 1_565
B13 B6 1.764045 1_565
B13 B15 1.815857 1_554
B13 Pu2 2.758312 1_565
B13 Pu2 2.758312 1_665
B13 Pu0 2.817240 1_555
B13 Pu0 2.817240 1_655
B14 B8 1.716938 1_555
B14 B4 1.764045 1_556
B14 B6 1.764045 1_556
B14 B15 1.822467 1_545
B14 Pu1 2.758312 1_645
B14 Pu1 2.758312 1_545
B14 Pu3 2.817240 1_555
B14 Pu3 2.817240 1_655
B15 B4 1.763996 1_566
B15 B6 1.763996 1_566
B15 Pu0 2.762128 1_656
B15 Pu0 2.762128 1_556
B15 Pu1 2.823970 1_555
B15 Pu1 2.823970 1_655
