# generated using pymatgen
data_LiSn4Ru
_symmetry_space_group_name_H-M   'P 1'
_cell_length_a   6.67822970
_cell_length_b   6.67822922
_cell_length_c   7.31105542
_cell_angle_alpha   117.17573784
_cell_angle_beta   117.17573562
_cell_angle_gamma   90.00000019
_symmetry_Int_Tables_number   1
_chemical_formula_structural   LiSn4Ru
_chemical_formula_sum   'Li2 Sn8 Ru2'
_cell_volume   248.92400170
_cell_formula_units_Z   2
loop_
 _symmetry_equiv_pos_site_id
 _symmetry_equiv_pos_as_xyz
  1  'x, y, z'
loop_
 _atom_site_type_symbol
 _atom_site_label
 _atom_site_symmetry_multiplicity
 _atom_site_fract_x
 _atom_site_fract_y
 _atom_site_fract_z
 _atom_site_occupancy
  Li  Li0  1  -0.00000000  0.00000000  0.00000000  1
  Li  Li1  1  0.50000000  0.50000000  0.00000000  1
  Sn  Sn0  1  0.52120683  0.70269624  0.72390107  1
  Sn  Sn1  1  0.02120683  0.52120683  0.72390107  1
  Sn  Sn2  1  0.70269624  0.20269624  0.72390107  1
  Sn  Sn3  1  0.29730376  0.79730376  0.27609893  1
  Sn  Sn4  1  0.97879317  0.47879317  0.27609893  1
  Sn  Sn5  1  0.47879317  0.29730376  0.27609893  1
  Sn  Sn6  1  0.79730376  0.97879317  0.27609893  1
  Sn  Sn7  1  0.20269624  0.02120683  0.72390107  1
  Ru  Ru0  1  0.25000000  0.25000000  0.50000000  1
  Ru  Ru1  1  0.75000000  0.75000000  0.50000000  1
loop_
_geom_bond_atom_site_label_1
_geom_bond_atom_site_label_2
_geom_bond_distance
_geom_bond_site_symmetry_2
Li0 Ru1 2.790706 1_444
Li0 Ru0 2.790706 1_555
Li0 Sn5 2.946872 1_555
Li0 Sn0 2.946872 1_444
Li0 Sn4 2.946877 1_455
Li0 Sn1 2.946877 1_544
Li0 Sn3 2.946882 1_545
Li0 Sn2 2.946882 1_454
Li0 Sn7 2.946887 1_554
Li0 Sn6 2.946887 1_445
Li1 Ru1 2.790706 1_555
Li1 Ru0 2.790706 1_554
Li1 Sn7 2.946872 1_554
Li1 Sn6 2.946872 1_555
Li1 Sn1 2.946877 1_554
Li1 Sn4 2.946877 1_555
Li1 Sn2 2.946882 1_554
Li1 Sn3 2.946882 1_555
Li1 Sn0 2.946887 1_554
Li1 Sn5 2.946887 1_555
Ru0 Sn7 2.805533 1_555
Ru0 Sn5 2.805533 1_555
Ru0 Sn1 2.805538 1_555
Ru0 Sn4 2.805538 1_455
Ru0 Sn3 2.805544 1_545
Ru0 Sn2 2.805544 1_555
Ru0 Sn0 2.805549 1_555
Ru0 Sn6 2.805549 1_445
Ru1 Sn6 2.805533 1_555
Ru1 Sn0 2.805533 1_555
Ru1 Sn4 2.805538 1_555
Ru1 Sn1 2.805538 1_655
Ru1 Sn2 2.805544 1_565
Ru1 Sn3 2.805544 1_555
Ru1 Sn5 2.805549 1_555
Ru1 Sn7 2.805549 1_665
