# generated using pymatgen
data_NiP3W2
_symmetry_space_group_name_H-M   'P 1'
_cell_length_a   6.54227226
_cell_length_b   6.54227226
_cell_length_c   8.53993978
_cell_angle_alpha   75.45093922
_cell_angle_beta   75.45093922
_cell_angle_gamma   28.82237098
_symmetry_Int_Tables_number   1
_chemical_formula_structural   NiP3W2
_chemical_formula_sum   'Ni2 P6 W4'
_cell_volume   170.18555050
_cell_formula_units_Z   2
loop_
 _symmetry_equiv_pos_site_id
 _symmetry_equiv_pos_as_xyz
  1  'x, y, z'
loop_
 _atom_site_type_symbol
 _atom_site_label
 _atom_site_symmetry_multiplicity
 _atom_site_fract_x
 _atom_site_fract_y
 _atom_site_fract_z
 _atom_site_occupancy
  Ni  Ni0  1  0.00000000  0.00000000  0.50000000  1
  Ni  Ni1  1  0.50000000  0.50000000  0.00000000  1
  P  P0  1  0.37401700  0.37401700  0.56518100  1
  P  P1  1  0.62598300  0.62598300  0.43481900  1
  P  P2  1  0.68052700  0.68052700  0.84533200  1
  P  P3  1  0.01875500  0.01875500  0.19317700  1
  P  P4  1  0.98124500  0.98124500  0.80682300  1
  P  P5  1  0.31947300  0.31947300  0.15466800  1
  W  W0  1  0.82550600  0.82550600  0.37493600  1
  W  W1  1  0.17449400  0.17449400  0.62506400  1
  W  W2  1  0.67673200  0.67673200  0.13190300  1
  W  W3  1  0.32326800  0.32326800  0.86809700  1
loop_
_geom_bond_atom_site_label_1
_geom_bond_atom_site_label_2
_geom_bond_distance
_geom_bond_site_symmetry_2
Ni0 P0 2.246997 1_455
Ni0 P0 2.246997 1_545
Ni0 P1 2.246997 1_545
Ni0 P1 2.246997 1_455
Ni0 P4 2.568879 1_445
Ni0 P3 2.568879 1_555
Ni0 W1 2.693670 1_555
Ni0 W0 2.693670 1_445
Ni1 P2 2.326174 1_554
Ni1 P5 2.326174 1_555
Ni1 P3 2.373313 1_655
Ni1 P3 2.373313 1_565
Ni1 P4 2.373313 1_454
Ni1 P4 2.373313 1_544
Ni1 W3 2.755691 1_554
Ni1 W2 2.755691 1_555
P0 W1 2.446258 1_555
P0 W0 2.487328 1_545
P0 W0 2.487328 1_455
P0 W3 2.498511 1_555
P1 W0 2.446258 1_555
P1 W1 2.487328 1_565
P1 W1 2.487328 1_655
P1 W2 2.498511 1_555
P2 W2 2.435268 1_556
P2 W3 2.478631 1_565
P2 W3 2.478631 1_655
P2 W1 2.504005 1_655
P2 W1 2.504005 1_565
P3 W2 2.527765 1_545
P3 W2 2.527765 1_455
P3 W0 2.536748 1_445
P4 W3 2.527765 1_655
P4 W3 2.527765 1_565
P4 W1 2.536748 1_665
P5 W3 2.435268 1_554
P5 W2 2.478631 1_455
P5 W2 2.478631 1_545
P5 W0 2.504005 1_545
P5 W0 2.504005 1_455
