# generated using pymatgen
data_MgCo5NiO12
_symmetry_space_group_name_H-M   'P 1'
_cell_length_a   4.94606320
_cell_length_b   4.88727244
_cell_length_c   9.93337917
_cell_angle_alpha   85.98143623
_cell_angle_beta   81.98394659
_cell_angle_gamma   59.53876044
_symmetry_Int_Tables_number   1
_chemical_formula_structural   MgCo5NiO12
_chemical_formula_sum   'Mg1 Co5 Ni1 O12'
_cell_volume   204.95196364
_cell_formula_units_Z   1
loop_
 _symmetry_equiv_pos_site_id
 _symmetry_equiv_pos_as_xyz
  1  'x, y, z'
loop_
 _atom_site_type_symbol
 _atom_site_label
 _atom_site_symmetry_multiplicity
 _atom_site_fract_x
 _atom_site_fract_y
 _atom_site_fract_z
 _atom_site_occupancy
  Mg  Mg0  1  0.40522500  0.00030300  0.75129100  1
  Co  Co0  1  0.15214300  0.66629700  0.50174900  1
  Co  Co1  1  0.67765000  0.66920700  0.00458800  1
  Co  Co2  1  0.34730000  0.33085100  0.00478800  1
  Co  Co3  1  0.81822200  0.33381000  0.50176800  1
  Co  Co4  1  0.48852600  0.99992500  0.48463300  1
  Ni  Ni0  1  0.00976300  0.99999400  0.00460300  1
  O  O0  1  0.98239700  0.66434700  0.09719600  1
  O  O1  1  0.37560900  0.67597100  0.90140600  1
  O  O2  1  0.16849300  0.34174500  0.40454200  1
  O  O3  1  0.51032200  0.65787000  0.40435500  1
  O  O4  1  0.45843800  0.31671000  0.60031300  1
  O  O5  1  0.14012800  0.99989900  0.59980100  1
  O  O6  1  0.77500600  0.68368900  0.60046700  1
  O  O7  1  0.64608700  0.33614300  0.09758200  1
  O  O8  1  0.34618900  0.99962100  0.10411300  1
  O  O9  1  0.05132200  0.32311900  0.90171000  1
  O  O10  1  0.67794600  0.00038300  0.89318200  1
  O  O11  1  0.85812100  0.00011800  0.40580400  1
loop_
_geom_bond_atom_site_label_1
_geom_bond_atom_site_label_2
_geom_bond_distance
_geom_bond_site_symmetry_2
Mg0 O10 2.082534 1_555
Mg0 O5 2.130023 1_545
Mg0 O9 2.141623 1_555
Mg0 O1 2.144933 1_545
Mg0 O6 2.162243 1_545
Mg0 O4 2.164997 1_555
Co0 O11 1.856857 1_465
Co0 O2 1.875552 1_555
Co0 O3 1.878759 1_555
Co0 O5 1.928365 1_555
Co0 O4 1.930703 1_555
Co0 O6 1.946557 1_455
Co1 O8 1.833100 1_555
Co1 O0 1.861747 1_555
Co1 O7 1.879895 1_555
Co1 O10 1.896115 1_564
Co1 O1 1.911966 1_554
Co1 O9 1.966476 1_654
Co2 O8 1.837845 1_545
Co2 O7 1.859104 1_555
Co2 O0 1.876588 1_455
Co2 O10 1.891911 1_554
Co2 O9 1.916369 1_554
Co2 O1 1.968683 1_554
Co3 O11 1.856445 1_555
Co3 O3 1.874724 1_555
Co3 O2 1.879331 1_655
Co3 O5 1.929168 1_645
Co3 O6 1.933076 1_555
Co3 O4 1.945601 1_555
Co4 O2 1.847466 1_565
Co4 O3 1.849945 1_555
Co4 O11 1.886080 1_565
Co4 O6 1.924943 1_555
Co4 O4 1.925508 1_565
Co4 O5 1.930947 1_555
Ni0 O0 1.879926 1_455
Ni0 O7 1.881663 1_465
Ni0 O9 1.903961 1_564
Ni0 O1 1.907271 1_554
Ni0 O8 2.049714 1_555
Ni0 O10 2.102767 1_464
