# generated using pymatgen
data_MgGa4(CuO4)2
_symmetry_space_group_name_H-M   'P 1'
_cell_length_a   6.63673681
_cell_length_b   6.63681630
_cell_length_c   5.91519015
_cell_angle_alpha   63.51758437
_cell_angle_beta   63.51887872
_cell_angle_gamma   52.15239174
_symmetry_Int_Tables_number   1
_chemical_formula_structural   MgGa4(CuO4)2
_chemical_formula_sum   'Mg1 Ga4 Cu2 O8'
_cell_volume   178.59477816
_cell_formula_units_Z   1
loop_
 _symmetry_equiv_pos_site_id
 _symmetry_equiv_pos_as_xyz
  1  'x, y, z'
loop_
 _atom_site_type_symbol
 _atom_site_label
 _atom_site_symmetry_multiplicity
 _atom_site_fract_x
 _atom_site_fract_y
 _atom_site_fract_z
 _atom_site_occupancy
  Mg  Mg0  1  0.03789900  0.03790000  0.46206100  1
  Ga  Ga0  1  0.99969400  0.99969400  0.00026700  1
  Ga  Ga1  1  0.28561900  0.28561900  0.21455000  1
  Ga  Ga2  1  0.06485400  0.54935700  0.69299900  1
  Ga  Ga3  1  0.54935700  0.06485500  0.69301100  1
  Cu  Cu0  1  0.62660100  0.62660600  0.14181800  1
  Cu  Cu1  1  0.62702900  0.62702100  0.60450900  1
  O  O0  1  0.36094300  0.36094100  0.42667600  1
  O  O1  1  0.40913900  0.91909500  0.33596700  1
  O  O2  1  0.36081700  0.36082200  0.85165800  1
  O  O3  1  0.91909400  0.40913900  0.33596500  1
  O  O4  1  0.37428000  0.86545700  0.87984400  1
  O  O5  1  0.89503900  0.89503400  0.38568300  1
  O  O6  1  0.86545800  0.37427800  0.87984100  1
  O  O7  1  0.89500800  0.89501600  0.82431900  1
loop_
_geom_bond_atom_site_label_1
_geom_bond_atom_site_label_2
_geom_bond_distance
_geom_bond_site_symmetry_2
Mg0 O3 1.936530 1_455
Mg0 O1 1.936534 1_545
Mg0 O5 1.967058 1_445
Mg0 O7 1.967064 1_445
Ga0 O6 1.936564 1_564
Ga0 O4 1.936572 1_654
Ga0 O5 1.982423 1_555
Ga0 O7 1.982567 1_554
Ga1 O0 1.870753 1_555
Ga1 O2 1.871028 1_554
Ga1 O1 1.903954 1_545
Ga1 O3 1.903958 1_455
Ga2 O6 1.939112 1_455
Ga2 O2 1.971119 1_555
Ga2 O0 1.971721 1_555
Ga2 O7 2.184475 1_455
Ga2 O5 2.184677 1_455
Ga3 O4 1.939113 1_545
Ga3 O2 1.971142 1_555
Ga3 O0 1.971704 1_555
Ga3 O7 2.184346 1_545
Ga3 O5 2.184792 1_545
Cu0 O3 2.059616 1_555
Cu0 O1 2.059666 1_555
Cu0 O4 2.141120 1_554
Cu0 O6 2.141223 1_554
Cu1 O1 2.057800 1_555
Cu1 O3 2.057830 1_555
Cu1 O6 2.138886 1_555
Cu1 O4 2.138988 1_555
