# generated using pymatgen
data_BeH8(ClO2)2
_symmetry_space_group_name_H-M   'P 1'
_cell_length_a   13.12322400
_cell_length_b   6.66342400
_cell_length_c   7.93286823
_cell_angle_alpha   75.99071395
_cell_angle_beta   90.00000000
_cell_angle_gamma   90.00000000
_symmetry_Int_Tables_number   1
_chemical_formula_structural   BeH8(ClO2)2
_chemical_formula_sum   'Be4 H32 Cl8 O16'
_cell_volume   673.06156954
_cell_formula_units_Z   4
loop_
 _symmetry_equiv_pos_site_id
 _symmetry_equiv_pos_as_xyz
  1  'x, y, z'
loop_
 _atom_site_type_symbol
 _atom_site_label
 _atom_site_symmetry_multiplicity
 _atom_site_fract_x
 _atom_site_fract_y
 _atom_site_fract_z
 _atom_site_occupancy
  Be  Be0  1  0.90765500  0.68628600  0.73639800  1
  Be  Be1  1  0.40765500  0.31371400  0.76360200  1
  Be  Be2  1  0.09234500  0.31371400  0.26360200  1
  Be  Be3  1  0.59234500  0.68628600  0.23639800  1
  H  H0  1  0.68705300  0.97563400  0.23672000  1
  H  H1  1  0.18705300  0.02436600  0.26328000  1
  H  H2  1  0.31294700  0.02436600  0.76328000  1
  H  H3  1  0.81294700  0.97563400  0.73672000  1
  H  H4  1  0.64862700  0.86111900  0.43252700  1
  H  H5  1  0.14862700  0.13888100  0.06747300  1
  H  H6  1  0.35137300  0.13888100  0.56747300  1
  H  H7  1  0.85137300  0.86111900  0.93252700  1
  H  H8  1  0.65763800  0.38755400  0.42216400  1
  H  H9  1  0.15763800  0.61244600  0.07783600  1
  H  H10  1  0.34236200  0.61244600  0.57783600  1
  H  H11  1  0.84236200  0.38755400  0.92216400  1
  H  H12  1  0.53977400  0.35978800  0.36802200  1
  H  H13  1  0.03977400  0.64021200  0.13197800  1
  H  H14  1  0.42041000  0.76094200  0.13798300  1
  H  H15  1  0.46022600  0.64021200  0.63197800  1
  H  H16  1  0.61689100  0.72388300  0.93351800  1
  H  H17  1  0.11689100  0.27611700  0.56648200  1
  H  H18  1  0.38310900  0.27611700  0.06648200  1
  H  H19  1  0.88310900  0.72388300  0.43351800  1
  H  H20  1  0.66292400  0.51128100  0.05026800  1
  H  H21  1  0.16292400  0.48871900  0.44973200  1
  H  H22  1  0.33707600  0.48871900  0.94973200  1
  H  H23  1  0.83707600  0.51128100  0.55026800  1
  H  H24  1  0.46156500  0.91138900  0.25574700  1
  H  H25  1  0.96156500  0.08861100  0.24425300  1
  H  H26  1  0.53843500  0.08861100  0.74425300  1
  H  H27  1  0.03843500  0.91138900  0.75574700  1
  H  H28  1  0.07959000  0.76094200  0.63798300  1
  H  H29  1  0.57959000  0.23905800  0.86201700  1
  H  H30  1  0.92041000  0.23905800  0.36201700  1
  H  H31  1  0.96022600  0.35978800  0.86802200  1
  Cl  Cl0  1  0.07535200  0.17425500  0.82153600  1
  Cl  Cl1  1  0.57535200  0.82574500  0.67846400  1
  Cl  Cl2  1  0.92464800  0.82574500  0.17846400  1
  Cl  Cl3  1  0.42464800  0.17425500  0.32153600  1
  Cl  Cl4  1  0.70705600  0.23601700  0.01856100  1
  Cl  Cl5  1  0.20705600  0.76398300  0.48143900  1
  Cl  Cl6  1  0.29294400  0.76398300  0.98143900  1
  Cl  Cl7  1  0.79294400  0.23601700  0.51856100  1
  O  O0  1  0.02140500  0.78650300  0.71122900  1
  O  O1  1  0.52140500  0.21349700  0.78877100  1
  O  O2  1  0.97859500  0.21349700  0.28877100  1
  O  O3  1  0.47859500  0.78650300  0.21122900  1
  O  O4  1  0.66552500  0.84192500  0.31497000  1
  O  O5  1  0.16552500  0.15807500  0.18503000  1
  O  O6  1  0.33447500  0.15807500  0.68503000  1
  O  O7  1  0.83447500  0.84192500  0.81497000  1
  O  O8  1  0.59339100  0.46308500  0.37901600  1
  O  O9  1  0.09339100  0.53691500  0.12098400  1
  O  O10  1  0.40660900  0.53691500  0.62098400  1
  O  O11  1  0.90660900  0.46308500  0.87901600  1
  O  O12  1  0.63655000  0.65155600  0.05476800  1
  O  O13  1  0.13655000  0.34844400  0.44523200  1
  O  O14  1  0.36345000  0.34844400  0.94523200  1
  O  O15  1  0.86345000  0.65155600  0.55476800  1
loop_
_geom_bond_atom_site_label_1
_geom_bond_atom_site_label_2
_geom_bond_distance
_geom_bond_site_symmetry_2
Be0 O15 1.620976 1_555
Be0 O0 1.627761 1_655
Be0 O11 1.636313 1_555
Be0 O7 1.642959 1_555
Be1 O14 1.620976 1_555
Be1 O1 1.627761 1_555
Be1 O10 1.636313 1_555
Be1 O6 1.642959 1_555
Be2 O13 1.620976 1_555
Be2 O2 1.627761 1_455
Be2 O9 1.636313 1_555
Be2 O5 1.642959 1_555
Be3 O12 1.620976 1_555
Be3 O3 1.627761 1_555
Be3 O8 1.636313 1_555
Be3 O4 1.642959 1_555
H0 O4 0.995582 1_555
H1 O5 0.995582 1_555
H2 O6 0.995582 1_555
H3 O7 0.995582 1_555
H4 O4 0.996472 1_555
H5 O5 0.996472 1_555
H6 O6 0.996472 1_555
H7 O7 0.996472 1_555
H8 O8 0.998962 1_555
H9 O9 0.998962 1_555
H10 O10 0.998962 1_555
H11 O11 0.998962 1_555
H12 O8 1.002764 1_555
H13 O9 1.002764 1_555
H14 O3 0.998795 1_555
H15 O10 1.002764 1_555
H16 O12 0.999783 1_556
H17 O13 0.999783 1_555
H18 O14 0.999783 1_554
H19 O15 0.999783 1_555
H20 O12 1.005440 1_555
H21 O13 1.005440 1_555
H22 O14 1.005440 1_555
H23 O15 1.005440 1_555
H24 O3 1.004717 1_555
H25 O2 1.004717 1_555
H26 O1 1.004717 1_555
H27 O0 1.004717 1_555
H28 O0 0.998795 1_555
H29 O1 0.998795 1_555
H30 O2 0.998795 1_555
H31 O11 1.002764 1_555
Cl0 H27 2.004429 1_545
Cl0 H31 2.041497 1_455
Cl0 H17 2.046153 1_555
Cl0 H5 2.136338 1_556
Cl1 H26 2.004429 1_565
Cl1 H15 2.041497 1_555
Cl1 H16 2.046153 1_555
Cl1 H4 2.136338 1_555
Cl2 H25 2.004429 1_565
Cl2 H13 2.041497 1_655
Cl2 H19 2.046153 1_555
Cl2 H7 2.136338 1_554
Cl3 H24 2.004429 1_545
Cl3 H12 2.041497 1_555
Cl3 H18 2.046153 1_555
Cl3 H6 2.136338 1_555
Cl4 H20 1.996583 1_555
Cl4 H29 2.080515 1_554
Cl4 H11 2.093673 1_554
Cl4 H0 2.149549 1_545
Cl5 H21 1.996583 1_555
Cl5 H28 2.080515 1_555
Cl5 H10 2.093673 1_555
Cl5 H1 2.149549 1_565
Cl6 H22 1.996583 1_555
Cl6 H14 2.080515 1_556
Cl6 H9 2.093673 1_556
Cl6 H2 2.149549 1_565
Cl7 H23 1.996583 1_555
Cl7 H30 2.080515 1_555
Cl7 H8 2.093673 1_555
Cl7 H3 2.149549 1_545
