# generated using pymatgen
data_MgMn3TeO8
_symmetry_space_group_name_H-M   'P 1'
_cell_length_a   10.93096617
_cell_length_b   10.52120018
_cell_length_c   15.05875551
_cell_angle_alpha   19.69219470
_cell_angle_beta   19.46642278
_cell_angle_gamma   33.90168846
_symmetry_Int_Tables_number   1
_chemical_formula_structural   MgMn3TeO8
_chemical_formula_sum   'Mg1 Mn3 Te1 O8'
_cell_volume   166.84357360
_cell_formula_units_Z   1
loop_
 _symmetry_equiv_pos_site_id
 _symmetry_equiv_pos_as_xyz
  1  'x, y, z'
loop_
 _atom_site_type_symbol
 _atom_site_label
 _atom_site_symmetry_multiplicity
 _atom_site_fract_x
 _atom_site_fract_y
 _atom_site_fract_z
 _atom_site_occupancy
  Mg  Mg0  1  0.00008796  0.00003896  0.49991911  1
  Mn  Mn0  1  0.00000695  0.49998835  0.00000585  1
  Mn  Mn1  1  0.49997465  0.99996465  0.00003535  1
  Mn  Mn2  1  0.49996726  0.49996824  0.00005888  1
  Te  Te0  1  0.00001521  0.00000401  0.99998074  1
  O  O0  1  0.03250982  0.00001389  0.25323655  1
  O  O1  1  0.96509194  0.44682482  0.31626578  1
  O  O2  1  0.47578501  0.99998717  0.28095487  1
  O  O3  1  0.96742600  0.99993679  0.74684312  1
  O  O4  1  0.51821937  0.55324501  0.20989236  1
  O  O5  1  0.03493379  0.55322098  0.68368021  1
  O  O6  1  0.52416997  0.00000497  0.71908473  1
  O  O7  1  0.48181307  0.44680616  0.79004246  1
loop_
_geom_bond_atom_site_label_1
_geom_bond_atom_site_label_2
_geom_bond_distance
_geom_bond_site_symmetry_2
Mg0 O7 2.102521 1_554
Mg0 O4 2.102607 1_446
Mg0 O5 2.102756 1_545
Mg0 O1 2.102761 1_455
Mg0 O2 2.361857 1_545
Mg0 O6 2.362397 1_455
Mn0 O2 1.983177 1_554
Mn0 O6 1.983225 1_455
Mn0 O0 2.004662 1_555
Mn0 O3 2.004708 1_454
Mn0 O7 2.255363 1_554
Mn0 O4 2.255565 1_455
Mn1 O5 1.944297 1_555
Mn1 O4 1.944390 1_555
Mn1 O1 1.944539 1_564
Mn1 O7 1.944622 1_564
Mn1 O0 1.977080 1_565
Mn1 O3 1.977110 1_554
Mn2 O6 1.983417 1_564
Mn2 O2 1.983479 1_545
Mn2 O3 2.004551 1_445
Mn2 O0 2.004742 1_664
Mn2 O5 2.255030 1_654
Mn2 O1 2.255216 1_455
O1 Te0 2.183006 1_664
O2 Te0 2.240505 1_664
O4 Te0 2.182877 1_555
O5 Te0 2.183175 1_555
O6 Te0 2.240422 1_555
O7 Te0 2.182828 1_664
