# generated using pymatgen
data_MgTi4O8
_symmetry_space_group_name_H-M   'P 1'
_cell_length_a   4.97490983
_cell_length_b   5.15221055
_cell_length_c   6.39309008
_cell_angle_alpha   91.92406585
_cell_angle_beta   93.98357193
_cell_angle_gamma   102.96309686
_symmetry_Int_Tables_number   1
_chemical_formula_structural   MgTi4O8
_chemical_formula_sum   'Mg1 Ti4 O8'
_cell_volume   159.10051436
_cell_formula_units_Z   1
loop_
 _symmetry_equiv_pos_site_id
 _symmetry_equiv_pos_as_xyz
  1  'x, y, z'
loop_
 _atom_site_type_symbol
 _atom_site_label
 _atom_site_symmetry_multiplicity
 _atom_site_fract_x
 _atom_site_fract_y
 _atom_site_fract_z
 _atom_site_occupancy
  Mg  Mg0  1  0.68230361  0.41416773  0.34479036  1
  Ti  Ti0  1  0.35370938  0.83977266  0.38503003  1
  Ti  Ti1  1  0.07641446  0.25721527  0.06424922  1
  Ti  Ti2  1  0.52737016  0.25297061  0.80956344  1
  Ti  Ti3  1  0.00271350  0.72474255  0.85327987  1
  O  O0  1  0.68779187  0.03021030  0.35800663  1
  O  O1  1  0.17422437  0.92819687  0.14381973  1
  O  O2  1  0.78569384  0.47846726  0.05428869  1
  O  O3  1  0.29240528  0.47089493  0.31871773  1
  O  O4  1  0.74460602  0.52598718  0.64342520  1
  O  O5  1  0.26032153  0.48452721  0.85512360  1
  O  O6  1  0.79901110  0.03007805  0.87322223  1
  O  O7  1  0.26621286  0.96276936  0.65362628  1
loop_
_geom_bond_atom_site_label_1
_geom_bond_atom_site_label_2
_geom_bond_distance
_geom_bond_site_symmetry_2
Mg0 O4 1.958783 1_555
Mg0 O2 1.980179 1_555
Mg0 O0 1.989073 1_555
Mg0 O3 2.021972 1_555
O0 Ti0 1.753438 1_545
O1 Ti0 1.849659 1_555
O1 Ti1 1.939780 1_565
O1 Ti3 2.127142 1_554
O2 Ti3 2.028474 1_654
O2 Ti1 2.031522 1_655
O2 Ti2 2.092344 1_554
O3 Ti0 1.884850 1_555
O3 Ti1 2.029624 1_555
O4 Ti3 1.890992 1_655
O4 Ti2 1.962785 1_555
O5 Ti1 1.946925 1_556
O5 Ti3 1.970996 1_555
O5 Ti2 2.003675 1_555
O6 Ti1 1.926345 1_656
O6 Ti2 1.990456 1_555
O6 Ti3 2.058586 1_645
O7 Ti0 1.922039 1_555
O7 Ti2 1.940574 1_565
O7 Ti3 2.113748 1_555
