# generated using pymatgen
data_Ti5Si3
_symmetry_space_group_name_H-M   'P 1'
_cell_length_a   7.44707532
_cell_length_b   7.44707584
_cell_length_c   5.11502135
_cell_angle_alpha   90.00000000
_cell_angle_beta   90.00000000
_cell_angle_gamma   120.00000221
_symmetry_Int_Tables_number   1
_chemical_formula_structural   Ti5Si3
_chemical_formula_sum   'Ti10 Si6'
_cell_volume   245.66856892
_cell_formula_units_Z   2
loop_
 _symmetry_equiv_pos_site_id
 _symmetry_equiv_pos_as_xyz
  1  'x, y, z'
loop_
 _atom_site_type_symbol
 _atom_site_label
 _atom_site_symmetry_multiplicity
 _atom_site_fract_x
 _atom_site_fract_y
 _atom_site_fract_z
 _atom_site_occupancy
  Ti  Ti0  1  0.33333300  0.66666700  0.00000000  1
  Ti  Ti1  1  0.66666700  0.33333300  0.50000000  1
  Ti  Ti2  1  0.66666700  0.33333300  0.00000000  1
  Ti  Ti3  1  0.33333300  0.66666700  0.50000000  1
  Ti  Ti4  1  0.25032516  0.00000000  0.25000000  1
  Ti  Ti5  1  0.25032516  0.25032516  0.75000000  1
  Ti  Ti6  1  0.00000000  0.74967484  0.75000000  1
  Ti  Ti7  1  -0.00000000  0.25032516  0.25000000  1
  Ti  Ti8  1  0.74967484  0.74967484  0.25000000  1
  Ti  Ti9  1  0.74967484  -0.00000000  0.75000000  1
  Si  Si0  1  0.60784028  0.00000000  0.25000000  1
  Si  Si1  1  0.60784028  0.60784028  0.75000000  1
  Si  Si2  1  0.00000000  0.39215972  0.75000000  1
  Si  Si3  1  -0.00000000  0.60784028  0.25000000  1
  Si  Si4  1  0.39215972  0.39215972  0.25000000  1
  Si  Si5  1  0.39215972  -0.00000000  0.75000000  1
loop_
_geom_bond_atom_site_label_1
_geom_bond_atom_site_label_2
_geom_bond_distance
_geom_bond_site_symmetry_2
Ti0 Ti3 2.557511 1_555
Ti0 Ti3 2.557511 1_554
Ti1 Ti2 2.557511 1_556
Ti1 Ti2 2.557511 1_555
Si0 Ti7 2.561236 1_655
Si0 Ti8 2.561236 1_545
Si0 Ti1 2.627116 1_555
Si0 Ti2 2.627116 1_555
Si0 Ti3 2.627118 1_545
Si0 Ti0 2.627118 1_545
Si0 Ti4 2.662442 1_555
Si0 Ti9 2.767044 1_554
Si0 Ti9 2.767044 1_555
Si1 Ti6 2.561236 1_655
Si1 Ti9 2.561236 1_565
Si1 Ti3 2.627122 1_555
Si1 Ti0 2.627122 1_556
Si1 Ti1 2.627123 1_555
Si1 Ti2 2.627123 1_556
Si1 Ti5 2.662442 1_555
Si1 Ti8 2.767044 1_556
Si1 Ti8 2.767044 1_555
Si2 Ti5 2.561236 1_555
Si2 Ti9 2.561236 1_455
Si2 Ti2 2.627116 1_456
Si2 Ti1 2.627116 1_455
Si2 Ti0 2.627118 1_556
Si2 Ti3 2.627118 1_555
Si2 Ti6 2.662442 1_555
Si2 Ti7 2.767044 1_556
Si2 Ti7 2.767044 1_555
Si3 Ti8 2.561236 1_455
Si3 Ti4 2.561236 1_565
Si3 Ti0 2.627116 1_555
Si3 Ti3 2.627116 1_555
Si3 Ti2 2.627118 1_455
Si3 Ti1 2.627118 1_455
Si3 Ti7 2.662442 1_555
Si3 Ti6 2.767044 1_555
Si3 Ti6 2.767044 1_554
Si4 Ti7 2.561236 1_555
Si4 Ti4 2.561236 1_555
Si4 Ti2 2.627122 1_555
Si4 Ti1 2.627122 1_555
Si4 Ti0 2.627123 1_555
Si4 Ti3 2.627123 1_555
Si4 Ti8 2.662442 1_555
Si4 Ti5 2.767044 1_555
Si4 Ti5 2.767044 1_554
Si5 Ti6 2.561236 1_545
Si5 Ti5 2.561236 1_555
Si5 Ti0 2.627116 1_546
Si5 Ti3 2.627116 1_545
Si5 Ti1 2.627118 1_555
Si5 Ti2 2.627118 1_556
Si5 Ti9 2.662442 1_555
Si5 Ti4 2.767044 1_556
Si5 Ti4 2.767044 1_555
