# generated using pymatgen
data_BaYMgCrCuO5
_symmetry_space_group_name_H-M   'P 1'
_cell_length_a   3.95582818
_cell_length_b   4.02187187
_cell_length_c   10.19210279
_cell_angle_alpha   90.05293191
_cell_angle_beta   103.60627488
_cell_angle_gamma   89.99025347
_symmetry_Int_Tables_number   1
_chemical_formula_structural   BaYMgCrCuO5
_chemical_formula_sum   'Ba1 Y1 Mg1 Cr1 Cu1 O5'
_cell_volume   157.60376564
_cell_formula_units_Z   1
loop_
 _symmetry_equiv_pos_site_id
 _symmetry_equiv_pos_as_xyz
  1  'x, y, z'
loop_
 _atom_site_type_symbol
 _atom_site_label
 _atom_site_symmetry_multiplicity
 _atom_site_fract_x
 _atom_site_fract_y
 _atom_site_fract_z
 _atom_site_occupancy
  Ba  Ba0  1  0.82246864  0.99973748  0.10214695  1
  Y  Y0  1  0.93639449  0.00028756  0.46420666  1
  Mg  Mg0  1  0.16893858  0.49927365  0.84299075  1
  Cr  Cr0  1  0.53095140  0.50057688  0.61985034  1
  Cu  Cu0  1  0.40793669  0.49998623  0.29880597  1
  O  O0  1  0.04653203  0.50040749  0.64671609  1
  O  O1  1  0.50731223  0.00043607  0.57460813  1
  O  O2  1  0.94437802  0.50001335  0.35299826  1
  O  O3  1  0.42436389  0.99989793  0.26594001  1
  O  O4  1  0.71071703  0.49937637  0.91132284  1
loop_
_geom_bond_atom_site_label_1
_geom_bond_atom_site_label_2
_geom_bond_distance
_geom_bond_site_symmetry_2
Ba0 O3 2.550280 1_555
Ba0 O3 2.566295 1_655
Ba0 O4 2.759766 1_554
Ba0 O4 2.760159 1_564
Mg0 O0 1.944366 1_555
Mg0 O4 2.089183 1_455
Mg0 O4 2.091889 1_555
Cr0 O0 1.992982 1_655
Cr0 O0 1.998495 1_555
Cr0 O1 2.060174 1_565
Cr0 O1 2.060479 1_555
Cu0 O2 2.035751 1_455
Cu0 O3 2.042155 1_555
Cu0 O3 2.042223 1_545
Cu0 O2 2.063198 1_555
O0 Y0 2.703308 1_455
O0 Y0 2.705037 1_465
O1 Y0 2.246291 1_555
O1 Y0 2.274000 1_455
O2 Y0 2.312186 1_555
O2 Y0 2.312273 1_565
O3 Y0 2.502069 1_565
