# generated using pymatgen
data_NbCrN
_symmetry_space_group_name_H-M   'P 1'
_cell_length_a   3.02625931
_cell_length_b   3.02625931
_cell_length_c   7.40309144
_cell_angle_alpha   90.00000000
_cell_angle_beta   90.00000000
_cell_angle_gamma   90.00000000
_symmetry_Int_Tables_number   1
_chemical_formula_structural   NbCrN
_chemical_formula_sum   'Nb2 Cr2 N2'
_cell_volume   67.79932821
_cell_formula_units_Z   2
loop_
 _symmetry_equiv_pos_site_id
 _symmetry_equiv_pos_as_xyz
  1  'x, y, z'
loop_
 _atom_site_type_symbol
 _atom_site_label
 _atom_site_symmetry_multiplicity
 _atom_site_fract_x
 _atom_site_fract_y
 _atom_site_fract_z
 _atom_site_occupancy
  Nb  Nb0  1  0.50000000  -0.00000000  0.18051327  1
  Nb  Nb1  1  -0.00000000  0.50000000  0.81948673  1
  Cr  Cr0  1  -0.00000000  0.50000000  0.41540454  1
  Cr  Cr1  1  0.50000000  0.00000000  0.58459546  1
  N  N0  1  0.00000000  0.50000000  0.13842831  1
  N  N1  1  0.50000000  -0.00000000  0.86157169  1
loop_
_geom_bond_atom_site_label_1
_geom_bond_atom_site_label_2
_geom_bond_distance
_geom_bond_site_symmetry_2
Cr0 N0 2.050480 1_555
Cr1 N1 2.050480 1_555
N0 Nb0 2.162450 1_565
N0 Nb0 2.162450 1_465
N0 Nb0 2.162450 1_455
N0 Nb0 2.162450 1_555
N0 Nb1 2.361154 1_554
N1 Nb1 2.162450 1_545
N1 Nb1 2.162450 1_645
N1 Nb1 2.162450 1_555
N1 Nb1 2.162450 1_655
N1 Nb0 2.361154 1_556
