# generated using pymatgen
data_Ba2YMgMn3O8
_symmetry_space_group_name_H-M   'P 1'
_cell_length_a   3.99063200
_cell_length_b   3.99036400
_cell_length_c   13.66898700
_cell_angle_alpha   89.99871254
_cell_angle_beta   90.00026513
_cell_angle_gamma   89.99893751
_symmetry_Int_Tables_number   1
_chemical_formula_structural   Ba2YMgMn3O8
_chemical_formula_sum   'Ba2 Y1 Mg1 Mn3 O8'
_cell_volume   217.66596414
_cell_formula_units_Z   1
loop_
 _symmetry_equiv_pos_site_id
 _symmetry_equiv_pos_as_xyz
  1  'x, y, z'
loop_
 _atom_site_type_symbol
 _atom_site_label
 _atom_site_symmetry_multiplicity
 _atom_site_fract_x
 _atom_site_fract_y
 _atom_site_fract_z
 _atom_site_occupancy
  Ba  Ba0  1  0.50000400  0.49999300  0.14324100  1
  Ba  Ba1  1  0.50000300  0.50000700  0.85676600  1
  Y  Y0  1  0.49998900  0.50000600  0.49999500  1
  Mg  Mg0  1  0.99998700  0.00001100  0.50001600  1
  Mn  Mn0  1  0.99999300  0.99997500  0.31723000  1
  Mn  Mn1  1  0.00001900  0.99999900  0.00001400  1
  Mn  Mn2  1  0.99999200  0.00002100  0.68278000  1
  O  O0  1  0.00000000  0.49997600  0.40427900  1
  O  O1  1  0.50001000  0.99999200  0.40428300  1
  O  O2  1  0.50003700  0.00000100  0.00000400  1
  O  O3  1  0.99999800  0.99999000  0.17375300  1
  O  O4  1  0.99998900  0.50001600  0.59567000  1
  O  O5  1  0.49998600  0.00000900  0.59570500  1
  O  O6  1  0.99999000  0.00000700  0.82625100  1
  O  O7  1  0.00000100  0.49999600  0.00001600  1
loop_
_geom_bond_atom_site_label_1
_geom_bond_atom_site_label_2
_geom_bond_distance
_geom_bond_site_symmetry_2
Ba0 O7 2.795357 1_655
Ba0 O7 2.795362 1_555
Ba0 O2 2.795370 1_565
Ba0 O2 2.795387 1_555
Ba0 O3 2.852322 1_545
Ba0 O3 2.852355 1_455
Ba0 O3 2.852370 1_555
Ba0 O3 2.852410 1_445
Ba1 O2 2.795374 1_556
Ba1 O2 2.795403 1_566
Ba1 O7 2.795587 1_656
Ba1 O7 2.795611 1_556
Ba1 O6 2.852316 1_555
Ba1 O6 2.852355 1_565
Ba1 O6 2.852373 1_465
Ba1 O6 2.852438 1_455
Mg0 O4 2.385392 1_545
Mg0 O4 2.385474 1_555
Mg0 O5 2.385799 1_655
Mg0 O5 2.385816 1_555
Mg0 O0 2.385914 1_655
Mg0 O1 2.386055 1_545
Mg0 O0 2.386196 1_645
Mg0 O1 2.386219 1_645
Mn0 O3 1.961185 1_555
Mn0 O0 2.323020 1_655
Mn0 O0 2.323073 1_665
Mn0 O1 2.323136 1_555
Mn0 O1 2.323243 1_655
Mn1 O7 1.995170 1_565
Mn1 O7 1.995194 1_555
Mn1 O2 1.995244 1_465
Mn1 O2 1.995388 1_565
Mn1 O3 2.374836 1_455
Mn1 O6 2.375164 1_464
Mn2 O6 1.961103 1_555
Mn2 O5 2.323328 1_655
Mn2 O5 2.323360 1_555
Mn2 O4 2.323434 1_555
Mn2 O4 2.323514 1_545
O0 Y0 2.385968 1_555
O0 Y0 2.386051 1_455
O1 Y0 2.385796 1_555
O1 Y0 2.385939 1_565
O4 Y0 2.385697 1_555
O4 Y0 2.385707 1_655
O5 Y0 2.385818 1_555
O5 Y0 2.385887 1_545
