# generated using pymatgen
data_MgFe4(PO4)4
_symmetry_space_group_name_H-M   'P 1'
_cell_length_a   10.35790554
_cell_length_b   7.13920512
_cell_length_c   5.16442458
_cell_angle_alpha   89.68542743
_cell_angle_beta   87.21284230
_cell_angle_gamma   88.75672737
_symmetry_Int_Tables_number   1
_chemical_formula_structural   MgFe4(PO4)4
_chemical_formula_sum   'Mg1 Fe4 P4 O16'
_cell_volume   381.34948240
_cell_formula_units_Z   1
loop_
 _symmetry_equiv_pos_site_id
 _symmetry_equiv_pos_as_xyz
  1  'x, y, z'
loop_
 _atom_site_type_symbol
 _atom_site_label
 _atom_site_symmetry_multiplicity
 _atom_site_fract_x
 _atom_site_fract_y
 _atom_site_fract_z
 _atom_site_occupancy
  Mg  Mg0  1  0.84214100  0.72928100  0.30101200  1
  Fe  Fe0  1  0.83754800  0.23146000  0.32084800  1
  Fe  Fe1  1  0.62966200  0.71543800  0.80973400  1
  Fe  Fe2  1  0.34452300  0.19127300  0.19854700  1
  Fe  Fe3  1  0.16659400  0.70670100  0.68511500  1
  P  P0  1  0.09267300  0.94660400  0.18830200  1
  P  P1  1  0.41149200  0.44127700  0.68950900  1
  P  P2  1  0.60145600  0.98024600  0.31656900  1
  P  P3  1  0.90579300  0.47848800  0.80174600  1
  O  O0  1  0.55343300  0.47528100  0.73374500  1
  O  O1  1  0.86926100  0.48530000  0.10132800  1
  O  O2  1  0.87425500  0.29006200  0.68740700  1
  O  O3  1  0.83006400  0.64437200  0.67090200  1
  O  O4  1  0.05295600  0.51247600  0.76453800  1
  O  O5  1  0.11612300  0.91443300  0.89361700  1
  O  O6  1  0.13501200  0.76551200  0.33340400  1
  O  O7  1  0.16785800  0.11815600  0.27110100  1
  O  O8  1  0.33358200  0.62607200  0.75806600  1
  O  O9  1  0.66449000  0.16146200  0.22128200  1
  O  O10  1  0.38742100  0.39480400  0.40280600  1
  O  O11  1  0.45624500  0.98243000  0.24727500  1
  O  O12  1  0.94423600  0.97346300  0.25388500  1
  O  O13  1  0.61767400  0.94875800  0.60749600  1
  O  O14  1  0.67021400  0.80527000  0.17444900  1
  O  O15  1  0.35779200  0.27616800  0.85481400  1
loop_
_geom_bond_atom_site_label_1
_geom_bond_atom_site_label_2
_geom_bond_distance
_geom_bond_site_symmetry_2
Mg0 O14 1.990019 1_555
Mg0 O3 1.999892 1_555
Mg0 O1 2.036341 1_555
Mg0 O12 2.065625 1_555
Fe0 O9 1.964329 1_555
Fe0 O2 1.997221 1_555
Fe0 O12 2.148217 1_545
Fe0 O1 2.155074 1_555
Fe1 O0 1.952771 1_555
Fe1 O13 1.966071 1_555
Fe1 O14 2.058485 1_556
Fe1 O3 2.212183 1_555
Fe2 O15 1.872318 1_554
Fe2 O10 1.874030 1_555
Fe2 O11 1.890710 1_545
Fe2 O7 1.932346 1_555
Fe3 O8 1.866212 1_555
Fe3 O4 1.869228 1_555
Fe3 O5 1.887150 1_555
Fe3 O6 1.904206 1_555
O0 P1 1.523617 1_555
O1 P3 1.575554 1_554
O2 P3 1.520376 1_555
O3 P3 1.573804 1_555
O4 P3 1.551240 1_455
O5 P0 1.547039 1_556
O6 P0 1.556297 1_555
O7 P0 1.539104 1_545
O8 P1 1.564688 1_555
O9 P2 1.529908 1_545
O10 P1 1.552247 1_555
O11 P2 1.562638 1_555
O12 P0 1.566096 1_655
O13 P2 1.534721 1_555
O14 P2 1.589661 1_555
O15 P1 1.548825 1_555
