# generated using pymatgen
data_Zr2P
_symmetry_space_group_name_H-M   'P 1'
_cell_length_a   17.63674051
_cell_length_b   17.63674051
_cell_length_c   3.63772200
_cell_angle_alpha   90.00000000
_cell_angle_beta   90.00000000
_cell_angle_gamma   114.22060484
_symmetry_Int_Tables_number   1
_chemical_formula_structural   Zr2P
_chemical_formula_sum   'Zr36 P18'
_cell_volume   1031.92460117
_cell_formula_units_Z   18
loop_
 _symmetry_equiv_pos_site_id
 _symmetry_equiv_pos_as_xyz
  1  'x, y, z'
loop_
 _atom_site_type_symbol
 _atom_site_label
 _atom_site_symmetry_multiplicity
 _atom_site_fract_x
 _atom_site_fract_y
 _atom_site_fract_z
 _atom_site_occupancy
  Zr  Zr0  1  0.46178600  0.69931600  0.00000000  1
  Zr  Zr1  1  0.53821400  0.30068400  0.00000000  1
  Zr  Zr2  1  0.25060900  0.25060900  0.50000000  1
  Zr  Zr3  1  0.74939100  0.74939100  0.50000000  1
  Zr  Zr4  1  0.10662200  0.10662200  0.00000000  1
  Zr  Zr5  1  0.89337800  0.89337800  0.00000000  1
  Zr  Zr6  1  0.38422500  0.38422500  0.00000000  1
  Zr  Zr7  1  0.61577500  0.61577500  0.00000000  1
  Zr  Zr8  1  0.94217900  0.05782100  0.50000000  1
  Zr  Zr9  1  0.05782100  0.94217900  0.50000000  1
  Zr  Zr10  1  0.69241400  0.30758600  0.50000000  1
  Zr  Zr11  1  0.30758600  0.69241400  0.50000000  1
  Zr  Zr12  1  0.55220600  0.44779400  0.50000000  1
  Zr  Zr13  1  0.44779400  0.55220600  0.50000000  1
  Zr  Zr14  1  0.77885500  0.22114500  0.00000000  1
  Zr  Zr15  1  0.22114500  0.77885500  0.00000000  1
  Zr  Zr16  1  0.00000000  0.50000000  0.00000000  1
  Zr  Zr17  1  0.50000000  0.00000000  0.00000000  1
  Zr  Zr18  1  0.30068400  0.53821400  0.00000000  1
  Zr  Zr19  1  0.69931600  0.46178600  0.00000000  1
  Zr  Zr20  1  0.78912800  0.03157700  0.00000000  1
  Zr  Zr21  1  0.21087200  0.96842300  0.00000000  1
  Zr  Zr22  1  0.03157700  0.78912800  0.00000000  1
  Zr  Zr23  1  0.96842300  0.21087200  0.00000000  1
  Zr  Zr24  1  0.66941000  0.83471000  0.00000000  1
  Zr  Zr25  1  0.33059000  0.16529000  0.00000000  1
  Zr  Zr26  1  0.83471000  0.66941000  0.00000000  1
  Zr  Zr27  1  0.16529000  0.33059000  0.00000000  1
  Zr  Zr28  1  0.48136200  0.14125400  0.50000000  1
  Zr  Zr29  1  0.51863800  0.85874600  0.50000000  1
  Zr  Zr30  1  0.14125400  0.48136200  0.50000000  1
  Zr  Zr31  1  0.85874600  0.51863800  0.50000000  1
  Zr  Zr32  1  0.65429200  0.08599100  0.50000000  1
  Zr  Zr33  1  0.34570800  0.91400900  0.50000000  1
  Zr  Zr34  1  0.08599100  0.65429200  0.50000000  1
  Zr  Zr35  1  0.91400900  0.34570800  0.50000000  1
  P  P0  1  0.15530000  0.84470000  0.50000000  1
  P  P1  1  0.84470000  0.15530000  0.50000000  1
  P  P2  1  0.60822900  0.17800500  0.00000000  1
  P  P3  1  0.39177100  0.82199500  0.00000000  1
  P  P4  1  0.17800500  0.60822900  0.00000000  1
  P  P5  1  0.82199500  0.39177100  0.00000000  1
  P  P6  1  0.62725100  0.96102200  0.00000000  1
  P  P7  1  0.37274900  0.03897800  0.00000000  1
  P  P8  1  0.96102200  0.62725100  0.00000000  1
  P  P9  1  0.03897800  0.37274900  0.00000000  1
  P  P10  1  0.58059000  0.71842500  0.50000000  1
  P  P11  1  0.41941000  0.28157500  0.50000000  1
  P  P12  1  0.71842500  0.58059000  0.50000000  1
  P  P13  1  0.28157500  0.41941000  0.50000000  1
  P  P14  1  0.79200900  0.91821600  0.50000000  1
  P  P15  1  0.20799100  0.08178400  0.50000000  1
  P  P16  1  0.91821600  0.79200900  0.50000000  1
  P  P17  1  0.08178400  0.20799100  0.50000000  1
loop_
_geom_bond_atom_site_label_1
_geom_bond_atom_site_label_2
_geom_bond_distance
_geom_bond_site_symmetry_2
P0 Zr15 2.666829 1_555
P0 Zr15 2.666829 1_556
P0 Zr22 2.697317 1_556
P0 Zr22 2.697317 1_555
P0 Zr21 2.697317 1_555
P0 Zr21 2.697317 1_556
P0 Zr9 2.887305 1_555
P0 Zr34 3.066501 1_555
P0 Zr33 3.066501 1_555
P1 Zr14 2.666829 1_556
P1 Zr14 2.666829 1_555
P1 Zr20 2.697317 1_555
P1 Zr20 2.697317 1_556
P1 Zr23 2.697317 1_555
P1 Zr23 2.697317 1_556
P1 Zr8 2.887305 1_555
P1 Zr35 3.066501 1_555
P1 Zr32 3.066501 1_555
P2 Zr28 2.746800 1_555
P2 Zr28 2.746800 1_554
P2 Zr32 2.771923 1_555
P2 Zr32 2.771923 1_554
P2 Zr14 2.784971 1_555
P2 Zr10 2.819854 1_554
P2 Zr10 2.819854 1_555
P2 Zr1 2.898003 1_555
P2 Zr17 2.929615 1_555
P3 Zr29 2.746800 1_555
P3 Zr29 2.746800 1_554
P3 Zr33 2.771923 1_555
P3 Zr33 2.771923 1_554
P3 Zr15 2.784971 1_555
P3 Zr11 2.819854 1_555
P3 Zr11 2.819854 1_554
P3 Zr0 2.898003 1_555
P3 Zr17 2.929615 1_565
P4 Zr30 2.746800 1_554
P4 Zr30 2.746800 1_555
P4 Zr34 2.771923 1_554
P4 Zr34 2.771923 1_555
P4 Zr15 2.784971 1_555
P4 Zr11 2.819854 1_555
P4 Zr11 2.819854 1_554
P4 Zr18 2.898003 1_555
P4 Zr16 2.929615 1_555
P5 Zr31 2.746800 1_555
P5 Zr31 2.746800 1_554
P5 Zr35 2.771923 1_555
P5 Zr35 2.771923 1_554
P5 Zr14 2.784971 1_555
P5 Zr10 2.819854 1_554
P5 Zr10 2.819854 1_555
P5 Zr19 2.898003 1_555
P5 Zr16 2.929615 1_655
P6 Zr17 2.602945 1_565
P6 Zr20 2.604692 1_565
P6 Zr24 2.621975 1_555
P6 Zr29 2.719619 1_555
P6 Zr29 2.719619 1_554
P6 Zr32 2.744277 1_565
P6 Zr32 2.744277 1_564
P7 Zr17 2.602945 1_555
P7 Zr21 2.604692 1_545
P7 Zr25 2.621975 1_555
P7 Zr28 2.719619 1_555
P7 Zr28 2.719619 1_554
P7 Zr33 2.744277 1_545
P7 Zr33 2.744277 1_544
P8 Zr16 2.602945 1_655
P8 Zr22 2.604692 1_655
P8 Zr26 2.621975 1_555
P8 Zr31 2.719619 1_555
P8 Zr31 2.719619 1_554
P8 Zr34 2.744277 1_655
P8 Zr34 2.744277 1_654
P9 Zr16 2.602945 1_555
P9 Zr23 2.604692 1_455
P9 Zr27 2.621975 1_555
P9 Zr30 2.719619 1_554
P9 Zr30 2.719619 1_555
P9 Zr35 2.744277 1_455
P9 Zr35 2.744277 1_454
P10 Zr0 2.689382 1_555
P10 Zr0 2.689382 1_556
P10 Zr24 2.707817 1_556
P10 Zr24 2.707817 1_555
P10 Zr3 2.797736 1_555
P10 Zr7 2.809398 1_555
P10 Zr7 2.809398 1_556
P10 Zr13 2.906180 1_555
P10 Zr29 3.088233 1_555
P11 Zr1 2.689382 1_555
P11 Zr1 2.689382 1_556
P11 Zr25 2.707817 1_555
P11 Zr25 2.707817 1_556
P11 Zr2 2.797736 1_555
P11 Zr6 2.809398 1_556
P11 Zr6 2.809398 1_555
P11 Zr12 2.906180 1_555
P11 Zr28 3.088233 1_555
P12 Zr19 2.689382 1_555
P12 Zr19 2.689382 1_556
P12 Zr26 2.707817 1_556
P12 Zr26 2.707817 1_555
P12 Zr3 2.797736 1_555
P12 Zr7 2.809398 1_555
P12 Zr7 2.809398 1_556
P12 Zr12 2.906180 1_555
P12 Zr31 3.088233 1_555
P13 Zr18 2.689382 1_556
P13 Zr18 2.689382 1_555
P13 Zr27 2.707817 1_555
P13 Zr27 2.707817 1_556
P13 Zr2 2.797736 1_555
P13 Zr6 2.809398 1_556
P13 Zr6 2.809398 1_555
P13 Zr13 2.906180 1_555
P13 Zr30 3.088233 1_555
P14 Zr5 2.709067 1_556
P14 Zr5 2.709067 1_555
P14 Zr20 2.718725 1_566
P14 Zr20 2.718725 1_565
P14 Zr24 2.745859 1_556
P14 Zr24 2.745859 1_555
P14 Zr3 2.755775 1_555
P14 Zr8 2.779630 1_565
P15 Zr4 2.709067 1_555
P15 Zr4 2.709067 1_556
P15 Zr21 2.718725 1_545
P15 Zr21 2.718725 1_546
P15 Zr25 2.745859 1_555
P15 Zr25 2.745859 1_556
P15 Zr2 2.755775 1_555
P15 Zr9 2.779630 1_545
P16 Zr5 2.709067 1_556
P16 Zr5 2.709067 1_555
P16 Zr22 2.718725 1_655
P16 Zr22 2.718725 1_656
P16 Zr26 2.745859 1_556
P16 Zr26 2.745859 1_555
P16 Zr3 2.755775 1_555
P16 Zr9 2.779630 1_655
P17 Zr4 2.709067 1_556
P17 Zr4 2.709067 1_555
P17 Zr23 2.718725 1_456
P17 Zr23 2.718725 1_455
P17 Zr27 2.745859 1_555
P17 Zr27 2.745859 1_556
P17 Zr2 2.755775 1_555
P17 Zr8 2.779630 1_455
