# generated using pymatgen
data_Na7MgCu3O8
_symmetry_space_group_name_H-M   'P 1'
_cell_length_a   5.78718867
_cell_length_b   6.71945393
_cell_length_c   7.74380347
_cell_angle_alpha   107.89793270
_cell_angle_beta   114.14310426
_cell_angle_gamma   87.81638699
_symmetry_Int_Tables_number   1
_chemical_formula_structural   Na7MgCu3O8
_chemical_formula_sum   'Na7 Mg1 Cu3 O8'
_cell_volume   260.15814865
_cell_formula_units_Z   1
loop_
 _symmetry_equiv_pos_site_id
 _symmetry_equiv_pos_as_xyz
  1  'x, y, z'
loop_
 _atom_site_type_symbol
 _atom_site_label
 _atom_site_symmetry_multiplicity
 _atom_site_fract_x
 _atom_site_fract_y
 _atom_site_fract_z
 _atom_site_occupancy
  Na  Na0  1  0.29485000  0.39525000  0.38363700  1
  Na  Na1  1  0.55593500  0.15722400  0.70086500  1
  Na  Na2  1  0.76571700  0.60128100  0.05668900  1
  Na  Na3  1  0.95492700  0.96154100  0.48389200  1
  Na  Na4  1  0.24709700  0.39516800  0.94728200  1
  Na  Na5  1  0.35888500  0.78641100  0.30136600  1
  Na  Na6  1  0.72657100  0.61271000  0.64199400  1
  Mg  Mg0  1  0.46220700  0.97972200  0.08947700  1
  Cu  Cu0  1  0.76710700  0.28279100  0.25232500  1
  Cu  Cu1  1  0.99281000  0.01066400  0.99624500  1
  Cu  Cu2  1  0.26582300  0.73731700  0.75124100  1
  O  O0  1  0.64245200  0.54622400  0.29698000  1
  O  O1  1  0.57250800  0.13991300  0.37412900  1
  O  O2  1  0.92607200  0.29662600  0.06475900  1
  O  O3  1  0.83108900  0.97086100  0.15303800  1
  O  O4  1  0.17896100  0.02971500  0.83989600  1
  O  O5  1  0.15173100  0.73884700  0.96120900  1
  O  O6  1  0.36035600  0.80117800  0.57630200  1
  O  O7  1  0.40918800  0.48364000  0.73581800  1
loop_
_geom_bond_atom_site_label_1
_geom_bond_atom_site_label_2
_geom_bond_distance
_geom_bond_site_symmetry_2
Na0 O1 2.310882 1_555
Na0 O7 2.405508 1_555
Na0 O2 2.425370 1_455
Na0 O6 2.631419 1_555
Na0 O0 2.684093 1_555
Na1 O7 2.299221 1_555
Na1 O6 2.414557 1_545
Na1 O1 2.537972 1_555
Na1 O2 2.645607 1_556
Na2 O2 2.223106 1_555
Na2 O3 2.359829 1_555
Na2 O0 2.374295 1_555
Na2 O7 2.404004 1_554
Na2 O5 2.884479 1_654
Na3 O3 2.382203 1_555
Na3 O4 2.415793 1_665
Na3 O1 2.437660 1_565
Na3 O6 2.467002 1_655
Na3 O0 2.985608 1_555
Na4 O4 2.329723 1_555
Na4 O5 2.334039 1_555
Na4 O7 2.410870 1_555
Na4 O2 2.562054 1_456
Na4 O0 2.649054 1_556
Na5 O6 2.097180 1_555
Na5 O0 2.260320 1_555
Na5 O5 2.325165 1_554
Na5 O1 2.513842 1_565
Na6 O6 2.379857 1_555
Na6 O0 2.406999 1_555
Na6 O7 2.500818 1_555
Na6 O5 2.603567 1_655
Mg0 O1 1.966712 1_565
Mg0 O3 1.987942 1_555
Mg0 O4 2.073803 1_564
Mg0 O5 2.146683 1_554
Cu0 O0 1.871863 1_555
Cu0 O2 2.036476 1_555
Cu0 O3 2.074774 1_545
Cu0 O1 2.141872 1_555
Cu1 O3 1.889426 1_546
Cu1 O2 1.899294 1_556
Cu1 O4 1.953349 1_655
Cu1 O5 2.006730 1_645
Cu2 O6 1.816613 1_555
Cu2 O7 1.859127 1_555
Cu2 O5 1.986758 1_555
Cu2 O4 1.990541 1_565
