# generated using pymatgen
data_LaMgCrMoO6
_symmetry_space_group_name_H-M   'P 1'
_cell_length_a   5.42834092
_cell_length_b   5.61632322
_cell_length_c   5.56043457
_cell_angle_alpha   59.14144613
_cell_angle_beta   119.01071116
_cell_angle_gamma   90.26397417
_symmetry_Int_Tables_number   1
_chemical_formula_structural   LaMgCrMoO6
_chemical_formula_sum   'La1 Mg1 Cr1 Mo1 O6'
_cell_volume   120.34736242
_cell_formula_units_Z   1
loop_
 _symmetry_equiv_pos_site_id
 _symmetry_equiv_pos_as_xyz
  1  'x, y, z'
loop_
 _atom_site_type_symbol
 _atom_site_label
 _atom_site_symmetry_multiplicity
 _atom_site_fract_x
 _atom_site_fract_y
 _atom_site_fract_z
 _atom_site_occupancy
  La  La0  1  0.76122500  0.26128900  0.49756500  1
  Mg  Mg0  1  0.21602900  0.77040900  0.50497100  1
  Cr  Cr0  1  0.99836300  0.50948200  0.99685500  1
  Mo  Mo0  1  0.49920900  0.00910000  0.00180800  1
  O  O0  1  0.34458500  0.25443500  0.48954600  1
  O  O1  1  0.22207200  0.35857600  0.87027200  1
  O  O2  1  0.82345000  0.69154300  0.13362900  1
  O  O3  1  0.18616100  0.82280900  0.86487700  1
  O  O4  1  0.85044600  0.16507700  0.13346300  1
  O  O5  1  0.60869300  0.76059700  0.50742700  1
loop_
_geom_bond_atom_site_label_1
_geom_bond_atom_site_label_2
_geom_bond_distance
_geom_bond_site_symmetry_2
La0 O0 2.240923 1_555
La0 O2 2.384854 1_555
La0 O3 2.424854 1_645
La0 O4 2.588660 1_555
La0 O1 2.640461 1_655
La0 O1 3.031252 1_554
Mg0 O4 2.117982 1_465
Mg0 O5 2.125712 1_555
Mg0 O1 2.143208 1_555
Mg0 O3 2.244362 1_555
Mg0 O2 2.379620 1_455
Cr0 O2 2.008120 1_556
Cr0 O4 2.008285 1_556
Cr0 O3 2.014652 1_655
Cr0 O0 2.023467 1_656
Cr0 O1 2.034434 1_655
Cr0 O5 2.091940 1_555
Mo0 O3 2.026816 1_544
Mo0 O1 2.034187 1_554
Mo0 O4 2.056022 1_555
Mo0 O2 2.062181 1_545
Mo0 O0 2.093316 1_554
Mo0 O5 2.137081 1_545
