# generated using pymatgen
data_Li2V2(PO4)3
_symmetry_space_group_name_H-M   'P 1'
_cell_length_a   8.70882300
_cell_length_b   8.60100300
_cell_length_c   12.07311832
_cell_angle_alpha   89.98684958
_cell_angle_beta   90.00000000
_cell_angle_gamma   90.00000000
_symmetry_Int_Tables_number   1
_chemical_formula_structural   Li2V2(PO4)3
_chemical_formula_sum   'Li8 V8 P12 O48'
_cell_volume   904.33222847
_cell_formula_units_Z   4
loop_
 _symmetry_equiv_pos_site_id
 _symmetry_equiv_pos_as_xyz
  1  'x, y, z'
loop_
 _atom_site_type_symbol
 _atom_site_label
 _atom_site_symmetry_multiplicity
 _atom_site_fract_x
 _atom_site_fract_y
 _atom_site_fract_z
 _atom_site_occupancy
  Li  Li0  1  0.22279800  0.78730900  0.18414100  1
  Li  Li1  1  0.27792800  0.77966600  0.81604800  1
  Li  Li2  1  0.77792800  0.72033400  0.68395200  1
  Li  Li3  1  0.72279800  0.71269100  0.31585900  1
  Li  Li4  1  0.27720200  0.28730900  0.68414100  1
  Li  Li5  1  0.22207200  0.27966600  0.31604800  1
  Li  Li6  1  0.72207200  0.22033400  0.18395200  1
  Li  Li7  1  0.77720200  0.21269100  0.81585900  1
  V  V0  1  0.46496800  0.75380500  0.61290100  1
  V  V1  1  0.03603700  0.75378400  0.38709300  1
  V  V2  1  0.96496800  0.74619500  0.88709900  1
  V  V3  1  0.53603700  0.74621600  0.11290700  1
  V  V4  1  0.46396300  0.25378400  0.88709300  1
  V  V5  1  0.03503200  0.25380500  0.11290100  1
  V  V6  1  0.96396300  0.24621600  0.61290700  1
  V  V7  1  0.53503200  0.24619500  0.38709900  1
  P  P0  1  0.75019000  0.96269300  0.49920600  1
  P  P1  1  0.60516100  0.89467300  0.85444600  1
  P  P2  1  0.89480100  0.89461400  0.14577900  1
  P  P3  1  0.39480100  0.60538600  0.35422100  1
  P  P4  1  0.10516100  0.60532700  0.64555400  1
  P  P5  1  0.25019000  0.53730700  0.00079400  1
  P  P6  1  0.74981000  0.46269300  0.99920600  1
  P  P7  1  0.89483900  0.39467300  0.35444600  1
  P  P8  1  0.60519900  0.39461400  0.64577900  1
  P  P9  1  0.10519900  0.10538600  0.85422100  1
  P  P10  1  0.39483900  0.10532700  0.14555400  1
  P  P11  1  0.24981000  0.03730700  0.50079400  1
  O  O0  1  0.35892300  0.93780200  0.57135000  1
  O  O1  1  0.13602600  0.93789200  0.43410800  1
  O  O2  1  0.10652800  0.92551900  0.84828800  1
  O  O3  1  0.40080200  0.92611400  0.15739700  1
  O  O4  1  0.66261200  0.86044100  0.58355800  1
  O  O5  1  0.55853100  0.84441500  0.97174900  1
  O  O6  1  0.77016200  0.84075300  0.82597800  1
  O  O7  1  0.83420500  0.85086600  0.41935500  1
  O  O8  1  0.01371900  0.83057000  0.23063600  1
  O  O9  1  0.94593700  0.83816200  0.03071400  1
  O  O10  1  0.73239900  0.83437800  0.17512200  1
  O  O11  1  0.48829200  0.82059700  0.77229200  1
  O  O12  1  0.98829200  0.67940300  0.72770800  1
  O  O13  1  0.23239900  0.66562200  0.32487800  1
  O  O14  1  0.44593700  0.66183800  0.46928600  1
  O  O15  1  0.51371900  0.66943000  0.26936400  1
  O  O16  1  0.33420500  0.64913400  0.08064500  1
  O  O17  1  0.27016200  0.65924700  0.67402200  1
  O  O18  1  0.05853100  0.65558500  0.52825100  1
  O  O19  1  0.16261200  0.63955900  0.91644200  1
  O  O20  1  0.90080200  0.57388600  0.34260300  1
  O  O21  1  0.60652800  0.57448100  0.65171200  1
  O  O22  1  0.63602600  0.56210800  0.06589200  1
  O  O23  1  0.85892300  0.56219800  0.92865000  1
  O  O24  1  0.14107700  0.43780200  0.07135000  1
  O  O25  1  0.36397400  0.43789200  0.93410800  1
  O  O26  1  0.39347200  0.42551900  0.34828800  1
  O  O27  1  0.09919800  0.42611400  0.65739700  1
  O  O28  1  0.83738800  0.36044100  0.08355800  1
  O  O29  1  0.94146900  0.34441500  0.47174900  1
  O  O30  1  0.72983800  0.34075300  0.32597800  1
  O  O31  1  0.66579500  0.35086600  0.91935500  1
  O  O32  1  0.48628100  0.33057000  0.73063600  1
  O  O33  1  0.55406300  0.33816200  0.53071400  1
  O  O34  1  0.76760100  0.33437800  0.67512200  1
  O  O35  1  0.01170800  0.32059700  0.27229200  1
  O  O36  1  0.51170800  0.17940300  0.22770800  1
  O  O37  1  0.26760100  0.16562200  0.82487800  1
  O  O38  1  0.05406300  0.16183800  0.96928600  1
  O  O39  1  0.98628100  0.16943000  0.76936400  1
  O  O40  1  0.16579500  0.14913400  0.58064500  1
  O  O41  1  0.22983800  0.15924700  0.17402200  1
  O  O42  1  0.44146900  0.15558500  0.02825100  1
  O  O43  1  0.33738800  0.13955900  0.41644200  1
  O  O44  1  0.59919800  0.07388600  0.84260300  1
  O  O45  1  0.89347200  0.07448100  0.15171200  1
  O  O46  1  0.86397400  0.06210800  0.56589200  1
  O  O47  1  0.64107700  0.06219800  0.42865000  1
loop_
_geom_bond_atom_site_label_1
_geom_bond_atom_site_label_2
_geom_bond_distance
_geom_bond_site_symmetry_2
Li0 O8 1.941411 1_555
Li0 O16 1.978816 1_555
Li0 O3 1.983058 1_555
Li0 O13 1.997165 1_555
Li1 O11 1.938874 1_555
Li1 O19 1.982212 1_555
Li1 O2 1.988362 1_555
Li1 O17 2.004569 1_555
Li2 O12 1.938874 1_555
Li2 O4 1.982212 1_555
Li2 O21 1.988362 1_555
Li2 O6 2.004569 1_555
Li3 O15 1.941411 1_555
Li3 O7 1.978816 1_555
Li3 O20 1.983058 1_555
Li3 O10 1.997165 1_555
Li4 O32 1.941411 1_555
Li4 O40 1.978816 1_555
Li4 O27 1.983058 1_555
Li4 O37 1.997165 1_555
Li5 O35 1.938874 1_555
Li5 O43 1.982212 1_555
Li5 O26 1.988362 1_555
Li5 O41 2.004569 1_555
Li6 O36 1.938874 1_555
Li6 O28 1.982212 1_555
Li6 O45 1.988362 1_555
Li6 O30 2.004569 1_555
Li7 O39 1.941411 1_555
Li7 O31 1.978816 1_555
Li7 O44 1.983058 1_555
Li7 O34 1.997165 1_555
O0 P11 1.536462 1_565
O0 V0 1.899653 1_555
O1 P11 1.536746 1_565
O1 V1 1.894304 1_555
O2 P9 1.548754 1_565
O2 V2 2.029277 1_455
O3 P10 1.548867 1_565
O3 V3 2.017451 1_555
O4 P0 1.546574 1_555
O4 V0 1.982235 1_555
O5 P1 1.535300 1_555
O5 V3 1.911920 1_556
O6 P1 1.548595 1_555
O6 V2 2.020870 1_555
O7 P0 1.546049 1_555
O7 V1 1.984608 1_655
O8 P2 1.557333 1_455
O8 V1 2.010327 1_555
O9 P2 1.537610 1_555
O9 V2 1.913148 1_554
O10 P2 1.547309 1_555
O10 V3 2.015894 1_555
O11 P1 1.557529 1_555
O11 V0 2.018638 1_555
O12 P4 1.557529 1_655
O12 V2 2.018638 1_555
O13 P3 1.547309 1_555
O13 V1 2.015894 1_555
O14 P3 1.537610 1_555
O14 V0 1.913148 1_555
O15 P3 1.557333 1_555
O15 V3 2.010327 1_555
O16 P5 1.546049 1_555
O16 V3 1.984608 1_555
O17 P4 1.548595 1_555
O17 V0 2.020870 1_555
O18 P4 1.535300 1_555
O18 V1 1.911920 1_555
O19 P5 1.546574 1_556
O19 V2 1.982235 1_455
O20 P7 1.548867 1_555
O20 V1 2.017451 1_655
O21 P8 1.548754 1_555
O21 V0 2.029277 1_555
O22 P6 1.536746 1_554
O22 V3 1.894304 1_555
O23 P6 1.536462 1_555
O23 V2 1.899653 1_555
O24 P5 1.536462 1_555
O24 V5 1.899653 1_555
O25 P5 1.536746 1_556
O25 V4 1.894304 1_555
O26 P3 1.548754 1_555
O26 V7 2.029277 1_555
O27 P4 1.548867 1_555
O27 V6 2.017451 1_455
O28 P6 1.546574 1_554
O28 V5 1.982235 1_655
O29 P7 1.535300 1_555
O29 V6 1.911920 1_555
O30 P7 1.548595 1_555
O30 V7 2.020870 1_555
O31 P6 1.546049 1_555
O31 V4 1.984608 1_555
O32 P8 1.557333 1_555
O32 V4 2.010327 1_555
O33 P8 1.537610 1_555
O33 V7 1.913148 1_555
O34 P8 1.547309 1_555
O34 V6 2.015894 1_555
O35 P7 1.557529 1_455
O35 V5 2.018638 1_555
O36 P10 1.557529 1_555
O36 V7 2.018638 1_555
O37 P9 1.547309 1_555
O37 V4 2.015894 1_555
O38 P9 1.537610 1_555
O38 V5 1.913148 1_556
O39 P9 1.557333 1_655
O39 V6 2.010327 1_555
O40 P11 1.546049 1_555
O40 V6 1.984608 1_455
O41 P10 1.548595 1_555
O41 V5 2.020870 1_555
O42 P10 1.535300 1_555
O42 V4 1.911920 1_554
O43 P11 1.546574 1_555
O43 V7 1.982235 1_555
O44 P1 1.548867 1_545
O44 V4 2.017451 1_555
O45 P2 1.548754 1_545
O45 V5 2.029277 1_655
O46 P0 1.536746 1_545
O46 V6 1.894304 1_555
O47 P0 1.536462 1_545
O47 V7 1.899653 1_555
