# generated using pymatgen
data_Na2Ta4Zn4Si3(S3O16)3
_symmetry_space_group_name_H-M   'P 1'
_cell_length_a   17.58128502
_cell_length_b   8.80419153
_cell_length_c   22.69917816
_cell_angle_alpha   89.99755623
_cell_angle_beta   89.96556097
_cell_angle_gamma   120.14219017
_symmetry_Int_Tables_number   1
_chemical_formula_structural   Na2Ta4Zn4Si3(S3O16)3
_chemical_formula_sum   'Na6 Ta12 Zn12 Si9 S27 O144'
_cell_volume   3038.48226241
_cell_formula_units_Z   3
loop_
 _symmetry_equiv_pos_site_id
 _symmetry_equiv_pos_as_xyz
  1  'x, y, z'
loop_
 _atom_site_type_symbol
 _atom_site_label
 _atom_site_symmetry_multiplicity
 _atom_site_fract_x
 _atom_site_fract_y
 _atom_site_fract_z
 _atom_site_occupancy
  Na  Na0  1  0.99874305  0.99851537  0.50032631  1
  Na  Na1  1  0.49964574  0.00136230  0.99627188  1
  Na  Na2  1  0.33567588  0.33590648  0.83898324  1
  Na  Na3  1  0.82922808  0.33340593  0.83741729  1
  Na  Na4  1  0.33637189  0.33651604  0.34077477  1
  Na  Na5  1  0.83365535  0.33174216  0.34122410  1
  Ta  Ta0  1  0.49953598  0.00850035  0.35560505  1
  Ta  Ta1  1  0.99907767  0.98947329  0.85382689  1
  Ta  Ta2  1  0.50536344  0.01156571  0.64221424  1
  Ta  Ta3  1  -0.00009201  0.00044857  0.14124027  1
  Ta  Ta4  1  0.33596359  0.33799046  0.68432607  1
  Ta  Ta5  1  0.82980814  0.33341271  0.69122160  1
  Ta  Ta6  1  0.33564318  0.33369821  0.18746227  1
  Ta  Ta7  1  0.83358950  0.33181065  0.18344360  1
  Ta  Ta8  1  0.16504869  0.65941717  0.02307739  1
  Ta  Ta9  1  0.66804289  0.67056878  0.02134219  1
  Ta  Ta10  1  0.16720394  0.66382397  0.52371203  1
  Ta  Ta11  1  0.66598179  0.67071992  0.52513418  1
  Zn  Zn0  1  0.99786102  0.99727517  0.35408992  1
  Zn  Zn1  1  0.50277395  0.00746018  0.84818408  1
  Zn  Zn2  1  0.00051713  0.99452339  0.65230868  1
  Zn  Zn3  1  0.50128388  0.00824437  0.15246467  1
  Zn  Zn4  1  0.32912197  0.33517839  0.98171853  1
  Zn  Zn5  1  0.84071940  0.33523741  0.98566344  1
  Zn  Zn6  1  0.34007462  0.34964601  0.48805876  1
  Zn  Zn7  1  0.83117959  0.32502538  0.48425432  1
  Zn  Zn8  1  0.16211559  0.66091487  0.31392785  1
  Zn  Zn9  1  0.66650159  0.66365807  0.31072269  1
  Zn  Zn10  1  0.16862242  0.67213345  0.80962642  1
  Zn  Zn11  1  0.66009627  0.64899686  0.80820741  1
  Si  Si0  1  0.50502747  0.29879399  0.24772128  1
  Si  Si1  1  0.63990335  0.28856905  0.75527130  1
  Si  Si2  1  0.00654339  0.71101041  0.74633868  1
  Si  Si3  1  0.47408707  0.32808193  0.57790601  1
  Si  Si4  1  0.69418126  0.05542261  0.58107874  1
  Si  Si5  1  0.33421922  0.62212675  0.58236247  1
  Si  Si6  1  0.97531997  0.62000625  0.07888260  1
  Si  Si7  1  0.83099206  0.04431585  0.08107218  1
  Si  Si8  1  0.19370452  0.33453598  0.08150186  1
  S  S0  1  0.14412518  0.99925193  0.25137467  1
  S  S1  1  0.64559558  0.00254775  0.25050174  1
  S  S2  1  0.35376801  0.70828734  0.25054854  1
  S  S3  1  0.85711902  0.71128989  0.25128364  1
  S  S4  1  0.99869910  0.28921276  0.25153833  1
  S  S5  1  0.14595443  0.28918957  0.75023750  1
  S  S6  1  0.49753938  0.70998010  0.75155265  1
  S  S7  1  0.35512441  0.00090825  0.75038214  1
  S  S8  1  0.85499764  0.00163835  0.75057401  1
  S  S9  1  0.97779735  0.32712725  0.58240107  1
  S  S10  1  0.18591964  0.04456049  0.58024135  1
  S  S11  1  0.83699573  0.62677930  0.58049201  1
  S  S12  1  0.47885740  0.62757394  0.08256585  1
  S  S13  1  0.33629062  0.04552361  0.08035462  1
  S  S14  1  0.68581685  0.32757603  0.08026110  1
  S  S15  1  0.31312663  0.67159790  0.91446893  1
  S  S16  1  0.81009406  0.66422562  0.91486642  1
  S  S17  1  0.02222155  0.37757049  0.91421866  1
  S  S18  1  0.51766006  0.37368314  0.91805779  1
  S  S19  1  0.16922070  0.95890279  0.91483036  1
  S  S20  1  0.66640499  0.95642415  0.91497887  1
  S  S21  1  0.30880521  0.95480465  0.41421477  1
  S  S22  1  0.81232078  0.95472817  0.41453327  1
  S  S23  1  0.16628790  0.37510810  0.41558693  1
  S  S24  1  0.67036996  0.38126257  0.41471820  1
  S  S25  1  0.01982048  0.66521178  0.41634541  1
  S  S26  1  0.52249225  0.66673951  0.41464664  1
  O  O0  1  0.11076961  0.04171736  0.30432479  1
  O  O1  1  0.59907483  0.02869455  0.30356787  1
  O  O2  1  0.41298159  0.79156275  0.30394056  1
  O  O3  1  0.91265559  0.77833980  0.30401502  1
  O  O4  1  0.48384384  0.15875100  0.30727720  1
  O  O5  1  0.98030106  0.18125672  0.30445261  1
  O  O6  1  0.09899540  0.16906250  0.80371551  1
  O  O7  1  0.61065814  0.16734237  0.81281429  1
  O  O8  1  0.47414442  0.77057646  0.80483090  1
  O  O9  1  0.98419481  0.80786346  0.80695691  1
  O  O10  1  0.40841460  0.04540997  0.80421590  1
  O  O11  1  0.91562892  0.03437796  0.80415089  1
  O  O12  1  0.39977677  0.98393521  0.69797804  1
  O  O13  1  0.89474892  0.98091897  0.69704179  1
  O  O14  1  0.09430661  0.21548690  0.69700448  1
  O  O15  1  0.58065744  0.18076021  0.69744087  1
  O  O16  1  0.01555208  0.82616834  0.69094632  1
  O  O17  1  0.50384798  0.81128315  0.69851059  1
  O  O18  1  0.39317631  0.80667979  0.19699989  1
  O  O19  1  0.90416558  0.82098446  0.19886166  1
  O  O20  1  0.00779288  0.20016110  0.19872285  1
  O  O21  1  0.51252651  0.20392962  0.19121128  1
  O  O22  1  0.08937968  0.98002899  0.19907880  1
  O  O23  1  0.59443750  0.97379204  0.19708531  1
  O  O24  1  0.42821811  0.36350481  0.63731528  1
  O  O25  1  0.94153547  0.36630658  0.63512744  1
  O  O26  1  0.24177358  0.12005202  0.63437949  1
  O  O27  1  0.75853791  0.14369148  0.63837726  1
  O  O28  1  0.31057030  0.48626877  0.63989659  1
  O  O29  1  0.82159287  0.51565909  0.63406970  1
  O  O30  1  0.43824671  0.51117405  0.13672364  1
  O  O31  1  0.92856446  0.49234335  0.13833836  1
  O  O32  1  0.32211760  0.13131756  0.13475266  1
  O  O33  1  0.81151699  0.13298175  0.14043416  1
  O  O34  1  0.25580916  0.36920775  0.14042796  1
  O  O35  1  0.74300506  0.36128427  0.13516990  1
  O  O36  1  0.22804544  0.28707794  0.02501183  1
  O  O37  1  0.72652636  0.30419535  0.02818935  1
  O  O38  1  0.42542102  0.54915374  0.03050605  1
  O  O39  1  0.91641998  0.55461689  0.02279288  1
  O  O40  1  0.35279941  0.15556850  0.02884169  1
  O  O41  1  0.85211778  0.15612392  0.02393661  1
  O  O42  1  0.22592318  0.14642109  0.52739087  1
  O  O43  1  0.72724062  0.16562006  0.52290370  1
  O  O44  1  0.35023735  0.55151420  0.52317282  1
  O  O45  1  0.85307926  0.55187864  0.52800981  1
  O  O46  1  0.41757927  0.28375547  0.52064514  1
  O  O47  1  0.92710156  0.30087557  0.52878269  1
  O  O48  1  0.26460728  0.68838437  0.96904971  1
  O  O49  1  0.76849438  0.68831639  0.97080094  1
  O  O50  1  0.07685227  0.46345124  0.97010428  1
  O  O51  1  0.57638715  0.47194977  0.97224163  1
  O  O52  1  0.15323482  0.84980412  0.96922664  1
  O  O53  1  0.66133009  0.83999848  0.97080393  1
  O  O54  1  0.26745475  0.84578929  0.46864700  1
  O  O55  1  0.76500184  0.84214976  0.46826210  1
  O  O56  1  0.15788879  0.47415374  0.46954630  1
  O  O57  1  0.65325369  0.45609719  0.46842824  1
  O  O58  1  0.07738567  0.68495930  0.46944354  1
  O  O59  1  0.57658275  0.69251689  0.46950537  1
  O  O60  1  0.05965567  0.64158858  0.36271700  1
  O  O61  1  0.56625187  0.64854060  0.36328505  1
  O  O62  1  0.25718223  0.86892133  0.36180433  1
  O  O63  1  0.76060532  0.87174027  0.36159553  1
  O  O64  1  0.17729658  0.48041058  0.36279556  1
  O  O65  1  0.67993763  0.48289573  0.36219886  1
  O  O66  1  0.06725533  0.48568908  0.86378183  1
  O  O67  1  0.55831784  0.47959706  0.86581207  1
  O  O68  1  0.17950464  0.87537681  0.86309622  1
  O  O69  1  0.67604519  0.86871110  0.86368450  1
  O  O70  1  0.25962730  0.64800265  0.86248639  1
  O  O71  1  0.75793978  0.64932946  0.86390780  1
  O  O72  1  0.01571345  0.82940692  0.41486399  1
  O  O73  1  0.51624433  0.83236189  0.40813741  1
  O  O74  1  0.39783646  0.96131058  0.40877057  1
  O  O75  1  0.89950890  0.96464878  0.41431209  1
  O  O76  1  0.08294419  0.20423611  0.41551767  1
  O  O77  1  0.58633096  0.19631685  0.40753537  1
  O  O78  1  0.01656299  0.20136267  0.90959816  1
  O  O79  1  0.51268084  0.20199396  0.91857907  1
  O  O80  1  0.08602121  0.97506196  0.90814324  1
  O  O81  1  0.58295504  0.95527135  0.91948770  1
  O  O82  1  0.39948440  0.83521622  0.91412673  1
  O  O83  1  0.89928645  0.83493185  0.91040084  1
  O  O84  1  0.49068231  0.16986064  0.59549219  1
  O  O85  1  0.99435693  0.18108417  0.59071711  1
  O  O86  1  0.09769760  0.01793854  0.58786026  1
  O  O87  1  0.59484019  0.01023038  0.59736216  1
  O  O88  1  0.41149822  0.80975561  0.60292339  1
  O  O89  1  0.90822924  0.80792911  0.58829136  1
  O  O90  1  0.49251919  0.80306952  0.09309722  1
  O  O91  1  0.99331559  0.81264636  0.10005182  1
  O  O92  1  0.40798582  0.00982787  0.08933812  1
  O  O93  1  0.91138035  0.01321133  0.10084171  1
  O  O94  1  0.09526434  0.17685091  0.10049789  1
  O  O95  1  0.59848980  0.17588540  0.08890113  1
  O  O96  1  0.34241765  0.16036657  0.73973632  1
  O  O97  1  0.85370560  0.17344106  0.74700294  1
  O  O98  1  0.23203494  0.28838582  0.74665068  1
  O  O99  1  0.73954639  0.30742257  0.73847184  1
  O  O100  1  0.41507052  0.52031479  0.74208984  1
  O  O101  1  0.91300387  0.51875866  0.74050421  1
  O  O102  1  0.34861186  0.52867143  0.24577914  1
  O  O103  1  0.84500073  0.52839392  0.24045887  1
  O  O104  1  0.40996377  0.30391950  0.24163404  1
  O  O105  1  0.91575666  0.30621231  0.24228770  1
  O  O106  1  0.23548766  0.16121876  0.23988466  1
  O  O107  1  0.73258314  0.17655764  0.24654688  1
  O  O108  1  0.32268472  0.51531878  0.92149215  1
  O  O109  1  0.82337371  0.51492879  0.92117175  1
  O  O110  1  0.43050967  0.35807407  0.92639060  1
  O  O111  1  0.93402808  0.35360978  0.91987662  1
  O  O112  1  0.24460481  0.13606523  0.92064698  1
  O  O113  1  0.74404429  0.13093288  0.92273376  1
  O  O114  1  0.32316341  0.13121646  0.41976014  1
  O  O115  1  0.82338790  0.13151767  0.42049283  1
  O  O116  1  0.24326291  0.35390830  0.42230831  1
  O  O117  1  0.74510201  0.35333854  0.42018917  1
  O  O118  1  0.43349404  0.51588054  0.41943915  1
  O  O119  1  0.93213270  0.50821516  0.42393145  1
  O  O120  1  0.18266327  0.50930371  0.07149969  1
  O  O121  1  0.67954073  0.49225747  0.07407544  1
  O  O122  1  0.07327232  0.64253894  0.07018377  1
  O  O123  1  0.56674416  0.63692208  0.07545876  1
  O  O124  1  0.25117987  0.87293816  0.07354072  1
  O  O125  1  0.74482008  0.84576208  0.07321687  1
  O  O126  1  0.17847643  0.86402460  0.57239570  1
  O  O127  1  0.68415688  0.85739981  0.57115814  1
  O  O128  1  0.24535560  0.64338639  0.57188393  1
  O  O129  1  0.75185001  0.63121853  0.57198095  1
  O  O130  1  0.06823458  0.49537301  0.57270886  1
  O  O131  1  0.57253415  0.50440311  0.56958892  1
  O  O132  1  0.15534004  0.84689044  0.25599713  1
  O  O133  1  0.66275251  0.86195168  0.26166450  1
  O  O134  1  0.26669265  0.68214425  0.26100764  1
  O  O135  1  0.77175843  0.69684467  0.25512040  1
  O  O136  1  0.07511376  0.46506988  0.25536249  1
  O  O137  1  0.58237767  0.48665824  0.26191149  1
  O  O138  1  0.16223028  0.46296250  0.76204895  1
  O  O139  1  0.65586089  0.48196832  0.75496092  1
  O  O140  1  0.08443078  0.68204132  0.76215620  1
  O  O141  1  0.57432819  0.69088273  0.75587597  1
  O  O142  1  0.26891873  0.84567490  0.75491798  1
  O  O143  1  0.76903927  0.85784669  0.76198368  1
loop_
_geom_bond_atom_site_label_1
_geom_bond_atom_site_label_2
_geom_bond_distance
_geom_bond_site_symmetry_2
Na0 O75 2.535061 1_555
Na0 O76 2.545863 1_665
Na0 O72 2.552395 1_655
Na0 O89 2.578583 1_555
Na0 O86 2.590238 1_665
Na0 O85 2.631355 1_565
Na1 O79 2.423951 1_555
Na1 O81 2.437561 1_545
Na1 O82 2.476847 1_545
Na1 O95 2.669245 1_556
Na1 O92 2.679888 1_556
Na1 O90 2.770158 1_546
Na2 O112 2.502486 1_555
Na2 O108 2.533180 1_555
Na2 O110 2.536088 1_555
Na2 O98 2.669638 1_555
Na2 O100 2.672406 1_555
Na2 O96 2.767985 1_555
Na3 O109 2.518797 1_555
Na3 O113 2.546791 1_555
Na3 O111 2.570023 1_555
Na3 O97 2.643599 1_555
Na3 O99 2.687910 1_555
Na3 O101 2.693261 1_555
Na4 O118 2.427694 1_555
Na4 O114 2.472479 1_555
Na4 O116 2.525175 1_555
Na4 O104 2.681456 1_555
Na4 O102 2.681723 1_555
Na4 O106 2.833468 1_555
Na5 O117 2.442714 1_555
Na5 O115 2.461192 1_555
Na5 O119 2.497753 1_555
Na5 O107 2.685059 1_555
Na5 O105 2.738530 1_555
Na5 O103 2.814491 1_555
O0 S0 1.465501 1_545
O0 Zn0 2.141706 1_445
O1 S1 1.536500 1_555
O1 Ta0 2.043144 1_555
O2 S2 1.524863 1_555
O2 Ta0 2.102938 1_565
O3 S3 1.468725 1_555
O3 Zn0 2.086583 1_555
O4 Si0 1.739122 1_555
O4 Ta0 1.842874 1_555
O5 S4 1.463337 1_555
O5 Zn0 2.119220 1_545
O6 S5 1.547744 1_555
O6 Ta1 2.021822 1_445
O7 Si1 1.599234 1_555
O7 Zn1 1.881580 1_555
O8 S6 1.461582 1_555
O8 Zn1 2.125529 1_565
O9 Si2 1.763737 1_655
O9 Ta1 1.826814 1_555
O10 S7 1.468777 1_555
O10 Zn1 2.102022 1_555
O11 S8 1.546421 1_555
O11 Ta1 2.040773 1_545
O12 S7 1.473200 1_565
O12 Ta2 2.156633 1_565
O13 S8 1.457841 1_565
O13 Zn2 2.068169 1_655
O14 S5 1.454416 1_555
O14 Zn2 2.076891 1_545
O15 Si1 1.648610 1_555
O15 Ta2 1.888018 1_555
O16 Si2 1.572374 1_555
O16 Zn2 1.851955 1_555
O17 S6 1.468950 1_555
O17 Ta2 2.166931 1_565
O18 S2 1.450534 1_555
O18 Zn3 2.096148 1_565
O19 S3 1.493078 1_555
O19 Ta3 2.089689 1_665
O20 S4 1.484347 1_455
O20 Ta3 2.137522 1_555
O21 Si0 1.571885 1_555
O21 Zn3 1.854500 1_555
O22 S0 1.483907 1_555
O22 Ta3 2.125295 1_565
O23 S1 1.454610 1_565
O23 Zn3 2.073887 1_565
O24 Si3 1.678534 1_555
O24 Ta4 1.857928 1_555
O25 S9 1.475752 1_555
O25 Ta5 2.233674 1_555
O26 S10 1.504083 1_555
O26 Ta4 2.126190 1_555
O27 Si4 1.641517 1_555
O27 Ta5 1.923272 1_555
O28 Si5 1.675980 1_555
O28 Ta4 1.872544 1_555
O29 S11 1.497649 1_555
O29 Ta5 2.123951 1_555
O30 S12 1.528160 1_555
O30 Ta6 2.046613 1_555
O31 Si6 1.682581 1_555
O31 Ta7 1.860568 1_555
O32 S13 1.531693 1_555
O32 Ta6 2.058611 1_555
O33 Si7 1.676383 1_555
O33 Ta7 1.867198 1_555
O34 Si8 1.655760 1_555
O34 Ta6 1.910526 1_555
O35 S14 1.534383 1_555
O35 Ta7 2.054632 1_555
O36 Si8 1.560707 1_555
O36 Zn4 1.882839 1_554
O37 S14 1.448687 1_555
O37 Zn5 2.117499 1_554
O38 S12 1.451116 1_555
O38 Zn4 2.107388 1_554
O39 Si6 1.558111 1_555
O39 Zn5 1.905789 1_554
O40 S13 1.451644 1_555
O40 Zn4 2.116487 1_554
O41 Si7 1.555991 1_555
O41 Zn5 1.897144 1_554
O42 S10 1.450360 1_555
O42 Zn6 2.101819 1_555
O43 Si4 1.567016 1_555
O43 Zn7 1.871086 1_555
O44 Si5 1.564095 1_555
O44 Zn6 1.872792 1_555
O45 S11 1.456349 1_555
O45 Zn7 2.086168 1_555
O46 Si3 1.562349 1_555
O46 Zn6 1.880287 1_555
O47 S9 1.457253 1_555
O47 Zn7 2.067130 1_555
O48 S15 1.552364 1_555
O48 Ta8 2.044975 1_556
O49 S16 1.531878 1_555
O49 Ta9 2.044501 1_556
O50 S17 1.541317 1_555
O50 Ta8 2.035344 1_556
O51 S18 1.559417 1_555
O51 Ta9 2.017209 1_556
O52 S19 1.501524 1_555
O52 Ta8 2.167201 1_556
O53 S20 1.603843 1_555
O53 Ta9 1.931815 1_556
O54 S21 1.508113 1_555
O54 Ta10 2.096860 1_555
O55 S22 1.527249 1_555
O55 Ta11 2.081724 1_555
O56 S23 1.552943 1_555
O56 Ta10 2.013166 1_555
O57 S24 1.486534 1_555
O57 Ta11 2.203023 1_555
O58 S25 1.527086 1_555
O58 Ta10 2.084017 1_555
O59 S26 1.513674 1_555
O59 Ta11 2.099284 1_555
O60 S25 1.470002 1_555
O60 Zn8 2.046990 1_555
O61 S26 1.448984 1_555
O61 Zn9 2.075956 1_555
O62 S21 1.457037 1_555
O62 Zn8 2.063176 1_555
O63 S22 1.462426 1_555
O63 Zn9 2.094145 1_555
O64 S23 1.467096 1_555
O64 Zn8 2.062380 1_555
O65 S24 1.448681 1_555
O65 Zn9 2.081252 1_555
O66 S17 1.444171 1_555
O66 Zn10 2.107359 1_555
O67 S18 1.454786 1_555
O67 Zn11 2.110180 1_555
O68 S19 1.444249 1_555
O68 Zn10 2.090046 1_555
O69 S20 1.453292 1_555
O69 Zn11 2.205049 1_555
O70 S15 1.457837 1_555
O70 Zn10 2.094864 1_555
O71 S16 1.441004 1_555
O71 Zn11 2.134313 1_555
O72 S25 1.483560 1_555
O72 Zn0 2.156880 1_455
O73 S26 1.523491 1_555
O73 Ta0 2.090650 1_565
O74 S21 1.542203 1_555
O74 Ta0 2.019232 1_565
O75 S22 1.490940 1_555
O75 Zn0 2.107003 1_555
O76 S23 1.482037 1_555
O76 Zn0 2.183428 1_445
O77 S24 1.563691 1_555
O77 Ta0 1.980046 1_555
O78 S17 1.507536 1_555
O78 Ta1 2.145234 1_445
O79 S18 1.469624 1_555
O79 Zn1 2.284296 1_555
O80 S19 1.546672 1_555
O80 Ta1 2.017379 1_455
O81 S20 1.465603 1_555
O81 Zn1 2.339054 1_565
O82 S15 1.477776 1_555
O82 Zn1 2.251400 1_565
O83 S16 1.536544 1_555
O83 Ta1 2.044080 1_555
O84 Si3 1.610351 1_555
O84 Ta2 1.869532 1_555
O85 S9 1.466169 1_555
O85 Zn2 2.200649 1_645
O86 S10 1.457804 1_555
O86 Zn2 2.178315 1_545
O87 Si4 1.626854 1_555
O87 Ta2 1.878303 1_555
O88 Si5 1.593554 1_555
O88 Ta2 1.932073 1_565
O89 S11 1.462104 1_555
O89 Zn2 2.183837 1_655
O90 S12 1.459298 1_555
O90 Zn3 2.196300 1_565
O91 Si6 1.633677 1_555
O91 Ta3 1.851821 1_665
O92 S13 1.458539 1_555
O92 Zn3 2.183994 1_555
O93 Si7 1.631970 1_555
O93 Ta3 1.858322 1_655
O94 Si8 1.641532 1_555
O94 Ta3 1.860394 1_555
O95 S14 1.455898 1_555
O95 Zn3 2.155115 1_555
O96 S7 1.547339 1_555
O96 Ta4 2.053935 1_555
O97 S8 1.526269 1_555
O97 Ta5 2.087627 1_555
O98 S5 1.519106 1_555
O98 Ta4 2.173991 1_555
O99 Si1 1.717297 1_555
O99 Ta5 1.831465 1_555
O100 S6 1.582924 1_555
O100 Ta4 1.997628 1_555
O101 Si2 1.670858 1_655
O101 Ta5 1.912787 1_555
O102 S2 1.541666 1_555
O102 Ta6 2.087684 1_555
O103 S3 1.534349 1_555
O103 Ta7 2.088660 1_555
O104 Si0 1.700157 1_555
O104 Ta6 1.906325 1_555
O105 S4 1.553220 1_555
O105 Ta7 2.061812 1_555
O106 S0 1.542943 1_545
O106 Ta6 2.033341 1_555
O107 S1 1.529974 1_555
O107 Ta7 2.152362 1_555
O108 S15 1.476145 1_555
O108 Zn4 2.139480 1_555
O109 S16 1.452918 1_555
O109 Zn5 2.285550 1_555
O110 S18 1.480043 1_555
O110 Zn4 2.105170 1_555
O111 S17 1.461668 1_655
O111 Zn5 2.162837 1_555
O112 S19 1.459787 1_545
O112 Zn4 2.142303 1_555
O113 S20 1.465901 1_545
O113 Zn5 2.257777 1_555
O114 S21 1.448510 1_545
O114 Zn6 2.369973 1_555
O115 S22 1.474691 1_545
O115 Zn7 2.186807 1_555
O116 S23 1.464074 1_555
O116 Zn6 2.278851 1_555
O117 S24 1.458340 1_555
O117 Zn7 2.201960 1_555
O118 S26 1.461798 1_555
O118 Zn6 2.201896 1_555
O119 S25 1.475300 1_655
O119 Zn7 2.179078 1_555
O120 Si8 1.660358 1_555
O120 Ta8 1.860662 1_555
O121 S14 1.514838 1_555
O121 Ta9 2.063265 1_555
O122 Si6 1.643335 1_455
O122 Ta8 1.877785 1_555
O123 S12 1.514037 1_555
O123 Ta9 2.058165 1_555
O124 S13 1.512834 1_565
O124 Ta8 2.069421 1_555
O125 Si7 1.650305 1_565
O125 Ta9 1.870506 1_555
O126 S10 1.538318 1_565
O126 Ta10 2.004211 1_555
O127 Si4 1.677146 1_565
O127 Ta11 1.835192 1_555
O128 Si5 1.681259 1_555
O128 Ta10 1.834671 1_555
O129 S11 1.529340 1_555
O129 Ta11 2.014952 1_555
O130 S9 1.550768 1_455
O130 Ta10 1.967228 1_555
O131 Si3 1.656021 1_555
O131 Ta11 1.855649 1_555
O132 S0 1.454281 1_555
O132 Zn8 2.149468 1_555
O133 S1 1.436133 1_565
O133 Zn9 2.099468 1_555
O134 S2 1.448678 1_555
O134 Zn8 2.123811 1_555
O135 S3 1.443664 1_555
O135 Zn9 2.134716 1_555
O136 S4 1.456284 1_455
O136 Zn8 2.105682 1_555
O137 Si0 1.558985 1_555
O137 Zn9 1.879073 1_555
O138 S5 1.433495 1_555
O138 Zn10 2.088744 1_555
O139 Si1 1.580591 1_555
O139 Zn11 1.875951 1_555
O140 Si2 1.555779 1_555
O140 Zn10 1.868491 1_555
O141 S6 1.445216 1_555
O141 Zn11 2.093188 1_555
O142 S7 1.447433 1_565
O142 Zn10 2.068192 1_555
O143 S8 1.425389 1_565
O143 Zn11 2.147309 1_555
