# generated using pymatgen
data_Pr4Bi3
_symmetry_space_group_name_H-M   'P 1'
_cell_length_a   8.44824380
_cell_length_b   8.44820513
_cell_length_c   8.44825068
_cell_angle_alpha   109.47115370
_cell_angle_beta   109.47136104
_cell_angle_gamma   109.47107344
_symmetry_Int_Tables_number   1
_chemical_formula_structural   Pr4Bi3
_chemical_formula_sum   'Pr8 Bi6'
_cell_volume   464.16905649
_cell_formula_units_Z   2
loop_
 _symmetry_equiv_pos_site_id
 _symmetry_equiv_pos_as_xyz
  1  'x, y, z'
loop_
 _atom_site_type_symbol
 _atom_site_label
 _atom_site_symmetry_multiplicity
 _atom_site_fract_x
 _atom_site_fract_y
 _atom_site_fract_z
 _atom_site_occupancy
  Pr  Pr0  1  0.14150002  0.14149898  0.14149476  1
  Pr  Pr1  1  0.85850704  0.49999923  -0.00000027  1
  Pr  Pr2  1  0.99999969  0.85850630  0.50000029  1
  Pr  Pr3  1  0.50000028  0.99999954  0.85850721  1
  Pr  Pr4  1  0.00000008  0.35850348  0.50000006  1
  Pr  Pr5  1  0.49999501  -0.00000125  0.35850013  1
  Pr  Pr6  1  0.35850535  0.50000424  0.00000520  1
  Pr  Pr7  1  0.64149269  0.64149212  0.64149319  1
  Bi  Bi0  1  0.25000119  0.62499870  0.37499937  1
  Bi  Bi1  1  0.37499787  0.24999872  0.62499697  1
  Bi  Bi2  1  0.12500084  0.74999958  0.87500169  1
  Bi  Bi3  1  0.87500242  0.12500217  0.75000129  1
  Bi  Bi4  1  0.62499870  0.37499763  0.24999915  1
  Bi  Bi5  1  0.74999881  0.87500055  0.12500098  1
loop_
_geom_bond_atom_site_label_1
_geom_bond_atom_site_label_2
_geom_bond_distance
_geom_bond_site_symmetry_2
Bi0 Pr7 3.247555 1_555
Bi0 Pr1 3.247573 1_455
Bi0 Pr5 3.247575 1_565
Bi0 Pr4 3.247587 1_555
Bi0 Pr6 3.513260 1_555
Bi0 Pr0 3.513266 1_555
Bi0 Pr3 3.513328 1_555
Bi0 Pr2 3.513330 1_455
Bi1 Pr7 3.247555 1_555
Bi1 Pr2 3.247564 1_445
Bi1 Pr5 3.247566 1_555
Bi1 Pr6 3.247636 1_556
Bi1 Pr4 3.513281 1_555
Bi1 Pr0 3.513297 1_555
Bi1 Pr3 3.513326 1_545
Bi1 Pr1 3.513340 1_556
Bi2 Pr1 3.247561 1_456
Bi2 Pr3 3.247574 1_555
Bi2 Pr0 3.247574 1_566
Bi2 Pr4 3.247585 1_555
Bi2 Pr5 3.513259 1_566
Bi2 Pr6 3.513267 1_556
Bi2 Pr2 3.513325 1_455
Bi2 Pr7 3.513327 1_455
Bi3 Pr1 3.247548 1_556
Bi3 Pr0 3.247565 1_656
Bi3 Pr2 3.247565 1_545
Bi3 Pr5 3.247631 1_555
Bi3 Pr4 3.513288 1_655
Bi3 Pr6 3.513300 1_656
Bi3 Pr7 3.513330 1_545
Bi3 Pr3 3.513335 1_545
Bi4 Pr3 3.247556 1_544
Bi4 Pr7 3.247576 1_555
Bi4 Pr6 3.247577 1_555
Bi4 Pr4 3.247580 1_655
Bi4 Pr0 3.513260 1_555
Bi4 Pr5 3.513270 1_555
Bi4 Pr2 3.513325 1_555
Bi4 Pr1 3.513330 1_555
Bi5 Pr3 3.247550 1_554
Bi5 Pr6 3.247564 1_555
Bi5 Pr2 3.247569 1_555
Bi5 Pr0 3.247636 1_665
Bi5 Pr4 3.513287 1_665
Bi5 Pr5 3.513301 1_565
Bi5 Pr1 3.513324 1_555
Bi5 Pr7 3.513332 1_554
