# generated using pymatgen
data_MgFe6(OF)6
_symmetry_space_group_name_H-M   'P 1'
_cell_length_a   5.04393797
_cell_length_b   14.36975010
_cell_length_c   3.08821800
_cell_angle_alpha   90.00000000
_cell_angle_beta   90.00000000
_cell_angle_gamma   88.21357987
_symmetry_Int_Tables_number   1
_chemical_formula_structural   MgFe6(OF)6
_chemical_formula_sum   'Mg1 Fe6 O6 F6'
_cell_volume   223.72564772
_cell_formula_units_Z   1
loop_
 _symmetry_equiv_pos_site_id
 _symmetry_equiv_pos_as_xyz
  1  'x, y, z'
loop_
 _atom_site_type_symbol
 _atom_site_label
 _atom_site_symmetry_multiplicity
 _atom_site_fract_x
 _atom_site_fract_y
 _atom_site_fract_z
 _atom_site_occupancy
  Mg  Mg0  1  0.52939600  0.99874400  0.00000000  1
  Fe  Fe0  1  0.02635300  0.00480700  0.00000000  1
  Fe  Fe1  1  0.01436000  0.33995200  0.00000000  1
  Fe  Fe2  1  0.00035800  0.65696400  0.00000000  1
  Fe  Fe3  1  0.58835100  0.18794500  0.50000000  1
  Fe  Fe4  1  0.44280700  0.49706900  0.50000000  1
  Fe  Fe5  1  0.41891800  0.81442400  0.50000000  1
  O  O0  1  0.16255300  0.59818700  0.50000000  1
  O  O1  1  0.28059000  0.94547700  0.50000000  1
  O  O2  1  0.24542200  0.76396400  0.00000000  1
  O  O3  1  0.30648700  0.43418200  0.00000000  1
  O  O4  1  0.76097700  0.24820200  0.00000000  1
  O  O5  1  0.76977500  0.04418900  0.50000000  1
  F  F0  1  0.22124100  0.27911900  0.50000000  1
  F  F1  1  0.32683100  0.11769100  0.00000000  1
  F  F2  1  0.66349300  0.56667000  0.00000000  1
  F  F3  1  0.67830200  0.86919000  0.00000000  1
  F  F4  1  0.81895700  0.41325200  0.50000000  1
  F  F5  1  0.75871400  0.71997700  0.50000000  1
loop_
_geom_bond_atom_site_label_1
_geom_bond_atom_site_label_2
_geom_bond_distance
_geom_bond_site_symmetry_2
Mg0 O5 2.080899 1_564
Mg0 O5 2.080899 1_565
Mg0 O1 2.145922 1_554
Mg0 O1 2.145922 1_555
Fe0 O5 2.081760 1_455
Fe0 O5 2.081760 1_454
Fe0 O1 2.165040 1_544
Fe0 O1 2.165040 1_545
Fe1 O4 1.864593 1_455
Fe1 O3 2.031992 1_555
Fe2 O0 1.929728 1_554
Fe2 O0 1.929728 1_555
Fe2 O2 2.002626 1_555
Fe3 O4 1.984734 1_555
Fe3 O4 1.984734 1_556
Fe3 O5 2.233116 1_555
Fe4 O3 1.926762 1_556
Fe4 O3 1.926762 1_555
Fe4 O0 1.995366 1_555
Fe5 O2 1.927539 1_555
Fe5 O2 1.927539 1_556
Fe5 O1 1.987794 1_555
F0 Fe1 2.044610 1_555
F0 Fe1 2.044610 1_556
F0 Fe3 2.234715 1_555
F1 Mg0 1.963807 1_545
F1 Fe0 2.254231 1_555
F1 Fe3 2.286144 1_554
F1 Fe3 2.286144 1_555
F2 Fe4 2.166341 1_554
F2 Fe4 2.166341 1_555
F2 Fe2 2.169791 1_655
F3 Mg0 1.985625 1_555
F3 Fe5 2.186204 1_554
F3 Fe5 2.186204 1_555
F4 Fe1 2.097714 1_655
F4 Fe1 2.097714 1_656
F4 Fe4 2.215364 1_555
F5 Fe2 2.149633 1_656
F5 Fe2 2.149633 1_655
F5 Fe5 2.152765 1_555
