# generated using pymatgen
data_Na6Mg3SnP4(SO12)2
_symmetry_space_group_name_H-M   'P 1'
_cell_length_a   8.94359745
_cell_length_b   8.91874937
_cell_length_c   22.20594830
_cell_angle_alpha   90.14346754
_cell_angle_beta   89.80934795
_cell_angle_gamma   120.15816789
_symmetry_Int_Tables_number   1
_chemical_formula_structural   Na6Mg3SnP4(SO12)2
_chemical_formula_sum   'Na18 Mg9 Sn3 P12 S6 O72'
_cell_volume   1531.50762928
_cell_formula_units_Z   3
loop_
 _symmetry_equiv_pos_site_id
 _symmetry_equiv_pos_as_xyz
  1  'x, y, z'
loop_
 _atom_site_type_symbol
 _atom_site_label
 _atom_site_symmetry_multiplicity
 _atom_site_fract_x
 _atom_site_fract_y
 _atom_site_fract_z
 _atom_site_occupancy
  Na  Na0  1  0.36433220  0.36481716  0.25290779  1
  Na  Na1  1  0.63750750  0.63528923  0.74713167  1
  Na  Na2  1  0.99490246  0.35022478  0.74936941  1
  Na  Na3  1  0.29711261  0.34021147  0.58417456  1
  Na  Na4  1  0.02783061  0.69358222  0.58023481  1
  Na  Na5  1  0.67301996  0.96305476  0.58218036  1
  Na  Na6  1  0.29095883  0.96316215  0.08095565  1
  Na  Na7  1  0.66600484  0.69316534  0.08223684  1
  Na  Na8  1  0.04225050  0.34135047  0.08343690  1
  Na  Na9  1  0.32490994  0.29683577  0.91261777  1
  Na  Na10  1  0.97699929  0.30431584  0.41312586  1
  Na  Na11  1  0.69747558  0.67545982  0.41337542  1
  Na  Na12  1  0.00341104  0.99961845  0.49409812  1
  Na  Na13  1  0.99560088  0.98884640  0.99268093  1
  Na  Na14  1  0.65814474  0.31393928  0.83107065  1
  Na  Na15  1  0.66639437  0.32204667  0.33114243  1
  Na  Na16  1  0.32554876  0.66954774  0.17053245  1
  Na  Na17  1  0.33812568  0.66820446  0.66591284  1
  Mg  Mg0  1  0.00530745  0.99780671  0.35264818  1
  Mg  Mg1  1  0.99648982  0.00262719  0.85260343  1
  Mg  Mg2  1  0.99315137  0.00523997  0.65278209  1
  Mg  Mg3  1  0.00446096  0.99626395  0.15196252  1
  Mg  Mg4  1  0.66043509  0.32751274  0.68607687  1
  Mg  Mg5  1  0.67370569  0.34038311  0.18526933  1
  Mg  Mg6  1  0.32999022  0.66461194  0.01446197  1
  Mg  Mg7  1  0.33196917  0.66336876  0.51192017  1
  Mg  Mg8  1  0.33315067  0.67518168  0.32040169  1
  Sn  Sn0  1  0.67081005  0.33909208  0.98009492  1
  Sn  Sn1  1  0.66733962  0.33312938  0.48084719  1
  Sn  Sn2  1  0.33803167  0.67307660  0.81952996  1
  P  P0  1  0.29599699  0.29404243  0.75124077  1
  P  P1  1  0.70410832  0.00020446  0.75011135  1
  P  P2  1  0.96235221  0.33485485  0.58549385  1
  P  P3  1  0.66709405  0.62869683  0.58566936  1
  P  P4  1  0.96130297  0.62667037  0.08526075  1
  P  P5  1  0.37234295  0.33370022  0.08553143  1
  P  P6  1  0.63320341  0.67216916  0.91930525  1
  P  P7  1  0.03701254  0.37056047  0.91799831  1
  P  P8  1  0.33128579  0.96197525  0.92021465  1
  P  P9  1  0.62657994  0.96007355  0.41773528  1
  P  P10  1  0.33213453  0.36991711  0.41627424  1
  P  P11  1  0.04259891  0.67088944  0.41816451  1
  S  S0  1  0.29570950  0.99841455  0.24905337  1
  S  S1  1  0.70389776  0.70603626  0.24975702  1
  S  S2  1  0.99825687  0.29359302  0.24972776  1
  S  S3  1  0.00316985  0.71036165  0.74964759  1
  S  S4  1  0.37173802  0.03849685  0.58501248  1
  S  S5  1  0.66699988  0.04122341  0.08522117  1
  O  O0  1  0.20968004  0.02780974  0.30065070  1
  O  O1  1  0.80820397  0.78999637  0.30358876  1
  O  O2  1  0.97859800  0.18931399  0.30384863  1
  O  O3  1  0.21095627  0.18980588  0.80775717  1
  O  O4  1  0.97962555  0.79336063  0.80220716  1
  O  O5  1  0.81939931  0.02503661  0.80360904  1
  O  O6  1  0.77211554  0.95882376  0.69164608  1
  O  O7  1  0.18616964  0.21784244  0.69373411  1
  O  O8  1  0.02908500  0.80924240  0.69364658  1
  O  O9  1  0.78599672  0.80776582  0.19452190  1
  O  O10  1  0.02371414  0.21112258  0.19476880  1
  O  O11  1  0.19640578  0.97667610  0.19264164  1
  O  O12  1  0.87407345  0.36248877  0.63976027  1
  O  O13  1  0.48445451  0.12239619  0.63629162  1
  O  O14  1  0.63650950  0.51089847  0.63951203  1
  O  O15  1  0.87461795  0.50341865  0.13737058  1
  O  O16  1  0.63713359  0.12418291  0.13681161  1
  O  O17  1  0.48771827  0.36126966  0.13976471  1
  O  O18  1  0.45104067  0.29402851  0.02740257  1
  O  O19  1  0.84396537  0.54921869  0.02726126  1
  O  O20  1  0.70372368  0.15087670  0.02940510  1
  O  O21  1  0.44532814  0.14897551  0.52916905  1
  O  O22  1  0.69910864  0.54679020  0.52681251  1
  O  O23  1  0.84443824  0.29577865  0.52754259  1
  O  O24  1  0.54528539  0.68981021  0.97531279  1
  O  O25  1  0.14755108  0.45668416  0.97330870  1
  O  O26  1  0.31392529  0.85939372  0.97673237  1
  O  O27  1  0.55143153  0.85817958  0.47647159  1
  O  O28  1  0.30582848  0.44955344  0.47407651  1
  O  O29  1  0.13864504  0.69172752  0.47751610  1
  O  O30  1  0.12238792  0.63004178  0.36455158  1
  O  O31  1  0.51548658  0.87700454  0.36302583  1
  O  O32  1  0.37001862  0.48466949  0.36013850  1
  O  O33  1  0.11523656  0.48348252  0.85899039  1
  O  O34  1  0.36702361  0.88370860  0.86226890  1
  O  O35  1  0.51436456  0.62832196  0.86115006  1
  O  O36  1  0.00713627  0.82175607  0.41089787  1
  O  O37  1  0.81190558  0.98586808  0.41119036  1
  O  O38  1  0.16995853  0.19060350  0.40946719  1
  O  O39  1  0.02445834  0.19479326  0.91092899  1
  O  O40  1  0.17679798  0.98843666  0.91227783  1
  O  O41  1  0.81147791  0.82629927  0.91050685  1
  O  O42  1  0.98269092  0.17233824  0.58845341  1
  O  O43  1  0.19797949  0.01920000  0.59074813  1
  O  O44  1  0.83486831  0.80816014  0.58903674  1
  O  O45  1  0.97559594  0.80725117  0.09035135  1
  O  O46  1  0.82205419  0.02205922  0.09092027  1
  O  O47  1  0.18840071  0.17143516  0.08960261  1
  O  O48  1  0.68847301  0.16384279  0.74385122  1
  O  O49  1  0.48323360  0.33069461  0.74551502  1
  O  O50  1  0.84769128  0.53270224  0.74496522  1
  O  O51  1  0.68212854  0.52789303  0.24572440  1
  O  O52  1  0.84370550  0.31160239  0.24427891  1
  O  O53  1  0.46966688  0.16061628  0.24400999  1
  O  O54  1  0.63616685  0.49526372  0.92089099  1
  O  O55  1  0.85370793  0.35289123  0.92118252  1
  O  O56  1  0.49903152  0.14989104  0.92207168  1
  O  O57  1  0.65335571  0.15077069  0.42179693  1
  O  O58  1  0.50326144  0.35794431  0.42215151  1
  O  O59  1  0.85297464  0.49813563  0.42119982  1
  O  O60  1  0.35773853  0.49851620  0.07832261  1
  O  O61  1  0.14402883  0.64993019  0.07787025  1
  O  O62  1  0.51155708  0.86722319  0.07804564  1
  O  O63  1  0.35528357  0.86589551  0.57769918  1
  O  O64  1  0.50636394  0.64943252  0.57885515  1
  O  O65  1  0.14214471  0.49974166  0.57832177  1
  O  O66  1  0.31386027  0.84421201  0.25514902  1
  O  O67  1  0.52661506  0.68252787  0.25362479  1
  O  O68  1  0.16004105  0.46709057  0.25401838  1
  O  O69  1  0.30868126  0.48280359  0.75533718  1
  O  O70  1  0.15828341  0.68437546  0.75435321  1
  O  O71  1  0.51827949  0.82895875  0.75591230  1
loop_
_geom_bond_atom_site_label_1
_geom_bond_atom_site_label_2
_geom_bond_distance
_geom_bond_site_symmetry_2
Na0 O68 2.417654 1_555
Na0 O53 2.442179 1_555
Na0 O67 2.450229 1_555
Na0 O51 2.462459 1_555
Na0 O32 2.597799 1_555
Na0 O17 2.747250 1_555
Na0 O0 2.810737 1_555
Na0 O10 2.940670 1_555
Na1 O49 2.349177 1_555
Na1 O71 2.450753 1_555
Na1 O50 2.469899 1_555
Na1 O69 2.551586 1_555
Na1 O14 2.630382 1_555
Na1 O35 2.746039 1_555
Na1 O6 2.794849 1_555
Na1 O4 2.920179 1_555
Na2 O48 2.390151 1_555
Na2 O69 2.441035 1_655
Na2 O50 2.558568 1_555
Na2 O70 2.579326 1_655
Na2 O33 2.685895 1_655
Na2 O12 2.691021 1_555
Na2 O5 2.785104 1_555
Na2 O7 2.802589 1_655
Na3 O42 2.434528 1_455
Na3 O64 2.436473 1_555
Na3 O65 2.438383 1_555
Na3 O43 2.540669 1_555
Na3 O28 2.620796 1_555
Na3 O7 2.646443 1_555
Na3 O21 2.899760 1_555
Na3 O14 2.900650 1_555
Na4 O65 2.410635 1_555
Na4 O44 2.414438 1_455
Na4 O29 2.487279 1_555
Na4 O43 2.522415 1_565
Na4 O63 2.533539 1_555
Na4 O8 2.717016 1_555
Na4 O22 2.812951 1_455
Na4 O12 2.878439 1_455
Na5 O64 2.421072 1_555
Na5 O42 2.445601 1_565
Na5 O44 2.457369 1_555
Na5 O63 2.522563 1_555
Na5 O27 2.559593 1_555
Na5 O6 2.596929 1_555
Na5 O23 2.839519 1_565
Na5 O13 2.948495 1_565
Na6 O61 2.418046 1_555
Na6 O45 2.447252 1_455
Na6 O47 2.457156 1_565
Na6 O62 2.514741 1_555
Na6 O26 2.536172 1_554
Na6 O11 2.639595 1_555
Na6 O18 2.816573 1_565
Na6 O16 2.955585 1_565
Na7 O60 2.411260 1_555
Na7 O45 2.430222 1_555
Na7 O46 2.544584 1_565
Na7 O62 2.546121 1_555
Na7 O24 2.605447 1_554
Na7 O9 2.704867 1_555
Na7 O19 2.775619 1_555
Na7 O17 2.863470 1_555
Na8 O61 2.429397 1_555
Na8 O60 2.442091 1_555
Na8 O47 2.452823 1_555
Na8 O46 2.525974 1_455
Na8 O25 2.636170 1_554
Na8 O10 2.703073 1_555
Na8 O15 2.815704 1_455
Na8 O20 2.887591 1_455
Na9 O39 2.365073 1_555
Na9 O40 2.378919 1_545
Na9 O54 2.442690 1_555
Na9 O56 2.498191 1_555
Na9 O3 2.529642 1_555
Na9 O18 2.796051 1_556
Na9 O35 2.808638 1_555
Na9 O25 2.934831 1_555
Na10 O38 2.402203 1_655
Na10 O37 2.456557 1_545
Na10 O59 2.484838 1_555
Na10 O57 2.511089 1_555
Na10 O2 2.634893 1_555
Na10 O30 2.739437 1_655
Na10 O23 2.785125 1_555
Na10 O28 2.889427 1_655
Na11 O36 2.396668 1_655
Na11 O37 2.422312 1_555
Na11 O58 2.476400 1_555
Na11 O59 2.584260 1_555
Na11 O1 2.635832 1_555
Na11 O22 2.773797 1_555
Na11 O32 2.806371 1_555
Na11 O27 2.905164 1_555
Na12 O36 2.443136 1_555
Na12 O38 2.469817 1_565
Na12 O37 2.479274 1_455
Na12 O44 2.653889 1_455
Na12 O42 2.658093 1_465
Na12 O43 2.717060 1_565
Na13 O41 2.398158 1_555
Na13 O40 2.408448 1_655
Na13 O39 2.504649 1_665
Na13 O45 2.661381 1_556
Na13 O47 2.728195 1_666
Na13 O46 2.773443 1_566
Na14 O48 2.442363 1_555
Na14 O56 2.480500 1_555
Na14 O49 2.516936 1_555
Na14 O55 2.567721 1_555
Na14 O54 2.633017 1_555
Na14 O50 2.647691 1_555
Na15 O57 2.496870 1_555
Na15 O52 2.524125 1_555
Na15 O53 2.525008 1_555
Na15 O59 2.573621 1_555
Na15 O51 2.596958 1_555
Na15 O58 2.600359 1_555
Na16 O66 2.473033 1_555
Na16 O68 2.490247 1_555
Na16 O67 2.542346 1_555
Na16 O61 2.575875 1_555
Na16 O60 2.650295 1_555
Na16 O62 2.672474 1_555
Na17 O64 2.502281 1_555
Na17 O69 2.514400 1_555
Na17 O71 2.516287 1_555
Na17 O65 2.544566 1_555
Na17 O70 2.583685 1_555
Na17 O63 2.590922 1_555
Mg0 O38 2.043138 1_565
Mg0 O36 2.043251 1_555
Mg0 O0 2.059572 1_565
Mg0 O1 2.109336 1_455
Mg0 O37 2.119873 1_455
Mg0 O2 2.137655 1_465
Mg1 O5 2.015624 1_555
Mg1 O3 2.058147 1_655
Mg1 O39 2.058572 1_655
Mg1 O41 2.060516 1_545
Mg1 O4 2.113380 1_545
Mg1 O40 2.143035 1_645
Mg2 O6 1.998069 1_545
Mg2 O7 2.028615 1_655
Mg2 O42 2.102847 1_555
Mg2 O8 2.134657 1_645
Mg2 O44 2.144287 1_545
Mg2 O43 2.241389 1_655
Mg3 O11 2.026309 1_555
Mg3 O9 2.057244 1_455
Mg3 O10 2.065361 1_565
Mg3 O45 2.081765 1_455
Mg3 O47 2.116113 1_565
Mg3 O46 2.223753 1_465
Mg4 O14 2.037564 1_555
Mg4 O13 2.038241 1_555
Mg4 O12 2.048302 1_555
Mg4 O48 2.054003 1_555
Mg4 O49 2.070174 1_555
Mg4 O50 2.187900 1_555
Mg5 O15 1.960657 1_555
Mg5 O17 2.036201 1_555
Mg5 O16 2.083554 1_555
Mg5 O51 2.113645 1_555
Mg5 O52 2.121713 1_555
Mg5 O53 2.157993 1_555
Mg6 O25 1.974229 1_554
Mg6 O26 1.999842 1_554
Mg6 O24 2.017153 1_554
Mg6 O61 2.128934 1_555
Mg6 O60 2.156212 1_555
Mg6 O62 2.224850 1_555
Mg7 O28 1.985621 1_555
Mg7 O27 2.015180 1_555
Mg7 O29 2.021453 1_555
Mg7 O65 2.165834 1_555
Mg7 O64 2.206481 1_555
Mg7 O63 2.247248 1_555
Mg8 O31 1.961528 1_555
Mg8 O30 1.975743 1_555
Mg8 O32 2.084890 1_555
Mg8 O66 2.162399 1_555
Mg8 O67 2.250878 1_555
Mg8 O68 2.264681 1_555
O0 S0 1.472691 1_545
O1 S1 1.470025 1_555
O2 S2 1.476520 1_555
O3 P0 1.518816 1_555
O4 S3 1.450919 1_655
O5 P1 1.516870 1_555
O6 P1 1.552278 1_565
O7 P0 1.546174 1_555
O8 S3 1.475155 1_555
O9 S1 1.482213 1_555
O10 S2 1.498060 1_455
O11 S0 1.492896 1_555
O12 P2 1.524439 1_555
O13 S4 1.455419 1_555
O14 P3 1.524302 1_555
O15 P4 1.514101 1_555
O16 S5 1.457232 1_555
O17 P5 1.525586 1_555
O18 P5 1.590174 1_555
O18 Sn0 2.079193 1_554
O19 P4 1.585367 1_555
O19 Sn0 2.022928 1_554
O20 S5 1.510349 1_555
O20 Sn0 2.147401 1_554
O21 S4 1.513564 1_555
O21 Sn1 2.123532 1_555
O22 P3 1.589555 1_555
O22 Sn1 2.049877 1_555
O23 P2 1.589686 1_555
O23 Sn1 2.058570 1_555
O24 P6 1.518761 1_555
O25 P7 1.521919 1_555
O26 P8 1.515905 1_555
O27 P9 1.537909 1_555
O28 P10 1.539043 1_555
O29 P11 1.534709 1_555
O30 P11 1.520752 1_555
O31 P9 1.508609 1_555
O32 P10 1.539897 1_555
O33 P7 1.585325 1_555
O33 Sn2 2.051310 1_555
O34 P8 1.569096 1_555
O34 Sn2 2.000067 1_555
O35 P6 1.593501 1_555
O35 Sn2 2.035836 1_555
O36 P11 1.538615 1_555
O37 P9 1.560997 1_555
O38 P10 1.534202 1_555
O39 P7 1.522079 1_555
O40 P8 1.524879 1_555
O41 P6 1.505666 1_555
O42 P2 1.550410 1_555
O43 S4 1.480169 1_555
O44 P3 1.551120 1_555
O45 P4 1.554133 1_555
O46 S5 1.485839 1_555
O47 P5 1.554487 1_555
O48 P1 1.541128 1_555
O49 P0 1.541421 1_555
O50 S3 1.497114 1_655
O51 S1 1.502947 1_555
O52 S2 1.474900 1_555
O53 S0 1.504674 1_545
O54 P6 1.591734 1_555
O54 Sn0 2.051810 1_555
O55 P7 1.567538 1_655
O55 Sn0 2.046109 1_555
O56 P8 1.592172 1_545
O56 Sn0 2.065262 1_555
O57 P9 1.596332 1_545
O57 Sn1 2.041153 1_555
O58 P10 1.592622 1_555
O58 Sn1 2.059544 1_555
O59 P11 1.621385 1_655
O59 Sn1 2.053458 1_555
O60 P5 1.548444 1_555
O61 P4 1.548681 1_455
O62 S5 1.482861 1_565
O63 S4 1.479537 1_565
O64 P3 1.546682 1_555
O65 P2 1.548258 1_455
O66 S0 1.470207 1_555
O67 S1 1.493470 1_555
O68 S2 1.499202 1_455
O69 P0 1.631799 1_555
O69 Sn2 2.126837 1_555
O70 S3 1.520955 1_555
O70 Sn2 2.206404 1_555
O71 P1 1.600157 1_565
O71 Sn2 2.066414 1_555
