# generated using pymatgen
data_NbNi2BO6
_symmetry_space_group_name_H-M   'P 1'
_cell_length_a   4.53939100
_cell_length_b   8.73215100
_cell_length_c   10.21697800
_cell_angle_alpha   90.00000000
_cell_angle_beta   90.00000000
_cell_angle_gamma   90.00000000
_symmetry_Int_Tables_number   1
_chemical_formula_structural   NbNi2BO6
_chemical_formula_sum   'Nb4 Ni8 B4 O24'
_cell_volume   404.98719109
_cell_formula_units_Z   4
loop_
 _symmetry_equiv_pos_site_id
 _symmetry_equiv_pos_as_xyz
  1  'x, y, z'
loop_
 _atom_site_type_symbol
 _atom_site_label
 _atom_site_symmetry_multiplicity
 _atom_site_fract_x
 _atom_site_fract_y
 _atom_site_fract_z
 _atom_site_occupancy
  Nb  Nb0  1  0.52493700  0.75000000  0.41981300  1
  Nb  Nb1  1  0.02493700  0.25000000  0.08018700  1
  Nb  Nb2  1  0.47506300  0.25000000  0.58018700  1
  Nb  Nb3  1  0.97506300  0.75000000  0.91981300  1
  Ni  Ni0  1  0.51975100  0.92993200  0.13595900  1
  Ni  Ni1  1  0.01975100  0.07006800  0.36404100  1
  Ni  Ni2  1  0.48024900  0.42993200  0.86404100  1
  Ni  Ni3  1  0.98024900  0.57006800  0.63595900  1
  Ni  Ni4  1  0.01975100  0.42993200  0.36404100  1
  Ni  Ni5  1  0.51975100  0.57006800  0.13595900  1
  Ni  Ni6  1  0.98024900  0.92993200  0.63595900  1
  Ni  Ni7  1  0.48024900  0.07006800  0.86404100  1
  B  B0  1  0.40998800  0.75000000  0.72628600  1
  B  B1  1  0.90998800  0.25000000  0.77371400  1
  B  B2  1  0.59001200  0.25000000  0.27371400  1
  B  B3  1  0.09001200  0.75000000  0.22628600  1
  O  O0  1  0.24002000  0.08321200  0.53847800  1
  O  O1  1  0.74002000  0.91678800  0.96152200  1
  O  O2  1  0.75998000  0.58321200  0.46152200  1
  O  O3  1  0.25998000  0.41678800  0.03847800  1
  O  O4  1  0.75998000  0.91678800  0.46152200  1
  O  O5  1  0.25998000  0.08321200  0.03847800  1
  O  O6  1  0.24002000  0.41678800  0.53847800  1
  O  O7  1  0.74002000  0.58321200  0.96152200  1
  O  O8  1  0.77138900  0.75000000  0.22705400  1
  O  O9  1  0.27138900  0.25000000  0.27294600  1
  O  O10  1  0.22861100  0.25000000  0.77294600  1
  O  O11  1  0.72861100  0.75000000  0.72705400  1
  O  O12  1  0.21607100  0.75000000  0.08547600  1
  O  O13  1  0.71607100  0.25000000  0.41452400  1
  O  O14  1  0.78392900  0.25000000  0.91452400  1
  O  O15  1  0.28392900  0.75000000  0.58547600  1
  O  O16  1  0.23878700  0.61600400  0.29156400  1
  O  O17  1  0.73878700  0.38399600  0.20843600  1
  O  O18  1  0.76121300  0.11600400  0.70843600  1
  O  O19  1  0.26121300  0.88399600  0.79156400  1
  O  O20  1  0.76121300  0.38399600  0.70843600  1
  O  O21  1  0.26121300  0.61600400  0.79156400  1
  O  O22  1  0.23878700  0.88399600  0.29156400  1
  O  O23  1  0.73878700  0.11600400  0.20843600  1
loop_
_geom_bond_atom_site_label_1
_geom_bond_atom_site_label_2
_geom_bond_distance
_geom_bond_site_symmetry_2
Nb0 O4 1.855030 1_555
Nb0 O2 1.855030 1_555
Nb0 O15 2.015369 1_555
Nb0 O22 2.184780 1_555
Nb0 O16 2.184780 1_555
Nb0 O8 2.264989 1_555
Nb1 O3 1.855030 1_555
Nb1 O5 1.855030 1_555
Nb1 O14 2.015369 1_454
Nb1 O17 2.184780 1_455
Nb1 O23 2.184780 1_455
Nb1 O9 2.264989 1_555
Nb2 O0 1.855030 1_555
Nb2 O6 1.855030 1_555
Nb2 O13 2.015369 1_555
Nb2 O20 2.184780 1_555
Nb2 O18 2.184780 1_555
Nb2 O10 2.264989 1_555
Nb3 O1 1.855030 1_555
Nb3 O7 1.855030 1_555
Nb3 O12 2.015369 1_656
Nb3 O21 2.184780 1_655
Nb3 O19 2.184780 1_655
Nb3 O11 2.264989 1_555
Ni0 O5 2.043023 1_565
Ni0 O23 2.043759 1_565
Ni0 O1 2.046766 1_554
Ni0 O22 2.077273 1_555
Ni0 O12 2.152906 1_555
Ni0 O8 2.153994 1_555
Ni1 O4 2.043023 1_445
Ni1 O22 2.043759 1_545
Ni1 O0 2.046766 1_555
Ni1 O23 2.077273 1_455
Ni1 O13 2.152906 1_455
Ni1 O9 2.153994 1_555
Ni2 O7 2.043023 1_555
Ni2 O21 2.043759 1_555
Ni2 O3 2.046766 1_556
Ni2 O20 2.077273 1_555
Ni2 O14 2.152906 1_555
Ni2 O10 2.153994 1_555
Ni3 O6 2.043023 1_655
Ni3 O20 2.043759 1_555
Ni3 O2 2.046766 1_555
Ni3 O21 2.077273 1_655
Ni3 O15 2.152906 1_655
Ni3 O11 2.153994 1_555
Ni4 O2 2.043023 1_455
Ni4 O16 2.043759 1_555
Ni4 O6 2.046766 1_555
Ni4 O17 2.077273 1_455
Ni4 O13 2.152906 1_455
Ni4 O9 2.153994 1_555
Ni5 O3 2.043023 1_555
Ni5 O17 2.043759 1_555
Ni5 O7 2.046766 1_554
Ni5 O16 2.077273 1_555
Ni5 O12 2.152906 1_555
Ni5 O8 2.153994 1_555
Ni6 O0 2.043023 1_665
Ni6 O18 2.043759 1_565
Ni6 O4 2.046766 1_555
Ni6 O19 2.077273 1_655
Ni6 O15 2.152906 1_655
Ni6 O11 2.153994 1_555
Ni7 O1 2.043023 1_545
Ni7 O19 2.043759 1_545
Ni7 O5 2.046766 1_556
Ni7 O18 2.077273 1_555
Ni7 O14 2.152906 1_555
Ni7 O10 2.153994 1_555
B0 O11 1.446376 1_555
B0 O19 1.506645 1_555
B0 O21 1.506645 1_555
B0 O15 1.548280 1_555
B1 O10 1.446376 1_655
B1 O18 1.506645 1_555
B1 O20 1.506645 1_555
B1 O14 1.548280 1_555
B2 O9 1.446376 1_555
B2 O23 1.506645 1_555
B2 O17 1.506645 1_555
B2 O13 1.548280 1_555
B3 O8 1.446376 1_455
B3 O16 1.506645 1_555
B3 O22 1.506645 1_555
B3 O12 1.548280 1_555
