# generated using pymatgen
data_Na5Nb2In2Si3(PO8)3
_symmetry_space_group_name_H-M   'P 1'
_cell_length_a   9.05248700
_cell_length_b   9.06487338
_cell_length_c   22.73806828
_cell_angle_alpha   89.87975237
_cell_angle_beta   90.15150395
_cell_angle_gamma   119.73852285
_symmetry_Int_Tables_number   1
_chemical_formula_structural   Na5Nb2In2Si3(PO8)3
_chemical_formula_sum   'Na15 Nb6 In6 Si9 P9 O72'
_cell_volume   1620.13207620
_cell_formula_units_Z   3
loop_
 _symmetry_equiv_pos_site_id
 _symmetry_equiv_pos_as_xyz
  1  'x, y, z'
loop_
 _atom_site_type_symbol
 _atom_site_label
 _atom_site_symmetry_multiplicity
 _atom_site_fract_x
 _atom_site_fract_y
 _atom_site_fract_z
 _atom_site_occupancy
  Na  Na0  1  0.99054000  0.62819515  0.24577507  1
  Na  Na1  1  0.36943587  0.01024978  0.74598864  1
  Na  Na2  1  0.03852909  0.69629975  0.57984908  1
  Na  Na3  1  0.64970236  0.96102629  0.58091728  1
  Na  Na4  1  0.30179536  0.96003156  0.07966815  1
  Na  Na5  1  0.03650169  0.35007575  0.08270472  1
  Na  Na6  1  0.97699606  0.67596370  0.91613634  1
  Na  Na7  1  0.97022050  0.29672781  0.41181235  1
  Na  Na8  1  0.32611756  0.02420305  0.41606260  1
  Na  Na9  1  0.99183921  0.99147991  0.49457045  1
  Na  Na10  1  0.99511175  0.00214742  0.99371921  1
  Na  Na11  1  0.67149679  0.32839487  0.82897973  1
  Na  Na12  1  0.66317520  0.33070684  0.32757666  1
  Na  Na13  1  0.34931356  0.66070199  0.16295061  1
  Na  Na14  1  0.33737538  0.64859514  0.66233330  1
  Nb  Nb0  1  0.99930127  0.00173268  0.64703670  1
  Nb  Nb1  1  0.99802376  0.00043337  0.14670356  1
  Nb  Nb2  1  0.65740678  0.33001162  0.97929781  1
  Nb  Nb3  1  0.66492239  0.33837573  0.47977550  1
  Nb  Nb4  1  0.33427210  0.66652539  0.31322224  1
  Nb  Nb5  1  0.34043225  0.67019099  0.81311580  1
  In  In0  1  0.99063973  0.99547415  0.35029804  1
  In  In1  1  -0.00022434  0.00758060  0.85140490  1
  In  In2  1  0.66917269  0.33543325  0.68545134  1
  In  In3  1  0.66498435  0.33090696  0.18478560  1
  In  In4  1  0.33571160  0.66560651  0.01661747  1
  In  In5  1  0.33766902  0.66689467  0.51726635  1
  Si  Si0  1  0.00033058  0.29507685  0.25191002  1
  Si  Si1  1  0.70942949  0.00295725  0.75135190  1
  Si  Si2  1  0.37133123  0.04234603  0.58503636  1
  Si  Si3  1  0.66338053  0.62331988  0.58559163  1
  Si  Si4  1  0.95658405  0.62696662  0.08402169  1
  Si  Si5  1  0.37576744  0.33655235  0.08537735  1
  Si  Si6  1  0.33478932  0.96286478  0.91774540  1
  Si  Si7  1  0.62880210  0.96110559  0.41848305  1
  Si  Si8  1  0.03818132  0.66674205  0.41791944  1
  P  P0  1  0.29328269  0.00013753  0.25153595  1
  P  P1  1  0.70529823  0.70903507  0.24959351  1
  P  P2  1  0.28904233  0.29348028  0.75064784  1
  P  P3  1  0.00091729  0.70676812  0.75203084  1
  P  P4  1  0.95779592  0.33132668  0.58283105  1
  P  P5  1  0.66848289  0.04346749  0.08311077  1
  P  P6  1  0.62486517  0.66409412  0.91684768  1
  P  P7  1  0.03963066  0.37474625  0.91742864  1
  P  P8  1  0.33713515  0.37846242  0.41625090  1
  O  O0  1  0.21369875  0.01985398  0.30766651  1
  O  O1  1  0.81642188  0.78124796  0.30390608  1
  O  O2  1  0.97965421  0.19397581  0.31140183  1
  O  O3  1  0.21637597  0.18152731  0.80445548  1
  O  O4  1  0.98127076  0.78580789  0.80784111  1
  O  O5  1  0.81666507  0.02564012  0.80808230  1
  O  O6  1  0.80317415  0.97604985  0.69153399  1
  O  O7  1  0.17050965  0.19811526  0.69589187  1
  O  O8  1  0.03111820  0.82809765  0.69687907  1
  O  O9  1  0.80131779  0.82751365  0.19536110  1
  O  O10  1  0.02178990  0.19263674  0.19321953  1
  O  O11  1  0.17189796  0.97014153  0.19653684  1
  O  O12  1  0.88162069  0.36495444  0.63691503  1
  O  O13  1  0.48781561  0.11472274  0.64245596  1
  O  O14  1  0.64576124  0.51851393  0.64272617  1
  O  O15  1  0.88615671  0.51190859  0.14200102  1
  O  O16  1  0.63390583  0.11588625  0.13793279  1
  O  O17  1  0.48215000  0.35735090  0.14234379  1
  O  O18  1  0.46983862  0.29985847  0.02729496  1
  O  O19  1  0.83399743  0.52763883  0.02529108  1
  O  O20  1  0.70011693  0.16447989  0.02895213  1
  O  O21  1  0.47195722  0.16592605  0.52617936  1
  O  O22  1  0.69933547  0.53003461  0.52744761  1
  O  O23  1  0.84049189  0.29992162  0.52709280  1
  O  O24  1  0.54780757  0.69027914  0.97211429  1
  O  O25  1  0.13517413  0.44798502  0.97525795  1
  O  O26  1  0.30049865  0.85108996  0.97616393  1
  O  O27  1  0.55413237  0.86120794  0.47857128  1
  O  O28  1  0.29817685  0.44981909  0.47031335  1
  O  O29  1  0.14654340  0.69492686  0.47671666  1
  O  O30  1  0.13698407  0.63411540  0.35975880  1
  O  O31  1  0.49675921  0.85647726  0.36222804  1
  O  O32  1  0.36215042  0.49401707  0.36134944  1
  O  O33  1  0.13869222  0.49725623  0.86467834  1
  O  O34  1  0.35921815  0.85825965  0.85958659  1
  O  O35  1  0.50782940  0.63998385  0.86208982  1
  O  O36  1  0.02887556  0.83830523  0.41020617  1
  O  O37  1  0.82368636  0.00368995  0.41390654  1
  O  O38  1  0.18866204  0.19710065  0.40926609  1
  O  O39  1  0.01300206  0.19612828  0.91231903  1
  O  O40  1  0.16391732  0.97566451  0.91032612  1
  O  O41  1  0.80699011  0.81017368  0.91070505  1
  O  O42  1  0.96327026  0.16133618  0.58865382  1
  O  O43  1  0.18234052  0.02782212  0.59128594  1
  O  O44  1  0.84653195  0.81515460  0.59069446  1
  O  O45  1  0.97303786  0.81730884  0.09148969  1
  O  O46  1  0.83894491  0.03775307  0.08864050  1
  O  O47  1  0.18455558  0.15364172  0.09080096  1
  O  O48  1  0.66493324  0.15474320  0.74667140  1
  O  O49  1  0.46602652  0.31435001  0.74383365  1
  O  O50  1  0.85046051  0.52829636  0.74496345  1
  O  O51  1  0.68527474  0.53247640  0.24341598  1
  O  O52  1  0.84336075  0.33235214  0.24708922  1
  O  O53  1  0.47106478  0.14978916  0.24478410  1
  O  O54  1  0.63759426  0.49647801  0.92145192  1
  O  O55  1  0.86444082  0.37284220  0.92041746  1
  O  O56  1  0.51208893  0.14882455  0.92330175  1
  O  O57  1  0.63231126  0.14838623  0.42177412  1
  O  O58  1  0.50331230  0.36560494  0.42186968  1
  O  O59  1  0.85462267  0.48658054  0.42252765  1
  O  O60  1  0.33323999  0.48785727  0.07774746  1
  O  O61  1  0.14980262  0.65968800  0.07809784  1
  O  O62  1  0.51508598  0.86661892  0.07546716  1
  O  O63  1  0.33733625  0.84949623  0.57949279  1
  O  O64  1  0.50954036  0.66242737  0.58003630  1
  O  O65  1  0.13463608  0.48492561  0.57557169  1
  O  O66  1  0.29655371  0.82707404  0.25505486  1
  O  O67  1  0.52971612  0.70046260  0.25543697  1
  O  O68  1  0.17878849  0.48704395  0.25599109  1
  O  O69  1  0.29796791  0.46917614  0.75694511  1
  O  O70  1  0.17293628  0.70110371  0.75564161  1
  O  O71  1  0.51524121  0.82142074  0.75748494  1
loop_
_geom_bond_atom_site_label_1
_geom_bond_atom_site_label_2
_geom_bond_distance
_geom_bond_site_symmetry_2
Na0 O52 2.328750 1_555
Na0 O66 2.452038 1_655
Na0 O51 2.452104 1_555
Na0 O15 2.565607 1_555
Na0 O68 2.599036 1_655
Na0 O1 2.888713 1_555
Na0 O30 2.896449 1_655
Na0 O11 2.916067 1_655
Na1 O48 2.322771 1_555
Na1 O49 2.444246 1_555
Na1 O70 2.473797 1_545
Na1 O13 2.566000 1_555
Na1 O71 2.641615 1_545
Na1 O3 2.872352 1_555
Na1 O8 2.885426 1_545
Na1 O34 2.904924 1_545
Na2 O63 2.349199 1_555
Na2 O65 2.468354 1_555
Na2 O44 2.470543 1_455
Na2 O29 2.545533 1_555
Na2 O43 2.629419 1_565
Na2 O12 2.912678 1_455
Na2 O22 2.918302 1_455
Na2 O8 2.933735 1_555
Na3 O64 2.351541 1_555
Na3 O63 2.486460 1_555
Na3 O27 2.490865 1_555
Na3 O42 2.504148 1_565
Na3 O44 2.703116 1_555
Na3 O6 2.840817 1_555
Na3 O13 2.844526 1_565
Na3 O23 2.941061 1_565
Na4 O61 2.364446 1_555
Na4 O62 2.465261 1_555
Na4 O47 2.474241 1_565
Na4 O26 2.551937 1_554
Na4 O45 2.604995 1_455
Na4 O16 2.926208 1_565
Na4 O18 2.926918 1_565
Na4 O11 2.928685 1_555
Na5 O60 2.336871 1_555
Na5 O61 2.466463 1_555
Na5 O46 2.491699 1_455
Na5 O25 2.602002 1_554
Na5 O47 2.714009 1_555
Na5 O15 2.796610 1_455
Na5 O10 2.857853 1_555
Na5 O20 2.916068 1_455
Na6 O40 2.387559 1_655
Na6 O41 2.391582 1_555
Na6 O55 2.412400 1_555
Na6 O4 2.647354 1_555
Na6 O54 2.672719 1_555
Na6 O19 2.814238 1_556
Na6 O26 2.887044 1_655
Na6 O33 2.916392 1_655
Na7 O37 2.306971 1_555
Na7 O59 2.430228 1_555
Na7 O2 2.485250 1_555
Na7 O38 2.549853 1_655
Na7 O57 2.671727 1_555
Na7 O23 2.881194 1_555
Na7 O28 2.899770 1_655
Na7 O30 2.906429 1_655
Na8 O36 2.366077 1_545
Na8 O57 2.422848 1_555
Na8 O38 2.441588 1_555
Na8 O0 2.656949 1_555
Na8 O58 2.691414 1_555
Na8 O21 2.824183 1_555
Na8 O31 2.923031 1_545
Na8 O29 2.938498 1_545
Na9 O37 2.417634 1_565
Na9 O36 2.489295 1_655
Na9 O44 2.641384 1_555
Na9 O38 2.668227 1_665
Na9 O43 2.708869 1_665
Na9 O42 2.725057 1_565
Na10 O39 2.499882 1_655
Na10 O40 2.523786 1_645
Na10 O41 2.558932 1_545
Na10 O46 2.689392 1_556
Na10 O47 2.712195 1_656
Na10 O45 2.728395 1_546
Na11 O48 2.429617 1_555
Na11 O50 2.578205 1_555
Na11 O55 2.611878 1_555
Na11 O49 2.640312 1_555
Na11 O56 2.646342 1_555
Na11 O54 2.705100 1_555
Na12 O52 2.449838 1_555
Na12 O53 2.534577 1_555
Na12 O51 2.582964 1_555
Na12 O57 2.631981 1_555
Na12 O59 2.687926 1_555
Na12 O58 2.695308 1_555
Na13 O60 2.452448 1_555
Na13 O67 2.573016 1_555
Na13 O62 2.629518 1_555
Na13 O68 2.632317 1_555
Na13 O61 2.636226 1_555
Na13 O66 2.760747 1_555
Na14 O64 2.401447 1_555
Na14 O65 2.598688 1_555
Na14 O69 2.610419 1_555
Na14 O63 2.617417 1_555
Na14 O71 2.687223 1_555
Na14 O70 2.769064 1_555
Nb0 O6 1.956662 1_545
Nb0 O43 2.007363 1_655
Nb0 O7 2.016719 1_655
Nb0 O44 2.023254 1_545
Nb0 O8 2.070102 1_645
Nb0 O42 2.102304 1_555
Nb1 O10 1.958377 1_655
Nb1 O45 2.004416 1_545
Nb1 O47 2.018222 1_655
Nb1 O9 2.021375 1_545
Nb1 O11 2.062728 1_645
Nb1 O46 2.098247 1_555
Nb2 O18 1.922747 1_556
Nb2 O56 1.976277 1_555
Nb2 O19 2.004095 1_556
Nb2 O20 2.059596 1_556
Nb2 O54 2.073206 1_555
Nb2 O55 2.178282 1_555
Nb3 O22 1.938981 1_555
Nb3 O21 1.975380 1_555
Nb3 O59 2.040581 1_555
Nb3 O58 2.069184 1_555
Nb3 O57 2.072593 1_555
Nb3 O23 2.084249 1_555
Nb4 O31 1.963881 1_555
Nb4 O30 1.970723 1_555
Nb4 O68 2.012195 1_555
Nb4 O32 2.022243 1_555
Nb4 O67 2.102836 1_555
Nb4 O66 2.113402 1_555
Nb5 O34 1.941864 1_555
Nb5 O71 1.958230 1_555
Nb5 O35 2.003197 1_555
Nb5 O33 2.081018 1_555
Nb5 O69 2.100385 1_555
Nb5 O70 2.120123 1_555
In0 O2 2.049461 1_565
In0 O1 2.081468 1_555
In0 O36 2.117496 1_655
In0 O37 2.122561 1_565
In0 O0 2.152337 1_665
In0 O38 2.258074 1_665
In1 O5 2.001182 1_455
In1 O3 2.099357 1_555
In1 O40 2.121521 1_545
In1 O39 2.158709 1_555
In1 O4 2.173504 1_445
In1 O41 2.229363 1_445
In2 O14 2.020908 1_555
In2 O13 2.096422 1_555
In2 O12 2.118403 1_555
In2 O48 2.133162 1_555
In2 O50 2.175458 1_555
In2 O49 2.200862 1_555
In3 O17 2.027890 1_555
In3 O15 2.095635 1_555
In3 O16 2.115736 1_555
In3 O52 2.140449 1_555
In3 O53 2.186845 1_555
In3 O51 2.196733 1_555
In4 O26 2.073268 1_554
In4 O24 2.084152 1_554
In4 O60 2.117485 1_555
In4 O25 2.125433 1_554
In4 O61 2.170705 1_555
In4 O62 2.193372 1_555
In5 O27 2.072410 1_555
In5 O29 2.082043 1_555
In5 O28 2.109170 1_555
In5 O64 2.123667 1_555
In5 O63 2.180977 1_555
In5 O65 2.202856 1_555
O0 P0 1.521010 1_555
O1 P1 1.519574 1_555
O2 Si0 1.590842 1_655
O3 P2 1.515347 1_555
O4 P3 1.512222 1_655
O5 Si1 1.563664 1_555
O6 Si1 1.685969 1_565
O7 P2 1.589344 1_555
O8 P3 1.598352 1_555
O9 P1 1.582277 1_555
O10 Si0 1.693073 1_555
O11 P0 1.594693 1_565
O12 P4 1.515044 1_555
O13 Si2 1.599046 1_555
O14 Si3 1.568872 1_555
O15 Si4 1.603523 1_555
O16 P5 1.513986 1_555
O17 Si5 1.566871 1_555
O18 Si5 1.693762 1_555
O19 Si4 1.682694 1_555
O20 P5 1.576826 1_555
O21 Si2 1.692194 1_555
O22 Si3 1.687879 1_555
O23 P4 1.584109 1_555
O24 P6 1.514026 1_555
O25 P7 1.531614 1_555
O26 Si6 1.603723 1_555
O27 Si7 1.592519 1_555
O28 P8 1.511900 1_555
O29 Si8 1.600245 1_555
O30 Si8 1.704897 1_555
O31 Si7 1.684277 1_555
O32 P8 1.570852 1_555
O33 P7 1.577408 1_555
O34 Si6 1.706366 1_555
O35 P6 1.576364 1_555
O36 Si8 1.607871 1_555
O37 Si7 1.611638 1_545
O38 P8 1.530461 1_555
O39 P7 1.518775 1_555
O40 Si6 1.615907 1_555
O41 P6 1.525024 1_555
O42 P4 1.571419 1_555
O43 Si2 1.655969 1_555
O44 Si3 1.710503 1_555
O45 Si4 1.665609 1_555
O46 P5 1.574139 1_555
O47 Si5 1.706903 1_555
O48 Si1 1.617321 1_555
O49 P2 1.525504 1_555
O50 P3 1.520569 1_655
O51 P1 1.525492 1_555
O52 Si0 1.618857 1_655
O53 P0 1.512751 1_555
O54 P6 1.582984 1_555
O55 P7 1.579055 1_655
O56 Si6 1.658091 1_545
O57 Si7 1.683962 1_545
O58 P8 1.570267 1_555
O59 Si8 1.657469 1_655
O60 Si5 1.606852 1_555
O61 Si4 1.628459 1_455
O62 P5 1.523102 1_565
O63 Si2 1.622853 1_565
O64 Si3 1.603039 1_555
O65 P4 1.522409 1_455
O66 P0 1.585545 1_565
O67 P1 1.558395 1_555
O68 Si0 1.690412 1_555
O69 P2 1.561035 1_555
O70 P3 1.585206 1_555
O71 Si1 1.716995 1_565
