# generated using pymatgen
data_Ba3MgCr2O8
_symmetry_space_group_name_H-M   'P 1'
_cell_length_a   8.28114015
_cell_length_b   8.28138203
_cell_length_c   8.28218619
_cell_angle_alpha   41.62744935
_cell_angle_beta   41.63291099
_cell_angle_gamma   41.63965121
_symmetry_Int_Tables_number   1
_chemical_formula_structural   Ba3MgCr2O8
_chemical_formula_sum   'Ba3 Mg1 Cr2 O8'
_cell_volume   226.60584944
_cell_formula_units_Z   1
loop_
 _symmetry_equiv_pos_site_id
 _symmetry_equiv_pos_as_xyz
  1  'x, y, z'
loop_
 _atom_site_type_symbol
 _atom_site_label
 _atom_site_symmetry_multiplicity
 _atom_site_fract_x
 _atom_site_fract_y
 _atom_site_fract_z
 _atom_site_occupancy
  Ba  Ba0  1  0.79474000  0.79593600  0.79558600  1
  Ba  Ba1  1  0.20388900  0.20517900  0.20466700  1
  Ba  Ba2  1  0.99606800  0.01043400  0.99347800  1
  Mg  Mg0  1  0.49958700  0.50077800  0.49963600  1
  Cr  Cr0  1  0.60636700  0.60742400  0.60679600  1
  Cr  Cr1  1  0.39297500  0.39325900  0.39315400  1
  O  O0  1  0.68751100  0.67153100  0.68974100  1
  O  O1  1  0.32095900  0.30578300  0.32448100  1
  O  O2  1  0.28313500  0.28288900  0.74290700  1
  O  O3  1  0.28239900  0.74315300  0.28243400  1
  O  O4  1  0.74252100  0.28313200  0.28345700  1
  O  O5  1  0.71615100  0.25763000  0.71685700  1
  O  O6  1  0.71713900  0.71738000  0.25722200  1
  O  O7  1  0.25655800  0.71715900  0.71791800  1
loop_
_geom_bond_atom_site_label_1
_geom_bond_atom_site_label_2
_geom_bond_distance
_geom_bond_site_symmetry_2
Ba0 O0 2.549422 1_555
Ba0 O5 2.942044 1_565
Ba0 O7 2.947215 1_655
Ba0 O6 2.947527 1_556
Ba0 O2 2.999711 1_565
Ba0 O4 3.001110 1_565
Ba0 O3 3.002446 1_556
Ba0 O4 3.004768 1_556
Ba0 O3 3.007479 1_655
Ba0 O2 3.008148 1_655
Ba1 O1 2.549507 1_555
Ba1 O4 2.942157 1_455
Ba1 O2 2.944650 1_554
Ba1 O3 2.949755 1_545
Ba1 O7 3.000304 1_554
Ba1 O6 3.001879 1_455
Ba1 O5 3.002938 1_455
Ba1 O5 3.003000 1_554
Ba1 O6 3.007809 1_545
Ba1 O7 3.007869 1_545
Ba2 O5 2.940627 1_555
Ba2 O2 2.948107 1_655
Ba2 O4 2.959647 1_556
Ba2 O7 2.976070 1_645
Ba2 O6 2.984636 1_546
Ba2 O3 2.994632 1_646
Ba2 O0 3.307682 1_555
Ba2 O1 3.348612 1_655
Ba2 O1 3.380616 1_556
Ba2 O0 3.463311 1_645
Ba2 O0 3.486729 1_546
Ba2 O1 3.528454 1_646
Mg0 O5 2.125390 1_555
Mg0 O4 2.126472 1_555
Mg0 O2 2.128164 1_555
Mg0 O6 2.129226 1_555
Mg0 O3 2.131281 1_555
Mg0 O7 2.131566 1_555
Cr0 O0 1.724466 1_555
Cr0 O6 1.841255 1_555
Cr0 O7 1.842472 1_555
Cr0 O5 1.844918 1_555
Cr1 O1 1.724147 1_555
Cr1 O3 1.841895 1_555
Cr1 O4 1.843304 1_555
Cr1 O2 1.843811 1_555
