# generated using pymatgen
data_Na7Y3Mg(PO4)6
_symmetry_space_group_name_H-M   'P 1'
_cell_length_a   9.29573014
_cell_length_b   9.28271338
_cell_length_c   22.98712498
_cell_angle_alpha   89.71355325
_cell_angle_beta   90.02693346
_cell_angle_gamma   120.07230806
_symmetry_Int_Tables_number   1
_chemical_formula_structural   Na7Y3Mg(PO4)6
_chemical_formula_sum   'Na21 Y9 Mg3 P18 O72'
_cell_volume   1716.52530418
_cell_formula_units_Z   3
loop_
 _symmetry_equiv_pos_site_id
 _symmetry_equiv_pos_as_xyz
  1  'x, y, z'
loop_
 _atom_site_type_symbol
 _atom_site_label
 _atom_site_symmetry_multiplicity
 _atom_site_fract_x
 _atom_site_fract_y
 _atom_site_fract_z
 _atom_site_occupancy
  Na  Na0  1  0.63729055  0.01006766  0.24424472  1
  Na  Na1  1  0.37302141  0.36147832  0.24550448  1
  Na  Na2  1  0.98830717  0.62801128  0.24318636  1
  Na  Na3  1  0.63896763  0.62729524  0.74363854  1
  Na  Na4  1  0.98696795  0.35995797  0.74583117  1
  Na  Na5  1  0.37640644  0.01341792  0.74403948  1
  Na  Na6  1  0.02716897  0.69670331  0.58615416  1
  Na  Na7  1  0.66623373  0.97046287  0.58560740  1
  Na  Na8  1  0.30581028  0.97241597  0.08655797  1
  Na  Na9  1  0.66872044  0.69541565  0.08675239  1
  Na  Na10  1  0.69506470  0.02948168  0.92030547  1
  Na  Na11  1  0.33448844  0.30269871  0.91907257  1
  Na  Na12  1  0.96957910  0.29256821  0.41020396  1
  Na  Na13  1  0.32194349  0.02843751  0.41122662  1
  Na  Na14  1  0.70985410  0.67993687  0.41033304  1
  Na  Na15  1  0.01191487  0.01152834  0.49610834  1
  Na  Na16  1  0.99991073  0.99933188  0.00182391  1
  Na  Na17  1  0.67851515  0.34501943  0.83173070  1
  Na  Na18  1  0.66660242  0.33323846  0.32483404  1
  Na  Na19  1  0.31886757  0.65249165  0.16376848  1
  Na  Na20  1  0.33359993  0.65320878  0.66374978  1
  Y  Y0  1  0.00034382  0.99100158  0.84878932  1
  Y  Y1  1  0.00898249  0.00919504  0.64907170  1
  Y  Y2  1  0.00044254  0.01048771  0.15111270  1
  Y  Y3  1  0.68068767  0.34251340  0.98551446  1
  Y  Y4  1  0.66164134  0.33378291  0.48571594  1
  Y  Y5  1  0.31987117  0.65744189  0.01897057  1
  Y  Y6  1  0.33272131  0.65753753  0.51755294  1
  Y  Y7  1  0.33392690  0.66781035  0.31734094  1
  Y  Y8  1  0.32863420  0.66736548  0.81836364  1
  Mg  Mg0  1  0.00028491  0.00024182  0.34633893  1
  Mg  Mg1  1  0.66259564  0.33301301  0.68025306  1
  Mg  Mg2  1  0.67071254  0.33274315  0.18132386  1
  P  P0  1  0.30120112  0.00631624  0.25131603  1
  P  P1  1  0.70432359  0.69893804  0.25205109  1
  P  P2  1  0.99357811  0.29728433  0.25446572  1
  P  P3  1  0.30990717  0.30420366  0.75135032  1
  P  P4  1  0.99358930  0.69022000  0.74572834  1
  P  P5  1  0.69811226  0.00513730  0.74862793  1
  P  P6  1  0.95862159  0.33530717  0.58592202  1
  P  P7  1  0.37008751  0.03142675  0.58551421  1
  P  P8  1  0.66765994  0.63291576  0.58666210  1
  P  P9  1  0.96413871  0.63366415  0.09013985  1
  P  P10  1  0.66221318  0.03298979  0.08554770  1
  P  P11  1  0.37793895  0.33452326  0.08575516  1
  P  P12  1  0.63084942  0.66677701  0.91738938  1
  P  P13  1  0.02948462  0.35850198  0.91329398  1
  P  P14  1  0.33655932  0.97327859  0.91779021  1
  P  P15  1  0.64172120  0.96918565  0.41649908  1
  P  P16  1  0.32626577  0.35707613  0.41336725  1
  P  P17  1  0.03179150  0.67281832  0.41671396  1
  O  O0  1  0.21349643  0.02492911  0.30538159  1
  O  O1  1  0.81035790  0.78730177  0.30609281  1
  O  O2  1  0.97478298  0.19467969  0.30983174  1
  O  O3  1  0.23101214  0.20197208  0.80767305  1
  O  O4  1  0.97054044  0.78011208  0.79820583  1
  O  O5  1  0.80511259  0.02669526  0.80332684  1
  O  O6  1  0.78160836  0.97668538  0.69508684  1
  O  O7  1  0.18977931  0.21463990  0.70074475  1
  O  O8  1  0.02277503  0.79812836  0.69090505  1
  O  O9  1  0.78400327  0.80545905  0.19677737  1
  O  O10  1  0.02474743  0.21476660  0.20184108  1
  O  O11  1  0.19510853  0.97934427  0.19618320  1
  O  O12  1  0.86819527  0.35102789  0.63926167  1
  O  O13  1  0.47529839  0.12287209  0.63894108  1
  O  O14  1  0.65449085  0.52976176  0.64066730  1
  O  O15  1  0.87924621  0.53380302  0.14524703  1
  O  O16  1  0.64878753  0.12480814  0.13894302  1
  O  O17  1  0.48521080  0.35165382  0.13910221  1
  O  O18  1  0.45699527  0.31673417  0.02883993  1
  O  O19  1  0.86028845  0.54808697  0.03572417  1
  O  O20  1  0.67832174  0.12808343  0.02831349  1
  O  O21  1  0.44939554  0.12640948  0.52840560  1
  O  O22  1  0.68447226  0.55199359  0.53023051  1
  O  O23  1  0.86121317  0.31750445  0.52928477  1
  O  O24  1  0.54244225  0.68526521  0.97140973  1
  O  O25  1  0.14321557  0.45381149  0.96457543  1
  O  O26  1  0.32077585  0.86884327  0.97210371  1
  O  O27  1  0.55519198  0.86105635  0.47109073  1
  O  O28  1  0.30235768  0.44747201  0.46551513  1
  O  O29  1  0.13840622  0.69419052  0.47149029  1
  O  O30  1  0.11557398  0.64418129  0.36340851  1
  O  O31  1  0.53053370  0.88597272  0.36283055  1
  O  O32  1  0.35657062  0.46427296  0.35821483  1
  O  O33  1  0.10607626  0.45259746  0.85587490  1
  O  O34  1  0.35165654  0.88750444  0.86230302  1
  O  O35  1  0.52763751  0.64858655  0.86218407  1
  O  O36  1  0.01739528  0.83115721  0.41041460  1
  O  O37  1  0.81437449  0.98370865  0.41098886  1
  O  O38  1  0.16954442  0.18279819  0.40948928  1
  O  O39  1  0.01598703  0.18440787  0.91333334  1
  O  O40  1  0.18508370  0.00018001  0.91524263  1
  O  O41  1  0.80222834  0.82824533  0.91395260  1
  O  O42  1  0.97286460  0.17584246  0.58818730  1
  O  O43  1  0.18974932  0.00030491  0.58712902  1
  O  O44  1  0.82724803  0.80933538  0.58774696  1
  O  O45  1  0.98161498  0.81020948  0.08971880  1
  O  O46  1  0.81052815  0.00008806  0.08751760  1
  O  O47  1  0.20418641  0.17483258  0.08842971  1
  O  O48  1  0.68161112  0.16228031  0.74311675  1
  O  O49  1  0.48182194  0.31860511  0.74353622  1
  O  O50  1  0.83718074  0.51581882  0.74249034  1
  O  O51  1  0.68549882  0.52326336  0.24743912  1
  O  O52  1  0.83475501  0.31133855  0.24708004  1
  O  O53  1  0.47694972  0.16350905  0.24598909  1
  O  O54  1  0.64304515  0.50696206  0.92030312  1
  O  O55  1  0.85183896  0.33129607  0.91816021  1
  O  O56  1  0.49734629  0.14694607  0.91959336  1
  O  O57  1  0.66100447  0.14543154  0.42048798  1
  O  O58  1  0.48333874  0.33937165  0.41976849  1
  O  O59  1  0.85498408  0.51654745  0.42077480  1
  O  O60  1  0.36446703  0.49522787  0.08288848  1
  O  O61  1  0.14336668  0.66131068  0.08556597  1
  O  O62  1  0.49939637  0.85794248  0.08371389  1
  O  O63  1  0.35783825  0.85671129  0.58334604  1
  O  O64  1  0.51600356  0.66083285  0.58372826  1
  O  O65  1  0.13206085  0.49645989  0.58283941  1
  O  O66  1  0.32228342  0.84922378  0.25492204  1
  O  O67  1  0.52633881  0.67836674  0.25496142  1
  O  O68  1  0.14876415  0.47692154  0.25597821  1
  O  O69  1  0.33119004  0.48168935  0.75359879  1
  O  O70  1  0.15159367  0.67343300  0.75189918  1
  O  O71  1  0.52134947  0.84799500  0.75316731  1
loop_
_geom_bond_atom_site_label_1
_geom_bond_atom_site_label_2
_geom_bond_distance
_geom_bond_site_symmetry_2
Na0 O52 2.460025 1_555
Na0 O53 2.525901 1_555
Na0 O66 2.545466 1_545
Na0 O16 2.620205 1_555
Na0 O67 2.723087 1_545
Na0 O31 2.927124 1_545
Na1 O53 2.467712 1_555
Na1 O51 2.514642 1_555
Na1 O67 2.556554 1_555
Na1 O17 2.679217 1_555
Na1 O68 2.791762 1_555
Na1 O32 2.796057 1_555
Na2 O15 2.447474 1_555
Na2 O51 2.476812 1_555
Na2 O68 2.523943 1_655
Na2 O52 2.545386 1_555
Na2 O66 2.746536 1_655
Na3 O49 2.479909 1_555
Na3 O69 2.487324 1_555
Na3 O50 2.525391 1_555
Na3 O14 2.568259 1_555
Na3 O71 2.773097 1_555
Na3 O4 2.952630 1_555
Na3 O35 2.957842 1_555
Na3 O6 3.029526 1_555
Na4 O50 2.460811 1_555
Na4 O48 2.491825 1_555
Na4 O70 2.523866 1_655
Na4 O12 2.671102 1_555
Na4 O33 2.725642 1_655
Na4 O69 2.815189 1_655
Na4 O5 2.982434 1_555
Na4 O7 3.002097 1_655
Na5 O48 2.455575 1_555
Na5 O49 2.490705 1_555
Na5 O71 2.507460 1_545
Na5 O13 2.599134 1_555
Na5 O70 2.782984 1_545
Na5 O34 2.916992 1_545
Na6 O43 2.441131 1_565
Na6 O65 2.495903 1_555
Na6 O44 2.548703 1_455
Na6 O8 2.597591 1_555
Na6 O63 2.661263 1_555
Na6 O29 2.836286 1_555
Na7 O64 2.488318 1_555
Na7 O63 2.510520 1_555
Na7 O42 2.513498 1_565
Na7 O44 2.592789 1_555
Na7 O6 2.724660 1_555
Na7 O27 2.828435 1_555
Na8 O47 2.490890 1_565
Na8 O61 2.500193 1_555
Na8 O62 2.507775 1_555
Na8 O45 2.608824 1_455
Na8 O11 2.735638 1_555
Na8 O26 2.832917 1_554
Na9 O46 2.449656 1_565
Na9 O60 2.488850 1_555
Na9 O45 2.548410 1_555
Na9 O62 2.671548 1_555
Na9 O9 2.741300 1_555
Na9 O24 2.881913 1_554
Na9 O19 2.979279 1_555
Na9 O17 3.008153 1_555
Na10 O55 2.425355 1_555
Na10 O41 2.524074 1_545
Na10 O56 2.564267 1_555
Na10 O39 2.586882 1_655
Na10 O20 2.681809 1_556
Na10 O5 2.882305 1_555
Na11 O40 2.432342 1_555
Na11 O54 2.524479 1_555
Na11 O56 2.564316 1_555
Na11 O39 2.594581 1_555
Na11 O3 2.734452 1_555
Na11 O18 2.744527 1_556
Na12 O37 2.481105 1_545
Na12 O2 2.493318 1_555
Na12 O57 2.494056 1_555
Na12 O38 2.528278 1_655
Na12 O59 2.782358 1_555
Na12 O23 2.967133 1_555
Na12 O28 2.968199 1_655
Na12 O30 3.029708 1_655
Na13 O38 2.468888 1_555
Na13 O36 2.484575 1_545
Na13 O58 2.507159 1_555
Na13 O0 2.627307 1_555
Na13 O57 2.780286 1_555
Na13 O21 2.903091 1_555
Na14 O36 2.474177 1_655
Na14 O37 2.479988 1_555
Na14 O59 2.494937 1_555
Na14 O1 2.579320 1_555
Na14 O58 2.792369 1_555
Na14 O22 2.957927 1_555
Na15 O38 2.505128 1_555
Na15 O37 2.606442 1_445
Na15 O36 2.608614 1_545
Na15 O43 2.699723 1_555
Na15 O42 2.743404 1_455
Na15 O44 2.764382 1_445
Na16 O39 2.611449 1_664
Na16 O45 2.618931 1_555
Na16 O40 2.629371 1_664
Na16 O46 2.644868 1_565
Na16 O41 2.661363 1_554
Na16 O47 2.674280 1_665
Na17 O50 2.554221 1_555
Na17 O55 2.599903 1_555
Na17 O54 2.653658 1_555
Na17 O49 2.658097 1_555
Na17 O48 2.666670 1_555
Na17 O56 2.675611 1_555
Na18 O51 2.442520 1_555
Na18 O52 2.450289 1_555
Na18 O53 2.473276 1_555
Na18 O57 2.783456 1_555
Na18 O58 2.787406 1_555
Na18 O59 2.805956 1_555
Na19 O61 2.455476 1_555
Na19 O60 2.532871 1_555
Na19 O62 2.569075 1_555
Na19 O68 2.652402 1_555
Na19 O66 2.776086 1_555
Na19 O67 2.776416 1_555
Na20 O64 2.478908 1_555
Na20 O65 2.525485 1_555
Na20 O63 2.564030 1_555
Na20 O69 2.594738 1_555
Na20 O70 2.707203 1_555
Na20 O71 2.722394 1_555
Mg0 O1 2.097478 1_445
Mg0 O0 2.100353 1_555
Mg0 O2 2.105142 1_455
Mg0 O38 2.192006 1_555
Mg0 O36 2.210240 1_545
Mg0 O37 2.225535 1_445
Mg1 O12 2.061150 1_555
Mg1 O14 2.071358 1_555
Mg1 O13 2.086040 1_555
Mg1 O49 2.175539 1_555
Mg1 O50 2.195969 1_555
Mg1 O48 2.211072 1_555
Mg2 O17 2.060665 1_555
Mg2 O15 2.070990 1_555
Mg2 O16 2.083428 1_555
Mg2 O52 2.224417 1_555
Mg2 O53 2.250581 1_555
Mg2 O51 2.288994 1_555
O0 P0 1.543821 1_555
O1 P1 1.544781 1_555
O2 P2 1.542330 1_555
O3 P3 1.551060 1_555
O3 Y0 2.258601 1_545
O4 P4 1.544946 1_555
O4 Y0 2.177157 1_655
O5 P5 1.553129 1_555
O5 Y0 2.256735 1_645
O6 P5 1.548070 1_565
O6 Y1 2.244312 1_665
O7 P3 1.539291 1_555
O7 Y1 2.163579 1_555
O8 P4 1.542886 1_455
O8 Y1 2.238908 1_565
O9 P1 1.547598 1_555
O9 Y2 2.217328 1_665
O10 P2 1.538198 1_455
O10 Y2 2.144562 1_555
O11 P0 1.547900 1_565
O11 Y2 2.225083 1_565
O12 P6 1.535234 1_555
O13 P7 1.537095 1_555
O14 P8 1.530948 1_555
O15 P9 1.530617 1_555
O16 P10 1.538103 1_555
O17 P11 1.537960 1_555
O18 P11 1.550388 1_555
O18 Y3 2.207681 1_554
O19 P9 1.538792 1_555
O19 Y3 2.142030 1_554
O20 P10 1.545532 1_555
O20 Y3 2.206133 1_554
O21 P7 1.543420 1_555
O21 Y4 2.176666 1_555
O22 P8 1.548872 1_555
O22 Y4 2.187419 1_555
O23 P6 1.547030 1_555
O23 Y4 2.178349 1_555
O24 P12 1.546370 1_555
O24 Y5 2.237488 1_556
O25 P13 1.536851 1_555
O25 Y5 2.178071 1_556
O26 P14 1.538067 1_555
O26 Y5 2.230242 1_556
O27 P15 1.551929 1_555
O27 Y6 2.247880 1_555
O28 P16 1.545209 1_555
O28 Y6 2.187325 1_555
O29 P17 1.552836 1_555
O29 Y6 2.260566 1_555
O30 P17 1.546066 1_555
O30 Y7 2.200661 1_555
O31 P15 1.547619 1_555
O31 Y7 2.201113 1_555
O32 P16 1.543902 1_555
O32 Y7 2.208503 1_555
O33 P13 1.542107 1_555
O33 Y8 2.202079 1_555
O34 P14 1.550110 1_555
O34 Y8 2.196354 1_555
O35 P12 1.548563 1_555
O35 Y8 2.187871 1_555
O36 P17 1.547324 1_555
O37 P15 1.547006 1_555
O38 P16 1.544943 1_555
O39 P13 1.556980 1_555
O39 Y0 2.282647 1_545
O40 P14 1.549398 1_545
O40 Y0 2.267603 1_545
O41 P12 1.548117 1_555
O41 Y0 2.260407 1_655
O42 P6 1.551471 1_555
O42 Y1 2.227763 1_655
O43 P7 1.552311 1_555
O43 Y1 2.236127 1_555
O44 P8 1.564894 1_555
O44 Y1 2.272869 1_665
O45 P9 1.563727 1_555
O45 Y2 2.275648 1_665
O46 P10 1.554971 1_555
O46 Y2 2.256364 1_655
O47 P11 1.552293 1_555
O47 Y2 2.252891 1_555
O48 P5 1.545897 1_555
O49 P3 1.545930 1_555
O50 P4 1.543539 1_555
O51 P1 1.554635 1_555
O52 P2 1.555026 1_555
O53 P0 1.556445 1_555
O54 P12 1.544574 1_555
O54 Y3 2.282925 1_555
O55 P13 1.544402 1_655
O55 Y3 2.260348 1_555
O56 P14 1.555753 1_545
O56 Y3 2.328276 1_555
O57 P15 1.557160 1_545
O57 Y4 2.306734 1_555
O58 P16 1.555834 1_555
O58 Y4 2.265160 1_555
O59 P17 1.556820 1_655
O59 Y4 2.293100 1_555
O60 P11 1.559375 1_555
O60 Y5 2.280559 1_555
O61 P9 1.556935 1_455
O61 Y5 2.258038 1_555
O62 P10 1.571226 1_565
O62 Y5 2.318727 1_555
O63 P7 1.568924 1_565
O63 Y6 2.314128 1_555
O64 P8 1.557237 1_555
O64 Y6 2.272325 1_555
O65 P6 1.556965 1_455
O65 Y6 2.269874 1_555
O66 P0 1.567461 1_565
O66 Y7 2.250489 1_555
O67 P1 1.568965 1_555
O67 Y7 2.256152 1_555
O68 P2 1.566078 1_455
O68 Y7 2.249050 1_555
O69 P3 1.558977 1_555
O69 Y8 2.292251 1_555
O70 P4 1.559050 1_455
O70 Y8 2.266163 1_555
O71 P5 1.560501 1_565
O71 Y8 2.287743 1_555
