# generated using pymatgen
data_Na6Ca2Ta4Si3(PO6)6
_symmetry_space_group_name_H-M   'P 1'
_cell_length_a   9.05943720
_cell_length_b   9.05943689
_cell_length_c   22.80338453
_cell_angle_alpha   89.99415030
_cell_angle_beta   90.00584969
_cell_angle_gamma   120.22849108
_symmetry_Int_Tables_number   1
_chemical_formula_structural   Na6Ca2Ta4Si3(PO6)6
_chemical_formula_sum   'Na12 Ca4 Ta8 Si6 P12 O72'
_cell_volume   1617.06627119
_cell_formula_units_Z   2
loop_
 _symmetry_equiv_pos_site_id
 _symmetry_equiv_pos_as_xyz
  1  'x, y, z'
loop_
 _atom_site_type_symbol
 _atom_site_label
 _atom_site_symmetry_multiplicity
 _atom_site_fract_x
 _atom_site_fract_y
 _atom_site_fract_z
 _atom_site_occupancy
  Na  Na0  1  0.36448838  0.35022625  0.24428498  1
  Na  Na1  1  0.98400028  0.63375179  0.24183283  1
  Na  Na2  1  0.64977375  0.63551162  0.74428498  1
  Na  Na3  1  0.36624821  0.01599972  0.74183283  1
  Na  Na4  1  0.71234863  0.03168634  0.91394885  1
  Na  Na5  1  0.96831366  0.28765137  0.41394885  1
  Na  Na6  1  0.00763674  0.99409233  0.49577565  1
  Na  Na7  1  0.00590767  0.99236326  0.99577565  1
  Na  Na8  1  0.68116225  0.34524670  0.82842027  1
  Na  Na9  1  0.65475330  0.31883775  0.32842027  1
  Na  Na10  1  0.34351534  0.69088123  0.16277950  1
  Na  Na11  1  0.30911877  0.65648466  0.66277950  1
  Ca  Ca0  1  0.00047023  0.99369535  0.35793136  1
  Ca  Ca1  1  0.00630465  0.99952977  0.85793136  1
  Ca  Ca2  1  0.67450648  0.33002664  0.67800331  1
  Ca  Ca3  1  0.66997336  0.32549352  0.17800331  1
  Ta  Ta0  1  0.00310847  0.00540708  0.64398961  1
  Ta  Ta1  1  0.99459292  0.99689153  0.14398961  1
  Ta  Ta2  1  0.67000132  0.34208381  0.98358409  1
  Ta  Ta3  1  0.65791619  0.32999868  0.48358409  1
  Ta  Ta4  1  0.33675030  0.66628585  0.02086922  1
  Ta  Ta5  1  0.33371415  0.66324970  0.52086922  1
  Ta  Ta6  1  0.34097120  0.67078961  0.31337767  1
  Ta  Ta7  1  0.32921039  0.65902880  0.81337767  1
  Si  Si0  1  0.96216841  0.33233027  0.58221392  1
  Si  Si1  1  0.36563197  0.03131150  0.58617393  1
  Si  Si2  1  0.96868850  0.63436803  0.08617393  1
  Si  Si3  1  0.66766973  0.03783159  0.08221392  1
  Si  Si4  1  0.61649800  0.65276650  0.91771417  1
  Si  Si5  1  0.34723350  0.38350200  0.41771417  1
  P  P0  1  0.28888734  0.99505501  0.25062611  1
  P  P1  1  0.70359984  0.71286476  0.24997059  1
  P  P2  1  0.00587646  0.29683590  0.25348326  1
  P  P3  1  0.28713524  0.29640016  0.74997059  1
  P  P4  1  0.00494499  0.71111266  0.75062611  1
  P  P5  1  0.70316410  0.99412354  0.75348326  1
  P  P6  1  0.66854622  0.63269672  0.58403326  1
  P  P7  1  0.36730328  0.33145378  0.08403326  1
  P  P8  1  0.03886644  0.38707520  0.91902855  1
  P  P9  1  0.34454412  0.95668663  0.91824620  1
  P  P10  1  0.61292480  0.96113356  0.41902855  1
  P  P11  1  0.04331337  0.65545588  0.41824620  1
  O  O0  1  0.20820982  0.01591133  0.30529187  1
  O  O1  1  0.80917877  0.78662844  0.30389895  1
  O  O2  1  0.99200484  0.20684542  0.31078388  1
  O  O3  1  0.21337156  0.19082123  0.80389895  1
  O  O4  1  0.98408867  0.79179018  0.80529187  1
  O  O5  1  0.79315458  0.00799516  0.81078388  1
  O  O6  1  0.79851777  0.96816041  0.69965936  1
  O  O7  1  0.17171190  0.19961472  0.69441070  1
  O  O8  1  0.03104844  0.83134447  0.69577224  1
  O  O9  1  0.80038528  0.82828810  0.19441070  1
  O  O10  1  0.03183959  0.20148223  0.19965936  1
  O  O11  1  0.16865553  0.96895156  0.19577224  1
  O  O12  1  0.91196228  0.38756391  0.64033324  1
  O  O13  1  0.45835067  0.08430423  0.64736093  1
  O  O14  1  0.62403215  0.53683603  0.64098200  1
  O  O15  1  0.91569577  0.54164933  0.14736093  1
  O  O16  1  0.61243609  0.08803772  0.14033324  1
  O  O17  1  0.46316397  0.37596785  0.14098200  1
  O  O18  1  0.46828567  0.30526919  0.03200980  1
  O  O19  1  0.82935707  0.52520351  0.03123983  1
  O  O20  1  0.69487986  0.16384148  0.02426031  1
  O  O21  1  0.47479649  0.17064293  0.53123983  1
  O  O22  1  0.69473081  0.53171433  0.53200980  1
  O  O23  1  0.83615852  0.30512014  0.52426031  1
  O  O24  1  0.49629704  0.65566640  0.96963554  1
  O  O25  1  0.14694672  0.48585164  0.97159224  1
  O  O26  1  0.33546550  0.84374199  0.97033703  1
  O  O27  1  0.51414836  0.85305328  0.47159224  1
  O  O28  1  0.34433360  0.50370296  0.46963554  1
  O  O29  1  0.15625801  0.66453450  0.47033703  1
  O  O30  1  0.13702432  0.63900490  0.36100031  1
  O  O31  1  0.50385598  0.86784020  0.36207359  1
  O  O32  1  0.36543977  0.50263217  0.35679566  1
  O  O33  1  0.13215980  0.49614402  0.86207359  1
  O  O34  1  0.36099510  0.86297568  0.86100031  1
  O  O35  1  0.49736783  0.63456023  0.85679566  1
  O  O36  1  0.02242864  0.80941387  0.41939237  1
  O  O37  1  0.79119665  0.98718047  0.41778452  1
  O  O38  1  0.17232769  0.20693465  0.42095516  1
  O  O39  1  0.01281953  0.20880335  0.91778452  1
  O  O40  1  0.19058613  0.97757136  0.91939237  1
  O  O41  1  0.79306535  0.82767231  0.92095516  1
  O  O42  1  0.97087919  0.15319904  0.59135275  1
  O  O43  1  0.17583354  0.01894147  0.59055108  1
  O  O44  1  0.83508557  0.81055501  0.58935046  1
  O  O45  1  0.98105853  0.82416646  0.09055108  1
  O  O46  1  0.84680096  0.02912081  0.09135275  1
  O  O47  1  0.18944499  0.16491443  0.08935046  1
  O  O48  1  0.66207682  0.13713083  0.74784926  1
  O  O49  1  0.47147183  0.33624756  0.74216689  1
  O  O50  1  0.84892772  0.53400622  0.74437230  1
  O  O51  1  0.66375244  0.52852817  0.24216689  1
  O  O52  1  0.86286917  0.33792318  0.24784926  1
  O  O53  1  0.46599378  0.15107228  0.24437230  1
  O  O54  1  0.62687732  0.47631478  0.92440434  1
  O  O55  1  0.85924613  0.37391896  0.92305459  1
  O  O56  1  0.51662067  0.13031941  0.92208607  1
  O  O57  1  0.62608104  0.14075387  0.42305459  1
  O  O58  1  0.52368522  0.37312268  0.42440434  1
  O  O59  1  0.86968059  0.48337933  0.42208607  1
  O  O60  1  0.33225334  0.47797860  0.06816089  1
  O  O61  1  0.15645181  0.66452841  0.06830744  1
  O  O62  1  0.51600627  0.83986709  0.06708821  1
  O  O63  1  0.33547159  0.84354819  0.56830744  1
  O  O64  1  0.52202140  0.66774666  0.56816089  1
  O  O65  1  0.16013291  0.48399373  0.56708821  1
  O  O66  1  0.29402610  0.82150023  0.25540031  1
  O  O67  1  0.52470766  0.70727001  0.25496510  1
  O  O68  1  0.18364991  0.48088526  0.25570044  1
  O  O69  1  0.29272999  0.47529234  0.75496510  1
  O  O70  1  0.17849977  0.70597390  0.75540031  1
  O  O71  1  0.51911474  0.81635009  0.75570044  1
loop_
_geom_bond_atom_site_label_1
_geom_bond_atom_site_label_2
_geom_bond_distance
_geom_bond_site_symmetry_2
Na0 O51 2.356353 1_555
Na0 O53 2.402380 1_555
Na0 O68 2.470968 1_555
Na0 O17 2.488584 1_555
Na0 O10 2.800702 1_555
Na0 O67 2.810971 1_555
Na0 O32 2.911632 1_555
Na0 O0 2.965602 1_555
Na1 O15 2.280407 1_555
Na1 O52 2.333308 1_555
Na1 O66 2.463142 1_655
Na1 O51 2.557608 1_555
Na1 O68 2.794868 1_655
Na2 O49 2.356353 1_555
Na2 O50 2.402380 1_555
Na2 O71 2.470968 1_555
Na2 O14 2.488584 1_555
Na2 O6 2.800702 1_555
Na2 O69 2.810971 1_555
Na2 O35 2.911633 1_555
Na2 O4 2.965602 1_555
Na3 O13 2.280407 1_555
Na3 O48 2.333308 1_555
Na3 O70 2.463141 1_545
Na3 O49 2.557608 1_555
Na3 O71 2.794868 1_545
Na4 O41 2.310207 1_545
Na4 O56 2.360624 1_555
Na4 O39 2.365198 1_655
Na4 O5 2.504982 1_555
Na4 O55 2.696736 1_555
Na4 O20 2.824455 1_556
Na5 O38 2.310207 1_655
Na5 O59 2.360624 1_555
Na5 O37 2.365198 1_545
Na5 O2 2.504982 1_555
Na5 O57 2.696736 1_555
Na5 O23 2.824455 1_555
Na6 O38 2.440944 1_565
Na6 O36 2.465241 1_555
Na6 O43 2.587927 1_565
Na6 O37 2.624379 1_455
Na6 O44 2.672893 1_455
Na6 O42 2.724484 1_465
Na7 O41 2.440944 1_455
Na7 O40 2.465241 1_555
Na7 O45 2.587927 1_456
Na7 O39 2.624379 1_565
Na7 O47 2.672893 1_566
Na7 O46 2.724484 1_466
Na8 O50 2.508084 1_555
Na8 O48 2.575406 1_555
Na8 O55 2.627673 1_555
Na8 O54 2.651640 1_555
Na8 O49 2.706902 1_555
Na8 O56 2.766347 1_555
Na9 O53 2.508084 1_555
Na9 O52 2.575406 1_555
Na9 O57 2.627673 1_555
Na9 O58 2.651640 1_555
Na9 O51 2.706902 1_555
Na9 O59 2.766347 1_555
Na10 O66 2.568469 1_555
Na10 O67 2.624792 1_555
Na10 O62 2.627083 1_555
Na10 O61 2.676169 1_555
Na10 O68 2.726194 1_555
Na10 O60 2.861572 1_555
Na11 O70 2.568469 1_555
Na11 O69 2.624792 1_555
Na11 O65 2.627083 1_555
Na11 O63 2.676169 1_555
Na11 O71 2.726194 1_555
Na11 O64 2.861572 1_555
Ca0 O0 2.154605 1_565
Ca0 O1 2.183368 1_455
Ca0 O2 2.244834 1_465
Ca0 O36 2.263820 1_555
Ca0 O38 2.278826 1_565
Ca0 O37 2.312703 1_455
Ca1 O4 2.154605 1_455
Ca1 O3 2.183368 1_565
Ca1 O5 2.244834 1_465
Ca1 O40 2.263820 1_555
Ca1 O41 2.278826 1_455
Ca1 O39 2.312703 1_565
Ca2 O12 2.123333 1_555
Ca2 O13 2.211161 1_555
Ca2 O50 2.293943 1_555
Ca2 O14 2.300938 1_555
Ca2 O48 2.324786 1_555
Ca2 O49 2.373234 1_555
Ca3 O16 2.123333 1_555
Ca3 O15 2.211161 1_555
Ca3 O53 2.293943 1_555
Ca3 O17 2.300938 1_555
Ca3 O52 2.324786 1_555
Ca3 O51 2.373234 1_555
O0 P0 1.504365 1_545
O1 P1 1.493337 1_555
O2 P2 1.511434 1_655
O3 P3 1.493337 1_555
O4 P4 1.504365 1_655
O5 P5 1.511434 1_545
O6 P5 1.585199 1_555
O6 Ta0 2.128712 1_665
O7 P3 1.595048 1_555
O7 Ta0 2.011147 1_555
O8 P4 1.596060 1_555
O8 Ta0 2.084828 1_565
O9 P1 1.595048 1_555
O9 Ta1 2.011147 1_555
O10 P2 1.585199 1_555
O10 Ta1 2.128712 1_445
O11 P0 1.596060 1_555
O11 Ta1 2.084828 1_455
O12 Si0 1.563059 1_555
O13 Si1 1.573747 1_555
O14 P6 1.500163 1_555
O15 Si2 1.573747 1_555
O16 Si3 1.563059 1_555
O17 P7 1.500163 1_555
O18 P7 1.587242 1_555
O18 Ta2 2.014149 1_554
O19 Si2 1.698106 1_555
O19 Ta2 1.898898 1_554
O20 Si3 1.681321 1_555
O20 Ta2 1.970981 1_554
O21 Si1 1.698106 1_555
O21 Ta3 1.898898 1_555
O22 P6 1.587242 1_555
O22 Ta3 2.014149 1_555
O23 Si0 1.681321 1_555
O23 Ta3 1.970981 1_555
O24 Si4 1.617838 1_555
O24 Ta4 1.898357 1_556
O25 P8 1.521167 1_555
O25 Ta4 2.015249 1_556
O26 P9 1.542643 1_555
O26 Ta4 1.982662 1_556
O27 P10 1.521167 1_555
O27 Ta5 2.015249 1_555
O28 Si5 1.617838 1_555
O28 Ta5 1.898357 1_555
O29 P11 1.542643 1_555
O29 Ta5 1.982662 1_555
O30 P11 1.604586 1_555
O30 Ta6 2.034859 1_555
O31 P10 1.592654 1_555
O31 Ta6 1.986210 1_555
O32 Si5 1.715292 1_555
O32 Ta6 1.920898 1_555
O33 P8 1.592654 1_555
O33 Ta7 1.986210 1_555
O34 P9 1.604586 1_555
O34 Ta7 2.034859 1_555
O35 Si4 1.715292 1_555
O35 Ta7 1.920898 1_555
O36 P11 1.499199 1_555
O37 P10 1.510340 1_555
O38 Si5 1.588347 1_555
O39 P8 1.510340 1_555
O40 P9 1.499199 1_555
O41 Si4 1.588347 1_555
O42 Si0 1.676933 1_555
O42 Ta0 1.926625 1_655
O43 Si1 1.668861 1_555
O43 Ta0 1.937966 1_555
O44 P6 1.561888 1_555
O44 Ta0 2.068831 1_665
O45 Si2 1.668861 1_555
O45 Ta1 1.937966 1_555
O46 Si3 1.676933 1_555
O46 Ta1 1.926625 1_545
O47 P7 1.561888 1_555
O47 Ta1 2.068831 1_445
O48 P5 1.522852 1_545
O49 P3 1.530970 1_555
O50 P4 1.519547 1_655
O51 P1 1.530970 1_555
O52 P2 1.522852 1_655
O53 P0 1.519547 1_545
O54 Si4 1.654928 1_555
O54 Ta2 1.982547 1_555
O55 P8 1.573323 1_655
O55 Ta2 2.104808 1_555
O56 P9 1.563057 1_545
O56 Ta2 2.212223 1_555
O57 P10 1.573323 1_545
O57 Ta3 2.104808 1_555
O58 Si5 1.654928 1_555
O58 Ta3 1.982547 1_555
O59 P11 1.563057 1_655
O59 Ta3 2.212223 1_555
O60 P7 1.555055 1_555
O60 Ta4 2.001143 1_555
O61 Si2 1.632874 1_455
O61 Ta4 1.952592 1_555
O62 Si3 1.655933 1_565
O62 Ta4 1.910386 1_555
O63 Si1 1.632874 1_565
O63 Ta5 1.952592 1_555
O64 P6 1.555055 1_555
O64 Ta5 2.001143 1_555
O65 Si0 1.655933 1_455
O65 Ta5 1.910386 1_555
O66 P0 1.599950 1_555
O66 Ta6 2.092167 1_555
O67 P1 1.599817 1_555
O67 Ta6 2.025001 1_555
O68 P2 1.634818 1_555
O68 Ta6 2.062078 1_555
O69 P3 1.599817 1_555
O69 Ta7 2.025001 1_555
O70 P4 1.599950 1_555
O70 Ta7 2.092167 1_555
O71 P5 1.634818 1_555
O71 Ta7 2.062078 1_555
