# generated using pymatgen
data_MgFe6(O5F)2
_symmetry_space_group_name_H-M   'P 1'
_cell_length_a   7.94805205
_cell_length_b   5.70351929
_cell_length_c   5.87140836
_cell_angle_alpha   69.20643123
_cell_angle_beta   65.00566187
_cell_angle_gamma   66.93554547
_symmetry_Int_Tables_number   1
_chemical_formula_structural   MgFe6(O5F)2
_chemical_formula_sum   'Mg1 Fe6 O10 F2'
_cell_volume   216.14754950
_cell_formula_units_Z   1
loop_
 _symmetry_equiv_pos_site_id
 _symmetry_equiv_pos_as_xyz
  1  'x, y, z'
loop_
 _atom_site_type_symbol
 _atom_site_label
 _atom_site_symmetry_multiplicity
 _atom_site_fract_x
 _atom_site_fract_y
 _atom_site_fract_z
 _atom_site_occupancy
  Mg  Mg0  1  0.82370000  0.65497600  0.20414400  1
  Fe  Fe0  1  0.86932000  0.69889400  0.68178400  1
  Fe  Fe1  1  0.64067800  0.28390300  0.33127900  1
  Fe  Fe2  1  0.31734500  0.65970300  0.66387100  1
  Fe  Fe3  1  0.19658400  0.34739500  0.34730900  1
  Fe  Fe4  1  0.49709500  0.00644700  0.00523600  1
  Fe  Fe5  1  0.99865100  0.04516600  0.99090600  1
  O  O0  1  0.66051000  0.02518700  0.65306900  1
  O  O1  1  0.33732800  0.35985000  0.97629000  1
  O  O2  1  0.91492700  0.26543200  0.22111200  1
  O  O3  1  0.03072800  0.76601100  0.81633900  1
  O  O4  1  0.36750800  0.42829700  0.44986300  1
  O  O5  1  0.70693700  0.05378600  0.11707100  1
  O  O6  1  0.32356200  0.97156400  0.35619800  1
  O  O7  1  0.65621100  0.64522000  0.02779600  1
  O  O8  1  0.00098700  0.32561800  0.68857100  1
  O  O9  1  0.00829800  0.70836500  0.31212500  1
  F  F0  1  0.29360300  0.90498400  0.87993200  1
  F  F1  1  0.61495600  0.57539100  0.53900900  1
loop_
_geom_bond_atom_site_label_1
_geom_bond_atom_site_label_2
_geom_bond_distance
_geom_bond_site_symmetry_2
Mg0 O9 1.980036 1_655
Mg0 O7 2.027567 1_555
Mg0 O2 2.028197 1_555
Mg0 O5 2.053734 1_565
Mg0 O3 2.218041 1_654
Fe0 O0 1.959554 1_565
Fe0 O8 1.964342 1_655
Fe0 O9 1.967565 1_655
Fe0 O3 1.967852 1_655
Fe0 O7 2.036364 1_556
Fe1 O4 1.898849 1_555
Fe1 O5 1.911144 1_555
Fe1 O2 1.964119 1_555
Fe1 O0 1.965169 1_555
Fe1 O7 2.200772 1_555
Fe2 O4 1.954887 1_555
Fe2 O3 1.984518 1_555
Fe2 O1 2.029994 1_555
Fe2 O6 2.035102 1_555
Fe3 O8 1.946611 1_555
Fe3 O4 1.949547 1_555
Fe3 O6 1.971330 1_545
Fe3 O1 1.973565 1_554
Fe3 O9 2.016450 1_555
Fe4 O1 1.907315 1_554
Fe4 O0 1.912118 1_554
Fe4 O6 1.926216 1_545
Fe4 O7 1.941104 1_545
Fe4 O5 2.165620 1_555
Fe5 O2 1.907489 1_556
Fe5 O8 1.920794 1_655
Fe5 O3 2.066470 1_645
Fe5 O5 2.100479 1_556
Fe5 O9 2.165055 1_646
F0 Fe5 2.042053 1_465
F0 Fe2 2.110195 1_555
F0 Fe4 2.352279 1_566
F1 Mg0 2.006034 1_555
F1 Fe2 2.063386 1_555
F1 Fe1 2.292591 1_555
