# generated using pymatgen
data_Eu(SiIr)2
_symmetry_space_group_name_H-M   'P 1'
_cell_length_a   4.10805554
_cell_length_b   4.10805508
_cell_length_c   5.85808873
_cell_angle_alpha   110.52860494
_cell_angle_beta   110.52861188
_cell_angle_gamma   89.98915373
_symmetry_Int_Tables_number   1
_chemical_formula_structural   Eu(SiIr)2
_chemical_formula_sum   'Eu1 Si2 Ir2'
_cell_volume   85.85056246
_cell_formula_units_Z   1
loop_
 _symmetry_equiv_pos_site_id
 _symmetry_equiv_pos_as_xyz
  1  'x, y, z'
loop_
 _atom_site_type_symbol
 _atom_site_label
 _atom_site_symmetry_multiplicity
 _atom_site_fract_x
 _atom_site_fract_y
 _atom_site_fract_z
 _atom_site_occupancy
  Eu  Eu0  1  -0.00000000  -0.00000002  -0.00000002  1
  Si  Si0  1  0.62754987  0.62754985  0.25518866  1
  Si  Si1  1  0.37245014  0.37245017  0.74481136  1
  Ir  Ir0  1  0.75001883  0.24998119  0.49999998  1
  Ir  Ir1  1  0.24998117  0.75001882  0.50000003  1
loop_
_geom_bond_atom_site_label_1
_geom_bond_atom_site_label_2
_geom_bond_distance
_geom_bond_site_symmetry_2
Eu0 Si1 3.181463 1_544
Eu0 Si0 3.181464 1_545
Eu0 Si1 3.181464 1_454
Eu0 Si0 3.181464 1_455
Eu0 Si1 3.181773 1_444
Eu0 Si0 3.181773 1_555
Eu0 Si1 3.182158 1_554
Eu0 Si0 3.182158 1_445
Eu0 Ir1 3.269266 1_544
Eu0 Ir0 3.269266 1_454
Eu0 Ir1 3.269266 1_545
Eu0 Ir0 3.269266 1_455
Eu0 Ir1 3.269445 1_444
Eu0 Ir0 3.269445 1_444
Eu0 Ir0 3.269445 1_555
Eu0 Ir1 3.269445 1_555
Si0 Si1 2.596342 1_554
Ir0 Si0 2.401965 1_555
Ir0 Si1 2.401966 1_555
Ir0 Si0 2.402201 1_545
Ir0 Si1 2.402201 1_655
Ir1 Si1 2.401965 1_555
Ir1 Si0 2.401966 1_555
Ir1 Si0 2.402201 1_455
Ir1 Si1 2.402201 1_565
