# generated using pymatgen
data_Na14Zn4Si7Sn4S5O48
_symmetry_space_group_name_H-M   'P 1'
_cell_length_a   18.25074120
_cell_length_b   9.15861066
_cell_length_c   22.34996581
_cell_angle_alpha   90.12347699
_cell_angle_beta   89.07383909
_cell_angle_gamma   120.01684513
_symmetry_Int_Tables_number   1
_chemical_formula_structural   Na14Zn4Si7Sn4S5O48
_chemical_formula_sum   'Na42 Zn12 Si21 Sn12 S15 O144'
_cell_volume   3234.27484334
_cell_formula_units_Z   3
loop_
 _symmetry_equiv_pos_site_id
 _symmetry_equiv_pos_as_xyz
  1  'x, y, z'
loop_
 _atom_site_type_symbol
 _atom_site_label
 _atom_site_symmetry_multiplicity
 _atom_site_fract_x
 _atom_site_fract_y
 _atom_site_fract_z
 _atom_site_occupancy
  Na  Na0  1  0.80867769  0.99207007  0.25441760  1
  Na  Na1  1  0.18255436  0.35340243  0.25688012  1
  Na  Na2  1  0.69035890  0.37097727  0.25739850  1
  Na  Na3  1  0.99324028  0.63837487  0.24447683  1
  Na  Na4  1  0.50151250  0.64290323  0.25318644  1
  Na  Na5  1  0.30925921  0.62576224  0.74283519  1
  Na  Na6  1  0.00055984  0.35704552  0.74706551  1
  Na  Na7  1  0.49650149  0.35494927  0.73858963  1
  Na  Na8  1  0.18997819  0.00937557  0.75226542  1
  Na  Na9  1  0.68470982  0.01277656  0.75133493  1
  Na  Na10  1  0.14964309  0.33153550  0.58299992  1
  Na  Na11  1  0.65786218  0.33646634  0.58066867  1
  Na  Na12  1  0.33787643  0.98683070  0.57795773  1
  Na  Na13  1  0.83417536  0.97433379  0.57916241  1
  Na  Na14  1  0.15514007  0.97433796  0.08745212  1
  Na  Na15  1  0.65009604  0.96710111  0.08887975  1
  Na  Na16  1  0.33355442  0.68936699  0.08918239  1
  Na  Na17  1  0.83644223  0.69167333  0.08406730  1
  Na  Na18  1  0.48190018  0.67579522  0.92507683  1
  Na  Na19  1  0.97500208  0.66765677  0.92132228  1
  Na  Na20  1  0.35566322  0.04454581  0.91562431  1
  Na  Na21  1  0.85127684  0.03753910  0.91137550  1
  Na  Na22  1  0.16761207  0.28298036  0.91539914  1
  Na  Na23  1  0.67232980  0.29370293  0.90745830  1
  Na  Na24  1  0.47713224  0.28617487  0.42151177  1
  Na  Na25  1  0.97626561  0.27685798  0.42500055  1
  Na  Na26  1  0.16997753  0.05172740  0.40670155  1
  Na  Na27  1  0.67485766  0.04530550  0.41305666  1
  Na  Na28  1  0.35275317  0.66750829  0.41105305  1
  Na  Na29  1  0.85219261  0.67700598  0.41902600  1
  Na  Na30  1  0.99253361  0.99801094  0.49426164  1
  Na  Na31  1  0.50315042  0.00162381  0.49777943  1
  Na  Na32  1  0.99831990  0.99773917  0.00017120  1
  Na  Na33  1  0.50114268  0.00146369  0.99966574  1
  Na  Na34  1  0.32778275  0.32171082  0.82565384  1
  Na  Na35  1  0.82385385  0.33426522  0.83312584  1
  Na  Na36  1  0.32547096  0.31562692  0.33533360  1
  Na  Na37  1  0.82608468  0.31976134  0.33284716  1
  Na  Na38  1  0.16954483  0.67597150  0.16804239  1
  Na  Na39  1  0.66295878  0.66526701  0.17531495  1
  Na  Na40  1  0.16137364  0.65835086  0.67148545  1
  Na  Na41  1  0.67161738  0.66603694  0.66374434  1
  Zn  Zn0  1  0.99931039  0.99922901  0.35044896  1
  Zn  Zn1  1  0.49344476  0.98406098  0.34319242  1
  Zn  Zn2  1  0.99179966  0.00028836  0.84112435  1
  Zn  Zn3  1  0.50953729  0.01582415  0.84328357  1
  Zn  Zn4  1  0.33536891  0.31915213  0.68531913  1
  Zn  Zn5  1  0.83473155  0.34833190  0.18713177  1
  Zn  Zn6  1  0.33447263  0.32978019  0.00833362  1
  Zn  Zn7  1  0.83214267  0.34448340  0.98088704  1
  Zn  Zn8  1  0.33350615  0.32380369  0.47973965  1
  Zn  Zn9  1  0.83172668  0.31798480  0.49443659  1
  Zn  Zn10  1  0.67932170  0.70164398  0.31337938  1
  Zn  Zn11  1  0.17118456  0.65887091  0.80892493  1
  Si  Si0  1  0.14997432  0.99719899  0.25277295  1
  Si  Si1  1  0.64757114  0.00632714  0.24981865  1
  Si  Si2  1  0.34946841  0.69252758  0.25051565  1
  Si  Si3  1  0.85132614  0.70519493  0.25302053  1
  Si  Si4  1  0.14760752  0.28637927  0.75137049  1
  Si  Si5  1  0.65320422  0.30874721  0.75196024  1
  Si  Si6  1  0.35279152  0.99553550  0.75526411  1
  Si  Si7  1  0.85004582  0.00835919  0.75088973  1
  Si  Si8  1  0.47844823  0.33750437  0.58224830  1
  Si  Si9  1  0.98592273  0.34227803  0.58345032  1
  Si  Si10  1  0.68023118  0.03260042  0.58338862  1
  Si  Si11  1  0.83888581  0.62861889  0.57821002  1
  Si  Si12  1  0.48446158  0.62881709  0.08216330  1
  Si  Si13  1  0.97622732  0.62051978  0.08277981  1
  Si  Si14  1  0.33933413  0.04268745  0.07846529  1
  Si  Si15  1  0.18130153  0.32619095  0.08174467  1
  Si  Si16  1  0.81804314  0.67036031  0.91834176  1
  Si  Si17  1  0.66399439  0.96490594  0.91624360  1
  Si  Si18  1  0.31816513  0.96630932  0.41861880  1
  Si  Si19  1  0.81578556  0.97227597  0.41576277  1
  Si  Si20  1  0.16702635  0.36744088  0.41687347  1
  Sn  Sn0  1  0.99285100  0.99933713  0.64846451  1
  Sn  Sn1  1  0.50265170  0.01999439  0.65016504  1
  Sn  Sn2  1  0.00263830  0.98770583  0.15101513  1
  Sn  Sn3  1  0.49323275  0.98594507  0.15003150  1
  Sn  Sn4  1  0.83107646  0.33065464  0.67988167  1
  Sn  Sn5  1  0.33035450  0.32851044  0.18172837  1
  Sn  Sn6  1  0.16517767  0.66454133  0.02477986  1
  Sn  Sn7  1  0.66579072  0.67370317  0.01609174  1
  Sn  Sn8  1  0.16554271  0.65962497  0.51611609  1
  Sn  Sn9  1  0.67070436  0.67309946  0.52255551  1
  Sn  Sn10  1  0.17882187  0.68191129  0.31464860  1
  Sn  Sn11  1  0.67928860  0.67731972  0.81390380  1
  S  S0  1  0.00086205  0.29393301  0.25137957  1
  S  S1  1  0.49774426  0.29116485  0.25062058  1
  S  S2  1  0.99878731  0.70528328  0.75158016  1
  S  S3  1  0.49966390  0.70701877  0.75331948  1
  S  S4  1  0.18237639  0.03017761  0.58363693  1
  S  S5  1  0.33406559  0.63215020  0.58388348  1
  S  S6  1  0.83405246  0.03755409  0.08202230  1
  S  S7  1  0.68138607  0.33437807  0.08219362  1
  S  S8  1  0.31202644  0.66285909  0.91600879  1
  S  S9  1  0.02489477  0.38042496  0.91614549  1
  S  S10  1  0.51945712  0.37770822  0.91545042  1
  S  S11  1  0.16725823  0.95504978  0.91499762  1
  S  S12  1  0.66465338  0.37468317  0.41440174  1
  S  S13  1  0.02134000  0.66425590  0.41525043  1
  S  S14  1  0.52315739  0.66794421  0.41593718  1
  O  O0  1  0.10981614  0.04012330  0.31003684  1
  O  O1  1  0.60565794  0.04755599  0.30798035  1
  O  O2  1  0.40410720  0.77211337  0.30968064  1
  O  O3  1  0.91259395  0.79484974  0.30886694  1
  O  O4  1  0.48511888  0.19405379  0.30582752  1
  O  O5  1  0.99215017  0.20015312  0.30648550  1
  O  O6  1  0.10747567  0.16689384  0.81120986  1
  O  O7  1  0.61749876  0.19242716  0.81158368  1
  O  O8  1  0.48918717  0.78138680  0.80933751  1
  O  O9  1  0.98823262  0.77811444  0.80770678  1
  O  O10  1  0.40976011  0.02061086  0.81394893  1
  O  O11  1  0.90295610  0.03796691  0.81135322  1
  O  O12  1  0.39448010  0.95223230  0.69433486  1
  O  O13  1  0.89065512  0.97392855  0.69049428  1
  O  O14  1  0.08873647  0.19368527  0.69130927  1
  O  O15  1  0.59107560  0.22283302  0.69366000  1
  O  O16  1  0.01182957  0.81577040  0.69849681  1
  O  O17  1  0.51536588  0.81958995  0.70067158  1
  O  O18  1  0.38836281  0.80427641  0.18876206  1
  O  O19  1  0.89208227  0.83091897  0.19071969  1
  O  O20  1  0.01758516  0.21470806  0.19756849  1
  O  O21  1  0.50999916  0.20681731  0.19646064  1
  O  O22  1  0.09384681  0.96208332  0.19066002  1
  O  O23  1  0.59051107  0.98374009  0.18800900  1
  O  O24  1  0.44006569  0.36332356  0.64475305  1
  O  O25  1  0.94368940  0.36478283  0.64593809  1
  O  O26  1  0.23312279  0.10449176  0.63772744  1
  O  O27  1  0.73995906  0.11310519  0.64308758  1
  O  O28  1  0.32186571  0.53068151  0.63811812  1
  O  O29  1  0.81838852  0.50685800  0.63729742  1
  O  O30  1  0.43918352  0.51582931  0.14234902  1
  O  O31  1  0.93709876  0.51518601  0.14384662  1
  O  O32  1  0.31458546  0.12800343  0.13382344  1
  O  O33  1  0.82165322  0.11522281  0.13588704  1
  O  O34  1  0.24307849  0.36805774  0.13975598  1
  O  O35  1  0.73248314  0.36052232  0.13560380  1
  O  O36  1  0.21874345  0.28504958  0.02131748  1
  O  O37  1  0.71841742  0.30446638  0.02748338  1
  O  O38  1  0.42805841  0.55527942  0.02242304  1
  O  O39  1  0.92201270  0.54281123  0.02256456  1
  O  O40  1  0.35192433  0.13815133  0.01508405  1
  O  O41  1  0.83897026  0.12631335  0.02617649  1
  O  O42  1  0.22015390  0.13497968  0.52966371  1
  O  O43  1  0.71548793  0.15176398  0.52460300  1
  O  O44  1  0.33919021  0.55162385  0.52854815  1
  O  O45  1  0.84951755  0.54889825  0.51669658  1
  O  O46  1  0.41927538  0.29877685  0.52431963  1
  O  O47  1  0.92985620  0.30327311  0.52494925  1
  O  O48  1  0.26955854  0.68455816  0.97192971  1
  O  O49  1  0.77336675  0.69999548  0.98044915  1
  O  O50  1  0.07930741  0.46792609  0.96962938  1
  O  O51  1  0.57330395  0.45917357  0.96949088  1
  O  O52  1  0.16028909  0.85548077  0.97161117  1
  O  O53  1  0.64426312  0.84198859  0.97637407  1
  O  O54  1  0.27358034  0.84840042  0.48099510  1
  O  O55  1  0.77050441  0.84429303  0.47554431  1
  O  O56  1  0.14850967  0.45094113  0.47777043  1
  O  O57  1  0.65376270  0.45541321  0.47095045  1
  O  O58  1  0.07559850  0.69040887  0.46923929  1
  O  O59  1  0.57533005  0.68368451  0.46929114  1
  O  O60  1  0.06323385  0.64010500  0.36043635  1
  O  O61  1  0.56002519  0.64093910  0.36049526  1
  O  O62  1  0.25028912  0.87607757  0.36445762  1
  O  O63  1  0.75627577  0.89595253  0.35757717  1
  O  O64  1  0.17947740  0.48889456  0.35767794  1
  O  O65  1  0.66814245  0.47303486  0.36109240  1
  O  O66  1  0.06400722  0.48314686  0.86153468  1
  O  O67  1  0.56211798  0.48143454  0.86058280  1
  O  O68  1  0.17291929  0.86477431  0.86189247  1
  O  O69  1  0.67640450  0.86751004  0.85745027  1
  O  O70  1  0.26063307  0.64441497  0.86314536  1
  O  O71  1  0.74982990  0.62457496  0.86434761  1
  O  O72  1  0.01612772  0.81902517  0.41303505  1
  O  O73  1  0.51876001  0.82621676  0.41515662  1
  O  O74  1  0.40988266  0.97494768  0.41312986  1
  O  O75  1  0.90770749  0.98014459  0.41371004  1
  O  O76  1  0.08380826  0.18158455  0.41492857  1
  O  O77  1  0.58868271  0.20248838  0.41548073  1
  O  O78  1  0.01980526  0.21352747  0.91537080  1
  O  O79  1  0.51116802  0.20871895  0.91389063  1
  O  O80  1  0.08980410  0.96922101  0.91680069  1
  O  O81  1  0.57822031  0.98022062  0.91370968  1
  O  O82  1  0.39666722  0.81690919  0.91481112  1
  O  O83  1  0.90991141  0.84462989  0.91281609  1
  O  O84  1  0.48579299  0.15880303  0.58600298  1
  O  O85  1  0.00077638  0.17529647  0.58751254  1
  O  O86  1  0.09567507  0.00767328  0.58959299  1
  O  O87  1  0.58453254  0.00989455  0.59263742  1
  O  O88  1  0.40958137  0.80597099  0.58664914  1
  O  O89  1  0.92116865  0.82373277  0.58663332  1
  O  O90  1  0.49826346  0.82380723  0.08621800  1
  O  O91  1  0.98623091  0.81524187  0.08553980  1
  O  O92  1  0.42130110  0.01491488  0.08739381  1
  O  O93  1  0.90958485  0.01445863  0.08470100  1
  O  O94  1  0.08615400  0.15878932  0.09077644  1
  O  O95  1  0.59440122  0.18383344  0.08783930  1
  O  O96  1  0.34530994  0.16606356  0.74939869  1
  O  O97  1  0.84480639  0.18402613  0.74589862  1
  O  O98  1  0.24490439  0.32039501  0.74244036  1
  O  O99  1  0.74669842  0.32635634  0.74372344  1
  O  O100  1  0.42242166  0.53995739  0.74719272  1
  O  O101  1  0.92371105  0.53368757  0.74585081  1
  O  O102  1  0.34472302  0.50667541  0.24539771  1
  O  O103  1  0.84329560  0.51877106  0.24813280  1
  O  O104  1  0.42167940  0.31176126  0.24432927  1
  O  O105  1  0.92325684  0.30498696  0.24500254  1
  O  O106  1  0.24444937  0.16707295  0.24459084  1
  O  O107  1  0.74433352  0.16640928  0.24116830  1
  O  O108  1  0.31967521  0.50943245  0.91964175  1
  O  O109  1  0.82603268  0.50094522  0.91888828  1
  O  O110  1  0.43623586  0.36752224  0.91900845  1
  O  O111  1  0.93929007  0.35885678  0.92243563  1
  O  O112  1  0.24448222  0.12442264  0.91582604  1
  O  O113  1  0.75244443  0.14511739  0.92122837  1
  O  O114  1  0.32618938  0.15138812  0.41913520  1
  O  O115  1  0.82545216  0.16053159  0.42264204  1
  O  O116  1  0.25641060  0.36640596  0.42135706  1
  O  O117  1  0.74350030  0.36587907  0.41573879  1
  O  O118  1  0.43617582  0.51998839  0.42194710  1
  O  O119  1  0.93796944  0.51148677  0.41908193  1
  O  O120  1  0.17833217  0.50333189  0.07767572  1
  O  O121  1  0.67568176  0.49361760  0.07697692  1
  O  O122  1  0.07760457  0.66775524  0.07817245  1
  O  O123  1  0.58186853  0.65294407  0.08106440  1
  O  O124  1  0.25349502  0.84843985  0.07731071  1
  O  O125  1  0.75440476  0.85813903  0.08171514  1
  O  O126  1  0.17650940  0.85963012  0.57827265  1
  O  O127  1  0.67535451  0.84850069  0.58048673  1
  O  O128  1  0.25483873  0.65282116  0.58338692  1
  O  O129  1  0.75222962  0.64895847  0.57935187  1
  O  O130  1  0.08367488  0.51334185  0.58229562  1
  O  O131  1  0.57871666  0.49085385  0.57551832  1
  O  O132  1  0.14936455  0.81393569  0.25549043  1
  O  O133  1  0.64740813  0.82654588  0.25024236  1
  O  O134  1  0.25103595  0.65750840  0.25032777  1
  O  O135  1  0.75507260  0.67812691  0.25217086  1
  O  O136  1  0.07705252  0.46928237  0.25288839  1
  O  O137  1  0.57459806  0.46031789  0.25228561  1
  O  O138  1  0.15017394  0.46946637  0.75288118  1
  O  O139  1  0.64962648  0.48737132  0.75503889  1
  O  O140  1  0.07682289  0.69044401  0.75275234  1
  O  O141  1  0.57603537  0.68491036  0.75498203  1
  O  O142  1  0.25649738  0.83000116  0.75400177  1
  O  O143  1  0.75175975  0.84644946  0.75067304  1
loop_
_geom_bond_atom_site_label_1
_geom_bond_atom_site_label_2
_geom_bond_distance
_geom_bond_site_symmetry_2
Na0 O107 2.430122 1_565
Na0 O63 2.469934 1_555
Na0 O135 2.532481 1_555
Na0 O133 2.552231 1_555
Na0 O105 2.573483 1_565
Na0 O33 2.841062 1_565
Na0 O19 2.948026 1_555
Na1 O134 2.419473 1_555
Na1 O106 2.486037 1_555
Na1 O102 2.572235 1_555
Na1 O64 2.582993 1_555
Na1 O136 2.625326 1_555
Na1 O0 2.749352 1_555
Na1 O34 2.801846 1_555
Na1 O20 2.954844 1_555
Na2 O103 2.422474 1_555
Na2 O135 2.448416 1_555
Na2 O107 2.538551 1_555
Na2 O65 2.597809 1_555
Na2 O137 2.623729 1_555
Na2 O1 2.796127 1_555
Na2 O35 2.831071 1_555
Na3 O103 2.385272 1_555
Na3 O132 2.490388 1_655
Na3 O31 2.507608 1_555
Na3 O105 2.655624 1_555
Na3 O136 2.674712 1_655
Na3 O22 2.846976 1_655
Na3 O3 2.885166 1_555
Na3 O60 2.904402 1_655
Na4 O133 2.331790 1_555
Na4 O102 2.493676 1_555
Na4 O137 2.608946 1_555
Na4 O104 2.635452 1_555
Na4 O61 2.644809 1_555
Na4 O30 2.745756 1_555
Na4 O2 2.860201 1_555
Na5 O98 2.432089 1_555
Na5 O142 2.506161 1_555
Na5 O138 2.520203 1_555
Na5 O28 2.542260 1_555
Na5 O100 2.554053 1_555
Na5 O12 2.800158 1_555
Na5 O70 2.849504 1_555
Na6 O138 2.393958 1_555
Na6 O97 2.467311 1_455
Na6 O25 2.518116 1_455
Na6 O101 2.618540 1_455
Na6 O140 2.651221 1_555
Na6 O66 2.822238 1_555
Na6 O11 2.916273 1_455
Na6 O14 2.952503 1_555
Na7 O24 2.369551 1_555
Na7 O96 2.422685 1_555
Na7 O139 2.460956 1_555
Na7 O141 2.645230 1_555
Na7 O100 2.649186 1_555
Na7 O15 2.734964 1_555
Na8 O96 2.454474 1_555
Na8 O142 2.484242 1_545
Na8 O98 2.511127 1_555
Na8 O140 2.600221 1_545
Na8 O26 2.681463 1_555
Na8 O68 2.725970 1_545
Na8 O6 2.860953 1_555
Na9 O143 2.383817 1_545
Na9 O99 2.510392 1_555
Na9 O97 2.533054 1_555
Na9 O27 2.591894 1_555
Na9 O141 2.644684 1_545
Na9 O69 2.686651 1_545
Na9 O7 2.825141 1_555
Na9 O17 2.932260 1_545
Na10 O85 2.354035 1_555
Na10 O130 2.495755 1_555
Na10 O128 2.587037 1_555
Na10 O56 2.600572 1_555
Na10 O86 2.619917 1_555
Na10 O14 2.685421 1_555
Na10 O42 2.928591 1_555
Na10 O28 3.017204 1_555
Na11 O131 2.479638 1_555
Na11 O129 2.495031 1_555
Na11 O87 2.606799 1_555
Na11 O43 2.695571 1_555
Na11 O57 2.702709 1_555
Na11 O84 2.720317 1_555
Na11 O15 2.754790 1_555
Na11 O29 2.856138 1_555
Na12 O84 2.358219 1_565
Na12 O54 2.502524 1_555
Na12 O126 2.568526 1_555
Na12 O88 2.583119 1_555
Na12 O128 2.650777 1_555
Na12 O46 2.741759 1_565
Na12 O12 2.889789 1_555
Na12 O26 2.928027 1_565
Na13 O127 2.527067 1_555
Na13 O89 2.579085 1_555
Na13 O129 2.580284 1_555
Na13 O55 2.611980 1_555
Na13 O85 2.661822 1_665
Na13 O13 2.709391 1_555
Na13 O47 2.877028 1_565
Na13 O27 2.951713 1_565
Na14 O122 2.441557 1_555
Na14 O22 2.525249 1_555
Na14 O94 2.562999 1_565
Na14 O124 2.580634 1_555
Na14 O91 2.671702 1_455
Na14 O32 2.741637 1_565
Na14 O52 2.824762 1_554
Na14 O36 2.878870 1_565
Na15 O90 2.402311 1_555
Na15 O23 2.490155 1_555
Na15 O123 2.505964 1_555
Na15 O125 2.556533 1_555
Na15 O95 2.644523 1_565
Na15 O53 2.742483 1_554
Na15 O33 2.932245 1_565
Na15 O37 3.015440 1_565
Na16 O18 2.463753 1_555
Na16 O120 2.487369 1_555
Na16 O124 2.543985 1_555
Na16 O92 2.584020 1_565
Na16 O90 2.616786 1_555
Na16 O34 2.785017 1_555
Na16 O48 2.877602 1_554
Na16 O38 2.955895 1_555
Na17 O91 2.379625 1_555
Na17 O93 2.563935 1_565
Na17 O121 2.571537 1_555
Na17 O125 2.618327 1_555
Na17 O49 2.620870 1_554
Na17 O19 2.666260 1_555
Na17 O39 2.870550 1_555
Na17 O35 2.883066 1_555
Na18 O38 2.402824 1_556
Na18 O81 2.452191 1_555
Na18 O82 2.483346 1_555
Na18 O110 2.516363 1_555
Na18 O108 2.568966 1_555
Na18 O8 2.741400 1_555
Na18 O53 2.828728 1_555
Na19 O109 2.361614 1_555
Na19 O83 2.451435 1_555
Na19 O39 2.489339 1_556
Na19 O80 2.496580 1_655
Na19 O111 2.565061 1_555
Na19 O9 2.697522 1_555
Na20 O40 2.392991 1_556
Na20 O79 2.458493 1_555
Na20 O112 2.477393 1_555
Na20 O10 2.515687 1_555
Na20 O82 2.543086 1_545
Na20 O110 2.562928 1_555
Na21 O11 2.411478 1_555
Na21 O113 2.457058 1_555
Na21 O83 2.482078 1_545
Na21 O111 2.565493 1_555
Na21 O78 2.667290 1_655
Na21 O41 2.729451 1_556
Na22 O78 2.442302 1_555
Na22 O112 2.473044 1_555
Na22 O80 2.488235 1_545
Na22 O108 2.502274 1_555
Na22 O36 2.555131 1_556
Na22 O6 2.581071 1_555
Na23 O7 2.363346 1_555
Na23 O113 2.468116 1_555
Na23 O109 2.496182 1_555
Na23 O81 2.504551 1_545
Na23 O79 2.640864 1_555
Na23 O71 2.791421 1_555
Na23 O37 2.811081 1_556
Na24 O114 2.391180 1_555
Na24 O74 2.484192 1_545
Na24 O77 2.510438 1_555
Na24 O46 2.539750 1_555
Na24 O118 2.597232 1_555
Na24 O4 2.742179 1_555
Na25 O75 2.370504 1_545
Na25 O115 2.405072 1_555
Na25 O47 2.430546 1_555
Na25 O76 2.522448 1_655
Na25 O119 2.574988 1_555
Na25 O5 2.786515 1_555
Na25 O56 2.985345 1_655
Na26 O76 2.404692 1_555
Na26 O0 2.417308 1_555
Na26 O116 2.523044 1_555
Na26 O72 2.539195 1_545
Na26 O114 2.541533 1_555
Na26 O62 2.817028 1_545
Na26 O42 2.888998 1_555
Na27 O115 2.414481 1_555
Na27 O73 2.534044 1_545
Na27 O117 2.552415 1_555
Na27 O77 2.609798 1_555
Na27 O43 2.653633 1_555
Na27 O1 2.689390 1_555
Na27 O63 2.753782 1_545
Na28 O116 2.426482 1_555
Na28 O2 2.443739 1_555
Na28 O74 2.466016 1_555
Na28 O118 2.504850 1_555
Na28 O73 2.627331 1_555
Na28 O44 2.794960 1_555
Na29 O75 2.435533 1_555
Na29 O45 2.468699 1_555
Na29 O117 2.531496 1_555
Na29 O72 2.599162 1_655
Na29 O119 2.668940 1_555
Na29 O3 2.678639 1_555
Na29 O55 2.895140 1_555
Na30 O75 2.345221 1_555
Na30 O76 2.420900 1_665
Na30 O89 2.520628 1_555
Na30 O85 2.598819 1_665
Na30 O72 2.614663 1_655
Na30 O86 2.837807 1_665
Na31 O74 2.494507 1_545
Na31 O77 2.500589 1_555
Na31 O84 2.546456 1_555
Na31 O73 2.549520 1_545
Na31 O87 2.587480 1_555
Na31 O88 2.629905 1_545
Na32 O91 2.472633 1_555
Na32 O83 2.491567 1_554
Na32 O93 2.522567 1_565
Na32 O94 2.563680 1_665
Na32 O80 2.581007 1_654
Na32 O78 2.620778 1_664
Na33 O81 2.427398 1_545
Na33 O92 2.463562 1_556
Na33 O90 2.513358 1_546
Na33 O95 2.611552 1_556
Na33 O82 2.639684 1_545
Na33 O79 2.639801 1_555
Na34 O96 2.338201 1_555
Na34 O98 2.412387 1_555
Na34 O100 2.552798 1_555
Na34 O112 2.608831 1_555
Na34 O108 2.760313 1_555
Na34 O110 2.783176 1_555
Na35 O109 2.436216 1_555
Na35 O99 2.443147 1_555
Na35 O113 2.499939 1_555
Na35 O97 2.516145 1_555
Na35 O101 2.651827 1_555
Na35 O111 2.851821 1_555
Na36 O114 2.409034 1_555
Na36 O116 2.450643 1_555
Na36 O106 2.494598 1_555
Na36 O102 2.569556 1_555
Na36 O104 2.677258 1_555
Na36 O118 2.767669 1_555
Na37 O115 2.479831 1_555
Na37 O107 2.527258 1_555
Na37 O117 2.534886 1_555
Na37 O103 2.535427 1_555
Na37 O105 2.672922 1_555
Na37 O119 2.737313 1_555
Na38 O134 2.442163 1_555
Na38 O132 2.446190 1_555
Na38 O124 2.539035 1_555
Na38 O136 2.596881 1_555
Na38 O120 2.614258 1_555
Na38 O122 2.614896 1_555
Na39 O133 2.336689 1_555
Na39 O135 2.384342 1_555
Na39 O137 2.445204 1_555
Na39 O123 2.563783 1_555
Na39 O125 2.689877 1_555
Na39 O121 2.773033 1_555
Na40 O130 2.438034 1_555
Na40 O138 2.447779 1_555
Na40 O140 2.475373 1_555
Na40 O142 2.499395 1_555
Na40 O128 2.601293 1_555
Na40 O126 2.702440 1_555
Na41 O129 2.426084 1_555
Na41 O127 2.480954 1_555
Na41 O143 2.510825 1_555
Na41 O139 2.516516 1_555
Na41 O131 2.590341 1_555
Na41 O141 2.723289 1_555
O0 Si0 1.607950 1_545
O0 Zn0 2.051929 1_445
O1 Si1 1.634694 1_555
O1 Zn1 1.977380 1_545
O2 Si2 1.607954 1_555
O2 Zn1 1.963184 1_555
O3 Si3 1.613864 1_555
O3 Zn0 1.987035 1_555
O4 S1 1.468697 1_555
O4 Zn1 2.173193 1_545
O5 S0 1.463370 1_655
O5 Zn0 2.149737 1_545
O6 Si4 1.641759 1_555
O6 Zn2 1.992008 1_455
O7 Si5 1.618277 1_555
O7 Zn3 1.942080 1_555
O8 S3 1.478804 1_555
O8 Zn3 2.127890 1_565
O9 S2 1.474031 1_555
O9 Zn2 2.136583 1_565
O10 Si6 1.630322 1_545
O10 Zn3 1.966324 1_555
O11 Si7 1.615797 1_555
O11 Zn2 1.945930 1_555
O12 Si6 1.690168 1_555
O12 Sn1 1.992742 1_565
O13 Si7 1.634152 1_565
O13 Sn0 1.981260 1_555
O14 Si4 1.675168 1_555
O14 Sn0 2.019404 1_445
O15 Si5 1.659327 1_555
O15 Sn1 2.010943 1_555
O16 S2 1.497747 1_455
O16 Sn0 2.190919 1_455
O17 S3 1.492773 1_555
O17 Sn1 2.267241 1_565
O18 Si2 1.644333 1_555
O18 Sn3 1.986806 1_555
O19 Si3 1.713032 1_555
O19 Sn2 1.992343 1_655
O20 S0 1.507317 1_555
O20 Sn2 2.216248 1_545
O21 S1 1.507355 1_555
O21 Sn3 2.155085 1_545
O22 Si0 1.671633 1_555
O22 Sn2 2.012598 1_555
O23 Si1 1.692752 1_565
O23 Sn3 1.989365 1_555
O24 Si8 1.621991 1_555
O24 Zn4 1.951661 1_555
O25 Si9 1.646207 1_555
O25 Sn4 2.050669 1_555
O26 S4 1.477995 1_555
O26 Zn4 2.205298 1_555
O27 Si10 1.658559 1_555
O27 Sn4 2.033136 1_555
O28 S5 1.473633 1_555
O28 Zn4 2.328459 1_555
O29 Si11 1.643322 1_555
O29 Sn4 1.987805 1_555
O30 Si12 1.636347 1_555
O30 Sn5 2.050275 1_555
O31 Si13 1.608827 1_555
O31 Zn5 1.962929 1_555
O32 Si14 1.635921 1_555
O32 Sn5 2.018446 1_555
O33 S6 1.468020 1_555
O33 Zn5 2.327060 1_555
O34 Si15 1.646768 1_555
O34 Sn5 2.043368 1_555
O35 S7 1.470817 1_555
O35 Zn5 2.258230 1_555
O36 Si15 1.630488 1_555
O36 Zn6 1.956569 1_555
O37 S7 1.477862 1_555
O37 Zn7 2.167387 1_554
O38 Si12 1.625703 1_555
O38 Zn6 1.940892 1_555
O39 Si13 1.622069 1_555
O39 Zn7 1.979538 1_554
O40 Si14 1.617933 1_555
O40 Zn6 1.940721 1_555
O41 S6 1.467827 1_555
O41 Zn7 2.300991 1_554
O42 S4 1.472347 1_555
O42 Zn8 2.206745 1_555
O43 Si10 1.614804 1_555
O43 Zn9 1.999901 1_555
O44 S5 1.464084 1_555
O44 Zn8 2.309024 1_555
O45 Si11 1.609246 1_555
O45 Zn9 2.034496 1_555
O46 Si8 1.621213 1_555
O46 Zn8 1.976356 1_555
O47 Si9 1.599915 1_555
O47 Zn9 1.992984 1_555
O48 S8 1.524477 1_555
O48 Sn6 2.153309 1_556
O49 Si16 1.687759 1_555
O49 Sn7 2.006125 1_556
O50 S9 1.515029 1_555
O50 Sn6 2.108885 1_556
O51 S10 1.510673 1_555
O51 Sn7 2.127022 1_556
O52 S11 1.527252 1_555
O52 Sn6 2.155606 1_556
O53 Si17 1.669843 1_555
O53 Sn7 1.985164 1_556
O54 Si18 1.691881 1_555
O54 Sn8 2.009535 1_555
O55 Si19 1.686409 1_555
O55 Sn9 1.991941 1_555
O56 Si20 1.670540 1_555
O56 Sn8 1.972594 1_555
O57 S12 1.522634 1_555
O57 Sn9 2.187596 1_555
O58 S13 1.514614 1_555
O58 Sn8 2.095652 1_555
O59 S14 1.499345 1_555
O59 Sn9 2.166281 1_555
O60 S13 1.507361 1_555
O60 Sn10 2.183550 1_555
O61 S14 1.479047 1_555
O61 Zn10 2.208101 1_555
O62 Si18 1.644005 1_555
O62 Sn10 1.954643 1_555
O63 Si19 1.625284 1_555
O63 Zn10 1.910993 1_555
O64 Si20 1.668249 1_555
O64 Sn10 2.019622 1_555
O65 S12 1.476414 1_555
O65 Zn10 2.266660 1_555
O66 S9 1.479614 1_555
O66 Zn11 2.140799 1_555
O67 S10 1.498865 1_555
O67 Sn11 2.231029 1_555
O68 S11 1.476574 1_555
O68 Zn11 2.211446 1_555
O69 Si17 1.661662 1_555
O69 Sn11 2.016661 1_555
O70 S8 1.476716 1_555
O70 Zn11 2.105232 1_555
O71 Si16 1.645018 1_555
O71 Sn11 1.957909 1_555
O72 S13 1.468363 1_555
O72 Zn0 2.303337 1_455
O73 S14 1.491478 1_555
O73 Zn1 2.364860 1_555
O74 Si18 1.638352 1_555
O74 Zn1 2.138277 1_555
O75 Si19 1.642665 1_555
O75 Zn0 2.111135 1_555
O76 Si20 1.619039 1_555
O76 Zn0 2.174611 1_445
O77 S12 1.490467 1_555
O77 Zn1 2.496273 1_545
O78 S9 1.484343 1_555
O78 Zn2 2.417377 1_455
O79 S10 1.478234 1_555
O79 Zn3 2.355657 1_555
O80 S11 1.482707 1_555
O81 Si17 1.641971 1_555
O81 Zn3 2.151772 1_565
O82 S8 1.481833 1_555
O82 Zn3 2.503870 1_565
O83 Si16 1.640308 1_555
O83 Zn2 2.152695 1_565
O84 Si8 1.710003 1_555
O84 Sn1 2.044688 1_555
O85 Si9 1.684262 1_455
O85 Sn0 2.060014 1_445
O86 S4 1.493680 1_555
O86 Sn0 2.244113 1_445
O87 Si10 1.661808 1_555
O87 Sn1 1.992624 1_555
O88 S5 1.498260 1_555
O88 Sn1 2.340385 1_565
O89 Si11 1.675312 1_555
O89 Sn0 2.037545 1_555
O90 Si12 1.676559 1_555
O90 Sn3 2.090624 1_555
O91 Si13 1.700506 1_555
O91 Sn2 2.063254 1_655
O92 Si14 1.653173 1_555
O92 Sn3 2.040399 1_545
O93 S6 1.497701 1_555
O93 Sn2 2.374905 1_645
O94 Si15 1.653211 1_555
O94 Sn2 2.035744 1_545
O95 S7 1.497173 1_555
O95 Sn3 2.281624 1_545
O96 Si6 1.640083 1_545
O96 Zn4 2.078806 1_555
O97 Si7 1.662852 1_555
O97 Sn4 2.097716 1_555
O98 Si4 1.650898 1_555
O98 Zn4 2.075219 1_555
O99 Si5 1.638943 1_555
O99 Sn4 2.068217 1_555
O100 S3 1.481358 1_555
O100 Zn4 2.317439 1_555
O101 S2 1.487962 1_555
O101 Sn4 2.326654 1_555
O102 Si2 1.664296 1_555
O102 Sn5 2.080923 1_555
O103 Si3 1.642535 1_555
O103 Zn5 2.018290 1_555
O104 S1 1.500331 1_555
O104 Sn5 2.256381 1_555
O105 S0 1.478739 1_655
O105 Zn5 2.269870 1_555
O106 Si0 1.653501 1_545
O106 Sn5 2.058299 1_555
O107 Si1 1.644786 1_555
O107 Zn5 2.037297 1_555
O108 S8 1.482468 1_555
O109 Si16 1.629539 1_555
O109 Zn7 2.039450 1_555
O110 S10 1.475227 1_555
O111 S9 1.477824 1_655
O111 Zn7 2.282243 1_555
O112 S11 1.485377 1_545
O113 Si17 1.637600 1_545
O113 Zn7 2.150006 1_555
O114 Si18 1.626785 1_545
O114 Zn8 2.032657 1_555
O115 Si19 1.650118 1_545
O115 Zn9 2.120881 1_555
O116 Si20 1.640769 1_555
O116 Zn8 2.108433 1_555
O117 S12 1.481773 1_555
O118 S14 1.488622 1_555
O118 Zn8 2.229612 1_555
O119 S13 1.465079 1_655
O120 Si15 1.652887 1_555
O120 Sn6 2.001636 1_555
O121 S7 1.518037 1_555
O121 Sn7 2.218134 1_555
O122 Si13 1.677569 1_455
O122 Sn6 1.991137 1_555
O123 Si12 1.677917 1_555
O123 Sn7 2.031924 1_555
O124 Si14 1.683022 1_565
O124 Sn6 2.037085 1_555
O125 S6 1.556802 1_565
O125 Sn7 2.225487 1_555
O126 S4 1.515878 1_565
O126 Sn8 2.226323 1_555
O127 Si10 1.644574 1_565
O127 Sn9 2.030373 1_555
O128 S5 1.549562 1_555
O128 Sn8 2.258672 1_555
O129 Si11 1.682278 1_555
O129 Sn9 2.065307 1_555
O130 Si9 1.685304 1_455
O130 Sn8 2.037025 1_555
O131 Si8 1.662685 1_555
O131 Sn9 2.036249 1_555
O132 Si0 1.674125 1_555
O132 Sn10 2.044392 1_555
O133 Si1 1.645108 1_565
O133 Zn10 2.083072 1_555
O134 Si2 1.659500 1_555
O134 Sn10 2.021299 1_555
O135 Si3 1.647164 1_555
O135 Zn10 2.016106 1_555
O136 S0 1.510240 1_555
O136 Sn10 2.366411 1_555
O137 S1 1.481950 1_555
O137 Zn10 2.499469 1_555
O138 Si4 1.654176 1_555
O138 Zn11 2.016371 1_555
O139 Si5 1.670800 1_555
O139 Sn11 2.030093 1_555
O140 S2 1.497466 1_455
O140 Zn11 2.279334 1_555
O141 S3 1.506398 1_555
O141 Sn11 2.345612 1_555
O142 Si6 1.650306 1_555
O142 Zn11 1.972953 1_555
O143 Si7 1.659986 1_565
O143 Sn11 2.011250 1_555
