# generated using pymatgen
data_Ba5MgBi3O11
_symmetry_space_group_name_H-M   'P 1'
_cell_length_a   6.44109061
_cell_length_b   6.52628773
_cell_length_c   9.85641552
_cell_angle_alpha   91.14443976
_cell_angle_beta   81.64334308
_cell_angle_gamma   89.12956102
_symmetry_Int_Tables_number   1
_chemical_formula_structural   Ba5MgBi3O11
_chemical_formula_sum   'Ba5 Mg1 Bi3 O11'
_cell_volume   409.77887821
_cell_formula_units_Z   1
loop_
 _symmetry_equiv_pos_site_id
 _symmetry_equiv_pos_as_xyz
  1  'x, y, z'
loop_
 _atom_site_type_symbol
 _atom_site_label
 _atom_site_symmetry_multiplicity
 _atom_site_fract_x
 _atom_site_fract_y
 _atom_site_fract_z
 _atom_site_occupancy
  Ba  Ba0  1  0.51675780  0.96787922  0.22893528  1
  Ba  Ba1  1  0.61596718  0.02638281  0.82774687  1
  Ba  Ba2  1  0.93530606  0.05200272  0.48397327  1
  Ba  Ba3  1  0.97081087  0.48929358  0.24215279  1
  Ba  Ba4  1  0.09287227  0.52960428  0.82339273  1
  Mg  Mg0  1  0.81537189  0.59459102  0.60691058  1
  Bi  Bi0  1  0.06393885  0.00834770  0.02316495  1
  Bi  Bi1  1  0.55098928  0.50287424  0.00316254  1
  Bi  Bi2  1  0.41612362  0.50485179  0.46098881  1
  O  O0  1  0.77361895  0.23136512  0.04015872  1
  O  O1  1  0.28980142  0.27273293  0.98178084  1
  O  O2  1  0.81545768  0.73065347  0.04289413  1
  O  O3  1  0.09272876  0.02812156  0.23145181  1
  O  O4  1  0.58870061  0.22759153  0.42213858  1
  O  O5  1  0.37640500  0.56551357  0.25459149  1
  O  O6  1  0.33906159  0.77608056  0.96272561  1
  O  O7  1  0.70818867  0.70501602  0.44061430  1
  O  O8  1  0.06030633  0.41532334  0.53352128  1
  O  O9  1  0.66275820  0.45208297  0.77725308  1
  O  O10  1  0.93153397  0.83424058  0.69815635  1
loop_
_geom_bond_atom_site_label_1
_geom_bond_atom_site_label_2
_geom_bond_distance
_geom_bond_site_symmetry_2
Ba0 O4 2.620184 1_565
Ba0 O3 2.749907 1_565
Ba0 O5 2.794467 1_555
Ba0 O2 2.869078 1_555
Ba0 O0 2.911312 1_565
Ba0 O7 3.105300 1_555
Ba0 O6 3.247587 1_554
Ba1 O10 2.537581 1_545
Ba1 O6 2.665558 1_545
Ba1 O0 2.784127 1_556
Ba1 O9 2.845036 1_555
Ba1 O1 2.859415 1_555
Ba1 O2 3.279183 1_546
Ba2 O3 2.548228 1_655
Ba2 O10 2.565730 1_545
Ba2 O8 2.575863 1_655
Ba2 O4 2.648478 1_555
Ba2 O7 2.773896 1_545
Ba3 O5 2.686561 1_655
Ba3 O7 2.743309 1_555
Ba3 O2 2.826061 1_555
Ba3 O0 3.012761 1_555
Ba3 O8 3.056301 1_655
Ba3 O3 3.094798 1_655
Ba3 O1 3.322556 1_654
Ba3 O4 3.331871 1_555
Ba4 O10 2.639026 1_455
Ba4 O1 2.733493 1_555
Ba4 O6 2.758679 1_555
Ba4 O2 2.878692 1_456
Ba4 O9 2.921904 1_455
Ba4 O8 2.976084 1_555
Mg0 O8 1.989824 1_655
Mg0 O10 1.997445 1_555
Mg0 O7 2.010862 1_555
Mg0 O9 2.064130 1_555
Bi0 O3 2.089616 1_555
Bi0 O1 2.278577 1_554
Bi0 O6 2.316986 1_544
Bi0 O0 2.336622 1_455
Bi0 O2 2.428085 1_445
Bi1 O9 2.254657 1_554
Bi1 O1 2.301686 1_554
Bi1 O6 2.305201 1_554
Bi1 O0 2.330163 1_555
Bi1 O2 2.347888 1_555
Bi1 O5 2.590098 1_555
Bi2 O4 2.108069 1_555
Bi2 O5 2.130982 1_555
Bi2 O7 2.293717 1_555
Bi2 O8 2.384574 1_555
