# generated using pymatgen
data_Ce2S3
_symmetry_space_group_name_H-M   'P 1'
_cell_length_a   4.09449793
_cell_length_b   7.57198106
_cell_length_c   15.64470777
_cell_angle_alpha   89.87201562
_cell_angle_beta   90.00000000
_cell_angle_gamma   90.00000000
_symmetry_Int_Tables_number   1
_chemical_formula_structural   Ce2S3
_chemical_formula_sum   'Ce8 S12'
_cell_volume   485.03887333
_cell_formula_units_Z   4
loop_
 _symmetry_equiv_pos_site_id
 _symmetry_equiv_pos_as_xyz
  1  'x, y, z'
loop_
 _atom_site_type_symbol
 _atom_site_label
 _atom_site_symmetry_multiplicity
 _atom_site_fract_x
 _atom_site_fract_y
 _atom_site_fract_z
 _atom_site_occupancy
  Ce  Ce0  1  0.25000000  0.76355437  0.54201429  1
  Ce  Ce1  1  0.75000000  0.23644563  0.45798571  1
  Ce  Ce2  1  0.25000000  0.26316354  0.95767136  1
  Ce  Ce3  1  0.75000000  0.73683646  0.04232864  1
  Ce  Ce4  1  0.25000000  0.63717015  0.29341182  1
  Ce  Ce5  1  0.75000000  0.36282985  0.70658818  1
  Ce  Ce6  1  0.25000000  0.13638221  0.20761762  1
  Ce  Ce7  1  0.75000000  0.86361779  0.79238238  1
  S  S0  1  0.25000000  0.64964907  0.71970570  1
  S  S1  1  0.75000000  0.35035093  0.28029430  1
  S  S2  1  0.25000000  0.15065121  0.77988719  1
  S  S3  1  0.75000000  0.84934879  0.22011281  1
  S  S4  1  0.25000000  0.87314309  0.93172805  1
  S  S5  1  0.75000000  0.12685691  0.06827195  1
  S  S6  1  0.25000000  0.37278657  0.56804540  1
  S  S7  1  0.75000000  0.62721343  0.43195460  1
  S  S8  1  0.75000000  0.98774770  0.60804536  1
  S  S9  1  0.25000000  0.01225230  0.39195464  1
  S  S10  1  0.75000000  0.48773772  0.89196987  1
  S  S11  1  0.25000000  0.51226228  0.10803013  1
loop_
_geom_bond_atom_site_label_1
_geom_bond_atom_site_label_2
_geom_bond_distance
_geom_bond_site_symmetry_2
Ce0 S8 2.854476 1_555
Ce0 S8 2.854476 1_455
Ce0 S7 2.868751 1_455
Ce0 S7 2.868751 1_555
Ce0 S0 2.908812 1_555
Ce0 S6 2.985880 1_555
Ce0 S9 3.006304 1_565
Ce1 S9 2.854476 1_555
Ce1 S9 2.854476 1_655
Ce1 S6 2.868751 1_655
Ce1 S6 2.868751 1_555
Ce1 S1 2.908812 1_555
Ce1 S7 2.985880 1_555
Ce1 S8 3.006304 1_545
Ce2 S10 2.851589 1_455
Ce2 S10 2.851589 1_555
Ce2 S5 2.870974 1_556
Ce2 S5 2.870974 1_456
Ce2 S2 2.910751 1_555
Ce2 S4 2.981886 1_545
Ce2 S11 3.018421 1_556
Ce3 S11 2.851589 1_555
Ce3 S11 2.851589 1_655
Ce3 S4 2.870974 1_654
Ce3 S4 2.870974 1_554
Ce3 S3 2.910751 1_555
Ce3 S5 2.981886 1_565
Ce3 S10 3.018421 1_554
Ce4 S3 2.842397 1_455
Ce4 S3 2.842397 1_555
Ce4 S7 2.982293 1_455
Ce4 S7 2.982293 1_555
Ce4 S1 2.991990 1_455
Ce4 S1 2.991990 1_555
Ce4 S11 3.052572 1_555
Ce4 S9 3.234590 1_565
Ce5 S2 2.842397 1_555
Ce5 S2 2.842397 1_655
Ce5 S6 2.982293 1_555
Ce5 S6 2.982293 1_655
Ce5 S0 2.991990 1_555
Ce5 S0 2.991990 1_655
Ce5 S10 3.052572 1_555
Ce5 S8 3.234590 1_545
Ce6 S1 2.849067 1_555
Ce6 S1 2.849067 1_455
Ce6 S5 2.991593 1_555
Ce6 S5 2.991593 1_455
Ce6 S3 2.991866 1_445
Ce6 S3 2.991866 1_545
Ce6 S9 3.031203 1_555
Ce6 S11 3.241638 1_555
Ce7 S0 2.849067 1_655
Ce7 S0 2.849067 1_555
Ce7 S4 2.991593 1_555
Ce7 S4 2.991593 1_655
Ce7 S2 2.991866 1_665
Ce7 S2 2.991866 1_565
Ce7 S8 3.031203 1_555
Ce7 S10 3.241638 1_555
