# generated using pymatgen
data_Na9Mg5NbP6(SO12)3
_symmetry_space_group_name_H-M   'P 1'
_cell_length_a   8.96330816
_cell_length_b   8.96330786
_cell_length_c   22.14061842
_cell_angle_alpha   90.22103142
_cell_angle_beta   89.77896857
_cell_angle_gamma   120.24137801
_symmetry_Int_Tables_number   1
_chemical_formula_structural   Na9Mg5NbP6(SO12)3
_chemical_formula_sum   'Na18 Mg10 Nb2 P12 S6 O72'
_cell_volume   1536.70762849
_cell_formula_units_Z   2
loop_
 _symmetry_equiv_pos_site_id
 _symmetry_equiv_pos_as_xyz
  1  'x, y, z'
loop_
 _atom_site_type_symbol
 _atom_site_label
 _atom_site_symmetry_multiplicity
 _atom_site_fract_x
 _atom_site_fract_y
 _atom_site_fract_z
 _atom_site_occupancy
  Na  Na0  1  0.36175947  0.35212137  0.24913263  1
  Na  Na1  1  0.64787863  0.63824053  0.74913263  1
  Na  Na2  1  0.03180460  0.70046041  0.58595055  1
  Na  Na3  1  0.66596203  0.96739733  0.58551745  1
  Na  Na4  1  0.29953959  0.96819540  0.08595055  1
  Na  Na5  1  0.03260267  0.33403797  0.08551745  1
  Na  Na6  1  0.96357633  0.66961919  0.91309682  1
  Na  Na7  1  0.70375159  0.03275890  0.91278722  1
  Na  Na8  1  0.33044700  0.29512250  0.91173323  1
  Na  Na9  1  0.96724110  0.29624841  0.41278722  1
  Na  Na10  1  0.33038081  0.03642367  0.41309682  1
  Na  Na11  1  0.70487750  0.66955300  0.41173323  1
  Na  Na12  1  0.01198145  0.01317550  0.49724860  1
  Na  Na13  1  0.98682450  0.98801855  0.99724860  1
  Na  Na14  1  0.66616306  0.32231643  0.82679942  1
  Na  Na15  1  0.67768357  0.33383694  0.32679942  1
  Na  Na16  1  0.34729585  0.67898809  0.16584478  1
  Na  Na17  1  0.32101191  0.65270415  0.66584478  1
  Mg  Mg0  1  0.99770054  0.99808943  0.34713773  1
  Mg  Mg1  1  0.00191057  0.00229946  0.84713773  1
  Mg  Mg2  1  0.00831243  0.00871377  0.65760024  1
  Mg  Mg3  1  0.99128623  0.99168757  0.15760024  1
  Mg  Mg4  1  0.66377999  0.32550883  0.68902231  1
  Mg  Mg5  1  0.67449117  0.33622001  0.18902231  1
  Mg  Mg6  1  0.66723723  0.33621561  0.98012467  1
  Mg  Mg7  1  0.66378439  0.33276277  0.48012467  1
  Mg  Mg8  1  0.33897643  0.66824783  0.01395125  1
  Mg  Mg9  1  0.33175217  0.66102357  0.51395125  1
  Nb  Nb0  1  0.33322213  0.67113909  0.31224721  1
  Nb  Nb1  1  0.32886091  0.66677787  0.81224721  1
  P  P0  1  0.29528164  0.00285319  0.24920414  1
  P  P1  1  0.70709854  0.70341012  0.25200741  1
  P  P2  1  0.99585070  0.29216271  0.25050552  1
  P  P3  1  0.29658988  0.29290146  0.75200741  1
  P  P4  1  0.99714681  0.70471836  0.74920414  1
  P  P5  1  0.70783729  0.00414930  0.75050552  1
  P  P6  1  0.62845269  0.66879101  0.91736694  1
  P  P7  1  0.03944429  0.37089399  0.92015043  1
  P  P8  1  0.33111940  0.96006814  0.92011081  1
  P  P9  1  0.62910601  0.96055571  0.42015043  1
  P  P10  1  0.33120899  0.37154731  0.41736694  1
  P  P11  1  0.03993186  0.66888060  0.42011081  1
  S  S0  1  0.96007650  0.33276367  0.58256143  1
  S  S1  1  0.37095676  0.03981067  0.58230550  1
  S  S2  1  0.66568331  0.62831467  0.58327173  1
  S  S3  1  0.96018933  0.62904324  0.08230550  1
  S  S4  1  0.66723633  0.03992350  0.08256143  1
  S  S5  1  0.37168533  0.33431669  0.08327173  1
  O  O0  1  0.21222960  0.02802325  0.30593235  1
  O  O1  1  0.80545911  0.78005987  0.31043984  1
  O  O2  1  0.97972105  0.19080892  0.30776374  1
  O  O3  1  0.21994013  0.19454089  0.81043984  1
  O  O4  1  0.97197675  0.78777040  0.80593235  1
  O  O5  1  0.80919108  0.02027895  0.80776374  1
  O  O6  1  0.77711086  0.95868964  0.69327862  1
  O  O7  1  0.18481245  0.21868789  0.69626429  1
  O  O8  1  0.03278715  0.81170678  0.69134970  1
  O  O9  1  0.78131211  0.81518755  0.19626429  1
  O  O10  1  0.04131036  0.22288914  0.19327862  1
  O  O11  1  0.18829322  0.96721285  0.19134970  1
  O  O12  1  0.87233219  0.35782351  0.63502522  1
  O  O13  1  0.48307687  0.12830124  0.63458643  1
  O  O14  1  0.64822966  0.52673699  0.63788251  1
  O  O15  1  0.87169876  0.51692313  0.13458643  1
  O  O16  1  0.64217649  0.12766781  0.13502522  1
  O  O17  1  0.47326301  0.35177034  0.13788251  1
  O  O18  1  0.45492132  0.31174159  0.02839926  1
  O  O19  1  0.86333908  0.54971619  0.02576130  1
  O  O20  1  0.69228370  0.14288991  0.02642534  1
  O  O21  1  0.45028381  0.13666092  0.52576130  1
  O  O22  1  0.68825841  0.54507868  0.52839926  1
  O  O23  1  0.85711009  0.30771630  0.52642534  1
  O  O24  1  0.54258009  0.70031603  0.97131011  1
  O  O25  1  0.14846549  0.45212254  0.97687664  1
  O  O26  1  0.30162604  0.85065724  0.97675155  1
  O  O27  1  0.54787746  0.85153451  0.47687664  1
  O  O28  1  0.29968397  0.45741991  0.47131011  1
  O  O29  1  0.14934276  0.69837396  0.47675155  1
  O  O30  1  0.13989678  0.64391957  0.36499250  1
  O  O31  1  0.50429524  0.85973107  0.36520190  1
  O  O32  1  0.35759073  0.48852034  0.35981896  1
  O  O33  1  0.14026893  0.49570476  0.86520190  1
  O  O34  1  0.35608043  0.86010322  0.86499250  1
  O  O35  1  0.51147966  0.64240927  0.85981896  1
  O  O36  1  0.02180394  0.82880363  0.41128036  1
  O  O37  1  0.80818801  0.98032060  0.41143413  1
  O  O38  1  0.17171795  0.18994304  0.41024690  1
  O  O39  1  0.01967940  0.19181199  0.91143413  1
  O  O40  1  0.17119637  0.97819606  0.91128036  1
  O  O41  1  0.81005696  0.82828205  0.91024690  1
  O  O42  1  0.97396259  0.17471354  0.58847133  1
  O  O43  1  0.19438116  0.01451204  0.58750196  1
  O  O44  1  0.82573490  0.80496317  0.58643635  1
  O  O45  1  0.98548796  0.80561884  0.08750196  1
  O  O46  1  0.82528646  0.02603741  0.08847133  1
  O  O47  1  0.19503683  0.17426510  0.08643635  1
  O  O48  1  0.67788443  0.15516989  0.74393893  1
  O  O49  1  0.48496695  0.33477690  0.74500531  1
  O  O50  1  0.83740330  0.52367608  0.74320284  1
  O  O51  1  0.66522310  0.51503305  0.24500531  1
  O  O52  1  0.84483011  0.32211557  0.24393893  1
  O  O53  1  0.47632392  0.16259670  0.24320284  1
  O  O54  1  0.63913890  0.50160161  0.92025146  1
  O  O55  1  0.86191855  0.36037646  0.92070819  1
  O  O56  1  0.49896392  0.13804382  0.92102521  1
  O  O57  1  0.63962354  0.13808145  0.42070819  1
  O  O58  1  0.49839839  0.36086110  0.42025146  1
  O  O59  1  0.86195618  0.50103608  0.42102521  1
  O  O60  1  0.34772412  0.48704124  0.07929759  1
  O  O61  1  0.13708963  0.64569056  0.07975148  1
  O  O62  1  0.50776655  0.86626952  0.07828169  1
  O  O63  1  0.35430944  0.86291037  0.57975148  1
  O  O64  1  0.51295876  0.65227588  0.57929759  1
  O  O65  1  0.13373048  0.49223345  0.57828169  1
  O  O66  1  0.31507452  0.83645776  0.25833273  1
  O  O67  1  0.51663673  0.68340591  0.25921696  1
  O  O68  1  0.16966022  0.47958094  0.25854529  1
  O  O69  1  0.31659409  0.48336327  0.75921696  1
  O  O70  1  0.16354224  0.68492548  0.75833273  1
  O  O71  1  0.52041906  0.83033978  0.75854529  1
loop_
_geom_bond_atom_site_label_1
_geom_bond_atom_site_label_2
_geom_bond_distance
_geom_bond_site_symmetry_2
Na0 O51 2.353192 1_555
Na0 O53 2.389959 1_555
Na0 O68 2.508040 1_555
Na0 O67 2.576707 1_555
Na0 O17 2.655202 1_555
Na0 O32 2.743002 1_555
Na0 O10 2.790353 1_555
Na0 O0 2.812497 1_555
Na1 O49 2.353192 1_555
Na1 O50 2.389959 1_555
Na1 O71 2.508040 1_555
Na1 O69 2.576708 1_555
Na1 O14 2.655202 1_555
Na1 O35 2.743002 1_555
Na1 O6 2.790353 1_555
Na1 O4 2.812497 1_555
Na2 O43 2.432349 1_565
Na2 O44 2.455945 1_455
Na2 O65 2.461881 1_555
Na2 O63 2.500782 1_555
Na2 O8 2.532472 1_555
Na2 O29 2.637339 1_555
Na2 O12 2.871870 1_455
Na2 O22 2.956715 1_455
Na3 O42 2.431427 1_565
Na3 O64 2.444246 1_555
Na3 O63 2.462375 1_555
Na3 O44 2.504354 1_555
Na3 O6 2.605618 1_555
Na3 O27 2.622551 1_555
Na3 O13 2.881507 1_565
Na3 O23 2.949775 1_565
Na4 O45 2.432349 1_455
Na4 O47 2.455945 1_565
Na4 O62 2.461881 1_555
Na4 O61 2.500782 1_555
Na4 O11 2.532472 1_555
Na4 O26 2.637339 1_554
Na4 O16 2.871870 1_565
Na4 O18 2.956715 1_565
Na5 O46 2.431427 1_455
Na5 O60 2.444246 1_555
Na5 O61 2.462375 1_555
Na5 O47 2.504354 1_555
Na5 O10 2.605618 1_555
Na5 O25 2.622551 1_554
Na5 O15 2.881507 1_455
Na5 O20 2.949775 1_455
Na6 O41 2.427451 1_555
Na6 O40 2.435246 1_655
Na6 O55 2.449509 1_555
Na6 O54 2.517271 1_555
Na6 O4 2.587381 1_555
Na6 O19 2.686142 1_556
Na6 O33 2.919568 1_655
Na6 O26 2.977116 1_655
Na7 O39 2.446505 1_655
Na7 O41 2.455216 1_545
Na7 O56 2.456445 1_555
Na7 O5 2.529857 1_555
Na7 O55 2.543296 1_555
Na7 O20 2.719633 1_556
Na7 O24 2.885186 1_545
Na7 O34 2.894994 1_545
Na8 O3 2.434261 1_555
Na8 O54 2.441258 1_555
Na8 O39 2.453258 1_555
Na8 O40 2.454121 1_545
Na8 O56 2.540263 1_555
Na8 O18 2.791241 1_556
Na8 O35 2.927331 1_555
Na8 O25 2.999936 1_555
Na9 O37 2.446505 1_545
Na9 O38 2.455216 1_655
Na9 O59 2.456445 1_555
Na9 O2 2.529857 1_555
Na9 O57 2.543296 1_555
Na9 O23 2.719633 1_555
Na9 O28 2.885186 1_655
Na9 O30 2.894993 1_655
Na10 O38 2.427451 1_555
Na10 O36 2.435246 1_545
Na10 O57 2.449509 1_555
Na10 O58 2.517271 1_555
Na10 O0 2.587381 1_555
Na10 O21 2.686142 1_555
Na10 O31 2.919568 1_545
Na10 O29 2.977116 1_545
Na11 O1 2.434261 1_555
Na11 O58 2.441258 1_555
Na11 O37 2.453258 1_555
Na11 O36 2.454121 1_655
Na11 O59 2.540263 1_555
Na11 O22 2.791241 1_555
Na11 O32 2.927331 1_555
Na11 O27 2.999936 1_555
Na12 O38 2.447056 1_555
Na12 O36 2.546108 1_545
Na12 O37 2.552249 1_445
Na12 O43 2.582908 1_555
Na12 O42 2.600196 1_455
Na12 O44 2.652152 1_445
Na13 O41 2.447056 1_555
Na13 O40 2.546108 1_655
Na13 O39 2.552249 1_665
Na13 O45 2.582908 1_556
Na13 O46 2.600196 1_566
Na13 O47 2.652152 1_666
Na14 O48 2.399406 1_555
Na14 O49 2.477260 1_555
Na14 O50 2.500506 1_555
Na14 O56 2.614472 1_555
Na14 O55 2.633982 1_555
Na14 O54 2.699032 1_555
Na15 O52 2.399406 1_555
Na15 O51 2.477260 1_555
Na15 O53 2.500506 1_555
Na15 O59 2.614472 1_555
Na15 O57 2.633982 1_555
Na15 O58 2.699032 1_555
Na16 O62 2.493353 1_555
Na16 O67 2.557790 1_555
Na16 O60 2.571590 1_555
Na16 O66 2.579261 1_555
Na16 O61 2.594109 1_555
Na16 O68 2.660599 1_555
Na17 O65 2.493353 1_555
Na17 O69 2.557790 1_555
Na17 O64 2.571590 1_555
Na17 O70 2.579261 1_555
Na17 O63 2.594109 1_555
Na17 O71 2.660599 1_555
Mg0 O1 2.013716 1_555
Mg0 O2 2.015684 1_565
Mg0 O0 2.017543 1_665
Mg0 O38 2.153815 1_665
Mg0 O37 2.155903 1_555
Mg0 O36 2.171430 1_655
Mg1 O3 2.013716 1_555
Mg1 O5 2.015684 1_455
Mg1 O4 2.017543 1_445
Mg1 O41 2.153815 1_445
Mg1 O39 2.155903 1_555
Mg1 O40 2.171430 1_545
Mg2 O7 1.943354 1_555
Mg2 O8 2.031330 1_545
Mg2 O6 2.042974 1_445
Mg2 O43 2.255290 1_555
Mg2 O42 2.265816 1_455
Mg2 O44 2.341621 1_445
Mg3 O9 1.943354 1_555
Mg3 O11 2.031330 1_655
Mg3 O10 2.042974 1_665
Mg3 O45 2.255290 1_555
Mg3 O46 2.265816 1_565
Mg3 O47 2.341621 1_665
Mg4 O48 2.008836 1_555
Mg4 O50 2.056570 1_555
Mg4 O49 2.056715 1_555
Mg4 O13 2.077327 1_555
Mg4 O12 2.108927 1_555
Mg4 O14 2.196563 1_555
Mg5 O52 2.008836 1_555
Mg5 O53 2.056570 1_555
Mg5 O51 2.056715 1_555
Mg5 O15 2.077327 1_555
Mg5 O16 2.108927 1_555
Mg5 O17 2.196563 1_555
Mg6 O18 2.092303 1_556
Mg6 O19 2.093620 1_556
Mg6 O54 2.100490 1_555
Mg6 O55 2.103879 1_555
Mg6 O56 2.107341 1_555
Mg6 O20 2.123993 1_556
Mg7 O22 2.092303 1_555
Mg7 O21 2.093620 1_555
Mg7 O58 2.100490 1_555
Mg7 O57 2.103879 1_555
Mg7 O59 2.107341 1_555
Mg7 O23 2.123993 1_555
Mg8 O24 1.940322 1_554
Mg8 O25 2.002230 1_554
Mg8 O26 2.006865 1_554
Mg8 O62 2.181788 1_555
Mg8 O60 2.210146 1_555
Mg8 O61 2.247502 1_555
Mg9 O28 1.940322 1_555
Mg9 O27 2.002230 1_555
Mg9 O29 2.006865 1_555
Mg9 O65 2.181788 1_555
Mg9 O64 2.210147 1_555
Mg9 O63 2.247502 1_555
Nb0 O67 1.974188 1_555
Nb0 O66 1.976120 1_555
Nb0 O31 1.992743 1_555
Nb0 O68 1.993299 1_555
Nb0 O30 1.996688 1_555
Nb0 O32 2.052226 1_555
Nb1 O69 1.974188 1_555
Nb1 O70 1.976120 1_555
Nb1 O33 1.992743 1_555
Nb1 O71 1.993299 1_555
Nb1 O34 1.996687 1_555
Nb1 O35 2.052226 1_555
O0 P0 1.530478 1_555
O1 P1 1.521463 1_555
O2 P2 1.525952 1_555
O3 P3 1.521463 1_555
O4 P4 1.530478 1_555
O5 P5 1.525952 1_555
O6 P5 1.549760 1_565
O7 P3 1.517034 1_555
O8 P4 1.536296 1_455
O9 P1 1.517034 1_555
O10 P2 1.549760 1_455
O11 P0 1.536296 1_565
O12 S0 1.478904 1_555
O13 S1 1.475781 1_555
O14 S2 1.476129 1_555
O15 S3 1.475781 1_555
O16 S4 1.478904 1_555
O17 S5 1.476129 1_555
O18 S5 1.488875 1_555
O19 S3 1.485344 1_555
O20 S4 1.498312 1_555
O21 S1 1.485344 1_555
O22 S2 1.488875 1_555
O23 S0 1.498312 1_555
O24 P6 1.519245 1_555
O25 P7 1.532376 1_555
O26 P8 1.532998 1_555
O27 P9 1.532376 1_555
O28 P10 1.519245 1_555
O29 P11 1.532999 1_555
O30 P11 1.591713 1_555
O31 P9 1.591221 1_555
O32 P10 1.592764 1_555
O33 P7 1.591221 1_555
O34 P8 1.591713 1_555
O35 P6 1.592764 1_555
O36 P11 1.535055 1_555
O37 P9 1.535129 1_555
O38 P10 1.540763 1_555
O39 P7 1.535129 1_555
O40 P8 1.535055 1_555
O41 P6 1.540763 1_555
O42 S0 1.489524 1_555
O43 S1 1.485560 1_555
O44 S2 1.510587 1_555
O45 S3 1.485560 1_555
O46 S4 1.489524 1_555
O47 S5 1.510587 1_555
O48 P5 1.514417 1_555
O49 P3 1.541408 1_555
O50 P4 1.536378 1_555
O51 P1 1.541408 1_555
O52 P2 1.514417 1_555
O53 P0 1.536378 1_555
O54 P6 1.550592 1_555
O55 P7 1.545888 1_655
O56 P8 1.546323 1_545
O57 P9 1.545888 1_545
O58 P10 1.550592 1_555
O59 P11 1.546323 1_655
O60 S5 1.491652 1_555
O61 S3 1.516799 1_455
O62 S4 1.494550 1_565
O63 S1 1.516799 1_565
O64 S2 1.491652 1_555
O65 S0 1.494550 1_455
O66 P0 1.601838 1_565
O67 P1 1.631514 1_555
O68 P2 1.626172 1_455
O69 P3 1.631514 1_555
O70 P4 1.601838 1_455
O71 P5 1.626172 1_565
