# generated using pymatgen
data_Na10Ca4Mg4SiS11O48
_symmetry_space_group_name_H-M   'P 1'
_cell_length_a   18.26429932
_cell_length_b   9.08069706
_cell_length_c   22.99118893
_cell_angle_alpha   89.95799789
_cell_angle_beta   90.10500583
_cell_angle_gamma   120.06875519
_symmetry_Int_Tables_number   1
_chemical_formula_structural   Na10Ca4Mg4SiS11O48
_chemical_formula_sum   'Na30 Ca12 Mg12 Si3 S33 O144'
_cell_volume   3299.98692945
_cell_formula_units_Z   3
loop_
 _symmetry_equiv_pos_site_id
 _symmetry_equiv_pos_as_xyz
  1  'x, y, z'
loop_
 _atom_site_type_symbol
 _atom_site_label
 _atom_site_symmetry_multiplicity
 _atom_site_fract_x
 _atom_site_fract_y
 _atom_site_fract_z
 _atom_site_occupancy
  Na  Na0  1  0.82023168  0.98322707  0.24701979  1
  Na  Na1  1  0.68543136  0.37577323  0.24985900  1
  Na  Na2  1  0.99503915  0.64778778  0.25484810  1
  Na  Na3  1  0.49565750  0.62618174  0.24864844  1
  Na  Na4  1  0.32100196  0.66056197  0.74609246  1
  Na  Na5  1  0.82033558  0.65973420  0.74633574  1
  Na  Na6  1  0.99060365  0.33987845  0.75375453  1
  Na  Na7  1  0.49039882  0.33950748  0.75388451  1
  Na  Na8  1  0.18871899  0.00042364  0.75005001  1
  Na  Na9  1  0.68833872  0.99967936  0.74994374  1
  Na  Na10  1  0.33481585  0.96935326  0.58756108  1
  Na  Na11  1  0.83304835  0.96833940  0.58941564  1
  Na  Na12  1  0.15610203  0.97370142  0.08167159  1
  Na  Na13  1  0.83246670  0.69703819  0.09009997  1
  Na  Na14  1  0.35030314  0.03193518  0.91261124  1
  Na  Na15  1  0.84923107  0.03055995  0.91029071  1
  Na  Na16  1  0.17017190  0.03597924  0.41768832  1
  Na  Na17  1  0.84919623  0.66696682  0.40953951  1
  Na  Na18  1  0.00627694  0.01860810  0.50111446  1
  Na  Na19  1  0.50668943  0.99694738  0.49561970  1
  Na  Na20  1  0.00731791  0.01692257  0.99899716  1
  Na  Na21  1  0.50591792  0.99598792  0.00453728  1
  Na  Na22  1  0.33490250  0.33125431  0.83521938  1
  Na  Na23  1  0.83385051  0.32904032  0.83456900  1
  Na  Na24  1  0.33468581  0.33786247  0.33407967  1
  Na  Na25  1  0.83326701  0.33816933  0.33383084  1
  Na  Na26  1  0.17929204  0.65809290  0.16788235  1
  Na  Na27  1  0.66473126  0.66145196  0.16481615  1
  Na  Na28  1  0.16972976  0.66951595  0.66511401  1
  Na  Na29  1  0.66811814  0.66978435  0.66497894  1
  Ca  Ca0  1  0.00126504  0.00462203  0.34935373  1
  Ca  Ca1  1  0.00050900  0.00187473  0.85379844  1
  Ca  Ca2  1  0.50037341  0.00218175  0.85405135  1
  Ca  Ca3  1  0.99903619  0.99778084  0.64627031  1
  Ca  Ca4  1  0.49912509  0.99806644  0.64593219  1
  Ca  Ca5  1  0.00111690  0.01066464  0.15169144  1
  Ca  Ca6  1  0.33480176  0.33300401  0.67570330  1
  Ca  Ca7  1  0.83401927  0.33103104  0.67572137  1
  Ca  Ca8  1  0.83276159  0.33454069  0.17819618  1
  Ca  Ca9  1  0.66406951  0.66389996  0.32158204  1
  Ca  Ca10  1  0.16832109  0.66705924  0.82428731  1
  Ca  Ca11  1  0.66764076  0.66719613  0.82432602  1
  Mg  Mg0  1  0.49395371  0.99419623  0.35189095  1
  Mg  Mg1  1  0.49240148  0.99225441  0.14791025  1
  Mg  Mg2  1  0.33237484  0.33140872  0.18007670  1
  Mg  Mg3  1  0.33892042  0.34575875  0.98776853  1
  Mg  Mg4  1  0.83003856  0.33394024  0.98623534  1
  Mg  Mg5  1  0.33824908  0.34663607  0.48246920  1
  Mg  Mg6  1  0.83174623  0.32832996  0.48466938  1
  Mg  Mg7  1  0.16835156  0.65780574  0.01671058  1
  Mg  Mg8  1  0.65763217  0.66123677  0.01804365  1
  Mg  Mg9  1  0.16691334  0.65990087  0.51373779  1
  Mg  Mg10  1  0.65908092  0.65897618  0.51177124  1
  Mg  Mg11  1  0.17561435  0.66743265  0.31847838  1
  Si  Si0  1  0.84523717  0.69241221  0.25005282  1
  Si  Si1  1  0.34612198  0.99990958  0.75000746  1
  Si  Si2  1  0.84608038  0.99951934  0.75011021  1
  S  S0  1  0.15849509  0.00048279  0.25008191  1
  S  S1  1  0.63773729  0.99733303  0.24978462  1
  S  S2  1  0.35466466  0.70731798  0.25003308  1
  S  S3  1  0.00609748  0.31725226  0.25188089  1
  S  S4  1  0.49397979  0.27958812  0.24819377  1
  S  S5  1  0.15070263  0.30048839  0.74955168  1
  S  S6  1  0.65068258  0.30062316  0.74959944  1
  S  S7  1  0.00026377  0.69909928  0.75038434  1
  S  S8  1  0.50038209  0.69944878  0.75037867  1
  S  S9  1  0.48578052  0.34336080  0.57835985  1
  S  S10  1  0.98619364  0.34443830  0.57854980  1
  S  S11  1  0.18484288  0.02711387  0.57573135  1
  S  S12  1  0.68417370  0.02525170  0.57824072  1
  S  S13  1  0.32829243  0.63067259  0.57886114  1
  S  S14  1  0.82831049  0.63132170  0.57655780  1
  S  S15  1  0.48095712  0.62997376  0.08607336  1
  S  S16  1  0.98714650  0.63065199  0.07946242  1
  S  S17  1  0.33336695  0.03991519  0.08236205  1
  S  S18  1  0.82907079  0.02521595  0.07821091  1
  S  S19  1  0.19266051  0.34108935  0.08157785  1
  S  S20  1  0.67977556  0.33308638  0.08107299  1
  S  S21  1  0.31494449  0.65653600  0.92133125  1
  S  S22  1  0.81439409  0.65674464  0.92313821  1
  S  S23  1  0.01297242  0.36983968  0.92187054  1
  S  S24  1  0.51278097  0.36944828  0.92141181  1
  S  S25  1  0.17191735  0.97411586  0.92392324  1
  S  S26  1  0.67122969  0.97270207  0.92211644  1
  S  S27  1  0.31368076  0.96080464  0.41742035  1
  S  S28  1  0.81479326  0.97088246  0.42154453  1
  S  S29  1  0.17209925  0.37933601  0.41844442  1
  S  S30  1  0.66699816  0.36118764  0.41863250  1
  S  S31  1  0.02103593  0.66042982  0.41773058  1
  S  S32  1  0.51257166  0.66708160  0.41701005  1
  O  O0  1  0.12015908  0.02849907  0.30303326  1
  O  O1  1  0.59844062  0.02109504  0.30227769  1
  O  O2  1  0.40874198  0.78838388  0.30177270  1
  O  O3  1  0.90135291  0.77937431  0.30891880  1
  O  O4  1  0.48594641  0.18334907  0.30174858  1
  O  O5  1  0.99328541  0.20923263  0.30282737  1
  O  O6  1  0.11344679  0.19398235  0.80148686  1
  O  O7  1  0.61371551  0.19427083  0.80149049  1
  O  O8  1  0.49280194  0.78275307  0.80281041  1
  O  O9  1  0.99252577  0.78260725  0.80275898  1
  O  O10  1  0.40202851  0.02460806  0.80878599  1
  O  O11  1  0.90203403  0.02385620  0.80890992  1
  O  O12  1  0.38955601  0.97519070  0.69125263  1
  O  O13  1  0.88964250  0.97494229  0.69128318  1
  O  O14  1  0.10116841  0.21681620  0.69708692  1
  O  O15  1  0.60142242  0.21751136  0.69714776  1
  O  O16  1  0.01626657  0.80590737  0.69841223  1
  O  O17  1  0.51605020  0.80556072  0.69844932  1
  O  O18  1  0.39322578  0.81009207  0.19740725  1
  O  O19  1  0.89007759  0.80494681  0.19144522  1
  O  O20  1  0.02009410  0.24554759  0.19876318  1
  O  O21  1  0.50551565  0.19647475  0.19679960  1
  O  O22  1  0.10320787  0.96994691  0.19826266  1
  O  O23  1  0.58881476  0.98465552  0.19715065  1
  O  O24  1  0.45531671  0.36499408  0.63609791  1
  O  O25  1  0.95503273  0.36379921  0.63616996  1
  O  O26  1  0.23097063  0.09868377  0.63152759  1
  O  O27  1  0.72862355  0.09104395  0.63535176  1
  O  O28  1  0.32047007  0.55048265  0.63659532  1
  O  O29  1  0.82137216  0.54653189  0.63297505  1
  O  O30  1  0.44215066  0.52891240  0.14024788  1
  O  O31  1  0.95456892  0.54539261  0.13601048  1
  O  O32  1  0.31927783  0.12654033  0.13230350  1
  O  O33  1  0.82158035  0.09522639  0.13465467  1
  O  O34  1  0.24037073  0.35902224  0.13572815  1
  O  O35  1  0.72913598  0.36514466  0.13627296  1
  O  O36  1  0.23592953  0.31945926  0.03086369  1
  O  O37  1  0.72730006  0.31243090  0.03265006  1
  O  O38  1  0.42774895  0.54373349  0.03502964  1
  O  O39  1  0.92722393  0.53210881  0.03252579  1
  O  O40  1  0.34446313  0.13874643  0.02823520  1
  O  O41  1  0.83521942  0.13629940  0.02939424  1
  O  O42  1  0.23259621  0.13862887  0.52609298  1
  O  O43  1  0.73535869  0.14300743  0.53135715  1
  O  O44  1  0.33298530  0.52632604  0.53215796  1
  O  O45  1  0.83506009  0.53362409  0.52751602  1
  O  O46  1  0.42475726  0.32398172  0.53239474  1
  O  O47  1  0.92578331  0.32664963  0.53237479  1
  O  O48  1  0.26370857  0.67575240  0.96741565  1
  O  O49  1  0.76534604  0.67442222  0.97123335  1
  O  O50  1  0.07036025  0.47255392  0.96878453  1
  O  O51  1  0.57003760  0.47299542  0.96828843  1
  O  O52  1  0.16410779  0.86173627  0.97337630  1
  O  O53  1  0.66414062  0.85623446  0.96926831  1
  O  O54  1  0.27552464  0.86181913  0.47157856  1
  O  O55  1  0.76599511  0.85479551  0.46986697  1
  O  O56  1  0.16366906  0.46511222  0.46997635  1
  O  O57  1  0.65664159  0.45588012  0.46705984  1
  O  O58  1  0.07525533  0.67572080  0.46742578  1
  O  O59  1  0.57105062  0.68818046  0.46499414  1
  O  O60  1  0.05808154  0.64406430  0.36252439  1
  O  O61  1  0.54433250  0.63945781  0.36074536  1
  O  O62  1  0.25628185  0.87344777  0.36734073  1
  O  O63  1  0.77079609  0.90311161  0.36519774  1
  O  O64  1  0.17813429  0.47428273  0.36498006  1
  O  O65  1  0.68303395  0.45955268  0.36332620  1
  O  O66  1  0.04519440  0.44974503  0.86423432  1
  O  O67  1  0.54489459  0.44984167  0.86377252  1
  O  O68  1  0.18128747  0.90124661  0.86806622  1
  O  O69  1  0.68245952  0.90695509  0.86505417  1
  O  O70  1  0.27302133  0.63529401  0.86378729  1
  O  O71  1  0.77140611  0.63678536  0.86637038  1
  O  O72  1  0.01596504  0.82184276  0.41728229  1
  O  O73  1  0.50539648  0.82324737  0.41323744  1
  O  O74  1  0.39852889  0.98225521  0.40926049  1
  O  O75  1  0.89864072  0.97767925  0.42089913  1
  O  O76  1  0.09688812  0.20207461  0.41679058  1
  O  O77  1  0.59138476  0.19060799  0.41333892  1
  O  O78  1  0.00381144  0.19642521  0.92338157  1
  O  O79  1  0.50366929  0.19688985  0.92318103  1
  O  O80  1  0.09668509  0.99373786  0.92248591  1
  O  O81  1  0.59665866  0.99303614  0.92152929  1
  O  O82  1  0.39836569  0.81775743  0.92147656  1
  O  O83  1  0.89844446  0.81779538  0.92229271  1
  O  O84  1  0.48952832  0.18290994  0.57838421  1
  O  O85  1  0.98908474  0.18226734  0.57819240  1
  O  O86  1  0.09987311  0.00756825  0.57746251  1
  O  O87  1  0.59989103  0.00672741  0.57883125  1
  O  O88  1  0.40531889  0.80305577  0.57692211  1
  O  O89  1  0.90550869  0.80481524  0.57593493  1
  O  O90  1  0.49001594  0.80226366  0.09116601  1
  O  O91  1  0.99527340  0.80437311  0.08007973  1
  O  O92  1  0.40734991  0.01745788  0.09035684  1
  O  O93  1  0.90627745  0.00742532  0.07760790  1
  O  O94  1  0.10774969  0.18061538  0.08411466  1
  O  O95  1  0.59513745  0.18127255  0.08601381  1
  O  O96  1  0.33648517  0.17153915  0.74824546  1
  O  O97  1  0.83699011  0.17164863  0.74850536  1
  O  O98  1  0.23895301  0.33332142  0.74474724  1
  O  O99  1  0.73933901  0.33441469  0.74478332  1
  O  O100  1  0.42003987  0.53286648  0.74526286  1
  O  O101  1  0.91984788  0.53316581  0.74499421  1
  O  O102  1  0.34874160  0.53552041  0.24381153  1
  O  O103  1  0.83506774  0.50161859  0.24876191  1
  O  O104  1  0.42001836  0.30739907  0.24240796  1
  O  O105  1  0.92612583  0.32572594  0.24650769  1
  O  O106  1  0.24305942  0.15173371  0.24143345  1
  O  O107  1  0.72654143  0.14427183  0.24623298  1
  O  O108  1  0.32585336  0.50776307  0.92969343  1
  O  O109  1  0.82578399  0.50743587  0.93036676  1
  O  O110  1  0.42614186  0.34697380  0.92779044  1
  O  O111  1  0.92595865  0.34540049  0.92828049  1
  O  O112  1  0.25151347  0.14226436  0.92938209  1
  O  O113  1  0.75114152  0.14170986  0.92849318  1
  O  O114  1  0.31900137  0.13193860  0.42209267  1
  O  O115  1  0.82699387  0.14379266  0.42883214  1
  O  O116  1  0.24799828  0.35610257  0.42232265  1
  O  O117  1  0.74622071  0.35066017  0.42719677  1
  O  O118  1  0.42762969  0.51430259  0.42620813  1
  O  O119  1  0.93234855  0.51470643  0.42334690  1
  O  O120  1  0.18032312  0.49049450  0.07583202  1
  O  O121  1  0.67478626  0.49208746  0.07268827  1
  O  O122  1  0.07361131  0.65612344  0.07133874  1
  O  O123  1  0.56670587  0.64806465  0.07955054  1
  O  O124  1  0.25345456  0.86804283  0.07759812  1
  O  O125  1  0.75373645  0.85003670  0.07276016  1
  O  O126  1  0.18008179  0.85808036  0.57026474  1
  O  O127  1  0.67958545  0.85656044  0.57131389  1
  O  O128  1  0.25313682  0.65496469  0.57304872  1
  O  O129  1  0.75302251  0.65383822  0.57099549  1
  O  O130  1  0.07149774  0.49244409  0.57031389  1
  O  O131  1  0.57080817  0.49284350  0.56973634  1
  O  O132  1  0.16242014  0.84072170  0.25776239  1
  O  O133  1  0.64352840  0.83831970  0.25323509  1
  O  O134  1  0.26835369  0.68348787  0.25746934  1
  O  O135  1  0.75142039  0.67897301  0.25121780  1
  O  O136  1  0.07868991  0.49373739  0.25962232  1
  O  O137  1  0.57172986  0.45492909  0.25194592  1
  O  O138  1  0.15315695  0.46664800  0.75468370  1
  O  O139  1  0.65348734  0.46723547  0.75483621  1
  O  O140  1  0.07206258  0.66586300  0.75527132  1
  O  O141  1  0.57224223  0.66598388  0.75507745  1
  O  O142  1  0.25084625  0.82835801  0.75178268  1
  O  O143  1  0.75117006  0.82768373  0.75181415  1
loop_
_geom_bond_atom_site_label_1
_geom_bond_atom_site_label_2
_geom_bond_distance
_geom_bond_site_symmetry_2
Na0 O135 2.396382 1_555
Na0 O105 2.717720 1_565
Na0 O107 2.752196 1_565
Na0 O33 2.771323 1_565
Na0 O133 2.813113 1_555
Na0 O19 2.821231 1_555
Na0 O63 2.841607 1_555
Na1 O103 2.376215 1_555
Na1 O135 2.389309 1_555
Na1 O137 2.515505 1_555
Na1 O107 2.563617 1_555
Na1 O65 2.724511 1_555
Na1 O35 2.748003 1_555
Na2 O103 2.535877 1_555
Na2 O136 2.538507 1_655
Na2 O105 2.546615 1_555
Na2 O132 2.655575 1_655
Na2 O60 2.735688 1_655
Na2 O3 2.821336 1_555
Na2 O31 2.860690 1_555
Na2 O22 2.892409 1_655
Na3 O102 2.382369 1_555
Na3 O133 2.408711 1_555
Na3 O104 2.510232 1_555
Na3 O137 2.553255 1_555
Na3 O30 2.660053 1_555
Na3 O61 2.707714 1_555
Na4 O142 2.436799 1_555
Na4 O98 2.571870 1_555
Na4 O100 2.592089 1_555
Na4 O138 2.670174 1_555
Na4 O28 2.707547 1_555
Na4 O12 2.781356 1_555
Na4 O70 2.819402 1_555
Na5 O143 2.422618 1_555
Na5 O99 2.556817 1_555
Na5 O101 2.592070 1_555
Na5 O139 2.654048 1_555
Na5 O13 2.786939 1_555
Na5 O29 2.805966 1_555
Na5 O71 2.877464 1_555
Na6 O97 2.433926 1_555
Na6 O140 2.562036 1_655
Na6 O138 2.591356 1_655
Na6 O101 2.657585 1_555
Na6 O66 2.727455 1_655
Na6 O11 2.794709 1_555
Na6 O25 2.812792 1_555
Na7 O96 2.438852 1_555
Na7 O141 2.565825 1_555
Na7 O139 2.599258 1_555
Na7 O100 2.652020 1_555
Na7 O67 2.715267 1_555
Na7 O10 2.784313 1_555
Na7 O24 2.817623 1_555
Na8 O96 2.344769 1_555
Na8 O142 2.346672 1_545
Na8 O98 2.686155 1_555
Na8 O140 2.701432 1_545
Na8 O68 2.840237 1_545
Na8 O26 2.851540 1_555
Na8 O6 2.967886 1_555
Na8 O16 2.977334 1_545
Na9 O143 2.356667 1_555
Na9 O97 2.358530 1_565
Na9 O141 2.693311 1_555
Na9 O99 2.698836 1_565
Na9 O27 2.750097 1_565
Na9 O69 2.762565 1_555
Na9 O7 2.967633 1_565
Na9 O17 2.973521 1_555
Na10 O88 2.438983 1_555
Na10 O128 2.493771 1_555
Na10 O84 2.510039 1_565
Na10 O126 2.510168 1_555
Na10 O12 2.573743 1_555
Na10 O54 2.858398 1_555
Na10 O26 2.870404 1_565
Na11 O89 2.454377 1_555
Na11 O127 2.491006 1_555
Na11 O129 2.507668 1_555
Na11 O85 2.533071 1_565
Na11 O13 2.546858 1_555
Na11 O27 2.851874 1_565
Na11 O55 2.973889 1_555
Na12 O124 2.408556 1_555
Na12 O94 2.444691 1_565
Na12 O122 2.507717 1_555
Na12 O91 2.543173 1_455
Na12 O52 2.721840 1_554
Na12 O32 2.829880 1_565
Na12 O22 2.845392 1_555
Na12 O36 2.960033 1_565
Na13 O93 2.456961 1_565
Na13 O125 2.481113 1_555
Na13 O19 2.541187 1_555
Na13 O121 2.558086 1_555
Na13 O91 2.634954 1_555
Na13 O35 2.841618 1_555
Na13 O49 2.958032 1_554
Na14 O79 2.437740 1_555
Na14 O112 2.494505 1_555
Na14 O110 2.500661 1_555
Na14 O82 2.510833 1_545
Na14 O10 2.581958 1_555
Na14 O40 2.850850 1_556
Na14 O68 2.881956 1_545
Na15 O78 2.463029 1_655
Na15 O113 2.493757 1_555
Na15 O111 2.508672 1_555
Na15 O83 2.520997 1_545
Na15 O11 2.536533 1_555
Na15 O69 2.860693 1_545
Na15 O41 2.956108 1_556
Na16 O114 2.405013 1_555
Na16 O76 2.467716 1_555
Na16 O72 2.495124 1_545
Na16 O116 2.518220 1_555
Na16 O42 2.703446 1_555
Na16 O0 2.777959 1_555
Na16 O62 2.885639 1_545
Na17 O75 2.508276 1_555
Na17 O3 2.516221 1_555
Na17 O119 2.533915 1_555
Na17 O117 2.557320 1_555
Na17 O72 2.644420 1_655
Na17 O65 2.854788 1_555
Na17 O45 2.928226 1_555
Na18 O85 2.433335 1_455
Na18 O86 2.484753 1_555
Na18 O76 2.552871 1_555
Na18 O89 2.557665 1_445
Na18 O75 2.580637 1_445
Na18 O72 2.694780 1_545
Na19 O73 2.458224 1_555
Na19 O77 2.518729 1_565
Na19 O87 2.530312 1_565
Na19 O88 2.600615 1_555
Na19 O84 2.666081 1_565
Na19 O74 2.753984 1_555
Na20 O78 2.404877 1_555
Na20 O80 2.481591 1_545
Na20 O93 2.555798 1_456
Na20 O94 2.581226 1_556
Na20 O83 2.592780 1_445
Na20 O91 2.611438 1_446
Na21 O95 2.498257 1_565
Na21 O81 2.538856 1_554
Na21 O90 2.575039 1_555
Na21 O79 2.626470 1_564
Na21 O82 2.632469 1_554
Na21 O92 2.745433 1_565
Na22 O96 2.479776 1_555
Na22 O110 2.660106 1_555
Na22 O100 2.683409 1_555
Na22 O112 2.709084 1_555
Na22 O98 2.723534 1_555
Na22 O108 2.754292 1_555
Na23 O97 2.459256 1_555
Na23 O111 2.689042 1_555
Na23 O101 2.689410 1_555
Na23 O113 2.696358 1_555
Na23 O99 2.704544 1_555
Na23 O109 2.782548 1_555
Na24 O116 2.631608 1_555
Na24 O102 2.670093 1_555
Na24 O114 2.670796 1_555
Na24 O118 2.683577 1_555
Na24 O106 2.711497 1_555
Na24 O104 2.718943 1_555
Na25 O103 2.444665 1_555
Na25 O105 2.669223 1_555
Na25 O119 2.676667 1_555
Na25 O117 2.709592 1_555
Na25 O107 2.739975 1_555
Na25 O115 2.773433 1_555
Na26 O134 2.560098 1_555
Na26 O120 2.613250 1_555
Na26 O124 2.682331 1_555
Na26 O136 2.704433 1_555
Na26 O132 2.763134 1_555
Na26 O122 2.933011 1_555
Na27 O135 2.492949 1_555
Na27 O123 2.613919 1_555
Na27 O121 2.678565 1_555
Na27 O137 2.688863 1_555
Na27 O125 2.696733 1_555
Na27 O133 2.737317 1_555
Na28 O142 2.469406 1_555
Na28 O128 2.651874 1_555
Na28 O138 2.676562 1_555
Na28 O126 2.719332 1_555
Na28 O140 2.726514 1_555
Na28 O130 2.766741 1_555
Na29 O143 2.481175 1_555
Na29 O127 2.682955 1_555
Na29 O139 2.688189 1_555
Na29 O141 2.703922 1_555
Na29 O129 2.707853 1_555
Na29 O131 2.768516 1_555
Ca0 O3 2.152725 1_445
Ca0 O5 2.210328 1_455
Ca0 O0 2.330873 1_555
Ca0 O76 2.350570 1_555
Ca0 O72 2.388974 1_545
Ca0 O75 2.414541 1_445
Ca1 O11 2.166212 1_455
Ca1 O9 2.252693 1_445
Ca1 O6 2.268193 1_555
Ca1 O78 2.362429 1_555
Ca1 O83 2.373484 1_445
Ca1 O80 2.388447 1_545
Ca2 O10 2.170314 1_555
Ca2 O8 2.259217 1_545
Ca2 O7 2.275072 1_555
Ca2 O79 2.356475 1_555
Ca2 O82 2.357754 1_545
Ca2 O81 2.375396 1_545
Ca3 O13 2.167502 1_555
Ca3 O14 2.253489 1_665
Ca3 O16 2.262067 1_655
Ca3 O85 2.364236 1_565
Ca3 O89 2.366006 1_555
Ca3 O86 2.397687 1_665
Ca4 O12 2.173574 1_555
Ca4 O15 2.261146 1_565
Ca4 O17 2.268544 1_555
Ca4 O88 2.354254 1_555
Ca4 O84 2.355832 1_565
Ca4 O87 2.374559 1_565
Ca5 O19 2.155440 1_445
Ca5 O20 2.258724 1_555
Ca5 O22 2.333012 1_545
Ca5 O94 2.363116 1_555
Ca5 O93 2.416738 1_455
Ca5 O91 2.456588 1_445
Ca6 O96 2.230199 1_555
Ca6 O26 2.260080 1_555
Ca6 O24 2.263777 1_555
Ca6 O28 2.300342 1_555
Ca6 O100 2.332152 1_555
Ca6 O98 2.366377 1_555
Ca7 O97 2.229950 1_555
Ca7 O27 2.260270 1_555
Ca7 O25 2.269022 1_555
Ca7 O29 2.301737 1_555
Ca7 O101 2.339848 1_555
Ca7 O99 2.361325 1_555
Ca8 O103 2.207961 1_555
Ca8 O35 2.260172 1_555
Ca8 O31 2.300611 1_555
Ca8 O33 2.307404 1_555
Ca8 O105 2.346842 1_555
Ca8 O107 2.417450 1_555
Ca9 O135 2.229685 1_555
Ca9 O65 2.263767 1_555
Ca9 O61 2.272249 1_555
Ca9 O63 2.297116 1_555
Ca9 O133 2.389185 1_555
Ca9 O137 2.407501 1_555
Ca10 O142 2.233681 1_555
Ca10 O68 2.255913 1_555
Ca10 O70 2.260694 1_555
Ca10 O66 2.313618 1_555
Ca10 O138 2.333897 1_555
Ca10 O140 2.362093 1_555
Ca11 O143 2.237959 1_555
Ca11 O69 2.258707 1_555
Ca11 O71 2.262698 1_555
Ca11 O67 2.305405 1_555
Ca11 O139 2.334259 1_555
Ca11 O141 2.354034 1_555
Mg0 O2 2.079581 1_555
Mg0 O1 2.131469 1_565
Mg0 O4 2.132815 1_565
Mg0 O74 2.146609 1_555
Mg0 O73 2.182554 1_555
Mg0 O77 2.271047 1_565
Mg1 O18 2.077167 1_555
Mg1 O21 2.077690 1_565
Mg1 O23 2.121694 1_555
Mg1 O92 2.136504 1_565
Mg1 O90 2.146666 1_555
Mg1 O95 2.295851 1_565
Mg2 O32 2.068964 1_555
Mg2 O34 2.083699 1_555
Mg2 O30 2.115652 1_555
Mg2 O106 2.156633 1_555
Mg2 O104 2.237069 1_555
Mg2 O102 2.262548 1_555
Mg3 O38 2.029389 1_556
Mg3 O36 2.033084 1_556
Mg3 O108 2.086075 1_555
Mg3 O110 2.104724 1_555
Mg3 O40 2.144142 1_556
Mg3 O112 2.191993 1_555
Mg4 O109 2.063338 1_555
Mg4 O39 2.077665 1_556
Mg4 O37 2.082722 1_556
Mg4 O113 2.088477 1_555
Mg4 O41 2.093273 1_556
Mg4 O111 2.163588 1_555
Mg5 O44 2.033996 1_555
Mg5 O118 2.042163 1_555
Mg5 O46 2.043288 1_555
Mg5 O42 2.156203 1_555
Mg5 O116 2.184083 1_555
Mg5 O114 2.273063 1_555
Mg6 O43 2.029516 1_555
Mg6 O47 2.042651 1_555
Mg6 O115 2.078615 1_555
Mg6 O45 2.082973 1_555
Mg6 O117 2.129931 1_555
Mg6 O119 2.262307 1_555
Mg7 O48 2.016644 1_554
Mg7 O50 2.055641 1_554
Mg7 O120 2.128963 1_555
Mg7 O122 2.133845 1_555
Mg7 O52 2.137465 1_554
Mg7 O124 2.245592 1_555
Mg8 O51 2.011412 1_554
Mg8 O53 2.047867 1_554
Mg8 O121 2.124572 1_555
Mg8 O123 2.140393 1_555
Mg8 O125 2.140643 1_555
Mg8 O49 2.194189 1_554
Mg9 O56 2.010442 1_555
Mg9 O58 2.047220 1_555
Mg9 O130 2.095511 1_555
Mg9 O128 2.098642 1_555
Mg9 O126 2.134012 1_555
Mg9 O54 2.143875 1_555
Mg10 O131 2.053995 1_555
Mg10 O59 2.057308 1_555
Mg10 O57 2.092905 1_555
Mg10 O55 2.104304 1_555
Mg10 O127 2.135849 1_555
Mg10 O129 2.207189 1_555
Mg11 O62 2.041453 1_555
Mg11 O64 2.073502 1_555
Mg11 O134 2.149119 1_555
Mg11 O136 2.156164 1_555
Mg11 O132 2.204181 1_555
Mg11 O60 2.286884 1_555
O0 S0 1.489682 1_555
O1 S1 1.475463 1_545
O2 S2 1.483528 1_555
O3 Si0 1.640481 1_555
O4 S4 1.473745 1_555
O5 S3 1.469085 1_655
O6 S5 1.471724 1_555
O7 S6 1.469604 1_555
O8 S8 1.466782 1_555
O9 S7 1.467772 1_655
O10 Si1 1.638623 1_545
O11 Si2 1.640077 1_545
O12 Si1 1.639293 1_555
O13 Si2 1.641470 1_555
O14 S5 1.469454 1_555
O15 S6 1.466371 1_555
O16 S7 1.472894 1_555
O17 S8 1.469370 1_555
O18 S2 1.474364 1_555
O19 Si0 1.641345 1_555
O20 S3 1.466238 1_555
O21 S4 1.473697 1_555
O22 S0 1.493801 1_565
O23 S1 1.472823 1_555
O24 S9 1.490959 1_555
O25 S10 1.487673 1_555
O26 S11 1.492107 1_555
O27 S12 1.500445 1_555
O28 S13 1.485805 1_555
O29 S14 1.480782 1_555
O30 S15 1.498556 1_555
O31 S16 1.477653 1_555
O32 S17 1.486144 1_555
O33 S18 1.481874 1_555
O34 S19 1.479846 1_555
O35 S20 1.497168 1_555
O36 S19 1.477121 1_555
O37 S20 1.481567 1_555
O38 S15 1.472911 1_555
O39 S16 1.476064 1_555
O40 S17 1.487333 1_555
O41 S18 1.474816 1_555
O42 S11 1.485088 1_555
O43 S12 1.476326 1_555
O44 S13 1.463337 1_555
O45 S14 1.478224 1_555
O46 S9 1.479665 1_555
O47 S10 1.479146 1_555
O48 S21 1.481993 1_555
O49 S22 1.482897 1_555
O50 S23 1.466167 1_555
O51 S24 1.466724 1_555
O52 S25 1.485766 1_555
O53 S26 1.473816 1_555
O54 S27 1.489249 1_555
O55 S28 1.483347 1_555
O56 S29 1.468438 1_555
O57 S30 1.476479 1_555
O58 S31 1.470937 1_555
O59 S32 1.478344 1_555
O60 S31 1.481582 1_555
O61 S32 1.490586 1_555
O62 S27 1.489152 1_555
O63 S28 1.484765 1_555
O64 S29 1.473151 1_555
O65 S30 1.496006 1_555
O66 S23 1.484026 1_555
O67 S24 1.485079 1_555
O68 S25 1.493951 1_555
O69 S26 1.498170 1_555
O70 S21 1.490804 1_555
O71 S22 1.485509 1_555
O72 S31 1.514296 1_555
O73 S32 1.490534 1_555
O74 S27 1.474180 1_555
O75 S28 1.501542 1_555
O76 S29 1.504522 1_555
O77 S30 1.475609 1_555
O78 S23 1.498290 1_555
O79 S24 1.491075 1_555
O80 S25 1.471754 1_555
O81 S26 1.463293 1_555
O82 S21 1.493157 1_555
O83 S22 1.498701 1_555
O84 S9 1.492478 1_555
O85 S10 1.499807 1_555
O86 S11 1.471638 1_555
O87 S12 1.462435 1_555
O88 S13 1.491600 1_555
O89 S14 1.498112 1_555
O90 S15 1.493181 1_555
O91 S16 1.508693 1_555
O92 S17 1.475264 1_555
O93 S18 1.497699 1_555
O94 S19 1.505849 1_555
O95 S20 1.472397 1_555
O96 Si1 1.654194 1_545
O97 Si2 1.652878 1_545
O98 S5 1.489341 1_555
O99 S6 1.493683 1_555
O100 S8 1.493521 1_555
O101 S7 1.491609 1_655
O102 S2 1.515601 1_555
O103 Si0 1.647623 1_555
O104 S4 1.499142 1_555
O105 S3 1.505510 1_655
O106 S0 1.478660 1_555
O107 S1 1.499802 1_545
O108 S21 1.473420 1_555
O109 S22 1.480319 1_555
O110 S24 1.498115 1_555
O111 S23 1.498017 1_655
O112 S25 1.495281 1_545
O113 S26 1.503993 1_545
O114 S27 1.511564 1_545
O115 S28 1.480784 1_545
O116 S29 1.505563 1_555
O117 S30 1.509668 1_555
O118 S32 1.490056 1_555
O119 S31 1.498040 1_655
O120 S19 1.488235 1_555
O121 S20 1.503833 1_555
O122 S16 1.489062 1_455
O123 S15 1.498427 1_555
O124 S17 1.514961 1_565
O125 S18 1.498574 1_565
O126 S11 1.498631 1_565
O127 S12 1.500191 1_565
O128 S13 1.501144 1_555
O129 S14 1.493342 1_555
O130 S10 1.473767 1_455
O131 S9 1.477133 1_555
O132 S0 1.498255 1_565
O133 S1 1.501774 1_555
O134 S2 1.490041 1_555
O135 Si0 1.655990 1_555
O136 S3 1.492726 1_555
O137 S4 1.514321 1_555
O138 S5 1.491647 1_555
O139 S6 1.492895 1_555
O140 S7 1.489757 1_555
O141 S8 1.491881 1_555
O142 Si1 1.655372 1_555
O143 Si2 1.652549 1_555
