# generated using pymatgen
data_TiNi
_symmetry_space_group_name_H-M   'P 1'
_cell_length_a   7.21891958
_cell_length_b   7.21892387
_cell_length_c   5.31250682
_cell_angle_alpha   89.99935317
_cell_angle_beta   89.99916706
_cell_angle_gamma   119.99564796
_symmetry_Int_Tables_number   1
_chemical_formula_structural   TiNi
_chemical_formula_sum   'Ti9 Ni9'
_cell_volume   239.76944721
_cell_formula_units_Z   9
loop_
 _symmetry_equiv_pos_site_id
 _symmetry_equiv_pos_as_xyz
  1  'x, y, z'
loop_
 _atom_site_type_symbol
 _atom_site_label
 _atom_site_symmetry_multiplicity
 _atom_site_fract_x
 _atom_site_fract_y
 _atom_site_fract_z
 _atom_site_occupancy
  Ti  Ti0  1  0.00000075  0.00000226  -0.00000667  1
  Ti  Ti1  1  0.33332466  0.66665881  0.05128167  1
  Ti  Ti2  1  0.66666893  0.33333919  0.94872161  1
  Ti  Ti3  1  0.33175379  0.98482244  0.34895781  1
  Ti  Ti4  1  0.01516726  0.34691995  0.34897433  1
  Ti  Ti5  1  0.65307069  0.66824398  0.34896775  1
  Ti  Ti6  1  0.66825650  0.01518200  0.65103931  1
  Ti  Ti7  1  0.98483518  0.65307625  0.65103303  1
  Ti  Ti8  1  0.34691826  0.33175157  0.65103345  1
  Ni  Ni0  1  0.00001074  0.99999588  0.49997144  1
  Ni  Ni1  1  0.33334053  0.66669459  0.59933823  1
  Ni  Ni2  1  0.66665290  0.33329901  0.40066745  1
  Ni  Ni3  1  0.30961971  0.97032545  0.86286060  1
  Ni  Ni4  1  0.02968283  0.33929508  0.86287925  1
  Ni  Ni5  1  0.66071569  0.69041857  0.86286421  1
  Ni  Ni6  1  0.69038839  0.02968823  0.13713739  1
  Ni  Ni7  1  0.97032171  0.66071021  0.13713554  1
  Ni  Ni8  1  0.33927148  0.30957655  0.13714159  1
loop_
_geom_bond_atom_site_label_1
_geom_bond_atom_site_label_2
_geom_bond_distance
_geom_bond_site_symmetry_2
Ti1 Ti3 2.793275 1_555
Ti1 Ti5 2.793336 1_555
Ti1 Ti4 2.793396 1_555
Ti2 Ti6 2.793305 1_555
Ti2 Ti8 2.793362 1_555
Ti2 Ti7 2.793404 1_555
Ti3 Ti6 2.827047 1_565
Ti3 Ti7 2.930102 1_455
Ti3 Ti8 2.930113 1_565
Ti4 Ti7 2.826932 1_455
Ti4 Ti8 2.929984 1_555
Ti4 Ti6 2.930024 1_455
Ti5 Ti8 2.827046 1_555
Ti5 Ti7 2.930081 1_555
Ti5 Ti6 2.930094 1_565
Ni0 Ti3 2.579350 1_555
Ni0 Ti4 2.579445 1_565
Ni0 Ti7 2.579460 1_455
Ni0 Ti6 2.579563 1_465
Ni0 Ti8 2.579628 1_565
Ni0 Ti5 2.579638 1_455
Ni0 Ti0 2.656137 1_565
Ni0 Ti0 2.656370 1_566
Ni0 Ni8 3.038934 1_565
Ni0 Ni7 3.039024 1_455
Ni0 Ni6 3.039148 1_465
Ni0 Ni3 3.039190 1_555
Ni0 Ni5 3.039247 1_455
Ni0 Ni4 3.039382 1_565
Ni1 Ti1 2.400953 1_556
Ni1 Ti7 2.483380 1_455
Ni1 Ti6 2.483580 1_565
Ni1 Ti8 2.483618 1_555
Ni1 Ti3 2.658902 1_555
Ni1 Ti5 2.659084 1_555
Ni1 Ti4 2.659361 1_555
Ni1 Ni3 2.677489 1_555
Ni1 Ni5 2.677660 1_555
Ni1 Ni4 2.677871 1_555
Ni1 Ti1 2.911554 1_555
Ni2 Ti2 2.400965 1_554
Ni2 Ti4 2.483435 1_655
Ni2 Ti3 2.483487 1_545
Ni2 Ti5 2.483651 1_555
Ni2 Ti6 2.658864 1_555
Ni2 Ti8 2.659107 1_555
Ni2 Ti7 2.659402 1_555
Ni2 Ni6 2.677437 1_555
Ni2 Ni8 2.677702 1_555
Ni2 Ni7 2.677916 1_555
Ni2 Ti2 2.911541 1_555
Ni3 Ti0 2.459899 1_566
Ni3 Ti1 2.492349 1_556
Ni3 Ti7 2.576774 1_455
Ni3 Ti3 2.586222 1_556
Ni3 Ti2 2.639206 1_565
Ni3 Ti6 2.689906 1_565
Ni3 Ti8 2.728336 1_565
Ni3 Ti3 2.733726 1_555
Ni3 Ni8 2.764541 1_566
Ni3 Ni7 2.764798 1_456
Ni3 Ni6 2.946980 1_566
Ni4 Ti0 2.459862 1_556
Ni4 Ti1 2.492386 1_556
Ni4 Ti8 2.576573 1_555
Ni4 Ti4 2.586209 1_556
Ni4 Ti2 2.639035 1_455
Ni4 Ti7 2.689904 1_455
Ni4 Ti6 2.728495 1_455
Ni4 Ti4 2.733744 1_555
Ni4 Ni8 2.764631 1_556
Ni4 Ni6 2.764717 1_456
Ni4 Ni7 2.946918 1_456
Ni5 Ti0 2.459934 1_666
Ni5 Ti1 2.492323 1_556
Ni5 Ti6 2.576442 1_565
Ni5 Ti5 2.586264 1_556
Ni5 Ti2 2.639189 1_555
Ni5 Ti8 2.690257 1_555
Ni5 Ti7 2.728426 1_555
Ni5 Ti5 2.733712 1_555
Ni5 Ni6 2.764578 1_566
Ni5 Ni7 2.764727 1_556
Ni5 Ni8 2.947419 1_556
Ni6 Ti0 2.459907 1_655
Ni6 Ti2 2.492287 1_554
Ni6 Ti4 2.576722 1_655
Ni6 Ti6 2.586227 1_554
Ni6 Ti1 2.639308 1_545
Ni6 Ti3 2.689866 1_545
Ni6 Ti5 2.728409 1_545
Ni6 Ti6 2.733721 1_555
Ni7 Ti0 2.459910 1_665
Ni7 Ti2 2.492469 1_554
Ni7 Ti5 2.576610 1_555
Ni7 Ti7 2.586250 1_554
Ni7 Ti1 2.638993 1_655
Ni7 Ti4 2.689939 1_655
Ni7 Ti3 2.728476 1_655
Ni7 Ti7 2.733706 1_555
Ni8 Ti0 2.459880 1_555
Ni8 Ti2 2.492362 1_554
Ni8 Ti3 2.576434 1_545
Ni8 Ti8 2.586288 1_554
Ni8 Ti1 2.639188 1_555
Ni8 Ti5 2.690253 1_555
Ni8 Ti4 2.728334 1_555
Ni8 Ti8 2.733687 1_555
