# generated using pymatgen
data_Na6Al2Ga2Si3(SO8)3
_symmetry_space_group_name_H-M   'P 1'
_cell_length_a   8.85403123
_cell_length_b   8.72270020
_cell_length_c   21.80761173
_cell_angle_alpha   90.76647311
_cell_angle_beta   89.72686374
_cell_angle_gamma   120.23299635
_symmetry_Int_Tables_number   1
_chemical_formula_structural   Na6Al2Ga2Si3(SO8)3
_chemical_formula_sum   'Na18 Al6 Ga6 Si9 S9 O72'
_cell_volume   1455.01108260
_cell_formula_units_Z   3
loop_
 _symmetry_equiv_pos_site_id
 _symmetry_equiv_pos_as_xyz
  1  'x, y, z'
loop_
 _atom_site_type_symbol
 _atom_site_label
 _atom_site_symmetry_multiplicity
 _atom_site_fract_x
 _atom_site_fract_y
 _atom_site_fract_z
 _atom_site_occupancy
  Na  Na0  1  0.63060512  0.00492341  0.25729702  1
  Na  Na1  1  0.35778753  0.35977595  0.25345815  1
  Na  Na2  1  0.64117957  0.64293846  0.74150480  1
  Na  Na3  1  0.99077810  0.36606148  0.74722849  1
  Na  Na4  1  0.02287371  0.68974654  0.58872633  1
  Na  Na5  1  0.67520617  0.96812252  0.58254725  1
  Na  Na6  1  0.30935391  0.96901518  0.09228026  1
  Na  Na7  1  0.02750987  0.32719774  0.08267965  1
  Na  Na8  1  0.97005095  0.66337733  0.90399170  1
  Na  Na9  1  0.71086856  0.04006617  0.91086219  1
  Na  Na10  1  0.95802559  0.29096538  0.41948893  1
  Na  Na11  1  0.34065572  0.03346354  0.41425360  1
  Na  Na12  1  0.98451649  0.99458840  0.50344562  1
  Na  Na13  1  0.99655195  0.00872690  0.99845917  1
  Na  Na14  1  0.65987459  0.32509249  0.82718610  1
  Na  Na15  1  0.67555752  0.33878519  0.33493460  1
  Na  Na16  1  0.33234314  0.67102481  0.16965951  1
  Na  Na17  1  0.33280341  0.66662875  0.66517279  1
  Al  Al0  1  0.99632291  0.02379468  0.84349547  1
  Al  Al1  1  0.99071849  0.00637398  0.15314894  1
  Al  Al2  1  0.68654845  0.32661693  0.98141403  1
  Al  Al3  1  0.34308686  0.66263570  0.01570171  1
  Al  Al4  1  0.35430798  0.66026425  0.52408240  1
  Al  Al5  1  0.31407356  0.66909452  0.80856869  1
  Ga  Ga0  1  0.98835581  0.00553488  0.34934353  1
  Ga  Ga1  1  0.97083347  0.98168277  0.64851612  1
  Ga  Ga2  1  0.69621416  0.35210435  0.68465043  1
  Ga  Ga3  1  0.66044973  0.30480466  0.18902702  1
  Ga  Ga4  1  0.67937336  0.32095061  0.48929954  1
  Ga  Ga5  1  0.31814433  0.68363442  0.31238368  1
  Si  Si0  1  0.27535217  0.99719890  0.24769442  1
  Si  Si1  1  0.00434781  0.30189698  0.24970330  1
  Si  Si2  1  0.00647859  0.72516317  0.75226891  1
  Si  Si3  1  0.69144677  0.99630361  0.75163411  1
  Si  Si4  1  0.97824582  0.33630508  0.58274928  1
  Si  Si5  1  0.65968799  0.61088641  0.58385744  1
  Si  Si6  1  0.66494231  0.02621738  0.08142664  1
  Si  Si7  1  0.05346074  0.37828856  0.91729769  1
  Si  Si8  1  0.62205395  0.95025769  0.41771505  1
  S  S0  1  0.71533516  0.70796451  0.24740779  1
  S  S1  1  0.28812386  0.28827100  0.75230575  1
  S  S2  1  0.37414069  0.04266640  0.58213799  1
  S  S3  1  0.95157940  0.62384637  0.08200206  1
  S  S4  1  0.38716795  0.34016362  0.08081676  1
  S  S5  1  0.61936249  0.65488965  0.91865807  1
  S  S6  1  0.33727367  0.96040692  0.91977850  1
  S  S7  1  0.33844793  0.38194244  0.41593972  1
  S  S8  1  0.03920910  0.66775640  0.41745065  1
  O  O0  1  0.19181786  0.03015486  0.31032856  1
  O  O1  1  0.81648288  0.78000424  0.30434002  1
  O  O2  1  0.95345131  0.17355749  0.30935149  1
  O  O3  1  0.20365232  0.18259751  0.80816175  1
  O  O4  1  0.97958798  0.82231916  0.81395915  1
  O  O5  1  0.82476554  0.04501439  0.81090331  1
  O  O6  1  0.77052866  0.94843044  0.69150482  1
  O  O7  1  0.17806816  0.21332945  0.69782653  1
  O  O8  1  0.03666777  0.83737684  0.69011337  1
  O  O9  1  0.80016104  0.82521204  0.19413978  1
  O  O10  1  0.03860574  0.21306437  0.18821819  1
  O  O11  1  0.16116098  0.97521564  0.18588680  1
  O  O12  1  0.89650333  0.38523532  0.64264851  1
  O  O13  1  0.49173143  0.12628644  0.63480175  1
  O  O14  1  0.62802389  0.49899410  0.64688006  1
  O  O15  1  0.86801212  0.51109670  0.13522502  1
  O  O16  1  0.61309025  0.10683474  0.14130216  1
  O  O17  1  0.48335420  0.36674583  0.13874436  1
  O  O18  1  0.48056585  0.31686787  0.02827175  1
  O  O19  1  0.84757988  0.54116776  0.02492833  1
  O  O20  1  0.70553441  0.16121849  0.02358679  1
  O  O21  1  0.44876391  0.14154919  0.52382434  1
  O  O22  1  0.69746750  0.51947143  0.52452382  1
  O  O23  1  0.84682221  0.27818622  0.52268707  1
  O  O24  1  0.53552369  0.69036968  0.97237348  1
  O  O25  1  0.16478975  0.47118021  0.98038225  1
  O  O26  1  0.30935359  0.84784692  0.97486561  1
  O  O27  1  0.51899135  0.83433343  0.47679633  1
  O  O28  1  0.30980666  0.46961714  0.46944626  1
  O  O29  1  0.14855692  0.69366191  0.47145130  1
  O  O30  1  0.11452046  0.63029450  0.36119698  1
  O  O31  1  0.50364324  0.87074836  0.35435184  1
  O  O32  1  0.35630228  0.47910228  0.35874548  1
  O  O33  1  0.14661120  0.51184949  0.86017315  1
  O  O34  1  0.37285370  0.88094709  0.86530483  1
  O  O35  1  0.51964803  0.63058402  0.86285581  1
  O  O36  1  0.03111369  0.83257872  0.41118266  1
  O  O37  1  0.82057325  0.97709141  0.41207913  1
  O  O38  1  0.17496636  0.20060566  0.41483036  1
  O  O39  1  0.02127242  0.17487056  0.90983801  1
  O  O40  1  0.18059176  0.97605040  0.91474519  1
  O  O41  1  0.79818610  0.81556202  0.91700605  1
  O  O42  1  0.99138889  0.15907845  0.59285593  1
  O  O43  1  0.20066103  0.02291791  0.58737476  1
  O  O44  1  0.84026624  0.80773564  0.58548796  1
  O  O45  1  0.97574773  0.80410161  0.08603567  1
  O  O46  1  0.84542203  0.01793150  0.09186088  1
  O  O47  1  0.20949732  0.17626639  0.08194672  1
  O  O48  1  0.67860408  0.17490288  0.74248422  1
  O  O49  1  0.46136021  0.30715248  0.74931550  1
  O  O50  1  0.82511537  0.52806413  0.75124700  1
  O  O51  1  0.69084130  0.52902974  0.23856289  1
  O  O52  1  0.83055921  0.32086488  0.24319697  1
  O  O53  1  0.47292974  0.18068747  0.24532850  1
  O  O54  1  0.63970666  0.49665307  0.92773789  1
  O  O55  1  0.85321910  0.35922057  0.92327554  1
  O  O56  1  0.49775705  0.14016255  0.92707362  1
  O  O57  1  0.64246544  0.15351408  0.42164389  1
  O  O58  1  0.49021129  0.35699562  0.42077693  1
  O  O59  1  0.86316071  0.50863766  0.42043354  1
  O  O60  1  0.35945139  0.49470718  0.07536725  1
  O  O61  1  0.13010494  0.64249611  0.07730956  1
  O  O62  1  0.48228240  0.83519269  0.07069818  1
  O  O63  1  0.35336700  0.86070063  0.57654222  1
  O  O64  1  0.49867941  0.65061126  0.57900339  1
  O  O65  1  0.15953292  0.52018892  0.56934137  1
  O  O66  1  0.31545786  0.83400350  0.24996176  1
  O  O67  1  0.54042697  0.69175113  0.25115943  1
  O  O68  1  0.18996768  0.48848115  0.25773525  1
  O  O69  1  0.30916569  0.47059935  0.76013652  1
  O  O70  1  0.16700282  0.68384382  0.75678446  1
  O  O71  1  0.50901640  0.81316622  0.76588791  1
loop_
_geom_bond_atom_site_label_1
_geom_bond_atom_site_label_2
_geom_bond_distance
_geom_bond_site_symmetry_2
Na0 O31 2.414918 1_545
Na0 O66 2.417186 1_545
Na0 O67 2.431550 1_545
Na0 O52 2.434712 1_555
Na0 O53 2.556798 1_555
Na0 O2 2.715748 1_555
Na0 O16 2.723182 1_555
Na1 O53 2.259568 1_555
Na1 O68 2.269946 1_555
Na1 O67 2.508030 1_555
Na1 O32 2.510978 1_555
Na1 O51 2.569135 1_555
Na1 O17 2.721652 1_555
Na1 O0 2.790601 1_555
Na1 O10 2.827721 1_555
Na2 O50 2.313817 1_555
Na2 O71 2.362102 1_555
Na2 O14 2.373594 1_555
Na2 O49 2.541135 1_555
Na2 O6 2.567844 1_555
Na2 O69 2.573185 1_555
Na2 O35 2.834871 1_555
Na3 O48 2.405748 1_555
Na3 O70 2.407010 1_655
Na3 O12 2.468800 1_555
Na3 O50 2.497747 1_555
Na3 O69 2.503925 1_655
Na3 O33 2.787320 1_655
Na3 O7 2.802623 1_655
Na3 O5 2.805413 1_555
Na4 O44 2.314525 1_455
Na4 O65 2.368706 1_555
Na4 O43 2.513859 1_565
Na4 O8 2.515901 1_555
Na4 O63 2.542804 1_555
Na4 O12 2.601545 1_455
Na4 O29 2.777980 1_555
Na4 O22 2.853209 1_455
Na5 O64 2.399068 1_555
Na5 O42 2.441779 1_565
Na5 O44 2.481816 1_555
Na5 O63 2.515278 1_555
Na5 O6 2.561976 1_555
Na5 O27 2.631791 1_555
Na5 O23 2.695328 1_565
Na5 O13 2.835156 1_565
Na6 O62 2.388862 1_555
Na6 O47 2.392269 1_565
Na6 O11 2.436097 1_555
Na6 O61 2.483001 1_555
Na6 O45 2.555825 1_455
Na6 O16 2.560795 1_565
Na6 O26 2.756989 1_554
Na7 O46 2.355456 1_455
Na7 O61 2.427862 1_555
Na7 O10 2.541619 1_555
Na7 O47 2.542702 1_555
Na7 O60 2.544688 1_555
Na7 O25 2.557985 1_554
Na7 O20 2.777133 1_455
Na7 O15 2.845544 1_455
Na8 O55 2.355344 1_555
Na8 O4 2.395311 1_555
Na8 O40 2.415695 1_655
Na8 O41 2.485613 1_555
Na8 O54 2.580737 1_555
Na8 O33 2.671450 1_655
Na8 O19 2.855108 1_556
Na9 O39 2.383731 1_655
Na9 O5 2.389218 1_555
Na9 O55 2.421058 1_555
Na9 O41 2.446049 1_545
Na9 O56 2.468223 1_555
Na9 O20 2.672390 1_556
Na9 O34 2.771037 1_545
Na9 O24 2.972318 1_545
Na10 O37 2.374355 1_545
Na10 O38 2.416942 1_655
Na10 O57 2.423398 1_555
Na10 O59 2.432227 1_555
Na10 O23 2.433453 1_555
Na10 O2 2.590870 1_555
Na10 O30 2.872367 1_655
Na10 O28 2.900968 1_655
Na11 O57 2.333451 1_555
Na11 O36 2.397649 1_545
Na11 O58 2.442462 1_555
Na11 O38 2.535953 1_555
Na11 O21 2.562700 1_555
Na11 O0 2.619593 1_555
Na11 O31 2.792577 1_545
Na11 O29 2.869827 1_545
Na12 O44 2.334236 1_555
Na12 O42 2.387997 1_565
Na12 O37 2.428303 1_555
Na12 O43 2.572653 1_665
Na12 O36 2.592041 1_655
Na12 O38 2.611041 1_665
Na13 O39 2.373736 1_655
Na13 O46 2.454311 1_556
Na13 O41 2.459365 1_545
Na13 O47 2.488399 1_656
Na13 O40 2.548480 1_645
Na13 O45 2.573707 1_546
Na14 O48 2.303653 1_555
Na14 O50 2.337604 1_555
Na14 O49 2.396244 1_555
Na14 O55 2.629545 1_555
Na14 O56 2.672064 1_555
Na14 O54 2.693926 1_555
Na15 O57 2.423374 1_555
Na15 O59 2.430625 1_555
Na15 O52 2.468135 1_555
Na15 O53 2.531553 1_555
Na15 O58 2.539295 1_555
Na15 O51 2.655825 1_555
Na16 O66 2.292372 1_555
Na16 O68 2.418887 1_555
Na16 O67 2.504618 1_555
Na16 O62 2.571263 1_555
Na16 O61 2.626105 1_555
Na16 O60 2.633190 1_555
Na17 O64 2.425081 1_555
Na17 O65 2.517624 1_555
Na17 O70 2.520896 1_555
Na17 O63 2.531486 1_555
Na17 O71 2.615584 1_555
Na17 O69 2.643211 1_555
Al0 O5 1.773037 1_555
Al0 O4 1.798257 1_545
Al0 O3 1.826656 1_655
Al0 O39 1.880799 1_655
Al0 O41 2.406005 1_545
Al0 O40 2.444438 1_645
Al1 O10 1.792066 1_655
Al1 O11 1.813687 1_645
Al1 O9 1.865833 1_545
Al1 O46 1.897920 1_555
Al1 O45 2.229317 1_545
Al1 O47 2.345523 1_655
Al2 O20 1.799092 1_556
Al2 O55 1.853440 1_555
Al2 O19 1.927182 1_556
Al2 O56 2.018206 1_555
Al2 O18 2.050842 1_556
Al2 O54 2.100603 1_555
Al3 O25 1.787902 1_554
Al3 O62 1.822243 1_555
Al3 O24 1.852050 1_554
Al3 O26 2.004790 1_554
Al3 O60 2.031292 1_555
Al3 O61 2.245108 1_555
Al4 O64 1.789195 1_555
Al4 O27 1.814635 1_555
Al4 O65 1.826249 1_555
Al4 O28 1.905763 1_555
Al4 O63 2.080058 1_555
Al4 O29 2.298743 1_555
Al5 O70 1.781602 1_555
Al5 O71 1.804553 1_555
Al5 O33 1.823069 1_555
Al5 O69 1.997740 1_555
Al5 O34 2.047686 1_555
Al5 O35 2.339721 1_555
Ga0 O2 1.870035 1_555
Ga0 O0 1.901568 1_655
Ga0 O37 1.938735 1_545
Ga0 O1 2.024062 1_545
Ga0 O38 2.188841 1_655
Ga0 O36 2.207355 1_645
Ga1 O8 1.876581 1_655
Ga1 O6 1.892543 1_555
Ga1 O42 1.914515 1_565
Ga1 O44 1.928937 1_555
Ga1 O7 2.198396 1_665
Ga1 O43 2.301717 1_665
Ga2 O14 1.869931 1_555
Ga2 O12 1.882241 1_555
Ga2 O48 1.952351 1_555
Ga2 O50 1.989886 1_555
Ga2 O13 2.170185 1_555
Ga2 O49 2.373197 1_555
Ga3 O16 1.862218 1_555
Ga3 O52 1.866466 1_555
Ga3 O53 1.908452 1_555
Ga3 O51 2.116827 1_555
Ga3 O15 2.167410 1_555
Ga3 O17 2.199630 1_555
Ga4 O22 1.816732 1_555
Ga4 O23 1.855225 1_555
Ga4 O57 1.970531 1_555
Ga4 O21 1.995975 1_555
Ga4 O59 2.223352 1_555
Ga4 O58 2.388235 1_555
Ga5 O31 1.863839 1_555
Ga5 O68 1.902390 1_555
Ga5 O66 1.911409 1_555
Ga5 O30 1.936564 1_555
Ga5 O32 2.231091 1_555
Ga5 O67 2.344827 1_555
O0 Si0 1.639916 1_545
O1 S0 1.470161 1_555
O2 Si1 1.635135 1_655
O3 S1 1.489917 1_555
O4 Si2 1.659636 1_655
O5 Si3 1.655078 1_545
O6 Si3 1.629458 1_555
O7 S1 1.461892 1_555
O8 Si2 1.623379 1_555
O9 S0 1.486406 1_555
O10 Si1 1.641732 1_555
O11 Si0 1.639088 1_555
O12 Si4 1.642995 1_555
O13 S2 1.469433 1_555
O14 Si5 1.636076 1_555
O15 S3 1.466762 1_555
O16 Si6 1.644706 1_555
O17 S4 1.475955 1_555
O18 S4 1.480585 1_555
O19 S3 1.495092 1_555
O20 Si6 1.648050 1_555
O21 S2 1.498369 1_555
O22 Si5 1.630591 1_555
O23 Si4 1.652076 1_555
O24 S5 1.494106 1_555
O25 Si7 1.643037 1_555
O26 S6 1.500855 1_555
O27 Si8 1.615436 1_555
O28 S7 1.476249 1_555
O29 S8 1.469235 1_555
O30 S8 1.502415 1_555
O31 Si8 1.656948 1_555
O32 S7 1.480002 1_555
O33 Si7 1.628125 1_555
O34 S6 1.478217 1_555
O35 S5 1.456071 1_555
O36 S8 1.483212 1_555
O37 Si8 1.656439 1_555
O38 S7 1.513721 1_555
O39 Si7 1.655143 1_555
O40 S6 1.465489 1_555
O41 S5 1.496180 1_555
O42 Si4 1.625555 1_555
O43 S2 1.460957 1_555
O44 Si5 1.655337 1_555
O45 S3 1.477617 1_555
O46 Si6 1.652493 1_555
O47 S4 1.501629 1_555
O48 Si3 1.632979 1_545
O49 S1 1.459102 1_555
O50 Si2 1.659518 1_655
O51 S0 1.473700 1_555
O52 Si1 1.635323 1_655
O53 Si0 1.675214 1_545
O54 S5 1.494914 1_555
O55 Si7 1.699827 1_655
O56 S6 1.501559 1_545
O57 Si8 1.690192 1_545
O58 S7 1.469856 1_555
O59 S8 1.477523 1_655
O60 S4 1.493069 1_555
O61 S3 1.508447 1_455
O62 Si6 1.651104 1_565
O63 S2 1.506342 1_565
O64 Si5 1.631994 1_555
O65 Si4 1.627886 1_455
O66 Si0 1.632787 1_555
O67 S0 1.484430 1_555
O68 Si1 1.637692 1_555
O69 S1 1.512575 1_555
O70 Si2 1.636397 1_555
O71 Si3 1.633267 1_555
