# generated using pymatgen
data_Li3Fe(PO3)8
_symmetry_space_group_name_H-M   'P 1'
_cell_length_a   9.77157387
_cell_length_b   9.77157387
_cell_length_c   10.02937646
_cell_angle_alpha   43.50130455
_cell_angle_beta   43.50130455
_cell_angle_gamma   49.93565376
_symmetry_Int_Tables_number   1
_chemical_formula_structural   Li3Fe(PO3)8
_chemical_formula_sum   'Li3 Fe1 P8 O24'
_cell_volume   439.61019093
_cell_formula_units_Z   1
loop_
 _symmetry_equiv_pos_site_id
 _symmetry_equiv_pos_as_xyz
  1  'x, y, z'
loop_
 _atom_site_type_symbol
 _atom_site_label
 _atom_site_symmetry_multiplicity
 _atom_site_fract_x
 _atom_site_fract_y
 _atom_site_fract_z
 _atom_site_occupancy
  Li  Li0  1  0.47423400  0.98293800  0.77521800  1
  Li  Li1  1  0.01706200  0.52576600  0.22478200  1
  Li  Li2  1  0.05395700  0.94604300  0.00000000  1
  Fe  Fe0  1  0.95166500  0.04833500  0.50000000  1
  P  P0  1  0.75739600  0.26879200  0.20945000  1
  P  P1  1  0.29376800  0.32000800  0.45578600  1
  P  P2  1  0.26273400  0.73740300  0.28173700  1
  P  P3  1  0.67999200  0.70623200  0.54421400  1
  P  P4  1  0.71269400  0.69470100  0.04738300  1
  P  P5  1  0.73120800  0.24260400  0.79055000  1
  P  P6  1  0.30529900  0.28730600  0.95261700  1
  P  P7  1  0.26259700  0.73726600  0.71826300  1
  O  O0  1  0.84876400  0.08234200  0.90977100  1
  O  O1  1  0.28645100  0.80086700  0.08059100  1
  O  O2  1  0.82199100  0.65175300  0.12896000  1
  O  O3  1  0.86778900  0.73301300  0.32247700  1
  O  O4  1  0.47038200  0.71657800  0.23436300  1
  O  O5  1  0.22766700  0.50954600  0.47358600  1
  O  O6  1  0.08743100  0.86447400  0.40082900  1
  O  O7  1  0.49045400  0.77233300  0.52641400  1
  O  O8  1  0.63080300  0.80814000  0.63917700  1
  O  O9  1  0.81254100  0.25754700  0.57908500  1
  O  O10  1  0.13552600  0.91256900  0.59917100  1
  O  O11  1  0.26698700  0.13221100  0.67752300  1
  O  O12  1  0.69848500  0.46403400  0.72380000  1
  O  O13  1  0.28342200  0.52961800  0.76563700  1
  O  O14  1  0.19186000  0.36919700  0.36082300  1
  O  O15  1  0.73463600  0.87589800  0.81911300  1
  O  O16  1  0.19913300  0.71354900  0.91940900  1
  O  O17  1  0.34824600  0.17800900  0.87104000  1
  O  O18  1  0.49831000  0.22366400  0.96128700  1
  O  O19  1  0.91765800  0.15123600  0.09022900  1
  O  O20  1  0.77633600  0.50169000  0.03871300  1
  O  O21  1  0.53596600  0.30151500  0.27620000  1
  O  O22  1  0.12410200  0.26536400  0.18088700  1
  O  O23  1  0.74245300  0.18745900  0.42091500  1
loop_
_geom_bond_atom_site_label_1
_geom_bond_atom_site_label_2
_geom_bond_distance
_geom_bond_site_symmetry_2
Li0 O17 1.998226 1_565
Li0 O1 2.014249 1_556
Li0 O8 2.026905 1_555
Li0 O11 2.047311 1_565
Li0 O15 2.300762 1_555
Li0 O23 2.533693 1_565
Li1 O2 1.998229 1_455
Li1 O16 2.014249 1_554
Li1 O14 2.026905 1_555
Li1 O3 2.047311 1_455
Li1 O22 2.300762 1_555
Li1 O9 2.533693 1_455
Li2 O19 2.014734 1_465
Li2 O0 2.014734 1_464
Li2 O3 2.162224 1_455
Li2 O11 2.162224 1_564
Li2 O16 2.163036 1_554
Li2 O1 2.163036 1_555
Fe0 O6 1.893930 1_645
Fe0 O10 1.893930 1_645
Fe0 O9 1.966461 1_555
Fe0 O23 1.966461 1_555
Fe0 O22 2.123639 1_655
Fe0 O15 2.123639 1_545
O0 P5 1.470399 1_555
O1 P2 1.483202 1_555
O2 P4 1.476042 1_555
O3 P3 1.495053 1_555
O4 P2 1.610699 1_555
O4 P4 1.630086 1_555
O5 P2 1.608628 1_555
O5 P1 1.628405 1_555
O6 P2 1.532325 1_555
O7 P7 1.608628 1_555
O7 P3 1.628405 1_555
O8 P3 1.491771 1_555
O9 P5 1.551085 1_555
O10 P7 1.532325 1_555
O11 P1 1.495053 1_555
O12 P5 1.597066 1_555
O12 P3 1.617255 1_555
O13 P7 1.610699 1_555
O13 P6 1.630086 1_555
O14 P1 1.491771 1_555
O15 P4 1.522594 1_556
O16 P7 1.483202 1_555
O17 P6 1.476048 1_555
O18 P5 1.604575 1_555
O18 P6 1.612760 1_555
O19 P0 1.470399 1_555
O20 P0 1.604575 1_555
O20 P4 1.612760 1_555
O21 P0 1.597066 1_555
O21 P1 1.617255 1_555
O22 P6 1.522594 1_554
O23 P0 1.551085 1_555
