# generated using pymatgen
data_TcO2F3
_symmetry_space_group_name_H-M   'P 1'
_cell_length_a   7.77404102
_cell_length_b   7.76523431
_cell_length_c   11.57837928
_cell_angle_alpha   88.90932156
_cell_angle_beta   89.32635805
_cell_angle_gamma   83.99423140
_symmetry_Int_Tables_number   1
_chemical_formula_structural   TcO2F3
_chemical_formula_sum   'Tc8 O16 F24'
_cell_volume   694.95915184
_cell_formula_units_Z   8
loop_
 _symmetry_equiv_pos_site_id
 _symmetry_equiv_pos_as_xyz
  1  'x, y, z'
loop_
 _atom_site_type_symbol
 _atom_site_label
 _atom_site_symmetry_multiplicity
 _atom_site_fract_x
 _atom_site_fract_y
 _atom_site_fract_z
 _atom_site_occupancy
  Tc  Tc0  1  0.46972008  0.26920511  0.58761073  1
  Tc  Tc1  1  0.53027992  0.73079489  0.41238927  1
  Tc  Tc2  1  0.08473886  0.24486915  0.37107516  1
  Tc  Tc3  1  0.91526114  0.75513085  0.62892484  1
  Tc  Tc4  1  0.45307068  0.24744238  0.12051071  1
  Tc  Tc5  1  0.54692932  0.75255762  0.87948929  1
  Tc  Tc6  1  0.05104459  0.21882662  0.90241410  1
  Tc  Tc7  1  0.94895541  0.78117338  0.09758590  1
  O  O0  1  0.39216856  0.78934263  0.97693061  1
  O  O1  1  0.02447458  0.20497439  0.50512622  1
  O  O2  1  0.56956873  0.33297661  0.70150199  1
  O  O3  1  0.97552542  0.79502561  0.49487378  1
  O  O4  1  0.90223649  0.26144968  0.29929963  1
  O  O5  1  0.09776351  0.73855032  0.70070037  1
  O  O6  1  0.58233385  0.92340669  0.37276761  1
  O  O7  1  0.13581494  0.77814839  0.16298872  1
  O  O8  1  0.86418506  0.22185161  0.83701128  1
  O  O9  1  0.86258908  0.61539983  0.15688194  1
  O  O10  1  0.13741092  0.38460017  0.84311806  1
  O  O11  1  0.55400664  0.31995332  0.23088810  1
  O  O12  1  0.44599336  0.68004668  0.76911190  1
  O  O13  1  0.43043127  0.66702339  0.29849801  1
  O  O14  1  0.41766615  0.07659331  0.62723239  1
  O  O15  1  0.60783144  0.21065737  0.02306939  1
  F  F0  1  0.44077246  0.02330271  0.17006664  1
  F  F1  1  0.64581099  0.54214115  0.93697650  1
  F  F2  1  0.35418901  0.45785885  0.06302350  1
  F  F3  1  -0.00000000  0.00000000  0.00000000  1
  F  F4  1  0.55922754  0.97669729  0.82993336  1
  F  F5  1  0.27422616  0.16559007  0.00402228  1
  F  F6  1  0.72577384  0.83440993  0.99597772  1
  F  F7  1  0.77892504  0.71748739  0.78155397  1
  F  F8  1  0.22107496  0.28251261  0.21844603  1
  F  F9  1  0.97169538  0.32208206  0.03714537  1
  F  F10  1  0.25764643  0.39267519  0.61611377  1
  F  F11  1  0.83731705  0.98059325  0.66463460  1
  F  F12  1  0.16268295  0.01940675  0.33536540  1
  F  F13  1  0.89252373  0.52235602  0.61795455  1
  F  F14  1  0.10747627  0.47764398  0.38204545  1
  F  F15  1  0.02830462  0.67791794  0.96285463  1
  F  F16  1  0.17203830  0.04667622  0.81683389  1
  F  F17  1  0.82796170  0.95332378  0.18316611  1
  F  F18  1  0.50000000  0.50000000  0.50000000  1
  F  F19  1  0.65674399  0.76436278  0.57067437  1
  F  F20  1  0.34325601  0.23563722  0.42932563  1
  F  F21  1  0.74235357  0.60732481  0.38388623  1
  F  F22  1  0.65814776  0.20295803  0.49596039  1
  F  F23  1  0.34185224  0.79704197  0.50403961  1
loop_
_geom_bond_atom_site_label_1
_geom_bond_atom_site_label_2
_geom_bond_distance
_geom_bond_site_symmetry_2
O0 Tc5 1.646324 1_555
O1 Tc2 1.649068 1_555
O2 Tc0 1.648036 1_555
O3 Tc3 1.649068 1_555
O4 Tc2 1.644864 1_655
O5 Tc3 1.644864 1_455
O6 Tc1 1.645426 1_555
O7 Tc7 1.643850 1_455
O8 Tc6 1.643850 1_655
O9 Tc7 1.647906 1_555
O10 Tc6 1.647906 1_555
O11 Tc4 1.646043 1_555
O12 Tc5 1.646043 1_555
O13 Tc1 1.648036 1_555
O14 Tc0 1.645426 1_555
O15 Tc4 1.646324 1_555
F0 Tc4 1.833904 1_555
F1 Tc5 1.847021 1_555
F2 Tc4 1.847021 1_555
F3 Tc7 2.092605 1_445
F3 Tc6 2.092605 1_554
F4 Tc5 1.833904 1_555
F5 Tc4 2.101861 1_555
F5 Tc6 2.108232 1_554
F6 Tc5 2.101861 1_555
F6 Tc7 2.108232 1_556
F7 Tc3 2.081564 1_555
F7 Tc5 2.115095 1_555
F8 Tc2 2.081564 1_555
F8 Tc4 2.115095 1_555
F9 Tc6 1.838044 1_654
F10 Tc0 1.847904 1_555
F11 Tc3 1.844716 1_555
F12 Tc2 1.844716 1_555
F13 Tc3 1.841398 1_555
F14 Tc2 1.841398 1_555
F15 Tc7 1.838044 1_456
F16 Tc6 1.849050 1_555
F17 Tc7 1.849050 1_555
F18 Tc0 2.075994 1_555
F18 Tc1 2.075994 1_555
F19 Tc3 2.121058 1_555
F19 Tc1 2.123068 1_555
F20 Tc2 2.121058 1_555
F20 Tc0 2.123068 1_555
F21 Tc1 1.847904 1_555
F22 Tc0 1.833852 1_555
F23 Tc1 1.833852 1_555
