# generated using pymatgen
data_MgMnCo3O8
_symmetry_space_group_name_H-M   'P 1'
_cell_length_a   5.86224617
_cell_length_b   5.75356417
_cell_length_c   5.83275429
_cell_angle_alpha   60.27753716
_cell_angle_beta   120.79499213
_cell_angle_gamma   119.83437904
_symmetry_Int_Tables_number   1
_chemical_formula_structural   MgMnCo3O8
_chemical_formula_sum   'Mg1 Mn1 Co3 O8'
_cell_volume   138.71097292
_cell_formula_units_Z   1
loop_
 _symmetry_equiv_pos_site_id
 _symmetry_equiv_pos_as_xyz
  1  'x, y, z'
loop_
 _atom_site_type_symbol
 _atom_site_label
 _atom_site_symmetry_multiplicity
 _atom_site_fract_x
 _atom_site_fract_y
 _atom_site_fract_z
 _atom_site_occupancy
  Mg  Mg0  1  0.00000000  0.00000000  0.50000000  1
  Mn  Mn0  1  0.50000000  0.50000000  0.50000000  1
  Co  Co0  1  0.50000000  0.50000000  0.00000000  1
  Co  Co1  1  0.50000000  0.00000000  0.00000000  1
  Co  Co2  1  0.00000000  0.50000000  0.00000000  1
  O  O0  1  0.75354200  0.71981100  0.75289100  1
  O  O1  1  0.73522600  0.26327400  0.77302200  1
  O  O2  1  0.24376500  0.74034800  0.78829900  1
  O  O3  1  0.29151200  0.26261600  0.75479300  1
  O  O4  1  0.70848800  0.73738400  0.24520700  1
  O  O5  1  0.75623500  0.25965200  0.21170100  1
  O  O6  1  0.26477400  0.73672600  0.22697800  1
  O  O7  1  0.24645800  0.28018900  0.24710900  1
loop_
_geom_bond_atom_site_label_1
_geom_bond_atom_site_label_2
_geom_bond_distance
_geom_bond_site_symmetry_2
Mg0 O2 2.067406 1_545
Mg0 O5 2.067406 1_455
Mg0 O7 2.090167 1_555
Mg0 O0 2.090167 1_445
Mg0 O3 2.114015 1_555
Mg0 O4 2.114015 1_445
Mn0 O0 1.928471 1_555
Mn0 O7 1.928471 1_555
Mn0 O3 1.937533 1_555
Mn0 O4 1.937533 1_555
Mn0 O1 1.939603 1_555
Mn0 O6 1.939603 1_555
Co0 O4 1.972554 1_555
Co0 O3 1.972554 1_554
Co0 O5 2.041509 1_555
Co0 O2 2.041509 1_554
Co0 O0 2.098033 1_554
Co0 O7 2.098033 1_555
Co1 O5 1.926157 1_555
Co1 O2 1.926157 1_544
Co1 O3 1.930573 1_554
Co1 O4 1.930573 1_545
Co1 O6 1.936794 1_545
Co1 O1 1.936794 1_554
Co2 O6 1.896704 1_555
Co2 O1 1.896704 1_454
Co2 O2 1.904325 1_554
Co2 O5 1.904325 1_455
Co2 O7 1.908559 1_555
Co2 O0 1.908559 1_454
