# generated using pymatgen
data_MgMn2(AgO3)2
_symmetry_space_group_name_H-M   'P 1'
_cell_length_a   5.12190231
_cell_length_b   6.55412872
_cell_length_c   5.12186749
_cell_angle_alpha   112.99796875
_cell_angle_beta   59.99498210
_cell_angle_gamma   112.96823598
_symmetry_Int_Tables_number   1
_chemical_formula_structural   MgMn2(AgO3)2
_chemical_formula_sum   'Mg1 Mn2 Ag2 O6'
_cell_volume   132.90439112
_cell_formula_units_Z   1
loop_
 _symmetry_equiv_pos_site_id
 _symmetry_equiv_pos_as_xyz
  1  'x, y, z'
loop_
 _atom_site_type_symbol
 _atom_site_label
 _atom_site_symmetry_multiplicity
 _atom_site_fract_x
 _atom_site_fract_y
 _atom_site_fract_z
 _atom_site_occupancy
  Mg  Mg0  1  0.99999200  0.99998500  0.99999700  1
  Mn  Mn0  1  0.33706800  0.01121100  0.33708000  1
  Mn  Mn1  1  0.66292900  0.98879700  0.66292700  1
  Ag  Ag0  1  0.16520200  0.49583000  0.16519600  1
  Ag  Ag1  1  0.83481800  0.50417300  0.83479200  1
  O  O0  1  0.05228100  0.17651900  0.41380600  1
  O  O1  1  0.58636900  0.82345700  0.28962000  1
  O  O2  1  0.28978800  0.82351300  0.94753900  1
  O  O3  1  0.71021400  0.17648900  0.05246500  1
  O  O4  1  0.41362100  0.17654400  0.71038800  1
  O  O5  1  0.94771600  0.82348200  0.58619100  1
loop_
_geom_bond_atom_site_label_1
_geom_bond_atom_site_label_2
_geom_bond_distance
_geom_bond_site_symmetry_2
Mg0 O2 2.076361 1_655
Mg0 O3 2.076423 1_566
Mg0 O5 2.076541 1_555
Mg0 O0 2.076604 1_666
Mg0 O1 2.076616 1_556
Mg0 O4 2.076688 1_665
Mn0 O3 1.944964 1_555
Mn0 O4 1.945012 1_555
Mn0 O0 1.945082 1_555
Mn0 O2 1.971188 1_544
Mn0 O5 1.971208 1_445
Mn0 O1 1.971286 1_545
Mn1 O2 1.944965 1_555
Mn1 O1 1.945029 1_555
Mn1 O5 1.945097 1_555
Mn1 O3 1.971178 1_566
Mn1 O0 1.971206 1_665
Mn1 O4 1.971275 1_565
Ag0 O5 2.519595 1_455
Ag0 O2 2.520379 1_554
Ag0 O1 2.522106 1_555
Ag0 O4 2.594035 1_554
Ag0 O0 2.595543 1_555
Ag0 O3 2.596083 1_455
Ag1 O0 2.519549 1_655
Ag1 O3 2.520411 1_556
Ag1 O4 2.522175 1_555
Ag1 O1 2.594116 1_556
Ag1 O5 2.595539 1_555
Ag1 O2 2.596046 1_655
