# generated using pymatgen
data_Na9Mg4Nb2(PO4)9
_symmetry_space_group_name_H-M   'P 1'
_cell_length_a   9.00076963
_cell_length_b   26.91124124
_cell_length_c   22.08760166
_cell_angle_alpha   90.01611890
_cell_angle_beta   89.96345556
_cell_angle_gamma   120.08585057
_symmetry_Int_Tables_number   1
_chemical_formula_structural   Na9Mg4Nb2(PO4)9
_chemical_formula_sum   'Na54 Mg24 Nb12 P54 O216'
_cell_volume   4629.30853956
_cell_formula_units_Z   6
loop_
 _symmetry_equiv_pos_site_id
 _symmetry_equiv_pos_as_xyz
  1  'x, y, z'
loop_
 _atom_site_type_symbol
 _atom_site_label
 _atom_site_symmetry_multiplicity
 _atom_site_fract_x
 _atom_site_fract_y
 _atom_site_fract_z
 _atom_site_occupancy
  Na  Na0  1  0.02377063  0.00419144  0.49133003  1
  Na  Na1  1  0.00966458  0.33174593  0.49243600  1
  Na  Na2  1  0.98454664  0.66953255  0.50603983  1
  Na  Na3  1  0.99653631  0.00362769  0.99528404  1
  Na  Na4  1  0.01625066  0.33747499  0.00794169  1
  Na  Na5  1  0.99956494  0.66240664  0.00993990  1
  Na  Na6  1  0.65075881  0.10618266  0.82990314  1
  Na  Na7  1  0.68190257  0.44915455  0.83681698  1
  Na  Na8  1  0.66732991  0.77804974  0.83318586  1
  Na  Na9  1  0.65403664  0.10414080  0.32224016  1
  Na  Na10  1  0.67728517  0.45055045  0.34407500  1
  Na  Na11  1  0.69638720  0.78368680  0.33274901  1
  Na  Na12  1  0.32345017  0.22312025  0.17434945  1
  Na  Na13  1  0.30964924  0.55066023  0.17473023  1
  Na  Na14  1  0.33733033  0.89235100  0.16073973  1
  Na  Na15  1  0.31647844  0.21761202  0.65868869  1
  Na  Na16  1  0.33740878  0.55205181  0.67226954  1
  Na  Na17  1  0.33220847  0.89288479  0.65621624  1
  Na  Na18  1  0.64381561  0.32772202  0.26176899  1
  Na  Na19  1  0.62072154  0.66568096  0.24554120  1
  Na  Na20  1  0.37589533  0.12511565  0.25549090  1
  Na  Na21  1  0.34782779  0.45213317  0.25729181  1
  Na  Na22  1  0.36736946  0.78622494  0.23722117  1
  Na  Na23  1  0.99546970  0.21202349  0.24845745  1
  Na  Na24  1  0.62626579  0.20873996  0.74919245  1
  Na  Na25  1  0.62658483  0.54323537  0.74431471  1
  Na  Na26  1  0.64296803  0.87574206  0.74292651  1
  Na  Na27  1  0.00094953  0.12546533  0.74946655  1
  Na  Na28  1  0.99622138  0.45591912  0.75557850  1
  Na  Na29  1  0.37848192  0.33382383  0.74952399  1
  Na  Na30  1  0.37762828  0.66676038  0.74654150  1
  Na  Na31  1  0.29644218  0.77851268  0.58238768  1
  Na  Na32  1  0.01697036  0.56692981  0.58717793  1
  Na  Na33  1  0.01919900  0.89020009  0.57543493  1
  Na  Na34  1  0.65236438  0.32135742  0.57161830  1
  Na  Na35  1  0.68533665  0.66622128  0.58964946  1
  Na  Na36  1  0.31433957  0.66526996  0.09106951  1
  Na  Na37  1  0.31633357  0.98935628  0.07938084  1
  Na  Na38  1  0.68092157  0.23383746  0.09545114  1
  Na  Na39  1  0.64959705  0.89102823  0.07637767  1
  Na  Na40  1  0.03606876  0.77781161  0.08356153  1
  Na  Na41  1  0.95475817  0.22159227  0.91725223  1
  Na  Na42  1  0.95579375  0.88902247  0.92027258  1
  Na  Na43  1  0.70663811  0.01229793  0.92254827  1
  Na  Na44  1  0.70656511  0.34653231  0.91759754  1
  Na  Na45  1  0.69049071  0.67999278  0.92334290  1
  Na  Na46  1  0.33725991  0.09960718  0.91136254  1
  Na  Na47  1  0.33237497  0.42989900  0.91706242  1
  Na  Na48  1  0.98442818  0.10284835  0.40876194  1
  Na  Na49  1  0.95644418  0.42993139  0.41139560  1
  Na  Na50  1  0.33718931  0.34290603  0.41847271  1
  Na  Na51  1  0.35127960  0.68149149  0.42149369  1
  Na  Na52  1  0.68925149  0.22756537  0.40487111  1
  Na  Na53  1  0.70902796  0.88919046  0.41930742  1
  Mg  Mg0  1  0.00500786  0.99989719  0.35236120  1
  Mg  Mg1  1  0.99851496  0.33416346  0.34820341  1
  Mg  Mg2  1  0.00359883  0.00097070  0.85115225  1
  Mg  Mg3  1  0.99941415  0.33332922  0.85427205  1
  Mg  Mg4  1  0.00124298  0.66879522  0.64932190  1
  Mg  Mg5  1  0.00555976  0.33407468  0.14850313  1
  Mg  Mg6  1  0.99777748  0.66584628  0.14802862  1
  Mg  Mg7  1  0.66018341  0.10923965  0.68555138  1
  Mg  Mg8  1  0.66319513  0.44547713  0.68246262  1
  Mg  Mg9  1  0.68275840  0.77734295  0.68422348  1
  Mg  Mg10  1  0.67368629  0.11152410  0.18222569  1
  Mg  Mg11  1  0.66675224  0.77877451  0.18408018  1
  Mg  Mg12  1  0.67008751  0.10994851  0.98431133  1
  Mg  Mg13  1  0.67294560  0.44617316  0.98107087  1
  Mg  Mg14  1  0.65251429  0.77889913  0.98232482  1
  Mg  Mg15  1  0.65877627  0.44382428  0.48438667  1
  Mg  Mg16  1  0.68619836  0.77918216  0.48231638  1
  Mg  Mg17  1  0.33266037  0.88689540  0.01743957  1
  Mg  Mg18  1  0.32732453  0.22133636  0.51818808  1
  Mg  Mg19  1  0.33196061  0.88846220  0.51784810  1
  Mg  Mg20  1  0.33464788  0.22117247  0.31857823  1
  Mg  Mg21  1  0.32696472  0.55448515  0.31404499  1
  Mg  Mg22  1  0.33395907  0.22218429  0.81246821  1
  Mg  Mg23  1  0.32973382  0.55457334  0.81556925  1
  Nb  Nb0  1  0.99481994  0.66343855  0.35301850  1
  Nb  Nb1  1  0.99992953  0.66526106  0.85370138  1
  Nb  Nb2  1  0.00336221  0.00218008  0.64522807  1
  Nb  Nb3  1  0.00541521  0.33181325  0.64662624  1
  Nb  Nb4  1  0.99300497  0.00018178  0.14965091  1
  Nb  Nb5  1  0.67315461  0.44529402  0.18359112  1
  Nb  Nb6  1  0.65992742  0.11004803  0.48297450  1
  Nb  Nb7  1  0.32792868  0.22352723  0.02002326  1
  Nb  Nb8  1  0.33000698  0.55329846  0.02124228  1
  Nb  Nb9  1  0.33969074  0.55424378  0.51822043  1
  Nb  Nb10  1  0.33168451  0.89365505  0.31438341  1
  Nb  Nb11  1  0.33349201  0.89046221  0.81269330  1
  P  P0  1  0.29231064  0.00116424  0.24963782  1
  P  P1  1  0.29515933  0.33375813  0.25127729  1
  P  P2  1  0.29437561  0.66485245  0.24774660  1
  P  P3  1  0.70238413  0.23317779  0.24873048  1
  P  P4  1  0.70502032  0.56908515  0.24691100  1
  P  P5  1  0.70280554  0.90088114  0.25513564  1
  P  P6  1  0.99640634  0.09871765  0.25586198  1
  P  P7  1  0.00246540  0.43207465  0.24949396  1
  P  P8  1  0.99913473  0.76438753  0.24887941  1
  P  P9  1  0.29666951  0.09853329  0.75366664  1
  P  P10  1  0.29605695  0.43058433  0.75358964  1
  P  P11  1  0.29397338  0.76465199  0.74861532  1
  P  P12  1  0.99623887  0.23404130  0.75501162  1
  P  P13  1  0.00279551  0.56882443  0.74630265  1
  P  P14  1  0.00053395  0.90255649  0.75153379  1
  P  P15  1  0.71011695  0.00133615  0.75400653  1
  P  P16  1  0.70836086  0.33442109  0.75109491  1
  P  P17  1  0.70245134  0.66589716  0.74904309  1
  P  P18  1  0.96078114  0.11282547  0.58756785  1
  P  P19  1  0.96023661  0.44457021  0.58401492  1
  P  P20  1  0.96860198  0.77773762  0.58357029  1
  P  P21  1  0.37209191  0.01225522  0.58762471  1
  P  P22  1  0.37443601  0.34487141  0.58399727  1
  P  P23  1  0.37263966  0.67996938  0.58176372  1
  P  P24  1  0.66347687  0.20887636  0.58802622  1
  P  P25  1  0.66969120  0.54314272  0.58498822  1
  P  P26  1  0.66302289  0.87472264  0.58514726  1
  P  P27  1  0.95911409  0.21071330  0.08250961  1
  P  P28  1  0.96149221  0.54323010  0.07914528  1
  P  P29  1  0.96043894  0.87545881  0.08212973  1
  P  P30  1  0.66426537  0.01224313  0.08173625  1
  P  P31  1  0.66972617  0.34654304  0.07850169  1
  P  P32  1  0.66946309  0.68074502  0.08168598  1
  P  P33  1  0.37191223  0.11069713  0.08250120  1
  P  P34  1  0.37263579  0.44275928  0.07912466  1
  P  P35  1  0.36425728  0.77752799  0.08575893  1
  P  P36  1  0.62540622  0.22126523  0.91559294  1
  P  P37  1  0.62341970  0.55422593  0.91259476  1
  P  P38  1  0.62999893  0.88944051  0.91752728  1
  P  P39  1  0.03725142  0.12502786  0.91310916  1
  P  P40  1  0.03658129  0.45698741  0.91295912  1
  P  P41  1  0.04000510  0.79092823  0.91805970  1
  P  P42  1  0.33746947  0.32145929  0.91172011  1
  P  P43  1  0.33242090  0.65294288  0.91529509  1
  P  P44  1  0.33047258  0.98674940  0.92008524  1
  P  P45  1  0.63070762  0.32231428  0.41792957  1
  P  P46  1  0.62822111  0.65396143  0.41272683  1
  P  P47  1  0.62774734  0.98629424  0.42020010  1
  P  P48  1  0.33080400  0.12347689  0.41724445  1
  P  P49  1  0.33654206  0.45656576  0.41092202  1
  P  P50  1  0.33345601  0.79166886  0.41613378  1
  P  P51  1  0.03817417  0.22186225  0.41544978  1
  P  P52  1  0.04051462  0.55491004  0.41708004  1
  P  P53  1  0.03556338  0.88990294  0.42130436  1
  O  O0  1  0.20130223  0.00728658  0.30385053  1
  O  O1  1  0.23426289  0.34957738  0.30991305  1
  O  O2  1  0.18275371  0.66619337  0.30504521  1
  O  O3  1  0.81136318  0.26346204  0.30560944  1
  O  O4  1  0.81593877  0.59871548  0.30669106  1
  O  O5  1  0.79918217  0.93009942  0.31229885  1
  O  O6  1  0.98636881  0.06667666  0.31376683  1
  O  O7  1  0.95996602  0.39782235  0.30916176  1
  O  O8  1  0.98461472  0.72238066  0.30285382  1
  O  O9  1  0.21259097  0.06635005  0.81202947  1
  O  O10  1  0.21421031  0.39682947  0.81155443  1
  O  O11  1  0.18439267  0.72505977  0.80342956  1
  O  O12  1  0.97552333  0.26221746  0.81197952  1
  O  O13  1  0.99245911  0.60501094  0.80293512  1
  O  O14  1  0.98160118  0.93118292  0.80818382  1
  O  O15  1  0.80717713  0.00648259  0.81222538  1
  O  O16  1  0.81599285  0.34234894  0.80797829  1
  O  O17  1  0.81545526  0.66777366  0.80663468  1
  O  O18  1  0.80887064  0.32909952  0.69396046  1
  O  O19  1  0.78887290  0.65941365  0.69251201  1
  O  O20  1  0.80676952  0.99158621  0.69951046  1
  O  O21  1  0.17285196  0.06089614  0.69855575  1
  O  O22  1  0.17551207  0.39388190  0.69841082  1
  O  O23  1  0.19974776  0.74036949  0.68977187  1
  O  O24  1  0.00501544  0.27354077  0.69871185  1
  O  O25  1  0.02163943  0.60400399  0.68970939  1
  O  O26  1  0.02603675  0.94048694  0.69375560  1
  O  O27  1  0.78683633  0.26870361  0.19125947  1
  O  O28  1  0.79716245  0.60809193  0.19446167  1
  O  O29  1  0.79934019  0.93869274  0.19704604  1
  O  O30  1  0.00558909  0.05930533  0.20127964  1
  O  O31  1  0.02170274  0.39985861  0.19672621  1
  O  O32  1  0.03727555  0.74219758  0.19104790  1
  O  O33  1  0.18088818  0.32579731  0.19766063  1
  O  O34  1  0.19599475  0.66262048  0.19095052  1
  O  O35  1  0.18085776  0.99197340  0.19043128  1
  O  O36  1  0.87602383  0.11699771  0.64514504  1
  O  O37  1  0.89211053  0.45865855  0.64120904  1
  O  O38  1  0.88355295  0.78631017  0.63982097  1
  O  O39  1  0.47400743  0.04137766  0.64331030  1
  O  O40  1  0.48165042  0.37524703  0.64032000  1
  O  O41  1  0.47913162  0.70356067  0.64013620  1
  O  O42  1  0.65475131  0.17702757  0.64553369  1
  O  O43  1  0.64020904  0.51268156  0.64604987  1
  O  O44  1  0.64202624  0.83862791  0.64210255  1
  O  O45  1  0.88935539  0.17680946  0.14113878  1
  O  O46  1  0.86516240  0.50490914  0.13652691  1
  O  O47  1  0.86747718  0.83559037  0.13501426  1
  O  O48  1  0.63882325  0.04418400  0.13334085  1
  O  O49  1  0.65180209  0.37987502  0.13538172  1
  O  O50  1  0.62639729  0.70339956  0.13945639  1
  O  O51  1  0.48255458  0.12240321  0.13852290  1
  O  O52  1  0.49341891  0.45204728  0.13600671  1
  O  O53  1  0.46733788  0.78489414  0.14454548  1
  O  O54  1  0.44115159  0.09702304  0.02519485  1
  O  O55  1  0.45742916  0.43866740  0.02155903  1
  O  O56  1  0.46012115  0.77035150  0.03212918  1
  O  O57  1  0.85144523  0.18057649  0.02617668  1
  O  O58  1  0.85933264  0.51417982  0.02333627  1
  O  O59  1  0.86021745  0.85471451  0.02196539  1
  O  O60  1  0.69426793  0.04275626  0.02056860  1
  O  O61  1  0.67902924  0.37865570  0.02115090  1
  O  O62  1  0.69152943  0.71704374  0.02482837  1
  O  O63  1  0.46847378  0.05067967  0.53020712  1
  O  O64  1  0.44385239  0.37882819  0.52530624  1
  O  O65  1  0.45866362  0.71595587  0.52500507  1
  O  O66  1  0.68160493  0.17583732  0.53111421  1
  O  O67  1  0.69451280  0.51122884  0.53322522  1
  O  O68  1  0.70568816  0.85188791  0.52743599  1
  O  O69  1  0.84008227  0.10368938  0.53081514  1
  O  O70  1  0.85085652  0.43345925  0.52780865  1
  O  O71  1  0.85366499  0.76710041  0.52795938  1
  O  O72  1  0.52445688  0.22651430  0.97259241  1
  O  O73  1  0.52632998  0.56389278  0.96710161  1
  O  O74  1  0.54344537  0.89548759  0.97428704  1
  O  O75  1  0.15804572  0.16176156  0.96825729  1
  O  O76  1  0.16050554  0.49475258  0.96807085  1
  O  O77  1  0.13416636  0.81470941  0.97715114  1
  O  O78  1  0.32861086  0.28198415  0.96787630  1
  O  O79  1  0.30732704  0.61502014  0.97311175  1
  O  O80  1  0.31228213  0.95154879  0.97653226  1
  O  O81  1  0.54627472  0.28709406  0.47550142  1
  O  O82  1  0.53455699  0.61578842  0.47091130  1
  O  O83  1  0.53428226  0.94755128  0.47268175  1
  O  O84  1  0.31207148  0.15579722  0.47004636  1
  O  O85  1  0.32626397  0.49564506  0.46565149  1
  O  O86  1  0.30827567  0.81515131  0.47497875  1
  O  O87  1  0.15302876  0.23020778  0.46903328  1
  O  O88  1  0.15692174  0.56545063  0.47534428  1
  O  O89  1  0.13267952  0.89321673  0.47861631  1
  O  O90  1  0.09990298  0.20637367  0.35681436  1
  O  O91  1  0.13220185  0.54944599  0.36257412  1
  O  O92  1  0.15340906  0.88970301  0.36485046  1
  O  O93  1  0.52167805  0.29215153  0.36105341  1
  O  O94  1  0.52434022  0.62442341  0.35659593  1
  O  O95  1  0.51656007  0.95674606  0.36036214  1
  O  O96  1  0.37414621  0.15793739  0.35767911  1
  O  O97  1  0.34739082  0.48865537  0.35297526  1
  O  O98  1  0.34735751  0.83139711  0.36102863  1
  O  O99  1  0.11878265  0.15883210  0.85514402  1
  O  O100  1  0.12087449  0.48925973  0.85466398  1
  O  O101  1  0.14901825  0.83036090  0.86326512  1
  O  O102  1  0.35839382  0.29354337  0.85458728  1
  O  O103  1  0.35227823  0.62453493  0.85865419  1
  O  O104  1  0.34051798  0.95052039  0.86336139  1
  O  O105  1  0.51802115  0.21346107  0.85871112  1
  O  O106  1  0.52610301  0.54903624  0.85443047  1
  O  O107  1  0.51749915  0.88781037  0.85997737  1
  O  O108  1  0.01025135  0.27382823  0.40967685  1
  O  O109  1  0.03107296  0.61255655  0.41406713  1
  O  O110  1  0.01306071  0.94239161  0.41408539  1
  O  O111  1  0.81276759  0.32872692  0.41298739  1
  O  O112  1  0.80976116  0.65820709  0.41164803  1
  O  O113  1  0.80897804  0.99559692  0.41346395  1
  O  O114  1  0.17396014  0.06312878  0.41326898  1
  O  O115  1  0.16663588  0.39907040  0.41732238  1
  O  O116  1  0.17258554  0.72921421  0.40567596  1
  O  O117  1  0.02990489  0.06649623  0.91755202  1
  O  O118  1  0.03294322  0.39900344  0.91906086  1
  O  O119  1  0.01543597  0.72911666  0.90779236  1
  O  O120  1  0.16856834  0.32273522  0.91628921  1
  O  O121  1  0.16434871  0.65813256  0.91137121  1
  O  O122  1  0.16975741  0.99244603  0.91353533  1
  O  O123  1  0.80182499  0.27715058  0.91692959  1
  O  O124  1  0.80539269  0.61198479  0.91247502  1
  O  O125  1  0.80871259  0.94446315  0.91233144  1
  O  O126  1  0.96955651  0.05455206  0.59041612  1
  O  O127  1  0.98375985  0.39079556  0.59217322  1
  O  O128  1  0.99257012  0.72424934  0.58836081  1
  O  O129  1  0.18930424  0.00941932  0.58747999  1
  O  O130  1  0.18639119  0.33777884  0.59314888  1
  O  O131  1  0.18750407  0.66895143  0.58555057  1
  O  O132  1  0.83459167  0.27063292  0.58669374  1
  O  O133  1  0.82117371  0.60578817  0.58571897  1
  O  O134  1  0.83299832  0.93680022  0.59458954  1
  O  O135  1  0.98441877  0.27145438  0.08571276  1
  O  O136  1  0.00169630  0.60471673  0.08768236  1
  O  O137  1  0.97800012  0.93769286  0.09226029  1
  O  O138  1  0.82877692  0.00405619  0.09208953  1
  O  O139  1  0.81832967  0.33562327  0.08671777  1
  O  O140  1  0.82485832  0.67235706  0.08706619  1
  O  O141  1  0.18450028  0.05730621  0.09183449  1
  O  O142  1  0.19350229  0.39333200  0.08905229  1
  O  O143  1  0.18108063  0.72387818  0.08786669  1
  O  O144  1  0.68962521  0.05341332  0.74558843  1
  O  O145  1  0.69075438  0.38834870  0.74352421  1
  O  O146  1  0.68414695  0.71946522  0.75224523  1
  O  O147  1  0.47704800  0.10720052  0.74694802  1
  O  O148  1  0.47527222  0.43749590  0.74599616  1
  O  O149  1  0.47140986  0.76992139  0.75271728  1
  O  O150  1  0.83830512  0.17380586  0.74808490  1
  O  O151  1  0.83571801  0.51060789  0.75046405  1
  O  O152  1  0.84176286  0.84313306  0.74474491  1
  O  O153  1  0.68138266  0.17202120  0.24598150  1
  O  O154  1  0.68915447  0.50815459  0.24375180  1
  O  O155  1  0.67372631  0.84027008  0.24719622  1
  O  O156  1  0.84138376  0.10631827  0.24663942  1
  O  O157  1  0.83521026  0.43855197  0.23881725  1
  O  O158  1  0.83294176  0.76617079  0.24981220  1
  O  O159  1  0.46995114  0.05316876  0.24130190  1
  O  O160  1  0.48552488  0.38908686  0.24006873  1
  O  O161  1  0.46866778  0.72139051  0.25330309  1
  O  O162  1  0.64222712  0.16724155  0.92318494  1
  O  O163  1  0.64350267  0.50207240  0.92110729  1
  O  O164  1  0.64714063  0.83560807  0.91420569  1
  O  O165  1  0.85832346  0.11830522  0.92082040  1
  O  O166  1  0.85642038  0.44843662  0.91970037  1
  O  O167  1  0.86211861  0.78534056  0.91401561  1
  O  O168  1  0.49770461  0.04493078  0.91595801  1
  O  O169  1  0.49555031  0.38169920  0.91873119  1
  O  O170  1  0.49061637  0.71249126  0.92259136  1
  O  O171  1  0.64449540  0.04747555  0.42301593  1
  O  O172  1  0.65244094  0.38365797  0.42045487  1
  O  O173  1  0.64575839  0.71283498  0.42082061  1
  O  O174  1  0.49818008  0.11697977  0.42792053  1
  O  O175  1  0.49202333  0.44922481  0.42010551  1
  O  O176  1  0.49391438  0.78538997  0.41336394  1
  O  O177  1  0.84822085  0.16661437  0.42661658  1
  O  O178  1  0.86388432  0.50282718  0.42529888  1
  O  O179  1  0.86052412  0.83465519  0.41510835  1
  O  O180  1  0.34851967  0.16465193  0.07413614  1
  O  O181  1  0.36368953  0.50100753  0.07637473  1
  O  O182  1  0.34358371  0.83161300  0.08119556  1
  O  O183  1  0.14720167  0.21783031  0.07367306  1
  O  O184  1  0.14417919  0.54616957  0.07929314  1
  O  O185  1  0.14661553  0.88716448  0.07933408  1
  O  O186  1  0.49864777  0.28495132  0.08006045  1
  O  O187  1  0.49982458  0.61864698  0.07233601  1
  O  O188  1  0.51160419  0.94968907  0.08060473  1
  O  O189  1  0.34839690  0.28407275  0.58120759  1
  O  O190  1  0.35393021  0.61717940  0.57473033  1
  O  O191  1  0.33216350  0.95083259  0.57907452  1
  O  O192  1  0.51523404  0.22001331  0.57995783  1
  O  O193  1  0.50336024  0.55054729  0.57491522  1
  O  O194  1  0.50795981  0.88329885  0.58009878  1
  O  O195  1  0.13980050  0.16227646  0.57763724  1
  O  O196  1  0.14771628  0.49815908  0.57434861  1
  O  O197  1  0.15109876  0.83137288  0.57828677  1
  O  O198  1  0.32290121  0.28180378  0.25694450  1
  O  O199  1  0.32044178  0.61308327  0.25323408  1
  O  O200  1  0.30742301  0.94470312  0.25319001  1
  O  O201  1  0.52024530  0.22671357  0.25377261  1
  O  O202  1  0.52415448  0.56019951  0.25376400  1
  O  O203  1  0.51835994  0.89607159  0.25415249  1
  O  O204  1  0.16641500  0.15627102  0.24934956  1
  O  O205  1  0.15944461  0.49251423  0.25319363  1
  O  O206  1  0.16134022  0.82475821  0.26180923  1
  O  O207  1  0.30046888  0.15658460  0.74756753  1
  O  O208  1  0.30400866  0.48922230  0.74914851  1
  O  O209  1  0.31827885  0.82634006  0.75883443  1
  O  O210  1  0.16512505  0.23279930  0.75039901  1
  O  O211  1  0.16359554  0.56314546  0.75300040  1
  O  O212  1  0.16856116  0.89722351  0.75537308  1
  O  O213  1  0.53191793  0.27866763  0.74987380  1
  O  O214  1  0.52348846  0.61090192  0.75439260  1
  O  O215  1  0.52774795  0.94357990  0.75420626  1
loop_
_geom_bond_atom_site_label_1
_geom_bond_atom_site_label_2
_geom_bond_distance
_geom_bond_site_symmetry_2
Na0 O114 2.272614 1_555
Na0 O110 2.350330 1_545
Na0 O113 2.510939 1_445
Na0 O129 2.558044 1_555
Na0 O126 2.743124 1_455
Na0 O134 2.883488 1_445
Na1 O115 2.337423 1_555
Na1 O108 2.403627 1_555
Na1 O111 2.467050 1_455
Na1 O132 2.630925 1_455
Na1 O130 2.692661 1_555
Na1 O127 2.793111 1_455
Na2 O128 2.317676 1_555
Na2 O133 2.381534 1_555
Na2 O112 2.537266 1_555
Na2 O131 2.540539 1_655
Na2 O109 2.700761 1_655
Na2 O116 2.762272 1_655
Na3 O117 2.322056 1_655
Na3 O125 2.460435 1_545
Na3 O122 2.499641 1_645
Na3 O138 2.620182 1_556
Na3 O141 2.655079 1_656
Na3 O137 2.732986 1_546
Na4 O142 2.369009 1_555
Na4 O135 2.383321 1_455
Na4 O139 2.471967 1_455
Na4 O118 2.523948 1_554
Na4 O120 2.583851 1_554
Na4 O123 2.695034 1_454
Na5 O136 2.321774 1_655
Na5 O143 2.379223 1_655
Na5 O140 2.421770 1_555
Na5 O121 2.668295 1_654
Na5 O124 2.674994 1_554
Na5 O119 2.842268 1_654
Na6 O147 2.418522 1_555
Na6 O168 2.439154 1_555
Na6 O144 2.470422 1_555
Na6 O150 2.518965 1_555
Na6 O165 2.650048 1_555
Na6 O162 2.659970 1_555
Na7 O166 2.419366 1_555
Na7 O151 2.447959 1_555
Na7 O163 2.470797 1_555
Na7 O169 2.515449 1_555
Na7 O148 2.645917 1_555
Na7 O145 2.656832 1_555
Na8 O164 2.432073 1_555
Na8 O149 2.435894 1_555
Na8 O146 2.437627 1_555
Na8 O167 2.441046 1_555
Na8 O152 2.567027 1_555
Na8 O170 2.593579 1_555
Na9 O156 2.352167 1_555
Na9 O159 2.355131 1_555
Na9 O153 2.405223 1_555
Na9 O171 2.675401 1_555
Na9 O174 2.831473 1_555
Na9 O177 2.872845 1_555
Na10 O175 2.353466 1_555
Na10 O178 2.377408 1_555
Na10 O172 2.394650 1_555
Na10 O154 2.675879 1_555
Na10 O157 2.825849 1_555
Na10 O160 2.851830 1_555
Na11 O179 2.311607 1_555
Na11 O158 2.380369 1_555
Na11 O155 2.498919 1_555
Na11 O176 2.563854 1_555
Na11 O161 2.578503 1_555
Na11 O173 2.599457 1_555
Na12 O204 2.329753 1_555
Na12 O198 2.414208 1_555
Na12 O201 2.460990 1_555
Na12 O186 2.638131 1_555
Na12 O183 2.694362 1_555
Na12 O180 2.789175 1_555
Na13 O205 2.270988 1_555
Na13 O199 2.381812 1_555
Na13 O202 2.519529 1_555
Na13 O184 2.549463 1_555
Na13 O181 2.718490 1_555
Na13 O187 2.872277 1_555
Na14 O188 2.354919 1_555
Na14 O182 2.419134 1_555
Na14 O185 2.441867 1_555
Na14 O200 2.570029 1_555
Na14 O203 2.600510 1_555
Na14 O206 2.812548 1_555
Na15 O195 2.362041 1_555
Na15 O189 2.386658 1_555
Na15 O192 2.471590 1_555
Na15 O207 2.517144 1_555
Na15 O210 2.584655 1_555
Na15 O213 2.706486 1_555
Na16 O208 2.307388 1_555
Na16 O214 2.438534 1_555
Na16 O211 2.486097 1_555
Na16 O193 2.629283 1_555
Na16 O196 2.686395 1_555
Na16 O190 2.734195 1_555
Na17 O191 2.310237 1_555
Na17 O197 2.378413 1_555
Na17 O194 2.408539 1_555
Na17 O212 2.673591 1_555
Na17 O215 2.690571 1_555
Na17 O209 2.852531 1_555
Na18 O201 2.371921 1_555
Na18 O93 2.424241 1_555
Na18 O198 2.510651 1_555
Na18 O157 2.639840 1_555
Na18 O160 2.710533 1_555
Na18 O7 2.715255 1_555
Na19 O199 2.345473 1_555
Na19 O158 2.406635 1_555
Na19 O161 2.491346 1_555
Na19 O202 2.524425 1_555
Na19 O50 2.544118 1_555
Na19 O94 2.652419 1_555
Na20 O201 2.367151 1_555
Na20 O153 2.391129 1_555
Na20 O204 2.421106 1_555
Na20 O96 2.426450 1_555
Na20 O159 2.491264 1_555
Na20 O51 2.769231 1_555
Na20 O0 2.944326 1_555
Na21 O97 2.331364 1_555
Na21 O205 2.431419 1_555
Na21 O202 2.520906 1_555
Na21 O160 2.581996 1_555
Na21 O154 2.675097 1_555
Na21 O1 2.680423 1_555
Na21 O31 2.872081 1_555
Na21 O52 2.981993 1_555
Na22 O53 2.242982 1_555
Na22 O161 2.365890 1_555
Na22 O155 2.397311 1_555
Na22 O203 2.587965 1_555
Na22 O206 2.595291 1_555
Na22 O32 2.783014 1_555
Na23 O156 2.462053 1_555
Na23 O153 2.470401 1_555
Na23 O45 2.554075 1_555
Na23 O198 2.588235 1_655
Na23 O90 2.604062 1_655
Na23 O204 2.633149 1_655
Na23 O33 2.880124 1_655
Na23 O3 2.924365 1_555
Na24 O147 2.365083 1_555
Na24 O213 2.421750 1_555
Na24 O42 2.500747 1_555
Na24 O150 2.515090 1_555
Na24 O207 2.538498 1_555
Na24 O105 2.633986 1_555
Na25 O43 2.345560 1_555
Na25 O214 2.433170 1_555
Na25 O151 2.447482 1_555
Na25 O148 2.463335 1_555
Na25 O208 2.514477 1_555
Na25 O106 2.626106 1_555
Na26 O152 2.355358 1_555
Na26 O44 2.438705 1_555
Na26 O149 2.476302 1_555
Na26 O215 2.523490 1_555
Na26 O209 2.556411 1_555
Na26 O20 2.864233 1_555
Na26 O107 2.903190 1_555
Na27 O207 2.388997 1_555
Na27 O150 2.397040 1_455
Na27 O144 2.484329 1_455
Na27 O210 2.499602 1_555
Na27 O36 2.524237 1_455
Na27 O99 2.535078 1_555
Na28 O100 2.417932 1_655
Na28 O145 2.434131 1_555
Na28 O208 2.451197 1_655
Na28 O211 2.498198 1_655
Na28 O151 2.529385 1_555
Na28 O37 2.708755 1_555
Na28 O16 2.888064 1_555
Na29 O210 2.417653 1_555
Na29 O145 2.436254 1_555
Na29 O148 2.472245 1_555
Na29 O213 2.483102 1_555
Na29 O102 2.529285 1_555
Na29 O40 2.623696 1_555
Na30 O146 2.390866 1_555
Na30 O214 2.447937 1_555
Na30 O149 2.467552 1_555
Na30 O211 2.474064 1_555
Na30 O41 2.535846 1_555
Na30 O103 2.686318 1_555
Na31 O197 2.368378 1_555
Na31 O128 2.371878 1_455
Na31 O194 2.489271 1_555
Na31 O86 2.550987 1_555
Na31 O23 2.557321 1_555
Na31 O131 2.600204 1_555
Na32 O131 2.381195 1_555
Na32 O133 2.459295 1_455
Na32 O25 2.466324 1_555
Na32 O190 2.643842 1_555
Na32 O196 2.659542 1_555
Na32 O67 2.780705 1_455
Na32 O88 2.781399 1_555
Na32 O37 2.809661 1_455
Na33 O89 2.353124 1_555
Na33 O197 2.409182 1_555
Na33 O191 2.448647 1_555
Na33 O134 2.581955 1_455
Na33 O68 2.689988 1_455
Na33 O129 2.789891 1_565
Na33 O38 2.812002 1_455
Na33 O26 2.929135 1_555
Na34 O81 2.321173 1_555
Na34 O192 2.370766 1_555
Na34 O189 2.405011 1_555
Na34 O132 2.628723 1_555
Na34 O127 2.647286 1_555
Na34 O70 2.797320 1_555
Na35 O128 2.399348 1_555
Na35 O133 2.478041 1_555
Na35 O19 2.497607 1_555
Na35 O190 2.608100 1_555
Na35 O193 2.714256 1_555
Na35 O71 2.719893 1_555
Na35 O41 2.750375 1_555
Na35 O82 2.952613 1_555
Na36 O143 2.414149 1_555
Na36 O34 2.434684 1_555
Na36 O136 2.445915 1_555
Na36 O187 2.575201 1_555
Na36 O50 2.682889 1_555
Na36 O56 2.773644 1_555
Na36 O184 2.786520 1_555
Na36 O79 2.921205 1_554
Na37 O185 2.384259 1_555
Na37 O188 2.471950 1_555
Na37 O80 2.481664 1_554
Na37 O141 2.646185 1_565
Na37 O137 2.653635 1_455
Na37 O35 2.755081 1_555
Na37 O48 2.780729 1_565
Na37 O54 2.797572 1_565
Na38 O27 2.317768 1_555
Na38 O139 2.381889 1_555
Na38 O135 2.400026 1_555
Na38 O186 2.638710 1_555
Na38 O180 2.656292 1_555
Na38 O51 2.777983 1_555
Na39 O182 2.395549 1_555
Na39 O188 2.451339 1_555
Na39 O74 2.475859 1_554
Na39 O137 2.591675 1_555
Na39 O138 2.656187 1_565
Na39 O59 2.801272 1_555
Na39 O53 2.901318 1_555
Na39 O29 2.972363 1_555
Na39 O56 2.976210 1_555
Na40 O143 2.391403 1_555
Na40 O182 2.396271 1_555
Na40 O140 2.502931 1_455
Na40 O77 2.531676 1_554
Na40 O32 2.562589 1_555
Na40 O185 2.592927 1_555
Na40 O47 2.893846 1_455
Na40 O62 2.982213 1_455
Na41 O120 2.420925 1_655
Na41 O162 2.438052 1_555
Na41 O165 2.463093 1_555
Na41 O123 2.488724 1_555
Na41 O12 2.536306 1_555
Na41 O57 2.615507 1_556
Na42 O164 2.408059 1_555
Na42 O59 2.416621 1_556
Na42 O125 2.447455 1_555
Na42 O122 2.470501 1_655
Na42 O167 2.481236 1_555
Na42 O14 2.684644 1_555
Na43 O60 2.337055 1_556
Na43 O125 2.430759 1_545
Na43 O168 2.446450 1_555
Na43 O165 2.469591 1_555
Na43 O117 2.520002 1_655
Na43 O15 2.630625 1_555
Na44 O166 2.373504 1_555
Na44 O123 2.413846 1_555
Na44 O61 2.500644 1_556
Na44 O169 2.511105 1_555
Na44 O118 2.542825 1_655
Na44 O16 2.636870 1_555
Na45 O170 2.362022 1_555
Na45 O62 2.451190 1_556
Na45 O167 2.464810 1_555
Na45 O124 2.524656 1_555
Na45 O119 2.557789 1_655
Na45 O73 2.872389 1_555
Na45 O17 2.895682 1_555
Na46 O9 2.422615 1_555
Na46 O162 2.430492 1_555
Na46 O117 2.448257 1_555
Na46 O122 2.496543 1_545
Na46 O168 2.528148 1_555
Na46 O54 2.696140 1_556
Na46 O105 2.896371 1_555
Na47 O118 2.389586 1_555
Na47 O169 2.398140 1_555
Na47 O163 2.483864 1_555
Na47 O120 2.495600 1_555
Na47 O55 2.527166 1_556
Na47 O10 2.531216 1_555
Na48 O6 2.316509 1_555
Na48 O114 2.427171 1_655
Na48 O113 2.503067 1_545
Na48 O177 2.590660 1_555
Na48 O171 2.666276 1_555
Na48 O90 2.693635 1_655
Na48 O84 2.889724 1_655
Na48 O69 2.996857 1_555
Na49 O111 2.357974 1_555
Na49 O172 2.379304 1_555
Na49 O115 2.421115 1_655
Na49 O7 2.423418 1_555
Na49 O178 2.504916 1_555
Na49 O70 2.758792 1_555
Na50 O175 2.476298 1_555
Na50 O172 2.477153 1_555
Na50 O64 2.548627 1_555
Na50 O108 2.582424 1_555
Na50 O1 2.609572 1_555
Na50 O115 2.639705 1_555
Na50 O87 2.855209 1_555
Na50 O93 2.915777 1_555
Na51 O173 2.344246 1_555
Na51 O176 2.428853 1_555
Na51 O65 2.474777 1_555
Na51 O109 2.532751 1_555
Na51 O116 2.535798 1_555
Na52 O111 2.375925 1_555
Na52 O3 2.425217 1_555
Na52 O108 2.510560 1_655
Na52 O174 2.634727 1_555
Na52 O96 2.704814 1_555
Na52 O177 2.706080 1_555
Na53 O110 2.371349 1_655
Na53 O179 2.455200 1_555
Na53 O176 2.479250 1_555
Na53 O113 2.538318 1_555
Na53 O5 2.561299 1_555
Na53 O68 2.585269 1_555
Mg0 O0 1.988632 1_565
Mg0 O5 2.062913 1_455
Mg0 O6 2.070697 1_465
Mg0 O110 2.091081 1_555
Mg0 O114 2.103541 1_565
Mg0 O113 2.177236 1_455
Mg1 O3 2.032350 1_555
Mg1 O7 2.096670 1_555
Mg1 O1 2.122569 1_655
Mg1 O111 2.148470 1_555
Mg1 O108 2.159759 1_655
Mg1 O115 2.241210 1_655
Mg2 O9 2.015286 1_555
Mg2 O14 2.023246 1_445
Mg2 O15 2.037604 1_455
Mg2 O122 2.129482 1_545
Mg2 O125 2.130540 1_445
Mg2 O117 2.212890 1_555
Mg3 O12 2.041518 1_555
Mg3 O16 2.057695 1_555
Mg3 O10 2.057779 1_655
Mg3 O123 2.160142 1_555
Mg3 O120 2.171127 1_655
Mg3 O118 2.174145 1_655
Mg4 O19 2.035084 1_455
Mg4 O128 2.040650 1_455
Mg4 O25 2.047358 1_555
Mg4 O23 2.061863 1_555
Mg4 O133 2.172961 1_455
Mg4 O131 2.187373 1_555
Mg5 O31 2.007715 1_555
Mg5 O33 2.018328 1_555
Mg5 O27 2.094910 1_455
Mg5 O142 2.103013 1_555
Mg5 O135 2.115906 1_455
Mg5 O139 2.185737 1_455
Mg6 O28 1.978080 1_555
Mg6 O34 2.060788 1_655
Mg6 O143 2.083716 1_655
Mg6 O32 2.125569 1_655
Mg6 O136 2.130967 1_655
Mg6 O140 2.131294 1_555
Mg7 O39 1.986592 1_555
Mg7 O42 2.049869 1_555
Mg7 O36 2.050743 1_555
Mg7 O147 2.113202 1_555
Mg7 O144 2.118135 1_555
Mg7 O150 2.169275 1_555
Mg8 O40 2.003295 1_555
Mg8 O43 2.082475 1_555
Mg8 O37 2.113390 1_555
Mg8 O148 2.123511 1_555
Mg8 O145 2.151294 1_555
Mg8 O151 2.238773 1_555
Mg9 O38 1.961390 1_555
Mg9 O44 2.080269 1_555
Mg9 O152 2.104877 1_555
Mg9 O41 2.145342 1_555
Mg9 O146 2.168947 1_555
Mg9 O149 2.358595 1_555
Mg10 O48 1.994395 1_555
Mg10 O45 2.063451 1_555
Mg10 O51 2.117614 1_555
Mg10 O153 2.127011 1_555
Mg10 O156 2.130023 1_555
Mg10 O159 2.154625 1_555
Mg11 O47 2.001319 1_555
Mg11 O53 2.075980 1_555
Mg11 O50 2.116267 1_555
Mg11 O155 2.140288 1_555
Mg11 O158 2.229841 1_555
Mg11 O161 2.266872 1_555
Mg12 O57 2.005635 1_556
Mg12 O60 2.086623 1_556
Mg12 O54 2.112271 1_556
Mg12 O165 2.121998 1_555
Mg12 O162 2.156901 1_555
Mg12 O168 2.242298 1_555
Mg13 O58 1.989505 1_556
Mg13 O61 2.046664 1_556
Mg13 O55 2.051457 1_556
Mg13 O166 2.112977 1_555
Mg13 O163 2.118640 1_555
Mg13 O169 2.163274 1_555
Mg14 O56 1.964720 1_556
Mg14 O62 2.088767 1_556
Mg14 O170 2.109063 1_555
Mg14 O59 2.145056 1_556
Mg14 O164 2.161139 1_555
Mg14 O167 2.352526 1_555
Mg15 O67 1.992952 1_555
Mg15 O64 2.055424 1_555
Mg15 O70 2.114806 1_555
Mg15 O175 2.123971 1_555
Mg15 O172 2.127246 1_555
Mg15 O178 2.166072 1_555
Mg16 O71 1.971696 1_555
Mg16 O65 2.117344 1_555
Mg16 O68 2.123028 1_555
Mg16 O173 2.124403 1_555
Mg16 O179 2.131671 1_555
Mg16 O176 2.374056 1_555
Mg17 O74 2.029629 1_554
Mg17 O80 2.048989 1_554
Mg17 O77 2.068561 1_554
Mg17 O182 2.086636 1_555
Mg17 O188 2.160783 1_555
Mg17 O185 2.163875 1_555
Mg18 O84 2.004163 1_555
Mg18 O87 2.018592 1_555
Mg18 O81 2.099131 1_555
Mg18 O195 2.099508 1_555
Mg18 O189 2.121761 1_555
Mg18 O192 2.187842 1_555
Mg19 O83 1.983778 1_555
Mg19 O89 2.053460 1_555
Mg19 O197 2.069629 1_555
Mg19 O86 2.100439 1_555
Mg19 O191 2.154469 1_555
Mg19 O194 2.154735 1_555
Mg20 O93 2.034647 1_555
Mg20 O96 2.091878 1_555
Mg20 O90 2.119058 1_555
Mg20 O201 2.146881 1_555
Mg20 O198 2.168214 1_555
Mg20 O204 2.243084 1_555
Mg21 O91 1.999937 1_555
Mg21 O94 2.056837 1_555
Mg21 O97 2.058937 1_555
Mg21 O205 2.083618 1_555
Mg21 O199 2.094858 1_555
Mg21 O202 2.161023 1_555
Mg22 O102 2.043880 1_555
Mg22 O99 2.057723 1_555
Mg22 O105 2.057967 1_555
Mg22 O213 2.163186 1_555
Mg22 O210 2.169916 1_555
Mg22 O207 2.174377 1_555
Mg23 O100 2.013711 1_555
Mg23 O103 2.026762 1_555
Mg23 O106 2.036909 1_555
Mg23 O214 2.124326 1_555
Mg23 O211 2.132590 1_555
Mg23 O208 2.211239 1_555
Nb0 O2 1.965107 1_655
Nb0 O4 1.965354 1_555
Nb0 O8 1.974686 1_555
Nb0 O116 2.051282 1_655
Nb0 O112 2.057550 1_555
Nb0 O109 2.061371 1_655
Nb1 O13 1.944369 1_555
Nb1 O11 1.974626 1_655
Nb1 O17 1.989243 1_555
Nb1 O121 2.033868 1_655
Nb1 O119 2.039238 1_655
Nb1 O124 2.070739 1_555
Nb2 O21 1.948310 1_555
Nb2 O126 1.994010 1_455
Nb2 O134 1.998535 1_445
Nb2 O129 2.033820 1_555
Nb2 O20 2.035089 1_445
Nb2 O26 2.070729 1_545
Nb3 O24 1.943732 1_555
Nb3 O130 1.951879 1_555
Nb3 O22 1.969648 1_555
Nb3 O18 2.023883 1_455
Nb3 O132 2.071349 1_455
Nb3 O127 2.077405 1_455
Nb4 O30 1.913964 1_655
Nb4 O138 1.992315 1_555
Nb4 O29 1.994819 1_545
Nb4 O35 2.023740 1_645
Nb4 O137 2.055329 1_545
Nb4 O141 2.075238 1_655
Nb5 O46 1.964701 1_555
Nb5 O157 1.978934 1_555
Nb5 O49 1.982463 1_555
Nb5 O52 2.012928 1_555
Nb5 O160 2.033088 1_555
Nb5 O154 2.098307 1_555
Nb6 O63 1.961839 1_555
Nb6 O174 1.976777 1_555
Nb6 O66 1.988992 1_555
Nb6 O69 2.013880 1_555
Nb6 O177 2.037381 1_555
Nb6 O171 2.091215 1_555
Nb7 O78 1.947513 1_554
Nb7 O183 1.954846 1_555
Nb7 O75 1.965003 1_554
Nb7 O72 2.021916 1_554
Nb7 O180 2.066159 1_555
Nb7 O186 2.075285 1_555
Nb8 O76 1.944351 1_554
Nb8 O181 1.996053 1_555
Nb8 O187 2.002169 1_555
Nb8 O73 2.031304 1_554
Nb8 O184 2.038163 1_555
Nb8 O79 2.066881 1_554
Nb9 O85 1.912512 1_555
Nb9 O193 1.974222 1_555
Nb9 O82 1.999379 1_555
Nb9 O196 2.045545 1_555
Nb9 O88 2.047834 1_555
Nb9 O190 2.055302 1_555
Nb10 O92 1.911893 1_555
Nb10 O95 1.962558 1_555
Nb10 O200 2.015931 1_555
Nb10 O98 2.031402 1_555
Nb10 O206 2.070719 1_555
Nb10 O203 2.117751 1_555
Nb11 O104 1.940437 1_555
Nb11 O101 1.981612 1_555
Nb11 O107 1.989878 1_555
Nb11 O212 2.028084 1_555
Nb11 O209 2.042988 1_555
Nb11 O215 2.064370 1_555
O0 P0 1.505301 1_555
O1 P1 1.546525 1_555
O2 P2 1.626993 1_555
O3 P3 1.550550 1_555
O4 P4 1.605906 1_555
O5 P5 1.510595 1_555
O6 P6 1.519808 1_555
O7 P7 1.542538 1_655
O8 P8 1.602719 1_555
O9 P9 1.525396 1_555
O10 P10 1.528256 1_555
O11 P11 1.587282 1_555
O12 P12 1.527713 1_555
O13 P13 1.616069 1_655
O14 P14 1.522819 1_655
O15 P15 1.521837 1_555
O16 P16 1.535187 1_555
O17 P17 1.614107 1_555
O18 P16 1.599942 1_555
O19 P17 1.526209 1_555
O20 P15 1.581725 1_565
O21 P9 1.618319 1_555
O22 P10 1.601484 1_555
O23 P11 1.510242 1_555
O24 P12 1.612127 1_455
O25 P13 1.525446 1_555
O26 P14 1.577566 1_555
O27 P3 1.540791 1_555
O28 P4 1.502806 1_555
O29 P5 1.596717 1_555
O30 P6 1.634710 1_455
O31 P7 1.513184 1_555
O32 P8 1.520080 1_455
O33 P1 1.512197 1_555
O34 P2 1.519709 1_555
O35 P0 1.590722 1_565
O36 P18 1.515415 1_555
O37 P19 1.532138 1_555
O38 P20 1.535764 1_555
O39 P21 1.499535 1_555
O40 P22 1.535303 1_555
O41 P23 1.541144 1_555
O42 P24 1.512344 1_555
O43 P25 1.530843 1_555
O44 P26 1.542128 1_555
O45 P27 1.526084 1_555
O46 P28 1.588865 1_555
O47 P29 1.521540 1_555
O48 P30 1.512269 1_555
O49 P31 1.597887 1_555
O50 P32 1.544670 1_555
O51 P33 1.519516 1_555
O52 P34 1.597495 1_555
O53 P35 1.550192 1_555
O54 P33 1.534473 1_555
O55 P34 1.514672 1_555
O56 P35 1.533170 1_555
O57 P27 1.535599 1_555
O58 P28 1.502127 1_555
O59 P29 1.545166 1_555
O60 P30 1.533091 1_555
O61 P31 1.512085 1_555
O62 P32 1.541648 1_555
O63 P21 1.590650 1_555
O64 P22 1.527464 1_555
O65 P23 1.535159 1_555
O66 P24 1.594332 1_555
O67 P25 1.512019 1_555
O68 P26 1.544505 1_555
O69 P18 1.595552 1_555
O70 P19 1.518583 1_555
O71 P20 1.537999 1_555
O72 P36 1.599283 1_555
O73 P37 1.583412 1_555
O74 P38 1.526721 1_555
O75 P39 1.602030 1_555
O76 P40 1.619662 1_555
O77 P41 1.512787 1_555
O78 P42 1.609057 1_555
O79 P43 1.578798 1_555
O80 P44 1.524313 1_555
O81 P45 1.539546 1_555
O82 P46 1.596474 1_555
O83 P47 1.502848 1_555
O84 P48 1.513716 1_555
O85 P49 1.634796 1_555
O86 P50 1.510897 1_555
O87 P51 1.512785 1_555
O88 P52 1.593093 1_555
O89 P53 1.515814 1_555
O90 P51 1.546197 1_555
O91 P52 1.507433 1_555
O92 P53 1.638287 1_555
O93 P45 1.549990 1_555
O94 P46 1.516233 1_555
O95 P47 1.607458 1_555
O96 P48 1.542878 1_555
O97 P49 1.519660 1_555
O98 P50 1.583211 1_555
O99 P39 1.528214 1_555
O100 P40 1.525308 1_555
O101 P41 1.583956 1_555
O102 P42 1.527523 1_555
O103 P43 1.522406 1_555
O104 P44 1.617415 1_555
O105 P36 1.534504 1_555
O106 P37 1.521813 1_555
O107 P38 1.612489 1_555
O108 P51 1.545207 1_555
O109 P52 1.597043 1_555
O110 P53 1.532550 1_555
O111 P45 1.563083 1_555
O112 P46 1.579985 1_555
O113 P47 1.528384 1_555
O114 P48 1.529578 1_555
O115 P49 1.542802 1_555
O116 P50 1.592188 1_555
O117 P39 1.546215 1_555
O118 P40 1.550172 1_555
O119 P41 1.580622 1_555
O120 P42 1.540984 1_555
O121 P43 1.589816 1_555
O122 P44 1.536094 1_555
O123 P36 1.545924 1_555
O124 P37 1.595701 1_555
O125 P38 1.550817 1_555
O126 P18 1.610505 1_555
O127 P19 1.574456 1_555
O128 P20 1.562423 1_555
O129 P21 1.608333 1_555
O130 P22 1.617931 1_555
O131 P23 1.541475 1_555
O132 P24 1.602715 1_555
O133 P25 1.548182 1_555
O134 P26 1.616388 1_555
O135 P27 1.534778 1_555
O136 P28 1.517912 1_455
O137 P29 1.616915 1_555
O138 P30 1.618932 1_555
O139 P31 1.517476 1_555
O140 P32 1.529099 1_555
O141 P33 1.588127 1_555
O142 P34 1.505495 1_555
O143 P35 1.555103 1_555
O144 P15 1.513946 1_555
O145 P16 1.545956 1_555
O146 P17 1.532435 1_555
O147 P9 1.527210 1_555
O148 P10 1.537401 1_555
O149 P11 1.533640 1_555
O150 P12 1.536772 1_555
O151 P13 1.536947 1_655
O152 P14 1.526736 1_655
O153 P3 1.560808 1_555
O154 P4 1.574521 1_555
O155 P5 1.526982 1_555
O156 P6 1.522099 1_555
O157 P7 1.617366 1_655
O158 P8 1.520615 1_555
O159 P0 1.518320 1_555
O160 P1 1.629716 1_555
O161 P2 1.548591 1_555
O162 P36 1.544526 1_555
O163 P37 1.514080 1_555
O164 P38 1.533602 1_555
O165 P39 1.537194 1_655
O166 P40 1.526520 1_655
O167 P41 1.533933 1_655
O168 P44 1.537053 1_545
O169 P42 1.537556 1_555
O170 P43 1.527714 1_555
O171 P47 1.577515 1_545
O172 P45 1.562954 1_555
O173 P46 1.521910 1_555
O174 P48 1.618742 1_555
O175 P49 1.521908 1_555
O176 P50 1.537108 1_555
O177 P51 1.626534 1_655
O178 P52 1.513494 1_655
O179 P53 1.537236 1_655
O180 P33 1.579069 1_555
O181 P34 1.610572 1_555
O182 P35 1.560415 1_555
O183 P27 1.617193 1_455
O184 P28 1.606133 1_455
O185 P29 1.543294 1_455
O186 P31 1.600210 1_555
O187 P32 1.615137 1_555
O188 P30 1.550307 1_565
O189 P22 1.533384 1_555
O190 P23 1.619371 1_555
O191 P21 1.517042 1_565
O192 P24 1.517634 1_555
O193 P25 1.621753 1_555
O194 P26 1.528663 1_555
O195 P18 1.505081 1_455
O196 P19 1.591454 1_455
O197 P20 1.554972 1_455
O198 P1 1.543703 1_555
O199 P2 1.529217 1_555
O200 P0 1.593941 1_565
O201 P3 1.563366 1_555
O202 P4 1.529599 1_555
O203 P5 1.599357 1_555
O204 P6 1.544271 1_455
O205 P7 1.531190 1_555
O206 P8 1.573132 1_455
O207 P9 1.551270 1_555
O208 P10 1.546524 1_555
O209 P11 1.578126 1_555
O210 P12 1.540441 1_455
O211 P13 1.536893 1_555
O212 P14 1.591493 1_555
O213 P16 1.544372 1_555
O214 P17 1.552005 1_555
O215 P15 1.597593 1_565
