# generated using pymatgen
data_Ce2MgV2O8
_symmetry_space_group_name_H-M   'P 1'
_cell_length_a   6.34234208
_cell_length_b   6.33911706
_cell_length_c   6.22375155
_cell_angle_alpha   106.29603464
_cell_angle_beta   106.41503530
_cell_angle_gamma   116.59955752
_symmetry_Int_Tables_number   1
_chemical_formula_structural   Ce2MgV2O8
_chemical_formula_sum   'Ce2 Mg1 V2 O8'
_cell_volume   188.90128824
_cell_formula_units_Z   1
loop_
 _symmetry_equiv_pos_site_id
 _symmetry_equiv_pos_as_xyz
  1  'x, y, z'
loop_
 _atom_site_type_symbol
 _atom_site_label
 _atom_site_symmetry_multiplicity
 _atom_site_fract_x
 _atom_site_fract_y
 _atom_site_fract_z
 _atom_site_occupancy
  Ce  Ce0  1  0.84609200  0.09518600  0.19078100  1
  Ce  Ce1  1  0.12594500  0.87428100  0.75429000  1
  Mg  Mg0  1  0.13957000  0.38876400  0.78031600  1
  V  V0  1  0.61995300  0.37003400  0.74141300  1
  V  V1  1  0.40225400  0.65203100  0.30388800  1
  O  O0  1  0.24490400  0.20885000  0.57065800  1
  O  O1  1  0.18797600  0.28381700  0.05337000  1
  O  O2  1  0.19837300  0.62865200  0.45211800  1
  O  O3  1  0.60438400  0.17371300  0.92397600  1
  O  O4  1  0.75533700  0.82589800  0.45303700  1
  O  O5  1  0.81873800  0.75039800  0.92309900  1
  O  O6  1  0.82791600  0.36555100  0.57192900  1
  O  O7  1  0.36397700  0.76824300  0.05195800  1
loop_
_geom_bond_atom_site_label_1
_geom_bond_atom_site_label_2
_geom_bond_distance
_geom_bond_site_symmetry_2
Ce0 O5 2.244166 1_544
Ce0 O3 2.250278 1_554
Ce0 O1 2.482547 1_655
Ce0 O7 2.493696 1_545
Ce0 O0 2.557103 1_655
Ce0 O6 2.574435 1_555
Ce0 O4 2.669121 1_545
Ce0 O2 2.677047 1_655
Ce1 O2 2.378598 1_555
Ce1 O4 2.382280 1_455
Ce1 O5 2.401376 1_455
Ce1 O3 2.414933 1_565
Ce1 O7 2.487973 1_556
Ce1 O1 2.513732 1_566
Ce1 O6 2.556495 1_455
Ce1 O0 2.605419 1_565
Mg0 O0 1.946670 1_555
Mg0 O6 1.947891 1_455
Mg0 O1 1.986799 1_556
Mg0 O7 1.990564 1_556
O0 V0 1.901828 1_555
O1 V1 1.909325 1_555
O2 V1 1.767615 1_555
O3 V0 1.896436 1_555
O4 V1 1.769733 1_555
O5 V0 1.903629 1_555
O6 V0 1.912128 1_555
O7 V1 1.911374 1_555
