# generated using pymatgen
data_Ca2Bi10O17
_symmetry_space_group_name_H-M   'P 1'
_cell_length_a   7.90178530
_cell_length_b   7.90178530
_cell_length_c   9.78055555
_cell_angle_alpha   78.89132448
_cell_angle_beta   78.89132448
_cell_angle_gamma   59.29751852
_symmetry_Int_Tables_number   1
_chemical_formula_structural   Ca2Bi10O17
_chemical_formula_sum   'Ca2 Bi10 O17'
_cell_volume   512.01516663
_cell_formula_units_Z   1
loop_
 _symmetry_equiv_pos_site_id
 _symmetry_equiv_pos_as_xyz
  1  'x, y, z'
loop_
 _atom_site_type_symbol
 _atom_site_label
 _atom_site_symmetry_multiplicity
 _atom_site_fract_x
 _atom_site_fract_y
 _atom_site_fract_z
 _atom_site_occupancy
  Ca  Ca0  1  0.00743901  0.00743901  0.98888759  1
  Ca  Ca1  1  0.51018026  0.51018026  0.97737990  1
  Bi  Bi0  1  0.88999280  0.88999280  0.68159828  1
  Bi  Bi1  1  0.38438730  0.38438730  0.67607949  1
  Bi  Bi2  1  0.61951759  0.13099086  0.31068866  1
  Bi  Bi3  1  0.13099086  0.61951759  0.31068866  1
  Bi  Bi4  1  0.00458780  0.50171528  0.98557060  1
  Bi  Bi5  1  0.50171528  0.00458780  0.98557060  1
  Bi  Bi6  1  0.91112635  0.37914991  0.67723524  1
  Bi  Bi7  1  0.37914991  0.91112635  0.67723524  1
  Bi  Bi8  1  0.62366245  0.62366245  0.32624341  1
  Bi  Bi9  1  0.12216083  0.12216083  0.32724771  1
  O  O0  1  0.84745157  0.84745157  0.90370869  1
  O  O1  1  0.33660295  0.33660295  0.89835510  1
  O  O2  1  0.28937522  0.28937522  0.28797651  1
  O  O3  1  0.04345357  0.56891801  0.73156566  1
  O  O4  1  0.56891801  0.04345357  0.73156566  1
  O  O5  1  0.67315678  0.17466484  0.09829163  1
  O  O6  1  0.17466484  0.67315678  0.09829163  1
  O  O7  1  0.23003662  0.23003662  0.62403981  1
  O  O8  1  0.79557971  0.79557971  0.31724424  1
  O  O9  1  0.87816973  0.35770846  0.89522109  1
  O  O10  1  0.35770846  0.87816973  0.89522109  1
  O  O11  1  0.53775824  0.53775824  0.73052691  1
  O  O12  1  0.64456272  0.64456272  0.11006733  1
  O  O13  1  0.14006914  0.14006914  0.11327881  1
  O  O14  1  0.03827759  0.03827759  0.72543135  1
  O  O15  1  0.28882183  0.78178157  0.34903755  1
  O  O16  1  0.78178157  0.28882183  0.34903755  1
loop_
_geom_bond_atom_site_label_1
_geom_bond_atom_site_label_2
_geom_bond_distance
_geom_bond_site_symmetry_2
Ca0 O6 2.399932 1_546
Ca0 O5 2.399932 1_456
Ca0 O13 2.404380 1_556
Ca0 O9 2.457572 1_455
Ca0 O10 2.457572 1_545
Ca0 O0 2.516753 1_445
Ca0 O14 2.516966 1_555
Ca1 O11 2.359475 1_555
Ca1 O5 2.444981 1_556
Ca1 O6 2.444981 1_556
Ca1 O12 2.480466 1_556
Ca1 O9 2.539225 1_555
Ca1 O10 2.539225 1_555
Ca1 O1 2.664171 1_555
Bi0 O0 2.120793 1_555
Bi0 O14 2.172263 1_665
Bi0 O4 2.180588 1_565
Bi0 O3 2.180588 1_655
Bi1 O1 2.127037 1_555
Bi1 O11 2.284332 1_555
Bi1 O7 2.287261 1_555
Bi1 O3 2.325610 1_555
Bi1 O4 2.325610 1_555
Bi2 O5 2.036663 1_555
Bi2 O8 2.273234 1_545
Bi2 O2 2.281067 1_555
Bi2 O16 2.310517 1_555
Bi3 O6 2.036663 1_555
Bi3 O8 2.273234 1_455
Bi3 O2 2.281067 1_555
Bi3 O15 2.310517 1_555
Bi4 O9 2.227541 1_455
Bi4 O1 2.320316 1_555
Bi4 O0 2.392181 1_455
Bi4 O3 2.431518 1_555
Bi4 O12 2.601075 1_456
Bi4 O13 2.624546 1_556
Bi4 O6 2.803980 1_556
Bi5 O10 2.227541 1_545
Bi5 O1 2.320316 1_555
Bi5 O0 2.392181 1_545
Bi5 O4 2.431518 1_555
Bi5 O12 2.601075 1_546
Bi5 O13 2.624546 1_556
Bi5 O5 2.803980 1_556
Bi6 O9 2.081816 1_555
Bi6 O7 2.169839 1_655
Bi6 O14 2.327310 1_655
Bi6 O3 2.397176 1_655
Bi6 O11 2.535725 1_555
Bi7 O10 2.081816 1_555
Bi7 O7 2.169839 1_565
Bi7 O14 2.327310 1_565
Bi7 O4 2.397176 1_565
Bi7 O11 2.535725 1_555
Bi8 O12 2.069699 1_555
Bi8 O15 2.261755 1_555
Bi8 O16 2.261755 1_555
Bi8 O8 2.343253 1_555
Bi9 O13 2.052269 1_555
Bi9 O2 2.242942 1_555
Bi9 O15 2.298694 1_545
Bi9 O16 2.298694 1_455
