# generated using pymatgen
data_Na18Ca8Nb16Si21(S5O48)3
_symmetry_space_group_name_H-M   'P 1'
_cell_length_a   18.16268171
_cell_length_b   9.13461701
_cell_length_c   23.05235013
_cell_angle_alpha   89.79049091
_cell_angle_beta   90.95863835
_cell_angle_gamma   120.28428737
_symmetry_Int_Tables_number   1
_chemical_formula_structural   Na18Ca8Nb16Si21(S5O48)3
_chemical_formula_sum   'Na18 Ca8 Nb16 Si21 S15 O144'
_cell_volume   3302.15500535
_cell_formula_units_Z   1
loop_
 _symmetry_equiv_pos_site_id
 _symmetry_equiv_pos_as_xyz
  1  'x, y, z'
loop_
 _atom_site_type_symbol
 _atom_site_label
 _atom_site_symmetry_multiplicity
 _atom_site_fract_x
 _atom_site_fract_y
 _atom_site_fract_z
 _atom_site_occupancy
  Na  Na0  1  0.32397240  0.01590743  0.23722391  1
  Na  Na1  1  0.82038623  0.00989606  0.23858361  1
  Na  Na2  1  0.99596988  0.63866835  0.23906920  1
  Na  Na3  1  0.33223341  0.63343747  0.74331562  1
  Na  Na4  1  0.82054959  0.62559586  0.73973943  1
  Na  Na5  1  0.49320796  0.35040130  0.73786177  1
  Na  Na6  1  0.98763573  0.97667781  0.49186668  1
  Na  Na7  1  0.48802688  0.98377086  0.49512063  1
  Na  Na8  1  0.98837185  0.99436980  0.98928917  1
  Na  Na9  1  0.48951613  0.99897133  0.98995668  1
  Na  Na10  1  0.32548813  0.33903992  0.82280393  1
  Na  Na11  1  0.81775331  0.31272351  0.82688674  1
  Na  Na12  1  0.32159093  0.32509321  0.32988749  1
  Na  Na13  1  0.80693056  0.30250442  0.33310132  1
  Na  Na14  1  0.16782524  0.67134779  0.16010782  1
  Na  Na15  1  0.65263236  0.66142992  0.16241213  1
  Na  Na16  1  0.15757329  0.64844140  0.66511156  1
  Na  Na17  1  0.66149694  0.66265402  0.66446203  1
  Ca  Ca0  1  0.99981419  0.99979928  0.36066640  1
  Ca  Ca1  1  0.50081080  0.99722257  0.36073470  1
  Ca  Ca2  1  -0.00004023  0.00222266  0.86009601  1
  Ca  Ca3  1  0.49841868  0.99512064  0.85902971  1
  Ca  Ca4  1  0.33435898  0.34117071  0.67762709  1
  Ca  Ca5  1  0.83449952  0.33548079  0.67944560  1
  Ca  Ca6  1  0.33479362  0.33385796  0.17953400  1
  Ca  Ca7  1  0.82976276  0.32515353  0.17710985  1
  Nb  Nb0  1  0.00168344  0.01314007  0.64303371  1
  Nb  Nb1  1  0.50461158  0.99764818  0.64588925  1
  Nb  Nb2  1  0.00316514  0.99234893  0.14090170  1
  Nb  Nb3  1  0.50257904  0.99078806  0.14220893  1
  Nb  Nb4  1  0.34625474  0.34551549  0.97858743  1
  Nb  Nb5  1  0.84467687  0.34447723  0.97964494  1
  Nb  Nb6  1  0.34623147  0.34480258  0.48214610  1
  Nb  Nb7  1  0.84478719  0.34376848  0.48015266  1
  Nb  Nb8  1  0.16898745  0.66826903  0.01964745  1
  Nb  Nb9  1  0.66982510  0.66885937  0.01893833  1
  Nb  Nb10  1  0.16946892  0.67343861  0.52058859  1
  Nb  Nb11  1  0.66909056  0.67062085  0.52101663  1
  Nb  Nb12  1  0.16420634  0.68295714  0.31669784  1
  Nb  Nb13  1  0.65866288  0.68017253  0.31599136  1
  Nb  Nb14  1  0.16158408  0.64002160  0.81460241  1
  Nb  Nb15  1  0.65988968  0.64404448  0.81262625  1
  Si  Si0  1  0.14832769  0.00657144  0.25321427  1
  Si  Si1  1  0.64759042  0.00639203  0.25339027  1
  Si  Si2  1  0.14642367  0.28719088  0.75333781  1
  Si  Si3  1  0.64834541  0.28712672  0.75341590  1
  Si  Si4  1  0.50257290  0.70934672  0.75312892  1
  Si  Si5  1  0.48822477  0.33050497  0.58683364  1
  Si  Si6  1  0.98613225  0.34122975  0.58451469  1
  Si  Si7  1  0.33660007  0.63444119  0.58479647  1
  Si  Si8  1  0.83608466  0.63064916  0.58560550  1
  Si  Si9  1  0.48623002  0.62934511  0.08406162  1
  Si  Si10  1  0.98618268  0.62901352  0.08673567  1
  Si  Si11  1  0.33489521  0.04031794  0.08587128  1
  Si  Si12  1  0.83487948  0.03780103  0.08536028  1
  Si  Si13  1  0.30860194  0.65051532  0.92028077  1
  Si  Si14  1  0.80855454  0.65193524  0.91839954  1
  Si  Si15  1  0.02070140  0.37730713  0.91985836  1
  Si  Si16  1  0.52183344  0.37707932  0.91845031  1
  Si  Si17  1  0.31011288  0.97240325  0.42085341  1
  Si  Si18  1  0.80787337  0.96748315  0.41977146  1
  Si  Si19  1  0.01967650  0.66265346  0.41924073  1
  Si  Si20  1  0.51949771  0.66476024  0.42107241  1
  S  S0  1  0.35132439  0.71372862  0.24892146  1
  S  S1  1  0.85180202  0.71316826  0.24748533  1
  S  S2  1  0.00647950  0.29834744  0.24932938  1
  S  S3  1  0.50723627  0.29723020  0.25016524  1
  S  S4  1  0.00702742  0.71726752  0.75029438  1
  S  S5  1  0.34924261  0.98625123  0.74845749  1
  S  S6  1  0.85307815  0.99003623  0.74778939  1
  S  S7  1  0.18110958  0.03307437  0.58138421  1
  S  S8  1  0.68325070  0.03442855  0.58054449  1
  S  S9  1  0.18164386  0.33125315  0.08207735  1
  S  S10  1  0.68040415  0.33033218  0.08121547  1
  S  S11  1  0.17477649  0.95680273  0.91813480  1
  S  S12  1  0.67540649  0.95892690  0.91910797  1
  S  S13  1  0.17442333  0.39476001  0.41819686  1
  S  S14  1  0.67418415  0.39458228  0.41820661  1
  O  O0  1  0.09492146  0.99725019  0.30709085  1
  O  O1  1  0.60182726  0.01192631  0.30943290  1
  O  O2  1  0.39806826  0.79272224  0.30141619  1
  O  O3  1  0.90076104  0.79427382  0.30011330  1
  O  O4  1  0.49446006  0.19601657  0.30213681  1
  O  O5  1  0.99288691  0.19680197  0.30130607  1
  O  O6  1  0.09931813  0.19016050  0.80915777  1
  O  O7  1  0.59894019  0.19551839  0.80941004  1
  O  O8  1  0.47332417  0.78284428  0.80385175  1
  O  O9  1  0.99432624  0.79243144  0.80214388  1
  O  O10  1  0.39799510  0.01437493  0.80196968  1
  O  O11  1  0.90001570  0.00485048  0.80052875  1
  O  O12  1  0.39385215  0.96273064  0.69683951  1
  O  O13  1  0.90014579  0.97553762  0.69462855  1
  O  O14  1  0.08537105  0.18481964  0.69312561  1
  O  O15  1  0.58747702  0.19023480  0.69308109  1
  O  O16  1  0.01395502  0.81948609  0.69709736  1
  O  O17  1  0.51130551  0.83095061  0.69304875  1
  O  O18  1  0.39636801  0.82274983  0.19571941  1
  O  O19  1  0.89771900  0.82356122  0.19471931  1
  O  O20  1  0.01215148  0.21061088  0.19632107  1
  O  O21  1  0.51455824  0.21044592  0.19717685  1
  O  O22  1  0.08658549  0.98339399  0.19264533  1
  O  O23  1  0.58716318  0.98839706  0.19310625  1
  O  O24  1  0.45835484  0.37113506  0.64545405  1
  O  O25  1  0.95386548  0.38213065  0.64122846  1
  O  O26  1  0.22923845  0.09333553  0.63559950  1
  O  O27  1  0.73074002  0.09520995  0.63505383  1
  O  O28  1  0.31112226  0.54300914  0.64565119  1
  O  O29  1  0.81211051  0.53993770  0.64665083  1
  O  O30  1  0.45383316  0.52629002  0.14168183  1
  O  O31  1  0.95636907  0.54114849  0.14784426  1
  O  O32  1  0.31067143  0.08265847  0.14685888  1
  O  O33  1  0.81359327  0.08267058  0.14693121  1
  O  O34  1  0.22884537  0.36329365  0.13672705  1
  O  O35  1  0.72803268  0.36536484  0.13589396  1
  O  O36  1  0.22150734  0.30380007  0.03205845  1
  O  O37  1  0.72195337  0.30355838  0.03179144  1
  O  O38  1  0.41958365  0.53212884  0.02714036  1
  O  O39  1  0.91723928  0.52354564  0.03224224  1
  O  O40  1  0.34605956  0.17672309  0.03290258  1
  O  O41  1  0.84563633  0.17409405  0.03278904  1
  O  O42  1  0.22321305  0.14162356  0.53114504  1
  O  O43  1  0.72722297  0.14205478  0.53041208  1
  O  O44  1  0.34542880  0.51598094  0.53172740  1
  O  O45  1  0.84666568  0.51543377  0.53214247  1
  O  O46  1  0.41829436  0.30740009  0.53117082  1
  O  O47  1  0.91946181  0.30593004  0.52702824  1
  O  O48  1  0.24909506  0.65368926  0.97277041  1
  O  O49  1  0.75188664  0.65979808  0.97203330  1
  O  O50  1  0.07609345  0.50195725  0.97338801  1
  O  O51  1  0.57844393  0.50617263  0.97083321  1
  O  O52  1  0.17199227  0.85975396  0.97163598  1
  O  O53  1  0.67373119  0.86385210  0.97254107  1
  O  O54  1  0.25166221  0.84710548  0.47234599  1
  O  O55  1  0.75127398  0.84439360  0.47227900  1
  O  O56  1  0.17164829  0.48536279  0.47046537  1
  O  O57  1  0.67201497  0.48490793  0.47087905  1
  O  O58  1  0.07783649  0.65155510  0.47099782  1
  O  O59  1  0.57783426  0.65282307  0.47249634  1
  O  O60  1  0.06623501  0.64253765  0.35751605  1
  O  O61  1  0.56524259  0.64387014  0.35930595  1
  O  O62  1  0.24998727  0.86579883  0.35919113  1
  O  O63  1  0.74879357  0.86171331  0.35848146  1
  O  O64  1  0.18050769  0.49730988  0.36434283  1
  O  O65  1  0.68060271  0.49538834  0.36461404  1
  O  O66  1  0.06726312  0.49105102  0.85953418  1
  O  O67  1  0.56564553  0.48658133  0.85684359  1
  O  O68  1  0.18128692  0.87015107  0.86534897  1
  O  O69  1  0.68258755  0.87381346  0.86649302  1
  O  O70  1  0.24990188  0.63711117  0.85929308  1
  O  O71  1  0.75214813  0.64185037  0.85808086  1
  O  O72  1  0.01116357  0.82478832  0.42377744  1
  O  O73  1  0.51085940  0.82630251  0.42591977  1
  O  O74  1  0.40208596  0.99685497  0.41947465  1
  O  O75  1  0.90053633  0.99372827  0.41913786  1
  O  O76  1  0.09736361  0.22933570  0.41660770  1
  O  O77  1  0.59735093  0.22812360  0.41743913  1
  O  O78  1  0.01154219  0.19793393  0.92484349  1
  O  O79  1  0.51235694  0.19807484  0.92480450  1
  O  O80  1  0.09782671  0.96896540  0.91825302  1
  O  O81  1  0.59932862  0.97345283  0.91953780  1
  O  O82  1  0.39967163  0.81235734  0.92329086  1
  O  O83  1  0.90218803  0.80856105  0.92072363  1
  O  O84  1  0.49165965  0.15443520  0.58943664  1
  O  O85  1  0.98948391  0.16050826  0.59045996  1
  O  O86  1  0.09421003  0.01538937  0.58616772  1
  O  O87  1  0.59724900  0.01955400  0.58384587  1
  O  O88  1  0.42523023  0.82052911  0.58918724  1
  O  O89  1  0.92505588  0.81930931  0.59205492  1
  O  O90  1  0.49016873  0.81845674  0.09110339  1
  O  O91  1  0.99031434  0.81870556  0.09028794  1
  O  O92  1  0.42397290  0.02960727  0.09418487  1
  O  O93  1  0.92469986  0.02868938  0.09279190  1
  O  O94  1  0.09357227  0.17417473  0.08773952  1
  O  O95  1  0.59307362  0.17318255  0.08672795  1
  O  O96  1  0.33501859  0.12841546  0.73865522  1
  O  O97  1  0.83792693  0.13160090  0.74093667  1
  O  O98  1  0.24402684  0.34078802  0.74738202  1
  O  O99  1  0.74603992  0.33595588  0.74942726  1
  O  O100  1  0.43168148  0.51180354  0.74472983  1
  O  O101  1  0.93480097  0.54283403  0.74449959  1
  O  O102  1  0.33527897  0.54055135  0.24212528  1
  O  O103  1  0.84296454  0.54543396  0.24102625  1
  O  O104  1  0.43504672  0.32727564  0.24438555  1
  O  O105  1  0.93506232  0.33274071  0.24408963  1
  O  O106  1  0.24630505  0.15099958  0.25031792  1
  O  O107  1  0.74616165  0.15109652  0.24863698  1
  O  O108  1  0.30678278  0.46770907  0.92801288  1
  O  O109  1  0.80754206  0.46918201  0.92916460  1
  O  O110  1  0.42659063  0.36700861  0.92313270  1
  O  O111  1  0.92618063  0.36892387  0.92399031  1
  O  O112  1  0.25305953  0.12726903  0.92218286  1
  O  O113  1  0.75453066  0.13048566  0.92296786  1
  O  O114  1  0.30647304  0.14863328  0.42751264  1
  O  O115  1  0.80543456  0.14612124  0.42607023  1
  O  O116  1  0.25294290  0.38261435  0.42029004  1
  O  O117  1  0.75295142  0.38170420  0.42085006  1
  O  O118  1  0.42542961  0.48401617  0.42411736  1
  O  O119  1  0.92486899  0.48305230  0.42232217  1
  O  O120  1  0.16429130  0.47508505  0.07444785  1
  O  O121  1  0.66324451  0.47384830  0.07260279  1
  O  O122  1  0.08233290  0.66964041  0.07279274  1
  O  O123  1  0.58343364  0.67495103  0.07031989  1
  O  O124  1  0.25913135  0.84634264  0.06750182  1
  O  O125  1  0.75972622  0.84478896  0.06761419  1
  O  O126  1  0.16389973  0.85377844  0.57292183  1
  O  O127  1  0.66652673  0.85523895  0.57299008  1
  O  O128  1  0.25930126  0.67101960  0.56483655  1
  O  O129  1  0.75987372  0.66980361  0.56605288  1
  O  O130  1  0.08312559  0.49115296  0.56981193  1
  O  O131  1  0.58294212  0.49128015  0.57053993  1
  O  O132  1  0.14864582  0.81165736  0.25556116  1
  O  O133  1  0.65065365  0.81577163  0.25598404  1
  O  O134  1  0.26607852  0.71051161  0.24940214  1
  O  O135  1  0.76664535  0.70339322  0.24841240  1
  O  O136  1  0.08872659  0.46922126  0.25371322  1
  O  O137  1  0.59014941  0.46776859  0.25501973  1
  O  O138  1  0.14812095  0.48277482  0.75678715  1
  O  O139  1  0.65028079  0.48373803  0.75450603  1
  O  O140  1  0.09002581  0.71398662  0.75499834  1
  O  O141  1  0.59782509  0.71780591  0.76096614  1
  O  O142  1  0.26422969  0.82071775  0.75163318  1
  O  O143  1  0.76985644  0.82270441  0.74683686  1
loop_
_geom_bond_atom_site_label_1
_geom_bond_atom_site_label_2
_geom_bond_distance
_geom_bond_site_symmetry_2
Na0 O32 2.211788 1_555
Na0 O106 2.318728 1_555
Na0 O134 2.452014 1_545
Na0 O104 2.528222 1_555
Na0 O132 2.801270 1_545
Na0 O18 2.855161 1_545
Na1 O33 2.232667 1_555
Na1 O107 2.302417 1_555
Na1 O135 2.467664 1_545
Na1 O105 2.617258 1_555
Na1 O133 2.707703 1_545
Na1 O19 2.892019 1_545
Na2 O31 2.247250 1_555
Na2 O132 2.425021 1_655
Na2 O105 2.435268 1_555
Na2 O103 2.463124 1_555
Na2 O136 2.820493 1_655
Na3 O98 2.324941 1_555
Na3 O28 2.358684 1_555
Na3 O100 2.553418 1_555
Na3 O142 2.574947 1_555
Na3 O8 2.596879 1_555
Na3 O12 2.840689 1_555
Na3 O138 2.926203 1_555
Na4 O29 2.262957 1_555
Na4 O99 2.296924 1_555
Na4 O143 2.407392 1_555
Na4 O101 2.542376 1_555
Na4 O139 2.710914 1_555
Na5 O24 2.246610 1_555
Na5 O100 2.262050 1_555
Na5 O139 2.496350 1_555
Na5 O96 2.548046 1_555
Na6 O72 2.282036 1_655
Na6 O75 2.344266 1_555
Na6 O89 2.666100 1_555
Na6 O76 2.784891 1_665
Na6 O86 2.787833 1_665
Na6 O85 2.820473 1_565
Na7 O73 2.329453 1_555
Na7 O74 2.363727 1_555
Na7 O88 2.563274 1_555
Na7 O84 2.660471 1_565
Na7 O87 2.727757 1_565
Na7 O77 2.784105 1_565
Na8 O78 2.247958 1_665
Na8 O83 2.255339 1_555
Na8 O80 2.695282 1_655
Na8 O93 2.755363 1_566
Na8 O91 2.832646 1_556
Na8 O94 2.866382 1_666
Na9 O79 2.230589 1_565
Na9 O82 2.249470 1_555
Na9 O81 2.692119 1_555
Na9 O92 2.775803 1_566
Na9 O95 2.813066 1_566
Na9 O90 2.854202 1_556
Na10 O98 2.269317 1_555
Na10 O100 2.544657 1_555
Na10 O108 2.798242 1_555
Na10 O96 2.805171 1_555
Na10 O110 2.859265 1_555
Na10 O112 2.867535 1_555
Na11 O99 2.264554 1_555
Na11 O113 2.669397 1_555
Na11 O97 2.730753 1_555
Na11 O109 2.818253 1_555
Na11 O111 2.827325 1_555
Na11 O101 2.853723 1_555
Na12 O106 2.346804 1_555
Na12 O116 2.632374 1_555
Na12 O114 2.699269 1_555
Na12 O118 2.739985 1_555
Na12 O102 2.742733 1_555
Na12 O104 2.868071 1_555
Na13 O107 2.308771 1_555
Na13 O117 2.523649 1_555
Na13 O115 2.564150 1_555
Na13 O119 2.802316 1_555
Na13 O103 2.899148 1_555
Na13 O105 3.034796 1_555
Na14 O122 2.516743 1_555
Na14 O134 2.605445 1_555
Na14 O120 2.650110 1_555
Na14 O132 2.665047 1_555
Na14 O124 2.698622 1_555
Na14 O136 2.743800 1_555
Na15 O123 2.483372 1_555
Na15 O133 2.591870 1_555
Na15 O137 2.646402 1_555
Na15 O135 2.726356 1_555
Na15 O121 2.762570 1_555
Na15 O125 2.862519 1_555
Na16 O138 2.551954 1_555
Na16 O130 2.585191 1_555
Na16 O140 2.644280 1_555
Na16 O142 2.650707 1_555
Na16 O126 2.794537 1_555
Na16 O128 2.924863 1_555
Na17 O143 2.570992 1_555
Na17 O139 2.583547 1_555
Na17 O131 2.615867 1_555
Na17 O141 2.687402 1_555
Na17 O127 2.714166 1_555
Na17 O129 2.891384 1_555
Ca0 O0 2.149874 1_655
Ca0 O72 2.240566 1_655
Ca0 O75 2.247489 1_555
Ca0 O3 2.288748 1_555
Ca0 O5 2.308957 1_565
Ca0 O76 2.322704 1_665
Ca1 O1 2.146108 1_565
Ca1 O73 2.233833 1_555
Ca1 O74 2.263616 1_555
Ca1 O2 2.293284 1_555
Ca1 O4 2.307301 1_565
Ca1 O77 2.333519 1_565
Ca2 O6 2.124666 1_555
Ca2 O78 2.257829 1_555
Ca2 O83 2.265567 1_445
Ca2 O11 2.267510 1_455
Ca2 O9 2.298699 1_445
Ca2 O80 2.347586 1_545
Ca3 O7 2.162504 1_565
Ca3 O8 2.166311 1_555
Ca3 O82 2.291109 1_555
Ca3 O10 2.308580 1_565
Ca3 O79 2.309649 1_565
Ca3 O81 2.371126 1_555
Ca4 O28 2.210251 1_555
Ca4 O100 2.257021 1_555
Ca4 O24 2.264865 1_555
Ca4 O26 2.302998 1_555
Ca4 O98 2.315165 1_555
Ca4 O96 2.399838 1_555
Ca5 O25 2.188007 1_555
Ca5 O29 2.229422 1_555
Ca5 O27 2.279481 1_555
Ca5 O99 2.297335 1_555
Ca5 O97 2.361417 1_555
Ca5 O101 2.367377 1_555
Ca6 O30 2.178216 1_555
Ca6 O32 2.238796 1_555
Ca6 O34 2.281534 1_555
Ca6 O106 2.322905 1_555
Ca6 O104 2.360680 1_555
Ca6 O102 2.376861 1_555
Ca7 O33 2.196533 1_555
Ca7 O35 2.252738 1_555
Ca7 O31 2.258755 1_555
Ca7 O107 2.276395 1_555
Ca7 O103 2.408437 1_555
Ca7 O105 2.411409 1_555
Nb0 O85 1.899989 1_455
Nb0 O14 1.911411 1_555
Nb0 O89 1.981943 1_445
Nb0 O13 2.089304 1_445
Nb0 O86 2.140501 1_555
Nb0 O16 2.259285 1_545
Nb1 O17 1.919769 1_555
Nb1 O15 1.957619 1_565
Nb1 O88 2.001158 1_555
Nb1 O84 2.028789 1_565
Nb1 O87 2.157651 1_565
Nb1 O12 2.226499 1_555
Nb2 O91 1.887530 1_455
Nb2 O22 1.946522 1_555
Nb2 O93 1.947501 1_465
Nb2 O94 2.063627 1_565
Nb2 O19 2.161384 1_455
Nb2 O20 2.305907 1_565
Nb3 O90 1.887745 1_555
Nb3 O23 1.926291 1_555
Nb3 O92 1.960741 1_565
Nb3 O95 2.099039 1_565
Nb3 O18 2.162957 1_555
Nb3 O21 2.290862 1_565
Nb4 O110 1.890350 1_555
Nb4 O38 1.899113 1_556
Nb4 O108 1.971975 1_555
Nb4 O40 1.981307 1_556
Nb4 O112 2.252130 1_555
Nb4 O36 2.453045 1_556
Nb5 O111 1.901392 1_555
Nb5 O39 1.915574 1_556
Nb5 O109 1.961031 1_555
Nb5 O41 1.983985 1_556
Nb5 O113 2.219891 1_555
Nb5 O37 2.408156 1_556
Nb6 O46 1.872361 1_555
Nb6 O118 1.919044 1_555
Nb6 O44 1.946330 1_555
Nb6 O114 1.999904 1_555
Nb6 O116 2.351439 1_555
Nb6 O42 2.366310 1_555
Nb7 O47 1.883537 1_555
Nb7 O119 1.922912 1_555
Nb7 O45 1.963385 1_555
Nb7 O115 2.002478 1_555
Nb7 O117 2.296588 1_555
Nb7 O43 2.322897 1_555
Nb8 O48 1.884549 1_554
Nb8 O50 1.912655 1_554
Nb8 O124 1.951951 1_555
Nb8 O122 2.015613 1_555
Nb8 O52 2.044264 1_554
Nb8 O120 2.133699 1_555
Nb9 O49 1.891155 1_554
Nb9 O51 1.911983 1_554
Nb9 O125 1.952737 1_555
Nb9 O123 2.004711 1_555
Nb9 O53 2.045184 1_554
Nb9 O121 2.119431 1_555
Nb10 O54 1.906851 1_555
Nb10 O128 1.919256 1_555
Nb10 O58 1.928512 1_555
Nb10 O130 1.982813 1_555
Nb10 O126 2.089506 1_555
Nb10 O56 2.091127 1_555
Nb11 O55 1.913996 1_555
Nb11 O59 1.921505 1_555
Nb11 O129 1.936939 1_555
Nb11 O131 1.973854 1_555
Nb11 O57 2.079368 1_555
Nb11 O127 2.092243 1_555
Nb12 O62 1.874268 1_555
Nb12 O60 1.891802 1_555
Nb12 O132 1.938527 1_555
Nb12 O64 2.156775 1_555
Nb12 O136 2.248107 1_555
Nb12 O134 2.348818 1_555
Nb13 O61 1.863533 1_555
Nb13 O63 1.899860 1_555
Nb13 O133 1.905628 1_555
Nb13 O137 2.194272 1_555
Nb13 O65 2.216723 1_555
Nb13 O135 2.449214 1_555
Nb14 O138 1.883653 1_555
Nb14 O66 1.886065 1_555
Nb14 O70 1.903335 1_555
Nb14 O140 2.202889 1_555
Nb14 O68 2.271745 1_555
Nb14 O142 2.297094 1_555
Nb15 O67 1.897985 1_555
Nb15 O139 1.928367 1_555
Nb15 O141 1.964221 1_555
Nb15 O71 1.970068 1_555
Nb15 O69 2.290488 1_555
Nb15 O143 2.397575 1_555
O0 Si0 1.564259 1_565
O1 Si1 1.562450 1_555
O2 S0 1.435273 1_555
O3 S1 1.455157 1_555
O4 S3 1.459047 1_555
O5 S2 1.458700 1_655
O6 Si2 1.561108 1_555
O7 Si3 1.563690 1_555
O8 Si4 1.576836 1_555
O9 S4 1.458846 1_655
O10 S5 1.451939 1_545
O11 S6 1.439911 1_545
O12 S5 1.525855 1_555
O13 S6 1.549384 1_555
O14 Si2 1.715475 1_555
O15 Si3 1.706084 1_555
O16 S4 1.506594 1_555
O17 Si4 1.730793 1_555
O18 S0 1.538868 1_555
O19 S1 1.539071 1_555
O20 S2 1.496919 1_555
O21 S3 1.502348 1_555
O22 Si0 1.721108 1_565
O23 Si1 1.712158 1_565
O24 Si5 1.577803 1_555
O25 Si6 1.562801 1_555
O26 S7 1.453368 1_555
O27 S8 1.455000 1_555
O28 Si7 1.582091 1_555
O29 Si8 1.582592 1_555
O30 Si9 1.566869 1_555
O31 Si10 1.581375 1_555
O32 Si11 1.586201 1_555
O33 Si12 1.585706 1_555
O34 S9 1.456444 1_555
O35 S10 1.458348 1_555
O36 S9 1.459387 1_555
O37 S10 1.464361 1_555
O38 Si9 1.687261 1_555
O39 Si10 1.677403 1_555
O40 Si11 1.681356 1_555
O41 Si12 1.675828 1_555
O42 S7 1.471635 1_555
O43 S8 1.473301 1_555
O44 Si7 1.698384 1_555
O45 Si8 1.698504 1_555
O46 Si5 1.726655 1_555
O47 Si6 1.697662 1_555
O48 Si13 1.645820 1_555
O49 Si14 1.646490 1_555
O50 Si15 1.626264 1_555
O51 Si16 1.628470 1_555
O52 S11 1.502804 1_555
O53 S12 1.496388 1_555
O54 Si17 1.628737 1_555
O55 Si18 1.628505 1_555
O56 S13 1.480104 1_555
O57 S14 1.482693 1_555
O58 Si19 1.616982 1_555
O59 Si20 1.616589 1_555
O60 Si19 1.724060 1_555
O61 Si20 1.719182 1_555
O62 Si17 1.745568 1_555
O63 Si18 1.730534 1_555
O64 S13 1.524016 1_555
O65 S14 1.508654 1_555
O66 Si15 1.694431 1_555
O67 Si16 1.695666 1_555
O68 S11 1.492465 1_555
O69 S12 1.485621 1_555
O70 Si13 1.716885 1_555
O71 Si14 1.688078 1_555
O72 Si19 1.568744 1_555
O73 Si20 1.565207 1_555
O74 Si17 1.570606 1_555
O75 Si18 1.576089 1_555
O76 S13 1.452324 1_555
O77 S14 1.455683 1_555
O78 Si15 1.565225 1_555
O79 Si16 1.562048 1_555
O80 S11 1.456851 1_555
O81 S12 1.453411 1_555
O82 Si13 1.567460 1_555
O83 Si14 1.576542 1_555
O84 Si5 1.641519 1_555
O85 Si6 1.687342 1_555
O86 S7 1.509275 1_555
O87 S8 1.501336 1_555
O88 Si7 1.651370 1_555
O89 Si8 1.669853 1_555
O90 Si9 1.700770 1_555
O91 Si10 1.698380 1_555
O92 Si11 1.677202 1_555
O93 Si12 1.680823 1_555
O94 S9 1.524899 1_555
O95 S10 1.517118 1_555
O96 S5 1.462354 1_545
O97 S6 1.459058 1_545
O98 Si2 1.591675 1_555
O99 Si3 1.600875 1_555
O100 Si4 1.613184 1_555
O101 S4 1.471433 1_655
O102 S0 1.465341 1_555
O103 S1 1.465728 1_555
O104 S3 1.472764 1_555
O105 S2 1.483687 1_655
O106 Si0 1.595991 1_555
O107 Si1 1.607225 1_555
O108 Si13 1.662433 1_555
O109 Si14 1.677771 1_555
O110 Si16 1.690628 1_555
O111 Si15 1.683744 1_655
O112 S11 1.489509 1_545
O113 S12 1.501453 1_545
O114 Si17 1.651925 1_545
O115 Si18 1.661516 1_545
O116 S13 1.485164 1_555
O117 S14 1.493656 1_555
O118 Si20 1.675715 1_555
O119 Si19 1.678001 1_655
O120 S9 1.506837 1_555
O121 S10 1.504426 1_555
O122 Si10 1.629422 1_455
O123 Si9 1.633023 1_555
O124 Si11 1.655085 1_565
O125 Si12 1.642672 1_565
O126 S7 1.517271 1_565
O127 S8 1.516792 1_565
O128 Si7 1.656753 1_555
O129 Si8 1.650559 1_555
O130 Si6 1.636193 1_455
O131 Si5 1.651314 1_555
O132 Si0 1.784006 1_565
O133 Si1 1.770717 1_565
O134 S0 1.533911 1_555
O135 S1 1.504138 1_555
O136 S2 1.523964 1_555
O137 S3 1.528611 1_555
O138 Si2 1.773292 1_555
O139 Si3 1.778763 1_555
O140 S4 1.524862 1_555
O141 Si4 1.698955 1_555
O142 S5 1.524491 1_555
O143 S6 1.513430 1_555
