# generated using pymatgen
data_TbCo2
_symmetry_space_group_name_H-M   'P 1'
_cell_length_a   5.06404773
_cell_length_b   5.06402406
_cell_length_c   5.06407280
_cell_angle_alpha   60.07687206
_cell_angle_beta   60.07842651
_cell_angle_gamma   60.07828379
_symmetry_Int_Tables_number   1
_chemical_formula_structural   TbCo2
_chemical_formula_sum   'Tb2 Co4'
_cell_volume   91.99073733
_cell_formula_units_Z   2
loop_
 _symmetry_equiv_pos_site_id
 _symmetry_equiv_pos_as_xyz
  1  'x, y, z'
loop_
 _atom_site_type_symbol
 _atom_site_label
 _atom_site_symmetry_multiplicity
 _atom_site_fract_x
 _atom_site_fract_y
 _atom_site_fract_z
 _atom_site_occupancy
  Tb  Tb0  1  0.87488955  0.87490259  0.87490525  1
  Tb  Tb1  1  0.12511045  0.12509741  0.12509475  1
  Co  Co0  1  0.50000000  0.00000000  0.50000000  1
  Co  Co1  1  0.00000000  0.50000000  0.50000000  1
  Co  Co2  1  0.50000000  0.50000000  0.50000000  1
  Co  Co3  1  0.50000000  0.50000000  -0.00000000  1
loop_
_geom_bond_atom_site_label_1
_geom_bond_atom_site_label_2
_geom_bond_distance
_geom_bond_site_symmetry_2
Tb0 Tb1 3.101758 1_666
Tb0 Tb1 3.103244 1_566
Tb0 Tb1 3.103289 1_656
Tb0 Tb1 3.103346 1_665
Co0 Co2 2.532012 1_545
Co0 Co2 2.532012 1_555
Co0 Co3 2.534966 1_546
Co0 Co3 2.534966 1_555
Co0 Co1 2.535013 1_645
Co0 Co1 2.535013 1_555
Co0 Tb0 2.967484 1_545
Co0 Tb1 2.967484 1_555
Co0 Tb1 2.971787 1_556
Co0 Tb0 2.971787 1_544
Co0 Tb0 2.971818 1_445
Co0 Tb1 2.971818 1_655
Co1 Co2 2.532024 1_455
Co1 Co2 2.532024 1_555
Co1 Co3 2.535031 1_456
Co1 Co3 2.535031 1_555
Co1 Tb0 2.967542 1_455
Co1 Tb1 2.967542 1_555
Co1 Tb0 2.971740 1_445
Co1 Tb1 2.971740 1_565
Co1 Tb1 2.971753 1_556
Co1 Tb0 2.971753 1_454
Co2 Co3 2.532036 1_556
Co2 Co3 2.532036 1_555
Co2 Tb0 2.972134 1_545
Co2 Tb1 2.972134 1_565
Co2 Tb1 2.972135 1_556
Co2 Tb0 2.972135 1_554
Co2 Tb1 2.972269 1_655
Co2 Tb0 2.972269 1_455
Co3 Tb0 2.967464 1_554
Co3 Tb1 2.967464 1_555
Co3 Tb0 2.971765 1_544
Co3 Tb1 2.971765 1_565
Co3 Tb0 2.971809 1_454
Co3 Tb1 2.971809 1_655
