# generated using pymatgen
data_Na6Y6Nb2Si5S7O48
_symmetry_space_group_name_H-M   'P 1'
_cell_length_a   18.37213379
_cell_length_b   9.22372720
_cell_length_c   23.93032707
_cell_angle_alpha   90.05650643
_cell_angle_beta   90.08229008
_cell_angle_gamma   120.13278115
_symmetry_Int_Tables_number   1
_chemical_formula_structural   Na6Y6Nb2Si5S7O48
_chemical_formula_sum   'Na18 Y18 Nb6 Si15 S21 O144'
_cell_volume   3507.20686588
_cell_formula_units_Z   3
loop_
 _symmetry_equiv_pos_site_id
 _symmetry_equiv_pos_as_xyz
  1  'x, y, z'
loop_
 _atom_site_type_symbol
 _atom_site_label
 _atom_site_symmetry_multiplicity
 _atom_site_fract_x
 _atom_site_fract_y
 _atom_site_fract_z
 _atom_site_occupancy
  Na  Na0  1  0.99269213  0.68200342  0.91116249  1
  Na  Na1  1  0.34807725  0.02749407  0.91436580  1
  Na  Na2  1  0.17337980  0.30616215  0.91299276  1
  Na  Na3  1  0.49243415  0.30557871  0.42166325  1
  Na  Na4  1  0.67216790  0.03787038  0.41636527  1
  Na  Na5  1  0.84574844  0.66852025  0.41771006  1
  Na  Na6  1  0.99768026  0.99887710  0.49488461  1
  Na  Na7  1  0.49906073  0.00042345  0.50153539  1
  Na  Na8  1  0.00063362  0.00247917  0.99748845  1
  Na  Na9  1  0.49737097  0.99684270  0.99147295  1
  Na  Na10  1  0.33891236  0.34651649  0.84003717  1
  Na  Na11  1  0.82606644  0.32324199  0.81922806  1
  Na  Na12  1  0.32795849  0.33345043  0.32366638  1
  Na  Na13  1  0.83645847  0.32809960  0.34545323  1
  Na  Na14  1  0.17131353  0.66943865  0.16996933  1
  Na  Na15  1  0.66547408  0.66666493  0.16764409  1
  Na  Na16  1  0.16871237  0.66640351  0.66691792  1
  Na  Na17  1  0.65849060  0.65424754  0.66127865  1
  Y  Y0  1  0.00325290  0.00470596  0.35513418  1
  Y  Y1  1  0.49753214  0.00346517  0.34798467  1
  Y  Y2  1  0.99722360  0.99199197  0.84704837  1
  Y  Y3  1  0.50277922  0.00240579  0.85295338  1
  Y  Y4  1  0.33666176  0.34201195  0.68141614  1
  Y  Y5  1  0.83310076  0.33301615  0.68848113  1
  Y  Y6  1  0.33418534  0.33371273  0.18921759  1
  Y  Y7  1  0.83143816  0.32323869  0.18352090  1
  Y  Y8  1  0.34518575  0.35008898  0.97721376  1
  Y  Y9  1  0.82745373  0.30595787  0.98553501  1
  Y  Y10  1  0.33480726  0.34881784  0.49099597  1
  Y  Y11  1  0.84295584  0.33631328  0.47878179  1
  Y  Y12  1  0.17071789  0.67777677  0.01585846  1
  Y  Y13  1  0.66697161  0.66713739  0.01968263  1
  Y  Y14  1  0.16691973  0.66641682  0.52125248  1
  Y  Y15  1  0.66673304  0.65712774  0.51771580  1
  Y  Y16  1  0.66839062  0.65596663  0.31446793  1
  Y  Y17  1  0.17003519  0.68266467  0.81246535  1
  Nb  Nb0  1  0.99255617  0.98557586  0.65591291  1
  Nb  Nb1  1  0.50103970  0.02027690  0.64312677  1
  Nb  Nb2  1  0.00200654  0.99766846  0.14863600  1
  Nb  Nb3  1  0.49163008  0.99732193  0.15575509  1
  Nb  Nb4  1  0.16536719  0.67921466  0.31148394  1
  Nb  Nb5  1  0.66089316  0.64697707  0.80693118  1
  Si  Si0  1  0.14343082  0.99577358  0.25041188  1
  Si  Si1  1  0.34766451  0.70206960  0.25360571  1
  Si  Si2  1  0.50443131  0.30684046  0.25123858  1
  Si  Si3  1  0.64274840  0.28449408  0.74972836  1
  Si  Si4  1  0.00342162  0.70085502  0.75140428  1
  Si  Si5  1  0.84798407  0.99297443  0.75348152  1
  Si  Si6  1  0.48425055  0.34200215  0.58252716  1
  Si  Si7  1  0.33451052  0.63834728  0.58772072  1
  Si  Si8  1  0.83486736  0.03058972  0.08662847  1
  Si  Si9  1  0.31345140  0.66740245  0.91559889  1
  Si  Si10  1  0.52433277  0.37683357  0.91559579  1
  Si  Si11  1  0.16398062  0.96468939  0.91895749  1
  Si  Si12  1  0.81207631  0.95761053  0.41607233  1
  Si  Si13  1  0.66496879  0.36333714  0.41756311  1
  Si  Si14  1  0.02291317  0.66934013  0.41646297  1
  S  S0  1  0.64376614  0.99880587  0.24728332  1
  S  S1  1  0.85736408  0.71445048  0.24662629  1
  S  S2  1  0.00347029  0.29448682  0.24888665  1
  S  S3  1  0.14452301  0.28871643  0.74767627  1
  S  S4  1  0.50229733  0.70829836  0.75088110  1
  S  S5  1  0.35700195  0.00076072  0.74668591  1
  S  S6  1  0.98227968  0.32143800  0.58662567  1
  S  S7  1  0.17788885  0.03577686  0.58621280  1
  S  S8  1  0.68111848  0.03721577  0.58438783  1
  S  S9  1  0.83960266  0.64222222  0.58526427  1
  S  S10  1  0.48259007  0.64328333  0.08662212  1
  S  S11  1  0.98128262  0.63680999  0.08515529  1
  S  S12  1  0.33808518  0.03495502  0.08557189  1
  S  S13  1  0.18005212  0.32585414  0.08525225  1
  S  S14  1  0.67959722  0.32233490  0.08583418  1
  S  S15  1  0.81042681  0.66193005  0.91464197  1
  S  S16  1  0.01801177  0.37418275  0.91739713  1
  S  S17  1  0.66877448  0.95263212  0.91363999  1
  S  S18  1  0.30880021  0.95709427  0.41366763  1
  S  S19  1  0.17088309  0.38778444  0.41321431  1
  S  S20  1  0.51726176  0.66249755  0.41618675  1
  O  O0  1  0.10014310  0.01972699  0.30370330  1
  O  O1  1  0.60775273  0.01645538  0.29997104  1
  O  O2  1  0.40629620  0.78785663  0.30602872  1
  O  O3  1  0.90385318  0.78844843  0.29839831  1
  O  O4  1  0.49462338  0.20241560  0.30755178  1
  O  O5  1  0.98908857  0.19577728  0.29921030  1
  O  O6  1  0.10727156  0.19941943  0.80074510  1
  O  O7  1  0.60273547  0.18363597  0.80549455  1
  O  O8  1  0.49193001  0.78267400  0.80182285  1
  O  O9  1  0.99405205  0.78357207  0.80892377  1
  O  O10  1  0.40279905  0.01691122  0.79923295  1
  O  O11  1  0.90594213  0.02488184  0.80666234  1
  O  O12  1  0.40475845  0.98877337  0.69766479  1
  O  O13  1  0.90299316  0.97168371  0.69697697  1
  O  O14  1  0.08743266  0.18809464  0.69902159  1
  O  O15  1  0.58143272  0.18818020  0.69476296  1
  O  O16  1  0.00661991  0.83459250  0.69723899  1
  O  O17  1  0.51539986  0.81074293  0.70089745  1
  O  O18  1  0.40272571  0.83337014  0.19652897  1
  O  O19  1  0.90625832  0.82601968  0.19690060  1
  O  O20  1  0.01387046  0.20665601  0.19869740  1
  O  O21  1  0.50672759  0.17838682  0.19630648  1
  O  O22  1  0.08073640  0.97154218  0.19435337  1
  O  O23  1  0.58766050  0.98651902  0.19823201  1
  O  O24  1  0.43272959  0.34493448  0.63600391  1
  O  O25  1  0.94068351  0.34648356  0.63468832  1
  O  O26  1  0.23107257  0.11620538  0.63539459  1
  O  O27  1  0.73479126  0.12311398  0.63259226  1
  O  O28  1  0.31900491  0.51835929  0.64041220  1
  O  O29  1  0.83025558  0.53533336  0.63279782  1
  O  O30  1  0.44092141  0.53511469  0.13470825  1
  O  O31  1  0.93640092  0.53347490  0.13380357  1
  O  O32  1  0.32883570  0.12301707  0.13312357  1
  O  O33  1  0.82516967  0.12844850  0.13945012  1
  O  O34  1  0.23390446  0.34912781  0.13327712  1
  O  O35  1  0.73385408  0.34868855  0.13488312  1
  O  O36  1  0.21259497  0.29575804  0.03289522  1
  O  O37  1  0.71965030  0.30049218  0.03495458  1
  O  O38  1  0.43231312  0.57152390  0.03521184  1
  O  O39  1  0.93274380  0.56597518  0.03283466  1
  O  O40  1  0.35070845  0.12658114  0.03264213  1
  O  O41  1  0.85508821  0.14673822  0.03063851  1
  O  O42  1  0.21627531  0.13679175  0.53489321  1
  O  O43  1  0.71555810  0.13479053  0.53227037  1
  O  O44  1  0.35479251  0.56609706  0.53080829  1
  O  O45  1  0.85298549  0.57560764  0.53237627  1
  O  O46  1  0.43142927  0.30166936  0.52359593  1
  O  O47  1  0.93234570  0.29307841  0.53507803  1
  O  O48  1  0.27006068  0.69528388  0.97142331  1
  O  O49  1  0.77217194  0.68241200  0.96596447  1
  O  O50  1  0.06923716  0.45139458  0.96831030  1
  O  O51  1  0.57727525  0.46747499  0.97089233  1
  O  O52  1  0.14144144  0.83798288  0.97210540  1
  O  O53  1  0.66258321  0.86248514  0.96602941  1
  O  O54  1  0.27004266  0.86005175  0.46417186  1
  O  O55  1  0.76919823  0.84255221  0.47103258  1
  O  O56  1  0.16309247  0.46595079  0.46490289  1
  O  O57  1  0.64252272  0.44632259  0.46967443  1
  O  O58  1  0.07798184  0.68694447  0.47030698  1
  O  O59  1  0.56860438  0.68772605  0.46671616  1
  O  O60  1  0.07962929  0.65564335  0.36013669  1
  O  O61  1  0.55720528  0.63965134  0.36581870  1
  O  O62  1  0.25736439  0.86306339  0.36225874  1
  O  O63  1  0.75349447  0.87613180  0.36013180  1
  O  O64  1  0.17774484  0.49131107  0.36275066  1
  O  O65  1  0.68124328  0.47855172  0.36181536  1
  O  O66  1  0.05709721  0.47612776  0.86726101  1
  O  O67  1  0.58005837  0.50379214  0.86025724  1
  O  O68  1  0.17896022  0.87766708  0.86407616  1
  O  O69  1  0.67776980  0.86819278  0.86394950  1
  O  O70  1  0.25236466  0.62931971  0.86119689  1
  O  O71  1  0.75920214  0.64696623  0.86416761  1
  O  O72  1  0.00816061  0.82783791  0.41065515  1
  O  O73  1  0.50958570  0.81429168  0.41115416  1
  O  O74  1  0.39438235  0.97867588  0.40932223  1
  O  O75  1  0.90424527  0.97164681  0.41144575  1
  O  O76  1  0.09389094  0.22114831  0.40917149  1
  O  O77  1  0.58331326  0.16995507  0.41423977  1
  O  O78  1  0.00881550  0.20590716  0.91278279  1
  O  O79  1  0.50842615  0.18795624  0.91104121  1
  O  O80  1  0.08255106  0.99531189  0.91538141  1
  O  O81  1  0.59324887  0.96946833  0.91074171  1
  O  O82  1  0.40445156  0.83764612  0.91220251  1
  O  O83  1  0.89655537  0.81183395  0.91119924  1
  O  O84  1  0.49206841  0.16339030  0.59378722  1
  O  O85  1  0.99154272  0.16956019  0.59531779  1
  O  O86  1  0.09298914  0.02115276  0.59387794  1
  O  O87  1  0.59519387  0.01997832  0.59320959  1
  O  O88  1  0.42257827  0.82546454  0.60240311  1
  O  O89  1  0.91833417  0.81513036  0.59398751  1
  O  O90  1  0.49194224  0.81374504  0.09551323  1
  O  O91  1  0.98941648  0.80915516  0.09270322  1
  O  O92  1  0.41603419  0.01756547  0.09386269  1
  O  O93  1  0.92274803  0.01675800  0.10170224  1
  O  O94  1  0.09324878  0.16825734  0.09526862  1
  O  O95  1  0.59561760  0.16709284  0.09330044  1
  O  O96  1  0.34626476  0.14784497  0.74189731  1
  O  O97  1  0.83350139  0.14556599  0.74053851  1
  O  O98  1  0.22657741  0.29967734  0.74202135  1
  O  O99  1  0.73747996  0.32874557  0.74038074  1
  O  O100  1  0.43043381  0.53626030  0.74612021  1
  O  O101  1  0.91913726  0.52484970  0.74256837  1
  O  O102  1  0.33328849  0.52106549  0.24018311  1
  O  O103  1  0.84946245  0.54880467  0.23835258  1
  O  O104  1  0.41989795  0.31350123  0.24228567  1
  O  O105  1  0.93190457  0.32247818  0.24054156  1
  O  O106  1  0.23649746  0.14341604  0.23904554  1
  O  O107  1  0.72663773  0.15348724  0.24104442  1
  O  O108  1  0.31797553  0.49516521  0.92283704  1
  O  O109  1  0.82119375  0.51241040  0.91904385  1
  O  O110  1  0.43077904  0.35750794  0.91400617  1
  O  O111  1  0.93487480  0.36617139  0.92378060  1
  O  O112  1  0.25003643  0.14665805  0.92673006  1
  O  O113  1  0.74528116  0.12534422  0.91754505  1
  O  O114  1  0.31632033  0.12412368  0.41456057  1
  O  O115  1  0.81781565  0.14039262  0.42248513  1
  O  O116  1  0.24636576  0.36876821  0.41589082  1
  O  O117  1  0.75083550  0.35249983  0.42519403  1
  O  O118  1  0.43359241  0.50635039  0.42113824  1
  O  O119  1  0.93003222  0.50220572  0.41456471  1
  O  O120  1  0.16470660  0.46874158  0.08124013  1
  O  O121  1  0.66942012  0.47008751  0.08044422  1
  O  O122  1  0.06585819  0.65711725  0.08284056  1
  O  O123  1  0.56753491  0.66392664  0.08064986  1
  O  O124  1  0.26352495  0.86327590  0.08338934  1
  O  O125  1  0.75679869  0.84268851  0.08115856  1
  O  O126  1  0.16689771  0.86663600  0.58014901  1
  O  O127  1  0.66887289  0.86709666  0.57999645  1
  O  O128  1  0.25719678  0.67424346  0.58068555  1
  O  O129  1  0.76654014  0.66729441  0.58247792  1
  O  O130  1  0.06712045  0.47055528  0.58068968  1
  O  O131  1  0.57898107  0.49910255  0.58349233  1
  O  O132  1  0.14882440  0.81614441  0.25893061  1
  O  O133  1  0.65088125  0.84825604  0.24616076  1
  O  O134  1  0.25578976  0.69577560  0.26003042  1
  O  O135  1  0.77494976  0.70404556  0.24576964  1
  O  O136  1  0.08278447  0.46297398  0.25357930  1
  O  O137  1  0.59063262  0.48246438  0.24453031  1
  O  O138  1  0.15002871  0.45264588  0.74695419  1
  O  O139  1  0.64770657  0.47657108  0.75836250  1
  O  O140  1  0.08998383  0.69808393  0.74531590  1
  O  O141  1  0.58254936  0.69478350  0.75752958  1
  O  O142  1  0.27449681  0.84427030  0.74665827  1
  O  O143  1  0.75625864  0.81540144  0.76181115  1
loop_
_geom_bond_atom_site_label_1
_geom_bond_atom_site_label_2
_geom_bond_distance
_geom_bond_site_symmetry_2
Na0 O80 2.509172 1_655
Na0 O111 2.569388 1_555
Na0 O83 2.584037 1_555
Na0 O9 2.616366 1_555
Na0 O109 2.732001 1_555
Na0 O52 2.775260 1_655
Na0 O66 2.892296 1_655
Na1 O82 2.441856 1_545
Na1 O79 2.549268 1_555
Na1 O112 2.555123 1_555
Na1 O110 2.632656 1_555
Na1 O68 2.947329 1_545
Na1 O10 2.952485 1_555
Na1 O40 2.966295 1_556
Na1 O48 2.985366 1_545
Na2 O108 2.345090 1_555
Na2 O80 2.491098 1_545
Na2 O112 2.517127 1_555
Na2 O78 2.681230 1_555
Na2 O70 2.862951 1_555
Na2 O6 2.905954 1_555
Na2 O36 2.970726 1_556
Na3 O77 2.545898 1_555
Na3 O118 2.570644 1_555
Na3 O74 2.639567 1_545
Na3 O57 2.646270 1_555
Na3 O46 2.678623 1_555
Na3 O114 2.803554 1_555
Na3 O4 2.897850 1_555
Na4 O115 2.352438 1_555
Na4 O77 2.479609 1_555
Na4 O117 2.518374 1_555
Na4 O73 2.646559 1_545
Na4 O43 2.898453 1_555
Na4 O63 2.916961 1_545
Na4 O1 2.992071 1_555
Na5 O75 2.445248 1_555
Na5 O117 2.543228 1_555
Na5 O72 2.586679 1_655
Na5 O119 2.672408 1_555
Na5 O45 2.898216 1_555
Na5 O55 2.907002 1_555
Na5 O65 2.942876 1_555
Na5 O3 3.056893 1_555
Na6 O75 2.559878 1_555
Na6 O72 2.624610 1_655
Na6 O76 2.813375 1_665
Na6 O89 2.856418 1_555
Na6 O86 2.888964 1_665
Na6 O85 2.905016 1_565
Na7 O77 2.605900 1_555
Na7 O84 2.708822 1_555
Na7 O87 2.762765 1_555
Na7 O73 2.826660 1_545
Na7 O88 2.854095 1_545
Na7 O74 2.864944 1_545
Na8 O80 2.497629 1_545
Na8 O78 2.716137 1_555
Na8 O83 2.760068 1_445
Na8 O91 2.837996 1_446
Na8 O94 2.842147 1_556
Na8 O93 2.912575 1_456
Na9 O82 2.477368 1_555
Na9 O79 2.549840 1_565
Na9 O81 2.711875 1_555
Na9 O92 2.927371 1_566
Na9 O95 2.965772 1_566
Na9 O90 2.983408 1_556
Na10 O110 2.410691 1_555
Na10 O108 2.545636 1_555
Na10 O112 2.713580 1_555
Na10 O100 2.829380 1_555
Na10 O98 3.006084 1_555
Na10 O96 3.022046 1_555
Na11 O99 2.507169 1_555
Na11 O97 2.543577 1_555
Na11 O101 2.563288 1_555
Na11 O113 2.892867 1_555
Na11 O109 2.984497 1_555
Na12 O102 2.613930 1_555
Na12 O104 2.645831 1_555
Na12 O106 2.650026 1_555
Na12 O116 2.778897 1_555
Na12 O114 2.846034 1_555
Na12 O118 2.936436 1_555
Na13 O119 2.341878 1_555
Na13 O115 2.434288 1_555
Na13 O117 2.555342 1_555
Na14 O134 2.592956 1_555
Na14 O132 2.663095 1_555
Na14 O136 2.679987 1_555
Na14 O124 2.708445 1_555
Na14 O120 2.777763 1_555
Na14 O122 2.807268 1_555
Na15 O137 2.414636 1_555
Na15 O133 2.617976 1_555
Na15 O135 2.636509 1_555
Na15 O125 2.648789 1_555
Na15 O123 2.741478 1_555
Na15 O121 2.787870 1_555
Na16 O140 2.475535 1_555
Na16 O128 2.607332 1_555
Na16 O142 2.625238 1_555
Na16 O138 2.646392 1_555
Na16 O130 2.757034 1_555
Na16 O126 2.791554 1_555
Na17 O131 2.352617 1_555
Na17 O129 2.698597 1_555
Na17 O127 2.703118 1_555
Na17 O139 2.793808 1_555
Na17 O141 2.814770 1_555
Na17 O143 2.919502 1_555
Nb0 O16 1.829603 1_655
Nb0 O13 1.866233 1_555
Nb0 O14 2.076974 1_665
Nb0 O89 2.089090 1_555
Nb0 O85 2.240403 1_565
Nb0 O86 2.262084 1_665
Nb1 O84 1.839758 1_555
Nb1 O88 1.910070 1_545
Nb1 O15 1.949677 1_555
Nb1 O12 2.099535 1_545
Nb1 O87 2.104729 1_555
Nb1 O17 2.496450 1_545
Nb2 O93 1.914661 1_465
Nb2 O22 1.921741 1_555
Nb2 O19 2.036731 1_455
Nb2 O94 2.068506 1_565
Nb2 O91 2.111677 1_455
Nb2 O20 2.184340 1_565
Nb3 O21 1.827231 1_565
Nb3 O18 1.853200 1_555
Nb3 O23 2.080246 1_555
Nb3 O92 2.100588 1_565
Nb3 O90 2.224941 1_555
Nb3 O95 2.311902 1_565
Nb4 O60 1.883069 1_555
Nb4 O132 1.912220 1_555
Nb4 O134 2.012627 1_555
Nb4 O62 2.078726 1_555
Nb4 O64 2.227063 1_555
Nb4 O136 2.269466 1_555
Nb5 O139 1.869040 1_555
Nb5 O67 1.902043 1_555
Nb5 O143 1.981142 1_555
Nb5 O141 2.072946 1_555
Nb5 O71 2.265233 1_555
Nb5 O69 2.340806 1_555
O0 Si0 1.576836 1_545
O0 Y0 2.112263 1_555
O1 S0 1.471092 1_545
O1 Y1 2.280009 1_555
O2 Si1 1.580700 1_555
O2 Y1 2.101680 1_565
O3 S1 1.462967 1_555
O3 Y0 2.342517 1_665
O4 Si2 1.614066 1_555
O4 Y1 2.099602 1_555
O5 S2 1.452776 1_655
O5 Y0 2.329987 1_655
O6 S3 1.482624 1_555
O6 Y2 2.258963 1_445
O7 Si3 1.582842 1_555
O7 Y3 2.093843 1_555
O8 S4 1.457121 1_555
O8 Y3 2.287655 1_565
O9 Si4 1.623839 1_655
O9 Y2 2.101268 1_555
O10 S5 1.477194 1_555
O10 Y3 2.298880 1_555
O11 Si5 1.587694 1_545
O11 Y2 2.084521 1_545
O12 S5 1.502758 1_565
O13 Si5 1.758119 1_555
O14 S3 1.527793 1_555
O15 Si3 1.666433 1_555
O16 Si4 1.770828 1_555
O17 S4 1.468407 1_555
O18 Si1 1.769977 1_555
O19 S1 1.535997 1_555
O20 S2 1.513103 1_555
O21 Si2 1.783501 1_555
O22 Si0 1.706688 1_555
O23 S0 1.527143 1_555
O24 Si6 1.601086 1_555
O24 Y4 2.062675 1_555
O25 S6 1.462701 1_555
O25 Y5 2.310906 1_555
O26 S7 1.468826 1_555
O26 Y4 2.290592 1_555
O27 S8 1.463317 1_555
O27 Y5 2.297044 1_555
O28 Si7 1.607230 1_555
O28 Y4 2.060540 1_555
O29 S9 1.458833 1_555
O29 Y5 2.315898 1_555
O30 S10 1.464097 1_555
O30 Y6 2.313560 1_555
O31 S11 1.469537 1_555
O31 Y7 2.269631 1_555
O32 S12 1.456310 1_555
O32 Y6 2.321866 1_555
O33 Si8 1.613731 1_555
O33 Y7 2.035134 1_555
O34 S13 1.459021 1_555
O34 Y6 2.337286 1_555
O35 S14 1.477576 1_555
O35 Y7 2.245245 1_555
O36 S13 1.473919 1_555
O36 Y8 2.597229 1_554
O37 S14 1.488451 1_555
O37 Y9 2.287015 1_554
O38 S10 1.478565 1_555
O38 Y8 2.316407 1_554
O39 S11 1.483222 1_555
O39 Y9 2.470930 1_554
O40 S12 1.475991 1_555
O40 Y8 2.496957 1_554
O41 Si8 1.638790 1_555
O41 Y9 2.080789 1_554
O42 S7 1.489537 1_555
O42 Y10 2.324901 1_555
O43 S8 1.482757 1_555
O43 Y11 2.493388 1_555
O44 Si7 1.639148 1_555
O44 Y10 2.077361 1_555
O45 S9 1.480146 1_555
O45 Y11 2.477077 1_555
O46 Si6 1.643625 1_555
O46 Y10 2.172709 1_555
O47 S6 1.478805 1_555
O47 Y11 2.307225 1_555
O48 Si9 1.641483 1_555
O48 Y12 2.048883 1_556
O49 S15 1.474236 1_555
O49 Y13 2.267594 1_556
O50 S16 1.483034 1_555
O50 Y12 2.282846 1_556
O51 Si10 1.604291 1_555
O51 Y13 2.100869 1_556
O52 Si11 1.635082 1_555
O52 Y12 2.090117 1_556
O53 S17 1.477693 1_555
O53 Y13 2.247605 1_556
O54 S18 1.460679 1_555
O54 Y14 2.293491 1_555
O55 Si12 1.625731 1_555
O55 Y15 2.119956 1_555
O56 S19 1.473990 1_555
O56 Y14 2.259765 1_555
O57 Si13 1.620979 1_555
O57 Y15 2.103817 1_555
O58 Si14 1.594085 1_555
O58 Y14 2.120707 1_555
O59 S20 1.477102 1_555
O59 Y15 2.307497 1_555
O60 Si14 1.747694 1_555
O61 S20 1.480894 1_555
O61 Y16 2.324717 1_555
O62 S18 1.526555 1_555
O63 Si12 1.642254 1_555
O63 Y16 2.136706 1_555
O64 S19 1.505956 1_555
O65 Si13 1.638105 1_555
O65 Y16 2.099590 1_555
O66 S16 1.471753 1_555
O66 Y17 2.387045 1_555
O67 Si10 1.725228 1_555
O68 Si11 1.632665 1_555
O68 Y17 2.118097 1_555
O69 S17 1.475081 1_555
O70 Si9 1.636112 1_555
O70 Y17 2.152485 1_555
O71 S15 1.493207 1_555
O72 Si14 1.621162 1_555
O72 Y0 2.141594 1_565
O73 S20 1.480952 1_555
O73 Y1 2.402289 1_565
O74 S18 1.486241 1_555
O74 Y1 2.317701 1_565
O75 Si12 1.636117 1_555
O75 Y0 2.160681 1_665
O76 S19 1.479550 1_555
O76 Y0 2.254263 1_555
O77 Si13 1.658686 1_555
O77 Y1 2.216740 1_555
O78 S16 1.478566 1_555
O78 Y2 2.446213 1_445
O79 Si10 1.618872 1_555
O79 Y3 2.165358 1_555
O80 Si11 1.658059 1_555
O80 Y2 2.253171 1_455
O81 S17 1.473213 1_555
O81 Y3 2.295333 1_565
O82 Si9 1.622448 1_555
O82 Y3 2.199651 1_565
O83 S15 1.492106 1_555
O83 Y2 2.337981 1_555
O84 Si6 1.745201 1_555
O85 S6 1.508153 1_555
O86 S7 1.508115 1_555
O87 S8 1.520167 1_555
O88 Si7 1.706924 1_555
O89 S9 1.536791 1_555
O90 S10 1.508276 1_555
O91 S11 1.530634 1_555
O92 S12 1.531614 1_555
O93 Si8 1.720004 1_555
O94 S13 1.545333 1_555
O95 S14 1.498648 1_555
O96 S5 1.470212 1_555
O96 Y4 2.378024 1_555
O97 Si5 1.588805 1_545
O97 Y5 2.135029 1_555
O98 S3 1.465853 1_555
O98 Y4 2.358586 1_555
O99 Si3 1.591783 1_555
O99 Y5 2.137086 1_555
O100 S4 1.473060 1_555
O100 Y4 2.337404 1_555
O101 Si4 1.597646 1_655
O101 Y5 2.118057 1_555
O102 Si1 1.586268 1_555
O102 Y6 2.120975 1_555
O103 S1 1.473532 1_555
O103 Y7 2.337035 1_555
O104 Si2 1.598917 1_555
O104 Y6 2.101598 1_555
O105 S2 1.474941 1_655
O105 Y7 2.296665 1_555
O106 Si0 1.586285 1_545
O106 Y6 2.138040 1_555
O107 S0 1.481916 1_545
O107 Y7 2.244711 1_555
O108 Si9 1.641298 1_555
O108 Y8 2.099285 1_555
O109 S15 1.492096 1_555
O109 Y9 2.529141 1_555
O110 Si10 1.636955 1_555
O110 Y8 2.159728 1_555
O111 S16 1.499710 1_655
O111 Y9 2.301474 1_555
O112 Si11 1.638787 1_545
O112 Y8 2.175399 1_555
O113 S17 1.507779 1_545
O113 Y9 2.272478 1_555
O114 S18 1.476250 1_545
O114 Y10 2.653371 1_555
O115 Si12 1.642557 1_545
O115 Y11 2.109347 1_555
O116 S19 1.483915 1_555
O116 Y10 2.489327 1_555
O117 Si13 1.639985 1_555
O117 Y11 2.186090 1_555
O118 S20 1.493103 1_555
O118 Y10 2.359156 1_555
O119 Si14 1.627556 1_655
O119 Y11 2.194580 1_555
O120 S13 1.482883 1_555
O120 Y12 2.443429 1_555
O121 S14 1.471399 1_555
O121 Y13 2.346660 1_555
O122 S11 1.469900 1_455
O122 Y12 2.440879 1_555
O123 S10 1.481404 1_555
O123 Y13 2.328157 1_555
O124 S12 1.486095 1_565
O124 Y12 2.346037 1_555
O125 Si8 1.606652 1_565
O125 Y13 2.194328 1_555
O126 S7 1.476125 1_565
O126 Y14 2.322200 1_555
O127 S8 1.472754 1_565
O127 Y15 2.427203 1_555
O128 Si7 1.620852 1_555
O128 Y14 2.156784 1_555
O129 S9 1.473491 1_555
O129 Y15 2.364711 1_555
O130 S6 1.479887 1_455
O130 Y14 2.309866 1_555
O131 Si6 1.611537 1_555
O131 Y15 2.203143 1_555
O132 Si0 1.721039 1_555
O133 S0 1.458866 1_555
O133 Y16 2.549163 1_555
O134 Si1 1.666887 1_555
O135 S1 1.468408 1_555
O135 Y16 2.423012 1_555
O136 S2 1.508862 1_555
O137 Si2 1.607322 1_555
O137 Y16 2.257305 1_555
O138 S3 1.464000 1_555
O138 Y17 2.510565 1_555
O139 Si3 1.739822 1_555
O140 Si4 1.610127 1_555
O140 Y17 2.229137 1_555
O141 S4 1.548744 1_555
O142 S5 1.477969 1_565
O142 Y17 2.350789 1_555
O143 Si5 1.671125 1_555
