# generated using pymatgen
data_Ag4Bi2O5
_symmetry_space_group_name_H-M   'P 1'
_cell_length_a   5.98093700
_cell_length_b   8.77016000
_cell_length_c   14.60488900
_cell_angle_alpha   90.00000000
_cell_angle_beta   90.00000000
_cell_angle_gamma   90.00000000
_symmetry_Int_Tables_number   1
_chemical_formula_structural   Ag4Bi2O5
_chemical_formula_sum   'Ag16 Bi8 O20'
_cell_volume   766.08155333
_cell_formula_units_Z   4
loop_
 _symmetry_equiv_pos_site_id
 _symmetry_equiv_pos_as_xyz
  1  'x, y, z'
loop_
 _atom_site_type_symbol
 _atom_site_label
 _atom_site_symmetry_multiplicity
 _atom_site_fract_x
 _atom_site_fract_y
 _atom_site_fract_z
 _atom_site_occupancy
  Ag  Ag0  1  0.99062800  0.63957700  0.08154800  1
  Ag  Ag1  1  0.49062800  0.86042300  0.41845200  1
  Ag  Ag2  1  0.00937200  0.63957700  0.41845200  1
  Ag  Ag3  1  0.50937200  0.86042300  0.08154800  1
  Ag  Ag4  1  0.99062800  0.36042300  0.58154800  1
  Ag  Ag5  1  0.00937200  0.36042300  0.91845200  1
  Ag  Ag6  1  0.50000000  0.93284200  0.75000000  1
  Ag  Ag7  1  0.00000000  0.56715800  0.75000000  1
  Ag  Ag8  1  0.50000000  0.06715800  0.25000000  1
  Ag  Ag9  1  0.00000000  0.43284200  0.25000000  1
  Ag  Ag10  1  0.25000000  0.75000000  0.24772800  1
  Ag  Ag11  1  0.75000000  0.75000000  0.25227200  1
  Ag  Ag12  1  0.75000000  0.25000000  0.75227200  1
  Ag  Ag13  1  0.25000000  0.25000000  0.74772800  1
  Ag  Ag14  1  0.50937200  0.13957700  0.58154800  1
  Ag  Ag15  1  0.49062800  0.13957700  0.91845200  1
  Bi  Bi0  1  0.50992800  0.58378100  0.61122800  1
  Bi  Bi1  1  0.00992800  0.91621900  0.88877200  1
  Bi  Bi2  1  0.49007200  0.58378100  0.88877200  1
  Bi  Bi3  1  0.99007200  0.91621900  0.61122800  1
  Bi  Bi4  1  0.49007200  0.41621900  0.38877200  1
  Bi  Bi5  1  0.99007200  0.08378100  0.11122800  1
  Bi  Bi6  1  0.50992800  0.41621900  0.11122800  1
  Bi  Bi7  1  0.00992800  0.08378100  0.38877200  1
  O  O0  1  0.63046100  0.91296600  0.61570100  1
  O  O1  1  0.13046100  0.58703400  0.88429900  1
  O  O2  1  0.36953900  0.91296600  0.88429900  1
  O  O3  1  0.86953900  0.58703400  0.61570100  1
  O  O4  1  0.36953900  0.08703400  0.38429900  1
  O  O5  1  0.86953900  0.41296600  0.11570100  1
  O  O6  1  0.63046100  0.08703400  0.11570100  1
  O  O7  1  0.13046100  0.41296600  0.38429900  1
  O  O8  1  0.45631400  0.63013000  0.04273900  1
  O  O9  1  0.95631400  0.86987000  0.45726100  1
  O  O10  1  0.45631400  0.36987000  0.54273900  1
  O  O11  1  0.95631400  0.13013000  0.95726100  1
  O  O12  1  0.54368600  0.36987000  0.95726100  1
  O  O13  1  0.04368600  0.13013000  0.54273900  1
  O  O14  1  0.50000000  0.56342000  0.25000000  1
  O  O15  1  0.00000000  0.93658000  0.25000000  1
  O  O16  1  0.50000000  0.43658000  0.75000000  1
  O  O17  1  0.04368600  0.86987000  0.04273900  1
  O  O18  1  0.00000000  0.06342000  0.75000000  1
  O  O19  1  0.54368600  0.63013000  0.45726100  1
loop_
_geom_bond_atom_site_label_1
_geom_bond_atom_site_label_2
_geom_bond_distance
_geom_bond_site_symmetry_2
Ag0 O17 2.121598 1_655
Ag0 O5 2.173275 1_555
Ag1 O19 2.121598 1_555
Ag1 O4 2.173275 1_565
Ag2 O9 2.121598 1_455
Ag2 O7 2.173275 1_555
Ag3 O8 2.121598 1_555
Ag3 O6 2.173275 1_565
Ag4 O13 2.121598 1_655
Ag4 O3 2.173275 1_555
Ag5 O11 2.121598 1_455
Ag5 O1 2.173275 1_555
Ag6 O2 2.118112 1_555
Ag6 O0 2.118112 1_555
Ag7 O1 2.118112 1_555
Ag7 O3 2.118112 1_455
Ag8 O6 2.118112 1_555
Ag8 O4 2.118112 1_555
Ag9 O7 2.118112 1_555
Ag9 O5 2.118112 1_455
Ag10 O15 2.216850 1_555
Ag10 O14 2.216850 1_555
Ag11 O14 2.216850 1_555
Ag11 O15 2.216850 1_655
Ag12 O18 2.216850 1_655
Ag12 O16 2.216850 1_555
Ag13 O18 2.216850 1_555
Ag13 O16 2.216850 1_555
Ag14 O10 2.121598 1_555
Ag14 O0 2.173275 1_545
Ag15 O12 2.121598 1_555
Ag15 O2 2.173275 1_545
Bi0 O10 2.150087 1_555
Bi0 O3 2.151992 1_555
Bi0 O19 2.294018 1_555
Bi0 O16 2.403718 1_555
Bi1 O11 2.150087 1_465
Bi1 O2 2.151992 1_555
Bi1 O17 2.294018 1_556
Bi1 O18 2.403718 1_565
Bi2 O12 2.150087 1_555
Bi2 O1 2.151992 1_555
Bi2 O8 2.294018 1_556
Bi2 O16 2.403718 1_555
Bi3 O13 2.150087 1_665
Bi3 O0 2.151992 1_555
Bi3 O9 2.294018 1_555
Bi3 O18 2.403718 1_665
Bi4 O19 2.150087 1_555
Bi4 O7 2.151992 1_555
Bi4 O10 2.294018 1_555
Bi4 O14 2.403718 1_555
Bi5 O17 2.150087 1_645
Bi5 O6 2.151992 1_555
Bi5 O11 2.294018 1_554
Bi5 O15 2.403718 1_645
Bi6 O8 2.150087 1_555
Bi6 O5 2.151992 1_555
Bi6 O12 2.294018 1_554
Bi6 O14 2.403718 1_555
Bi7 O9 2.150087 1_445
Bi7 O4 2.151992 1_555
Bi7 O13 2.294018 1_555
Bi7 O15 2.403718 1_545
