# generated using pymatgen
data_CsU2O6
_symmetry_space_group_name_H-M   'P 1'
_cell_length_a   7.91228418
_cell_length_b   7.91201927
_cell_length_c   7.86210432
_cell_angle_alpha   60.17598872
_cell_angle_beta   60.17802232
_cell_angle_gamma   60.41923995
_symmetry_Int_Tables_number   1
_chemical_formula_structural   CsU2O6
_chemical_formula_sum   'Cs2 U4 O12'
_cell_volume   350.05340306
_cell_formula_units_Z   2
loop_
 _symmetry_equiv_pos_site_id
 _symmetry_equiv_pos_as_xyz
  1  'x, y, z'
loop_
 _atom_site_type_symbol
 _atom_site_label
 _atom_site_symmetry_multiplicity
 _atom_site_fract_x
 _atom_site_fract_y
 _atom_site_fract_z
 _atom_site_occupancy
  Cs  Cs0  1  0.25049705  0.25047580  0.24971210  1
  Cs  Cs1  1  -0.00050526  -0.00038009  0.00027425  1
  U  U0  1  0.62500651  0.62500169  0.12498849  1
  U  U1  1  0.62496448  0.12496691  0.62503012  1
  U  U2  1  0.12496565  0.62496046  0.62502757  1
  U  U3  1  0.62501424  0.62500421  0.62499087  1
  O  O0  1  0.55749982  0.94657864  0.93472237  1
  O  O1  1  0.30347377  0.69243397  0.68880734  1
  O  O2  1  0.94658031  0.55749222  0.93479240  1
  O  O3  1  0.93717109  0.93722128  0.56279548  1
  O  O4  1  0.55681301  0.55683459  0.94332251  1
  O  O5  1  0.55747732  0.94660162  0.56117519  1
  O  O6  1  0.94659212  0.55744652  0.56113084  1
  O  O7  1  0.30347699  0.69240343  0.31531678  1
  O  O8  1  0.69242566  0.30344716  0.68874851  1
  O  O9  1  0.69329775  0.69326332  0.30657956  1
  O  O10  1  0.31284451  0.31278469  0.68719634  1
  O  O11  1  0.69240499  0.30346357  0.31538929  1
loop_
_geom_bond_atom_site_label_1
_geom_bond_atom_site_label_2
_geom_bond_distance
_geom_bond_site_symmetry_2
Cs0 O4 3.426025 1_554
Cs0 O6 3.459601 1_455
Cs0 O5 3.459856 1_545
Cs0 O2 3.462037 1_454
Cs0 O0 3.462369 1_544
Cs0 O3 3.503786 1_445
Cs1 O9 3.425347 1_445
Cs1 O8 3.460708 1_454
Cs1 O1 3.461079 1_544
Cs1 O11 3.462775 1_455
Cs1 O7 3.463094 1_545
Cs1 O10 3.503417 1_554
O0 U1 2.058716 1_565
O0 U0 2.159574 1_556
O1 U2 2.060697 1_555
O1 U3 2.159978 1_555
O2 U2 2.059161 1_655
O2 U0 2.159556 1_556
O3 U1 2.108580 1_565
O3 U2 2.108902 1_655
O4 U0 2.107612 1_556
O4 U3 2.108856 1_555
O5 U1 2.060116 1_565
O5 U3 2.160112 1_555
O6 U2 2.060588 1_655
O6 U3 2.159956 1_555
O7 U2 2.059081 1_555
O7 U0 2.159537 1_555
O8 U1 2.060052 1_555
O8 U3 2.160134 1_555
O9 U0 2.108158 1_555
O9 U3 2.109158 1_555
O10 U1 2.108232 1_555
O10 U2 2.108587 1_555
O11 U1 2.058620 1_555
O11 U0 2.159590 1_555
