# generated using pymatgen
data_Ca3SiO5
_symmetry_space_group_name_H-M   'P 1'
_cell_length_a   9.52731233
_cell_length_b   9.52731233
_cell_length_c   9.52731308
_cell_angle_alpha   43.68760911
_cell_angle_beta   43.68760911
_cell_angle_gamma   43.68760434
_symmetry_Int_Tables_number   1
_chemical_formula_structural   Ca3SiO5
_chemical_formula_sum   'Ca9 Si3 O15'
_cell_volume   374.50459062
_cell_formula_units_Z   3
loop_
 _symmetry_equiv_pos_site_id
 _symmetry_equiv_pos_as_xyz
  1  'x, y, z'
loop_
 _atom_site_type_symbol
 _atom_site_label
 _atom_site_symmetry_multiplicity
 _atom_site_fract_x
 _atom_site_fract_y
 _atom_site_fract_z
 _atom_site_occupancy
  Ca  Ca0  1  0.26236200  0.78682200  0.26236200  1
  Ca  Ca1  1  0.26236200  0.26236200  0.78682200  1
  Ca  Ca2  1  0.78682200  0.26236200  0.26236200  1
  Ca  Ca3  1  0.05805400  0.53207700  0.05805400  1
  Ca  Ca4  1  0.05805400  0.05805400  0.53207700  1
  Ca  Ca5  1  0.53207700  0.05805400  0.05805400  1
  Ca  Ca6  1  0.49500200  0.01950200  0.49500200  1
  Ca  Ca7  1  0.49500200  0.49500200  0.01950200  1
  Ca  Ca8  1  0.01950200  0.49500200  0.49500200  1
  Si  Si0  1  0.76795100  0.76795100  0.76795100  1
  Si  Si1  1  0.55526200  0.55526200  0.55526200  1
  Si  Si2  1  0.98906100  0.98906100  0.98906100  1
  O  O0  1  0.13587200  0.75380900  0.13587200  1
  O  O1  1  0.13587200  0.13587200  0.75380900  1
  O  O2  1  0.75380900  0.13587200  0.13587200  1
  O  O3  1  0.40703700  0.78440000  0.40703700  1
  O  O4  1  0.40703700  0.40703700  0.78440000  1
  O  O5  1  0.78440000  0.40703700  0.40703700  1
  O  O6  1  0.86975100  0.49434000  0.86975100  1
  O  O7  1  0.86975100  0.86975100  0.49434000  1
  O  O8  1  0.49434000  0.86975100  0.86975100  1
  O  O9  1  0.62044600  0.62044600  0.62044600  1
  O  O10  1  0.27476300  0.27476300  0.27476300  1
  O  O11  1  0.92571000  0.92571000  0.92571000  1
  O  O12  1  0.83084400  0.83084400  0.83084400  1
  O  O13  1  0.40196100  0.40196100  0.40196100  1
  O  O14  1  0.15039600  0.15039600  0.15039600  1
loop_
_geom_bond_atom_site_label_1
_geom_bond_atom_site_label_2
_geom_bond_distance
_geom_bond_site_symmetry_2
Ca0 O14 2.287409 1_565
Ca0 O13 2.331303 1_555
Ca0 O7 2.407418 1_455
Ca0 O8 2.407419 1_554
Ca0 O0 2.490022 1_555
Ca0 O3 2.540864 1_555
Ca1 O14 2.287410 1_556
Ca1 O13 2.331303 1_555
Ca1 O8 2.407418 1_545
Ca1 O6 2.407418 1_455
Ca1 O1 2.490021 1_555
Ca1 O4 2.540864 1_555
Ca2 O14 2.287409 1_655
Ca2 O13 2.331303 1_555
Ca2 O7 2.407418 1_545
Ca2 O6 2.407419 1_554
Ca2 O2 2.490022 1_555
Ca2 O5 2.540864 1_555
Ca3 O4 2.344808 1_554
Ca3 O5 2.344808 1_455
Ca3 O11 2.421972 1_454
Ca3 O10 2.461751 1_555
Ca3 O12 2.535456 1_454
Ca3 O14 2.576271 1_555
Ca4 O3 2.344808 1_545
Ca4 O5 2.344808 1_455
Ca4 O11 2.421973 1_445
Ca4 O10 2.461751 1_555
Ca4 O12 2.535456 1_445
Ca4 O14 2.576272 1_555
Ca5 O4 2.344808 1_554
Ca5 O3 2.344808 1_545
Ca5 O11 2.421972 1_544
Ca5 O10 2.461751 1_555
Ca5 O12 2.535456 1_544
Ca5 O14 2.576271 1_555
Ca6 O1 2.298287 1_555
Ca6 O2 2.298287 1_555
Ca6 O9 2.496843 1_545
Ca6 O10 2.515437 1_555
Ca6 O13 2.577328 1_555
Ca6 O7 2.719643 1_545
Ca6 O8 2.719643 1_545
Ca7 O2 2.298286 1_555
Ca7 O0 2.298286 1_555
Ca7 O9 2.496843 1_554
Ca7 O10 2.515437 1_555
Ca7 O13 2.577329 1_555
Ca7 O8 2.719643 1_554
Ca7 O6 2.719643 1_554
Ca8 O1 2.298287 1_555
Ca8 O0 2.298287 1_555
Ca8 O9 2.496843 1_455
Ca8 O10 2.515437 1_555
Ca8 O13 2.577328 1_555
Ca8 O7 2.719643 1_455
Ca8 O6 2.719643 1_455
O0 Si2 1.642543 1_454
O1 Si2 1.642543 1_445
O2 Si2 1.642543 1_544
O3 Si1 1.649644 1_555
O4 Si1 1.649644 1_555
O5 Si1 1.649644 1_555
O6 Si0 1.650496 1_555
O7 Si0 1.650496 1_555
O8 Si0 1.650496 1_555
O9 Si1 1.682368 1_555
O11 Si2 1.635059 1_555
O12 Si0 1.623238 1_555
