# generated using pymatgen
data_Li3Fe3(PO4)4
_symmetry_space_group_name_H-M   'P 1'
_cell_length_a   8.08883800
_cell_length_b   8.88007788
_cell_length_c   13.23359494
_cell_angle_alpha   84.81634877
_cell_angle_beta   89.82629304
_cell_angle_gamma   89.78959424
_symmetry_Int_Tables_number   1
_chemical_formula_structural   Li3Fe3(PO4)4
_chemical_formula_sum   'Li9 Fe9 P12 O48'
_cell_volume   946.66520286
_cell_formula_units_Z   3
loop_
 _symmetry_equiv_pos_site_id
 _symmetry_equiv_pos_as_xyz
  1  'x, y, z'
loop_
 _atom_site_type_symbol
 _atom_site_label
 _atom_site_symmetry_multiplicity
 _atom_site_fract_x
 _atom_site_fract_y
 _atom_site_fract_z
 _atom_site_occupancy
  Li  Li0  1  0.86356400  0.77051100  0.83630300  1
  Li  Li1  1  0.13457400  0.24131300  0.16182800  1
  Li  Li2  1  0.86351000  0.42246100  0.17196400  1
  Li  Li3  1  0.36216100  0.72738900  0.16422200  1
  Li  Li4  1  0.36257200  0.40659400  0.49635500  1
  Li  Li5  1  0.36706000  0.07739800  0.82645000  1
  Li  Li6  1  0.63186100  0.58878400  0.50807000  1
  Li  Li7  1  0.63612200  0.26002900  0.83708200  1
  Li  Li8  1  0.13657900  0.89586200  0.49472400  1
  Fe  Fe0  1  0.48986800  0.34737800  0.17213500  1
  Fe  Fe1  1  0.85535100  0.09923800  0.50118700  1
  Fe  Fe2  1  0.01644000  0.82924700  0.16176100  1
  Fe  Fe3  1  0.00544500  0.51270400  0.50473600  1
  Fe  Fe4  1  0.99391600  0.15359600  0.82799000  1
  Fe  Fe5  1  0.64055300  0.93361700  0.16727300  1
  Fe  Fe6  1  0.14399200  0.56745900  0.83235100  1
  Fe  Fe7  1  0.48189400  0.99755700  0.49956800  1
  Fe  Fe8  1  0.51671200  0.67033200  0.83440400  1
  P  P0  1  0.30582600  0.68614800  0.61098900  1
  P  P1  1  0.31653200  0.35410100  0.94862000  1
  P  P2  1  0.80960500  0.47557200  0.72145800  1
  P  P3  1  0.79562200  0.81093800  0.39044400  1
  P  P4  1  0.18958800  0.19118200  0.61150800  1
  P  P5  1  0.18767900  0.52088600  0.28163300  1
  P  P6  1  0.68289500  0.31298100  0.38568900  1
  P  P7  1  0.70052700  0.64463600  0.05531300  1
  P  P8  1  0.30440300  0.02411300  0.27729600  1
  P  P9  1  0.20259900  0.85600000  0.94355200  1
  P  P10  1  0.69223300  0.98136200  0.72215900  1
  P  P11  1  0.81521300  0.14595200  0.05116700  1
  O  O0  1  0.91854100  0.92531900  0.43168300  1
  O  O1  1  0.07147100  0.41057700  0.23793700  1
  O  O2  1  0.63847200  0.13968000  0.41767400  1
  O  O3  1  0.63641400  0.48266600  0.08474700  1
  O  O4  1  0.36079300  0.18899300  0.25120500  1
  O  O5  1  0.30848300  0.33469600  0.06544300  1
  O  O6  1  0.92808700  0.25443800  0.09635000  1
  O  O7  1  0.13362800  0.00511800  0.22765400  1
  O  O8  1  0.63454700  0.14568800  0.10107100  1
  O  O9  1  0.87193300  0.98877700  0.76469400  1
  O  O10  1  0.37577600  0.84086500  0.89588600  1
  O  O11  1  0.08067600  0.74202300  0.89994300  1
  O  O12  1  0.70044600  0.67724900  0.93826500  1
  O  O13  1  0.64261800  0.81251600  0.74512500  1
  O  O14  1  0.36170300  0.52650900  0.91494300  1
  O  O15  1  0.35562300  0.85495800  0.58802900  1
  O  O16  1  0.30175800  0.65556000  0.73145300  1
  O  O17  1  0.93480800  0.58373600  0.76773800  1
  O  O18  1  0.30121400  0.98730200  0.39403900  1
  O  O19  1  0.68847100  0.33474300  0.26887800  1
  O  O20  1  0.13694700  0.35420100  0.89804500  1
  O  O21  1  0.63791700  0.49615400  0.77057900  1
  O  O22  1  0.62294400  0.82630300  0.43761300  1
  O  O23  1  0.12664400  0.67852600  0.56751900  1
  O  O24  1  0.43027100  0.24416600  0.90453700  1
  O  O25  1  0.81012800  0.16596600  0.93459100  1
  O  O26  1  0.42325800  0.57608000  0.56992900  1
  O  O27  1  0.81121400  0.51136900  0.60491200  1
  O  O28  1  0.43114500  0.91476400  0.23262700  1
  O  O29  1  0.86387000  0.30970600  0.74865900  1
  O  O30  1  0.79608300  0.84723900  0.27155700  1
  O  O31  1  0.85976000  0.64860300  0.41524800  1
  O  O32  1  0.13861100  0.01877000  0.91605100  1
  O  O33  1  0.85952200  0.97286800  0.08538100  1
  O  O34  1  0.13473900  0.35697900  0.58496600  1
  O  O35  1  0.18861300  0.15504400  0.72778400  1
  O  O36  1  0.13807500  0.68948500  0.25231000  1
  O  O37  1  0.57478000  0.09159200  0.76269600  1
  O  O38  1  0.18747100  0.49507300  0.39918200  1
  O  O39  1  0.57006300  0.42118200  0.43186100  1
  O  O40  1  0.20200200  0.82215700  0.06076300  1
  O  O41  1  0.57912800  0.75967800  0.09962500  1
  O  O42  1  0.69668500  0.01141300  0.60134200  1
  O  O43  1  0.86320200  0.31206200  0.43525500  1
  O  O44  1  0.36668000  0.51048200  0.23643900  1
  O  O45  1  0.87366400  0.65924400  0.10303600  1
  O  O46  1  0.06506000  0.08280400  0.56464400  1
  O  O47  1  0.36116600  0.17134000  0.56185500  1
loop_
_geom_bond_atom_site_label_1
_geom_bond_atom_site_label_2
_geom_bond_distance
_geom_bond_site_symmetry_2
Li0 O11 1.955674 1_655
Li0 O12 2.010662 1_555
Li0 O17 2.041574 1_555
Li0 O9 2.080381 1_555
Li0 O13 2.171629 1_555
Li1 O6 1.882344 1_455
Li1 O1 1.949109 1_555
Li1 O5 2.024853 1_555
Li1 O7 2.197280 1_555
Li1 O4 2.206978 1_555
Li2 O1 1.895783 1_655
Li2 O6 1.939399 1_555
Li2 O19 2.018130 1_555
Li2 O3 2.210541 1_555
Li2 O45 2.216795 1_555
Li3 O41 1.960448 1_555
Li3 O40 2.013853 1_555
Li3 O28 2.044863 1_555
Li3 O44 2.071667 1_555
Li3 O36 2.162977 1_555
Li4 O39 1.880173 1_555
Li4 O26 1.930606 1_555
Li4 O38 2.024197 1_555
Li4 O47 2.188289 1_555
Li4 O34 2.205675 1_555
Li5 O37 1.877384 1_555
Li5 O24 1.951328 1_555
Li5 O35 2.026131 1_555
Li5 O10 2.216233 1_545
Li5 O32 2.230236 1_555
Li6 O26 1.872529 1_555
Li6 O39 1.939542 1_555
Li6 O27 2.016049 1_555
Li6 O22 2.228716 1_555
Li6 O31 2.250529 1_555
Li7 O24 1.886594 1_555
Li7 O37 1.930523 1_555
Li7 O25 2.037526 1_555
Li7 O21 2.199555 1_555
Li7 O29 2.203916 1_555
Li8 O0 1.959862 1_455
Li8 O18 2.002452 1_555
Li8 O46 2.052777 1_565
Li8 O23 2.079410 1_555
Li8 O15 2.173334 1_555
Fe0 O4 1.975190 1_555
Fe0 O3 1.984167 1_555
Fe0 O44 2.005450 1_555
Fe0 O5 2.049722 1_555
Fe0 O19 2.053674 1_555
Fe0 O8 2.396670 1_555
Fe1 O46 1.894364 1_655
Fe1 O0 1.934042 1_545
Fe1 O42 1.955090 1_555
Fe1 O43 2.009876 1_555
Fe1 O2 2.088867 1_555
Fe2 O36 1.916690 1_555
Fe2 O33 2.005560 1_455
Fe2 O40 2.011384 1_555
Fe2 O7 2.088050 1_565
Fe2 O45 2.108787 1_455
Fe2 O30 2.310398 1_455
Fe3 O34 1.965740 1_555
Fe3 O31 1.996810 1_455
Fe3 O23 2.014028 1_555
Fe3 O38 2.041808 1_555
Fe3 O27 2.051980 1_455
Fe3 O43 2.379348 1_455
Fe4 O29 1.965564 1_555
Fe4 O32 1.976676 1_655
Fe4 O9 2.013578 1_545
Fe4 O35 2.055066 1_655
Fe4 O25 2.055806 1_555
Fe4 O20 2.385670 1_655
Fe5 O28 1.900592 1_555
Fe5 O41 1.921524 1_555
Fe5 O30 1.971743 1_555
Fe5 O8 2.004451 1_565
Fe5 O33 2.087524 1_555
Fe6 O17 1.897293 1_455
Fe6 O11 1.925431 1_555
Fe6 O16 1.957478 1_555
Fe6 O20 2.012046 1_555
Fe6 O14 2.088835 1_555
Fe7 O15 1.936890 1_555
Fe7 O2 2.031674 1_565
Fe7 O18 2.032455 1_555
Fe7 O47 2.056326 1_565
Fe7 O22 2.119788 1_555
Fe7 O42 2.212103 1_565
Fe8 O13 1.939039 1_555
Fe8 O14 2.024085 1_555
Fe8 O12 2.032236 1_555
Fe8 O21 2.070468 1_555
Fe8 O10 2.111679 1_555
Fe8 O16 2.223709 1_555
O0 P3 1.558509 1_555
O1 P5 1.513238 1_555
O2 P6 1.600628 1_555
O3 P7 1.546743 1_555
O4 P8 1.543891 1_555
O5 P1 1.541216 1_554
O6 P11 1.494341 1_555
O7 P8 1.547724 1_555
O8 P11 1.601769 1_555
O9 P10 1.564095 1_555
O10 P9 1.544922 1_555
O11 P9 1.564095 1_555
O12 P7 1.549875 1_556
O13 P10 1.556557 1_555
O14 P1 1.598719 1_555
O15 P0 1.556630 1_555
O16 P0 1.593031 1_555
O17 P2 1.562218 1_555
O18 P8 1.550127 1_565
O19 P6 1.540983 1_555
O20 P1 1.601210 1_555
O21 P2 1.548787 1_555
O22 P3 1.538803 1_555
O23 P0 1.564930 1_555
O24 P1 1.494270 1_555
O25 P11 1.537547 1_556
O26 P0 1.496294 1_555
O27 P2 1.546381 1_555
O28 P8 1.560798 1_565
O29 P2 1.546639 1_555
O30 P3 1.577193 1_555
O31 P3 1.537855 1_555
O32 P9 1.546012 1_545
O33 P11 1.602191 1_565
O34 P4 1.546141 1_555
O35 P4 1.543215 1_555
O36 P5 1.563538 1_555
O37 P10 1.494491 1_545
O38 P5 1.551766 1_555
O39 P6 1.491910 1_555
O40 P9 1.553079 1_554
O41 P7 1.564983 1_555
O42 P10 1.597321 1_545
O43 P6 1.600691 1_555
O44 P5 1.570487 1_555
O45 P7 1.548714 1_555
O46 P4 1.563404 1_555
O47 P4 1.550025 1_555
