# generated using pymatgen
data_Na4Mg(MoO4)2
_symmetry_space_group_name_H-M   'P 1'
_cell_length_a   6.64536843
_cell_length_b   6.76510541
_cell_length_c   6.76510530
_cell_angle_alpha   57.11182590
_cell_angle_beta   60.58378263
_cell_angle_gamma   60.58378221
_symmetry_Int_Tables_number   1
_chemical_formula_structural   Na4Mg(MoO4)2
_chemical_formula_sum   'Na4 Mg1 Mo2 O8'
_cell_volume   211.73373799
_cell_formula_units_Z   1
loop_
 _symmetry_equiv_pos_site_id
 _symmetry_equiv_pos_as_xyz
  1  'x, y, z'
loop_
 _atom_site_type_symbol
 _atom_site_label
 _atom_site_symmetry_multiplicity
 _atom_site_fract_x
 _atom_site_fract_y
 _atom_site_fract_z
 _atom_site_occupancy
  Na  Na0  1  0.09527900  0.93097800  0.93097800  1
  Na  Na1  1  0.00364500  0.01798900  0.47472000  1
  Na  Na2  1  0.00364500  0.47472000  0.01798900  1
  Na  Na3  1  0.54276500  0.93097800  0.93097800  1
  Mg  Mg0  1  0.59596600  0.15403400  0.15403400  1
  Mo  Mo0  1  0.31140200  0.43859800  0.43859800  1
  Mo  Mo1  1  0.64861700  0.60138300  0.60138300  1
  O  O0  1  0.79012900  0.69774700  0.69774700  1
  O  O1  1  0.23936800  0.24981100  0.77145500  1
  O  O2  1  0.23936800  0.77145500  0.24981100  1
  O  O3  1  0.65856000  0.29833800  0.29833800  1
  O  O4  1  0.73105700  0.24926400  0.78862000  1
  O  O5  1  0.31437600  0.69774700  0.69774700  1
  O  O6  1  0.24476500  0.29833800  0.29833800  1
  O  O7  1  0.73105700  0.78862000  0.24926400  1
loop_
_geom_bond_atom_site_label_1
_geom_bond_atom_site_label_2
_geom_bond_distance
_geom_bond_site_symmetry_2
Na0 O2 2.284657 1_556
Na0 O1 2.284657 1_565
Na0 O5 2.299866 1_555
Na0 O4 2.518029 1_465
Na0 O7 2.518029 1_456
Na1 O2 2.323538 1_545
Na1 O3 2.497523 1_455
Na1 O6 2.497534 1_555
Na1 O0 2.519937 1_445
Na1 O5 2.519937 1_545
Na1 O4 2.698973 1_455
Na2 O1 2.323538 1_554
Na2 O3 2.497523 1_455
Na2 O6 2.497534 1_555
Na2 O0 2.519937 1_454
Na2 O5 2.519937 1_554
Na2 O7 2.698973 1_455
Na3 O1 2.284648 1_565
Na3 O2 2.284648 1_556
Na3 O0 2.299866 1_555
Na3 O7 2.518019 1_556
Na3 O4 2.518019 1_565
Mg0 O6 1.977834 1_555
Mg0 O3 1.977838 1_555
Mg0 O4 1.997660 1_554
Mg0 O7 1.997660 1_545
Mo0 O1 1.830132 1_555
Mo0 O2 1.830132 1_555
Mo0 O6 1.949388 1_555
Mo0 O3 1.949393 1_555
Mo1 O0 1.843987 1_555
Mo1 O5 1.843992 1_555
Mo1 O7 1.924047 1_555
Mo1 O4 1.924047 1_555
