# generated using pymatgen
data_Na6Mg4Ta8Si9(SO8)9
_symmetry_space_group_name_H-M   'P 1'
_cell_length_a   8.82427842
_cell_length_b   8.82501198
_cell_length_c   22.80716152
_cell_angle_alpha   90.07820055
_cell_angle_beta   90.08311133
_cell_angle_gamma   119.82156640
_symmetry_Int_Tables_number   1
_chemical_formula_structural   Na6Mg4Ta8Si9(SO8)9
_chemical_formula_sum   'Na6 Mg4 Ta8 Si9 S9 O72'
_cell_volume   1540.89386799
_cell_formula_units_Z   1
loop_
 _symmetry_equiv_pos_site_id
 _symmetry_equiv_pos_as_xyz
  1  'x, y, z'
loop_
 _atom_site_type_symbol
 _atom_site_label
 _atom_site_symmetry_multiplicity
 _atom_site_fract_x
 _atom_site_fract_y
 _atom_site_fract_z
 _atom_site_occupancy
  Na  Na0  1  -0.00166378  -0.00037849  0.49093299  1
  Na  Na1  1  0.98739046  0.00704928  0.99848081  1
  Na  Na2  1  0.68553505  0.33970461  0.81851971  1
  Na  Na3  1  0.66428925  0.31592511  0.32034558  1
  Na  Na4  1  0.32706243  0.66600179  0.17168970  1
  Na  Na5  1  0.33134758  0.67546358  0.65808894  1
  Mg  Mg0  1  0.67806532  0.33696359  0.68941116  1
  Mg  Mg1  1  0.66502090  0.32363690  0.19206219  1
  Mg  Mg2  1  0.33752902  0.65905896  0.01835220  1
  Mg  Mg3  1  0.33196791  0.67126002  0.51247716  1
  Ta  Ta0  1  0.01191954  0.01374813  0.35604427  1
  Ta  Ta1  1  0.98092770  0.98986950  0.85416103  1
  Ta  Ta2  1  0.98868063  0.98610046  0.64495183  1
  Ta  Ta3  1  0.00986082  0.00731097  0.14971347  1
  Ta  Ta4  1  0.67457315  0.33678812  0.97628471  1
  Ta  Ta5  1  0.66578806  0.32694552  0.47254174  1
  Ta  Ta6  1  0.32063548  0.66365002  0.31653058  1
  Ta  Ta7  1  0.33035431  0.65811056  0.81083328  1
  Si  Si0  1  0.29788360  0.00022305  0.25122100  1
  Si  Si1  1  0.00497297  0.30139954  0.25101002  1
  Si  Si2  1  0.99928285  0.70862127  0.74979114  1
  Si  Si3  1  0.70175426  -0.00078063  0.74885854  1
  Si  Si4  1  0.61427880  0.66607047  0.92112045  1
  Si  Si5  1  0.05596586  0.38038787  0.91978263  1
  Si  Si6  1  0.61689356  0.94004170  0.41957820  1
  Si  Si7  1  0.33305418  0.38910201  0.42115945  1
  Si  Si8  1  0.04948757  0.67431355  0.42168796  1
  S  S0  1  0.71145853  0.71457271  0.24796321  1
  S  S1  1  0.28246931  0.28373403  0.74922691  1
  S  S2  1  0.95862631  0.33547515  0.58556261  1
  S  S3  1  0.38056601  0.04949846  0.58683110  1
  S  S4  1  0.66085368  0.61497023  0.58583722  1
  S  S5  1  0.95480276  0.62386786  0.08359119  1
  S  S6  1  0.66284709  0.04046078  0.08414056  1
  S  S7  1  0.37870618  0.33016623  0.08488694  1
  S  S8  1  0.33397963  0.95364700  0.91770274  1
  O  O0  1  0.17783766  -0.00007649  0.30487316  1
  O  O1  1  0.81607433  0.79871241  0.30031927  1
  O  O2  1  0.98403192  0.17295649  0.30500436  1
  O  O3  1  0.19954808  0.18437806  0.80292320  1
  O  O4  1  0.00175716  0.82562582  0.80606619  1
  O  O5  1  0.82515783  0.01741688  0.80665701  1
  O  O6  1  0.80922398  0.97708183  0.69181060  1
  O  O7  1  0.17137808  0.20130148  0.69624448  1
  O  O8  1  0.03159413  0.83564523  0.69117149  1
  O  O9  1  0.80402328  0.82943508  0.19310759  1
  O  O10  1  0.02389306  0.19254256  0.19062110  1
  O  O11  1  0.16817605  0.96988015  0.19006438  1
  O  O12  1  0.86919979  0.34464801  0.63808413  1
  O  O13  1  0.47960229  0.14074628  0.63898276  1
  O  O14  1  0.65662845  0.52006338  0.63847818  1
  O  O15  1  0.86578424  0.52093717  0.13447934  1
  O  O16  1  0.65554662  0.13246931  0.13582840  1
  O  O17  1  0.47995621  0.34032645  0.13618803  1
  O  O18  1  0.46210891  0.30743772  0.02982894  1
  O  O19  1  0.84422845  0.52954084  0.02821577  1
  O  O20  1  0.68341394  0.14991205  0.02912103  1
  O  O21  1  0.46339245  0.15154325  0.53248778  1
  O  O22  1  0.68684619  0.53708647  0.53207190  1
  O  O23  1  0.85134858  0.30828797  0.53182047  1
  O  O24  1  0.55317693  0.71727356  0.97823227  1
  O  O25  1  0.15729467  0.45782876  0.97836360  1
  O  O26  1  0.30074779  0.85007303  0.97019068  1
  O  O27  1  0.55371151  0.83904996  0.47896753  1
  O  O28  1  0.29180506  0.45326964  0.47975879  1
  O  O29  1  0.15941359  0.72009204  0.47970503  1
  O  O30  1  0.12971476  0.62974548  0.36181485  1
  O  O31  1  0.49389211  0.86045117  0.36017938  1
  O  O32  1  0.36880250  0.50539548  0.36111089  1
  O  O33  1  0.13645704  0.50188479  0.86008882  1
  O  O34  1  0.36687107  0.87696548  0.86396154  1
  O  O35  1  0.49466147  0.63613996  0.86191218  1
  O  O36  1  0.00292129  0.82516666  0.40412949  1
  O  O37  1  0.81374661  0.98130976  0.40290974  1
  O  O38  1  0.17519269  0.18688799  0.40718846  1
  O  O39  1  0.03031813  0.18569368  0.90633394  1
  O  O40  1  0.18789337  0.98898517  0.90791366  1
  O  O41  1  0.81852575  0.82126233  0.90647677  1
  O  O42  1  0.97551106  0.16910523  0.58979217  1
  O  O43  1  0.19992766  0.03950326  0.59005502  1
  O  O44  1  0.83334459  0.79994580  0.58901223  1
  O  O45  1  0.95837651  0.79701376  0.08313345  1
  O  O46  1  0.82632825  0.02466641  0.08471691  1
  O  O47  1  0.19724589  0.16131174  0.08647947  1
  O  O48  1  0.67546852  0.16237611  0.74558729  1
  O  O49  1  0.45570772  0.30832615  0.74337022  1
  O  O50  1  0.82389181  0.52891476  0.74630359  1
  O  O51  1  0.69620898  0.54568760  0.23841082  1
  O  O52  1  0.84332439  0.32970164  0.24430568  1
  O  O53  1  0.47382023  0.17869567  0.24563598  1
  O  O54  1  0.63266648  0.48630998  0.92854889  1
  O  O55  1  0.84939828  0.34620773  0.92693809  1
  O  O56  1  0.49640981  0.13222391  0.92459520  1
  O  O57  1  0.63851765  0.14060299  0.42644923  1
  O  O58  1  0.50758291  0.36143981  0.42844418  1
  O  O59  1  0.85566405  0.49162845  0.42953604  1
  O  O60  1  0.35190867  0.48028573  0.08089094  1
  O  O61  1  0.13189259  0.65285267  0.07668776  1
  O  O62  1  0.50618113  0.86848395  0.07895470  1
  O  O63  1  0.35165018  0.87144001  0.58408249  1
  O  O64  1  0.51608731  0.64933215  0.58344508  1
  O  O65  1  0.13414351  0.48661508  0.58240219  1
  O  O66  1  0.30906879  0.82146411  0.25430489  1
  O  O67  1  0.54217042  0.70970689  0.24926960  1
  O  O68  1  0.19437281  0.47893764  0.25449264  1
  O  O69  1  0.29058026  0.45988048  0.75390069  1
  O  O70  1  0.17865630  0.69669780  0.75783042  1
  O  O71  1  0.52082819  0.81228924  0.75736382  1
loop_
_geom_bond_atom_site_label_1
_geom_bond_atom_site_label_2
_geom_bond_distance
_geom_bond_site_symmetry_2
Na0 O38 2.503358 1_555
Na0 O36 2.518957 1_545
Na0 O37 2.537214 1_445
Na0 O42 2.766419 1_455
Na0 O44 2.774372 1_445
Na0 O43 2.786132 1_555
Na1 O46 2.477801 1_556
Na1 O39 2.542263 1_655
Na1 O45 2.601540 1_546
Na1 O47 2.604799 1_656
Na1 O41 2.619787 1_545
Na1 O40 2.777169 1_645
Na2 O50 2.230972 1_555
Na2 O48 2.253426 1_555
Na2 O49 2.560737 1_555
Na2 O55 2.848712 1_555
Na2 O54 2.963743 1_555
Na2 O56 2.995878 1_555
Na3 O53 2.270785 1_555
Na3 O52 2.309946 1_555
Na3 O51 2.669568 1_555
Na3 O57 2.821966 1_555
Na3 O58 2.951518 1_555
Na3 O59 2.971656 1_555
Na4 O66 2.380805 1_555
Na4 O68 2.398980 1_555
Na4 O67 2.478456 1_555
Na4 O60 2.715168 1_555
Na4 O62 2.715791 1_555
Na4 O61 2.732026 1_555
Na5 O63 2.360688 1_555
Na5 O65 2.425788 1_555
Na5 O64 2.447411 1_555
Na5 O70 2.698933 1_555
Na5 O71 2.711773 1_555
Na5 O69 2.803032 1_555
Mg0 O48 1.996565 1_555
Mg0 O50 2.007530 1_555
Mg0 O12 2.027768 1_555
Mg0 O14 2.074772 1_555
Mg0 O13 2.088265 1_555
Mg0 O49 2.223295 1_555
Mg1 O52 1.951619 1_555
Mg1 O53 1.959470 1_555
Mg1 O16 2.086034 1_555
Mg1 O51 2.119033 1_555
Mg1 O17 2.132184 1_555
Mg1 O15 2.199997 1_555
Mg2 O25 1.922807 1_554
Mg2 O24 1.938132 1_554
Mg2 O26 2.168333 1_554
Mg2 O60 2.178144 1_555
Mg2 O62 2.189152 1_555
Mg2 O61 2.230302 1_555
Mg3 O28 1.923673 1_555
Mg3 O29 1.926944 1_555
Mg3 O27 1.931616 1_555
Mg3 O65 2.330648 1_555
Mg3 O63 2.346104 1_555
Mg3 O64 2.367043 1_555
O0 Si0 1.618788 1_555
O0 Ta0 1.924259 1_555
O1 S0 1.463572 1_555
O1 Ta0 2.219982 1_665
O2 Si1 1.622228 1_655
O2 Ta0 1.933190 1_655
O3 S1 1.473576 1_555
O3 Ta1 2.179954 1_445
O4 Si2 1.639468 1_455
O4 Ta1 1.897136 1_455
O5 Si3 1.664519 1_555
O5 Ta1 1.857711 1_545
O6 Si3 1.678554 1_565
O6 Ta2 1.880422 1_555
O7 S1 1.495077 1_555
O7 Ta2 2.125473 1_445
O8 Si2 1.677093 1_455
O8 Ta2 1.876254 1_455
O9 S0 1.562970 1_555
O9 Ta3 1.978995 1_665
O10 Si1 1.733287 1_555
O10 Ta3 1.830882 1_555
O11 Si0 1.736883 1_565
O11 Ta3 1.834064 1_565
O12 S2 1.459510 1_555
O13 S3 1.456492 1_555
O14 S4 1.454689 1_555
O15 S5 1.443964 1_555
O16 S6 1.450098 1_555
O17 S7 1.446473 1_555
O18 S7 1.519054 1_555
O18 Ta4 2.144283 1_554
O19 S5 1.557490 1_555
O19 Ta4 1.998529 1_554
O20 S6 1.539531 1_555
O20 Ta4 2.076330 1_554
O21 S3 1.494109 1_555
O21 Ta5 2.172162 1_555
O22 S4 1.477832 1_555
O22 Ta5 2.228614 1_555
O23 S2 1.491976 1_555
O23 Ta5 2.190548 1_555
O24 Si4 1.560228 1_555
O25 Si5 1.561378 1_555
O26 S8 1.446350 1_555
O27 Si6 1.565605 1_555
O28 Si7 1.563237 1_555
O29 Si8 1.568460 1_555
O30 Si8 1.672977 1_555
O30 Ta6 1.870583 1_555
O31 Si6 1.655773 1_555
O31 Ta6 1.922172 1_555
O32 Si7 1.646666 1_555
O32 Ta6 1.938544 1_555
O33 Si5 1.660422 1_555
O33 Ta7 1.937498 1_555
O34 S8 1.496197 1_555
O34 Ta7 2.162368 1_555
O35 Si4 1.650764 1_555
O35 Ta7 1.942226 1_555
O36 Si8 1.626835 1_555
O36 Ta0 1.962780 1_565
O37 Si6 1.633310 1_555
O37 Ta0 1.947010 1_665
O38 Si7 1.658703 1_555
O38 Ta0 1.889920 1_555
O39 Si5 1.645915 1_555
O39 Ta1 1.958601 1_445
O40 S8 1.485968 1_555
O40 Ta1 2.201400 1_455
O41 Si4 1.668403 1_555
O41 Ta1 1.892184 1_555
O42 S2 1.550834 1_555
O42 Ta2 2.096721 1_545
O43 S3 1.553881 1_555
O43 Ta2 2.097427 1_445
O44 S4 1.585840 1_555
O44 Ta2 1.988712 1_555
O45 S5 1.512630 1_555
O45 Ta3 2.260139 1_665
O46 S6 1.516789 1_555
O46 Ta3 2.254821 1_655
O47 S7 1.553372 1_555
O47 Ta3 2.106723 1_555
O48 Si3 1.570027 1_555
O49 S1 1.439643 1_555
O50 Si2 1.573166 1_555
O51 S0 1.444457 1_555
O52 Si1 1.572989 1_655
O53 Si0 1.573626 1_555
O54 Si4 1.681763 1_555
O54 Ta4 1.884489 1_555
O55 Si5 1.701290 1_655
O55 Ta4 1.879161 1_555
O56 S8 1.521434 1_545
O56 Ta4 2.070377 1_555
O57 Si6 1.690253 1_545
O57 Ta5 1.862328 1_555
O58 Si7 1.682968 1_555
O58 Ta5 1.863483 1_555
O59 Si8 1.677994 1_655
O59 Ta5 1.862336 1_555
O60 S7 1.459858 1_555
O61 S5 1.461328 1_455
O62 S6 1.463148 1_565
O63 S3 1.462577 1_565
O64 S4 1.453261 1_555
O65 S2 1.459104 1_455
O66 Si0 1.630491 1_565
O66 Ta6 2.027443 1_555
O67 S0 1.473308 1_555
O67 Ta6 2.357999 1_555
O68 Si1 1.627645 1_555
O68 Ta6 2.020712 1_555
O69 S1 1.523747 1_555
O69 Ta7 2.061880 1_555
O70 Si2 1.647708 1_455
O70 Ta7 1.954226 1_555
O71 Si3 1.640181 1_565
O71 Ta7 1.974693 1_555
