# generated using pymatgen
data_U(PS3)2
_symmetry_space_group_name_H-M   'P 1'
_cell_length_a   6.96916867
_cell_length_b   6.96916867
_cell_length_c   9.75447972
_cell_angle_alpha   90.00000000
_cell_angle_beta   90.00000000
_cell_angle_gamma   90.00000000
_symmetry_Int_Tables_number   1
_chemical_formula_structural   U(PS3)2
_chemical_formula_sum   'U2 P4 S12'
_cell_volume   473.76836797
_cell_formula_units_Z   2
loop_
 _symmetry_equiv_pos_site_id
 _symmetry_equiv_pos_as_xyz
  1  'x, y, z'
loop_
 _atom_site_type_symbol
 _atom_site_label
 _atom_site_symmetry_multiplicity
 _atom_site_fract_x
 _atom_site_fract_y
 _atom_site_fract_z
 _atom_site_occupancy
  U  U0  1  0.00000000  0.00000000  0.75000000  1
  U  U1  1  0.00000000  0.00000000  0.25000000  1
  P  P0  1  0.05896681  0.34795107  0.50000000  1
  P  P1  1  0.94103319  0.65204893  0.50000000  1
  P  P2  1  0.34795107  0.94103319  -0.00000000  1
  P  P3  1  0.65204893  0.05896681  -0.00000000  1
  S  S0  1  0.20978429  0.31846403  0.67382102  1
  S  S1  1  0.68153597  0.20978429  0.17382102  1
  S  S2  1  0.17286112  0.17492731  -0.00000000  1
  S  S3  1  0.82507269  0.17286112  0.50000000  1
  S  S4  1  0.17492731  0.82713888  0.50000000  1
  S  S5  1  0.82713888  0.82507269  -0.00000000  1
  S  S6  1  0.20978429  0.31846403  0.32617898  1
  S  S7  1  0.68153597  0.20978429  0.82617898  1
  S  S8  1  0.31846403  0.79021571  0.82617898  1
  S  S9  1  0.79021571  0.68153597  0.32617898  1
  S  S10  1  0.79021571  0.68153597  0.67382102  1
  S  S11  1  0.31846403  0.79021571  0.17382102  1
loop_
_geom_bond_atom_site_label_1
_geom_bond_atom_site_label_2
_geom_bond_distance
_geom_bond_site_symmetry_2
P0 S0 2.005447 1_555
P0 S6 2.005447 1_555
P0 S3 2.036178 1_455
P0 P1 2.273101 1_455
P1 S9 2.005447 1_555
P1 S10 2.005447 1_555
P1 S4 2.036178 1_655
P2 S11 2.005447 1_555
P2 S8 2.005447 1_554
P2 S2 2.036178 1_565
P2 P3 2.273101 1_565
P3 S1 2.005447 1_555
P3 S7 2.005447 1_554
P3 S5 2.036178 1_545
S0 U0 2.759629 1_555
S1 U1 2.759629 1_655
S2 U1 2.980665 1_555
S2 U0 2.980665 1_554
S3 U0 2.980665 1_655
S3 U1 2.980665 1_655
S4 U1 2.980665 1_565
S4 U0 2.980665 1_565
S5 U1 2.980665 1_665
S5 U0 2.980665 1_664
S6 U1 2.759629 1_555
S7 U0 2.759629 1_655
S8 U0 2.759629 1_565
S9 U1 2.759629 1_665
S10 U0 2.759629 1_665
S11 U1 2.759629 1_565
