# generated using pymatgen
data_Nd3PO7
_symmetry_space_group_name_H-M   'P 1'
_cell_length_a   9.28657869
_cell_length_b   9.28657869
_cell_length_c   12.32395447
_cell_angle_alpha   102.88938922
_cell_angle_beta   102.88938922
_cell_angle_gamma   90.94553351
_symmetry_Int_Tables_number   1
_chemical_formula_structural   Nd3PO7
_chemical_formula_sum   'Nd18 P6 O42'
_cell_volume   1007.47992135
_cell_formula_units_Z   6
loop_
 _symmetry_equiv_pos_site_id
 _symmetry_equiv_pos_as_xyz
  1  'x, y, z'
loop_
 _atom_site_type_symbol
 _atom_site_label
 _atom_site_symmetry_multiplicity
 _atom_site_fract_x
 _atom_site_fract_y
 _atom_site_fract_z
 _atom_site_occupancy
  Nd  Nd0  1  0.16394514  0.85536612  0.83573902  1
  Nd  Nd1  1  0.85536612  0.16394514  0.83573902  1
  Nd  Nd2  1  0.15261174  0.49843636  0.29580926  1
  Nd  Nd3  1  0.49843636  0.15261174  0.29580926  1
  Nd  Nd4  1  0.15519122  0.81013737  0.16142402  1
  Nd  Nd5  1  0.81013737  0.15519122  0.16142402  1
  Nd  Nd6  1  0.50810566  0.85297421  0.05373285  1
  Nd  Nd7  1  0.85297421  0.50810566  0.05373285  1
  Nd  Nd8  1  0.49392098  0.80722993  0.71963719  1
  Nd  Nd9  1  0.80722993  0.49392098  0.71963719  1
  Nd  Nd10  1  0.16940907  0.85608774  0.49581013  1
  Nd  Nd11  1  0.85608774  0.16940907  0.49581013  1
  Nd  Nd12  1  0.14179375  0.52145896  0.60761825  1
  Nd  Nd13  1  0.52145896  0.14179375  0.60761825  1
  Nd  Nd14  1  0.16477453  0.51029141  0.91936183  1
  Nd  Nd15  1  0.51029141  0.16477453  0.91936183  1
  Nd  Nd16  1  0.80780775  0.49934296  0.37953152  1
  Nd  Nd17  1  0.49934296  0.80780775  0.37953152  1
  P  P0  1  0.83576914  0.83576914  0.92718526  1
  P  P1  1  0.16441874  0.16441874  0.34252605  1
  P  P2  1  0.82771629  0.82771629  0.28799934  1
  P  P3  1  0.49863766  0.49863766  0.87221150  1
  P  P4  1  0.49475695  0.49475695  0.49565827  1
  P  P5  1  0.16822086  0.16822086  0.71990555  1
  O  O0  1  0.22749894  0.77403787  0.66317379  1
  O  O1  1  0.77403787  0.22749894  0.66317379  1
  O  O2  1  0.41402161  0.92528000  0.88531349  1
  O  O3  1  0.92528000  0.41402161  0.88531349  1
  O  O4  1  0.25281214  0.75786021  0.99580891  1
  O  O5  1  0.75786021  0.25281214  0.99580891  1
  O  O6  1  0.94363051  0.94363051  0.89815750  1
  O  O7  1  0.13266543  0.13266543  0.82891017  1
  O  O8  1  0.25883023  0.25883023  0.28966640  1
  O  O9  1  0.24916160  0.73783821  0.32991054  1
  O  O10  1  0.73783821  0.24916160  0.32991054  1
  O  O11  1  0.11807050  0.54505062  0.10755501  1
  O  O12  1  0.54505062  0.11807050  0.10755501  1
  O  O13  1  0.05839345  0.05839345  0.23842444  1
  O  O14  1  0.92984310  0.73824421  0.99589421  1
  O  O15  1  0.73824421  0.92984310  0.99589421  1
  O  O16  1  0.92498400  0.73342813  0.21916317  1
  O  O17  1  0.73342813  0.92498400  0.21916317  1
  O  O18  1  0.60476870  0.60476870  0.97616867  1
  O  O19  1  0.41052874  0.90502848  0.21929168  1
  O  O20  1  0.90502848  0.41052874  0.21929168  1
  O  O21  1  0.43590647  0.88899202  0.55208044  1
  O  O22  1  0.88899202  0.43590647  0.55208044  1
  O  O23  1  0.59660493  0.59660493  0.60238006  1
  O  O24  1  0.73951309  0.73951309  0.81596008  1
  O  O25  1  0.61894233  0.04729014  0.77121961  1
  O  O26  1  0.04729014  0.61894233  0.77121961  1
  O  O27  1  0.92425167  0.92425167  0.39897540  1
  O  O28  1  0.04422586  0.61611830  0.44411459  1
  O  O29  1  0.61611830  0.04422586  0.44411459  1
  O  O30  1  0.26871541  0.07629258  0.41455207  1
  O  O31  1  0.07629258  0.26871541  0.41455207  1
  O  O32  1  0.32969066  0.13895633  0.71877345  1
  O  O33  1  0.13895633  0.32969066  0.71877345  1
  O  O34  1  0.06528075  0.06528075  0.61427464  1
  O  O35  1  0.33296561  0.52364719  0.49573604  1
  O  O36  1  0.52364719  0.33296561  0.49573604  1
  O  O37  1  0.39420832  0.58664095  0.80019037  1
  O  O38  1  0.58664095  0.39420832  0.80019037  1
  O  O39  1  0.40430985  0.40430985  0.92519160  1
  O  O40  1  0.72006917  0.72006917  0.31742468  1
  O  O41  1  0.53199513  0.53199513  0.38771148  1
loop_
_geom_bond_atom_site_label_1
_geom_bond_atom_site_label_2
_geom_bond_distance
_geom_bond_site_symmetry_2
Nd0 O0 2.302096 1_555
Nd0 O2 2.308332 1_555
Nd0 O26 2.320495 1_555
Nd0 O4 2.342602 1_555
Nd0 O6 2.434294 1_455
Nd0 O7 2.614075 1_565
Nd1 O1 2.302096 1_555
Nd1 O3 2.308332 1_555
Nd1 O25 2.320495 1_555
Nd1 O5 2.342602 1_555
Nd1 O6 2.434294 1_545
Nd1 O7 2.614075 1_655
Nd2 O9 2.296198 1_555
Nd2 O20 2.338659 1_455
Nd2 O28 2.348167 1_555
Nd2 O11 2.406966 1_555
Nd2 O8 2.441413 1_555
Nd2 O35 2.611393 1_555
Nd3 O10 2.296198 1_555
Nd3 O19 2.338659 1_545
Nd3 O29 2.348167 1_555
Nd3 O12 2.406966 1_555
Nd3 O8 2.441413 1_555
Nd3 O36 2.611393 1_555
Nd4 O9 2.314467 1_555
Nd4 O4 2.370933 1_554
Nd4 O11 2.400113 1_555
Nd4 O19 2.409149 1_555
Nd4 O14 2.535422 1_454
Nd4 O16 2.537463 1_455
Nd4 O13 2.548840 1_565
Nd5 O10 2.314467 1_555
Nd5 O5 2.370933 1_554
Nd5 O12 2.400113 1_555
Nd5 O20 2.409149 1_555
Nd5 O15 2.535422 1_544
Nd5 O17 2.537463 1_545
Nd5 O13 2.548840 1_655
Nd6 O2 2.313964 1_554
Nd6 O19 2.370034 1_555
Nd6 O12 2.400084 1_565
Nd6 O4 2.409360 1_554
Nd6 O17 2.534657 1_555
Nd6 O15 2.538029 1_554
Nd6 O18 2.549628 1_554
Nd7 O3 2.313964 1_554
Nd7 O20 2.370034 1_555
Nd7 O11 2.400084 1_655
Nd7 O5 2.409360 1_554
Nd7 O16 2.534657 1_555
Nd7 O14 2.538029 1_554
Nd7 O18 2.549628 1_554
Nd8 O21 2.312470 1_555
Nd8 O2 2.371792 1_555
Nd8 O25 2.382240 1_565
Nd8 O0 2.410743 1_555
Nd8 O24 2.485713 1_555
Nd8 O23 2.497746 1_555
Nd8 O37 2.700777 1_555
Nd9 O22 2.312470 1_555
Nd9 O3 2.371792 1_555
Nd9 O26 2.382240 1_655
Nd9 O1 2.410743 1_555
Nd9 O24 2.485713 1_555
Nd9 O23 2.497746 1_555
Nd9 O38 2.700777 1_555
Nd10 O0 2.311744 1_555
Nd10 O9 2.373881 1_555
Nd10 O28 2.382058 1_555
Nd10 O21 2.411219 1_555
Nd10 O27 2.486074 1_455
Nd10 O34 2.503411 1_565
Nd10 O30 2.701583 1_565
Nd11 O1 2.311744 1_555
Nd11 O10 2.373881 1_555
Nd11 O29 2.382058 1_555
Nd11 O22 2.411219 1_555
Nd11 O27 2.486074 1_545
Nd11 O34 2.503411 1_655
Nd11 O31 2.701583 1_655
Nd12 O0 2.362804 1_555
Nd12 O22 2.364352 1_455
Nd12 O28 2.378233 1_555
Nd12 O26 2.378279 1_555
Nd12 O33 2.480259 1_555
Nd12 O35 2.481290 1_555
Nd12 O37 2.885089 1_555
Nd12 O31 2.890660 1_555
Nd13 O1 2.362804 1_555
Nd13 O21 2.364352 1_545
Nd13 O29 2.378233 1_555
Nd13 O25 2.378279 1_555
Nd13 O32 2.480259 1_555
Nd13 O36 2.481290 1_555
Nd13 O38 2.885089 1_555
Nd13 O30 2.890660 1_555
Nd14 O3 2.296202 1_455
Nd14 O4 2.338742 1_555
Nd14 O26 2.347574 1_555
Nd14 O11 2.406406 1_556
Nd14 O39 2.440197 1_555
Nd14 O33 2.618006 1_555
Nd15 O2 2.296202 1_545
Nd15 O5 2.338742 1_555
Nd15 O25 2.347574 1_555
Nd15 O12 2.406406 1_556
Nd15 O39 2.440197 1_555
Nd15 O32 2.618006 1_555
Nd16 O22 2.301235 1_555
Nd16 O10 2.309344 1_555
Nd16 O28 2.320890 1_655
Nd16 O20 2.342764 1_555
Nd16 O40 2.434792 1_555
Nd16 O41 2.605733 1_555
Nd17 O21 2.301235 1_555
Nd17 O9 2.309344 1_555
Nd17 O29 2.320890 1_565
Nd17 O19 2.342764 1_555
Nd17 O40 2.434792 1_555
Nd17 O41 2.605733 1_555
O6 P0 1.556037 1_555
O7 P5 1.553985 1_555
O8 P1 1.563985 1_555
O13 P1 1.557480 1_555
O14 P0 1.529280 1_555
O15 P0 1.529280 1_555
O16 P2 1.529336 1_555
O17 P2 1.529336 1_555
O18 P3 1.557378 1_555
O23 P4 1.542561 1_555
O24 P0 1.535357 1_555
O27 P2 1.535361 1_555
O30 P1 1.537035 1_555
O31 P1 1.537035 1_555
O32 P5 1.530898 1_555
O33 P5 1.530898 1_555
O34 P5 1.543313 1_555
O35 P4 1.530779 1_555
O36 P4 1.530779 1_555
O37 P3 1.536864 1_555
O38 P3 1.536864 1_555
O39 P3 1.563974 1_555
O40 P2 1.555855 1_555
O41 P4 1.554189 1_555
