# generated using pymatgen
data_Sr(NiO2)4
_symmetry_space_group_name_H-M   'P 1'
_cell_length_a   5.54021930
_cell_length_b   6.76812781
_cell_length_c   9.99088513
_cell_angle_alpha   105.73859693
_cell_angle_beta   90.00055404
_cell_angle_gamma   65.90816292
_symmetry_Int_Tables_number   1
_chemical_formula_structural   Sr(NiO2)4
_chemical_formula_sum   'Sr2 Ni8 O16'
_cell_volume   326.54927167
_cell_formula_units_Z   2
loop_
 _symmetry_equiv_pos_site_id
 _symmetry_equiv_pos_as_xyz
  1  'x, y, z'
loop_
 _atom_site_type_symbol
 _atom_site_label
 _atom_site_symmetry_multiplicity
 _atom_site_fract_x
 _atom_site_fract_y
 _atom_site_fract_z
 _atom_site_occupancy
  Sr  Sr0  1  0.74945962  0.50105353  0.75039271  1
  Sr  Sr1  1  0.25054411  0.49894493  0.24961048  1
  Ni  Ni0  1  0.24917121  0.00139185  0.75029268  1
  Ni  Ni1  1  0.75082959  0.99860644  0.24970512  1
  Ni  Ni2  1  0.99999819  0.00000238  0.49999666  1
  Ni  Ni3  1  0.49999548  0.00000942  0.99999580  1
  Ni  Ni4  1  0.74927741  0.00138578  0.75029237  1
  Ni  Ni5  1  0.25072321  0.99861363  0.24970584  1
  Ni  Ni6  1  0.49999977  0.00000185  0.49999630  1
  Ni  Ni7  1  0.99999384  0.00000658  0.99999618  1
  O  O0  1  0.08600432  0.82738982  0.64709777  1
  O  O1  1  0.58736097  0.82488636  0.14627393  1
  O  O2  1  0.41263895  0.17511341  0.85372956  1
  O  O3  1  0.91399753  0.17260697  0.35290770  1
  O  O4  1  0.82765882  0.84333389  0.88379587  1
  O  O5  1  0.32784749  0.84177050  0.38382861  1
  O  O6  1  0.91206044  0.17626129  0.85296687  1
  O  O7  1  0.41354191  0.17355449  0.35203732  1
  O  O8  1  0.67215805  0.15822223  0.61616610  1
  O  O9  1  0.17233473  0.15667276  0.11620659  1
  O  O10  1  0.16971947  0.15830082  0.61619803  1
  O  O11  1  0.67124723  0.15671754  0.11622802  1
  O  O12  1  0.58646015  0.82644296  0.64796692  1
  O  O13  1  0.08794395  0.82373355  0.14703755  1
  O  O14  1  0.32875005  0.84328874  0.88377491  1
  O  O15  1  0.83028452  0.84169129  0.38379712  1
loop_
_geom_bond_atom_site_label_1
_geom_bond_atom_site_label_2
_geom_bond_distance
_geom_bond_site_symmetry_2
Ni0 O12 1.864403 1_545
Ni0 O0 1.864800 1_545
Ni0 O6 1.864941 1_455
Ni0 O2 1.865674 1_555
Ni0 O10 1.872596 1_555
Ni0 O14 1.872676 1_545
Ni1 O7 1.864422 1_565
Ni1 O3 1.864827 1_565
Ni1 O13 1.864933 1_655
Ni1 O1 1.865649 1_555
Ni1 O15 1.872601 1_555
Ni1 O11 1.872668 1_565
Ni2 O10 1.878161 1_655
Ni2 O15 1.878174 1_545
Ni2 O8 1.879005 1_555
Ni2 O5 1.879036 1_645
Ni2 O3 2.056260 1_555
Ni2 O0 2.056401 1_645
Ni3 O14 1.877992 1_545
Ni3 O11 1.878019 1_556
Ni3 O4 1.878373 1_545
Ni3 O9 1.878413 1_556
Ni3 O2 2.060459 1_555
Ni3 O1 2.060648 1_546
Ni4 O12 1.864411 1_545
Ni4 O0 1.864894 1_645
Ni4 O6 1.865274 1_555
Ni4 O2 1.865325 1_555
Ni4 O8 1.872542 1_555
Ni4 O4 1.872625 1_545
Ni5 O7 1.864431 1_565
Ni5 O3 1.864915 1_465
Ni5 O13 1.865256 1_555
Ni5 O1 1.865302 1_555
Ni5 O5 1.872541 1_555
Ni5 O9 1.872621 1_565
Ni6 O8 1.887621 1_555
Ni6 O5 1.887632 1_545
Ni6 O10 1.889101 1_555
Ni6 O15 1.889108 1_545
Ni6 O7 2.068093 1_555
Ni6 O12 2.068223 1_545
Ni7 O4 1.882147 1_545
Ni7 O9 1.882191 1_656
Ni7 O14 1.882933 1_645
Ni7 O11 1.882943 1_556
Ni7 O6 2.072287 1_555
Ni7 O13 2.072474 1_646
O4 Sr0 2.544615 1_555
O5 Sr1 2.547285 1_555
O6 Sr0 2.509860 1_555
O7 Sr1 2.512315 1_555
O8 Sr0 2.547335 1_555
O9 Sr1 2.544602 1_555
O10 Sr0 2.550159 1_455
O11 Sr1 2.547837 1_555
O12 Sr0 2.512303 1_555
O13 Sr1 2.509832 1_555
O14 Sr0 2.547876 1_555
O15 Sr1 2.550119 1_655
