# generated using pymatgen
data_MgTe4Mo2(WS2)2
_symmetry_space_group_name_H-M   'P 1'
_cell_length_a   6.71869842
_cell_length_b   6.72542279
_cell_length_c   90.87912226
_cell_angle_alpha   89.99805146
_cell_angle_beta   89.99354630
_cell_angle_gamma   120.00707112
_symmetry_Int_Tables_number   1
_chemical_formula_structural   MgTe4Mo2(WS2)2
_chemical_formula_sum   'Mg8 Te32 Mo16 W16 S32'
_cell_volume   3556.05557792
_cell_formula_units_Z   8
loop_
 _symmetry_equiv_pos_site_id
 _symmetry_equiv_pos_as_xyz
  1  'x, y, z'
loop_
 _atom_site_type_symbol
 _atom_site_label
 _atom_site_symmetry_multiplicity
 _atom_site_fract_x
 _atom_site_fract_y
 _atom_site_fract_z
 _atom_site_occupancy
  Mg  Mg0_0  1  0.00001450  0.00000550  0.27595000  1
  Mg  Mg0_1  1  0.00001450  0.00000550  0.77595000  1
  Mg  Mg0_2  1  0.00001450  0.50000550  0.27595000  1
  Mg  Mg0_3  1  0.00001450  0.50000550  0.77595000  1
  Mg  Mg0_4  1  0.50001450  0.00000550  0.27595000  1
  Mg  Mg0_5  1  0.50001450  0.00000550  0.77595000  1
  Mg  Mg0_6  1  0.50001450  0.50000550  0.27595000  1
  Mg  Mg0_7  1  0.50001450  0.50000550  0.77595000  1
  Te  Te0_0  1  0.16668750  0.33335500  0.35327200  1
  Te  Te0_1  1  0.16668750  0.33335500  0.85327200  1
  Te  Te0_2  1  0.16668750  0.83335500  0.35327200  1
  Te  Te0_3  1  0.16668750  0.83335500  0.85327200  1
  Te  Te0_4  1  0.66668750  0.33335500  0.35327200  1
  Te  Te0_5  1  0.66668750  0.33335500  0.85327200  1
  Te  Te0_6  1  0.66668750  0.83335500  0.35327200  1
  Te  Te0_7  1  0.66668750  0.83335500  0.85327200  1
  Te  Te1_0  1  0.33329800  0.16663700  0.02598300  1
  Te  Te1_1  1  0.33329800  0.16663700  0.52598300  1
  Te  Te1_2  1  0.33329800  0.66663700  0.02598300  1
  Te  Te1_3  1  0.33329800  0.66663700  0.52598300  1
  Te  Te1_4  1  0.83329800  0.16663700  0.02598300  1
  Te  Te1_5  1  0.83329800  0.16663700  0.52598300  1
  Te  Te1_6  1  0.83329800  0.66663700  0.02598300  1
  Te  Te1_7  1  0.83329800  0.66663700  0.52598300  1
  Te  Te2_0  1  0.33326500  0.16661100  0.06784200  1
  Te  Te2_1  1  0.33326500  0.16661100  0.56784200  1
  Te  Te2_2  1  0.33326500  0.66661100  0.06784200  1
  Te  Te2_3  1  0.33326500  0.66661100  0.56784200  1
  Te  Te2_4  1  0.83326500  0.16661100  0.06784200  1
  Te  Te2_5  1  0.83326500  0.16661100  0.56784200  1
  Te  Te2_6  1  0.83326500  0.66661100  0.06784200  1
  Te  Te2_7  1  0.83326500  0.66661100  0.56784200  1
  Te  Te3_0  1  0.16673750  0.33339050  0.31139500  1
  Te  Te3_1  1  0.16673750  0.33339050  0.81139500  1
  Te  Te3_2  1  0.16673750  0.83339050  0.31139500  1
  Te  Te3_3  1  0.16673750  0.83339050  0.81139500  1
  Te  Te3_4  1  0.66673750  0.33339050  0.31139500  1
  Te  Te3_5  1  0.66673750  0.33339050  0.81139500  1
  Te  Te3_6  1  0.66673750  0.83339050  0.31139500  1
  Te  Te3_7  1  0.66673750  0.83339050  0.81139500  1
  Mo  Mo0_0  1  0.16666250  0.33332800  0.23120550  1
  Mo  Mo0_1  1  0.16666250  0.33332800  0.73120550  1
  Mo  Mo0_2  1  0.16666250  0.83332800  0.23120550  1
  Mo  Mo0_3  1  0.16666250  0.83332800  0.73120550  1
  Mo  Mo0_4  1  0.66666250  0.33332800  0.23120550  1
  Mo  Mo0_5  1  0.66666250  0.33332800  0.73120550  1
  Mo  Mo0_6  1  0.66666250  0.83332800  0.23120550  1
  Mo  Mo0_7  1  0.66666250  0.83332800  0.73120550  1
  Mo  Mo1_0  1  0.33328050  0.16664100  0.14087100  1
  Mo  Mo1_1  1  0.33328050  0.16664100  0.64087100  1
  Mo  Mo1_2  1  0.33328050  0.66664100  0.14087100  1
  Mo  Mo1_3  1  0.33328050  0.66664100  0.64087100  1
  Mo  Mo1_4  1  0.83328050  0.16664100  0.14087100  1
  Mo  Mo1_5  1  0.83328050  0.16664100  0.64087100  1
  Mo  Mo1_6  1  0.83328050  0.66664100  0.14087100  1
  Mo  Mo1_7  1  0.83328050  0.66664100  0.64087100  1
  W  W0_0  1  0.16675950  0.33340350  0.04691100  1
  W  W0_1  1  0.16675950  0.33340350  0.54691100  1
  W  W0_2  1  0.16675950  0.83340350  0.04691100  1
  W  W0_3  1  0.16675950  0.83340350  0.54691100  1
  W  W0_4  1  0.66675950  0.33340350  0.04691100  1
  W  W0_5  1  0.66675950  0.33340350  0.54691100  1
  W  W0_6  1  0.66675950  0.83340350  0.04691100  1
  W  W0_7  1  0.66675950  0.83340350  0.54691100  1
  W  W1_0  1  0.33327050  0.16662550  0.33241600  1
  W  W1_1  1  0.33327050  0.16662550  0.83241600  1
  W  W1_2  1  0.33327050  0.66662550  0.33241600  1
  W  W1_3  1  0.33327050  0.66662550  0.83241600  1
  W  W1_4  1  0.83327050  0.16662550  0.33241600  1
  W  W1_5  1  0.83327050  0.16662550  0.83241600  1
  W  W1_6  1  0.83327050  0.66662550  0.33241600  1
  W  W1_7  1  0.83327050  0.66662550  0.83241600  1
  S  S0_0  1  0.16670300  0.33336900  0.15751050  1
  S  S0_1  1  0.16670300  0.33336900  0.65751050  1
  S  S0_2  1  0.16670300  0.83336900  0.15751050  1
  S  S0_3  1  0.16670300  0.83336900  0.65751050  1
  S  S0_4  1  0.66670300  0.33336900  0.15751050  1
  S  S0_5  1  0.66670300  0.33336900  0.65751050  1
  S  S0_6  1  0.66670300  0.83336900  0.15751050  1
  S  S0_7  1  0.66670300  0.83336900  0.65751050  1
  S  S1_0  1  0.33330700  0.16663150  0.21470550  1
  S  S1_1  1  0.33330700  0.16663150  0.71470550  1
  S  S1_2  1  0.33330700  0.66663150  0.21470550  1
  S  S1_3  1  0.33330700  0.66663150  0.71470550  1
  S  S1_4  1  0.83330700  0.16663150  0.21470550  1
  S  S1_5  1  0.83330700  0.16663150  0.71470550  1
  S  S1_6  1  0.83330700  0.66663150  0.21470550  1
  S  S1_7  1  0.83330700  0.66663150  0.71470550  1
  S  S2_0  1  0.33326400  0.16660150  0.24812500  1
  S  S2_1  1  0.33326400  0.16660150  0.74812500  1
  S  S2_2  1  0.33326400  0.66660150  0.24812500  1
  S  S2_3  1  0.33326400  0.66660150  0.74812500  1
  S  S2_4  1  0.83326400  0.16660150  0.24812500  1
  S  S2_5  1  0.83326400  0.16660150  0.74812500  1
  S  S2_6  1  0.83326400  0.66660150  0.24812500  1
  S  S2_7  1  0.83326400  0.66660150  0.74812500  1
  S  S3_0  1  0.16674950  0.33340050  0.12423000  1
  S  S3_1  1  0.16674950  0.33340050  0.62423000  1
  S  S3_2  1  0.16674950  0.83340050  0.12423000  1
  S  S3_3  1  0.16674950  0.83340050  0.62423000  1
  S  S3_4  1  0.66674950  0.33340050  0.12423000  1
  S  S3_5  1  0.66674950  0.33340050  0.62423000  1
  S  S3_6  1  0.66674950  0.83340050  0.12423000  1
  S  S3_7  1  0.66674950  0.83340050  0.62423000  1
loop_
_geom_bond_atom_site_label_1
_geom_bond_atom_site_label_2
_geom_bond_distance
_geom_bond_site_symmetry_2
Mg0_0 S2_0 3.186256 1_555
Mg0_0 S2_4 3.187617 1_455
Mg0_0 S2_6 3.188376 1_445
Mg0_0 Mg0_4 3.359349 1_455
Mg0_0 Mg0_4 3.359349 1_555
Mg0_0 Mg0_6 3.360672 1_445
Mg0_0 Mg0_6 3.360672 1_555
Mg0_0 Mg0_2 3.362711 1_545
Mg0_0 Mg0_2 3.362711 1_555
Mg0_1 S2_1 3.186256 1_555
Mg0_1 S2_5 3.187617 1_455
Mg0_1 S2_7 3.188376 1_445
Mg0_1 Mg0_5 3.359349 1_455
Mg0_1 Mg0_5 3.359349 1_555
Mg0_1 Mg0_7 3.360672 1_555
Mg0_1 Mg0_7 3.360672 1_445
Mg0_1 Mg0_3 3.362711 1_545
Mg0_1 Mg0_3 3.362711 1_555
Mg0_2 S2_2 3.186256 1_555
Mg0_2 S2_6 3.187617 1_455
Mg0_2 S2_4 3.188376 1_455
Mg0_2 Mg0_6 3.359349 1_455
Mg0_2 Mg0_6 3.359349 1_555
Mg0_2 Mg0_4 3.360672 1_565
Mg0_2 Mg0_4 3.360672 1_455
Mg0_3 S2_3 3.186256 1_555
Mg0_3 S2_7 3.187617 1_455
Mg0_3 S2_5 3.188376 1_455
Mg0_3 Mg0_7 3.359349 1_455
Mg0_3 Mg0_7 3.359349 1_555
Mg0_3 Mg0_5 3.360672 1_455
Mg0_3 Mg0_5 3.360672 1_565
Mg0_4 S2_4 3.186256 1_555
Mg0_4 S2_0 3.187617 1_555
Mg0_4 S2_2 3.188376 1_545
Mg0_4 Mg0_6 3.362711 1_555
Mg0_4 Mg0_6 3.362711 1_545
Mg0_5 S2_5 3.186256 1_555
Mg0_5 S2_1 3.187617 1_555
Mg0_5 S2_3 3.188376 1_545
Mg0_5 Mg0_7 3.362711 1_545
Mg0_5 Mg0_7 3.362711 1_555
Mg0_6 S2_6 3.186256 1_555
Mg0_6 S2_2 3.187617 1_555
Mg0_6 S2_0 3.188376 1_555
Mg0_7 S2_7 3.186256 1_555
Mg0_7 S2_3 3.187617 1_555
Mg0_7 S2_1 3.188376 1_555
Te0_0 W1_4 2.712313 1_455
Te0_0 W1_0 2.712457 1_555
Te0_0 W1_2 2.712748 1_555
Te0_1 W1_5 2.712313 1_455
Te0_1 W1_1 2.712457 1_555
Te0_1 W1_3 2.712748 1_555
Te0_2 W1_6 2.712313 1_455
Te0_2 W1_2 2.712457 1_555
Te0_2 W1_0 2.712748 1_565
Te0_3 W1_7 2.712313 1_455
Te0_3 W1_3 2.712457 1_555
Te0_3 W1_1 2.712748 1_565
Te0_4 W1_0 2.712313 1_555
Te0_4 W1_4 2.712457 1_555
Te0_4 W1_6 2.712748 1_555
Te0_5 W1_1 2.712313 1_555
Te0_5 W1_5 2.712457 1_555
Te0_5 W1_7 2.712748 1_555
Te0_6 W1_2 2.712313 1_555
Te0_6 W1_6 2.712457 1_555
Te0_6 W1_4 2.712748 1_565
Te0_7 W1_3 2.712313 1_555
Te0_7 W1_7 2.712457 1_555
Te0_7 W1_5 2.712748 1_565
Te1_0 W0_0 2.717002 1_555
Te1_0 W0_4 2.717075 1_555
Te1_0 W0_2 2.717169 1_545
Te1_1 W0_1 2.717002 1_555
Te1_1 W0_5 2.717075 1_555
Te1_1 W0_3 2.717169 1_545
Te1_2 W0_2 2.717002 1_555
Te1_2 W0_6 2.717075 1_555
Te1_2 W0_0 2.717169 1_555
Te1_3 W0_3 2.717002 1_555
Te1_3 W0_7 2.717075 1_555
Te1_3 W0_1 2.717169 1_555
Te1_4 W0_4 2.717002 1_555
Te1_4 W0_0 2.717075 1_655
Te1_4 W0_6 2.717169 1_545
Te1_5 W0_5 2.717002 1_555
Te1_5 W0_1 2.717075 1_655
Te1_5 W0_7 2.717169 1_545
Te1_6 W0_6 2.717002 1_555
Te1_6 W0_2 2.717075 1_655
Te1_6 W0_4 2.717169 1_555
Te1_7 W0_7 2.717002 1_555
Te1_7 W0_3 2.717075 1_655
Te1_7 W0_5 2.717169 1_555
Te2_0 W0_4 2.716997 1_555
Te2_0 W0_0 2.717287 1_555
Te2_0 W0_2 2.717535 1_545
Te2_1 W0_5 2.716997 1_555
Te2_1 W0_1 2.717287 1_555
Te2_1 W0_3 2.717535 1_545
Te2_2 W0_6 2.716997 1_555
Te2_2 W0_2 2.717287 1_555
Te2_2 W0_0 2.717535 1_555
Te2_3 W0_7 2.716997 1_555
Te2_3 W0_3 2.717287 1_555
Te2_3 W0_1 2.717535 1_555
Te2_4 W0_0 2.716997 1_655
Te2_4 W0_4 2.717287 1_555
Te2_4 W0_6 2.717535 1_545
Te2_5 W0_1 2.716997 1_655
Te2_5 W0_5 2.717287 1_555
Te2_5 W0_7 2.717535 1_545
Te2_6 W0_2 2.716997 1_655
Te2_6 W0_6 2.717287 1_555
Te2_6 W0_4 2.717535 1_555
Te2_7 W0_3 2.716997 1_655
Te2_7 W0_7 2.717287 1_555
Te2_7 W0_5 2.717535 1_555
Te3_0 W1_4 2.722614 1_455
Te3_0 W1_0 2.723019 1_555
Te3_0 W1_2 2.723381 1_555
Te3_1 W1_5 2.722614 1_455
Te3_1 W1_1 2.723019 1_555
Te3_1 W1_3 2.723381 1_555
Te3_2 W1_6 2.722614 1_455
Te3_2 W1_2 2.723019 1_555
Te3_2 W1_0 2.723381 1_565
Te3_3 W1_7 2.722614 1_455
Te3_3 W1_3 2.723019 1_555
Te3_3 W1_1 2.723381 1_565
Te3_4 W1_0 2.722614 1_555
Te3_4 W1_4 2.723019 1_555
Te3_4 W1_6 2.723381 1_555
Te3_5 W1_1 2.722614 1_555
Te3_5 W1_5 2.723019 1_555
Te3_5 W1_7 2.723381 1_555
Te3_6 W1_2 2.722614 1_555
Te3_6 W1_6 2.723019 1_555
Te3_6 W1_4 2.723381 1_565
Te3_7 W1_3 2.722614 1_555
Te3_7 W1_7 2.723019 1_555
Te3_7 W1_5 2.723381 1_565
Mo0_0 S1_4 2.451754 1_455
Mo0_0 S1_0 2.452387 1_555
Mo0_0 S1_2 2.452749 1_555
Mo0_0 S2_4 2.475094 1_455
Mo0_0 S2_0 2.475931 1_555
Mo0_0 S2_2 2.476351 1_555
Mo0_1 S1_5 2.451754 1_455
Mo0_1 S1_1 2.452387 1_555
Mo0_1 S1_3 2.452749 1_555
Mo0_1 S2_5 2.475094 1_455
Mo0_1 S2_1 2.475931 1_555
Mo0_1 S2_3 2.476351 1_555
Mo0_2 S1_6 2.451754 1_455
Mo0_2 S1_2 2.452387 1_555
Mo0_2 S1_0 2.452749 1_565
Mo0_2 S2_6 2.475094 1_455
Mo0_2 S2_2 2.475931 1_555
Mo0_2 S2_0 2.476351 1_565
Mo0_3 S1_7 2.451754 1_455
Mo0_3 S1_3 2.452387 1_555
Mo0_3 S1_1 2.452749 1_565
Mo0_3 S2_7 2.475094 1_455
Mo0_3 S2_3 2.475931 1_555
Mo0_3 S2_1 2.476351 1_565
Mo0_4 S1_0 2.451754 1_555
Mo0_4 S1_4 2.452387 1_555
Mo0_4 S1_6 2.452749 1_555
Mo0_4 S2_0 2.475094 1_555
Mo0_4 S2_4 2.475931 1_555
Mo0_4 S2_6 2.476351 1_555
Mo0_5 S1_1 2.451754 1_555
Mo0_5 S1_5 2.452387 1_555
Mo0_5 S1_7 2.452749 1_555
Mo0_5 S2_1 2.475094 1_555
Mo0_5 S2_5 2.475931 1_555
Mo0_5 S2_7 2.476351 1_555
Mo0_6 S1_2 2.451754 1_555
Mo0_6 S1_6 2.452387 1_555
Mo0_6 S1_4 2.452749 1_565
Mo0_6 S2_2 2.475094 1_555
Mo0_6 S2_6 2.475931 1_555
Mo0_6 S2_4 2.476351 1_565
Mo0_7 S1_3 2.451754 1_555
Mo0_7 S1_7 2.452387 1_555
Mo0_7 S1_5 2.452749 1_565
Mo0_7 S2_3 2.475094 1_555
Mo0_7 S2_7 2.475931 1_555
Mo0_7 S2_5 2.476351 1_565
Mo1_0 S3_4 2.459777 1_555
Mo1_0 S0_4 2.459837 1_555
Mo1_0 S0_0 2.459996 1_555
Mo1_0 S3_0 2.460120 1_555
Mo1_0 S0_2 2.460374 1_545
Mo1_0 S3_2 2.460562 1_545
Mo1_1 S3_5 2.459777 1_555
Mo1_1 S0_5 2.459837 1_555
Mo1_1 S0_1 2.459996 1_555
Mo1_1 S3_1 2.460120 1_555
Mo1_1 S0_3 2.460374 1_545
Mo1_1 S3_3 2.460562 1_545
Mo1_2 S3_6 2.459777 1_555
Mo1_2 S0_6 2.459837 1_555
Mo1_2 S0_2 2.459996 1_555
Mo1_2 S3_2 2.460120 1_555
Mo1_2 S0_0 2.460374 1_555
Mo1_2 S3_0 2.460562 1_555
Mo1_3 S3_7 2.459777 1_555
Mo1_3 S0_7 2.459837 1_555
Mo1_3 S0_3 2.459996 1_555
Mo1_3 S3_3 2.460120 1_555
Mo1_3 S0_1 2.460374 1_555
Mo1_3 S3_1 2.460562 1_555
Mo1_4 S3_0 2.459777 1_655
Mo1_4 S0_0 2.459837 1_655
Mo1_4 S0_4 2.459996 1_555
Mo1_4 S3_4 2.460120 1_555
Mo1_4 S0_6 2.460374 1_545
Mo1_4 S3_6 2.460562 1_545
Mo1_5 S3_1 2.459777 1_655
Mo1_5 S0_1 2.459837 1_655
Mo1_5 S0_5 2.459996 1_555
Mo1_5 S3_5 2.460120 1_555
Mo1_5 S0_7 2.460374 1_545
Mo1_5 S3_7 2.460562 1_545
Mo1_6 S3_2 2.459777 1_655
Mo1_6 S0_2 2.459837 1_655
Mo1_6 S0_6 2.459996 1_555
Mo1_6 S3_6 2.460120 1_555
Mo1_6 S0_4 2.460374 1_555
Mo1_6 S3_4 2.460562 1_555
Mo1_7 S3_3 2.459777 1_655
Mo1_7 S0_3 2.459837 1_655
Mo1_7 S0_7 2.459996 1_555
Mo1_7 S3_7 2.460120 1_555
Mo1_7 S0_5 2.460374 1_555
Mo1_7 S3_5 2.460562 1_555
