# generated using pymatgen
data_Na6Ti6Zn2Si5S7O48
_symmetry_space_group_name_H-M   'P 1'
_cell_length_a   17.53746450
_cell_length_b   8.82255764
_cell_length_c   22.49404212
_cell_angle_alpha   89.97487556
_cell_angle_beta   89.92858428
_cell_angle_gamma   120.21799074
_symmetry_Int_Tables_number   1
_chemical_formula_structural   Na6Ti6Zn2Si5S7O48
_chemical_formula_sum   'Na18 Ti18 Zn6 Si15 S21 O144'
_cell_volume   3007.46512831
_cell_formula_units_Z   3
loop_
 _symmetry_equiv_pos_site_id
 _symmetry_equiv_pos_as_xyz
  1  'x, y, z'
loop_
 _atom_site_type_symbol
 _atom_site_label
 _atom_site_symmetry_multiplicity
 _atom_site_fract_x
 _atom_site_fract_y
 _atom_site_fract_z
 _atom_site_occupancy
  Na  Na0  1  0.65539785  0.34706853  0.58323758  1
  Na  Na1  1  0.51893176  0.69050408  0.58506994  1
  Na  Na2  1  0.82522679  0.96149648  0.58360872  1
  Na  Na3  1  0.15466966  0.96189470  0.08572116  1
  Na  Na4  1  0.32529015  0.69068664  0.08554011  1
  Na  Na5  1  0.01904534  0.34850779  0.08730209  1
  Na  Na6  1  0.00612294  0.99959038  0.49587847  1
  Na  Na7  1  0.49506418  0.00081809  0.49838670  1
  Na  Na8  1  0.99623500  0.99060021  0.00040718  1
  Na  Na9  1  0.50475929  0.00930187  0.99887479  1
  Na  Na10  1  0.33079272  0.32836265  0.82543678  1
  Na  Na11  1  0.83058363  0.32980968  0.83218702  1
  Na  Na12  1  0.32856834  0.32962852  0.33269523  1
  Na  Na13  1  0.83470788  0.33725376  0.32720456  1
  Na  Na14  1  0.16464997  0.66444849  0.16439793  1
  Na  Na15  1  0.66884085  0.66884835  0.16756964  1
  Na  Na16  1  0.16921433  0.66797643  0.66398473  1
  Na  Na17  1  0.66524102  0.66531503  0.66045600  1
  Ti  Ti0  1  0.00137683  0.98999387  0.35668170  1
  Ti  Ti1  1  0.50167707  0.99921510  0.35303974  1
  Ti  Ti2  1  0.00251000  0.00360450  0.85259415  1
  Ti  Ti3  1  0.50120793  0.99920701  0.85132074  1
  Ti  Ti4  1  0.00652511  0.00710279  0.64485728  1
  Ti  Ti5  1  0.49158826  0.00269831  0.64208981  1
  Ti  Ti6  1  0.99403049  0.98285444  0.14638506  1
  Ti  Ti7  1  0.50364632  0.00622509  0.14873296  1
  Ti  Ti8  1  0.32854123  0.31563609  0.98602538  1
  Ti  Ti9  1  0.83205418  0.34955477  0.97652390  1
  Ti  Ti10  1  0.33176619  0.31432752  0.47533226  1
  Ti  Ti11  1  0.83251209  0.35276006  0.48318346  1
  Ti  Ti12  1  0.67210024  0.68031183  0.01396188  1
  Ti  Ti13  1  0.16732798  0.66666694  0.51017269  1
  Ti  Ti14  1  0.16414009  0.66011794  0.32026183  1
  Ti  Ti15  1  0.67327073  0.68334459  0.30824102  1
  Ti  Ti16  1  0.17186563  0.66318028  0.80713144  1
  Ti  Ti17  1  0.67260198  0.67932467  0.81691345  1
  Zn  Zn0  1  0.33329834  0.32217417  0.69084519  1
  Zn  Zn1  1  0.82756491  0.33013822  0.67938324  1
  Zn  Zn2  1  0.32697849  0.32363516  0.18183313  1
  Zn  Zn3  1  0.83458184  0.34548596  0.19235482  1
  Zn  Zn4  1  0.16570042  0.66882219  0.02153921  1
  Zn  Zn5  1  0.66605164  0.66432636  0.52112019  1
  Si  Si0  1  0.64632585  0.00378697  0.25012147  1
  Si  Si1  1  0.85750278  0.71110031  0.25274406  1
  Si  Si2  1  0.14621681  0.28856531  0.74971876  1
  Si  Si3  1  0.35773256  0.00477731  0.75171219  1
  Si  Si4  1  0.47255895  0.33333721  0.58551613  1
  Si  Si5  1  0.68808974  0.04299420  0.58504330  1
  Si  Si6  1  0.83742769  0.63107034  0.58705422  1
  Si  Si7  1  0.97264236  0.61509874  0.08581914  1
  Si  Si8  1  0.33812492  0.04429389  0.08647244  1
  Si  Si9  1  0.18618912  0.33346870  0.08664838  1
  Si  Si10  1  0.81437419  0.67267728  0.91495554  1
  Si  Si11  1  0.66653738  0.96198987  0.91684344  1
  Si  Si12  1  0.31293770  0.95293405  0.41425978  1
  Si  Si13  1  0.16687567  0.37451945  0.41655334  1
  Si  Si14  1  0.01811822  0.65883468  0.41675744  1
  S  S0  1  0.14446847  0.99687193  0.25093112  1
  S  S1  1  0.35532172  0.71166544  0.24987032  1
  S  S2  1  0.00394702  0.28904081  0.25048368  1
  S  S3  1  0.49970660  0.28872509  0.25194646  1
  S  S4  1  0.64411678  0.29237334  0.75106561  1
  S  S5  1  -0.00010234  0.71172937  0.75160937  1
  S  S6  1  0.50387547  0.71526648  0.75038020  1
  S  S7  1  0.85565087  0.99965839  0.75035744  1
  S  S8  1  0.98256223  0.34035967  0.58428416  1
  S  S9  1  0.18857940  0.03812578  0.58353112  1
  S  S10  1  0.32829331  0.61856517  0.58377127  1
  S  S11  1  0.48185175  0.62393542  0.08320534  1
  S  S12  1  0.82956292  0.04005708  0.08302840  1
  S  S13  1  0.68714230  0.33680651  0.08257177  1
  S  S14  1  0.31322392  0.66524526  0.91580504  1
  S  S15  1  0.02106888  0.37531244  0.91572348  1
  S  S16  1  0.52217494  0.37962262  0.91604340  1
  S  S17  1  0.16767405  0.95896632  0.91503959  1
  S  S18  1  0.81219144  0.95958854  0.41629435  1
  S  S19  1  0.66620086  0.37602838  0.41508816  1
  S  S20  1  0.52103846  0.66669803  0.41581083  1
  O  O0  1  0.09972813  0.01560830  0.30405653  1
  O  O1  1  0.59078233  0.01964680  0.30690036  1
  O  O2  1  0.41036743  0.80748984  0.30243916  1
  O  O3  1  0.91837060  0.82318415  0.30883647  1
  O  O4  1  0.48781793  0.17866286  0.30501436  1
  O  O5  1  0.99807093  0.18232145  0.30266991  1
  O  O6  1  0.09079520  0.16207117  0.80709963  1
  O  O7  1  0.59859430  0.18114780  0.80477829  1
  O  O8  1  0.49791939  0.81319962  0.80364946  1
  O  O9  1  0.98801109  0.79805600  0.80536759  1
  O  O10  1  0.41853395  0.01399636  0.80918975  1
  O  O11  1  0.90953905  0.01181916  0.80332115  1
  O  O12  1  0.40370339  0.96768459  0.69377417  1
  O  O13  1  0.89455061  0.97292990  0.69495440  1
  O  O14  1  0.08074313  0.18993041  0.69236508  1
  O  O15  1  0.59234790  0.20865166  0.69623110  1
  O  O16  1  0.01272447  0.82095809  0.69766716  1
  O  O17  1  0.51750471  0.81856180  0.69537190  1
  O  O18  1  0.39772493  0.81926331  0.19385322  1
  O  O19  1  0.90284608  0.83782852  0.19338896  1
  O  O20  1  0.01541674  0.21003256  0.19378115  1
  O  O21  1  0.51208757  0.20334634  0.19736397  1
  O  O22  1  0.09233728  0.97889594  0.19528556  1
  O  O23  1  0.58068627  0.97177703  0.19201027  1
  O  O24  1  0.43420160  0.38361584  0.64122336  1
  O  O25  1  0.94588125  0.36457852  0.63968234  1
  O  O26  1  0.23846067  0.11421446  0.63734198  1
  O  O27  1  0.75127668  0.11326276  0.64215054  1
  O  O28  1  0.31498117  0.52085435  0.63859873  1
  O  O29  1  0.81602880  0.51130270  0.64435070  1
  O  O30  1  0.44577146  0.52484553  0.13823388  1
  O  O31  1  0.93232676  0.48253411  0.13961188  1
  O  O32  1  0.31712408  0.12496465  0.14266626  1
  O  O33  1  0.81261114  0.10524709  0.13743785  1
  O  O34  1  0.25284499  0.38914939  0.14125298  1
  O  O35  1  0.73866871  0.36800615  0.13612675  1
  O  O36  1  0.23697548  0.29490988  0.02751990  1
  O  O37  1  0.72610379  0.30437075  0.02817341  1
  O  O38  1  0.42337602  0.54010914  0.03002537  1
  O  O39  1  0.91073587  0.52120965  0.02474113  1
  O  O40  1  0.35373173  0.17279379  0.02566175  1
  O  O41  1  0.84336186  0.14887914  0.02958618  1
  O  O42  1  0.22601529  0.14672912  0.52901531  1
  O  O43  1  0.73728606  0.18004166  0.52732588  1
  O  O44  1  0.34448811  0.54004456  0.53062465  1
  O  O45  1  0.85481972  0.53950881  0.52668538  1
  O  O46  1  0.41089971  0.30261439  0.52537733  1
  O  O47  1  0.92446459  0.30526231  0.53162511  1
  O  O48  1  0.27699058  0.69596716  0.97039278  1
  O  O49  1  0.76398214  0.69613927  0.97295454  1
  O  O50  1  0.07195779  0.44388996  0.97076367  1
  O  O51  1  0.57648839  0.46125155  0.97008147  1
  O  O52  1  0.15320609  0.86152169  0.97083223  1
  O  O53  1  0.65042574  0.82987151  0.97387527  1
  O  O54  1  0.26782318  0.83431780  0.47369695  1
  O  O55  1  0.77549470  0.85380058  0.47037509  1
  O  O56  1  0.15039586  0.46958976  0.47416408  1
  O  O57  1  0.65169352  0.44464673  0.47071670  1
  O  O58  1  0.08237192  0.69534239  0.47447643  1
  O  O59  1  0.57152503  0.69932278  0.47077869  1
  O  O60  1  0.06730969  0.63276013  0.35861600  1
  O  O61  1  0.56427902  0.64089670  0.36354826  1
  O  O62  1  0.24971072  0.86203164  0.35665223  1
  O  O63  1  0.75415594  0.86609181  0.36332015  1
  O  O64  1  0.18436482  0.50284774  0.35860927  1
  O  O65  1  0.67655273  0.48616184  0.36296507  1
  O  O66  1  0.06443727  0.48825810  0.86360319  1
  O  O67  1  0.56474807  0.48760308  0.86237938  1
  O  O68  1  0.17842985  0.87108291  0.86317917  1
  O  O69  1  0.67973764  0.85772336  0.85952328  1
  O  O70  1  0.25539868  0.64010778  0.86335060  1
  O  O71  1  0.74986166  0.63969809  0.85745024  1
  O  O72  1  0.00974085  0.83490887  0.40934550  1
  O  O73  1  0.50939980  0.82387708  0.40735892  1
  O  O74  1  0.41136809  0.97846312  0.40634944  1
  O  O75  1  0.90123927  0.98194823  0.40773105  1
  O  O76  1  0.07968370  0.18303563  0.40757758  1
  O  O77  1  0.58669213  0.19517566  0.40747092  1
  O  O78  1  0.00934764  0.19505086  0.90707737  1
  O  O79  1  0.51326827  0.20319053  0.91070203  1
  O  O80  1  0.08850999  0.98181291  0.90776475  1
  O  O81  1  0.57918421  0.97919810  0.90854812  1
  O  O82  1  0.40273423  0.82370198  0.90726700  1
  O  O83  1  0.91108265  0.84496776  0.90771521  1
  O  O84  1  0.48207227  0.15313843  0.59159277  1
  O  O85  1  0.98764268  0.17175447  0.58865748  1
  O  O86  1  0.09720193  0.02023357  0.58893476  1
  O  O87  1  0.58991545  0.02885881  0.59254791  1
  O  O88  1  0.41436914  0.79841008  0.58814883  1
  O  O89  1  0.92560939  0.83101555  0.59364328  1
  O  O90  1  0.48819804  0.80132225  0.08676661  1
  O  O91  1  0.98302515  0.81382329  0.09230749  1
  O  O92  1  0.42589326  0.02014031  0.09184232  1
  O  O93  1  0.91268118  0.02799340  0.08694997  1
  O  O94  1  0.08968585  0.15245915  0.09110927  1
  O  O95  1  0.59717478  0.17330088  0.08821256  1
  O  O96  1  0.34734715  0.17129373  0.75111029  1
  O  O97  1  0.84847930  0.15737536  0.74889497  1
  O  O98  1  0.24224989  0.31828890  0.74581509  1
  O  O99  1  0.73186395  0.30984427  0.75027897  1
  O  O100  1  0.42326120  0.54538364  0.75059929  1
  O  O101  1  0.92252743  0.53561941  0.74764921  1
  O  O102  1  0.35128823  0.54180309  0.24740166  1
  O  O103  1  0.84601654  0.52275088  0.25103889  1
  O  O104  1  0.42240024  0.30942665  0.24690495  1
  O  O105  1  0.92420474  0.30187891  0.24836334  1
  O  O106  1  0.23212075  0.15642395  0.24891745  1
  O  O107  1  0.74220022  0.16611588  0.24520759  1
  O  O108  1  0.32305709  0.50783733  0.92014928  1
  O  O109  1  0.82054147  0.49484506  0.92234638  1
  O  O110  1  0.43406654  0.36370853  0.92196347  1
  O  O111  1  0.93116065  0.35294300  0.92075397  1
  O  O112  1  0.24865491  0.13951939  0.91960111  1
  O  O113  1  0.75478428  0.14933858  0.92633718  1
  O  O114  1  0.32188562  0.14712990  0.42256223  1
  O  O115  1  0.81879978  0.13227565  0.41996660  1
  O  O116  1  0.25424886  0.35775183  0.42762793  1
  O  O117  1  0.74629526  0.35746830  0.41914542  1
  O  O118  1  0.43103257  0.50940534  0.42050004  1
  O  O119  1  0.92211913  0.48229919  0.42507172  1
  O  O120  1  0.17169744  0.49562207  0.07442463  1
  O  O121  1  0.67274215  0.48826370  0.07272656  1
  O  O122  1  0.07273180  0.65698253  0.07565573  1
  O  O123  1  0.57046974  0.64589994  0.07389968  1
  O  O124  1  0.25467506  0.85321408  0.07472341  1
  O  O125  1  0.75215622  0.85475080  0.07438275  1
  O  O126  1  0.17511931  0.85952751  0.57622568  1
  O  O127  1  0.67065540  0.84812348  0.57460805  1
  O  O128  1  0.25348311  0.65099900  0.57633422  1
  O  O129  1  0.75449347  0.65719731  0.57562049  1
  O  O130  1  0.07180682  0.49179697  0.57651189  1
  O  O131  1  0.57298738  0.48907783  0.57580754  1
  O  O132  1  0.15038779  0.83535165  0.25407092  1
  O  O133  1  0.64700964  0.81656794  0.25997567  1
  O  O134  1  0.26810621  0.69725058  0.25341870  1
  O  O135  1  0.75878454  0.69807747  0.26019193  1
  O  O136  1  0.08520702  0.46830445  0.25416023  1
  O  O137  1  0.58208203  0.46180337  0.25704772  1
  O  O138  1  0.14749243  0.47775201  0.76016405  1
  O  O139  1  0.64885056  0.46488689  0.75728619  1
  O  O140  1  0.08213089  0.70232682  0.75807288  1
  O  O141  1  0.58350868  0.69610338  0.75781021  1
  O  O142  1  0.25940457  0.82101261  0.76068331  1
  O  O143  1  0.76624736  0.83665121  0.75611050  1
loop_
_geom_bond_atom_site_label_1
_geom_bond_atom_site_label_2
_geom_bond_distance
_geom_bond_site_symmetry_2
Na0 O131 2.347245 1_555
Na0 O129 2.397597 1_555
Na0 O87 2.449067 1_555
Na0 O84 2.639261 1_555
Na0 O57 2.684466 1_555
Na0 O15 2.793773 1_555
Na0 O29 2.797818 1_555
Na0 O43 2.818333 1_555
Na1 O127 2.311467 1_555
Na1 O131 2.407443 1_555
Na1 O88 2.455767 1_555
Na1 O87 2.597982 1_565
Na1 O24 2.660235 1_555
Na1 O59 2.718060 1_555
Na1 O17 2.732009 1_555
Na1 O44 2.923061 1_555
Na2 O129 2.329682 1_555
Na2 O127 2.379519 1_555
Na2 O85 2.499920 1_565
Na2 O89 2.552657 1_555
Na2 O27 2.637057 1_565
Na2 O55 2.706402 1_555
Na2 O13 2.765089 1_555
Na2 O47 2.876346 1_565
Na3 O122 2.337330 1_555
Na3 O124 2.397579 1_555
Na3 O94 2.463464 1_565
Na3 O91 2.613484 1_455
Na3 O52 2.728156 1_554
Na3 O22 2.729491 1_555
Na3 O32 2.777133 1_565
Na3 O36 2.855292 1_565
Na4 O124 2.331705 1_555
Na4 O120 2.369761 1_555
Na4 O90 2.511791 1_555
Na4 O92 2.533851 1_565
Na4 O34 2.617816 1_555
Na4 O18 2.719596 1_555
Na4 O48 2.733774 1_554
Na4 O38 2.929097 1_555
Na5 O120 2.331458 1_555
Na5 O122 2.404445 1_555
Na5 O93 2.483221 1_455
Na5 O94 2.586661 1_555
Na5 O31 2.627267 1_455
Na5 O20 2.674346 1_555
Na5 O50 2.765332 1_554
Na6 O72 2.449227 1_555
Na6 O76 2.473454 1_565
Na6 O86 2.584938 1_565
Na6 O89 2.630096 1_455
Na6 O75 2.657111 1_455
Na6 O85 2.695229 1_465
Na7 O74 2.489181 1_545
Na7 O84 2.561835 1_555
Na7 O88 2.591215 1_545
Na7 O87 2.628590 1_555
Na7 O77 2.630578 1_555
Na7 O73 2.662578 1_545
Na8 O83 2.511373 1_554
Na8 O91 2.528189 1_555
Na8 O93 2.554542 1_565
Na8 O94 2.557920 1_665
Na8 O80 2.661856 1_654
Na8 O78 2.700328 1_664
Na9 O81 2.499042 1_545
Na9 O95 2.531569 1_556
Na9 O92 2.534051 1_556
Na9 O79 2.573221 1_555
Na9 O90 2.611302 1_546
Na9 O82 2.681782 1_545
Na10 O96 2.281586 1_555
Na10 O98 2.344147 1_555
Na10 O100 2.448383 1_555
Na10 O112 2.628852 1_555
Na10 O108 2.698703 1_555
Na10 O110 2.744790 1_555
Na11 O99 2.474726 1_555
Na11 O97 2.530771 1_555
Na11 O109 2.554182 1_555
Na11 O101 2.560335 1_555
Na11 O113 2.578165 1_555
Na11 O111 2.601654 1_555
Na12 O106 2.481167 1_555
Na12 O114 2.549340 1_555
Na12 O102 2.566718 1_555
Na12 O116 2.576707 1_555
Na12 O104 2.598327 1_555
Na12 O118 2.605457 1_555
Na13 O103 2.307152 1_555
Na13 O107 2.420319 1_555
Na13 O105 2.488505 1_555
Na13 O119 2.621091 1_555
Na13 O117 2.642681 1_555
Na13 O115 2.681327 1_555
Na14 O122 2.547327 1_555
Na14 O120 2.552876 1_555
Na14 O136 2.564294 1_555
Na14 O124 2.584088 1_555
Na14 O132 2.604954 1_555
Na14 O134 2.620390 1_555
Na15 O135 2.548455 1_555
Na15 O133 2.582295 1_555
Na15 O125 2.606900 1_555
Na15 O137 2.625707 1_555
Na15 O123 2.667321 1_555
Na15 O121 2.684545 1_555
Na16 O128 2.511888 1_555
Na16 O130 2.558138 1_555
Na16 O126 2.565935 1_555
Na16 O142 2.630118 1_555
Na16 O138 2.644520 1_555
Na16 O140 2.713280 1_555
Na17 O131 2.477668 1_555
Na17 O127 2.486351 1_555
Na17 O129 2.490436 1_555
Na17 O141 2.703439 1_555
Na17 O143 2.714685 1_555
Na17 O139 2.727091 1_555
O0 S0 1.483038 1_545
O0 Ti0 2.007414 1_545
O1 Si0 1.653449 1_555
O1 Ti1 1.806618 1_545
O2 S1 1.492361 1_555
O2 Ti1 2.000184 1_555
O3 Si1 1.628270 1_555
O3 Ti0 1.814411 1_655
O4 S3 1.485224 1_555
O4 Ti1 2.029548 1_545
O5 S2 1.475184 1_655
O5 Ti0 2.110934 1_645
O6 Si2 1.661295 1_555
O6 Ti2 1.793046 1_555
O7 S4 1.506010 1_555
O7 Ti3 1.955541 1_545
O8 S6 1.511511 1_555
O8 Ti3 1.937190 1_555
O9 S5 1.498591 1_655
O9 Ti2 2.005002 1_665
O10 Si3 1.652708 1_555
O10 Ti3 1.791950 1_545
O11 S7 1.491599 1_545
O11 Ti2 2.003876 1_655
O12 Si3 1.648904 1_565
O12 Ti5 1.827169 1_565
O13 S7 1.494720 1_555
O13 Ti4 2.148328 1_665
O14 Si2 1.654997 1_555
O14 Ti4 1.824724 1_555
O15 S4 1.489909 1_555
O15 Ti5 2.163947 1_555
O16 S5 1.493871 1_555
O16 Ti4 2.073244 1_565
O17 S6 1.482471 1_555
O17 Ti5 2.241677 1_565
O18 S1 1.525752 1_555
O18 Ti7 2.027593 1_565
O19 Si1 1.663164 1_555
O19 Ti6 1.802028 1_555
O20 S2 1.514742 1_555
O20 Ti6 2.130887 1_445
O21 S3 1.512207 1_555
O21 Ti7 1.996494 1_555
O22 S0 1.511561 1_555
O22 Ti6 2.061264 1_455
O23 Si0 1.670449 1_565
O23 Ti7 1.811577 1_565
O24 Si4 1.586896 1_555
O24 Zn0 1.923580 1_555
O25 S8 1.465916 1_555
O25 Zn1 2.134441 1_555
O26 S9 1.446813 1_555
O26 Zn0 2.125144 1_555
O27 Si5 1.604734 1_555
O27 Zn1 1.892064 1_555
O28 S10 1.454106 1_555
O28 Zn0 2.263369 1_555
O29 Si6 1.586470 1_555
O29 Zn1 1.881853 1_555
O30 S11 1.461890 1_555
O30 Zn2 2.173501 1_555
O31 Si7 1.579927 1_555
O31 Zn3 1.927524 1_555
O32 Si8 1.582226 1_555
O32 Zn2 1.890802 1_555
O33 S12 1.445301 1_555
O33 Zn3 2.312627 1_555
O34 Si9 1.594543 1_555
O34 Zn2 1.901715 1_555
O35 S13 1.447824 1_555
O35 Zn3 2.193181 1_555
O36 Si9 1.726396 1_555
O36 Ti8 1.784340 1_554
O37 S13 1.497033 1_555
O37 Ti9 2.051797 1_554
O38 S11 1.506657 1_555
O38 Ti8 2.087618 1_554
O39 Si7 1.688761 1_555
O39 Ti9 1.809866 1_554
O40 Si8 1.707818 1_555
O40 Ti8 1.771632 1_554
O41 S12 1.479813 1_555
O41 Ti9 2.225015 1_554
O42 S9 1.488834 1_555
O42 Ti10 2.077647 1_555
O43 Si5 1.684542 1_555
O43 Ti11 1.878805 1_555
O44 S10 1.479080 1_555
O44 Ti10 2.262302 1_555
O45 Si6 1.684496 1_555
O45 Ti11 1.782898 1_555
O46 Si4 1.667840 1_555
O46 Ti10 1.830863 1_555
O47 S8 1.490920 1_555
O47 Ti11 2.155843 1_555
O48 S14 1.468571 1_555
O48 Zn4 2.171166 1_556
O49 Si10 1.645424 1_555
O49 Ti12 1.799050 1_556
O50 S15 1.468085 1_555
O50 Zn4 2.160581 1_556
O51 S16 1.488835 1_555
O51 Ti12 2.065161 1_556
O52 S17 1.468741 1_555
O52 Zn4 2.147845 1_556
O53 Si11 1.658477 1_555
O53 Ti12 1.789782 1_556
O54 Si12 1.634433 1_555
O54 Ti13 1.827148 1_555
O55 S18 1.468867 1_555
O55 Zn5 2.131789 1_555
O56 Si13 1.646340 1_555
O56 Ti13 1.802647 1_555
O57 S19 1.466940 1_555
O57 Zn5 2.148633 1_555
O58 Si14 1.642521 1_555
O58 Ti13 1.819561 1_555
O59 S20 1.463596 1_555
O59 Zn5 2.155312 1_555
O60 Si14 1.644631 1_555
O60 Ti14 1.808290 1_555
O61 S20 1.476712 1_555
O61 Ti15 2.148187 1_555
O62 Si12 1.631332 1_555
O62 Ti14 1.846325 1_555
O63 S18 1.514944 1_555
O63 Ti15 1.962322 1_555
O64 Si13 1.650128 1_555
O64 Ti14 1.813887 1_555
O65 S19 1.473991 1_555
O65 Ti15 2.155013 1_555
O66 S15 1.476418 1_555
O66 Ti16 2.147192 1_555
O67 S16 1.484230 1_555
O67 Ti17 2.063478 1_555
O68 S17 1.464603 1_555
O68 Ti16 2.181048 1_555
O69 Si11 1.666407 1_555
O69 Ti17 1.793027 1_555
O70 S14 1.498873 1_555
O70 Ti16 2.022697 1_555
O71 Si10 1.646368 1_555
O71 Ti17 1.808078 1_555
O72 Si14 1.640754 1_555
O72 Ti0 1.870287 1_555
O73 S20 1.511813 1_555
O73 Ti1 2.028279 1_555
O74 Si12 1.634033 1_555
O74 Ti1 1.919133 1_555
O75 S18 1.484574 1_555
O75 Ti0 2.068130 1_655
O76 Si13 1.622892 1_555
O76 Ti0 1.936132 1_545
O77 S19 1.510259 1_555
O77 Ti1 2.030470 1_545
O78 S15 1.510183 1_555
O78 Ti2 2.041453 1_555
O79 S16 1.489045 1_555
O79 Ti3 2.165023 1_545
O80 S17 1.509008 1_555
O80 Ti2 2.036697 1_565
O81 Si11 1.624669 1_555
O81 Ti3 1.950768 1_555
O82 S14 1.498503 1_555
O82 Ti3 2.065172 1_555
O83 Si10 1.617913 1_555
O83 Ti2 1.949802 1_665
O84 Si4 1.685492 1_555
O84 Ti5 1.817093 1_555
O85 S8 1.537420 1_555
O85 Ti4 2.074029 1_655
O86 S9 1.533837 1_555
O86 Ti4 1.983459 1_555
O87 Si5 1.670785 1_555
O87 Ti5 1.965479 1_555
O88 S10 1.547767 1_555
O88 Ti5 2.025774 1_565
O89 Si6 1.667386 1_555
O89 Ti4 1.881730 1_665
O90 S11 1.514216 1_555
O90 Ti7 2.189627 1_565
O91 Si7 1.675505 1_555
O91 Ti6 1.858313 1_555
O92 Si8 1.661279 1_555
O92 Ti7 1.919585 1_555
O93 S12 1.516717 1_555
O93 Ti6 2.134839 1_545
O94 Si9 1.644253 1_555
O94 Ti6 2.016349 1_445
O95 S13 1.514858 1_555
O95 Ti7 2.067715 1_555
O96 Si3 1.568737 1_555
O96 Zn0 1.999928 1_555
O97 S7 1.459181 1_545
O97 Zn1 2.337663 1_555
O98 Si2 1.570980 1_555
O98 Zn0 2.004914 1_555
O99 S4 1.467427 1_555
O99 Zn1 2.254482 1_555
O100 S6 1.453356 1_555
O100 Zn0 2.248128 1_555
O101 S5 1.463376 1_655
O101 Zn1 2.321173 1_555
O102 S1 1.465376 1_555
O102 Zn2 2.289104 1_555
O103 Si1 1.570513 1_555
O103 Zn3 1.978733 1_555
O104 S3 1.460790 1_555
O104 Zn2 2.275032 1_555
O105 S2 1.459605 1_655
O105 Zn3 2.195192 1_555
O106 S0 1.472484 1_545
O106 Zn2 2.177687 1_555
O107 Si0 1.570319 1_555
O107 Zn3 1.988814 1_555
O108 S14 1.486228 1_555
O108 Ti8 2.289711 1_555
O109 Si10 1.634479 1_555
O109 Ti9 1.851694 1_555
O110 S16 1.485320 1_555
O110 Ti8 2.209985 1_555
O111 S15 1.491388 1_655
O111 Ti9 2.130208 1_555
O112 S17 1.512704 1_545
O112 Ti8 2.103719 1_555
O113 Si11 1.612155 1_545
O113 Ti9 1.956298 1_555
O114 Si12 1.650648 1_545
O114 Ti10 1.832957 1_555
O115 S18 1.470999 1_545
O115 Ti11 2.322989 1_555
O116 Si13 1.631253 1_555
O116 Ti10 1.916741 1_555
O117 S19 1.496670 1_555
O117 Ti11 2.105115 1_555
O118 S20 1.490985 1_555
O118 Ti10 2.119181 1_555
O119 Si14 1.629338 1_655
O119 Ti11 1.915760 1_555
O120 Si9 1.597698 1_555
O120 Zn4 1.980329 1_555
O121 S13 1.495967 1_555
O121 Ti12 2.153031 1_555
O122 Si7 1.617396 1_455
O122 Zn4 1.993628 1_555
O123 S11 1.480780 1_555
O123 Ti12 2.129705 1_555
O124 Si8 1.603611 1_565
O124 Zn4 1.990908 1_555
O125 S12 1.523302 1_565
O125 Ti12 2.004619 1_555
O126 S9 1.480358 1_565
O126 Ti13 2.211368 1_555
O127 Si5 1.604941 1_565
O127 Zn5 1.988401 1_555
O128 S10 1.486459 1_555
O128 Ti13 2.175448 1_555
O129 Si6 1.604080 1_555
O129 Zn5 2.003866 1_555
O130 S8 1.469520 1_455
O130 Ti13 2.191697 1_555
O131 Si4 1.612610 1_555
O131 Zn5 2.005199 1_555
O132 S0 1.481650 1_555
O132 Ti14 2.244847 1_555
O133 Si0 1.672478 1_565
O133 Ti15 1.821352 1_555
O134 S1 1.471706 1_555
O134 Ti14 2.254765 1_555
O135 Si1 1.684516 1_555
O135 Ti15 1.798269 1_555
O136 S2 1.506908 1_555
O136 Ti14 2.154121 1_555
O137 S3 1.487270 1_555
O137 Ti15 2.136371 1_555
O138 Si2 1.674636 1_555
O138 Ti16 1.809412 1_555
O139 S4 1.488629 1_555
O139 Ti17 2.182226 1_555
O140 S5 1.492912 1_555
O140 Ti16 2.089195 1_555
O141 S6 1.498377 1_555
O141 Ti17 2.113893 1_555
O142 Si3 1.681537 1_565
O142 Ti16 1.797332 1_555
O143 S7 1.507631 1_555
O143 Ti17 2.047573 1_555
