# generated using pymatgen
data_DyGeIr
_symmetry_space_group_name_H-M   'P 1'
_cell_length_a   4.28762441
_cell_length_b   6.86617510
_cell_length_c   7.56945933
_cell_angle_alpha   90.00000000
_cell_angle_beta   90.00000000
_cell_angle_gamma   90.00000000
_symmetry_Int_Tables_number   1
_chemical_formula_structural   DyGeIr
_chemical_formula_sum   'Dy4 Ge4 Ir4'
_cell_volume   222.84170322
_cell_formula_units_Z   4
loop_
 _symmetry_equiv_pos_site_id
 _symmetry_equiv_pos_as_xyz
  1  'x, y, z'
loop_
 _atom_site_type_symbol
 _atom_site_label
 _atom_site_symmetry_multiplicity
 _atom_site_fract_x
 _atom_site_fract_y
 _atom_site_fract_z
 _atom_site_occupancy
  Dy  Dy0  1  0.75000000  0.49693157  0.80745804  1
  Dy  Dy1  1  0.25000000  0.00306843  0.30745804  1
  Dy  Dy2  1  0.75000000  0.99693201  0.69254166  1
  Dy  Dy3  1  0.25000000  0.50306799  0.19254166  1
  Ge  Ge0  1  0.25000000  0.79298938  0.89051363  1
  Ge  Ge1  1  0.25000000  0.29298861  0.60948600  1
  Ge  Ge2  1  0.75000000  0.20701139  0.10948600  1
  Ge  Ge3  1  0.75000000  0.70701062  0.39051363  1
  Ir  Ir0  1  0.25000000  0.66010017  0.56603016  1
  Ir  Ir1  1  0.25000000  0.16009960  0.93396951  1
  Ir  Ir2  1  0.75000000  0.83989983  0.06603016  1
  Ir  Ir3  1  0.75000000  0.33990040  0.43396951  1
loop_
_geom_bond_atom_site_label_1
_geom_bond_atom_site_label_2
_geom_bond_distance
_geom_bond_site_symmetry_2
Dy0 Ge1 2.966887 1_655
Dy0 Ge1 2.966887 1_555
Dy0 Ge0 3.020495 1_555
Dy0 Ge0 3.020495 1_655
Dy0 Ir3 3.025732 1_555
Dy0 Ge2 3.031388 1_556
Dy0 Ir0 3.031630 1_555
Dy0 Ir0 3.031630 1_655
Dy0 Ir2 3.062073 1_556
Dy0 Ir1 3.295720 1_555
Dy0 Ir1 3.295720 1_655
Dy1 Ge2 2.966887 1_455
Dy1 Ge2 2.966887 1_555
Dy1 Ge3 3.020495 1_545
Dy1 Ge3 3.020495 1_445
Dy1 Ir1 3.025732 1_554
Dy1 Ge1 3.031388 1_555
Dy1 Ir2 3.031630 1_445
Dy1 Ir2 3.031630 1_545
Dy1 Ir0 3.062073 1_545
Dy1 Ir3 3.295720 1_455
Dy1 Ir3 3.295720 1_555
Dy2 Ge0 2.966886 1_555
Dy2 Ge0 2.966886 1_655
Dy2 Ge1 3.020490 1_665
Dy2 Ge1 3.020490 1_565
Dy2 Ir2 3.025734 1_556
Dy2 Ge3 3.031394 1_555
Dy2 Ir1 3.031627 1_665
Dy2 Ir1 3.031627 1_565
Dy2 Ir3 3.062074 1_565
Dy2 Ir0 3.295720 1_655
Dy2 Ir0 3.295720 1_555
Dy3 Ge3 2.966886 1_455
Dy3 Ge3 2.966886 1_555
Dy3 Ge2 3.020490 1_555
Dy3 Ge2 3.020490 1_455
Dy3 Ir0 3.025734 1_555
Dy3 Ge0 3.031394 1_554
Dy3 Ir3 3.031627 1_455
Dy3 Ir3 3.031627 1_555
Dy3 Ir1 3.062074 1_554
Dy3 Ir2 3.295720 1_455
Dy3 Ir2 3.295720 1_555
Ge0 Ir1 2.542015 1_565
Ge0 Ir2 2.542590 1_556
Ge0 Ir2 2.542590 1_456
Ge0 Ir0 2.620170 1_555
Ge1 Ir0 2.542024 1_555
Ge1 Ir3 2.542591 1_555
Ge1 Ir3 2.542591 1_455
Ge1 Ir1 2.620170 1_555
Ge2 Ir2 2.542024 1_545
Ge2 Ir1 2.542591 1_554
Ge2 Ir1 2.542591 1_654
Ge2 Ir3 2.620170 1_555
Ge3 Ir3 2.542015 1_555
Ge3 Ir0 2.542590 1_655
Ge3 Ir0 2.542590 1_555
Ge3 Ir2 2.620170 1_555
