# generated using pymatgen
data_K2Cu2Te5
_symmetry_space_group_name_H-M   'P 1'
_cell_length_a   6.95441065
_cell_length_b   6.95441065
_cell_length_c   12.18505900
_cell_angle_alpha   90.00000000
_cell_angle_beta   90.00000000
_cell_angle_gamma   112.24080175
_symmetry_Int_Tables_number   1
_chemical_formula_structural   K2Cu2Te5
_chemical_formula_sum   'K4 Cu4 Te10'
_cell_volume   545.47172868
_cell_formula_units_Z   2
loop_
 _symmetry_equiv_pos_site_id
 _symmetry_equiv_pos_as_xyz
  1  'x, y, z'
loop_
 _atom_site_type_symbol
 _atom_site_label
 _atom_site_symmetry_multiplicity
 _atom_site_fract_x
 _atom_site_fract_y
 _atom_site_fract_z
 _atom_site_occupancy
  K  K0  1  0.79605500  0.20394500  0.00000000  1
  K  K1  1  0.20394500  0.79605500  0.00000000  1
  K  K2  1  0.20394500  0.79605500  0.50000000  1
  K  K3  1  0.79605500  0.20394500  0.50000000  1
  Cu  Cu0  1  0.46216500  0.68429700  0.75000000  1
  Cu  Cu1  1  0.31570300  0.53783500  0.25000000  1
  Cu  Cu2  1  0.53783500  0.31570300  0.25000000  1
  Cu  Cu3  1  0.68429700  0.46216500  0.75000000  1
  Te  Te0  1  0.34630800  0.34630800  0.43361000  1
  Te  Te1  1  0.06354700  0.44961000  0.75000000  1
  Te  Te2  1  0.44961000  0.06354700  0.75000000  1
  Te  Te3  1  0.55039000  0.93645300  0.25000000  1
  Te  Te4  1  0.02484800  0.02484800  0.75000000  1
  Te  Te5  1  0.97515200  0.97515200  0.25000000  1
  Te  Te6  1  0.65369200  0.65369200  0.93361000  1
  Te  Te7  1  0.34630800  0.34630800  0.06639000  1
  Te  Te8  1  0.65369200  0.65369200  0.56639000  1
  Te  Te9  1  0.93645300  0.55039000  0.25000000  1
loop_
_geom_bond_atom_site_label_1
_geom_bond_atom_site_label_2
_geom_bond_distance
_geom_bond_site_symmetry_2
K0 Te1 3.640496 1_654
K0 Te3 3.640496 1_545
K0 Te7 3.661990 1_655
K0 Te6 3.661990 1_544
K0 Te6 3.709639 1_554
K0 Te7 3.709639 1_555
K0 Te2 3.775857 1_554
K0 Te9 3.775857 1_555
K0 Te4 3.855242 1_654
K0 Te5 3.855242 1_545
K1 Te2 3.640496 1_564
K1 Te9 3.640496 1_455
K1 Te7 3.661990 1_565
K1 Te6 3.661990 1_454
K1 Te6 3.709639 1_554
K1 Te7 3.709639 1_555
K1 Te1 3.775857 1_554
K1 Te3 3.775857 1_555
K1 Te4 3.855242 1_564
K1 Te5 3.855242 1_455
K2 Te2 3.640496 1_565
K2 Te9 3.640496 1_455
K2 Te0 3.661990 1_565
K2 Te8 3.661990 1_455
K2 Te8 3.709639 1_555
K2 Te0 3.709639 1_555
K2 Te1 3.775857 1_555
K2 Te3 3.775857 1_555
K2 Te4 3.855242 1_565
K2 Te5 3.855242 1_455
K3 Te1 3.640496 1_655
K3 Te3 3.640496 1_545
K3 Te0 3.661990 1_655
K3 Te8 3.661990 1_545
K3 Te8 3.709639 1_555
K3 Te0 3.709639 1_555
K3 Te2 3.775857 1_555
K3 Te9 3.775857 1_555
K3 Te4 3.855242 1_655
K3 Te5 3.855242 1_545
Cu0 Cu3 2.565015 1_555
Cu0 Te1 2.631274 1_555
Cu0 Te8 2.653210 1_555
Cu0 Te6 2.653210 1_555
Cu0 Te2 2.671731 1_565
Cu0 K1 3.763656 1_556
Cu0 K2 3.763656 1_555
Cu1 Cu2 2.565015 1_555
Cu1 Te3 2.631274 1_555
Cu1 Te7 2.653210 1_555
Cu1 Te0 2.653210 1_555
Cu1 Te9 2.671731 1_455
Cu1 K1 3.763656 1_555
Cu1 K2 3.763656 1_555
Cu2 Te9 2.631274 1_555
Cu2 Te7 2.653210 1_555
Cu2 Te0 2.653210 1_555
Cu2 Te3 2.671731 1_545
Cu2 K3 3.763656 1_555
Cu2 K0 3.763656 1_555
Cu3 Te2 2.631274 1_555
Cu3 Te8 2.653210 1_555
Cu3 Te6 2.653210 1_555
Cu3 Te1 2.671731 1_655
Cu3 K3 3.763656 1_555
Cu3 K0 3.763656 1_556
Te0 Te8 2.880587 1_555
Te1 Te4 2.862962 1_555
Te2 Te4 2.862962 1_555
Te3 Te5 2.862962 1_555
Te5 Te9 2.862962 1_555
Te6 Te7 2.880587 1_556
