# generated using pymatgen
data_MgMn2V2(BiO5)2
_symmetry_space_group_name_H-M   'P 1'
_cell_length_a   5.48655419
_cell_length_b   7.14215667
_cell_length_c   7.24772493
_cell_angle_alpha   110.20641971
_cell_angle_beta   102.95664204
_cell_angle_gamma   97.13788466
_symmetry_Int_Tables_number   1
_chemical_formula_structural   MgMn2V2(BiO5)2
_chemical_formula_sum   'Mg1 Mn2 V2 Bi2 O10'
_cell_volume   253.34714102
_cell_formula_units_Z   1
loop_
 _symmetry_equiv_pos_site_id
 _symmetry_equiv_pos_as_xyz
  1  'x, y, z'
loop_
 _atom_site_type_symbol
 _atom_site_label
 _atom_site_symmetry_multiplicity
 _atom_site_fract_x
 _atom_site_fract_y
 _atom_site_fract_z
 _atom_site_occupancy
  Mg  Mg0  1  0.78937400  0.53424700  0.15708000  1
  Mn  Mn0  1  0.31793900  0.36296500  0.23637800  1
  Mn  Mn1  1  0.65746200  0.61607000  0.75767400  1
  V  V0  1  0.67086100  0.16245000  0.86448500  1
  V  V1  1  0.32432900  0.81675400  0.11776500  1
  Bi  Bi0  1  0.14665200  0.77663300  0.59222500  1
  Bi  Bi1  1  0.86747000  0.23509800  0.43186900  1
  O  O0  1  0.16904300  0.65904900  0.23476600  1
  O  O1  1  0.43080200  0.09153300  0.27764700  1
  O  O2  1  0.60925500  0.72760500  0.07195600  1
  O  O3  1  0.57735500  0.88813900  0.70969300  1
  O  O4  1  0.74320200  0.51262200  0.42467500  1
  O  O5  1  0.77314800  0.33387200  0.73893100  1
  O  O6  1  0.91898000  0.24057700  0.11374600  1
  O  O7  1  0.07574700  0.78095700  0.88551300  1
  O  O8  1  0.45572700  0.29818300  0.97541500  1
  O  O9  1  0.25836900  0.49102400  0.54907100  1
loop_
_geom_bond_atom_site_label_1
_geom_bond_atom_site_label_2
_geom_bond_distance
_geom_bond_site_symmetry_2
Mg0 O2 1.979573 1_555
Mg0 O0 2.028955 1_655
Mg0 O4 2.065681 1_555
Mg0 O8 2.132102 1_554
Mg0 O6 2.240372 1_555
Mn0 O6 2.112051 1_455
Mn0 O8 2.118138 1_554
Mn0 O1 2.201580 1_555
Mn0 O9 2.248122 1_555
Mn0 O4 2.322404 1_555
Mn0 O0 2.362515 1_555
Mn1 O5 2.156621 1_555
Mn1 O3 2.168059 1_555
Mn1 O2 2.227571 1_556
Mn1 O9 2.230406 1_555
Mn1 O7 2.265650 1_655
Mn1 O4 2.440440 1_555
Bi0 O9 2.142550 1_555
Bi0 O7 2.235895 1_555
Bi0 O3 2.259415 1_555
Bi0 O0 2.469367 1_555
Bi0 O4 2.470933 1_455
Bi1 O4 2.188075 1_555
Bi1 O5 2.289313 1_555
Bi1 O1 2.331852 1_555
Bi1 O6 2.397767 1_555
Bi1 O9 2.408021 1_655
O0 V1 1.859825 1_555
O1 V1 1.837403 1_545
O2 V1 1.814799 1_555
O3 V0 1.825906 1_565
O5 V0 1.862758 1_555
O6 V0 1.854800 1_554
O7 V1 1.829077 1_556
O8 V0 1.775076 1_555
