# generated using pymatgen
data_H3SO4F
_symmetry_space_group_name_H-M   'P 1'
_cell_length_a   6.53908700
_cell_length_b   7.69772100
_cell_length_c   8.20397000
_cell_angle_alpha   90.00000000
_cell_angle_beta   90.00000000
_cell_angle_gamma   90.00000000
_symmetry_Int_Tables_number   1
_chemical_formula_structural   H3SO4F
_chemical_formula_sum   'H12 S4 O16 F4'
_cell_volume   412.95558622
_cell_formula_units_Z   4
loop_
 _symmetry_equiv_pos_site_id
 _symmetry_equiv_pos_as_xyz
  1  'x, y, z'
loop_
 _atom_site_type_symbol
 _atom_site_label
 _atom_site_symmetry_multiplicity
 _atom_site_fract_x
 _atom_site_fract_y
 _atom_site_fract_z
 _atom_site_occupancy
  H  H0  1  0.25000000  0.92007600  0.73161000  1
  H  H1  1  0.75000000  0.07992400  0.26839000  1
  H  H2  1  0.75000000  0.42007600  0.76839000  1
  H  H3  1  0.25000000  0.57992400  0.23161000  1
  H  H4  1  0.62014100  0.18718300  0.41501900  1
  H  H5  1  0.12014100  0.81281700  0.58498100  1
  H  H6  1  0.37985900  0.68718300  0.08498100  1
  H  H7  1  0.87985900  0.31281700  0.91501900  1
  H  H8  1  0.62014100  0.31281700  0.91501900  1
  H  H9  1  0.12014100  0.68718300  0.08498100  1
  H  H10  1  0.37985900  0.81281700  0.58498100  1
  H  H11  1  0.87985900  0.18718300  0.41501900  1
  S  S0  1  0.25000000  0.19260400  0.01335000  1
  S  S1  1  0.75000000  0.80739600  0.98665000  1
  S  S2  1  0.75000000  0.69260400  0.48665000  1
  S  S3  1  0.25000000  0.30739600  0.51335000  1
  O  O0  1  0.43586000  0.29598900  0.02839000  1
  O  O1  1  0.93586000  0.79598900  0.47161000  1
  O  O2  1  0.06414000  0.29598900  0.02839000  1
  O  O3  1  0.56414000  0.70401100  0.97161000  1
  O  O4  1  0.25000000  0.43938000  0.38848000  1
  O  O5  1  0.75000000  0.56062000  0.61152000  1
  O  O6  1  0.75000000  0.93938000  0.11152000  1
  O  O7  1  0.25000000  0.06062000  0.88848000  1
  O  O8  1  0.25000000  0.68095200  0.15523900  1
  O  O9  1  0.75000000  0.31904800  0.84476100  1
  O  O10  1  0.75000000  0.18095200  0.34476100  1
  O  O11  1  0.25000000  0.81904800  0.65523900  1
  O  O12  1  0.56414000  0.79598900  0.47161000  1
  O  O13  1  0.06414000  0.20401100  0.52839000  1
  O  O14  1  0.43586000  0.20401100  0.52839000  1
  O  O15  1  0.93586000  0.70401100  0.97161000  1
  F  F0  1  0.25000000  0.08275400  0.18062100  1
  F  F1  1  0.75000000  0.91724600  0.81937900  1
  F  F2  1  0.75000000  0.58275400  0.31937900  1
  F  F3  1  0.25000000  0.41724600  0.68062100  1
loop_
_geom_bond_atom_site_label_1
_geom_bond_atom_site_label_2
_geom_bond_distance
_geom_bond_site_symmetry_2
H0 O11 0.998676 1_555
H0 O7 1.681278 1_565
H1 O10 0.998676 1_555
H1 O6 1.681278 1_545
H2 O9 0.998676 1_555
H2 O5 1.681278 1_555
H3 O8 0.998676 1_555
H3 O4 1.681278 1_555
H4 O10 1.027425 1_555
H4 O14 1.527726 1_555
H5 O11 1.027425 1_555
H5 O1 1.527726 1_455
H6 O8 1.027425 1_555
H6 O3 1.527726 1_554
H7 O9 1.027425 1_555
H7 O2 1.527726 1_656
H8 O9 1.027425 1_555
H8 O0 1.527726 1_556
H9 O8 1.027425 1_555
H9 O15 1.527726 1_454
H10 O11 1.027425 1_555
H10 O12 1.527726 1_555
H11 O10 1.027425 1_555
H11 O13 1.527726 1_655
O0 S0 1.457963 1_555
O1 S2 1.457963 1_555
O2 S0 1.457963 1_555
O3 S1 1.457963 1_555
O4 S3 1.442797 1_555
O5 S2 1.442797 1_555
O6 S1 1.442797 1_554
O7 S0 1.442797 1_556
O12 S2 1.457963 1_555
O13 S3 1.457963 1_555
O14 S3 1.457963 1_555
O15 S1 1.457963 1_555
F0 S0 1.611893 1_555
F1 S1 1.611893 1_555
F2 S2 1.611893 1_555
F3 S3 1.611893 1_555
