# generated using pymatgen
data_MgCo2P2(O4F)2
_symmetry_space_group_name_H-M   'P 1'
_cell_length_a   5.38084938
_cell_length_b   5.15361438
_cell_length_c   7.34618063
_cell_angle_alpha   107.91073406
_cell_angle_beta   110.98603614
_cell_angle_gamma   92.01084241
_symmetry_Int_Tables_number   1
_chemical_formula_structural   MgCo2P2(O4F)2
_chemical_formula_sum   'Mg1 Co2 P2 O8 F2'
_cell_volume   178.55035005
_cell_formula_units_Z   1
loop_
 _symmetry_equiv_pos_site_id
 _symmetry_equiv_pos_as_xyz
  1  'x, y, z'
loop_
 _atom_site_type_symbol
 _atom_site_label
 _atom_site_symmetry_multiplicity
 _atom_site_fract_x
 _atom_site_fract_y
 _atom_site_fract_z
 _atom_site_occupancy
  Mg  Mg0  1  0.99843700  0.50140400  0.49825700  1
  Co  Co0  1  0.99820800  0.00115000  0.99715100  1
  Co  Co1  1  0.49751800  0.50244000  0.49646900  1
  P  P0  1  0.40741100  0.11373100  0.75434400  1
  P  P1  1  0.58891900  0.89019700  0.23980600  1
  O  O0  1  0.27749600  0.83710500  0.13579600  1
  O  O1  1  0.73330700  0.84346300  0.09218800  1
  O  O2  1  0.68302200  0.19175900  0.40309300  1
  O  O3  1  0.66849900  0.68590500  0.36423900  1
  O  O4  1  0.26208600  0.15971700  0.90143700  1
  O  O5  1  0.31167900  0.81278900  0.58974200  1
  O  O6  1  0.32881100  0.31963700  0.63102800  1
  O  O7  1  0.71884900  0.16410700  0.85771000  1
  F  F0  1  0.12747100  0.35627400  0.26428600  1
  F  F1  1  0.86703600  0.64532200  0.72981200  1
loop_
_geom_bond_atom_site_label_1
_geom_bond_atom_site_label_2
_geom_bond_distance
_geom_bond_site_symmetry_2
Mg0 O2 2.046866 1_555
Mg0 O5 2.050196 1_655
Mg0 O6 2.103786 1_655
Mg0 O3 2.113654 1_555
Co0 O7 1.878555 1_555
Co0 O0 1.879617 1_646
Co0 O1 2.039624 1_546
Co0 O4 2.040927 1_655
Co0 F0 2.099601 1_656
Co0 F1 2.102173 1_545
Co1 O3 1.956533 1_555
Co1 O6 1.960680 1_555
Co1 O5 1.989105 1_555
Co1 O2 1.989361 1_555
Co1 F0 2.028116 1_555
Co1 F1 2.028203 1_555
O0 P1 1.545588 1_555
O1 P1 1.514458 1_555
O2 P1 1.572797 1_545
O3 P1 1.571829 1_555
O4 P0 1.515261 1_555
O5 P0 1.573911 1_565
O6 P0 1.572872 1_555
O7 P0 1.545656 1_555
F0 Mg0 2.023924 1_455
F1 Mg0 2.016399 1_555
