# generated using pymatgen
data_Na4MgV4O10
_symmetry_space_group_name_H-M   'P 1'
_cell_length_a   5.64702745
_cell_length_b   5.66282364
_cell_length_c   8.63277385
_cell_angle_alpha   110.17529415
_cell_angle_beta   111.35533961
_cell_angle_gamma   90.81269439
_symmetry_Int_Tables_number   1
_chemical_formula_structural   Na4MgV4O10
_chemical_formula_sum   'Na4 Mg1 V4 O10'
_cell_volume   238.22522498
_cell_formula_units_Z   1
loop_
 _symmetry_equiv_pos_site_id
 _symmetry_equiv_pos_as_xyz
  1  'x, y, z'
loop_
 _atom_site_type_symbol
 _atom_site_label
 _atom_site_symmetry_multiplicity
 _atom_site_fract_x
 _atom_site_fract_y
 _atom_site_fract_z
 _atom_site_occupancy
  Na  Na0  1  0.70598484  0.14710935  0.17609106  1
  Na  Na1  1  0.39571882  0.85982922  0.78629674  1
  Na  Na2  1  0.09754869  0.55242092  0.20644058  1
  Na  Na3  1  0.90352887  0.41858242  0.79530314  1
  Mg  Mg0  1  0.42463513  0.01999652  0.30664926  1
  V  V0  1  0.01341325  0.00084520  0.98776335  1
  V  V1  1  0.51443037  0.49577596  0.99757479  1
  V  V2  1  0.16222958  0.17530498  0.51735665  1
  V  V3  1  0.71086026  0.79109403  0.50628976  1
  O  O0  1  0.25622368  0.23339521  0.98922284  1
  O  O1  1  0.32574859  0.79158773  0.06063891  1
  O  O2  1  0.75110838  0.23338951  0.95456289  1
  O  O3  1  0.80307974  0.76802117  0.00640381  1
  O  O4  1  0.14676944  0.20787607  0.29273067  1
  O  O5  1  0.90448159  0.79216922  0.72041077  1
  O  O6  1  0.68844591  0.56970611  0.29899136  1
  O  O7  1  0.33037769  0.42904670  0.73056912  1
  O  O8  1  0.79701828  0.09710899  0.47488862  1
  O  O9  1  0.37139889  0.88102669  0.48087668  1
loop_
_geom_bond_atom_site_label_1
_geom_bond_atom_site_label_2
_geom_bond_distance
_geom_bond_site_symmetry_2
Na0 O2 2.226394 1_554
Na0 O6 2.279087 1_555
Na0 O4 2.288963 1_655
Na0 O3 2.346071 1_545
Na0 O8 2.557379 1_555
Na0 O1 2.567432 1_545
Na0 O0 2.624254 1_554
Na1 O7 2.313903 1_555
Na1 O2 2.499885 1_565
Na1 O0 2.580796 1_565
Na1 O3 2.589296 1_556
Na1 O5 2.614567 1_455
Na1 O9 2.634409 1_555
Na1 O1 2.687559 1_556
Na2 O4 2.303493 1_555
Na2 O9 2.382458 1_555
Na2 O2 2.431284 1_454
Na2 O0 2.552616 1_554
Na2 O3 2.580384 1_455
Na2 O6 2.698479 1_455
Na2 O1 2.717873 1_555
Na3 O2 2.358318 1_555
Na3 O5 2.416461 1_555
Na3 O3 2.419869 1_556
Na3 O8 2.571142 1_555
Na3 O0 2.590544 1_655
Na3 O7 2.669419 1_655
Na3 O1 2.816989 1_656
Mg0 O4 1.899139 1_555
Mg0 O1 1.927724 1_545
Mg0 O8 2.008539 1_555
Mg0 O9 2.027550 1_545
Mg0 Na0 2.478717 1_555
O0 V0 1.881271 1_555
O0 V1 2.031498 1_555
O1 V1 2.020336 1_554
O1 V0 2.162463 1_564
O2 V0 2.004201 1_655
O2 V1 2.041844 1_555
O3 V0 1.848264 1_664
O3 V1 2.190135 1_554
O4 V2 1.981363 1_555
O4 V0 2.296678 1_554
O5 V3 1.769864 1_555
O5 V0 2.041012 1_665
O6 V3 1.753063 1_555
O6 V1 2.299194 1_554
O7 V2 1.793946 1_555
O7 V1 2.044338 1_555
O8 V3 1.925966 1_545
O8 V2 1.973641 1_655
O9 V3 1.944390 1_555
O9 V2 2.058195 1_565
