# generated using pymatgen
data_Na30Ta8Zn16Si15(S7O48)3
_symmetry_space_group_name_H-M   'P 1'
_cell_length_a   18.01789209
_cell_length_b   9.02797249
_cell_length_c   22.28241003
_cell_angle_alpha   89.96355511
_cell_angle_beta   89.60250480
_cell_angle_gamma   119.99258777
_symmetry_Int_Tables_number   1
_chemical_formula_structural   Na30Ta8Zn16Si15(S7O48)3
_chemical_formula_sum   'Na30 Ta8 Zn16 Si15 S21 O144'
_cell_volume   3139.09245465
_cell_formula_units_Z   1
loop_
 _symmetry_equiv_pos_site_id
 _symmetry_equiv_pos_as_xyz
  1  'x, y, z'
loop_
 _atom_site_type_symbol
 _atom_site_label
 _atom_site_symmetry_multiplicity
 _atom_site_fract_x
 _atom_site_fract_y
 _atom_site_fract_z
 _atom_site_occupancy
  Na  Na0  1  0.32320601  0.02378486  0.24680601  1
  Na  Na1  1  0.82358828  0.02217719  0.24765105  1
  Na  Na2  1  0.18673697  0.34879694  0.24794132  1
  Na  Na3  1  0.68527029  0.34872731  0.24775330  1
  Na  Na4  1  0.98850322  0.62581787  0.24850495  1
  Na  Na5  1  0.48745767  0.61790315  0.24217483  1
  Na  Na6  1  0.32259526  0.62296027  0.74808057  1
  Na  Na7  1  0.82539815  0.62560047  0.74893034  1
  Na  Na8  1  0.98766781  0.35493365  0.74397865  1
  Na  Na9  1  0.48732851  0.35507174  0.74328526  1
  Na  Na10  1  0.18466899  0.02361671  0.74843480  1
  Na  Na11  1  0.68644284  0.02394293  0.74827522  1
  Na  Na12  1  0.01354377  0.67887193  0.58762720  1
  Na  Na13  1  0.51370731  0.67885096  0.58683737  1
  Na  Na14  1  0.51365555  0.34719014  0.08468827  1
  Na  Na15  1  0.47811573  0.66650183  0.91722256  1
  Na  Na16  1  0.47801122  0.28902217  0.41840030  1
  Na  Na17  1  0.97779572  0.28867856  0.41961002  1
  Na  Na18  1  0.99858588  0.00353890  0.49672313  1
  Na  Na19  1  0.49905736  0.00365858  0.49616853  1
  Na  Na20  1  0.00038370  0.00068671  0.98955160  1
  Na  Na21  1  0.49812572  0.99352438  0.99392841  1
  Na  Na22  1  0.32676387  0.31970853  0.82940646  1
  Na  Na23  1  0.83488004  0.33617901  0.82999321  1
  Na  Na24  1  0.32857067  0.33426494  0.32939243  1
  Na  Na25  1  0.82673714  0.33271615  0.33101019  1
  Na  Na26  1  0.16708888  0.66601457  0.15476423  1
  Na  Na27  1  0.66642293  0.67967735  0.15438762  1
  Na  Na28  1  0.16599028  0.65347313  0.65623182  1
  Na  Na29  1  0.66670685  0.65412963  0.65563139  1
  Ta  Ta0  1  0.99983495  0.01216297  0.65047018  1
  Ta  Ta1  1  0.49929790  0.01138222  0.65073636  1
  Ta  Ta2  1  0.00027993  0.00038391  0.15024548  1
  Ta  Ta3  1  0.49967437  0.98707920  0.14951195  1
  Ta  Ta4  1  0.16757272  0.66822910  0.31105630  1
  Ta  Ta5  1  0.66682276  0.66574786  0.31093550  1
  Ta  Ta6  1  0.16462058  0.66756273  0.81215524  1
  Ta  Ta7  1  0.66787891  0.66580901  0.81179322  1
  Zn  Zn0  1  0.00012164  0.99713344  0.33970646  1
  Zn  Zn1  1  0.50099888  0.99616173  0.33991902  1
  Zn  Zn2  1  0.00162508  0.00396054  0.84151055  1
  Zn  Zn3  1  0.50161049  0.00658035  0.83916705  1
  Zn  Zn4  1  0.33915345  0.33462081  0.68526922  1
  Zn  Zn5  1  0.83963397  0.33405039  0.68514939  1
  Zn  Zn6  1  0.33923834  0.34410127  0.18440426  1
  Zn  Zn7  1  0.83448747  0.33363711  0.18530674  1
  Zn  Zn8  1  0.33299191  0.34314508  0.99046782  1
  Zn  Zn9  1  0.83621019  0.33833174  0.98258517  1
  Zn  Zn10  1  0.33514234  0.32483806  0.49368245  1
  Zn  Zn11  1  0.83490010  0.32441835  0.49410542  1
  Zn  Zn12  1  0.16508117  0.66510170  0.01436035  1
  Zn  Zn13  1  0.66610654  0.67612029  0.01853331  1
  Zn  Zn14  1  0.16487761  0.65536721  0.51889352  1
  Zn  Zn15  1  0.66505171  0.65561079  0.51866121  1
  Si  Si0  1  0.14754914  0.00506640  0.25149735  1
  Si  Si1  1  0.64749884  0.00374571  0.25356765  1
  Si  Si2  1  0.35444002  0.70586734  0.25375435  1
  Si  Si3  1  0.85450199  0.70591522  0.25211549  1
  Si  Si4  1  0.99915369  0.29094429  0.25478017  1
  Si  Si5  1  0.49899681  0.28718256  0.25350998  1
  Si  Si6  1  0.14810601  0.29215912  0.75383980  1
  Si  Si7  1  0.64890715  0.29175199  0.75305911  1
  Si  Si8  1  0.99850247  0.71103158  0.75180725  1
  Si  Si9  1  0.49956421  0.71011879  0.75410830  1
  Si  Si10  1  0.35325134  0.00195899  0.75426870  1
  Si  Si11  1  0.85508850  0.00364282  0.75479887  1
  Si  Si12  1  0.48305952  0.33447583  0.58089714  1
  Si  Si13  1  0.98323130  0.33403432  0.58067597  1
  Si  Si14  1  0.48242677  0.62932614  0.08051138  1
  S  S0  1  0.18298668  0.03749155  0.58348865  1
  S  S1  1  0.68275704  0.03710159  0.58381819  1
  S  S2  1  0.33505914  0.63374722  0.58363592  1
  S  S3  1  0.83496382  0.63368726  0.58347172  1
  S  S4  1  0.98219811  0.63374650  0.08328804  1
  S  S5  1  0.33237183  0.03215532  0.08347247  1
  S  S6  1  0.83748584  0.04184868  0.08329897  1
  S  S7  1  0.18154128  0.33146634  0.08356607  1
  S  S8  1  0.68583975  0.32955494  0.08319464  1
  S  S9  1  0.31084061  0.66440053  0.91806653  1
  S  S10  1  0.81095674  0.66452625  0.92037495  1
  S  S11  1  0.01913592  0.37422575  0.91978929  1
  S  S12  1  0.51987507  0.36923061  0.91860275  1
  S  S13  1  0.16800136  0.96122770  0.91974341  1
  S  S14  1  0.66933865  0.96329097  0.91776603  1
  S  S15  1  0.30945380  0.95419939  0.41907657  1
  S  S16  1  0.80979959  0.95435360  0.41858608  1
  S  S17  1  0.16888058  0.37561199  0.41780198  1
  S  S18  1  0.66917502  0.37516800  0.41803501  1
  S  S19  1  0.01993969  0.67044633  0.41802186  1
  S  S20  1  0.52027149  0.67053307  0.41817899  1
  O  O0  1  0.11109571  0.05487022  0.30841461  1
  O  O1  1  0.61255659  0.05444400  0.31078945  1
  O  O2  1  0.41427769  0.78161031  0.31036992  1
  O  O3  1  0.91520993  0.78043042  0.30862720  1
  O  O4  1  0.48286095  0.18157953  0.31467442  1
  O  O5  1  0.97830422  0.18157792  0.31539038  1
  O  O6  1  0.11300802  0.17167078  0.81102730  1
  O  O7  1  0.61326457  0.17101031  0.81029628  1
  O  O8  1  0.48287122  0.78381507  0.81492791  1
  O  O9  1  0.97791096  0.78969250  0.80858313  1
  O  O10  1  0.41490011  0.04901889  0.81010914  1
  O  O11  1  0.91641971  0.05194159  0.81063196  1
  O  O12  1  0.39944429  0.96038148  0.69540304  1
  O  O13  1  0.90058088  0.96159129  0.69551583  1
  O  O14  1  0.07923965  0.20016129  0.69638537  1
  O  O15  1  0.57915997  0.20000603  0.69628694  1
  O  O16  1  0.01985101  0.83560342  0.69065004  1
  O  O17  1  0.51912660  0.83877682  0.69477390  1
  O  O18  1  0.40071314  0.83856108  0.19508304  1
  O  O19  1  0.90035537  0.84097725  0.19370705  1
  O  O20  1  0.01895558  0.19220926  0.19803692  1
  O  O21  1  0.51877173  0.19870357  0.19412794  1
  O  O22  1  0.07860638  0.95873824  0.19399723  1
  O  O23  1  0.57962964  0.95915165  0.19621367  1
  O  O24  1  0.43904972  0.36522681  0.63946331  1
  O  O25  1  0.93897207  0.36407946  0.63912898  1
  O  O26  1  0.22927013  0.11650802  0.63867477  1
  O  O27  1  0.72916632  0.11634520  0.63886076  1
  O  O28  1  0.32328077  0.53710365  0.63940362  1
  O  O29  1  0.82324082  0.53727805  0.63922344  1
  O  O30  1  0.44007181  0.51373252  0.14030550  1
  O  O31  1  0.94364259  0.53842306  0.13990257  1
  O  O32  1  0.32093419  0.10394908  0.13994692  1
  O  O33  1  0.82763519  0.11728996  0.13986910  1
  O  O34  1  0.22861239  0.34858575  0.13932628  1
  O  O35  1  0.73164217  0.34356761  0.13958683  1
  O  O36  1  0.22068603  0.30349885  0.02988410  1
  O  O37  1  0.72707563  0.30516283  0.03019694  1
  O  O38  1  0.42836482  0.55364445  0.01905905  1
  O  O39  1  0.92922613  0.55196654  0.03059303  1
  O  O40  1  0.34574760  0.14281262  0.03100275  1
  O  O41  1  0.84894555  0.14774721  0.03030806  1
  O  O42  1  0.22187705  0.14319963  0.52899202  1
  O  O43  1  0.72100091  0.14267774  0.52924598  1
  O  O44  1  0.34781942  0.55008191  0.53023226  1
  O  O45  1  0.84741003  0.54943389  0.53010529  1
  O  O46  1  0.43023701  0.30093989  0.51827633  1
  O  O47  1  0.93029826  0.30114882  0.51801484  1
  O  O48  1  0.26655603  0.67500942  0.97176259  1
  O  O49  1  0.76381285  0.67560305  0.97265064  1
  O  O50  1  0.07009914  0.46220329  0.97270153  1
  O  O51  1  0.56816290  0.45392076  0.97311842  1
  O  O52  1  0.16068873  0.85668617  0.97250184  1
  O  O53  1  0.65991058  0.85611265  0.97007224  1
  O  O54  1  0.26285691  0.85224825  0.47112920  1
  O  O55  1  0.76317956  0.85288448  0.47100453  1
  O  O56  1  0.15929374  0.46465831  0.46921723  1
  O  O57  1  0.65990512  0.46531001  0.46940381  1
  O  O58  1  0.06835257  0.68169874  0.47187328  1
  O  O59  1  0.56855375  0.68195312  0.47233627  1
  O  O60  1  0.07102374  0.65558478  0.36311493  1
  O  O61  1  0.57188336  0.65578277  0.36372613  1
  O  O62  1  0.25850490  0.85750999  0.36202512  1
  O  O63  1  0.75935733  0.85787330  0.36169133  1
  O  O64  1  0.17516538  0.48321017  0.36062704  1
  O  O65  1  0.67555362  0.48222654  0.36075796  1
  O  O66  1  0.06777826  0.48583805  0.86388950  1
  O  O67  1  0.57104403  0.48676127  0.86453076  1
  O  O68  1  0.17450857  0.86388122  0.86324791  1
  O  O69  1  0.67586835  0.86862794  0.86151236  1
  O  O70  1  0.25905216  0.65817911  0.86261463  1
  O  O71  1  0.75724270  0.65189173  0.86361782  1
  O  O72  1  0.01254396  0.82387491  0.41213421  1
  O  O73  1  0.51274385  0.82354745  0.41241593  1
  O  O74  1  0.39571344  0.97446437  0.41606119  1
  O  O75  1  0.89613117  0.97432872  0.41591970  1
  O  O76  1  0.08928469  0.20875455  0.41365396  1
  O  O77  1  0.58963384  0.20861289  0.41442208  1
  O  O78  1  0.01184094  0.20669097  0.91457907  1
  O  O79  1  0.51227882  0.20121007  0.91300702  1
  O  O80  1  0.09098013  0.97455379  0.91502371  1
  O  O81  1  0.59006269  0.97215686  0.91408930  1
  O  O82  1  0.39726816  0.81603021  0.91513177  1
  O  O83  1  0.89492627  0.81736973  0.91574324  1
  O  O84  1  0.49171680  0.15675417  0.59099846  1
  O  O85  1  0.99211448  0.15657427  0.59013546  1
  O  O86  1  0.09254349  0.01260115  0.58681857  1
  O  O87  1  0.59185776  0.01063398  0.58771672  1
  O  O88  1  0.41978532  0.80457873  0.58779072  1
  O  O89  1  0.91929268  0.80476215  0.58720901  1
  O  O90  1  0.49184132  0.82550467  0.09073074  1
  O  O91  1  0.98949347  0.81051947  0.08841349  1
  O  O92  1  0.41684404  0.02841814  0.08781202  1
  O  O93  1  0.91932696  0.02903670  0.08834212  1
  O  O94  1  0.09241417  0.16972633  0.08896126  1
  O  O95  1  0.59517152  0.17284249  0.08733468  1
  O  O96  1  0.33072398  0.14977521  0.74285992  1
  O  O97  1  0.83152585  0.14978585  0.74292598  1
  O  O98  1  0.24315208  0.33242561  0.73801130  1
  O  O99  1  0.74392747  0.33275515  0.73770396  1
  O  O100  1  0.42128142  0.51913707  0.74545345  1
  O  O101  1  0.92205480  0.51779898  0.74399638  1
  O  O102  1  0.33188972  0.51278388  0.24302341  1
  O  O103  1  0.83394217  0.51408029  0.23995480  1
  O  O104  1  0.42059260  0.32198931  0.24528270  1
  O  O105  1  0.92310351  0.32939759  0.24136849  1
  O  O106  1  0.24294180  0.15501714  0.23718889  1
  O  O107  1  0.74340952  0.15387586  0.23994687  1
  O  O108  1  0.31600092  0.50527695  0.91534632  1
  O  O109  1  0.81466947  0.50390256  0.91958614  1
  O  O110  1  0.43679874  0.36537186  0.91575021  1
  O  O111  1  0.93504353  0.36745161  0.91932590  1
  O  O112  1  0.24844860  0.12789977  0.91934455  1
  O  O113  1  0.74804650  0.13118357  0.91820224  1
  O  O114  1  0.31425762  0.12283064  0.41537922  1
  O  O115  1  0.81482443  0.12317629  0.41520715  1
  O  O116  1  0.24763297  0.36528653  0.41814501  1
  O  O117  1  0.74792800  0.36495597  0.41847085  1
  O  O118  1  0.43737028  0.50846514  0.41503412  1
  O  O119  1  0.93696940  0.50858130  0.41485759  1
  O  O120  1  0.16812286  0.48007664  0.07799164  1
  O  O121  1  0.67276157  0.47904766  0.07867869  1
  O  O122  1  0.07018863  0.66047476  0.07821460  1
  O  O123  1  0.57823317  0.64974129  0.07720598  1
  O  O124  1  0.26047635  0.85542630  0.07705072  1
  O  O125  1  0.76432726  0.86586266  0.07869109  1
  O  O126  1  0.17106773  0.86302122  0.57810445  1
  O  O127  1  0.67093632  0.86263896  0.57830713  1
  O  O128  1  0.26461467  0.66986023  0.57722173  1
  O  O129  1  0.76417843  0.66932219  0.57706342  1
  O  O130  1  0.07866226  0.50600246  0.57771603  1
  O  O131  1  0.57846650  0.50600658  0.57773671  1
  O  O132  1  0.14959608  0.82076040  0.25941453  1
  O  O133  1  0.65068751  0.82082197  0.25975449  1
  O  O134  1  0.26049552  0.70447281  0.25836411  1
  O  O135  1  0.76039063  0.70138920  0.25836983  1
  O  O136  1  0.09078100  0.48048297  0.25922089  1
  O  O137  1  0.59007591  0.48126582  0.25942170  1
  O  O138  1  0.14988433  0.48008394  0.76091742  1
  O  O139  1  0.65050317  0.47939303  0.76018890  1
  O  O140  1  0.09009033  0.70093192  0.75965695  1
  O  O141  1  0.59074619  0.69882661  0.76030698  1
  O  O142  1  0.25979742  0.81701181  0.76016933  1
  O  O143  1  0.76152661  0.81695495  0.76018346  1
loop_
_geom_bond_atom_site_label_1
_geom_bond_atom_site_label_2
_geom_bond_distance
_geom_bond_site_symmetry_2
Na0 O106 2.293041 1_555
Na0 O104 2.367300 1_555
Na0 O32 2.494746 1_555
Na0 O134 2.528186 1_545
Na0 O132 2.734655 1_545
Na0 O18 2.896484 1_545
Na0 O62 2.899609 1_545
Na0 O4 2.925319 1_555
Na1 O107 2.291417 1_555
Na1 O105 2.439536 1_555
Na1 O135 2.537562 1_545
Na1 O33 2.538281 1_555
Na1 O133 2.721814 1_545
Na1 O5 2.858432 1_555
Na1 O63 2.869651 1_545
Na1 O19 2.876750 1_545
Na2 O102 2.273451 1_555
Na2 O106 2.431440 1_555
Na2 O34 2.530372 1_555
Na2 O136 2.552463 1_555
Na2 O0 2.658733 1_555
Na2 O134 2.805289 1_555
Na2 O64 2.840815 1_555
Na2 O20 2.854803 1_555
Na3 O103 2.330158 1_555
Na3 O107 2.462172 1_555
Na3 O137 2.547026 1_555
Na3 O35 2.553526 1_555
Na3 O1 2.690277 1_555
Na3 O135 2.778795 1_555
Na3 O65 2.834137 1_555
Na3 O21 2.872538 1_555
Na4 O105 2.329304 1_555
Na4 O103 2.451191 1_555
Na4 O132 2.546460 1_655
Na4 O31 2.554183 1_555
Na4 O3 2.703291 1_555
Na4 O136 2.756391 1_655
Na4 O22 2.869498 1_655
Na4 O60 2.908408 1_655
Na5 O104 2.318183 1_555
Na5 O30 2.447992 1_555
Na5 O102 2.469327 1_555
Na5 O133 2.605674 1_555
Na5 O137 2.716169 1_555
Na5 O23 2.855742 1_555
Na5 O2 2.855746 1_555
Na6 O98 2.287056 1_555
Na6 O100 2.389265 1_555
Na6 O142 2.529843 1_555
Na6 O28 2.544910 1_555
Na6 O138 2.720949 1_555
Na6 O70 2.872203 1_555
Na6 O12 2.886246 1_555
Na6 O8 2.921781 1_555
Na7 O99 2.309321 1_555
Na7 O101 2.384173 1_555
Na7 O143 2.521091 1_555
Na7 O29 2.566295 1_555
Na7 O9 2.737863 1_555
Na7 O139 2.750558 1_555
Na7 O13 2.884016 1_555
Na7 O71 2.888539 1_555
Na8 O101 2.301605 1_555
Na8 O97 2.477350 1_555
Na8 O25 2.517057 1_555
Na8 O138 2.583803 1_655
Na8 O140 2.744459 1_655
Na8 O11 2.791746 1_555
Na8 O14 2.842854 1_655
Na8 O66 2.995206 1_655
Na9 O100 2.318174 1_555
Na9 O96 2.483736 1_555
Na9 O24 2.494859 1_555
Na9 O139 2.600454 1_555
Na9 O141 2.734402 1_555
Na9 O10 2.813780 1_555
Na9 O15 2.843919 1_555
Na10 O96 2.288375 1_555
Na10 O98 2.448571 1_555
Na10 O140 2.546187 1_545
Na10 O26 2.574289 1_555
Na10 O6 2.664914 1_555
Na10 O142 2.812189 1_545
Na10 O16 2.893826 1_545
Na10 O68 2.895334 1_545
Na11 O97 2.272597 1_555
Na11 O99 2.451474 1_555
Na11 O27 2.561593 1_555
Na11 O141 2.567639 1_545
Na11 O7 2.671793 1_555
Na11 O143 2.815034 1_545
Na11 O69 2.844409 1_545
Na11 O17 2.884090 1_545
Na12 O130 2.385082 1_555
Na12 O89 2.470939 1_455
Na12 O126 2.477550 1_555
Na12 O86 2.610732 1_565
Na12 O16 2.670543 1_555
Na12 O25 2.712139 1_455
Na12 O58 2.750987 1_555
Na12 O45 2.920044 1_455
Na13 O131 2.378028 1_555
Na13 O88 2.464260 1_555
Na13 O127 2.471313 1_555
Na13 O87 2.595920 1_565
Na13 O24 2.714289 1_555
Na13 O59 2.724712 1_555
Na13 O17 2.783034 1_555
Na13 O44 2.907986 1_555
Na14 O123 2.379414 1_555
Na14 O121 2.497182 1_555
Na14 O92 2.511749 1_555
Na14 O95 2.636393 1_555
Na14 O51 2.662775 1_554
Na14 O30 2.743506 1_555
Na14 O21 2.806190 1_555
Na14 O40 2.908665 1_555
Na15 O82 2.431741 1_555
Na15 O110 2.433739 1_555
Na15 O38 2.458955 1_556
Na15 O81 2.474067 1_555
Na15 O8 2.495608 1_555
Na15 O108 2.530520 1_555
Na16 O46 2.402418 1_555
Na16 O118 2.432622 1_555
Na16 O77 2.457043 1_555
Na16 O74 2.461160 1_545
Na16 O4 2.524924 1_555
Na16 O114 2.556972 1_555
Na17 O47 2.371412 1_555
Na17 O119 2.440187 1_555
Na17 O76 2.453377 1_655
Na17 O75 2.460256 1_545
Na17 O5 2.517800 1_555
Na17 O115 2.546035 1_555
Na18 O75 2.505819 1_545
Na18 O85 2.533023 1_555
Na18 O76 2.540839 1_655
Na18 O72 2.579133 1_645
Na18 O89 2.592095 1_545
Na18 O86 2.609940 1_655
Na19 O74 2.505770 1_545
Na19 O77 2.518019 1_555
Na19 O84 2.564244 1_555
Na19 O73 2.566305 1_545
Na19 O88 2.612788 1_545
Na19 O87 2.627402 1_555
Na20 O80 2.413703 1_545
Na20 O78 2.428929 1_555
Na20 O83 2.440714 1_445
Na20 O93 2.715509 1_456
Na20 O91 2.736981 1_446
Na20 O94 2.740518 1_556
Na21 O82 2.467667 1_555
Na21 O81 2.495022 1_555
Na21 O79 2.518556 1_565
Na21 O90 2.605200 1_556
Na21 O92 2.653284 1_566
Na21 O95 2.689762 1_566
Na22 O96 2.487769 1_555
Na22 O112 2.553293 1_555
Na22 O100 2.554853 1_555
Na22 O98 2.577847 1_555
Na22 O108 2.614388 1_555
Na22 O110 2.653112 1_555
Na23 O101 2.491362 1_555
Na23 O97 2.550152 1_555
Na23 O113 2.606525 1_555
Na23 O111 2.615378 1_555
Na23 O99 2.628996 1_555
Na23 O109 2.637395 1_555
Na24 O102 2.490557 1_555
Na24 O104 2.532735 1_555
Na24 O116 2.546597 1_555
Na24 O106 2.602346 1_555
Na24 O114 2.622494 1_555
Na24 O118 2.632736 1_555
Na25 O117 2.504901 1_555
Na25 O103 2.567868 1_555
Na25 O107 2.569274 1_555
Na25 O115 2.593919 1_555
Na25 O119 2.618928 1_555
Na25 O105 2.647528 1_555
Na26 O120 2.403973 1_555
Na26 O124 2.415185 1_555
Na26 O122 2.431949 1_555
Na26 O134 2.784366 1_555
Na26 O136 2.785965 1_555
Na26 O132 2.814749 1_555
Na27 O123 2.272617 1_555
Na27 O125 2.402658 1_555
Na27 O121 2.519464 1_555
Na27 O133 2.751755 1_555
Na27 O135 2.827824 1_555
Na27 O137 2.839878 1_555
Na28 O130 2.292579 1_555
Na28 O128 2.443878 1_555
Na28 O126 2.537408 1_555
Na28 O138 2.739999 1_555
Na28 O140 2.812139 1_555
Na28 O142 2.822081 1_555
Na29 O131 2.290031 1_555
Na29 O129 2.425750 1_555
Na29 O127 2.523601 1_555
Na29 O139 2.743567 1_555
Na29 O141 2.825828 1_555
Na29 O143 2.838270 1_555
O0 Si0 1.589484 1_555
O0 Zn0 1.922011 1_545
O1 Si1 1.584077 1_555
O1 Zn1 1.913759 1_545
O2 Si2 1.582513 1_555
O2 Zn1 1.901807 1_555
O3 Si3 1.587185 1_555
O3 Zn0 1.916164 1_655
O4 Si5 1.602082 1_555
O4 Zn1 1.942577 1_545
O5 Si4 1.600122 1_555
O5 Zn0 1.969035 1_645
O6 Si6 1.583113 1_555
O6 Zn2 1.929578 1_555
O7 Si7 1.585632 1_555
O7 Zn3 1.913062 1_555
O8 Si9 1.601647 1_555
O8 Zn3 1.943024 1_565
O9 Si8 1.581296 1_555
O9 Zn2 1.908566 1_665
O10 Si10 1.584472 1_555
O10 Zn3 1.902392 1_555
O11 Si11 1.580217 1_555
O11 Zn2 1.922783 1_655
O12 Si10 1.688761 1_565
O12 Ta1 1.893647 1_565
O13 Si11 1.690468 1_565
O13 Ta0 1.890056 1_565
O14 Si6 1.691595 1_555
O14 Ta0 1.889205 1_455
O15 Si7 1.687703 1_555
O15 Ta1 1.890297 1_555
O16 Si8 1.681686 1_455
O16 Ta0 2.012409 1_465
O17 Si9 1.674401 1_555
O17 Ta1 2.019472 1_565
O18 Si2 1.680381 1_555
O18 Ta3 1.895034 1_555
O19 Si3 1.684964 1_555
O19 Ta2 1.906318 1_665
O20 Si4 1.683340 1_455
O20 Ta2 1.916006 1_555
O21 Si5 1.671871 1_555
O21 Ta3 2.026525 1_545
O22 Si0 1.692014 1_565
O22 Ta2 1.905936 1_565
O23 Si1 1.679538 1_565
O23 Ta3 1.898811 1_555
O24 Si12 1.617118 1_555
O24 Zn4 1.958251 1_555
O25 Si13 1.615008 1_555
O25 Zn5 1.953893 1_555
O26 S0 1.461855 1_555
O26 Zn4 2.237997 1_555
O27 S1 1.460325 1_555
O27 Zn5 2.237943 1_555
O28 S2 1.469789 1_555
O28 Zn4 2.234333 1_555
O29 S3 1.468544 1_555
O29 Zn5 2.245958 1_555
O30 Si14 1.623120 1_555
O30 Zn6 1.950190 1_555
O31 S4 1.484368 1_555
O31 Zn7 2.155093 1_555
O32 S5 1.475497 1_555
O32 Zn6 2.254569 1_555
O33 S6 1.484293 1_555
O33 Zn7 2.149040 1_555
O34 S7 1.473346 1_555
O34 Zn6 2.256544 1_555
O35 S8 1.478582 1_555
O35 Zn7 2.161452 1_555
O36 S7 1.469264 1_555
O36 Zn8 2.060328 1_554
O37 S8 1.465201 1_555
O37 Zn9 2.112764 1_554
O38 Si14 1.626337 1_555
O38 Zn8 1.929274 1_554
O39 S4 1.465223 1_555
O39 Zn9 2.113957 1_554
O40 S5 1.475437 1_555
O40 Zn8 2.134484 1_554
O41 S6 1.465841 1_555
O41 Zn9 2.130646 1_554
O42 S0 1.481374 1_555
O42 Zn10 2.025635 1_555
O43 S1 1.480614 1_555
O43 Zn11 2.031362 1_555
O44 S2 1.486728 1_555
O44 Zn10 2.095439 1_555
O45 S3 1.486904 1_555
O45 Zn11 2.089926 1_555
O46 Si12 1.635649 1_555
O46 Zn10 1.914442 1_555
O47 Si13 1.638038 1_555
O47 Zn11 1.912085 1_555
O48 S9 1.463114 1_555
O48 Zn12 2.015977 1_556
O49 S10 1.469594 1_555
O49 Zn13 2.031687 1_556
O50 S11 1.466679 1_555
O50 Zn12 2.008954 1_556
O51 S12 1.472390 1_555
O51 Zn13 2.156502 1_556
O52 S13 1.470452 1_555
O52 Zn12 2.000905 1_556
O53 S14 1.467994 1_555
O53 Zn13 1.999954 1_556
O54 S15 1.452538 1_555
O54 Zn14 2.059846 1_555
O55 S16 1.457641 1_555
O55 Zn15 2.061295 1_555
O56 S17 1.458043 1_555
O56 Zn14 2.007599 1_555
O57 S18 1.461078 1_555
O57 Zn15 2.002355 1_555
O58 S19 1.461904 1_555
O58 Zn14 2.148787 1_555
O59 S20 1.465859 1_555
O59 Zn15 2.140815 1_555
O60 S19 1.571651 1_555
O60 Ta4 2.039154 1_555
O61 S20 1.569417 1_555
O61 Ta5 2.033727 1_555
O62 S15 1.561153 1_555
O62 Ta4 2.030628 1_555
O63 S16 1.554939 1_555
O63 Ta5 2.050561 1_555
O64 S17 1.570332 1_555
O64 Ta4 2.063255 1_555
O65 S18 1.568942 1_555
O65 Ta5 2.064690 1_555
O66 S11 1.560533 1_555
O66 Ta6 2.042731 1_555
O67 S12 1.559634 1_555
O67 Ta7 2.046323 1_555
O68 S13 1.572642 1_555
O68 Ta6 2.039311 1_555
O69 S14 1.554101 1_555
O69 Ta7 2.083764 1_555
O70 S9 1.537617 1_555
O70 Ta6 2.082509 1_555
O71 S10 1.567132 1_555
O71 Ta7 2.041996 1_555
O72 S19 1.462243 1_555
O72 Zn0 2.335191 1_555
O73 S20 1.459629 1_555
O73 Zn1 2.326809 1_555
O74 S15 1.472355 1_555
O74 Zn1 2.469621 1_555
O75 S16 1.474424 1_555
O75 Zn0 2.450871 1_655
O76 S17 1.475345 1_555
O76 Zn0 2.432720 1_545
O77 S18 1.472641 1_555
O77 Zn1 2.442047 1_545
O78 S11 1.456051 1_555
O78 Zn2 2.388652 1_555
O79 S12 1.458811 1_555
O79 Zn3 2.345612 1_555
O80 S13 1.456139 1_555
O80 Zn2 2.410213 1_565
O81 S14 1.472862 1_555
O81 Zn3 2.440291 1_565
O82 S9 1.473234 1_555
O82 Zn3 2.465303 1_565
O83 S10 1.454015 1_555
O83 Zn2 2.446257 1_665
O84 Si12 1.702807 1_555
O84 Ta1 1.921577 1_555
O85 Si13 1.700939 1_555
O85 Ta0 1.925667 1_555
O86 S0 1.530941 1_555
O86 Ta0 2.182296 1_455
O87 S1 1.534213 1_555
O87 Ta1 2.175321 1_555
O88 S2 1.538143 1_555
O88 Ta1 2.205107 1_565
O89 S3 1.535155 1_555
O89 Ta0 2.216757 1_565
O90 Si14 1.708241 1_555
O90 Ta3 1.913742 1_555
O91 S4 1.538809 1_555
O91 Ta2 2.132552 1_665
O92 S5 1.542849 1_555
O92 Ta3 2.200327 1_545
O93 S6 1.540542 1_555
O93 Ta2 2.121730 1_655
O94 S7 1.542138 1_555
O94 Ta2 2.094368 1_555
O95 S8 1.538164 1_555
O95 Ta3 2.184415 1_545
O96 Si10 1.597734 1_555
O96 Zn4 2.048371 1_555
O97 Si11 1.597533 1_555
O97 Zn5 2.048850 1_555
O98 Si6 1.599485 1_555
O98 Zn4 2.076304 1_555
O99 Si7 1.594790 1_555
O99 Zn5 2.072906 1_555
O100 Si9 1.603830 1_555
O100 Zn4 2.080617 1_555
O101 Si8 1.603809 1_555
O101 Zn5 2.059964 1_555
O102 Si2 1.598318 1_555
O102 Zn6 2.060208 1_555
O103 Si3 1.603319 1_555
O103 Zn7 2.038378 1_555
O104 Si5 1.604788 1_555
O104 Zn6 2.085295 1_555
O105 Si4 1.602681 1_555
O105 Zn7 2.049396 1_555
O106 Si0 1.598141 1_555
O106 Zn6 2.077446 1_555
O107 Si1 1.601874 1_555
O107 Zn7 2.028849 1_555
O108 S9 1.486474 1_555
O108 Zn8 2.343097 1_555
O109 S10 1.484787 1_555
O109 Zn9 2.222712 1_555
O110 S12 1.481565 1_555
O110 Zn8 2.427257 1_555
O111 S11 1.485650 1_655
O111 Zn9 2.173428 1_555
O112 S13 1.478000 1_545
O112 Zn8 2.384557 1_555
O113 S14 1.469639 1_545
O113 Zn9 2.268003 1_555
O114 S15 1.483232 1_545
O114 Zn10 2.416375 1_555
O115 S16 1.482777 1_545
O115 Zn11 2.424501 1_555
O116 S17 1.467844 1_555
O116 Zn10 2.462547 1_555
O117 S18 1.467321 1_555
O117 Zn11 2.457464 1_555
O118 S20 1.481021 1_555
O118 Zn10 2.472003 1_555
O119 S19 1.480802 1_655
O119 Zn11 2.481707 1_555
O120 S7 1.482704 1_555
O120 Zn12 2.212048 1_555
O121 S8 1.485000 1_555
O121 Zn13 2.277804 1_555
O122 S4 1.483076 1_455
O122 Zn12 2.200963 1_555
O123 Si14 1.642984 1_555
O123 Zn13 1.966380 1_555
O124 S5 1.476714 1_565
O124 Zn12 2.222992 1_555
O125 S6 1.476697 1_565
O125 Zn13 2.206377 1_555
O126 S0 1.484556 1_565
O126 Zn14 2.250285 1_555
O127 S1 1.485405 1_565
O127 Zn15 2.253430 1_555
O128 S2 1.467625 1_555
O128 Zn14 2.175606 1_555
O129 S3 1.470792 1_555
O129 Zn15 2.170304 1_555
O130 Si13 1.643357 1_455
O130 Zn14 1.955673 1_555
O131 Si12 1.641598 1_555
O131 Zn15 1.963017 1_555
O132 Si0 1.691788 1_565
O132 Ta4 1.942775 1_555
O133 Si1 1.686478 1_565
O133 Ta5 1.937684 1_555
O134 Si2 1.688834 1_555
O134 Ta4 1.926995 1_555
O135 Si3 1.680444 1_555
O135 Ta5 1.935839 1_555
O136 Si4 1.685682 1_455
O136 Ta4 1.949715 1_555
O137 Si5 1.705596 1_555
O137 Ta5 1.930161 1_555
O138 Si6 1.688296 1_555
O138 Ta6 1.948354 1_555
O139 Si7 1.687444 1_555
O139 Ta7 1.932161 1_555
O140 Si8 1.707791 1_455
O140 Ta6 1.920492 1_555
O141 Si9 1.702702 1_555
O141 Ta7 1.942247 1_555
O142 Si10 1.681153 1_565
O142 Ta6 1.939140 1_555
O143 Si11 1.689147 1_565
O143 Ta7 1.923722 1_555
