# generated using pymatgen
data_Na2MgSi2Ge3(SO6)4
_symmetry_space_group_name_H-M   'P 1'
_cell_length_a   8.49387937
_cell_length_b   8.49183189
_cell_length_c   22.17978235
_cell_angle_alpha   88.51088157
_cell_angle_beta   90.18396347
_cell_angle_gamma   119.56812068
_symmetry_Int_Tables_number   1
_chemical_formula_structural   Na2MgSi2Ge3(SO6)4
_chemical_formula_sum   'Na6 Mg3 Si6 Ge9 S12 O72'
_cell_volume   1390.89950865
_cell_formula_units_Z   3
loop_
 _symmetry_equiv_pos_site_id
 _symmetry_equiv_pos_as_xyz
  1  'x, y, z'
loop_
 _atom_site_type_symbol
 _atom_site_label
 _atom_site_symmetry_multiplicity
 _atom_site_fract_x
 _atom_site_fract_y
 _atom_site_fract_z
 _atom_site_occupancy
  Na  Na0  1  0.98195415  0.98542218  0.50455993  1
  Na  Na1  1  0.02489884  0.02338150  0.00020534  1
  Na  Na2  1  0.66756275  0.31824041  0.83422449  1
  Na  Na3  1  0.66097989  0.31533836  0.33560407  1
  Na  Na4  1  0.33642707  0.65978655  0.16408331  1
  Na  Na5  1  0.35867826  0.67679092  0.67075694  1
  Mg  Mg0  1  0.97503089  0.98098950  0.64411540  1
  Mg  Mg1  1  0.01256528  0.01292539  0.14115156  1
  Mg  Mg2  1  0.34757197  0.68489055  0.31623701  1
  Si  Si0  1  0.70491585  0.99295954  0.75016457  1
  Si  Si1  1  0.66916480  0.60900098  0.58213004  1
  Si  Si2  1  0.38562733  0.34589429  0.07813917  1
  Si  Si3  1  0.04361318  0.38394161  0.91609355  1
  Si  Si4  1  0.32024821  0.94702778  0.91726388  1
  Si  Si5  1  0.62685842  0.96699277  0.41588528  1
  Ge  Ge0  1  0.98839680  0.99628480  0.35338279  1
  Ge  Ge1  1  0.00113788  0.02257468  0.85668382  1
  Ge  Ge2  1  0.66372012  0.33185832  0.69121895  1
  Ge  Ge3  1  0.65784572  0.33989413  0.18079287  1
  Ge  Ge4  1  0.65061841  0.31445400  0.97295080  1
  Ge  Ge5  1  0.67092247  0.33060740  0.48237868  1
  Ge  Ge6  1  0.31442311  0.64513088  0.01502135  1
  Ge  Ge7  1  0.36348825  0.67332110  0.52290957  1
  Ge  Ge8  1  0.33026103  0.68680360  0.81636108  1
  S  S0  1  0.29006692  0.00682074  0.24956287  1
  S  S1  1  0.71596529  0.70591461  0.24879180  1
  S  S2  1  -0.00768151  0.29176039  0.24819244  1
  S  S3  1  0.28877319  0.29059848  0.74979553  1
  S  S4  1  -0.00154219  0.70842565  0.75044821  1
  S  S5  1  0.96630874  0.34474907  0.58145682  1
  S  S6  1  0.37853071  0.03974747  0.58321765  1
  S  S7  1  0.95275328  0.61553139  0.08289964  1
  S  S8  1  0.66060048  0.04680701  0.08392814  1
  S  S9  1  0.62023283  0.66831271  0.91595928  1
  S  S10  1  0.33002776  0.37125786  0.41630783  1
  S  S11  1  0.04630455  0.66904199  0.41646422  1
  O  O0  1  0.20948295  0.03659688  0.30682714  1
  O  O1  1  0.82383373  0.78285584  0.30632010  1
  O  O2  1  0.95857465  0.17709801  0.30649978  1
  O  O3  1  0.21442941  0.17633839  0.80689004  1
  O  O4  1  0.97271973  0.78664281  0.80508578  1
  O  O5  1  0.83399881  0.03531023  0.81061683  1
  O  O6  1  0.77088649  0.95615414  0.68882456  1
  O  O7  1  0.18790364  0.20692487  0.69615001  1
  O  O8  1  0.03067442  0.81465247  0.69486154  1
  O  O9  1  0.80491071  0.81740364  0.19612518  1
  O  O10  1  0.01535769  0.20544778  0.19630188  1
  O  O11  1  0.18565692  0.99493743  0.19692079  1
  O  O12  1  0.88293887  0.37200201  0.63539617  1
  O  O13  1  0.49612503  0.11114590  0.63638859  1
  O  O14  1  0.62833876  0.47799111  0.64307425  1
  O  O15  1  0.87891753  0.49804011  0.14123462  1
  O  O16  1  0.63230319  0.13172798  0.14026809  1
  O  O17  1  0.50521703  0.38822774  0.14262280  1
  O  O18  1  0.49452090  0.32032995  0.02294620  1
  O  O19  1  0.84878608  0.52991065  0.02973469  1
  O  O20  1  0.70358552  0.16348080  0.02823504  1
  O  O21  1  0.46257802  0.14411445  0.52580132  1
  O  O22  1  0.68487466  0.51180807  0.52092551  1
  O  O23  1  0.85087023  0.30357129  0.52608390  1
  O  O24  1  0.54280247  0.70091579  0.97130256  1
  O  O25  1  0.16426316  0.44973446  0.97704465  1
  O  O26  1  0.29323358  0.82541149  0.97964815  1
  O  O27  1  0.54333099  0.83550426  0.47743867  1
  O  O28  1  0.28902085  0.44339798  0.47149577  1
  O  O29  1  0.15271101  0.69615394  0.47182607  1
  O  O30  1  0.12244337  0.63993005  0.36218798  1
  O  O31  1  0.51504128  0.90216710  0.35633430  1
  O  O32  1  0.35291376  0.47846838  0.36163060  1
  O  O33  1  0.13815931  0.50776289  0.85583833  1
  O  O34  1  0.37514569  0.87597548  0.85870592  1
  O  O35  1  0.50692416  0.63328185  0.86202658  1
  O  O36  1  0.03252029  0.84070134  0.41002839  1
  O  O37  1  0.83167072  0.98441048  0.40921294  1
  O  O38  1  0.17158139  0.18334026  0.41105410  1
  O  O39  1  0.01657462  0.18127134  0.91115386  1
  O  O40  1  0.13504378  0.95785307  0.90688882  1
  O  O41  1  0.80124628  0.82968536  0.91040413  1
  O  O42  1  0.00380399  0.19563244  0.58704403  1
  O  O43  1  0.20538679  0.03224311  0.58900587  1
  O  O44  1  0.84125277  0.80365349  0.58164185  1
  O  O45  1  0.96024437  0.78881673  0.09037465  1
  O  O46  1  0.81601788  0.02051352  0.09178053  1
  O  O47  1  0.19104655  0.17142677  0.08137686  1
  O  O48  1  0.68323305  0.18136173  0.74330687  1
  O  O49  1  0.47696802  0.31200496  0.74822741  1
  O  O50  1  0.83099294  0.52359014  0.74697116  1
  O  O51  1  0.70774960  0.52267707  0.24658556  1
  O  O52  1  0.81940349  0.30242646  0.24403776  1
  O  O53  1  0.47686213  0.17473544  0.24634202  1
  O  O54  1  0.64214133  0.50609770  0.92164701  1
  O  O55  1  0.84689487  0.37423070  0.92515223  1
  O  O56  1  0.49882361  0.14904099  0.92200263  1
  O  O57  1  0.65976052  0.17228369  0.42914573  1
  O  O58  1  0.49597830  0.35504704  0.42304078  1
  O  O59  1  0.85857539  0.51296951  0.42291483  1
  O  O60  1  0.38254113  0.54059069  0.07337846  1
  O  O61  1  0.13708296  0.63333892  0.08135100  1
  O  O62  1  0.48987276  0.87659685  0.08034086  1
  O  O63  1  0.35441556  0.85200888  0.57729022  1
  O  O64  1  0.47067882  0.60880380  0.57938526  1
  O  O65  1  0.13694263  0.52372371  0.57202173  1
  O  O66  1  0.30750878  0.84396723  0.25491863  1
  O  O67  1  0.53159733  0.67718638  0.25534861  1
  O  O68  1  0.14862162  0.47183938  0.25619361  1
  O  O69  1  0.30590839  0.47035459  0.75630712  1
  O  O70  1  0.15919731  0.67898278  0.75460693  1
  O  O71  1  0.50113468  0.81169859  0.76056429  1
loop_
_geom_bond_atom_site_label_1
_geom_bond_atom_site_label_2
_geom_bond_distance
_geom_bond_site_symmetry_2
Na0 O44 2.188413 1_555
Na0 O37 2.464662 1_555
Na0 O42 2.531504 1_665
Na0 O43 2.557158 1_665
Na0 O36 2.598368 1_655
Na0 O38 2.624665 1_665
Na1 O47 2.272392 1_555
Na1 O39 2.378841 1_554
Na1 O40 2.460654 1_544
Na1 O45 2.643742 1_445
Na1 O46 2.692913 1_455
Na1 O41 2.709910 1_444
Na2 O48 2.389857 1_555
Na2 O56 2.397753 1_555
Na2 O55 2.434942 1_555
Na2 O49 2.482456 1_555
Na2 O50 2.483122 1_555
Na2 O54 2.618135 1_555
Na3 O57 2.374254 1_555
Na3 O53 2.459902 1_555
Na3 O52 2.474292 1_555
Na3 O51 2.508025 1_555
Na3 O58 2.521260 1_555
Na3 O59 2.598414 1_555
Na4 O60 2.393223 1_555
Na4 O61 2.431197 1_555
Na4 O62 2.451105 1_555
Na4 O68 2.569927 1_555
Na4 O67 2.572897 1_555
Na4 O66 2.666772 1_555
Na5 O71 2.340792 1_555
Na5 O69 2.435478 1_555
Na5 O64 2.441451 1_555
Na5 O70 2.526489 1_555
Na5 O63 2.530853 1_555
Na5 O65 2.781708 1_555
Mg0 O6 1.916708 1_555
Mg0 O44 1.971934 1_555
Mg0 O8 2.014497 1_655
Mg0 O42 2.103989 1_665
Mg0 O43 2.158493 1_665
Mg0 O7 2.227179 1_665
Mg1 O47 1.942671 1_555
Mg1 O11 1.978652 1_545
Mg1 O46 2.020170 1_455
Mg1 O10 2.057938 1_555
Mg1 O45 2.088333 1_445
Mg1 O9 2.091125 1_445
Mg2 O31 1.924993 1_555
Mg2 O32 2.018634 1_555
Mg2 O30 2.028012 1_555
Mg2 O66 2.036047 1_555
Mg2 O67 2.095334 1_555
Mg2 O68 2.235142 1_555
Ge0 O37 1.785302 1_555
Ge0 O2 1.949922 1_565
Ge0 O36 1.965677 1_655
Ge0 O1 1.979131 1_555
Ge0 O0 2.017304 1_665
Ge0 O38 2.057655 1_665
Ge1 O39 1.789438 1_555
Ge1 O5 1.790972 1_455
Ge1 O40 1.847337 1_545
Ge1 O3 1.951953 1_555
Ge1 O41 2.037712 1_445
Ge1 O4 2.241004 1_445
Ge2 O14 1.751467 1_555
Ge2 O48 1.768198 1_555
Ge2 O49 1.970096 1_555
Ge2 O50 2.002251 1_555
Ge2 O12 2.117245 1_555
Ge2 O13 2.119535 1_555
Ge3 O17 1.750973 1_555
Ge3 O15 1.886771 1_555
Ge3 O16 1.919011 1_555
Ge3 O51 2.045183 1_555
Ge3 O53 2.055350 1_555
Ge3 O52 2.085036 1_555
Ge4 O18 1.751476 1_556
Ge4 O56 1.788337 1_555
Ge4 O55 1.819116 1_555
Ge4 O20 1.957950 1_556
Ge4 O54 1.991818 1_555
Ge4 O19 2.198579 1_556
Ge5 O22 1.732177 1_555
Ge5 O57 1.779490 1_555
Ge5 O23 1.911493 1_555
Ge5 O21 1.932108 1_555
Ge5 O59 2.037026 1_555
Ge5 O58 2.064185 1_555
Ge6 O25 1.751159 1_554
Ge6 O26 1.788920 1_554
Ge6 O60 1.800156 1_555
Ge6 O24 2.002224 1_554
Ge6 O61 2.073900 1_555
Ge6 O62 2.329491 1_555
Ge7 O27 1.763173 1_555
Ge7 O64 1.774107 1_555
Ge7 O63 1.993571 1_555
Ge7 O65 2.008022 1_555
Ge7 O28 2.098780 1_555
Ge7 O29 2.201070 1_555
Ge8 O34 1.754909 1_555
Ge8 O71 1.785230 1_555
Ge8 O33 1.797858 1_555
Ge8 O70 1.971897 1_555
Ge8 O35 2.030638 1_555
Ge8 O69 2.223880 1_555
O0 S0 1.529279 1_555
O1 S1 1.529531 1_555
O2 S2 1.537601 1_655
O3 S3 1.510102 1_555
O4 S4 1.464372 1_655
O5 Si0 1.660039 1_545
O6 Si0 1.569233 1_555
O7 S3 1.446116 1_555
O8 S4 1.452373 1_555
O9 S1 1.440111 1_555
O10 S2 1.444639 1_555
O11 S0 1.439131 1_565
O12 S5 1.472367 1_555
O13 S6 1.479186 1_555
O14 Si1 1.652035 1_555
O15 S7 1.543829 1_555
O16 S8 1.535952 1_555
O17 Si2 1.692223 1_555
O18 Si2 1.618782 1_555
O19 S7 1.450230 1_555
O20 S8 1.491002 1_555
O21 S6 1.496536 1_555
O22 Si1 1.646178 1_555
O23 S5 1.506081 1_555
O24 S9 1.489467 1_555
O25 Si3 1.629485 1_555
O26 Si4 1.651560 1_555
O27 Si5 1.661070 1_555
O28 S10 1.499069 1_555
O29 S11 1.476430 1_555
O30 S11 1.451490 1_555
O31 Si5 1.569526 1_555
O32 S10 1.451490 1_555
O33 Si3 1.623915 1_555
O34 Si4 1.609549 1_555
O35 S9 1.474532 1_555
O36 S11 1.522004 1_555
O37 Si5 1.678314 1_555
O38 S10 1.503471 1_555
O39 Si3 1.626741 1_555
O40 Si4 1.635651 1_555
O41 S9 1.473109 1_555
O42 S5 1.452526 1_455
O43 S6 1.446267 1_555
O44 Si1 1.575944 1_555
O45 S7 1.455021 1_555
O46 S8 1.452666 1_555
O47 Si2 1.584411 1_555
O48 Si0 1.701364 1_545
O49 S3 1.517473 1_555
O50 S4 1.514937 1_655
O51 S1 1.524874 1_555
O52 S2 1.517833 1_655
O53 S0 1.522605 1_555
O54 S9 1.480492 1_555
O55 Si3 1.644503 1_655
O56 Si4 1.641620 1_545
O57 Si5 1.658007 1_545
O58 S10 1.489027 1_555
O59 S11 1.491819 1_655
O60 Si2 1.667038 1_555
O61 S7 1.497263 1_455
O62 S8 1.461178 1_565
O63 S6 1.513043 1_565
O64 Si1 1.685996 1_555
O65 S5 1.505239 1_455
O66 S0 1.463587 1_565
O67 S1 1.468196 1_555
O68 S2 1.463380 1_555
O69 S3 1.471115 1_555
O70 S4 1.506637 1_555
O71 Si0 1.665281 1_555
