# generated using pymatgen
data_Na3ZrAlSi(PO6)2
_symmetry_space_group_name_H-M   'P 1'
_cell_length_a   15.62241264
_cell_length_b   8.90203061
_cell_length_c   8.96561319
_cell_angle_alpha   90.00000000
_cell_angle_beta   124.60217279
_cell_angle_gamma   90.00000000
_symmetry_Int_Tables_number   1
_chemical_formula_structural   Na3ZrAlSi(PO6)2
_chemical_formula_sum   'Na12 Zr4 Al4 Si4 P8 O48'
_cell_volume   1026.30776388
_cell_formula_units_Z   4
loop_
 _symmetry_equiv_pos_site_id
 _symmetry_equiv_pos_as_xyz
  1  'x, y, z'
loop_
 _atom_site_type_symbol
 _atom_site_label
 _atom_site_symmetry_multiplicity
 _atom_site_fract_x
 _atom_site_fract_y
 _atom_site_fract_z
 _atom_site_occupancy
  Na  Na0  1  0.25004995  0.72037543  0.99274873  1
  Na  Na1  1  0.75004995  0.77962457  0.49274873  1
  Na  Na2  1  0.75004995  0.22037543  0.99274873  1
  Na  Na3  1  0.25004995  0.27962457  0.49274873  1
  Na  Na4  1  0.50239912  0.10436269  0.75902803  1
  Na  Na5  1  0.50239912  0.89563731  0.25902803  1
  Na  Na6  1  0.00239912  0.60436269  0.75902803  1
  Na  Na7  1  0.00239912  0.39563731  0.25902803  1
  Na  Na8  1  0.18755498  0.92954749  0.27808733  1
  Na  Na9  1  0.18755498  0.07045251  0.77808733  1
  Na  Na10  1  0.68755498  0.42954749  0.27808733  1
  Na  Na11  1  0.68755498  0.57045251  0.77808733  1
  Zr  Zr0  1  0.89480304  0.75723502  0.93768691  1
  Zr  Zr1  1  0.89480304  0.24276498  0.43768691  1
  Zr  Zr2  1  0.39480304  0.25723502  0.93768691  1
  Zr  Zr3  1  0.39480304  0.74276498  0.43768691  1
  Al  Al0  1  0.10594751  0.73985930  0.56217802  1
  Al  Al1  1  0.10594751  0.26014070  0.06217802  1
  Al  Al2  1  0.60594751  0.23985930  0.56217802  1
  Al  Al3  1  0.60594751  0.76014070  0.06217802  1
  Si  Si0  1  0.64059656  0.90234790  0.74468161  1
  Si  Si1  1  0.64059656  0.09765210  0.24468161  1
  Si  Si2  1  0.14059656  0.40234790  0.74468161  1
  Si  Si3  1  0.14059656  0.59765210  0.24468161  1
  P  P0  1  0.00986770  0.95638556  0.76259705  1
  P  P1  1  0.00986770  0.04361444  0.26259705  1
  P  P2  1  0.50986770  0.45638556  0.76259705  1
  P  P3  1  0.50986770  0.54361444  0.26259705  1
  P  P4  1  0.35103993  0.88095043  0.76097573  1
  P  P5  1  0.35103993  0.11904957  0.26097573  1
  P  P6  1  0.85103993  0.38095043  0.76097573  1
  P  P7  1  0.85103993  0.61904957  0.26097573  1
  O  O0  1  0.14092527  0.58563377  0.73091912  1
  O  O1  1  0.84323909  0.55752220  0.76480838  1
  O  O2  1  0.84323909  0.44247780  0.26480838  1
  O  O3  1  0.14092527  0.41436623  0.23091912  1
  O  O4  1  0.64092527  0.08563377  0.73091912  1
  O  O5  1  0.34323909  0.05752220  0.76480838  1
  O  O6  1  0.34323909  0.94247780  0.26480838  1
  O  O7  1  0.64092527  0.91436623  0.23091912  1
  O  O8  1  0.44569652  0.55649104  0.59255869  1
  O  O9  1  0.57246050  0.55540073  0.93467405  1
  O  O10  1  0.57246050  0.44459927  0.43467405  1
  O  O11  1  0.44569652  0.44350896  0.09255869  1
  O  O12  1  0.94569652  0.05649104  0.59255869  1
  O  O13  1  0.07246050  0.05540073  0.93467405  1
  O  O14  1  0.07246050  0.94459927  0.43467405  1
  O  O15  1  0.94569652  0.94350896  0.09255869  1
  O  O16  1  0.25303544  0.81712212  0.74175162  1
  O  O17  1  0.73894799  0.82151690  0.75479359  1
  O  O18  1  0.73894799  0.17848310  0.25479359  1
  O  O19  1  0.25303544  0.18287788  0.24175162  1
  O  O20  1  0.75303544  0.31712212  0.74175162  1
  O  O21  1  0.23894799  0.32151690  0.75479359  1
  O  O22  1  0.23894799  0.67848310  0.25479359  1
  O  O23  1  0.75303544  0.68287788  0.24175162  1
  O  O24  1  0.34812809  0.85233071  0.58680213  1
  O  O25  1  0.63111868  0.85113723  0.91012744  1
  O  O26  1  0.63111868  0.14886277  0.41012744  1
  O  O27  1  0.34812809  0.14766929  0.08680213  1
  O  O28  1  0.84812809  0.35233071  0.58680213  1
  O  O29  1  0.13111868  0.35113723  0.91012744  1
  O  O30  1  0.13111868  0.64886277  0.41012744  1
  O  O31  1  0.84812809  0.64766929  0.08680213  1
  O  O32  1  0.45297138  0.82078843  0.93026219  1
  O  O33  1  0.53690299  0.83851822  0.55547127  1
  O  O34  1  0.53690299  0.16148178  0.05547127  1
  O  O35  1  0.45297138  0.17921157  0.43026219  1
  O  O36  1  0.95297138  0.32078843  0.93026219  1
  O  O37  1  0.03690299  0.33851822  0.55547127  1
  O  O38  1  0.03690299  0.66148178  0.05547127  1
  O  O39  1  0.95297138  0.67921157  0.43026219  1
  O  O40  1  0.08661582  0.85981455  0.74474579  1
  O  O41  1  0.92769944  0.85080165  0.75510231  1
  O  O42  1  0.92769944  0.14919835  0.25510231  1
  O  O43  1  0.08661582  0.14018545  0.24474579  1
  O  O44  1  0.58661582  0.35981455  0.74474579  1
  O  O45  1  0.42769944  0.35080165  0.75510231  1
  O  O46  1  0.42769944  0.64919835  0.25510231  1
  O  O47  1  0.58661582  0.64018545  0.24474579  1
loop_
_geom_bond_atom_site_label_1
_geom_bond_atom_site_label_2
_geom_bond_distance
_geom_bond_site_symmetry_2
Na0 O0 2.304439 1_555
Na0 O16 2.434576 1_555
Na0 O22 2.480241 1_556
Na0 O46 2.494463 1_556
Na0 O40 2.560464 1_555
Na0 O6 2.818711 1_556
Na1 O7 2.304439 1_555
Na1 O23 2.434576 1_555
Na1 O17 2.480241 1_555
Na1 O41 2.494463 1_555
Na1 O47 2.560464 1_555
Na1 O1 2.818711 1_555
Na2 O4 2.304439 1_555
Na2 O20 2.434576 1_555
Na2 O18 2.480241 1_556
Na2 O42 2.494463 1_556
Na2 O44 2.560464 1_555
Na2 O2 2.818711 1_556
Na3 O3 2.304439 1_555
Na3 O19 2.434576 1_555
Na3 O21 2.480241 1_555
Na3 O45 2.494463 1_555
Na3 O43 2.560464 1_555
Na3 O5 2.818711 1_555
Na4 O4 2.322523 1_555
Na4 O34 2.446602 1_556
Na4 O45 2.475731 1_555
Na4 O5 2.550570 1_555
Na4 O44 2.666454 1_555
Na4 O35 2.672724 1_555
Na4 O25 2.804727 1_545
Na5 O7 2.322523 1_555
Na5 O33 2.446602 1_555
Na5 O46 2.475731 1_555
Na5 O6 2.550570 1_555
Na5 O47 2.666454 1_555
Na5 O32 2.672724 1_554
Na5 O26 2.804727 1_565
Na6 O0 2.322523 1_555
Na6 O38 2.446602 1_556
Na6 O41 2.475731 1_455
Na6 O1 2.550570 1_455
Na6 O40 2.666454 1_555
Na6 O39 2.672724 1_455
Na6 O29 2.804727 1_555
Na7 O3 2.322523 1_555
Na7 O37 2.446602 1_555
Na7 O42 2.475731 1_455
Na7 O2 2.550570 1_455
Na7 O43 2.666454 1_555
Na7 O36 2.672724 1_454
Na7 O30 2.804727 1_555
Na8 O43 2.357257 1_565
Na8 O22 2.423597 1_555
Na8 O6 2.504336 1_555
Na8 O24 2.557414 1_555
Na8 O19 2.572313 1_565
Na8 O13 2.771336 1_564
Na8 O14 2.844086 1_555
Na9 O40 2.357257 1_545
Na9 O21 2.423597 1_555
Na9 O5 2.504336 1_555
Na9 O27 2.557414 1_556
Na9 O16 2.572313 1_545
Na9 O14 2.771336 1_545
Na9 O13 2.844086 1_555
Na10 O47 2.357257 1_555
Na10 O18 2.423597 1_555
Na10 O2 2.504336 1_555
Na10 O28 2.557414 1_555
Na10 O23 2.572313 1_555
Na10 O9 2.771336 1_554
Na10 O10 2.844086 1_555
Na11 O44 2.357257 1_555
Na11 O17 2.423597 1_555
Na11 O1 2.504336 1_555
Na11 O31 2.557414 1_556
Na11 O20 2.572313 1_555
Na11 O10 2.771336 1_555
Na11 O9 2.844086 1_555
Al0 O30 1.810538 1_555
Al0 O0 1.879724 1_555
Al0 O16 2.035576 1_555
Al0 O39 2.047313 1_455
Al0 O14 2.055027 1_555
Al0 O40 2.114749 1_555
Al1 O29 1.810538 1_554
Al1 O3 1.879724 1_555
Al1 O19 2.035576 1_555
Al1 O36 2.047313 1_454
Al1 O13 2.055027 1_554
Al1 O43 2.114749 1_555
Al2 O26 1.810538 1_555
Al2 O4 1.879724 1_555
Al2 O20 2.035576 1_555
Al2 O35 2.047313 1_555
Al2 O10 2.055027 1_555
Al2 O44 2.114749 1_555
Al3 O25 1.810538 1_554
Al3 O7 1.879724 1_555
Al3 O23 2.035576 1_555
Al3 O32 2.047313 1_554
Al3 O9 2.055027 1_554
Al3 O47 2.114749 1_555
O0 Si2 1.636503 1_555
O1 P6 1.578446 1_555
O1 Zr0 2.189515 1_555
O2 P7 1.578446 1_555
O2 Zr1 2.189515 1_555
O3 Si3 1.636503 1_555
O4 Si0 1.636503 1_545
O5 P4 1.578446 1_545
O5 Zr2 2.189515 1_555
O6 P5 1.578446 1_565
O6 Zr3 2.189515 1_555
O7 Si1 1.636503 1_565
O8 P2 1.545141 1_555
O8 Zr3 2.013944 1_555
O9 P2 1.549155 1_555
O10 P3 1.549155 1_555
O11 P3 1.545141 1_555
O11 Zr2 2.013944 1_554
O12 P0 1.545141 1_645
O12 Zr1 2.013944 1_555
O13 P0 1.549155 1_545
O14 P1 1.549155 1_565
O15 P1 1.545141 1_665
O15 Zr0 2.013944 1_554
O16 P4 1.548229 1_555
O17 Si0 1.651838 1_555
O17 Zr0 2.100035 1_555
O18 Si1 1.651838 1_555
O18 Zr1 2.100035 1_555
O19 P5 1.548229 1_555
O20 P6 1.548229 1_555
O21 Si2 1.651838 1_555
O21 Zr2 2.100035 1_555
O22 Si3 1.651838 1_555
O22 Zr3 2.100035 1_555
O23 P7 1.548229 1_555
O24 P4 1.557180 1_555
O24 Zr3 2.092253 1_555
O25 Si0 1.636901 1_555
O26 Si1 1.636901 1_555
O27 P5 1.557180 1_555
O27 Zr2 2.092253 1_554
O28 P6 1.557180 1_555
O28 Zr1 2.092253 1_555
O29 Si2 1.636901 1_555
O30 Si3 1.636901 1_555
O31 P7 1.557180 1_555
O31 Zr0 2.092253 1_554
O32 P4 1.543116 1_555
O33 Si0 1.644297 1_555
O33 Zr3 2.026665 1_555
O34 Si1 1.644297 1_555
O34 Zr2 2.026665 1_554
O35 P5 1.543116 1_555
O36 P6 1.543116 1_555
O37 Si2 1.644297 1_555
O37 Zr1 2.026665 1_455
O38 Si3 1.644297 1_555
O38 Zr0 2.026665 1_454
O39 P7 1.543116 1_555
O40 P0 1.555695 1_555
O41 P0 1.561340 1_655
O41 Zr0 2.143149 1_555
O42 P1 1.561340 1_655
O42 Zr1 2.143149 1_555
O43 P1 1.555695 1_555
O44 P2 1.555695 1_555
O45 P2 1.561340 1_555
O45 Zr2 2.143149 1_555
O46 P3 1.561340 1_555
O46 Zr3 2.143149 1_555
O47 P3 1.555695 1_555
