# generated using pymatgen
data_Na2Ti4Si3(SO8)3
_symmetry_space_group_name_H-M   'P 1'
_cell_length_a   8.71881939
_cell_length_b   8.68927664
_cell_length_c   22.53611196
_cell_angle_alpha   90.39651179
_cell_angle_beta   90.25774850
_cell_angle_gamma   119.96487790
_symmetry_Int_Tables_number   1
_chemical_formula_structural   Na2Ti4Si3(SO8)3
_chemical_formula_sum   'Na6 Ti12 Si9 S9 O72'
_cell_volume   1479.02601092
_cell_formula_units_Z   3
loop_
 _symmetry_equiv_pos_site_id
 _symmetry_equiv_pos_as_xyz
  1  'x, y, z'
loop_
 _atom_site_type_symbol
 _atom_site_label
 _atom_site_symmetry_multiplicity
 _atom_site_fract_x
 _atom_site_fract_y
 _atom_site_fract_z
 _atom_site_occupancy
  Na  Na0  1  0.99284526  0.99098322  0.49730805  1
  Na  Na1  1  0.00164936  0.99355022  0.00075085  1
  Na  Na2  1  0.66157985  0.32518880  0.83092997  1
  Na  Na3  1  0.66677368  0.32620827  0.33489161  1
  Na  Na4  1  0.32612032  0.66212429  0.17201261  1
  Na  Na5  1  0.33799766  0.66265815  0.66391200  1
  Ti  Ti0  1  0.00308625  0.00686688  0.35574618  1
  Ti  Ti1  1  0.01564586  0.01378380  0.85046908  1
  Ti  Ti2  1  0.98314593  0.00160343  0.64604595  1
  Ti  Ti3  1  0.01185423  0.99704886  0.15053882  1
  Ti  Ti4  1  0.64851211  0.33126218  0.68847833  1
  Ti  Ti5  1  0.68501121  0.33631224  0.19336386  1
  Ti  Ti6  1  0.66318244  0.33722374  0.98017154  1
  Ti  Ti7  1  0.68268020  0.34921096  0.47516396  1
  Ti  Ti8  1  0.31768757  0.67667081  0.02151736  1
  Ti  Ti9  1  0.35148670  0.68231170  0.51696981  1
  Ti  Ti10  1  0.31674617  0.67760599  0.31233934  1
  Ti  Ti11  1  0.35047500  0.68423850  0.80810428  1
  Si  Si0  1  0.29303396  0.00672522  0.25193616  1
  Si  Si1  1  0.01118105  0.28821020  0.25093002  1
  Si  Si2  1  0.28488179  0.29073013  0.74826042  1
  Si  Si3  1  0.71855463  0.01041250  0.75083101  1
  Si  Si4  1  0.66464067  0.62188627  0.58305454  1
  Si  Si5  1  0.94926303  0.62404833  0.08443848  1
  Si  Si6  1  0.33125470  0.95907518  0.91545965  1
  Si  Si7  1  0.62493259  0.95858142  0.41484230  1
  Si  Si8  1  0.05028690  0.67505277  0.41799954  1
  S  S0  1  0.71209140  0.71291083  0.24969250  1
  S  S1  1  0.00019540  0.71229464  0.74979776  1
  S  S2  1  0.95471293  0.33595818  0.58388694  1
  S  S3  1  0.37589481  0.04500309  0.58304905  1
  S  S4  1  0.66723445  0.04545292  0.08260174  1
  S  S5  1  0.37885164  0.33612925  0.08304884  1
  S  S6  1  0.62071356  0.66771061  0.91752054  1
  S  S7  1  0.04447755  0.37966397  0.91684742  1
  S  S8  1  0.33522631  0.38148973  0.41666141  1
  O  O0  1  0.19531796  0.03274266  0.30829137  1
  O  O1  1  0.82164080  0.78887454  0.30333875  1
  O  O2  1  0.96640160  0.16180312  0.30823878  1
  O  O3  1  0.20068479  0.16589796  0.80806311  1
  O  O4  1  0.97221640  0.79277342  0.80425813  1
  O  O5  1  0.83752607  0.02730588  0.80955682  1
  O  O6  1  0.80028097  0.96508760  0.69223164  1
  O  O7  1  0.16216149  0.19092712  0.69109104  1
  O  O8  1  0.03083147  0.82104553  0.69656140  1
  O  O9  1  0.79457506  0.82027787  0.19529410  1
  O  O10  1  0.02395831  0.18723404  0.19018569  1
  O  O11  1  0.16692736  0.96640065  0.19145839  1
  O  O12  1  0.87020041  0.35653416  0.63752940  1
  O  O13  1  0.48692493  0.12546680  0.63811697  1
  O  O14  1  0.64148131  0.49701215  0.64135642  1
  O  O15  1  0.85592516  0.49556874  0.14055114  1
  O  O16  1  0.63264621  0.12096915  0.13622301  1
  O  O17  1  0.48643222  0.36168767  0.13589592  1
  O  O18  1  0.46070429  0.30536836  0.02830617  1
  O  O19  1  0.82855582  0.52011141  0.02496272  1
  O  O20  1  0.68751051  0.15358015  0.02894111  1
  O  O21  1  0.45980569  0.15191783  0.53038936  1
  O  O22  1  0.69223999  0.52180875  0.52588875  1
  O  O23  1  0.84533136  0.30278799  0.52951168  1
  O  O24  1  0.53525403  0.68882835  0.97103885  1
  O  O25  1  0.15477300  0.46097254  0.97131846  1
  O  O26  1  0.30506784  0.83265747  0.97417723  1
  O  O27  1  0.53476119  0.83335011  0.47459920  1
  O  O28  1  0.30877433  0.46242051  0.47108211  1
  O  O29  1  0.17101292  0.69324413  0.47646237  1
  O  O30  1  0.13027581  0.63085388  0.35847241  1
  O  O31  1  0.49655677  0.85758733  0.35819504  1
  O  O32  1  0.36369223  0.48637420  0.36293829  1
  O  O33  1  0.12374783  0.48515075  0.86389432  1
  O  O34  1  0.36107243  0.85788049  0.85934571  1
  O  O35  1  0.51158907  0.63482306  0.86306558  1
  O  O36  1  0.02745816  0.84573388  0.40982621  1
  O  O37  1  0.81930880  0.97917822  0.40905331  1
  O  O38  1  0.17425972  0.20304166  0.41286974  1
  O  O39  1  0.02447632  0.19907077  0.91280698  1
  O  O40  1  0.15242039  0.97279500  0.91002776  1
  O  O41  1  0.79805614  0.82403505  0.91195728  1
  O  O42  1  0.97200397  0.17178710  0.58850475  1
  O  O43  1  0.19948184  0.02602677  0.59025613  1
  O  O44  1  0.84534359  0.81626879  0.59141457  1
  O  O45  1  0.97185552  0.82019359  0.08832361  1
  O  O46  1  0.82523392  0.02744648  0.08709567  1
  O  O47  1  0.20041895  0.17572857  0.08629714  1
  O  O48  1  0.69783501  0.18244395  0.74146695  1
  O  O49  1  0.48197719  0.31179059  0.74304778  1
  O  O50  1  0.84244341  0.53355363  0.74421363  1
  O  O51  1  0.69401546  0.53320692  0.24229599  1
  O  O52  1  0.83266766  0.30971407  0.24229608  1
  O  O53  1  0.48504464  0.18200854  0.23862217  1
  O  O54  1  0.63735619  0.50363567  0.92306161  1
  O  O55  1  0.86471116  0.35887070  0.92412432  1
  O  O56  1  0.50864039  0.15279649  0.92652647  1
  O  O57  1  0.63555692  0.14886331  0.42736242  1
  O  O58  1  0.49172031  0.35698696  0.42359768  1
  O  O59  1  0.85306806  0.49540199  0.42425844  1
  O  O60  1  0.36317835  0.49643696  0.07404008  1
  O  O61  1  0.14615450  0.63923262  0.07493099  1
  O  O62  1  0.50751406  0.86316540  0.07494649  1
  O  O63  1  0.35944918  0.86560216  0.57935753  1
  O  O64  1  0.48727809  0.63942761  0.57734299  1
  O  O65  1  0.13234339  0.49217392  0.57858003  1
  O  O66  1  0.31375572  0.83061979  0.25493327  1
  O  O67  1  0.53540394  0.69198631  0.25427813  1
  O  O68  1  0.18557561  0.48128362  0.25614929  1
  O  O69  1  0.30277636  0.48327111  0.76097293  1
  O  O70  1  0.15899469  0.69183740  0.75704298  1
  O  O71  1  0.52145760  0.83087074  0.75771523  1
loop_
_geom_bond_atom_site_label_1
_geom_bond_atom_site_label_2
_geom_bond_distance
_geom_bond_site_symmetry_2
Na0 O36 2.433559 1_655
Na0 O37 2.463869 1_555
Na0 O44 2.564217 1_555
Na0 O38 2.585031 1_665
Na0 O42 2.639887 1_565
Na0 O43 2.671236 1_665
Na1 O45 2.426175 1_455
Na1 O40 2.489302 1_554
Na1 O47 2.532438 1_565
Na1 O41 2.576859 1_454
Na1 O46 2.590481 1_465
Na1 O39 2.618063 1_564
Na2 O48 2.462930 1_555
Na2 O49 2.484941 1_555
Na2 O56 2.595859 1_555
Na2 O50 2.609304 1_555
Na2 O54 2.654503 1_555
Na2 O55 2.659618 1_555
Na3 O59 2.529810 1_555
Na3 O57 2.534188 1_555
Na3 O52 2.587897 1_555
Na3 O53 2.595312 1_555
Na3 O58 2.612501 1_555
Na3 O51 2.697365 1_555
Na4 O68 2.388448 1_555
Na4 O66 2.401856 1_555
Na4 O67 2.514742 1_555
Na4 O61 2.634307 1_555
Na4 O60 2.734803 1_555
Na4 O62 2.768071 1_555
Na5 O64 2.412621 1_555
Na5 O65 2.526628 1_555
Na5 O63 2.548721 1_555
Na5 O71 2.599062 1_555
Na5 O69 2.623675 1_555
Na5 O70 2.706003 1_555
O0 Si0 1.608755 1_555
O0 Ti0 1.909547 1_555
O1 S0 1.469146 1_555
O1 Ti0 2.108170 1_665
O2 Si1 1.619472 1_655
O2 Ti0 1.872979 1_655
O3 Si2 1.662988 1_555
O3 Ti1 1.778862 1_555
O4 S1 1.488651 1_655
O4 Ti1 2.039193 1_665
O5 Si3 1.637651 1_555
O5 Ti1 1.856497 1_655
O6 Si3 1.639647 1_565
O6 Ti2 1.800054 1_565
O7 Si2 1.613085 1_555
O7 Ti2 1.889611 1_455
O8 S1 1.473133 1_555
O8 Ti2 2.145327 1_465
O9 S0 1.498003 1_555
O9 Ti3 2.024184 1_655
O10 Si1 1.654886 1_555
O10 Ti3 1.828920 1_545
O11 Si0 1.668630 1_565
O11 Ti3 1.761032 1_555
O12 S2 1.474096 1_555
O12 Ti4 2.168403 1_555
O13 S3 1.505707 1_555
O13 Ti4 1.977763 1_555
O14 Si4 1.657625 1_555
O14 Ti4 1.820597 1_555
O15 Si5 1.621407 1_555
O15 Ti5 1.879080 1_555
O16 S4 1.473690 1_555
O16 Ti5 2.115647 1_555
O17 S5 1.457986 1_555
O17 Ti5 2.255815 1_555
O18 S5 1.515468 1_555
O18 Ti6 1.975632 1_554
O19 Si5 1.655560 1_555
O19 Ti6 1.816345 1_554
O20 S4 1.492696 1_555
O20 Ti6 2.039511 1_554
O21 S3 1.466559 1_555
O21 Ti7 2.233260 1_555
O22 Si4 1.634053 1_555
O22 Ti7 1.847568 1_555
O23 S2 1.484659 1_555
O23 Ti7 2.058288 1_555
O24 S6 1.478216 1_555
O24 Ti8 2.173588 1_556
O25 S7 1.493158 1_555
O25 Ti8 2.026586 1_556
O26 Si6 1.667968 1_555
O26 Ti8 1.776338 1_556
O27 Si7 1.670624 1_555
O27 Ti9 1.767414 1_555
O28 S8 1.484748 1_555
O28 Ti9 2.029104 1_555
O29 Si8 1.639279 1_555
O29 Ti9 1.859013 1_555
O30 Si8 1.643890 1_555
O30 Ti10 1.802898 1_555
O31 Si7 1.625757 1_555
O31 Ti10 1.866923 1_555
O32 S8 1.466300 1_555
O32 Ti10 2.220453 1_555
O33 S7 1.460024 1_555
O33 Ti11 2.262196 1_555
O34 Si6 1.629688 1_555
O34 Ti11 1.858566 1_555
O35 S6 1.485248 1_555
O35 Ti11 2.070270 1_555
O36 Si8 1.603574 1_555
O36 Ti0 1.951760 1_565
O37 Si7 1.618793 1_555
O37 Ti0 1.924772 1_665
O38 S8 1.484757 1_555
O38 Ti0 2.049717 1_555
O39 S7 1.491873 1_555
O39 Ti1 2.101326 1_555
O40 Si6 1.626207 1_555
O40 Ti1 1.940873 1_565
O41 S6 1.468893 1_555
O41 Ti1 2.273410 1_665
O42 S2 1.511716 1_555
O42 Ti2 2.011639 1_555
O43 S3 1.472626 1_555
O43 Ti2 2.192874 1_455
O44 Si4 1.644764 1_555
O44 Ti2 1.891885 1_565
O45 Si5 1.616701 1_555
O45 Ti3 1.969639 1_655
O46 S4 1.465165 1_555
O46 Ti3 2.274881 1_645
O47 S5 1.484803 1_555
O47 Ti3 2.170753 1_545
O48 Si3 1.607936 1_555
O48 Ti4 1.963508 1_555
O49 Si2 1.639602 1_555
O49 Ti4 1.850081 1_555
O50 S1 1.477031 1_655
O50 Ti4 2.123151 1_555
O51 S0 1.497072 1_555
O51 Ti5 1.997053 1_555
O52 Si1 1.668391 1_655
O52 Ti5 1.792988 1_555
O53 Si0 1.635908 1_555
O53 Ti5 1.891423 1_555
O54 S6 1.509372 1_555
O54 Ti6 2.036292 1_555
O55 S7 1.495314 1_655
O55 Ti6 2.100297 1_555
O56 Si6 1.636384 1_545
O56 Ti6 1.909652 1_555
O57 Si7 1.631648 1_545
O57 Ti7 1.901450 1_555
O58 S8 1.490037 1_555
O58 Ti7 2.055030 1_555
O59 Si8 1.654484 1_655
O59 Ti7 1.813030 1_555
O60 S5 1.481229 1_555
O60 Ti8 2.157073 1_555
O61 Si5 1.669636 1_455
O61 Ti8 1.824043 1_555
O62 S4 1.506170 1_565
O62 Ti8 2.022612 1_555
O63 S3 1.494106 1_565
O63 Ti9 2.091851 1_555
O64 Si4 1.632502 1_555
O64 Ti9 1.955753 1_555
O65 S2 1.469456 1_455
O65 Ti9 2.282617 1_555
O66 Si0 1.629815 1_565
O66 Ti10 1.870903 1_555
O67 S0 1.462461 1_555
O67 Ti10 2.269133 1_555
O68 Si1 1.608670 1_555
O68 Ti10 1.956975 1_555
O69 Si2 1.624100 1_555
O69 Ti11 1.896169 1_555
O70 S1 1.489777 1_555
O70 Ti11 2.051726 1_555
O71 Si3 1.654897 1_565
O71 Ti11 1.809188 1_555
