# generated using pymatgen
data_Na4CaZnSi(SO6)2
_symmetry_space_group_name_H-M   'P 1'
_cell_length_a   9.37573102
_cell_length_b   9.37423237
_cell_length_c   22.59201773
_cell_angle_alpha   89.24704275
_cell_angle_beta   89.30319683
_cell_angle_gamma   119.86227118
_symmetry_Int_Tables_number   1
_chemical_formula_structural   Na4CaZnSi(SO6)2
_chemical_formula_sum   'Na24 Ca6 Zn6 Si6 S12 O72'
_cell_volume   1721.42858880
_cell_formula_units_Z   6
loop_
 _symmetry_equiv_pos_site_id
 _symmetry_equiv_pos_as_xyz
  1  'x, y, z'
loop_
 _atom_site_type_symbol
 _atom_site_label
 _atom_site_symmetry_multiplicity
 _atom_site_fract_x
 _atom_site_fract_y
 _atom_site_fract_z
 _atom_site_occupancy
  Na  Na0  1  0.62001674  0.00019396  0.25587157  1
  Na  Na1  1  0.36363678  0.35374919  0.25382204  1
  Na  Na2  1  0.00641604  0.63979554  0.23856863  1
  Na  Na3  1  0.63736379  0.64565242  0.73353404  1
  Na  Na4  1  0.97597004  0.34057775  0.74927225  1
  Na  Na5  1  0.38226094  0.00548171  0.75557767  1
  Na  Na6  1  0.31579583  0.34247480  0.59151221  1
  Na  Na7  1  0.01239211  0.69417767  0.58233869  1
  Na  Na8  1  0.67556563  0.95033804  0.58587701  1
  Na  Na9  1  0.27621945  0.94870376  0.08474700  1
  Na  Na10  1  0.68433134  0.69689301  0.08396175  1
  Na  Na11  1  0.02488513  0.34102543  0.09413917  1
  Na  Na12  1  0.99377970  0.68895106  0.93164564  1
  Na  Na13  1  0.67213900  0.02961290  0.90244316  1
  Na  Na14  1  0.33213881  0.28581071  0.91614610  1
  Na  Na15  1  0.96038319  0.28338282  0.40995003  1
  Na  Na16  1  0.34493436  0.03198604  0.40208426  1
  Na  Na17  1  0.70047124  0.68748437  0.42642059  1
  Na  Na18  1  0.96521111  0.97931401  0.49821764  1
  Na  Na19  1  0.01641340  0.98106428  0.00281167  1
  Na  Na20  1  0.65086423  0.29933388  0.82973096  1
  Na  Na21  1  0.65570856  0.30804492  0.32944757  1
  Na  Na22  1  0.31569462  0.67822468  0.17137456  1
  Na  Na23  1  0.36248331  0.68182087  0.66745941  1
  Ca  Ca0  1  0.98990890  -0.00000843  0.84485005  1
  Ca  Ca1  1  0.66788914  0.33310896  0.98849652  1
  Ca  Ca2  1  0.66644573  0.33149887  0.48436520  1
  Ca  Ca3  1  0.32382798  0.67479848  0.01792043  1
  Ca  Ca4  1  0.35801253  0.67861147  0.51467675  1
  Ca  Ca5  1  0.34058303  0.68259039  0.81749279  1
  Zn  Zn0  1  0.00536039  0.00299658  0.34227387  1
  Zn  Zn1  1  0.96635699  0.96751717  0.65326138  1
  Zn  Zn2  1  0.00343700  0.96468658  0.15763273  1
  Zn  Zn3  1  0.66388448  0.32856332  0.67786952  1
  Zn  Zn4  1  0.65737934  0.32413808  0.18122291  1
  Zn  Zn5  1  0.34467690  0.71362984  0.32186516  1
  Si  Si0  1  0.30259742  0.00520185  0.24991787  1
  Si  Si1  1  0.69524497  0.01280204  0.74537936  1
  Si  Si2  1  0.67262759  0.63202478  0.58612953  1
  Si  Si3  1  0.95881871  0.63131748  0.08869754  1
  Si  Si4  1  0.33217785  0.98286574  0.91640593  1
  Si  Si5  1  0.65562173  0.97651990  0.41164689  1
  S  S0  1  0.69768017  0.70006252  0.25108387  1
  S  S1  1  0.00149314  0.29774787  0.24919917  1
  S  S2  1  0.30293691  0.30108268  0.74649431  1
  S  S3  1  0.99643227  0.69300691  0.74798086  1
  S  S4  1  0.97316675  0.33227056  0.58460683  1
  S  S5  1  0.35431363  0.03004896  0.58645660  1
  S  S6  1  0.67556314  0.03027041  0.08795970  1
  S  S7  1  0.35797794  0.33004050  0.08712341  1
  S  S8  1  0.63463575  0.66305270  0.91732179  1
  S  S9  1  0.03071239  0.36104511  0.91673128  1
  S  S10  1  0.32784170  0.36583826  0.41333581  1
  S  S11  1  0.03699731  0.66752809  0.41459858  1
  O  O0  1  0.21685127  0.03606673  0.30914709  1
  O  O1  1  0.79915783  0.78332478  0.30326866  1
  O  O2  1  0.98321803  0.19791161  0.30366651  1
  O  O3  1  0.22172454  0.20631200  0.80184825  1
  O  O4  1  0.98247440  0.77514483  0.80157821  1
  O  O5  1  0.79508926  0.04685825  0.80751406  1
  O  O6  1  0.79774715  0.99283129  0.68981156  1
  O  O7  1  0.20580465  0.21393828  0.69401432  1
  O  O8  1  0.02488415  0.80077024  0.69438913  1
  O  O9  1  0.77518992  0.80409420  0.19620720  1
  O  O10  1  0.01511963  0.21437166  0.19559820  1
  O  O11  1  0.19430792  0.97696702  0.19084364  1
  O  O12  1  0.88795825  0.34617328  0.63822447  1
  O  O13  1  0.46186220  0.10795372  0.63766773  1
  O  O14  1  0.65604966  0.51433529  0.64383114  1
  O  O15  1  0.85226210  0.50858420  0.14530141  1
  O  O16  1  0.64349316  0.10878985  0.13958271  1
  O  O17  1  0.45781075  0.34318375  0.13959407  1
  O  O18  1  0.43426058  0.30797466  0.03238762  1
  O  O19  1  0.86636982  0.56213906  0.02608980  1
  O  O20  1  0.69217861  0.12468296  0.03246973  1
  O  O21  1  0.43326256  0.12499372  0.53084307  1
  O  O22  1  0.69499151  0.55670807  0.52435859  1
  O  O23  1  0.87250555  0.30880691  0.53125072  1
  O  O24  1  0.54864360  0.67133793  0.97163304  1
  O  O25  1  0.12947592  0.44310383  0.96949903  1
  O  O26  1  0.31196466  0.87530185  0.97703186  1
  O  O27  1  0.58401973  0.87129603  0.47389322  1
  O  O28  1  0.31119500  0.44340362  0.46824883  1
  O  O29  1  0.13029790  0.67985687  0.46893057  1
  O  O30  1  0.12065701  0.64585391  0.36146352  1
  O  O31  1  0.53388343  0.88788236  0.35569766  1
  O  O32  1  0.33958646  0.46676571  0.36022121  1
  O  O33  1  0.11615713  0.45519473  0.86203725  1
  O  O34  1  0.35356873  0.89594464  0.85697074  1
  O  O35  1  0.53745830  0.64781865  0.86418150  1
  O  O36  1  0.02480610  0.81985029  0.41024636  1
  O  O37  1  0.84005509  0.99048928  0.40345277  1
  O  O38  1  0.18115941  0.19738064  0.41238049  1
  O  O39  1  0.00795094  0.19211075  0.91609057  1
  O  O40  1  0.16393390  0.99849686  0.91526947  1
  O  O41  1  0.79866347  0.81672928  0.91439391  1
  O  O42  1  0.00360752  0.19077785  0.58807176  1
  O  O43  1  0.19249430  0.02340247  0.59301589  1
  O  O44  1  0.84180000  0.81872323  0.58797775  1
  O  O45  1  0.97774886  0.81882566  0.09095989  1
  O  O46  1  0.83085987  0.02499094  0.09398980  1
  O  O47  1  0.18704445  0.18777561  0.09156830  1
  O  O48  1  0.67226037  0.17853206  0.73814025  1
  O  O49  1  0.47096883  0.32185728  0.74506570  1
  O  O50  1  0.84391637  0.53116855  0.74486580  1
  O  O51  1  0.68601460  0.53528906  0.24785116  1
  O  O52  1  0.85243228  0.31786868  0.24841348  1
  O  O53  1  0.49216606  0.17159923  0.24450955  1
  O  O54  1  0.65851631  0.51775137  0.91900590  1
  O  O55  1  0.86661141  0.35056617  0.91935038  1
  O  O56  1  0.50024755  0.16656788  0.91659648  1
  O  O57  1  0.67159172  0.16021069  0.41307112  1
  O  O58  1  0.48089639  0.35166445  0.41477652  1
  O  O59  1  0.86898757  0.52030155  0.41655044  1
  O  O60  1  0.35160630  0.48638443  0.08335143  1
  O  O61  1  0.14322362  0.64837092  0.09177518  1
  O  O62  1  0.53299761  0.85806864  0.08517659  1
  O  O63  1  0.32596069  0.85792490  0.58280043  1
  O  O64  1  0.50581371  0.65043962  0.58917843  1
  O  O65  1  0.13539020  0.48908410  0.57965485  1
  O  O66  1  0.31727945  0.83484464  0.25405460  1
  O  O67  1  0.52757880  0.67568019  0.25479544  1
  O  O68  1  0.15318135  0.46412854  0.25152720  1
  O  O69  1  0.31581515  0.46747105  0.74765140  1
  O  O70  1  0.14073718  0.66592683  0.74993537  1
  O  O71  1  0.51452406  0.84311831  0.74523884  1
loop_
_geom_bond_atom_site_label_1
_geom_bond_atom_site_label_2
_geom_bond_distance
_geom_bond_site_symmetry_2
Na0 O31 2.427650 1_545
Na0 O53 2.449329 1_555
Na0 O66 2.466567 1_545
Na0 O52 2.675948 1_555
Na0 O67 2.717140 1_545
Na0 O16 2.771184 1_555
Na1 O53 2.542516 1_555
Na1 O67 2.617969 1_555
Na1 O51 2.629018 1_555
Na1 O68 2.645942 1_555
Na1 O32 2.691288 1_555
Na1 O17 2.736329 1_555
Na1 O0 2.846732 1_555
Na2 O15 2.532495 1_455
Na2 O66 2.587473 1_555
Na2 O52 2.622372 1_455
Na2 O68 2.635260 1_555
Na2 O51 2.660141 1_455
Na2 O11 2.928386 1_555
Na2 O30 2.979094 1_555
Na3 O14 2.434076 1_555
Na3 O69 2.632189 1_555
Na3 O71 2.636552 1_555
Na3 O49 2.639821 1_555
Na3 O50 2.653706 1_555
Na4 O48 2.489780 1_555
Na4 O50 2.633636 1_555
Na4 O70 2.645453 1_655
Na4 O12 2.658516 1_555
Na4 O5 2.718283 1_555
Na4 O69 2.791133 1_655
Na4 O33 2.849428 1_655
Na5 O48 2.396726 1_555
Na5 O71 2.406397 1_545
Na5 O34 2.453985 1_545
Na5 O49 2.657873 1_555
Na5 O13 2.783193 1_555
Na5 O70 2.848812 1_545
Na6 O64 2.526464 1_555
Na6 O42 2.541458 1_555
Na6 O7 2.551296 1_555
Na6 O43 2.614767 1_555
Na6 O65 2.671672 1_555
Na6 O28 2.937052 1_555
Na7 O44 2.407494 1_455
Na7 O63 2.550827 1_555
Na7 O65 2.690570 1_555
Na7 O43 2.697063 1_565
Na7 O8 2.716161 1_555
Na7 O29 2.809348 1_555
Na7 O22 2.924463 1_455
Na8 O44 2.422563 1_555
Na8 O64 2.444993 1_555
Na8 O6 2.572948 1_555
Na8 O27 2.674897 1_555
Na8 O42 2.765042 1_665
Na8 O63 2.945961 1_555
Na9 O45 2.434350 1_455
Na9 O61 2.448251 1_555
Na9 O11 2.565120 1_555
Na9 O26 2.600294 1_554
Na9 O47 2.759940 1_565
Na9 O62 2.924937 1_555
Na10 O45 2.404888 1_555
Na10 O62 2.536082 1_555
Na10 O46 2.686356 1_565
Na10 O9 2.726375 1_555
Na10 O60 2.738120 1_555
Na10 O24 2.811922 1_554
Na10 O19 2.890369 1_555
Na11 O61 2.519118 1_555
Na11 O10 2.546989 1_555
Na11 O47 2.560037 1_555
Na11 O46 2.592234 1_455
Na11 O60 2.667599 1_555
Na11 O25 2.955332 1_554
Na11 O15 2.992734 1_455
Na12 O19 2.418668 1_556
Na12 O40 2.539605 1_655
Na12 O41 2.668412 1_555
Na12 O54 2.747358 1_555
Na12 O55 2.797468 1_555
Na12 O26 2.816811 1_655
Na13 O5 2.387388 1_555
Na13 O56 2.531103 1_555
Na13 O55 2.665860 1_555
Na13 O39 2.754687 1_655
Na13 O41 2.795299 1_545
Na13 O34 2.815683 1_545
Na14 O56 2.342735 1_555
Na14 O40 2.348171 1_545
Na14 O39 2.711371 1_555
Na14 O54 2.734645 1_555
Na14 O3 2.764459 1_555
Na14 O18 2.780983 1_556
Na15 O57 2.355702 1_555
Na15 O37 2.400601 1_545
Na15 O38 2.569254 1_655
Na15 O2 2.581133 1_555
Na15 O59 2.754965 1_555
Na15 O23 2.898858 1_555
Na16 O0 2.440697 1_555
Na16 O58 2.629631 1_555
Na16 O36 2.651467 1_545
Na16 O38 2.680930 1_555
Na16 O57 2.691952 1_555
Na16 O31 2.904579 1_545
Na16 O21 3.051890 1_555
Na17 O22 2.502885 1_555
Na17 O37 2.508582 1_555
Na17 O36 2.669022 1_655
Na17 O27 2.684201 1_555
Na17 O59 2.732873 1_555
Na17 O58 2.792617 1_555
Na17 O1 2.906557 1_555
Na18 O44 2.417725 1_555
Na18 O37 2.479741 1_555
Na18 O36 2.716535 1_655
Na18 O42 2.755519 1_665
Na18 O38 2.778025 1_665
Na18 O43 2.925026 1_665
Na19 O40 2.356079 1_554
Na19 O45 2.400855 1_455
Na19 O47 2.725452 1_565
Na19 O41 2.753076 1_454
Na19 O39 2.795901 1_564
Na19 O46 2.843908 1_465
Na20 O56 2.347893 1_555
Na20 O48 2.425285 1_555
Na20 O49 2.640172 1_555
Na20 O50 2.750275 1_555
Na20 O55 2.753073 1_555
Na20 O54 2.868981 1_555
Na21 O57 2.378113 1_555
Na21 O53 2.419172 1_555
Na21 O52 2.550734 1_555
Na21 O58 2.679736 1_555
Na21 O51 2.701512 1_555
Na21 O59 2.840146 1_555
Na22 O61 2.358043 1_555
Na22 O66 2.386613 1_555
Na22 O68 2.533918 1_555
Na22 O62 2.679959 1_555
Na22 O67 2.763329 1_555
Na22 O60 2.825375 1_555
Na23 O64 2.317247 1_555
Na23 O71 2.321715 1_555
Na23 O69 2.553578 1_555
Na23 O63 2.645092 1_555
Na23 O70 2.721482 1_555
Na23 O65 2.845835 1_555
Ca0 O5 2.251169 1_555
Ca0 O3 2.263075 1_655
Ca0 O40 2.297539 1_645
Ca0 O4 2.304938 1_545
Ca0 O41 2.329779 1_545
Ca0 O39 2.375272 1_655
Ca1 O19 2.213933 1_556
Ca1 O56 2.287243 1_555
Ca1 O20 2.292126 1_556
Ca1 O18 2.294311 1_556
Ca1 O54 2.356219 1_555
Ca1 O55 2.357402 1_555
Ca2 O22 2.199626 1_555
Ca2 O21 2.303449 1_555
Ca2 O57 2.306100 1_555
Ca2 O23 2.313615 1_555
Ca2 O59 2.365766 1_555
Ca2 O58 2.433106 1_555
Ca3 O26 2.136238 1_554
Ca3 O61 2.283700 1_555
Ca3 O25 2.324690 1_554
Ca3 O24 2.356445 1_554
Ca3 O60 2.402370 1_555
Ca3 O62 2.427384 1_555
Ca4 O27 2.167697 1_555
Ca4 O64 2.287462 1_555
Ca4 O28 2.294036 1_555
Ca4 O29 2.388433 1_555
Ca4 O65 2.414989 1_555
Ca4 O63 2.417493 1_555
Ca5 O34 2.148825 1_555
Ca5 O71 2.239532 1_555
Ca5 O35 2.294227 1_555
Ca5 O33 2.325864 1_555
Ca5 O70 2.376757 1_555
Ca5 O69 2.497270 1_555
O0 Si0 1.654147 1_555
O0 Zn0 1.983353 1_555
O1 S0 1.488733 1_555
O1 Zn0 2.208905 1_665
O2 S1 1.491428 1_655
O2 Zn0 2.117240 1_655
O3 S2 1.485573 1_555
O4 S3 1.482296 1_555
O5 Si1 1.641605 1_555
O6 Si1 1.640314 1_565
O6 Zn1 1.893196 1_555
O7 S2 1.487709 1_555
O7 Zn1 2.483070 1_445
O8 S3 1.499736 1_455
O8 Zn1 2.106229 1_455
O9 S0 1.502252 1_555
O9 Zn2 2.077812 1_655
O10 S1 1.488006 1_555
O10 Zn2 2.454762 1_545
O11 Si0 1.629933 1_565
O11 Zn2 1.899601 1_555
O12 S4 1.485541 1_555
O12 Zn3 2.201826 1_555
O13 S5 1.485233 1_555
O13 Zn3 2.209023 1_555
O14 Si2 1.651420 1_555
O14 Zn3 1.929517 1_555
O15 Si3 1.656123 1_555
O15 Zn4 1.941054 1_555
O16 S6 1.492247 1_555
O16 Zn4 2.183654 1_555
O17 S7 1.487443 1_555
O17 Zn4 2.188255 1_555
O18 S7 1.488624 1_555
O19 Si3 1.632986 1_555
O20 S6 1.485918 1_555
O21 S5 1.486804 1_555
O22 Si2 1.629773 1_555
O23 S4 1.489982 1_555
O24 S8 1.484044 1_555
O25 S9 1.487266 1_555
O26 Si4 1.641862 1_555
O27 Si5 1.637801 1_555
O28 S10 1.491357 1_555
O29 S11 1.488090 1_555
O30 S11 1.496583 1_555
O30 Zn5 2.055706 1_555
O31 Si5 1.645946 1_555
O31 Zn5 1.891967 1_555
O32 S10 1.486735 1_555
O32 Zn5 2.438200 1_555
O33 S9 1.480106 1_555
O34 Si4 1.640762 1_555
O35 S8 1.481002 1_555
O36 S11 1.490220 1_555
O36 Zn0 2.363945 1_565
O37 Si5 1.675596 1_555
O37 Zn0 2.022088 1_665
O38 S10 1.491461 1_555
O38 Zn0 2.386239 1_555
O39 S9 1.489217 1_555
O40 Si4 1.655721 1_555
O41 S8 1.494510 1_555
O42 S4 1.490529 1_455
O42 Zn1 2.418638 1_445
O43 S5 1.492586 1_555
O43 Zn1 2.329631 1_445
O44 Si2 1.679195 1_555
O44 Zn1 1.989593 1_555
O45 Si3 1.678002 1_555
O45 Zn2 1.982796 1_655
O46 S6 1.489097 1_555
O46 Zn2 2.439477 1_645
O47 S7 1.490375 1_555
O47 Zn2 2.415564 1_545
O48 Si1 1.677621 1_555
O48 Zn3 1.974973 1_555
O49 S2 1.487949 1_555
O49 Zn3 2.323260 1_555
O50 S3 1.481969 1_555
O50 Zn3 2.385891 1_555
O51 S0 1.496023 1_555
O51 Zn4 2.411386 1_555
O52 S1 1.500690 1_655
O52 Zn4 2.413353 1_555
O53 Si0 1.684007 1_555
O53 Zn4 2.043285 1_555
O54 S8 1.486407 1_555
O55 S9 1.492469 1_655
O56 Si4 1.657310 1_545
O57 Si5 1.653306 1_545
O58 S10 1.506264 1_555
O59 S11 1.489892 1_655
O60 S7 1.497617 1_555
O61 Si3 1.657579 1_455
O62 S6 1.500809 1_565
O63 S5 1.502621 1_565
O64 Si2 1.657468 1_555
O65 S4 1.500598 1_455
O66 Si0 1.671315 1_565
O66 Zn5 1.989621 1_555
O67 S0 1.495319 1_555
O67 Zn5 2.433446 1_555
O68 S1 1.501021 1_555
O69 S2 1.503904 1_555
O70 S3 1.496692 1_455
O71 Si1 1.648470 1_565
