# generated using pymatgen
data_Na6Y8Si3(S3O16)3
_symmetry_space_group_name_H-M   'P 1'
_cell_length_a   18.56521152
_cell_length_b   9.23051168
_cell_length_c   24.21890121
_cell_angle_alpha   90.08558438
_cell_angle_beta   89.93033553
_cell_angle_gamma   119.78467842
_symmetry_Int_Tables_number   1
_chemical_formula_structural   Na6Y8Si3(S3O16)3
_chemical_formula_sum   'Na18 Y24 Si9 S27 O144'
_cell_volume   3602.03900728
_cell_formula_units_Z   3
loop_
 _symmetry_equiv_pos_site_id
 _symmetry_equiv_pos_as_xyz
  1  'x, y, z'
loop_
 _atom_site_type_symbol
 _atom_site_label
 _atom_site_symmetry_multiplicity
 _atom_site_fract_x
 _atom_site_fract_y
 _atom_site_fract_z
 _atom_site_occupancy
  Na  Na0  1  0.00625176  0.65132795  0.25440508  1
  Na  Na1  1  0.50471871  0.36141782  0.74207859  1
  Na  Na2  1  0.16063115  0.30498620  0.91073353  1
  Na  Na3  1  0.66037810  0.30473182  0.91107151  1
  Na  Na4  1  0.16234782  0.01984467  0.41633854  1
  Na  Na5  1  0.65877421  0.00993868  0.41626703  1
  Na  Na6  1  0.99463346  0.98371128  0.49926861  1
  Na  Na7  1  0.49418786  0.00124963  0.50352014  1
  Na  Na8  1  0.99598126  0.00837664  0.99460211  1
  Na  Na9  1  0.49465294  0.00633045  0.99629026  1
  Na  Na10  1  0.33064762  0.33224423  0.82677277  1
  Na  Na11  1  0.83925858  0.33488712  0.82837252  1
  Na  Na12  1  0.34319810  0.35106364  0.33622192  1
  Na  Na13  1  0.83038105  0.32951134  0.33568717  1
  Na  Na14  1  0.17395790  0.68511451  0.17095627  1
  Na  Na15  1  0.66371456  0.68170080  0.17394563  1
  Na  Na16  1  0.16762896  0.64913368  0.67135370  1
  Na  Na17  1  0.66142737  0.64539315  0.66245398  1
  Y  Y0  1  0.00213344  0.99709026  0.35119894  1
  Y  Y1  1  0.50270311  0.99374421  0.34968095  1
  Y  Y2  1  0.00299253  0.01328755  0.84742157  1
  Y  Y3  1  0.50213664  0.00843496  0.84857633  1
  Y  Y4  1  0.00589319  0.01316910  0.65138705  1
  Y  Y5  1  0.50429761  0.01645294  0.64735053  1
  Y  Y6  1  0.00531072  0.00136051  0.15012957  1
  Y  Y7  1  0.50521272  0.99813310  0.15176497  1
  Y  Y8  1  0.33041651  0.33435420  0.68184859  1
  Y  Y9  1  0.82814509  0.33416023  0.68636412  1
  Y  Y10  1  0.32937703  0.32405008  0.18764752  1
  Y  Y11  1  0.82347790  0.31580981  0.18611642  1
  Y  Y12  1  0.34134593  0.33325194  0.98038828  1
  Y  Y13  1  0.84121581  0.33372028  0.98087160  1
  Y  Y14  1  0.34705733  0.34857542  0.48410607  1
  Y  Y15  1  0.84055156  0.34830075  0.48143528  1
  Y  Y16  1  0.16215880  0.65836378  0.01629506  1
  Y  Y17  1  0.66125421  0.65727828  0.01655499  1
  Y  Y18  1  0.16269814  0.66633265  0.51706988  1
  Y  Y19  1  0.65423125  0.65400040  0.51995018  1
  Y  Y20  1  0.16533351  0.67017550  0.31674209  1
  Y  Y21  1  0.65927696  0.66873153  0.31531082  1
  Y  Y22  1  0.15931563  0.64918059  0.81302045  1
  Y  Y23  1  0.66380524  0.65890110  0.81459883  1
  Si  Si0  1  0.14911939  0.99870853  0.25138939  1
  Si  Si1  1  0.64984867  0.99802648  0.25154972  1
  Si  Si2  1  0.15329484  0.30055865  0.75149101  1
  Si  Si3  1  0.65011303  0.29791379  0.75262923  1
  Si  Si4  1  0.48274611  0.33166179  0.58733674  1
  Si  Si5  1  0.01806116  0.36605296  0.91712506  1
  Si  Si6  1  0.51811706  0.36665976  0.91514016  1
  Si  Si7  1  0.01775505  0.66654923  0.41469229  1
  Si  Si8  1  0.51640905  0.66813501  0.41627669  1
  S  S0  1  0.35162862  0.70457538  0.24871714  1
  S  S1  1  0.85351163  0.70612533  0.24839408  1
  S  S2  1  0.00002966  0.29721391  0.24896094  1
  S  S3  1  0.50005892  0.29444687  0.24898002  1
  S  S4  1  0.99928432  0.70522720  0.74934163  1
  S  S5  1  0.49933432  0.70354295  0.75000214  1
  S  S6  1  0.35183639  -0.00057049  0.74989062  1
  S  S7  1  0.85202977  0.00018372  0.74908822  1
  S  S8  1  0.98044144  0.33194285  0.58369730  1
  S  S9  1  0.18389612  0.03565917  0.58104465  1
  S  S10  1  0.68834125  0.04017498  0.58194726  1
  S  S11  1  0.33154527  0.63106629  0.58306710  1
  S  S12  1  0.83511924  0.63362453  0.58353508  1
  S  S13  1  0.48030107  0.62921728  0.08369653  1
  S  S14  1  0.98093814  0.62964907  0.08500137  1
  S  S15  1  0.33344462  0.03527445  0.08363997  1
  S  S16  1  0.83348968  0.03420613  0.08325100  1
  S  S17  1  0.18658540  0.33503523  0.08234519  1
  S  S18  1  0.68534970  0.33401226  0.08159230  1
  S  S19  1  0.31323785  0.66644894  0.91786373  1
  S  S20  1  0.81364711  0.66684115  0.91830666  1
  S  S21  1  0.16616192  0.96277767  0.91736862  1
  S  S22  1  0.66640328  0.96364813  0.91786504  1
  S  S23  1  0.31308519  0.96099271  0.41732196  1
  S  S24  1  0.81298730  0.95961836  0.41776310  1
  S  S25  1  0.16647042  0.36937322  0.41701079  1
  S  S26  1  0.66739270  0.37066493  0.41622890  1
  O  O0  1  0.10586838  0.02012091  0.30760270  1
  O  O1  1  0.60815641  0.02206748  0.30791722  1
  O  O2  1  0.40086777  0.78493771  0.29893421  1
  O  O3  1  0.90486846  0.78625483  0.29814296  1
  O  O4  1  0.48737734  0.19331625  0.29899734  1
  O  O5  1  0.98673334  0.19578837  0.29881234  1
  O  O6  1  0.11011573  0.19692032  0.80928876  1
  O  O7  1  0.61028524  0.19549216  0.81071401  1
  O  O8  1  0.48927743  0.78267624  0.80034017  1
  O  O9  1  0.98711553  0.78160627  0.79972352  1
  O  O10  1  0.40343113  0.02043445  0.79972199  1
  O  O11  1  0.90166054  0.01959477  0.79949738  1
  O  O12  1  0.39025007  0.97245906  0.70042852  1
  O  O13  1  0.89171327  0.97536240  0.69972730  1
  O  O14  1  0.09273407  0.20113993  0.69892495  1
  O  O15  1  0.58699963  0.20221011  0.70144427  1
  O  O16  1  0.00636124  0.80428121  0.69970398  1
  O  O17  1  0.50650125  0.80068211  0.70021032  1
  O  O18  1  0.39121905  0.80780692  0.19904011  1
  O  O19  1  0.89228869  0.81009420  0.19885012  1
  O  O20  1  0.00728937  0.21279471  0.19910498  1
  O  O21  1  0.50699155  0.20928537  0.19898185  1
  O  O22  1  0.08667676  0.96883552  0.19885168  1
  O  O23  1  0.59315576  0.98165915  0.19733774  1
  O  O24  1  0.43971083  0.34934487  0.64467714  1
  O  O25  1  0.94033356  0.35258926  0.63331815  1
  O  O26  1  0.23475883  0.12049493  0.63024122  1
  O  O27  1  0.73974475  0.12910261  0.63083960  1
  O  O28  1  0.31914367  0.52731539  0.63278665  1
  O  O29  1  0.82542583  0.53021961  0.63298910  1
  O  O30  1  0.44003636  0.52806362  0.13322024  1
  O  O31  1  0.94223366  0.53235089  0.13574915  1
  O  O32  1  0.32392484  0.11955283  0.13309884  1
  O  O33  1  0.82397155  0.11781450  0.13298016  1
  O  O34  1  0.23802649  0.35128875  0.13127465  1
  O  O35  1  0.73713331  0.35197219  0.13067027  1
  O  O36  1  0.22466203  0.31459293  0.03119401  1
  O  O37  1  0.72454331  0.31410207  0.03086468  1
  O  O38  1  0.43050237  0.54704079  0.03355020  1
  O  O39  1  0.92937668  0.54377946  0.03577854  1
  O  O40  1  0.34264676  0.13689851  0.03367002  1
  O  O41  1  0.84328659  0.13739797  0.03365601  1
  O  O42  1  0.22125163  0.13165419  0.52982761  1
  O  O43  1  0.72669426  0.13877198  0.53094915  1
  O  O44  1  0.33971052  0.54818964  0.53308104  1
  O  O45  1  0.84485198  0.54961426  0.53371372  1
  O  O46  1  0.42646539  0.31537313  0.53326465  1
  O  O47  1  0.93062622  0.31413526  0.53352527  1
  O  O48  1  0.27492875  0.69301741  0.96788330  1
  O  O49  1  0.77489987  0.69312308  0.96805029  1
  O  O50  1  0.07720174  0.45627425  0.97143778  1
  O  O51  1  0.57930009  0.46102562  0.96832840  1
  O  O52  1  0.15892666  0.86450658  0.96747364  1
  O  O53  1  0.65938588  0.86490805  0.96765890  1
  O  O54  1  0.27443255  0.85730450  0.46686035  1
  O  O55  1  0.77570245  0.85809919  0.46746419  1
  O  O56  1  0.15870334  0.45398206  0.46669278  1
  O  O57  1  0.66055419  0.45412131  0.46623952  1
  O  O58  1  0.08037475  0.69578484  0.46662913  1
  O  O59  1  0.57832593  0.70304603  0.46898447  1
  O  O60  1  0.05898784  0.64493044  0.35729562  1
  O  O61  1  0.56223599  0.64669894  0.36174053  1
  O  O62  1  0.26208124  0.87781333  0.36754496  1
  O  O63  1  0.76260626  0.88006628  0.36758038  1
  O  O64  1  0.17802973  0.47000468  0.36699337  1
  O  O65  1  0.68116939  0.47191264  0.36631800  1
  O  O66  1  0.06384418  0.48032242  0.86359440  1
  O  O67  1  0.56176584  0.47578943  0.85972188  1
  O  O68  1  0.18012957  0.88844099  0.86765184  1
  O  O69  1  0.68033240  0.88960961  0.86794213  1
  O  O70  1  0.26209120  0.64450055  0.86829312  1
  O  O71  1  0.76239468  0.64409460  0.86862074  1
  O  O72  1  0.01371205  0.84227543  0.41303869  1
  O  O73  1  0.51212312  0.84332249  0.41252562  1
  O  O74  1  0.39799062  0.98923465  0.41091415  1
  O  O75  1  0.89866824  0.99010840  0.41077614  1
  O  O76  1  0.08880458  0.20297615  0.41277973  1
  O  O77  1  0.59100936  0.20362930  0.41164183  1
  O  O78  1  0.01325131  0.18206674  0.91431171  1
  O  O79  1  0.51332290  0.18261973  0.91374604  1
  O  O80  1  0.08969207  0.97690934  0.91319221  1
  O  O81  1  0.58988876  0.97695227  0.91368106  1
  O  O82  1  0.39832070  0.80778755  0.91226142  1
  O  O83  1  0.89854951  0.80831693  0.91237776  1
  O  O84  1  0.49098757  0.16213555  0.58624041  1
  O  O85  1  0.98798912  0.17898474  0.58724466  1
  O  O86  1  0.09906949  0.01441710  0.58698491  1
  O  O87  1  0.60384433  0.01768954  0.58770458  1
  O  O88  1  0.40753571  0.79555535  0.58878904  1
  O  O89  1  0.91103519  0.79951020  0.58841603  1
  O  O90  1  0.48784401  0.79711603  0.08736056  1
  O  O91  1  0.98804562  0.79748688  0.08772355  1
  O  O92  1  0.40860480  0.01861281  0.08827535  1
  O  O93  1  0.90881996  0.01828596  0.08818618  1
  O  O94  1  0.10203195  0.18590948  0.08810216  1
  O  O95  1  0.60125686  0.18512332  0.08729334  1
  O  O96  1  0.34971758  0.15863880  0.74547984  1
  O  O97  1  0.84648534  0.15495143  0.74350876  1
  O  O98  1  0.24472259  0.31541158  0.74686276  1
  O  O99  1  0.74282668  0.31914365  0.74614340  1
  O  O100  1  0.42688933  0.53038096  0.74665946  1
  O  O101  1  0.92661599  0.53400975  0.74396531  1
  O  O102  1  0.34584608  0.53861617  0.24292274  1
  O  O103  1  0.85331342  0.54377454  0.24215257  1
  O  O104  1  0.42722485  0.32003433  0.24314422  1
  O  O105  1  0.92865855  0.32895830  0.24287320  1
  O  O106  1  0.24083852  0.16275227  0.24398795  1
  O  O107  1  0.74232289  0.16822682  0.24644331  1
  O  O108  1  0.31427235  0.50529689  0.92430899  1
  O  O109  1  0.81460110  0.50560177  0.92465904  1
  O  O110  1  0.42591780  0.34696265  0.92190781  1
  O  O111  1  0.92528874  0.34542840  0.92244475  1
  O  O112  1  0.23755795  0.13775283  0.92399602  1
  O  O113  1  0.73783597  0.13825197  0.92422452  1
  O  O114  1  0.31265168  0.12216108  0.42220532  1
  O  O115  1  0.81486501  0.12463095  0.42315094  1
  O  O116  1  0.23702073  0.33708912  0.42224047  1
  O  O117  1  0.73896040  0.33778156  0.42208914  1
  O  O118  1  0.42362669  0.50437067  0.41934084  1
  O  O119  1  0.92535933  0.50238314  0.42101893  1
  O  O120  1  0.17916150  0.48839429  0.07957360  1
  O  O121  1  0.67850877  0.48771070  0.07859626  1
  O  O122  1  0.06523974  0.64950036  0.07904736  1
  O  O123  1  0.56488216  0.64906020  0.07846527  1
  O  O124  1  0.25794366  0.86840652  0.07878096  1
  O  O125  1  0.75832877  0.86801122  0.07798442  1
  O  O126  1  0.17666458  0.86745784  0.57810259  1
  O  O127  1  0.68395198  0.87571825  0.57900910  1
  O  O128  1  0.25706923  0.65133306  0.57790989  1
  O  O129  1  0.76068346  0.65116699  0.57812599  1
  O  O130  1  0.06489335  0.48111406  0.57830517  1
  O  O131  1  0.57560435  0.49913097  0.58298949  1
  O  O132  1  0.15293479  0.82308160  0.25312048  1
  O  O133  1  0.66152743  0.83326407  0.25202972  1
  O  O134  1  0.26710885  0.68196134  0.25376897  1
  O  O135  1  0.76859749  0.67696494  0.25459571  1
  O  O136  1  0.07655092  0.46361497  0.25323823  1
  O  O137  1  0.57726913  0.45875724  0.25282237  1
  O  O138  1  0.16136812  0.48678314  0.75251122  1
  O  O139  1  0.65439566  0.48153188  0.75471673  1
  O  O140  1  0.07656232  0.69524577  0.75346268  1
  O  O141  1  0.57576895  0.68806482  0.75441290  1
  O  O142  1  0.26734381  0.85669550  0.75669227  1
  O  O143  1  0.76795969  0.85414451  0.75516988  1
loop_
_geom_bond_atom_site_label_1
_geom_bond_atom_site_label_2
_geom_bond_distance
_geom_bond_site_symmetry_2
Na0 O132 2.375076 1_555
Na0 O103 2.517179 1_455
Na0 O105 2.597591 1_455
Na0 O136 2.636803 1_555
Na0 O60 2.689869 1_555
Na0 O22 2.878958 1_555
Na0 O3 2.921645 1_455
Na1 O139 2.446391 1_555
Na1 O96 2.537669 1_555
Na1 O100 2.602005 1_555
Na1 O24 2.627962 1_555
Na1 O141 2.639537 1_555
Na1 O15 2.771971 1_555
Na2 O78 2.386797 1_555
Na2 O108 2.534508 1_555
Na2 O112 2.592004 1_555
Na2 O80 2.635675 1_545
Na2 O6 2.641910 1_555
Na2 O70 2.926793 1_555
Na2 O50 2.940718 1_555
Na3 O79 2.381336 1_555
Na3 O109 2.543669 1_555
Na3 O113 2.593991 1_555
Na3 O7 2.618345 1_555
Na3 O81 2.633896 1_545
Na3 O51 2.901087 1_555
Na3 O71 2.927001 1_555
Na4 O72 2.411265 1_545
Na4 O114 2.465963 1_555
Na4 O116 2.546273 1_555
Na4 O76 2.650038 1_555
Na4 O0 2.836192 1_555
Na4 O58 2.868944 1_545
Na4 O42 2.948438 1_555
Na4 O62 2.990863 1_545
Na5 O73 2.371989 1_545
Na5 O115 2.549299 1_555
Na5 O117 2.630074 1_555
Na5 O77 2.650902 1_555
Na5 O59 2.772772 1_545
Na5 O1 2.809447 1_555
Na5 O63 2.971431 1_545
Na5 O43 3.037673 1_555
Na6 O72 2.576955 1_655
Na6 O89 2.709678 1_555
Na6 O86 2.795511 1_665
Na6 O75 2.808039 1_555
Na6 O85 2.830675 1_565
Na6 O76 2.833523 1_665
Na7 O84 2.510179 1_555
Na7 O88 2.725203 1_545
Na7 O73 2.750168 1_545
Na7 O87 2.833138 1_555
Na7 O74 2.836240 1_545
Na7 O77 2.887716 1_555
Na8 O78 2.439584 1_655
Na8 O83 2.706821 1_545
Na8 O80 2.736888 1_645
Na8 O93 2.810939 1_556
Na8 O94 2.912728 1_656
Na8 O91 2.936800 1_546
Na9 O79 2.492441 1_555
Na9 O82 2.727667 1_545
Na9 O81 2.769214 1_545
Na9 O92 2.774596 1_556
Na9 O95 2.872796 1_556
Na9 O90 2.894760 1_546
Na10 O98 2.464698 1_555
Na10 O100 2.656619 1_555
Na10 O96 2.668714 1_555
Na10 O110 2.868059 1_555
Na10 O112 2.945231 1_555
Na10 O108 2.948476 1_555
Na11 O99 2.634696 1_555
Na11 O97 2.685403 1_555
Na11 O101 2.688713 1_555
Na11 O111 2.757712 1_555
Na11 O109 2.972159 1_555
Na11 O113 2.972453 1_555
Na12 O118 2.486770 1_555
Na12 O114 2.818199 1_555
Na12 O116 2.824983 1_555
Na12 O104 2.833824 1_555
Na12 O102 2.834107 1_555
Na12 O106 2.887834 1_555
Na13 O119 2.670228 1_555
Na13 O107 2.672376 1_555
Na13 O117 2.717514 1_555
Na13 O115 2.759673 1_555
Na13 O105 2.895007 1_555
Na13 O103 2.898086 1_555
Na14 O132 2.493654 1_555
Na14 O134 2.659461 1_555
Na14 O124 2.767517 1_555
Na14 O136 2.784202 1_555
Na14 O120 2.892493 1_555
Na14 O122 2.913114 1_555
Na15 O133 2.362946 1_555
Na15 O137 2.680103 1_555
Na15 O135 2.775369 1_555
Na15 O123 2.874679 1_555
Na15 O125 2.906055 1_555
Na15 O121 3.014824 1_555
Na16 O138 2.440863 1_555
Na16 O140 2.774571 1_555
Na16 O128 2.799421 1_555
Na16 O142 2.800576 1_555
Na16 O130 2.860555 1_555
Na16 O126 2.977704 1_555
Na17 O131 2.434718 1_555
Na17 O139 2.666644 1_555
Na17 O129 2.731876 1_555
Na17 O127 2.811861 1_555
Na17 O141 2.873208 1_555
Na17 O143 2.979672 1_555
O0 Si0 1.640579 1_545
O0 Y0 2.111384 1_545
O1 Si1 1.636823 1_545
O1 Y1 2.100413 1_545
O2 S0 1.480328 1_555
O2 Y1 2.275544 1_555
O3 S1 1.485714 1_555
O3 Y0 2.281685 1_655
O4 S3 1.475999 1_555
O4 Y1 2.347247 1_545
O5 S2 1.472468 1_655
O5 Y0 2.363074 1_645
O6 Si2 1.660300 1_555
O6 Y2 2.081437 1_555
O7 Si3 1.651187 1_555
O7 Y3 2.099880 1_555
O8 S5 1.478838 1_555
O8 Y3 2.294213 1_565
O9 S4 1.480526 1_555
O9 Y2 2.315577 1_665
O10 S6 1.493057 1_555
O10 Y3 2.231043 1_555
O11 S7 1.486487 1_555
O11 Y2 2.236956 1_655
O12 S6 1.476142 1_565
O12 Y5 2.332628 1_565
O13 S7 1.479576 1_565
O13 Y4 2.290444 1_665
O14 Si2 1.643762 1_555
O14 Y4 2.038309 1_555
O15 Si3 1.631544 1_555
O15 Y5 2.096764 1_555
O16 S4 1.477162 1_455
O16 Y4 2.260652 1_565
O17 S5 1.469759 1_555
O17 Y5 2.386643 1_565
O18 S0 1.483639 1_555
O18 Y7 2.276503 1_555
O19 S1 1.481209 1_555
O19 Y6 2.287329 1_665
O20 S2 1.477989 1_555
O20 Y6 2.266968 1_555
O21 S3 1.482588 1_555
O21 Y7 2.244334 1_545
O22 Si0 1.650424 1_555
O22 Y6 2.054341 1_565
O23 Si1 1.642941 1_555
O23 Y7 2.039243 1_555
O24 Si4 1.649154 1_555
O24 Y8 2.159566 1_555
O25 S8 1.474150 1_555
O25 Y9 2.379001 1_555
O26 S9 1.479809 1_555
O26 Y8 2.264509 1_555
O27 S10 1.486018 1_555
O27 Y9 2.235181 1_555
O28 S11 1.484536 1_555
O28 Y8 2.237267 1_555
O29 S12 1.486674 1_555
O29 Y9 2.246467 1_555
O30 S13 1.475439 1_555
O30 Y10 2.379435 1_555
O31 S14 1.481053 1_555
O31 Y11 2.442673 1_555
O32 S15 1.484766 1_555
O32 Y10 2.263121 1_555
O33 S16 1.486457 1_555
O33 Y11 2.237387 1_555
O34 S17 1.482803 1_555
O34 Y10 2.287735 1_555
O35 S18 1.486062 1_555
O35 Y11 2.241081 1_555
O36 S17 1.483136 1_555
O36 Y12 2.420716 1_554
O37 S18 1.484121 1_555
O37 Y13 2.407309 1_554
O38 S13 1.486057 1_555
O38 Y12 2.245926 1_554
O39 S14 1.487243 1_555
O39 Y13 2.247549 1_554
O40 S15 1.489098 1_555
O40 Y12 2.236354 1_554
O41 S16 1.487905 1_555
O41 Y13 2.235150 1_554
O42 S9 1.481699 1_555
O42 Y14 2.458588 1_555
O43 S10 1.489366 1_555
O43 Y15 2.363451 1_555
O44 S11 1.478432 1_555
O44 Y14 2.250155 1_555
O45 S12 1.491909 1_555
O45 Y15 2.215464 1_555
O46 Si4 1.635841 1_555
O46 Y14 2.034441 1_555
O47 S8 1.486585 1_555
O47 Y15 2.240019 1_555
O48 S19 1.484523 1_555
O48 Y16 2.278160 1_556
O49 S20 1.482599 1_555
O49 Y17 2.289663 1_556
O50 Si5 1.649588 1_555
O50 Y16 2.054931 1_556
O51 Si6 1.650923 1_555
O51 Y17 2.054383 1_556
O52 S21 1.481640 1_555
O52 Y16 2.267744 1_556
O53 S22 1.478824 1_555
O53 Y17 2.269265 1_556
O54 S23 1.479668 1_555
O54 Y18 2.292714 1_555
O55 S24 1.470743 1_555
O55 Y19 2.455611 1_555
O56 S25 1.478910 1_555
O56 Y18 2.277005 1_555
O57 S26 1.473283 1_555
O57 Y19 2.305969 1_555
O58 Si7 1.642376 1_555
O58 Y18 2.078567 1_555
O59 Si8 1.639829 1_555
O59 Y19 2.086643 1_555
O60 Si7 1.645139 1_555
O60 Y20 2.110881 1_555
O61 Si8 1.634396 1_555
O61 Y21 2.045305 1_555
O62 S23 1.489021 1_555
O62 Y20 2.234194 1_555
O63 S24 1.486248 1_555
O63 Y21 2.317031 1_555
O64 S25 1.476811 1_555
O64 Y20 2.321795 1_555
O65 S26 1.471445 1_555
O65 Y21 2.394430 1_555
O66 Si5 1.620648 1_555
O66 Y22 2.080145 1_555
O67 Si6 1.631936 1_555
O67 Y23 2.111688 1_555
O68 S21 1.470181 1_555
O68 Y22 2.433531 1_555
O69 S22 1.472462 1_555
O69 Y23 2.375247 1_555
O70 S19 1.481527 1_555
O70 Y22 2.350055 1_555
O71 S20 1.483588 1_555
O71 Y23 2.309863 1_555
O72 Si7 1.661149 1_555
O72 Y0 2.154934 1_555
O73 Si8 1.660659 1_555
O73 Y1 2.126783 1_555
O74 S23 1.472416 1_555
O74 Y1 2.427546 1_555
O75 S24 1.480826 1_555
O75 Y0 2.376200 1_655
O76 S25 1.499432 1_555
O76 Y0 2.320440 1_545
O77 S26 1.492714 1_555
O77 Y1 2.352607 1_545
O78 Si5 1.657046 1_555
O78 Y2 2.187745 1_555
O79 Si6 1.656668 1_555
O79 Y3 2.186513 1_555
O80 S21 1.492348 1_555
O80 Y2 2.405339 1_565
O81 S22 1.488921 1_555
O81 Y3 2.388029 1_565
O82 S19 1.472484 1_555
O82 Y3 2.445160 1_565
O83 S20 1.471568 1_555
O83 Y2 2.484153 1_665
O84 Si4 1.646356 1_555
O84 Y5 2.096846 1_555
O85 S8 1.489083 1_555
O85 Y4 2.319511 1_655
O86 S9 1.493980 1_555
O86 Y4 2.323571 1_555
O87 S10 1.483050 1_555
O87 Y5 2.339867 1_555
O88 S11 1.478710 1_555
O88 Y5 2.398896 1_565
O89 S12 1.483516 1_555
O89 Y4 2.421523 1_665
O90 S13 1.487731 1_555
O90 Y7 2.319046 1_555
O91 S14 1.489460 1_555
O91 Y6 2.306923 1_665
O92 S15 1.482206 1_555
O92 Y7 2.441582 1_545
O93 S16 1.482019 1_555
O93 Y6 2.401937 1_655
O94 S17 1.493881 1_555
O94 Y6 2.311943 1_555
O95 S18 1.487819 1_555
O95 Y7 2.353781 1_545
O96 S6 1.493501 1_555
O96 Y8 2.391701 1_555
O97 S7 1.488762 1_555
O97 Y9 2.309811 1_555
O98 Si2 1.637325 1_555
O98 Y8 2.181574 1_555
O99 Si3 1.640154 1_555
O99 Y9 2.097884 1_555
O100 S5 1.494792 1_555
O100 Y8 2.392563 1_555
O101 S4 1.488733 1_555
O101 Y9 2.310687 1_555
O102 S0 1.487922 1_555
O102 Y10 2.280280 1_555
O103 S1 1.504146 1_555
O103 Y11 2.326319 1_555
O104 S3 1.490637 1_555
O104 Y10 2.276135 1_555
O105 S2 1.499867 1_655
O105 Y11 2.342614 1_555
O106 Si0 1.631850 1_545
O106 Y10 2.085597 1_555
O107 Si1 1.658717 1_545
O107 Y11 2.054741 1_555
O108 S19 1.505497 1_555
O108 Y12 2.328161 1_555
O109 S20 1.505312 1_555
O109 Y13 2.324141 1_555
O110 Si6 1.637088 1_555
O110 Y12 2.070007 1_555
O111 Si5 1.641059 1_655
O111 Y13 2.068260 1_555
O112 S21 1.504706 1_545
O112 Y12 2.319277 1_555
O113 S22 1.502092 1_545
O113 Y13 2.319455 1_555
O114 S23 1.496186 1_545
O114 Y14 2.385373 1_555
O115 S24 1.511587 1_545
O115 Y15 2.344630 1_555
O116 S25 1.486156 1_555
O116 Y14 2.494239 1_555
O117 S26 1.509599 1_555
O117 Y15 2.335962 1_555
O118 Si8 1.634256 1_555
O118 Y14 2.125910 1_555
O119 Si7 1.637010 1_655
O119 Y15 2.102069 1_555
O120 S17 1.490475 1_555
O120 Y16 2.325972 1_555
O121 S18 1.487779 1_555
O121 Y17 2.305751 1_555
O122 S14 1.489447 1_455
O122 Y16 2.324112 1_555
O123 S13 1.493045 1_555
O123 Y17 2.305223 1_555
O124 S15 1.485252 1_565
O124 Y16 2.404978 1_555
O125 S16 1.479831 1_565
O125 Y17 2.400037 1_555
O126 S9 1.492055 1_565
O126 Y18 2.283242 1_555
O127 S10 1.480839 1_565
O127 Y19 2.325956 1_555
O128 S11 1.489905 1_555
O128 Y18 2.346862 1_555
O129 S12 1.475089 1_555
O129 Y19 2.439234 1_555
O130 S8 1.492132 1_455
O130 Y18 2.310044 1_555
O131 Si4 1.650793 1_555
O131 Y19 2.105532 1_555
O132 Si0 1.658047 1_555
O132 Y20 2.179305 1_555
O133 Si1 1.639439 1_555
O133 Y21 2.144964 1_555
O134 S0 1.481522 1_555
O134 Y20 2.386901 1_555
O135 S1 1.469076 1_555
O135 Y21 2.475269 1_555
O136 S2 1.490027 1_555
O136 Y20 2.364901 1_555
O137 S3 1.484482 1_555
O137 Y21 2.330255 1_555
O138 Si2 1.649781 1_555
O138 Y22 2.108585 1_555
O139 Si3 1.657529 1_555
O139 Y23 2.126889 1_555
O140 S4 1.486089 1_455
O140 Y22 2.297373 1_555
O141 S5 1.499095 1_555
O141 Y23 2.304897 1_555
O142 S6 1.473212 1_565
O142 Y22 2.395196 1_555
O143 S7 1.478060 1_565
O143 Y23 2.365878 1_555
