# generated using pymatgen
data_Na6Zr3ZnSi2(PO6)4
_symmetry_space_group_name_H-M   'P 1'
_cell_length_a   9.15227687
_cell_length_b   9.15376502
_cell_length_c   22.59834178
_cell_angle_alpha   89.83962681
_cell_angle_beta   89.99691979
_cell_angle_gamma   119.84992509
_symmetry_Int_Tables_number   1
_chemical_formula_structural   Na6Zr3ZnSi2(PO6)4
_chemical_formula_sum   'Na18 Zr9 Zn3 Si6 P12 O72'
_cell_volume   1642.05835716
_cell_formula_units_Z   3
loop_
 _symmetry_equiv_pos_site_id
 _symmetry_equiv_pos_as_xyz
  1  'x, y, z'
loop_
 _atom_site_type_symbol
 _atom_site_label
 _atom_site_symmetry_multiplicity
 _atom_site_fract_x
 _atom_site_fract_y
 _atom_site_fract_z
 _atom_site_occupancy
  Na  Na0  1  0.00178101  0.99361532  0.49568804  1
  Na  Na1  1  0.99884583  0.99608120  0.99760167  1
  Na  Na2  1  0.64543969  0.29756239  0.82667684  1
  Na  Na3  1  0.64831482  0.33128554  0.31954185  1
  Na  Na4  1  0.32665821  0.66537083  0.16303211  1
  Na  Na5  1  0.32165520  0.66325831  0.66516845  1
  Na  Na6  1  0.64402994  0.01784925  0.24189394  1
  Na  Na7  1  0.98164364  0.61632541  0.23867340  1
  Na  Na8  1  0.63308871  0.61430249  0.73976578  1
  Na  Na9  1  0.98573799  0.36758767  0.74275455  1
  Na  Na10  1  0.66710414  0.97364769  0.58832777  1
  Na  Na11  1  0.66520338  0.68451978  0.07939353  1
  Na  Na12  1  0.02365942  0.33954521  0.08677011  1
  Na  Na13  1  0.96984219  0.66722023  0.91814931  1
  Na  Na14  1  0.33599919  0.30678460  0.91674165  1
  Na  Na15  1  0.96373089  0.27963037  0.40681572  1
  Na  Na16  1  0.32425798  0.03121796  0.40771851  1
  Na  Na17  1  0.71938717  0.68961947  0.41263053  1
  Zr  Zr0  1  0.99510024  0.00139455  0.85363607  1
  Zr  Zr1  1  0.00658082  0.99573738  0.64461506  1
  Zr  Zr2  1  0.00963897  0.00198619  0.14963051  1
  Zr  Zr3  1  0.66781092  0.33072701  0.98056158  1
  Zr  Zr4  1  0.66887717  0.33826630  0.48382789  1
  Zr  Zr5  1  0.33244814  0.67506843  0.01780744  1
  Zr  Zr6  1  0.33840463  0.66483594  0.52172809  1
  Zr  Zr7  1  0.33777518  0.66699890  0.31277197  1
  Zr  Zr8  1  0.33748615  0.67542809  0.81413380  1
  Zn  Zn0  1  0.99584780  0.99946407  0.34596683  1
  Zn  Zn1  1  0.65401877  0.33158681  0.67802566  1
  Zn  Zn2  1  0.66305856  0.33386024  0.17725070  1
  Si  Si0  1  0.66821539  0.63112310  0.58752729  1
  Si  Si1  1  0.96290699  0.62751783  0.08739355  1
  Si  Si2  1  0.62769822  0.66691856  0.91765925  1
  Si  Si3  1  0.04055163  0.37440255  0.91662396  1
  Si  Si4  1  0.33513580  0.96558278  0.91500345  1
  Si  Si5  1  0.63280279  0.96612587  0.41626688  1
  P  P0  1  0.29652277  0.00171242  0.25631529  1
  P  P1  1  0.70575411  0.70311463  0.25257911  1
  P  P2  1  0.99879320  0.29690309  0.25333851  1
  P  P3  1  0.29549062  0.29466348  0.75083386  1
  P  P4  1  0.00082005  0.70246451  0.75128957  1
  P  P5  1  0.70461499  0.00072968  0.74559989  1
  P  P6  1  0.96205037  0.33472258  0.58759258  1
  P  P7  1  0.37666755  0.04100229  0.58290222  1
  P  P8  1  0.66641897  0.03697310  0.08992081  1
  P  P9  1  0.37269292  0.33552306  0.08434264  1
  P  P10  1  0.33579287  0.37281412  0.41725551  1
  P  P11  1  0.04097511  0.66387802  0.41608561  1
  O  O0  1  0.21600656  0.01236860  0.31418258  1
  O  O1  1  0.80270247  0.78224221  0.31004982  1
  O  O2  1  0.98946932  0.19990703  0.31002002  1
  O  O3  1  0.20483781  0.20188179  0.80893453  1
  O  O4  1  0.99818344  0.79865429  0.80773089  1
  O  O5  1  0.81686472  0.01023011  0.79942137  1
  O  O6  1  0.79474368  0.98518289  0.68919626  1
  O  O7  1  0.18083918  0.19382110  0.69807954  1
  O  O8  1  0.00717191  0.81061689  0.69680450  1
  O  O9  1  0.80107584  0.82117990  0.19858070  1
  O  O10  1  0.01063713  0.20382511  0.19735922  1
  O  O11  1  0.17883768  0.98537313  0.20348814  1
  O  O12  1  0.88306647  0.35326395  0.64448508  1
  O  O13  1  0.49554680  0.11844775  0.63516794  1
  O  O14  1  0.64771892  0.52751287  0.64703377  1
  O  O15  1  0.88204320  0.51296728  0.14582702  1
  O  O16  1  0.64426827  0.10859383  0.14797244  1
  O  O17  1  0.48318003  0.35805158  0.13741792  1
  O  O18  1  0.44733718  0.31350792  0.02578036  1
  O  O19  1  0.84214027  0.53517820  0.02944485  1
  O  O20  1  0.68274300  0.15257895  0.03712633  1
  O  O21  1  0.45826069  0.14179355  0.52462318  1
  O  O22  1  0.68053534  0.53473308  0.52726450  1
  O  O23  1  0.84515964  0.31073023  0.53287122  1
  O  O24  1  0.54144280  0.68967136  0.97736695  1
  O  O25  1  0.15843949  0.46459227  0.97472734  1
  O  O26  1  0.30074446  0.84252116  0.97193114  1
  O  O27  1  0.53264867  0.84718777  0.47370845  1
  O  O28  1  0.31713668  0.46362854  0.47182685  1
  O  O29  1  0.15267542  0.67680569  0.46885757  1
  O  O30  1  0.12190448  0.63844220  0.35888953  1
  O  O31  1  0.50984558  0.86942930  0.35827943  1
  O  O32  1  0.35441214  0.48361702  0.36188510  1
  O  O33  1  0.13195088  0.49351961  0.85852955  1
  O  O34  1  0.35998030  0.87488211  0.85685310  1
  O  O35  1  0.51028070  0.64123279  0.85933861  1
  O  O36  1  0.02295183  0.82152183  0.41444852  1
  O  O37  1  0.81818858  0.98313672  0.41284617  1
  O  O38  1  0.18315819  0.19615433  0.41431292  1
  O  O39  1  0.02577432  0.18969598  0.91188412  1
  O  O40  1  0.16437774  0.98128579  0.91084882  1
  O  O41  1  0.81959352  0.82621543  0.91186234  1
  O  O42  1  0.97684000  0.17160539  0.58723347  1
  O  O43  1  0.20225590  0.02802154  0.58775447  1
  O  O44  1  0.83479774  0.82474922  0.58571045  1
  O  O45  1  0.97557115  0.81475399  0.09144339  1
  O  O46  1  0.83549098  0.02965525  0.08998395  1
  O  O47  1  0.18849345  0.18258948  0.09023295  1
  O  O48  1  0.69008117  0.15938804  0.74577862  1
  O  O49  1  0.47259927  0.31740043  0.74927455  1
  O  O50  1  0.84217933  0.52794686  0.75176841  1
  O  O51  1  0.68270522  0.52688571  0.24562802  1
  O  O52  1  0.84049928  0.31598097  0.25103610  1
  O  O53  1  0.47695701  0.14665883  0.24867964  1
  O  O54  1  0.64299974  0.49606602  0.92241596  1
  O  O55  1  0.85689605  0.35995185  0.92357922  1
  O  O56  1  0.49520815  0.15357119  0.92201323  1
  O  O57  1  0.64674354  0.15255402  0.41999780  1
  O  O58  1  0.50289352  0.36633771  0.41991112  1
  O  O59  1  0.86355181  0.50254165  0.42137201  1
  O  O60  1  0.35248406  0.49539514  0.08117081  1
  O  O61  1  0.15059637  0.64766639  0.08065297  1
  O  O62  1  0.52119532  0.85327965  0.08218013  1
  O  O63  1  0.34784056  0.85929938  0.57583786  1
  O  O64  1  0.50590846  0.66493770  0.58232547  1
  O  O65  1  0.13809591  0.48928365  0.57805256  1
  O  O66  1  0.29897088  0.82886685  0.25336772  1
  O  O67  1  0.53113809  0.69937305  0.25272614  1
  O  O68  1  0.15802987  0.47883535  0.25252427  1
  O  O69  1  0.30481323  0.47123872  0.74963298  1
  O  O70  1  0.15999803  0.68236942  0.74893838  1
  O  O71  1  0.53402549  0.83239914  0.74902330  1
loop_
_geom_bond_atom_site_label_1
_geom_bond_atom_site_label_2
_geom_bond_distance
_geom_bond_site_symmetry_2
Na0 O37 2.485597 1_455
Na0 O36 2.491901 1_555
Na0 O38 2.547853 1_565
Na0 O44 2.548343 1_455
Na0 O43 2.687603 1_565
Na0 O42 2.715792 1_465
Na1 O41 2.518179 1_555
Na1 O40 2.522382 1_655
Na1 O39 2.549505 1_665
Na1 O45 2.631713 1_556
Na1 O46 2.673717 1_566
Na1 O47 2.716600 1_666
Na2 O48 2.374061 1_555
Na2 O49 2.424743 1_555
Na2 O56 2.539520 1_555
Na2 O50 2.599008 1_555
Na2 O55 2.788218 1_555
Na2 O54 2.836461 1_555
Na3 O53 2.292847 1_555
Na3 O51 2.348848 1_555
Na3 O52 2.399235 1_555
Na3 O58 2.729072 1_555
Na3 O57 2.790382 1_555
Na3 O59 2.929184 1_555
Na4 O61 2.414642 1_555
Na4 O60 2.506222 1_555
Na4 O62 2.529920 1_555
Na4 O68 2.597016 1_555
Na4 O66 2.620317 1_555
Na4 O67 2.670542 1_555
Na5 O70 2.462215 1_555
Na5 O64 2.514453 1_555
Na5 O69 2.543249 1_555
Na5 O65 2.566866 1_555
Na5 O71 2.605209 1_555
Na5 O63 2.627644 1_555
Na6 O16 2.276664 1_555
Na6 O53 2.355348 1_555
Na6 O52 2.416999 1_555
Na6 O67 2.573663 1_545
Na6 O66 2.755409 1_545
Na6 O31 2.930916 1_545
Na6 O9 2.974973 1_545
Na7 O15 2.298089 1_555
Na7 O52 2.401170 1_555
Na7 O51 2.439250 1_555
Na7 O68 2.511644 1_655
Na7 O66 2.590209 1_655
Na8 O14 2.270630 1_555
Na8 O49 2.369135 1_555
Na8 O50 2.421817 1_555
Na8 O71 2.579839 1_555
Na8 O69 2.621663 1_555
Na8 O35 2.984109 1_555
Na9 O12 2.389774 1_555
Na9 O48 2.413406 1_555
Na9 O50 2.417443 1_555
Na9 O70 2.508675 1_655
Na9 O69 2.587478 1_655
Na9 O33 2.906266 1_655
Na10 O64 2.456113 1_555
Na10 O42 2.491276 1_565
Na10 O44 2.509896 1_555
Na10 O6 2.539805 1_555
Na10 O63 2.582718 1_555
Na10 O13 2.724342 1_565
Na10 O27 2.857024 1_555
Na10 O23 2.952906 1_565
Na11 O62 2.480885 1_555
Na11 O45 2.488999 1_555
Na11 O60 2.501497 1_555
Na11 O24 2.579533 1_554
Na11 O46 2.751396 1_565
Na11 O19 2.824429 1_555
Na11 O17 2.906419 1_555
Na11 O9 2.972631 1_555
Na12 O61 2.461668 1_555
Na12 O46 2.480642 1_455
Na12 O47 2.550145 1_555
Na12 O60 2.614067 1_555
Na12 O10 2.763781 1_555
Na12 O25 2.796544 1_554
Na12 O15 2.835655 1_455
Na12 O20 2.935715 1_455
Na13 O41 2.453664 1_555
Na13 O55 2.469506 1_555
Na13 O40 2.522723 1_655
Na13 O54 2.597284 1_555
Na13 O4 2.722798 1_555
Na13 O19 2.780115 1_556
Na13 O26 2.897862 1_655
Na13 O33 2.984084 1_655
Na14 O54 2.463391 1_555
Na14 O56 2.477447 1_555
Na14 O39 2.488696 1_555
Na14 O40 2.589599 1_545
Na14 O18 2.655671 1_556
Na14 O3 2.676642 1_555
Na14 O35 2.952291 1_555
Na14 O25 2.965103 1_555
Na15 O2 2.356455 1_555
Na15 O37 2.357541 1_545
Na15 O38 2.484469 1_655
Na15 O57 2.548947 1_555
Na15 O59 2.641681 1_555
Na16 O0 2.304651 1_555
Na16 O38 2.431347 1_555
Na16 O36 2.457896 1_545
Na16 O57 2.600073 1_555
Na16 O58 2.677939 1_555
Na16 O21 2.878820 1_555
Na16 O31 2.973169 1_545
Na17 O37 2.370251 1_555
Na17 O36 2.416503 1_655
Na17 O1 2.453439 1_555
Na17 O58 2.621177 1_555
Na17 O59 2.638150 1_555
Na17 O22 2.885299 1_555
O0 P0 1.528006 1_555
O0 Zn0 2.086226 1_445
O1 P1 1.537624 1_555
O1 Zn0 2.060965 1_555
O2 P2 1.534450 1_555
O2 Zn0 2.031774 1_545
O3 P3 1.557494 1_555
O3 Zr0 2.134437 1_455
O4 P4 1.558892 1_655
O4 Zr0 2.141026 1_565
O5 P5 1.566560 1_555
O5 Zr0 2.073541 1_555
O6 P5 1.563049 1_565
O6 Zr1 2.143831 1_655
O7 P3 1.554506 1_555
O7 Zr1 2.103537 1_545
O8 P4 1.560574 1_555
O8 Zr1 2.064083 1_555
O9 P1 1.572293 1_555
O9 Zr2 2.109775 1_665
O10 P2 1.560756 1_455
O10 Zr2 2.138076 1_555
O11 P0 1.564747 1_565
O11 Zr2 2.033728 1_565
O12 P6 1.525642 1_555
O12 Zn1 2.143198 1_555
O13 P7 1.522629 1_555
O13 Zn1 2.010464 1_555
O14 Si0 1.599616 1_555
O14 Zn1 1.950961 1_555
O15 Si1 1.615729 1_555
O15 Zn2 1.982786 1_555
O16 P8 1.526108 1_555
O16 Zn2 2.091406 1_555
O17 P9 1.515781 1_555
O17 Zn2 1.982816 1_555
O18 P9 1.548284 1_555
O18 Zr3 2.196132 1_554
O19 Si1 1.651476 1_555
O19 Zr3 2.075525 1_554
O20 P8 1.549551 1_555
O20 Zr3 2.126526 1_554
O21 P7 1.565451 1_555
O21 Zr4 2.083175 1_555
O22 Si0 1.658787 1_555
O22 Zr4 2.007006 1_555
O23 P6 1.577886 1_555
O23 Zr4 2.073240 1_555
O24 Si2 1.628592 1_555
O24 Zr5 2.063100 1_556
O25 Si3 1.639903 1_555
O25 Zr5 2.037723 1_556
O26 Si4 1.631538 1_555
O26 Zr5 1.985555 1_556
O27 Si5 1.645935 1_555
O27 Zr6 2.039600 1_555
O28 P10 1.545332 1_555
O28 Zr6 2.087242 1_555
O29 P11 1.536820 1_555
O29 Zr6 2.124590 1_555
O30 P11 1.564205 1_555
O30 Zr7 2.131206 1_555
O31 Si5 1.667978 1_555
O31 Zr7 2.019215 1_555
O32 P10 1.563422 1_555
O32 Zr7 2.077703 1_555
O33 Si3 1.641981 1_555
O33 Zr8 2.046997 1_555
O34 Si4 1.631530 1_555
O34 Zr8 1.985814 1_555
O35 Si2 1.642402 1_555
O35 Zr8 2.033159 1_555
O36 P11 1.532182 1_555
O36 Zn0 2.344737 1_455
O37 Si5 1.626634 1_555
O37 Zn0 2.169549 1_555
O38 P10 1.524065 1_555
O38 Zn0 2.347199 1_445
O39 Si3 1.631509 1_555
O39 Zr0 2.076909 1_455
O40 Si4 1.641786 1_555
O40 Zr0 2.094880 1_465
O41 Si2 1.636310 1_555
O41 Zr0 2.075282 1_565
O42 P6 1.564961 1_555
O42 Zr1 2.184442 1_645
O43 P7 1.544441 1_555
O43 Zr1 2.101536 1_545
O44 Si0 1.666485 1_555
O44 Zr1 2.062973 1_655
O45 Si1 1.662061 1_555
O45 Zr2 2.060182 1_665
O46 P8 1.581803 1_555
O46 Zr2 2.195803 1_655
O47 P9 1.571358 1_555
O47 Zr2 2.123156 1_555
O48 P5 1.522921 1_555
O48 Zn1 2.332867 1_555
O49 P3 1.528446 1_555
O49 Zn1 2.269393 1_555
O50 P4 1.533355 1_655
O50 Zn1 2.430898 1_555
O51 P1 1.527785 1_555
O51 Zn2 2.289331 1_555
O52 P2 1.543985 1_555
O52 Zn2 2.389095 1_555
O53 P0 1.528014 1_555
O53 Zn2 2.349858 1_555
O54 Si2 1.641394 1_555
O54 Zr3 2.097562 1_555
O55 Si3 1.626665 1_655
O55 Zr3 2.064357 1_555
O56 Si4 1.620041 1_545
O56 Zr3 2.082770 1_555
O57 Si5 1.649138 1_545
O57 Zr4 2.163920 1_555
O58 P10 1.560857 1_555
O58 Zr4 2.201556 1_555
O59 P11 1.563292 1_655
O59 Zr4 2.179121 1_555
O60 P9 1.565195 1_555
O60 Zr5 2.253009 1_555
O61 Si1 1.640865 1_455
O61 Zr5 2.105269 1_555
O62 P8 1.549672 1_565
O62 Zr5 2.229309 1_555
O63 P7 1.557628 1_565
O63 Zr6 2.128497 1_555
O64 Si0 1.665473 1_555
O64 Zr6 2.055307 1_555
O65 P6 1.540530 1_455
O65 Zr6 2.149193 1_555
O66 P0 1.595035 1_565
O66 Zr7 2.153243 1_555
O67 P1 1.581369 1_555
O67 Zr7 2.129882 1_555
O68 P2 1.575281 1_455
O68 Zr7 2.172414 1_555
O69 P3 1.575755 1_555
O69 Zr8 2.272995 1_555
O70 P4 1.557515 1_555
O70 Zr8 2.217182 1_555
O71 P5 1.556393 1_565
O71 Zr8 2.209119 1_555
