# generated using pymatgen
data_P2Se5
_symmetry_space_group_name_H-M   'P 1'
_cell_length_a   5.97100400
_cell_length_b   7.08158172
_cell_length_c   21.14072350
_cell_angle_alpha   90.00000000
_cell_angle_beta   90.00000000
_cell_angle_gamma   114.20506658
_symmetry_Int_Tables_number   1
_chemical_formula_structural   P2Se5
_chemical_formula_sum   'P8 Se20'
_cell_volume   815.32780205
_cell_formula_units_Z   4
loop_
 _symmetry_equiv_pos_site_id
 _symmetry_equiv_pos_as_xyz
  1  'x, y, z'
loop_
 _atom_site_type_symbol
 _atom_site_label
 _atom_site_symmetry_multiplicity
 _atom_site_fract_x
 _atom_site_fract_y
 _atom_site_fract_z
 _atom_site_occupancy
  P  P0  1  0.31132885  0.27707980  0.33444557  1
  P  P1  1  0.18867115  0.72292020  0.83444557  1
  P  P2  1  0.68867115  0.72292020  0.66555443  1
  P  P3  1  0.81132885  0.27707980  0.16555443  1
  P  P4  1  0.70106618  0.28219118  0.45008165  1
  P  P5  1  0.79893382  0.71780882  0.95008165  1
  P  P6  1  0.29893382  0.71780882  0.54991835  1
  P  P7  1  0.20106618  0.28219118  0.04991835  1
  Se  Se0  1  0.65464553  0.55751570  0.31014245  1
  Se  Se1  1  0.84535447  0.44248430  0.81014245  1
  Se  Se2  1  0.34535447  0.44248430  0.68985755  1
  Se  Se3  1  0.15464553  0.55751570  0.18985755  1
  Se  Se4  1  0.92978211  0.56654625  0.39482171  1
  Se  Se5  1  0.57021789  0.43345375  0.89482171  1
  Se  Se6  1  0.07021789  0.43345375  0.60517829  1
  Se  Se7  1  0.42978211  0.56654625  0.10517829  1
  Se  Se8  1  0.66234659  0.00008450  0.39481618  1
  Se  Se9  1  0.83765341  -0.00008450  0.89481618  1
  Se  Se10  1  0.33765341  -0.00008450  0.60518382  1
  Se  Se11  1  0.16234659  0.00008450  0.10518382  1
  Se  Se12  1  0.38745286  -0.00016943  0.31084545  1
  Se  Se13  1  0.11254714  0.00016943  0.81084545  1
  Se  Se14  1  0.61254714  0.00016943  0.68915455  1
  Se  Se15  1  0.88745286  -0.00016943  0.18915455  1
  Se  Se16  1  0.32109575  0.27551964  0.44142112  1
  Se  Se17  1  0.17890425  0.72448036  0.94142112  1
  Se  Se18  1  0.67890425  0.72448036  0.55857888  1
  Se  Se19  1  0.82109575  0.27551964  0.05857888  1
loop_
_geom_bond_atom_site_label_1
_geom_bond_atom_site_label_2
_geom_bond_distance
_geom_bond_site_symmetry_2
P0 Se12 2.245465 1_555
P0 Se0 2.252083 1_555
P0 Se16 2.262436 1_555
P1 Se13 2.245465 1_565
P1 Se1 2.252083 1_455
P1 Se17 2.262436 1_555
P2 Se14 2.245465 1_565
P2 Se2 2.252083 1_555
P2 Se18 2.262436 1_555
P3 Se15 2.245465 1_555
P3 Se3 2.252083 1_655
P3 Se19 2.262436 1_555
P4 Se4 2.242699 1_555
P4 Se8 2.242947 1_555
P4 Se16 2.257285 1_555
P5 Se5 2.242699 1_555
P5 Se9 2.242947 1_565
P5 Se17 2.257285 1_655
P6 Se6 2.242699 1_555
P6 Se10 2.242947 1_565
P6 Se18 2.257285 1_555
P7 Se7 2.242699 1_555
P7 Se11 2.242947 1_555
P7 Se19 2.257285 1_455
Se0 Se4 2.412802 1_555
Se1 Se5 2.412802 1_555
Se2 Se6 2.412802 1_555
Se3 Se7 2.412802 1_555
Se10 Se14 2.417249 1_555
Se11 Se15 2.417249 1_455
Se12 Se8 2.417249 1_555
Se13 Se9 2.417249 1_455
