# generated using pymatgen
data_BaPbO3
_symmetry_space_group_name_H-M   'P 1'
_cell_length_a   6.15036645
_cell_length_b   6.15036645
_cell_length_c   6.13110795
_cell_angle_alpha   60.23374128
_cell_angle_beta   60.23374128
_cell_angle_gamma   89.75035477
_symmetry_Int_Tables_number   1
_chemical_formula_structural   BaPbO3
_chemical_formula_sum   'Ba2 Pb2 O6'
_cell_volume   165.49154870
_cell_formula_units_Z   2
loop_
 _symmetry_equiv_pos_site_id
 _symmetry_equiv_pos_as_xyz
  1  'x, y, z'
loop_
 _atom_site_type_symbol
 _atom_site_label
 _atom_site_symmetry_multiplicity
 _atom_site_fract_x
 _atom_site_fract_y
 _atom_site_fract_z
 _atom_site_occupancy
  Ba  Ba0  1  0.25649400  0.25649400  0.99458300  1
  Ba  Ba1  1  0.74350600  0.74350600  0.00541700  1
  Pb  Pb0  1  0.50000000  0.00000000  0.50000000  1
  Pb  Pb1  1  0.00000000  0.50000000  0.50000000  1
  O  O0  1  0.81957000  0.81957000  0.43897000  1
  O  O1  1  0.18043000  0.18043000  0.56103000  1
  O  O2  1  0.28757000  0.71243000  0.00000000  1
  O  O3  1  0.71243000  0.28757000  0.00000000  1
  O  O4  1  0.29312700  0.70687300  0.50000000  1
  O  O5  1  0.70687300  0.29312700  0.50000000  1
loop_
_geom_bond_atom_site_label_1
_geom_bond_atom_site_label_2
_geom_bond_distance
_geom_bond_site_symmetry_2
Ba0 O0 2.718306 1_446
Ba0 O4 2.811699 1_555
Ba0 O5 2.811699 1_555
Ba0 O3 2.829217 1_556
Ba0 O2 2.829217 1_556
Ba0 O1 3.045412 1_556
Ba0 O1 3.158311 1_555
Ba0 O3 3.335419 1_456
Ba0 O2 3.335419 1_546
Ba0 O4 3.371311 1_546
Ba0 O5 3.371311 1_456
Ba1 O1 2.718306 1_664
Ba1 O4 2.811699 1_555
Ba1 O5 2.811699 1_555
Ba1 O3 2.829217 1_555
Ba1 O2 2.829217 1_555
Ba1 O0 3.045412 1_554
Ba1 O0 3.158311 1_555
Ba1 O2 3.335419 1_655
Ba1 O3 3.335419 1_565
Ba1 O4 3.371311 1_654
Ba1 O5 3.371311 1_564
O0 Pb1 2.213052 1_655
O0 Pb0 2.213052 1_565
O1 Pb0 2.213052 1_555
O1 Pb1 2.213052 1_555
O2 Pb1 2.211893 1_555
O2 Pb0 2.211893 1_564
O3 Pb1 2.211893 1_654
O3 Pb0 2.211893 1_555
O4 Pb1 2.211126 1_555
O4 Pb0 2.211126 1_565
O5 Pb0 2.211126 1_555
O5 Pb1 2.211126 1_655
