# generated using pymatgen
data_Na10Ta4Ti4Si11SO48
_symmetry_space_group_name_H-M   'P 1'
_cell_length_a   17.85079135
_cell_length_b   8.93270710
_cell_length_c   22.51257703
_cell_angle_alpha   90.04506644
_cell_angle_beta   90.04168334
_cell_angle_gamma   120.00953217
_symmetry_Int_Tables_number   1
_chemical_formula_structural   Na10Ta4Ti4Si11SO48
_chemical_formula_sum   'Na30 Ta12 Ti12 Si33 S3 O144'
_cell_volume   3108.52375135
_cell_formula_units_Z   3
loop_
 _symmetry_equiv_pos_site_id
 _symmetry_equiv_pos_as_xyz
  1  'x, y, z'
loop_
 _atom_site_type_symbol
 _atom_site_label
 _atom_site_symmetry_multiplicity
 _atom_site_fract_x
 _atom_site_fract_y
 _atom_site_fract_z
 _atom_site_occupancy
  Na  Na0  1  0.31757270  0.00022453  0.24986202  1
  Na  Na1  1  0.81739885  0.99978150  0.25010857  1
  Na  Na2  1  0.81960191  0.63792282  0.74973235  1
  Na  Na3  1  0.49645425  0.36175595  0.74890722  1
  Na  Na4  1  0.01622913  0.70205498  0.58423225  1
  Na  Na5  1  0.33302421  0.96935642  0.58462851  1
  Na  Na6  1  0.83479159  0.96734783  0.58407457  1
  Na  Na7  1  0.33425089  0.69925541  0.08508991  1
  Na  Na8  1  0.83450082  0.69971345  0.08567012  1
  Na  Na9  1  0.01603050  0.33030524  0.08489884  1
  Na  Na10  1  0.51465573  0.32869445  0.08506570  1
  Na  Na11  1  0.98566830  0.66818420  0.91467931  1
  Na  Na12  1  0.34852239  0.03087573  0.91603335  1
  Na  Na13  1  0.85206261  0.03322868  0.91567723  1
  Na  Na14  1  0.48448523  0.30062674  0.41473594  1
  Na  Na15  1  0.98475568  0.30073574  0.41443656  1
  Na  Na16  1  0.35093259  0.67027987  0.41497315  1
  Na  Na17  1  0.85055053  0.67066705  0.41478897  1
  Na  Na18  1  0.00565092  0.00614454  0.49938657  1
  Na  Na19  1  0.50535359  0.00086527  0.49886549  1
  Na  Na20  1  0.00622846  0.00582356  0.00052433  1
  Na  Na21  1  0.50433554  0.99850670  0.00121217  1
  Na  Na22  1  0.33065483  0.33723101  0.83129333  1
  Na  Na23  1  0.83252386  0.32932736  0.83238910  1
  Na  Na24  1  0.33273958  0.33622030  0.33003149  1
  Na  Na25  1  0.83255300  0.33601695  0.32981999  1
  Na  Na26  1  0.16472902  0.66422059  0.16969226  1
  Na  Na27  1  0.66443236  0.66387552  0.17034228  1
  Na  Na28  1  0.16717861  0.66397088  0.67116471  1
  Na  Na29  1  0.66414694  0.66733569  0.66536377  1
  Ta  Ta0  1  0.49962861  0.99712943  0.85343894  1
  Ta  Ta1  1  0.49977200  0.99723149  0.64639990  1
  Ta  Ta2  1  0.83537638  0.33134023  0.68831778  1
  Ta  Ta3  1  0.33240192  0.33879219  0.97946853  1
  Ta  Ta4  1  0.83131871  0.33256585  0.98064006  1
  Ta  Ta5  1  0.33103324  0.33000289  0.48006813  1
  Ta  Ta6  1  0.83125967  0.32855731  0.47921186  1
  Ta  Ta7  1  0.16660782  0.66917849  0.01965952  1
  Ta  Ta8  1  0.66578874  0.66937862  0.02093564  1
  Ta  Ta9  1  0.16693374  0.66308791  0.51991392  1
  Ta  Ta10  1  0.66285942  0.66229423  0.51990648  1
  Ta  Ta11  1  0.66612283  0.67218996  0.81212740  1
  Ti  Ti0  1  0.99402579  0.99466907  0.35280701  1
  Ti  Ti1  1  0.49417977  0.99496448  0.35272858  1
  Ti  Ti2  1  0.99820140  0.99841364  0.85357484  1
  Ti  Ti3  1  0.99958336  0.99225067  0.64694368  1
  Ti  Ti4  1  0.99713250  0.00532634  0.14724341  1
  Ti  Ti5  1  0.49593601  0.00449020  0.14717293  1
  Ti  Ti6  1  0.33535486  0.33323120  0.68442981  1
  Ti  Ti7  1  0.33967686  0.34919463  0.18506344  1
  Ti  Ti8  1  0.83972349  0.34968400  0.18550534  1
  Ti  Ti9  1  0.16507446  0.65063363  0.31460504  1
  Ti  Ti10  1  0.66475857  0.65042102  0.31476494  1
  Ti  Ti11  1  0.16838989  0.67827469  0.81485220  1
  Si  Si0  1  0.35432634  0.70613746  0.24969669  1
  Si  Si1  1  0.85438573  0.70682514  0.24957536  1
  Si  Si2  1  0.00113334  0.29336367  0.25034189  1
  Si  Si3  1  0.50107286  0.29333287  0.25031880  1
  Si  Si4  1  0.64502909  0.28659628  0.75006876  1
  Si  Si5  1  0.00478860  0.71470727  0.75096875  1
  Si  Si6  1  0.49618817  0.70597388  0.74936742  1
  Si  Si7  1  0.35012276  0.99533045  0.74991456  1
  Si  Si8  1  0.85882027  0.00365344  0.74991523  1
  Si  Si9  1  0.47872056  0.33587862  0.58429952  1
  Si  Si10  1  0.98021955  0.33005511  0.58394090  1
  Si  Si11  1  0.18747261  0.04829420  0.58569893  1
  Si  Si12  1  0.68654370  0.04338390  0.58383453  1
  Si  Si13  1  0.33325399  0.61778188  0.58495422  1
  Si  Si14  1  0.83177194  0.62118833  0.58408853  1
  Si  Si15  1  0.47924285  0.62967185  0.08459424  1
  Si  Si16  1  0.97992356  0.63000273  0.08443208  1
  Si  Si17  1  0.33135916  0.04719094  0.08539151  1
  Si  Si18  1  0.83177518  0.04631020  0.08619565  1
  Si  Si19  1  0.18743969  0.32556218  0.08564259  1
  Si  Si20  1  0.68696199  0.32532928  0.08602866  1
  Si  Si21  1  0.30904691  0.66272227  0.91438277  1
  Si  Si22  1  0.81084757  0.66442706  0.91590072  1
  Si  Si23  1  0.02505242  0.37636746  0.91427466  1
  Si  Si24  1  0.52209945  0.37733097  0.91657505  1
  Si  Si25  1  0.16550355  0.95955248  0.91511419  1
  Si  Si26  1  0.66456307  0.95739787  0.91688909  1
  Si  Si27  1  0.30857211  0.95443315  0.41386686  1
  Si  Si28  1  0.80795378  0.95203832  0.41442053  1
  Si  Si29  1  0.16472184  0.36952321  0.41512151  1
  Si  Si30  1  0.66451369  0.37038914  0.41547746  1
  Si  Si31  1  0.02502050  0.67471939  0.41476123  1
  Si  Si32  1  0.52423200  0.67431423  0.41411728  1
  S  S0  1  0.14299514  -0.00000202  0.25005143  1
  S  S1  1  0.64297275  0.00001876  0.24995788  1
  S  S2  1  0.14379751  0.28750260  0.74994270  1
  O  O0  1  0.10289486  0.02741685  0.30363319  1
  O  O1  1  0.60316273  0.02766564  0.30361816  1
  O  O2  1  0.41594494  0.80226383  0.30855162  1
  O  O3  1  0.91597780  0.80207697  0.30853913  1
  O  O4  1  0.48454379  0.16469122  0.30793743  1
  O  O5  1  0.98441612  0.16473289  0.30793924  1
  O  O6  1  0.10258491  0.17703632  0.80347015  1
  O  O7  1  0.59886210  0.16688983  0.80784805  1
  O  O8  1  0.48493607  0.80285585  0.80735755  1
  O  O9  1  0.98318458  0.80352422  0.80790052  1
  O  O10  1  0.41637952  0.03499923  0.80738243  1
  O  O11  1  0.91602482  0.02953297  0.80955862  1
  O  O12  1  0.40009661  0.97079331  0.69182373  1
  O  O13  1  0.90092222  0.96598407  0.69143660  1
  O  O14  1  0.08853437  0.20417686  0.69631987  1
  O  O15  1  0.58157160  0.20047079  0.69294274  1
  O  O16  1  0.01419782  0.83224179  0.69154675  1
  O  O17  1  0.51623666  0.83447087  0.69264034  1
  O  O18  1  0.40194897  0.83517885  0.19217133  1
  O  O19  1  0.90212902  0.83528627  0.19199540  1
  O  O20  1  0.01475288  0.19763529  0.19149027  1
  O  O21  1  0.51494130  0.19786563  0.19147367  1
  O  O22  1  0.08913456  0.97238765  0.19639223  1
  O  O23  1  0.58931419  0.97256506  0.19633892  1
  O  O24  1  0.43369908  0.36517988  0.64255637  1
  O  O25  1  0.93300828  0.36984834  0.63946770  1
  O  O26  1  0.25372323  0.13666087  0.64086330  1
  O  O27  1  0.75219640  0.13557642  0.64013954  1
  O  O28  1  0.31778685  0.49461989  0.64154413  1
  O  O29  1  0.81766629  0.50163501  0.64226910  1
  O  O30  1  0.43437136  0.49613224  0.14022822  1
  O  O31  1  0.93346914  0.49536107  0.13958185  1
  O  O32  1  0.31734148  0.13541592  0.14377089  1
  O  O33  1  0.81702623  0.13531911  0.14370362  1
  O  O34  1  0.25440385  0.37074860  0.14071578  1
  O  O35  1  0.75453385  0.37117791  0.14053469  1
  O  O36  1  0.23457366  0.30212105  0.02627690  1
  O  O37  1  0.73481997  0.30295296  0.02619405  1
  O  O38  1  0.41625600  0.53353545  0.02704060  1
  O  O39  1  0.91761050  0.53639624  0.02537502  1
  O  O40  1  0.35134323  0.16692986  0.02542746  1
  O  O41  1  0.85054748  0.16581078  0.02568896  1
  O  O42  1  0.23449053  0.16657410  0.52635330  1
  O  O43  1  0.73501684  0.16707118  0.52608406  1
  O  O44  1  0.34863473  0.53355676  0.52442795  1
  O  O45  1  0.85131602  0.53512799  0.52568972  1
  O  O46  1  0.41707765  0.29899531  0.52538319  1
  O  O47  1  0.91769076  0.29875370  0.52555717  1
  O  O48  1  0.26780175  0.70155269  0.97467909  1
  O  O49  1  0.76763760  0.70149118  0.97426705  1
  O  O50  1  0.08138628  0.46529454  0.97554464  1
  O  O51  1  0.58268313  0.46771273  0.97514973  1
  O  O52  1  0.14857621  0.83103948  0.97294140  1
  O  O53  1  0.65194751  0.83382614  0.97401732  1
  O  O54  1  0.26762076  0.83420442  0.47417048  1
  O  O55  1  0.76786331  0.83349831  0.47466346  1
  O  O56  1  0.14926754  0.46664467  0.47287114  1
  O  O57  1  0.64955116  0.46720723  0.47305968  1
  O  O58  1  0.08183285  0.69682402  0.47565147  1
  O  O59  1  0.58326891  0.69789319  0.47372066  1
  O  O60  1  0.06919881  0.62908176  0.35988046  1
  O  O61  1  0.56913875  0.62924444  0.35944283  1
  O  O62  1  0.24942335  0.86458916  0.35623632  1
  O  O63  1  0.74957891  0.86506802  0.35618369  1
  O  O64  1  0.18594326  0.50406211  0.35995038  1
  O  O65  1  0.68621307  0.50405147  0.35988054  1
  O  O66  1  0.06827142  0.50829706  0.85940980  1
  O  O67  1  0.56772611  0.49892455  0.85814246  1
  O  O68  1  0.18552655  0.86715072  0.85983415  1
  O  O69  1  0.68491741  0.86715353  0.86020743  1
  O  O70  1  0.24754891  0.63544347  0.85831548  1
  O  O71  1  0.75092722  0.63550646  0.85749085  1
  O  O72  1  0.00919201  0.83769604  0.40899355  1
  O  O73  1  0.50933995  0.83825997  0.40860101  1
  O  O74  1  0.40589667  0.97545483  0.40988147  1
  O  O75  1  0.90600046  0.97596733  0.40977341  1
  O  O76  1  0.07819090  0.18494648  0.40814734  1
  O  O77  1  0.57843988  0.18515215  0.40813201  1
  O  O78  1  0.00912930  0.18071071  0.90861907  1
  O  O79  1  0.50931775  0.18412224  0.90989283  1
  O  O80  1  0.07846103  0.97138830  0.90767147  1
  O  O81  1  0.58017434  0.97627947  0.91020263  1
  O  O82  1  0.40410888  0.83989894  0.90942710  1
  O  O83  1  0.90656388  0.83732378  0.90973681  1
  O  O84  1  0.48439195  0.15943383  0.59019276  1
  O  O85  1  0.98567002  0.15676818  0.59207083  1
  O  O86  1  0.09049390  0.01894227  0.59148039  1
  O  O87  1  0.59239561  0.02502758  0.59025547  1
  O  O88  1  0.41623777  0.81475822  0.59019257  1
  O  O89  1  0.91905837  0.81292498  0.59044004  1
  O  O90  1  0.48601850  0.81508092  0.09206394  1
  O  O91  1  0.98545289  0.81443506  0.09163107  1
  O  O92  1  0.41789423  0.02397593  0.09042225  1
  O  O93  1  0.91822276  0.02447816  0.09002991  1
  O  O94  1  0.09022074  0.16187116  0.09154309  1
  O  O95  1  0.59013159  0.16200637  0.09108342  1
  O  O96  1  0.34725296  0.17479163  0.74285317  1
  O  O97  1  0.84570785  0.17064816  0.74309891  1
  O  O98  1  0.23014994  0.30348774  0.74382091  1
  O  O99  1  0.74219332  0.31607288  0.74341039  1
  O  O100  1  0.41394856  0.51290321  0.74324118  1
  O  O101  1  0.91386861  0.52663542  0.74254172  1
  O  O102  1  0.34466676  0.51576482  0.24246257  1
  O  O103  1  0.84477070  0.51612467  0.24238336  1
  O  O104  1  0.41096611  0.29891638  0.24328248  1
  O  O105  1  0.91096521  0.29905220  0.24311148  1
  O  O106  1  0.23133342  0.15423535  0.24461945  1
  O  O107  1  0.73156121  0.15449777  0.24454777  1
  O  O108  1  0.32154647  0.49600901  0.92374376  1
  O  O109  1  0.82449431  0.49771109  0.92279049  1
  O  O110  1  0.42554407  0.35211753  0.92370155  1
  O  O111  1  0.92773221  0.35694857  0.92418018  1
  O  O112  1  0.25404644  0.14386221  0.92405407  1
  O  O113  1  0.75429479  0.14308778  0.92376042  1
  O  O114  1  0.32471351  0.15036723  0.42345734  1
  O  O115  1  0.82463610  0.14952464  0.42359518  1
  O  O116  1  0.25433561  0.36468406  0.42350458  1
  O  O117  1  0.75437580  0.36512965  0.42407364  1
  O  O118  1  0.42827852  0.49805592  0.42400531  1
  O  O119  1  0.92831787  0.49816351  0.42433486  1
  O  O120  1  0.17918133  0.50175054  0.07601851  1
  O  O121  1  0.67955575  0.50212962  0.07577535  1
  O  O122  1  0.07211628  0.63533946  0.07636302  1
  O  O123  1  0.57200514  0.63565575  0.07640968  1
  O  O124  1  0.24941245  0.84995197  0.07630180  1
  O  O125  1  0.74976884  0.85018883  0.07636629  1
  O  O126  1  0.17914878  0.85634235  0.57604044  1
  O  O127  1  0.68275642  0.85780743  0.57612311  1
  O  O128  1  0.24978392  0.64766384  0.57597122  1
  O  O129  1  0.74922099  0.64967890  0.57673471  1
  O  O130  1  0.07239113  0.50897939  0.57654757  1
  O  O131  1  0.57398427  0.50556811  0.57671592  1
  O  O132  1  0.15408643  0.84557135  0.25547459  1
  O  O133  1  0.65431402  0.84576355  0.25543407  1
  O  O134  1  0.26147099  0.70106522  0.25692936  1
  O  O135  1  0.76150531  0.70111833  0.25676925  1
  O  O136  1  0.08665943  0.48420183  0.25761227  1
  O  O137  1  0.58676300  0.48417233  0.25757749  1
  O  O138  1  0.15188496  0.45927137  0.75592675  1
  O  O139  1  0.65455067  0.47947568  0.75671928  1
  O  O140  1  0.08703812  0.68808948  0.75722725  1
  O  O141  1  0.58316634  0.68570695  0.75703357  1
  O  O142  1  0.25761511  0.82139834  0.75725623  1
  O  O143  1  0.76282104  0.82755510  0.75713944  1
loop_
_geom_bond_atom_site_label_1
_geom_bond_atom_site_label_2
_geom_bond_distance
_geom_bond_site_symmetry_2
Na0 O104 2.339179 1_555
Na0 O134 2.343792 1_545
Na0 O106 2.528815 1_555
Na0 O132 2.531653 1_545
Na0 O32 2.678109 1_555
Na0 O62 2.686485 1_545
Na0 O18 2.889637 1_545
Na0 O4 2.891832 1_555
Na1 O135 2.339602 1_555
Na1 O105 2.344300 1_565
Na1 O133 2.525201 1_555
Na1 O107 2.528201 1_565
Na1 O63 2.677284 1_555
Na1 O33 2.686383 1_565
Na1 O5 2.889960 1_565
Na1 O19 2.895046 1_555
Na2 O101 2.349353 1_555
Na2 O143 2.375245 1_555
Na2 O99 2.494086 1_555
Na2 O139 2.557029 1_555
Na2 O29 2.699882 1_555
Na2 O71 2.714098 1_555
Na2 O9 2.846137 1_555
Na2 O13 2.858480 1_555
Na3 O96 2.334749 1_555
Na3 O100 2.448953 1_555
Na3 O139 2.476226 1_555
Na3 O141 2.514263 1_555
Na3 O24 2.649279 1_555
Na3 O67 2.756601 1_555
Na3 O10 2.851509 1_555
Na3 O15 2.856786 1_555
Na4 O89 2.393243 1_455
Na4 O130 2.395600 1_555
Na4 O86 2.458053 1_565
Na4 O126 2.526502 1_555
Na4 O16 2.688547 1_555
Na4 O58 2.721688 1_555
Na4 O25 2.856232 1_455
Na4 O45 2.868264 1_455
Na5 O84 2.368463 1_565
Na5 O126 2.413832 1_555
Na5 O88 2.486209 1_555
Na5 O128 2.496194 1_555
Na5 O12 2.690313 1_555
Na5 O54 2.754156 1_555
Na5 O26 2.820620 1_565
Na5 O46 2.879305 1_565
Na6 O85 2.364233 1_565
Na6 O127 2.386981 1_555
Na6 O129 2.464940 1_555
Na6 O89 2.502313 1_555
Na6 O13 2.691810 1_555
Na6 O55 2.736078 1_555
Na6 O27 2.870730 1_565
Na6 O47 2.883740 1_565
Na7 O90 2.372772 1_555
Na7 O120 2.435221 1_555
Na7 O124 2.486745 1_555
Na7 O92 2.514844 1_565
Na7 O18 2.696185 1_555
Na7 O48 2.757884 1_554
Na7 O34 2.834679 1_555
Na7 O38 2.865210 1_555
Na8 O91 2.359281 1_555
Na8 O121 2.435211 1_555
Na8 O125 2.484354 1_555
Na8 O93 2.514285 1_565
Na8 O19 2.679999 1_555
Na8 O49 2.780184 1_554
Na8 O35 2.827301 1_555
Na8 O39 2.887313 1_555
Na9 O122 2.395004 1_555
Na9 O93 2.398849 1_455
Na9 O94 2.456268 1_555
Na9 O120 2.531227 1_555
Na9 O20 2.672230 1_555
Na9 O50 2.734489 1_554
Na9 O31 2.834561 1_455
Na9 O41 2.882949 1_455
Na10 O92 2.388510 1_555
Na10 O123 2.407861 1_555
Na10 O95 2.461171 1_555
Na10 O121 2.558984 1_555
Na10 O21 2.667327 1_555
Na10 O51 2.764167 1_554
Na10 O30 2.824343 1_555
Na10 O40 2.857769 1_555
Na11 O80 2.370166 1_655
Na11 O111 2.443331 1_555
Na11 O109 2.499717 1_555
Na11 O83 2.534404 1_555
Na11 O9 2.701876 1_555
Na11 O39 2.765956 1_556
Na11 O66 2.805119 1_655
Na11 O52 2.837799 1_655
Na12 O112 2.366048 1_555
Na12 O82 2.368539 1_545
Na12 O79 2.490445 1_555
Na12 O110 2.491365 1_555
Na12 O10 2.722391 1_555
Na12 O40 2.734697 1_556
Na12 O68 2.817910 1_545
Na12 O48 2.870899 1_545
Na13 O83 2.393658 1_545
Na13 O113 2.399025 1_555
Na13 O78 2.434773 1_655
Na13 O111 2.512914 1_555
Na13 O11 2.655867 1_555
Na13 O41 2.750390 1_556
Na13 O69 2.868207 1_545
Na13 O49 2.886885 1_545
Na14 O77 2.372677 1_555
Na14 O118 2.435184 1_555
Na14 O114 2.479183 1_555
Na14 O74 2.517996 1_545
Na14 O4 2.692925 1_555
Na14 O46 2.764023 1_555
Na14 O61 2.832177 1_555
Na14 O57 2.868086 1_555
Na15 O76 2.365892 1_655
Na15 O119 2.439617 1_555
Na15 O115 2.485173 1_555
Na15 O75 2.514610 1_545
Na15 O5 2.685541 1_555
Na15 O47 2.770342 1_555
Na15 O60 2.822973 1_655
Na15 O56 2.861613 1_655
Na16 O74 2.394224 1_555
Na16 O116 2.398933 1_555
Na16 O73 2.454526 1_555
Na16 O118 2.537553 1_555
Na16 O2 2.667701 1_555
Na16 O44 2.742240 1_555
Na16 O64 2.833846 1_555
Na16 O54 2.882709 1_555
Na17 O75 2.393816 1_555
Na17 O117 2.398851 1_555
Na17 O72 2.457047 1_655
Na17 O119 2.547072 1_555
Na17 O3 2.664686 1_555
Na17 O45 2.778602 1_555
Na17 O65 2.823713 1_555
Na17 O55 2.873774 1_555
Na18 O76 2.527260 1_555
Na18 O86 2.535180 1_555
Na18 O72 2.549466 1_545
Na18 O85 2.601532 1_455
Na18 O75 2.611744 1_445
Na18 O89 2.629008 1_445
Na19 O73 2.518564 1_545
Na19 O87 2.520510 1_555
Na19 O77 2.538755 1_555
Na19 O74 2.609132 1_545
Na19 O88 2.624169 1_545
Na19 O84 2.626827 1_555
Na20 O94 2.508022 1_555
Na20 O80 2.554688 1_544
Na20 O91 2.576730 1_445
Na20 O78 2.578446 1_554
Na20 O93 2.611873 1_455
Na20 O83 2.630460 1_444
Na21 O95 2.515056 1_565
Na21 O81 2.518380 1_554
Na21 O90 2.538737 1_555
Na21 O92 2.611736 1_565
Na21 O79 2.615648 1_564
Na21 O82 2.632947 1_554
Na22 O100 2.505584 1_555
Na22 O96 2.565884 1_555
Na22 O108 2.568342 1_555
Na22 O98 2.576913 1_555
Na22 O112 2.619475 1_555
Na22 O110 2.642684 1_555
Na23 O99 2.535865 1_555
Na23 O97 2.536752 1_555
Na23 O113 2.575793 1_555
Na23 O109 2.576063 1_555
Na23 O101 2.599244 1_555
Na23 O111 2.606567 1_555
Na24 O102 2.483548 1_555
Na24 O104 2.518605 1_555
Na24 O106 2.581323 1_555
Na24 O116 2.609792 1_555
Na24 O114 2.639771 1_555
Na24 O118 2.645356 1_555
Na25 O103 2.482998 1_555
Na25 O105 2.518720 1_555
Na25 O107 2.574972 1_555
Na25 O117 2.623739 1_555
Na25 O115 2.649988 1_555
Na25 O119 2.657206 1_555
Na26 O136 2.492591 1_555
Na26 O134 2.524504 1_555
Na26 O132 2.587133 1_555
Na26 O122 2.604164 1_555
Na26 O124 2.638075 1_555
Na26 O120 2.643958 1_555
Na27 O137 2.477620 1_555
Na27 O135 2.513271 1_555
Na27 O133 2.575123 1_555
Na27 O123 2.614494 1_555
Na27 O125 2.653403 1_555
Na27 O121 2.660635 1_555
Na28 O142 2.461791 1_555
Na28 O140 2.481630 1_555
Na28 O138 2.562460 1_555
Na28 O130 2.638911 1_555
Na28 O128 2.647113 1_555
Na28 O126 2.687695 1_555
Na29 O131 2.515090 1_555
Na29 O127 2.546060 1_555
Na29 O129 2.560419 1_555
Na29 O141 2.572285 1_555
Na29 O139 2.606446 1_555
Na29 O143 2.624516 1_555
O0 S0 1.484461 1_555
O0 Ti0 2.126703 1_445
O1 S1 1.483803 1_555
O1 Ti1 2.127812 1_545
O2 Si0 1.659541 1_555
O2 Ti1 1.868990 1_555
O3 Si1 1.659876 1_555
O3 Ti0 1.868595 1_555
O4 Si3 1.659476 1_555
O4 Ti1 1.899479 1_545
O5 Si2 1.658482 1_655
O5 Ti0 1.902706 1_545
O6 S2 1.498018 1_555
O6 Ti2 2.078983 1_445
O7 Si4 1.623829 1_555
O7 Ta0 1.951652 1_545
O8 Si6 1.632827 1_555
O8 Ta0 1.923039 1_555
O9 Si5 1.651075 1_655
O9 Ti2 1.920893 1_555
O10 Si7 1.666147 1_545
O10 Ta0 1.974597 1_545
O11 Si8 1.631098 1_555
O11 Ti2 1.901906 1_545
O12 Si7 1.658595 1_555
O12 Ta1 1.962156 1_555
O13 Si8 1.632467 1_565
O13 Ti3 1.936413 1_555
O14 S2 1.498953 1_555
O14 Ti3 2.080373 1_445
O15 Si4 1.628977 1_555
O15 Ta1 1.966995 1_545
O16 Si5 1.657167 1_555
O16 Ti3 1.869260 1_455
O17 Si6 1.633574 1_555
O17 Ta1 1.926971 1_555
O18 Si0 1.658996 1_555
O18 Ti5 1.896088 1_565
O19 Si1 1.658050 1_555
O19 Ti4 1.904312 1_565
O20 Si2 1.659015 1_555
O20 Ti4 1.870432 1_455
O21 Si3 1.659330 1_555
O21 Ti5 1.871937 1_555
O22 S0 1.484974 1_565
O22 Ti4 2.118785 1_465
O23 S1 1.482428 1_565
O23 Ti5 2.135000 1_565
O24 Si9 1.626610 1_555
O24 Ti6 1.885107 1_555
O25 Si10 1.643080 1_555
O25 Ta2 1.941352 1_555
O26 Si11 1.620655 1_555
O26 Ti6 1.898512 1_555
O27 Si12 1.639875 1_555
O27 Ta2 1.958690 1_555
O28 Si13 1.615089 1_555
O28 Ti6 1.887531 1_555
O29 Si14 1.628849 1_555
O29 Ta2 1.992917 1_555
O30 Si15 1.637452 1_555
O30 Ti7 1.839613 1_555
O31 Si16 1.637640 1_555
O31 Ti8 1.840918 1_555
O32 Si17 1.614654 1_555
O32 Ti7 1.976071 1_555
O33 Si18 1.608067 1_555
O33 Ti8 1.984187 1_555
O34 Si19 1.625867 1_555
O34 Ti7 1.908441 1_555
O35 Si20 1.622125 1_555
O35 Ti8 1.914285 1_555
O36 Si19 1.647833 1_555
O36 Ta3 1.923114 1_554
O37 Si20 1.660222 1_555
O37 Ta4 1.906877 1_554
O38 Si15 1.646434 1_555
O38 Ta3 1.950332 1_554
O39 Si16 1.664283 1_555
O39 Ta4 1.972705 1_554
O40 Si17 1.647708 1_555
O40 Ta3 2.015657 1_554
O41 Si18 1.659035 1_555
O41 Ta4 1.969390 1_554
O42 Si11 1.650009 1_555
O42 Ta5 1.917120 1_555
O43 Si12 1.645396 1_555
O43 Ta6 1.916231 1_555
O44 Si13 1.644283 1_555
O44 Ta5 1.956378 1_555
O45 Si14 1.645754 1_555
O45 Ta6 1.990851 1_555
O46 Si9 1.647163 1_555
O46 Ta5 1.974927 1_555
O47 Si10 1.654305 1_555
O47 Ta6 1.987172 1_555
O48 Si21 1.661674 1_555
O48 Ta7 1.962823 1_556
O49 Si22 1.639312 1_555
O49 Ta8 1.993267 1_556
O50 Si23 1.655916 1_555
O50 Ta7 1.959862 1_556
O51 Si24 1.638031 1_555
O51 Ta8 1.957047 1_556
O52 Si25 1.661285 1_555
O52 Ta7 1.941056 1_556
O53 Si26 1.636221 1_555
O53 Ta8 1.923454 1_556
O54 Si27 1.658091 1_555
O54 Ta9 1.970895 1_555
O55 Si28 1.648755 1_555
O55 Ta10 2.006853 1_555
O56 Si29 1.660468 1_555
O56 Ta9 1.934765 1_555
O57 Si30 1.652137 1_555
O57 Ta10 1.946327 1_555
O58 Si31 1.656444 1_555
O58 Ta9 1.961547 1_555
O59 Si32 1.652555 1_555
O59 Ta10 1.910775 1_555
O60 Si31 1.623823 1_555
O60 Ti9 1.917894 1_555
O61 Si32 1.625786 1_555
O61 Ti10 1.908072 1_555
O62 Si27 1.609639 1_555
O62 Ti9 1.978590 1_555
O63 Si28 1.610871 1_555
O63 Ti10 1.982295 1_555
O64 Si29 1.636500 1_555
O64 Ti9 1.839710 1_555
O65 Si30 1.637868 1_555
O65 Ti10 1.841237 1_555
O66 Si23 1.613645 1_555
O66 Ti11 1.948415 1_555
O67 Si24 1.640875 1_555
O67 Ta11 1.959491 1_555
O68 Si25 1.628478 1_555
O68 Ti11 1.856398 1_555
O69 Si26 1.643837 1_555
O69 Ta11 1.931118 1_555
O70 Si21 1.608612 1_555
O70 Ti11 1.907843 1_555
O71 Si22 1.631246 1_555
O71 Ta11 1.984053 1_555
O72 Si31 1.621056 1_555
O72 Ti0 2.005353 1_455
O73 Si32 1.618780 1_555
O73 Ti1 1.999001 1_555
O74 Si27 1.653940 1_555
O74 Ti1 1.974330 1_555
O75 Si28 1.657093 1_555
O75 Ti0 1.970370 1_555
O76 Si29 1.606476 1_555
O76 Ti0 2.034188 1_445
O77 Si30 1.606908 1_555
O77 Ti1 2.035227 1_545
O78 Si23 1.629199 1_555
O78 Ti2 1.975873 1_445
O79 Si24 1.630640 1_555
O79 Ta0 2.035335 1_545
O80 Si25 1.617853 1_555
O80 Ti2 1.984430 1_455
O81 Si26 1.604439 1_555
O81 Ta0 2.000139 1_555
O82 Si21 1.646499 1_555
O82 Ta0 2.019678 1_555
O83 Si22 1.638589 1_555
O83 Ti2 1.999097 1_555
O84 Si9 1.634612 1_555
O84 Ta1 2.043562 1_545
O85 Si10 1.609377 1_555
O85 Ti3 2.028525 1_545
O86 Si11 1.621392 1_555
O86 Ti3 1.966175 1_445
O87 Si12 1.611520 1_555
O87 Ta1 1.996464 1_545
O88 Si13 1.642076 1_555
O88 Ta1 2.011044 1_555
O89 Si14 1.646670 1_555
O89 Ti3 1.985239 1_555
O90 Si15 1.607818 1_555
O90 Ti5 2.032229 1_565
O91 Si16 1.608446 1_555
O91 Ti4 2.039408 1_565
O92 Si17 1.661986 1_555
O92 Ti5 1.960518 1_555
O93 Si18 1.651570 1_555
O93 Ti4 1.977672 1_555
O94 Si19 1.621657 1_555
O94 Ti4 1.992622 1_455
O95 Si20 1.614677 1_555
O95 Ti5 2.010191 1_555
O96 Si7 1.637155 1_545
O96 Ti6 2.020218 1_555
O97 Si8 1.628840 1_555
O97 Ta2 1.970438 1_555
O98 S2 1.481773 1_555
O98 Ti6 2.211389 1_555
O99 Si4 1.625965 1_555
O99 Ta2 2.024872 1_555
O100 Si6 1.617194 1_555
O100 Ti6 2.009668 1_555
O101 Si5 1.662564 1_655
O101 Ta2 2.011427 1_555
O102 Si0 1.629207 1_555
O102 Ti7 1.938007 1_555
O103 Si1 1.632346 1_555
O103 Ti8 1.929000 1_555
O104 Si3 1.641544 1_555
O104 Ti7 2.027110 1_555
O105 Si2 1.643547 1_655
O105 Ti8 2.019293 1_555
O106 S0 1.492358 1_555
O106 Ti7 2.282386 1_555
O107 S1 1.495827 1_555
O107 Ti8 2.274782 1_555
O108 Si21 1.626259 1_555
O108 Ta3 1.964239 1_555
O109 Si22 1.632295 1_555
O109 Ta4 2.017347 1_555
O110 Si24 1.630761 1_555
O110 Ta3 2.039631 1_555
O111 Si23 1.672429 1_655
O111 Ta4 2.062455 1_555
O112 Si25 1.626443 1_545
O112 Ta3 2.025461 1_555
O113 Si26 1.637846 1_545
O113 Ta4 2.015215 1_555
O114 Si27 1.639445 1_545
O114 Ta5 2.006815 1_555
O115 Si28 1.648393 1_545
O115 Ta6 1.986643 1_555
O116 Si29 1.632542 1_555
O116 Ta5 2.003578 1_555
O117 Si30 1.639443 1_555
O117 Ta6 1.994441 1_555
O118 Si32 1.663083 1_555
O118 Ta5 2.063819 1_555
O119 Si31 1.670757 1_655
O119 Ta6 2.050317 1_555
O120 Si19 1.666797 1_555
O120 Ta7 2.057988 1_555
O121 Si20 1.665639 1_555
O121 Ta8 2.046045 1_555
O122 Si16 1.632671 1_455
O122 Ta7 2.014890 1_555
O123 Si15 1.640326 1_555
O123 Ta8 1.988024 1_555
O124 Si17 1.645256 1_565
O124 Ta7 2.006222 1_555
O125 Si18 1.641542 1_565
O125 Ta8 1.996332 1_555
O126 Si11 1.659488 1_565
O126 Ta9 2.060053 1_555
O127 Si12 1.634046 1_565
O127 Ta10 2.037980 1_555
O128 Si13 1.652196 1_555
O128 Ta9 2.000066 1_555
O129 Si14 1.624352 1_555
O129 Ta10 2.048699 1_555
O130 Si10 1.630853 1_455
O130 Ta9 2.012652 1_555
O131 Si9 1.625118 1_555
O131 Ta10 1.973990 1_555
O132 S0 1.493454 1_565
O132 Ti9 2.277636 1_555
O133 S1 1.494694 1_565
O133 Ti10 2.278677 1_555
O134 Si0 1.643560 1_555
O134 Ti9 2.019559 1_555
O135 Si1 1.641223 1_555
O135 Ti10 2.028349 1_555
O136 Si2 1.630798 1_555
O136 Ti9 1.930955 1_555
O137 Si3 1.631991 1_555
O137 Ti10 1.930673 1_555
O138 S2 1.473541 1_555
O138 Ti11 2.256649 1_555
O139 Si4 1.651194 1_555
O139 Ta11 2.050022 1_555
O140 Si5 1.606550 1_555
O140 Ti11 1.980984 1_555
O141 Si6 1.659531 1_555
O141 Ta11 1.980463 1_555
O142 Si7 1.613248 1_555
O142 Ti11 1.954823 1_555
O143 Si8 1.655871 1_565
O143 Ta11 2.011868 1_555
