# generated using pymatgen
data_Na2CaZrP2SO12
_symmetry_space_group_name_H-M   'P 1'
_cell_length_a   9.14433179
_cell_length_b   9.19854758
_cell_length_c   23.01877250
_cell_angle_alpha   90.39324614
_cell_angle_beta   90.00000000
_cell_angle_gamma   119.80522041
_symmetry_Int_Tables_number   1
_chemical_formula_structural   Na2CaZrP2SO12
_chemical_formula_sum   'Na12 Ca6 Zr6 P12 S6 O72'
_cell_volume   1680.03953414
_cell_formula_units_Z   6
loop_
 _symmetry_equiv_pos_site_id
 _symmetry_equiv_pos_as_xyz
  1  'x, y, z'
loop_
 _atom_site_type_symbol
 _atom_site_label
 _atom_site_symmetry_multiplicity
 _atom_site_fract_x
 _atom_site_fract_y
 _atom_site_fract_z
 _atom_site_occupancy
  Na  Na0  1  0.99480625  0.63532945  0.24139610  1
  Na  Na1  1  0.64052321  0.63532945  0.74139610  1
  Na  Na2  1  0.66147325  0.96866245  0.57472910  1
  Na  Na3  1  0.30719021  0.96866245  0.07472910  1
  Na  Na4  1  0.32813925  0.30199645  0.90806310  1
  Na  Na5  1  0.97385621  0.30199645  0.40806310  1
  Na  Na6  1  0.99503497  0.96385186  0.49428938  1
  Na  Na7  1  0.96881689  0.96385186  0.99428938  1
  Na  Na8  1  0.66170197  0.29718486  0.82762238  1
  Na  Na9  1  0.63548389  0.29718486  0.32762238  1
  Na  Na10  1  0.32836797  0.63051886  0.16095638  1
  Na  Na11  1  0.30214989  0.63051886  0.66095638  1
  Ca  Ca0  1  0.99769252  0.99697723  0.35203256  1
  Ca  Ca1  1  0.99928471  0.99697723  0.85203256  1
  Ca  Ca2  1  0.66435952  0.33031023  0.68536556  1
  Ca  Ca3  1  0.66595171  0.33031023  0.18536556  1
  Ca  Ca4  1  0.33102552  0.66364423  0.01869956  1
  Ca  Ca5  1  0.33261771  0.66364423  0.51869956  1
  Zr  Zr0  1  0.00190842  0.01154246  0.64915171  1
  Zr  Zr1  1  0.00963404  0.01154246  0.14915171  1
  Zr  Zr2  1  0.66857542  0.34487546  0.98248471  1
  Zr  Zr3  1  0.67630104  0.34487546  0.48248471  1
  Zr  Zr4  1  0.33524142  0.67820946  0.31581871  1
  Zr  Zr5  1  0.34296704  0.67820946  0.81581871  1
  P  P0  1  0.29497610  0.99386614  0.25069405  1
  P  P1  1  0.01031861  0.30569934  0.25507963  1
  P  P2  1  0.29538072  0.30569934  0.75507963  1
  P  P3  1  0.69889004  0.99386614  0.75069405  1
  P  P4  1  0.96164310  0.32719914  0.58402705  1
  P  P5  1  0.67698561  0.63903234  0.58841263  1
  P  P6  1  0.96204772  0.63903234  0.08841263  1
  P  P7  1  0.36555704  0.32719914  0.08402705  1
  P  P8  1  0.62830910  0.66053314  0.91736105  1
  P  P9  1  0.34365161  0.97236634  0.92174663  1
  P  P10  1  0.62871372  0.97236634  0.42174663  1
  P  P11  1  0.03222304  0.66053314  0.41736105  1
  S  S0  1  0.69948964  0.71080570  0.24911132  1
  S  S1  1  0.01131606  0.71080570  0.74911132  1
  S  S2  1  0.36615664  0.04413870  0.58244432  1
  S  S3  1  0.67798306  0.04413870  0.08244432  1
  S  S4  1  0.03282264  0.37747270  0.91577832  1
  S  S5  1  0.34464906  0.37747270  0.41577832  1
  O  O0  1  0.20478457  0.00587533  0.30320508  1
  O  O1  1  0.79511559  0.78718739  0.30182771  1
  O  O2  1  0.98985729  0.21521820  0.31172898  1
  O  O3  1  0.22536091  0.21521820  0.81172898  1
  O  O4  1  0.99207180  0.78718739  0.80182771  1
  O  O5  1  0.80109076  0.00587533  0.80320508  1
  O  O6  1  0.78764908  0.96871097  0.69443589  1
  O  O7  1  0.17818562  0.20105868  0.70176451  1
  O  O8  1  0.02933505  0.81635395  0.69726241  1
  O  O9  1  0.78701890  0.81635395  0.19726241  1
  O  O10  1  0.02287306  0.20105868  0.20176451  1
  O  O11  1  0.18106189  0.96871097  0.19443589  1
  O  O12  1  0.87145157  0.33920833  0.63653808  1
  O  O13  1  0.46178259  0.12052039  0.63516071  1
  O  O14  1  0.65652429  0.54855120  0.64506198  1
  O  O15  1  0.89202791  0.54855120  0.14506198  1
  O  O16  1  0.65873880  0.12052039  0.13516071  1
  O  O17  1  0.46775776  0.33920833  0.13653808  1
  O  O18  1  0.45431608  0.30204397  0.02776889  1
  O  O19  1  0.84485262  0.53439168  0.03509751  1
  O  O20  1  0.69600205  0.14968695  0.03059541  1
  O  O21  1  0.45368590  0.14968695  0.53059541  1
  O  O22  1  0.68954006  0.53439168  0.53509751  1
  O  O23  1  0.84772889  0.30204397  0.52776889  1
  O  O24  1  0.53811757  0.67254233  0.96987208  1
  O  O25  1  0.12844859  0.45385439  0.96849471  1
  O  O26  1  0.32319029  0.88188520  0.97839598  1
  O  O27  1  0.55869391  0.88188520  0.47839598  1
  O  O28  1  0.32540480  0.45385439  0.46849471  1
  O  O29  1  0.13442376  0.67254233  0.46987208  1
  O  O30  1  0.12098208  0.63537797  0.36110289  1
  O  O31  1  0.51151862  0.86772568  0.36843151  1
  O  O32  1  0.36266805  0.48302095  0.36392941  1
  O  O33  1  0.12035190  0.48302095  0.86392941  1
  O  O34  1  0.35620606  0.86772568  0.86843151  1
  O  O35  1  0.51439489  0.63537797  0.86110289  1
  O  O36  1  -0.00152183  0.80511962  0.41256357  1
  O  O37  1  0.81052782  0.00894738  0.41456646  1
  O  O38  1  0.19468909  0.21009019  0.41042946  1
  O  O39  1  0.01540110  0.21009019  0.91042946  1
  O  O40  1  0.19841956  0.00894738  0.91456646  1
  O  O41  1  0.80664146  0.80511962  0.91256357  1
  O  O42  1  0.96418335  0.15477592  0.58686298  1
  O  O43  1  0.19559873  0.02974537  0.58514175  1
  O  O44  1  0.84649734  0.81354483  0.58845645  1
  O  O45  1  0.96704749  0.81354483  0.08845645  1
  O  O46  1  0.83414664  0.02974537  0.08514175  1
  O  O47  1  0.19059257  0.15477592  0.08686298  1
  O  O48  1  0.66514517  0.13845262  0.74589657  1
  O  O49  1  0.47719482  0.34228038  0.74789946  1
  O  O50  1  0.86135609  0.54342319  0.74376246  1
  O  O51  1  0.68206810  0.54342319  0.24376246  1
  O  O52  1  0.86508656  0.34228038  0.24789946  1
  O  O53  1  0.47330846  0.13845262  0.24589657  1
  O  O54  1  0.63085035  0.48810892  0.92019598  1
  O  O55  1  0.86226573  0.36307837  0.91847475  1
  O  O56  1  0.51316434  0.14687783  0.92178945  1
  O  O57  1  0.63371449  0.14687783  0.42178945  1
  O  O58  1  0.50081364  0.36307837  0.41847475  1
  O  O59  1  0.85725957  0.48810892  0.42019598  1
  O  O60  1  0.33181117  0.47178662  0.07923057  1
  O  O61  1  0.14386082  0.67561438  0.08123346  1
  O  O62  1  0.52802209  0.87675719  0.07709646  1
  O  O63  1  0.34873410  0.87675719  0.57709646  1
  O  O64  1  0.53175256  0.67561438  0.58123346  1
  O  O65  1  0.13997446  0.47178662  0.57923057  1
  O  O66  1  0.29751635  0.82144292  0.25352998  1
  O  O67  1  0.52893173  0.69641237  0.25180875  1
  O  O68  1  0.17983034  0.48021183  0.25512345  1
  O  O69  1  0.30038049  0.48021183  0.75512345  1
  O  O70  1  0.16747964  0.69641237  0.75180875  1
  O  O71  1  0.52392557  0.82144292  0.75352998  1
loop_
_geom_bond_atom_site_label_1
_geom_bond_atom_site_label_2
_geom_bond_distance
_geom_bond_site_symmetry_2
Na0 O52 2.350045 1_555
Na0 O15 2.380686 1_555
Na0 O66 2.440005 1_655
Na0 O51 2.548183 1_555
Na0 O68 2.721113 1_655
Na0 O11 2.885616 1_655
Na0 O30 2.987224 1_655
Na1 O49 2.350045 1_555
Na1 O14 2.380688 1_555
Na1 O71 2.440013 1_555
Na1 O50 2.548191 1_555
Na1 O69 2.721121 1_555
Na1 O6 2.885616 1_555
Na1 O35 2.987228 1_555
Na2 O64 2.350038 1_555
Na2 O27 2.380665 1_555
Na2 O42 2.440005 1_565
Na2 O63 2.548194 1_555
Na2 O44 2.721113 1_555
Na2 O23 2.885616 1_565
Na2 O6 2.987224 1_555
Na3 O61 2.350039 1_555
Na3 O26 2.380661 1_554
Na3 O47 2.440013 1_565
Na3 O62 2.548177 1_555
Na3 O45 2.721121 1_455
Na3 O18 2.885616 1_565
Na3 O11 2.987228 1_555
Na4 O40 2.350045 1_555
Na4 O3 2.380686 1_555
Na4 O54 2.440009 1_555
Na4 O39 2.548183 1_555
Na4 O56 2.721126 1_555
Na4 O35 2.885616 1_555
Na4 O18 2.987209 1_556
Na5 O37 2.350045 1_555
Na5 O2 2.380688 1_555
Na5 O59 2.439994 1_555
Na5 O38 2.548191 1_655
Na5 O57 2.721110 1_555
Na5 O30 2.885616 1_655
Na5 O23 2.987202 1_555
Na6 O36 2.383257 1_655
Na6 O44 2.574742 1_555
Na6 O43 2.642368 1_665
Na6 O37 2.663188 1_565
Na6 O38 2.852884 1_665
Na6 O42 2.854111 1_565
Na7 O41 2.383257 1_555
Na7 O45 2.574742 1_556
Na7 O46 2.642368 1_566
Na7 O40 2.663188 1_665
Na7 O39 2.852884 1_665
Na7 O47 2.854111 1_666
Na8 O48 2.383257 1_555
Na8 O56 2.574742 1_555
Na8 O55 2.642368 1_555
Na8 O49 2.663188 1_555
Na8 O50 2.852884 1_555
Na8 O54 2.854111 1_555
Na9 O53 2.383257 1_555
Na9 O57 2.574742 1_555
Na9 O58 2.642368 1_555
Na9 O52 2.663188 1_555
Na9 O51 2.852884 1_555
Na9 O59 2.854111 1_555
Na10 O60 2.383257 1_555
Na10 O68 2.574742 1_555
Na10 O67 2.642368 1_555
Na10 O61 2.663188 1_555
Na10 O62 2.852884 1_555
Na10 O66 2.854111 1_555
Na11 O65 2.383257 1_555
Na11 O69 2.574742 1_555
Na11 O70 2.642368 1_555
Na11 O64 2.663188 1_555
Na11 O63 2.852884 1_555
Na11 O71 2.854111 1_555
Ca0 O0 2.168711 1_665
Ca0 O1 2.215112 1_555
Ca0 O2 2.250431 1_565
Ca0 O36 2.258847 1_655
Ca0 O37 2.280029 1_565
Ca0 O38 2.312614 1_665
Ca1 O5 2.168711 1_565
Ca1 O4 2.215112 1_555
Ca1 O3 2.250431 1_665
Ca1 O41 2.258847 1_555
Ca1 O40 2.280029 1_665
Ca1 O39 2.312614 1_665
Ca2 O12 2.168711 1_555
Ca2 O13 2.215112 1_555
Ca2 O14 2.250431 1_555
Ca2 O48 2.258847 1_555
Ca2 O49 2.280029 1_555
Ca2 O50 2.312614 1_555
Ca3 O17 2.168711 1_555
Ca3 O16 2.215112 1_555
Ca3 O15 2.250431 1_555
Ca3 O53 2.258847 1_555
Ca3 O52 2.280029 1_555
Ca3 O51 2.312614 1_555
Ca4 O24 2.168711 1_554
Ca4 O25 2.215112 1_554
Ca4 O26 2.250431 1_554
Ca4 O60 2.258847 1_555
Ca4 O61 2.280029 1_555
Ca4 O62 2.312614 1_555
Ca5 O29 2.168711 1_555
Ca5 O28 2.215112 1_555
Ca5 O27 2.250431 1_555
Ca5 O65 2.258847 1_555
Ca5 O64 2.280029 1_555
Ca5 O63 2.312614 1_555
O0 P0 1.497394 1_545
O1 S0 1.452007 1_555
O2 P1 1.512688 1_655
O3 P2 1.512688 1_555
O4 S1 1.452007 1_655
O5 P3 1.497394 1_545
O6 P3 1.603714 1_555
O6 Zr0 2.078161 1_665
O7 P2 1.593562 1_555
O7 Zr0 2.069202 1_555
O8 S1 1.500363 1_555
O8 Zr0 2.233366 1_565
O9 S0 1.500363 1_555
O9 Zr1 2.233366 1_665
O10 P1 1.593562 1_555
O10 Zr1 2.069202 1_555
O11 P0 1.603714 1_555
O11 Zr1 2.078161 1_565
O12 P4 1.497394 1_555
O13 S2 1.452007 1_555
O14 P5 1.512688 1_555
O15 P6 1.512688 1_555
O16 S3 1.452007 1_555
O17 P7 1.497394 1_555
O18 P7 1.603714 1_555
O18 Zr2 2.078161 1_554
O19 P6 1.593562 1_555
O19 Zr2 2.069202 1_554
O20 S3 1.500363 1_555
O20 Zr2 2.233366 1_554
O21 S2 1.500363 1_555
O21 Zr3 2.233366 1_555
O22 P5 1.593562 1_555
O22 Zr3 2.069202 1_555
O23 P4 1.603714 1_555
O23 Zr3 2.078161 1_555
O24 P8 1.497394 1_555
O25 S4 1.452007 1_555
O26 P9 1.512688 1_555
O27 P10 1.512688 1_555
O28 S5 1.452007 1_555
O29 P11 1.497394 1_555
O30 P11 1.603714 1_555
O30 Zr4 2.078161 1_555
O31 P10 1.593562 1_555
O31 Zr4 2.069202 1_555
O32 S5 1.500363 1_555
O32 Zr4 2.233366 1_555
O33 S4 1.500363 1_555
O33 Zr5 2.233366 1_555
O34 P9 1.593562 1_555
O34 Zr5 2.069202 1_555
O35 P8 1.603714 1_555
O35 Zr5 2.078161 1_555
O36 P11 1.512042 1_555
O37 P10 1.532742 1_545
O38 S5 1.471289 1_555
O39 S4 1.471292 1_555
O40 P9 1.532733 1_545
O41 P8 1.512048 1_555
O42 P4 1.599494 1_555
O42 Zr0 2.094873 1_655
O43 S2 1.499564 1_555
O43 Zr0 2.246028 1_555
O44 P5 1.583023 1_555
O44 Zr0 2.163497 1_665
O45 P6 1.583027 1_555
O45 Zr1 2.163497 1_665
O46 S3 1.499555 1_555
O46 Zr1 2.246028 1_655
O47 P7 1.599498 1_555
O47 Zr1 2.094873 1_555
O48 P3 1.512042 1_545
O49 P2 1.532742 1_555
O50 S1 1.471289 1_655
O51 S0 1.471292 1_555
O52 P1 1.532733 1_655
O53 P0 1.512048 1_545
O54 P8 1.599506 1_555
O54 Zr2 2.094873 1_555
O55 S4 1.499550 1_655
O55 Zr2 2.246028 1_555
O56 P9 1.583022 1_545
O56 Zr2 2.163497 1_555
O57 P10 1.583013 1_545
O57 Zr3 2.163497 1_555
O58 S5 1.499568 1_555
O58 Zr3 2.246028 1_555
O59 P11 1.599497 1_655
O59 Zr3 2.094873 1_555
O60 P7 1.512055 1_555
O61 P6 1.532727 1_455
O62 S3 1.471285 1_565
O63 S2 1.471278 1_565
O64 P5 1.532745 1_555
O65 P4 1.512044 1_455
O66 P0 1.599494 1_555
O66 Zr4 2.094873 1_555
O67 S0 1.499564 1_555
O67 Zr4 2.246028 1_555
O68 P1 1.583023 1_555
O68 Zr4 2.163497 1_555
O69 P2 1.583027 1_555
O69 Zr5 2.163497 1_555
O70 S1 1.499555 1_555
O70 Zr5 2.246028 1_555
O71 P3 1.599498 1_555
O71 Zr5 2.094873 1_555
