# generated using pymatgen
data_NaZrScP2SO12
_symmetry_space_group_name_H-M   'P 1'
_cell_length_a   8.87966617
_cell_length_b   8.88083536
_cell_length_c   23.32698158
_cell_angle_alpha   90.05745258
_cell_angle_beta   90.00000000
_cell_angle_gamma   119.99564500
_symmetry_Int_Tables_number   1
_chemical_formula_structural   NaZrScP2SO12
_chemical_formula_sum   'Na6 Zr6 Sc6 P12 S6 O72'
_cell_volume   1593.15636004
_cell_formula_units_Z   6
loop_
 _symmetry_equiv_pos_site_id
 _symmetry_equiv_pos_as_xyz
  1  'x, y, z'
loop_
 _atom_site_type_symbol
 _atom_site_label
 _atom_site_symmetry_multiplicity
 _atom_site_fract_x
 _atom_site_fract_y
 _atom_site_fract_z
 _atom_site_occupancy
  Na  Na0  1  0.98998605  0.99371150  0.50252074  1
  Na  Na1  1  0.00372545  0.99371150  0.00252074  1
  Na  Na2  1  0.65665305  0.32704450  0.83585374  1
  Na  Na3  1  0.67039245  0.32704450  0.33585374  1
  Na  Na4  1  0.32331905  0.66037850  0.16918774  1
  Na  Na5  1  0.33705845  0.66037850  0.66918774  1
  Zr  Zr0  1  -0.00001833  0.00297551  0.35294979  1
  Zr  Zr1  1  0.00299384  0.00297551  0.85294979  1
  Zr  Zr2  1  0.66664867  0.33630851  0.68628279  1
  Zr  Zr3  1  0.66966084  0.33630851  0.18628279  1
  Zr  Zr4  1  0.33331467  0.66964251  0.01961679  1
  Zr  Zr5  1  0.33632684  0.66964251  0.51961679  1
  Sc  Sc0  1  0.99073937  0.00732073  0.64769133  1
  Sc  Sc1  1  0.01658136  0.00732073  0.14769133  1
  Sc  Sc2  1  0.65740637  0.34065373  0.98102433  1
  Sc  Sc3  1  0.68324836  0.34065373  0.48102433  1
  Sc  Sc4  1  0.32407237  0.67398773  0.31435833  1
  Sc  Sc5  1  0.34991436  0.67398773  0.81435833  1
  P  P0  1  0.29122273  0.99915644  0.24961477  1
  P  P1  1  0.00423148  0.29267411  0.24895743  1
  P  P2  1  0.28844263  0.29267411  0.74895743  1
  P  P3  1  0.70793371  0.99915644  0.74961477  1
  P  P4  1  0.95788973  0.33248944  0.58294777  1
  P  P5  1  0.67089848  0.62600711  0.58229043  1
  P  P6  1  0.95510963  0.62600711  0.08229043  1
  P  P7  1  0.37460071  0.33248944  0.08294777  1
  P  P8  1  0.62455573  0.66582344  0.91628177  1
  P  P9  1  0.33756448  0.95934111  0.91562443  1
  P  P10  1  0.62177563  0.95934111  0.41562443  1
  P  P11  1  0.04126671  0.66582344  0.41628177  1
  S  S0  1  0.70739186  0.71132413  0.24925095  1
  S  S1  1  0.00393227  0.71132413  0.74925095  1
  S  S2  1  0.37405886  0.04465713  0.58258395  1
  S  S3  1  0.67059927  0.04465713  0.08258395  1
  S  S4  1  0.04072486  0.37799113  0.91591795  1
  S  S5  1  0.33726527  0.37799113  0.41591795  1
  O  O0  1  0.20408969  0.02585846  0.30357695  1
  O  O1  1  0.81580509  0.78953274  0.30161457  1
  O  O2  1  0.97323354  0.17781161  0.30337335  1
  O  O3  1  0.20457807  0.17781161  0.80337335  1
  O  O4  1  0.97372765  0.78953274  0.80161457  1
  O  O5  1  0.82176877  0.02585846  0.80357695  1
  O  O6  1  0.79231706  0.97171888  0.69650956  1
  O  O7  1  0.17917617  0.20252434  0.69598396  1
  O  O8  1  0.02628165  0.81501503  0.69796111  1
  O  O9  1  0.78873338  0.81501503  0.19796111  1
  O  O10  1  0.02334817  0.20252434  0.19598396  1
  O  O11  1  0.17940181  0.97171888  0.19650956  1
  O  O12  1  0.87075669  0.35919146  0.63690995  1
  O  O13  1  0.48247209  0.12286574  0.63494757  1
  O  O14  1  0.63990054  0.51114461  0.63670635  1
  O  O15  1  0.87124507  0.51114461  0.13670635  1
  O  O16  1  0.64039465  0.12286574  0.13494757  1
  O  O17  1  0.48843577  0.35919146  0.13690995  1
  O  O18  1  0.45898406  0.30505188  0.02984256  1
  O  O19  1  0.84584317  0.53585734  0.02931696  1
  O  O20  1  0.69294865  0.14834803  0.03129411  1
  O  O21  1  0.45540038  0.14834803  0.53129411  1
  O  O22  1  0.69001517  0.53585734  0.52931696  1
  O  O23  1  0.84606881  0.30505188  0.52984256  1
  O  O24  1  0.53742269  0.69252546  0.97024395  1
  O  O25  1  0.14913809  0.45619974  0.96828157  1
  O  O26  1  0.30656654  0.84447861  0.97004035  1
  O  O27  1  0.53791107  0.84447861  0.47004035  1
  O  O28  1  0.30706065  0.45619974  0.46828157  1
  O  O29  1  0.15510177  0.69252546  0.47024395  1
  O  O30  1  0.12565006  0.63838588  0.36317656  1
  O  O31  1  0.51250917  0.86919134  0.36265096  1
  O  O32  1  0.35961465  0.48168203  0.36462811  1
  O  O33  1  0.12206638  0.48168203  0.86462811  1
  O  O34  1  0.35668117  0.86919134  0.86265096  1
  O  O35  1  0.51273481  0.63838588  0.86317656  1
  O  O36  1  0.02456131  0.83137420  0.40959130  1
  O  O37  1  0.80561649  0.97687532  0.40971380  1
  O  O38  1  0.17667000  0.20197057  0.41101647  1
  O  O39  1  0.02530057  0.20197057  0.91101647  1
  O  O40  1  0.17125883  0.97687532  0.90971380  1
  O  O41  1  0.80681289  0.83137420  0.90959130  1
  O  O42  1  0.98008802  0.17254463  0.58928342  1
  O  O43  1  0.19979692  0.02183380  0.59015536  1
  O  O44  1  0.83208803  0.80577801  0.59023513  1
  O  O45  1  0.97368998  0.80577801  0.09023513  1
  O  O46  1  0.82203687  0.02183380  0.09015536  1
  O  O47  1  0.19245662  0.17254463  0.08928342  1
  O  O48  1  0.69122831  0.16470720  0.74292430  1
  O  O49  1  0.47228349  0.31020832  0.74304680  1
  O  O50  1  0.84333700  0.53530357  0.74434947  1
  O  O51  1  0.69196757  0.53530357  0.24434947  1
  O  O52  1  0.83792583  0.31020832  0.24304680  1
  O  O53  1  0.47347989  0.16470720  0.24292430  1
  O  O54  1  0.64675502  0.50587763  0.92261642  1
  O  O55  1  0.86646392  0.35516680  0.92348836  1
  O  O56  1  0.49875503  0.13911101  0.92356813  1
  O  O57  1  0.64035698  0.13911101  0.42356813  1
  O  O58  1  0.48870387  0.35516680  0.42348836  1
  O  O59  1  0.85912362  0.50587763  0.42261642  1
  O  O60  1  0.35789431  0.49804120  0.07625830  1
  O  O61  1  0.13894949  0.64354232  0.07638080  1
  O  O62  1  0.51000300  0.86863757  0.07768347  1
  O  O63  1  0.35863357  0.86863757  0.57768347  1
  O  O64  1  0.50459183  0.64354232  0.57638080  1
  O  O65  1  0.14014589  0.49804120  0.57625830  1
  O  O66  1  0.31342102  0.83921163  0.25595042  1
  O  O67  1  0.53312992  0.68850080  0.25682236  1
  O  O68  1  0.16542103  0.47244501  0.25690213  1
  O  O69  1  0.30702298  0.47244501  0.75690213  1
  O  O70  1  0.15536987  0.68850080  0.75682236  1
  O  O71  1  0.52578962  0.83921163  0.75595042  1
loop_
_geom_bond_atom_site_label_1
_geom_bond_atom_site_label_2
_geom_bond_distance
_geom_bond_site_symmetry_2
Na0 O44 2.570032 1_555
Na0 O42 2.599886 1_565
Na0 O37 2.672826 1_555
Na0 O43 2.691846 1_665
Na0 O36 2.703373 1_655
Na0 O38 2.768973 1_665
Na1 O45 2.570032 1_455
Na1 O47 2.599886 1_565
Na1 O40 2.672826 1_554
Na1 O46 2.691846 1_465
Na1 O41 2.703373 1_454
Na1 O39 2.768973 1_564
Na2 O56 2.570032 1_555
Na2 O54 2.599886 1_555
Na2 O49 2.672826 1_555
Na2 O55 2.691846 1_555
Na2 O48 2.703373 1_555
Na2 O50 2.768973 1_555
Na3 O57 2.570032 1_555
Na3 O59 2.599886 1_555
Na3 O52 2.672826 1_555
Na3 O58 2.691846 1_555
Na3 O53 2.703373 1_555
Na3 O51 2.768973 1_555
Na4 O68 2.570032 1_555
Na4 O66 2.599886 1_555
Na4 O61 2.672826 1_555
Na4 O67 2.691846 1_555
Na4 O60 2.703373 1_555
Na4 O62 2.768973 1_555
Na5 O69 2.570032 1_555
Na5 O71 2.599886 1_555
Na5 O64 2.672826 1_555
Na5 O70 2.691846 1_555
Na5 O65 2.703373 1_555
Na5 O63 2.768973 1_555
O0 P0 1.556352 1_545
O0 Zr0 2.069973 1_555
O1 S0 1.493630 1_555
O1 Zr0 2.144190 1_665
O2 P1 1.565070 1_655
O2 Zr0 2.043776 1_655
O3 P2 1.565070 1_555
O3 Zr1 2.043776 1_555
O4 S1 1.493630 1_655
O4 Zr1 2.144190 1_665
O5 P3 1.556352 1_545
O5 Zr1 2.069973 1_655
O6 P3 1.528841 1_555
O6 Sc0 1.986174 1_565
O7 P2 1.526652 1_555
O7 Sc0 2.042024 1_455
O8 S1 1.462298 1_555
O8 Sc0 2.221338 1_465
O9 S0 1.462298 1_555
O9 Sc1 2.221338 1_665
O10 P1 1.526652 1_555
O10 Sc1 2.042024 1_555
O11 P0 1.528841 1_555
O11 Sc1 1.986174 1_565
O12 P4 1.556352 1_555
O12 Zr2 2.069973 1_555
O13 S2 1.493630 1_555
O13 Zr2 2.144190 1_555
O14 P5 1.565070 1_555
O14 Zr2 2.043776 1_555
O15 P6 1.565070 1_555
O15 Zr3 2.043776 1_555
O16 S3 1.493630 1_555
O16 Zr3 2.144190 1_555
O17 P7 1.556352 1_555
O17 Zr3 2.069973 1_555
O18 P7 1.528841 1_555
O18 Sc2 1.986174 1_554
O19 P6 1.526652 1_555
O19 Sc2 2.042024 1_554
O20 S3 1.462298 1_555
O20 Sc2 2.221338 1_554
O21 S2 1.462298 1_555
O21 Sc3 2.221338 1_555
O22 P5 1.526652 1_555
O22 Sc3 2.042024 1_555
O23 P4 1.528841 1_555
O23 Sc3 1.986174 1_555
O24 P8 1.556352 1_555
O24 Zr4 2.069973 1_556
O25 S4 1.493630 1_555
O25 Zr4 2.144190 1_556
O26 P9 1.565070 1_555
O26 Zr4 2.043776 1_556
O27 P10 1.565070 1_555
O27 Zr5 2.043776 1_555
O28 S5 1.493630 1_555
O28 Zr5 2.144190 1_555
O29 P11 1.556352 1_555
O29 Zr5 2.069973 1_555
O30 P11 1.528841 1_555
O30 Sc4 1.986174 1_555
O31 P10 1.526652 1_555
O31 Sc4 2.042024 1_555
O32 S5 1.462298 1_555
O32 Sc4 2.221338 1_555
O33 S4 1.462298 1_555
O33 Sc5 2.221338 1_555
O34 P9 1.526652 1_555
O34 Sc5 2.042024 1_555
O35 P8 1.528841 1_555
O35 Sc5 1.986174 1_555
O36 P11 1.557709 1_555
O36 Zr0 2.110091 1_565
O37 P10 1.566528 1_555
O37 Zr0 2.094373 1_665
O38 S5 1.503667 1_555
O38 Zr0 2.154600 1_555
O39 S4 1.503670 1_555
O39 Zr1 2.154600 1_555
O40 P9 1.566520 1_555
O40 Zr1 2.094373 1_565
O41 P8 1.557714 1_555
O41 Zr1 2.110091 1_665
O42 P4 1.535815 1_555
O42 Sc0 2.039881 1_555
O43 S2 1.467365 1_555
O43 Sc0 2.241684 1_455
O44 P5 1.531814 1_555
O44 Sc0 2.111544 1_565
O45 P6 1.531818 1_555
O45 Sc1 2.111544 1_665
O46 S3 1.467356 1_555
O46 Sc1 2.241684 1_655
O47 P7 1.535820 1_555
O47 Sc1 2.039881 1_555
O48 P3 1.557709 1_545
O48 Zr2 2.110091 1_555
O49 P2 1.566528 1_555
O49 Zr2 2.094373 1_555
O50 S1 1.503667 1_655
O50 Zr2 2.154600 1_555
O51 S0 1.503670 1_555
O51 Zr3 2.154600 1_555
O52 P1 1.566520 1_655
O52 Zr3 2.094373 1_555
O53 P0 1.557714 1_545
O53 Zr3 2.110091 1_555
O54 P8 1.535827 1_555
O54 Sc2 2.039881 1_555
O55 S4 1.467350 1_655
O55 Sc2 2.241684 1_555
O56 P9 1.531810 1_545
O56 Sc2 2.111544 1_555
O57 P10 1.531802 1_545
O57 Sc3 2.111544 1_555
O58 S5 1.467367 1_555
O58 Sc3 2.241684 1_555
O59 P11 1.535816 1_655
O59 Sc3 2.039881 1_555
O60 P7 1.557721 1_555
O60 Zr4 2.110091 1_555
O61 P6 1.566514 1_455
O61 Zr4 2.094373 1_555
O62 S3 1.503664 1_565
O62 Zr4 2.154600 1_555
O63 S2 1.503656 1_565
O63 Zr5 2.154600 1_555
O64 P5 1.566531 1_555
O64 Zr5 2.094373 1_555
O65 P4 1.557711 1_455
O65 Zr5 2.110091 1_555
O66 P0 1.535815 1_555
O66 Sc4 2.039881 1_555
O67 S0 1.467365 1_555
O67 Sc4 2.241684 1_555
O68 P1 1.531814 1_555
O68 Sc4 2.111544 1_555
O69 P2 1.531818 1_555
O69 Sc5 2.111544 1_555
O70 S1 1.467356 1_555
O70 Sc5 2.241684 1_555
O71 P3 1.535820 1_555
O71 Sc5 2.039881 1_555
