# generated using pymatgen
data_Sr4MgMn4O10
_symmetry_space_group_name_H-M   'P 1'
_cell_length_a   5.81480835
_cell_length_b   5.95750275
_cell_length_c   8.96211506
_cell_angle_alpha   105.23158484
_cell_angle_beta   110.22930065
_cell_angle_gamma   94.89279196
_symmetry_Int_Tables_number   1
_chemical_formula_structural   Sr4MgMn4O10
_chemical_formula_sum   'Sr4 Mg1 Mn4 O10'
_cell_volume   275.70885582
_cell_formula_units_Z   1
loop_
 _symmetry_equiv_pos_site_id
 _symmetry_equiv_pos_as_xyz
  1  'x, y, z'
loop_
 _atom_site_type_symbol
 _atom_site_label
 _atom_site_symmetry_multiplicity
 _atom_site_fract_x
 _atom_site_fract_y
 _atom_site_fract_z
 _atom_site_occupancy
  Sr  Sr0  1  0.60152300  0.15834500  0.20578100  1
  Sr  Sr1  1  0.35845000  0.89267500  0.77483700  1
  Sr  Sr2  1  0.19360700  0.55029000  0.18296700  1
  Sr  Sr3  1  0.89366300  0.40603200  0.76165900  1
  Mg  Mg0  1  0.91211700  0.82091400  0.33234900  1
  Mn  Mn0  1  0.00478700  0.00168300  0.00373500  1
  Mn  Mn1  1  0.52239600  0.49686900  0.96932700  1
  Mn  Mn2  1  0.23783100  0.22761500  0.49207000  1
  Mn  Mn3  1  0.65109400  0.83118900  0.53018100  1
  O  O0  1  0.24503800  0.23114500  0.96142600  1
  O  O1  1  0.30150000  0.72538400  0.99083200  1
  O  O2  1  0.74181700  0.26352900  0.97786600  1
  O  O3  1  0.82354900  0.77700900  0.08393400  1
  O  O4  1  0.17954900  0.17275000  0.24798600  1
  O  O5  1  0.85535000  0.83185400  0.76221200  1
  O  O6  1  0.65599500  0.58411800  0.32336000  1
  O  O7  1  0.42230100  0.44651800  0.71809200  1
  O  O8  1  0.85736800  0.10870500  0.48183200  1
  O  O9  1  0.27482800  0.85432700  0.47098500  1
loop_
_geom_bond_atom_site_label_1
_geom_bond_atom_site_label_2
_geom_bond_distance
_geom_bond_site_symmetry_2
Mg0 O6 1.927054 1_555
Mg0 O8 2.004202 1_565
Mg0 O9 2.004459 1_655
Mg0 O3 2.041639 1_555
Mn0 O5 1.965349 1_444
Mn0 O4 1.993949 1_555
Mn0 O3 2.051223 1_445
Mn0 O0 2.068112 1_554
Mn0 O2 2.275338 1_454
Mn0 O1 2.494400 1_544
Mn1 O2 1.963957 1_555
Mn1 O1 1.967734 1_555
Mn1 O7 2.051213 1_555
Mn1 O3 2.064879 1_556
Mn1 O0 2.130432 1_555
Mn2 O7 1.955818 1_555
Mn2 O4 2.024750 1_555
Mn2 O9 2.217313 1_545
Mn2 O8 2.227721 1_455
Mn3 O5 2.005439 1_555
Mn3 O6 2.052599 1_555
Mn3 O9 2.091550 1_555
Mn3 O8 2.181147 1_565
O0 Sr2 2.484070 1_556
O0 Sr1 2.552447 1_545
O0 Sr0 2.606512 1_556
O0 Sr3 2.697957 1_455
O1 Sr2 2.454796 1_556
O1 Sr1 2.500178 1_555
O1 Sr3 2.696441 1_455
O1 Sr0 2.775801 1_566
O2 Sr0 2.639713 1_556
O2 Sr3 2.678540 1_555
O2 Sr1 2.721015 1_545
O2 Sr2 2.728324 1_656
O3 Sr2 2.654676 1_655
O3 Sr0 2.862191 1_565
O4 Sr2 2.468875 1_555
O4 Sr0 2.613765 1_555
O5 Sr3 2.564324 1_555
O5 Sr1 2.875929 1_655
O5 Sr1 2.979217 1_555
O6 Sr0 2.423315 1_555
O6 Sr2 2.507517 1_555
O7 Sr1 2.655185 1_555
O7 Sr3 2.673053 1_555
O8 Sr0 2.517049 1_555
O8 Sr3 2.589883 1_555
O9 Sr1 2.538240 1_555
O9 Sr2 2.592501 1_555
