# generated using pymatgen
data_MgFe6(OF)6
_symmetry_space_group_name_H-M   'P 1'
_cell_length_a   7.58389067
_cell_length_b   15.65639643
_cell_length_c   3.08509826
_cell_angle_alpha   90.00000000
_cell_angle_beta   90.00000000
_cell_angle_gamma   139.31812811
_symmetry_Int_Tables_number   1
_chemical_formula_structural   MgFe6(OF)6
_chemical_formula_sum   'Mg1 Fe6 O6 F6'
_cell_volume   238.78454134
_cell_formula_units_Z   1
loop_
 _symmetry_equiv_pos_site_id
 _symmetry_equiv_pos_as_xyz
  1  'x, y, z'
loop_
 _atom_site_type_symbol
 _atom_site_label
 _atom_site_symmetry_multiplicity
 _atom_site_fract_x
 _atom_site_fract_y
 _atom_site_fract_z
 _atom_site_occupancy
  Mg  Mg0  1  0.98765946  0.83461069  0.50000000  1
  Fe  Fe0  1  0.01980703  0.03070975  0.00000000  1
  Fe  Fe1  1  0.03286283  0.33446834  0.00000000  1
  Fe  Fe2  1  0.04045231  0.68257318  -0.00000000  1
  Fe  Fe3  1  0.43694175  0.32790241  0.50000000  1
  Fe  Fe4  1  0.29078063  0.59752805  0.50000000  1
  Fe  Fe5  1  0.55025852  0.99082665  0.50000000  1
  O  O0  1  0.20391391  0.33585740  0.50000000  1
  O  O1  1  0.20028334  0.68690744  0.50000000  1
  O  O2  1  0.32495546  0.22037181  -0.00000000  1
  O  O3  1  0.27228095  0.51950852  0.00000000  1
  O  O4  1  0.22598377  0.86337150  -0.00000000  1
  O  O5  1  0.82045744  -0.00406323  0.50000000  1
  F  F0  1  0.20334207  0.02166191  0.50000000  1
  F  F1  1  0.70888015  0.47130756  -0.00000000  1
  F  F2  1  0.80013739  0.82460248  -0.00000000  1
  F  F3  1  0.72394306  0.12847090  0.00000000  1
  F  F4  1  0.81624918  0.30736760  0.50000000  1
  F  F5  1  0.80414174  0.65472305  0.50000000  1
loop_
_geom_bond_atom_site_label_1
_geom_bond_atom_site_label_2
_geom_bond_distance
_geom_bond_site_symmetry_2
Mg0 O4 2.148169 1_655
Mg0 O4 2.148169 1_656
Fe0 O5 1.926961 1_454
Fe0 O5 1.926961 1_455
Fe0 O2 1.936649 1_555
Fe1 O3 1.926572 1_555
Fe1 O0 2.004983 1_555
Fe1 O0 2.004983 1_554
Fe2 O1 1.930957 1_554
Fe2 O1 1.930957 1_555
Fe2 O4 1.987871 1_555
Fe3 O0 1.863476 1_555
Fe3 O2 1.940744 1_555
Fe3 O2 1.940744 1_556
Fe4 O3 1.905595 1_556
Fe4 O3 1.905595 1_555
Fe4 O1 1.971263 1_555
Fe5 O5 1.989171 1_565
Fe5 O4 2.228542 1_555
Fe5 O4 2.228542 1_556
F0 Mg0 1.996659 1_445
F0 Fe0 2.153134 1_556
F0 Fe0 2.153134 1_555
F1 Fe2 2.156134 1_655
F1 Fe3 2.156585 1_555
F1 Fe3 2.156585 1_554
F2 Mg0 2.022013 1_554
F2 Mg0 2.022013 1_555
F2 Fe0 2.243837 1_665
F3 Fe1 2.104880 1_655
F3 Fe5 2.110290 1_545
F3 Fe5 2.110290 1_544
F4 Fe1 2.049640 1_656
F4 Fe1 2.049640 1_655
F5 Mg0 1.980918 1_555
F5 Fe2 2.143876 1_656
F5 Fe2 2.143876 1_655
