# generated using pymatgen
data_DyCl3
_symmetry_space_group_name_H-M   'P 1'
_cell_length_a   3.78620423
_cell_length_b   6.39533376
_cell_length_c   8.51747898
_cell_angle_alpha   89.99997950
_cell_angle_beta   89.99999943
_cell_angle_gamma   107.22117699
_symmetry_Int_Tables_number   1
_chemical_formula_structural   DyCl3
_chemical_formula_sum   'Dy2 Cl6'
_cell_volume   196.99651373
_cell_formula_units_Z   2
loop_
 _symmetry_equiv_pos_site_id
 _symmetry_equiv_pos_as_xyz
  1  'x, y, z'
loop_
 _atom_site_type_symbol
 _atom_site_label
 _atom_site_symmetry_multiplicity
 _atom_site_fract_x
 _atom_site_fract_y
 _atom_site_fract_z
 _atom_site_occupancy
  Dy  Dy0  1  0.24244102  0.48485208  0.75000011  1
  Dy  Dy1  1  0.75756201  0.51514813  0.25000018  1
  Cl  Cl0  1  0.59084263  0.18185074  0.75000017  1
  Cl  Cl1  1  0.40915738  0.81814899  0.25000002  1
  Cl  Cl2  1  0.15109118  0.30225270  0.43230348  1
  Cl  Cl3  1  0.84890686  0.69774744  0.56769678  1
  Cl  Cl4  1  0.84890678  0.69774728  0.93230331  1
  Cl  Cl5  1  0.15109115  0.30225264  0.06769697  1
loop_
_geom_bond_atom_site_label_1
_geom_bond_atom_site_label_2
_geom_bond_distance
_geom_bond_site_symmetry_2
Cl0 Dy0 2.647395 1_555
Cl0 Dy0 2.647790 1_655
Cl1 Dy1 2.647400 1_555
Cl1 Dy1 2.647781 1_455
Cl2 Dy1 2.772386 1_455
Cl2 Dy1 2.772416 1_555
Cl2 Dy0 2.926856 1_555
Cl3 Dy0 2.772399 1_655
Cl3 Dy0 2.772403 1_555
Cl3 Dy1 2.926856 1_555
Cl4 Dy0 2.772398 1_655
Cl4 Dy0 2.772403 1_555
Cl4 Dy1 2.926857 1_556
Cl5 Dy1 2.772386 1_455
Cl5 Dy1 2.772416 1_555
Cl5 Dy0 2.926857 1_554
