# generated using pymatgen
data_YAsS
_symmetry_space_group_name_H-M   'P 1'
_cell_length_a   3.83528300
_cell_length_b   3.85285900
_cell_length_c   8.53221900
_cell_angle_alpha   90.00000000
_cell_angle_beta   90.00000000
_cell_angle_gamma   90.00000000
_symmetry_Int_Tables_number   1
_chemical_formula_structural   YAsS
_chemical_formula_sum   'Y2 As2 S2'
_cell_volume   126.07893317
_cell_formula_units_Z   2
loop_
 _symmetry_equiv_pos_site_id
 _symmetry_equiv_pos_as_xyz
  1  'x, y, z'
loop_
 _atom_site_type_symbol
 _atom_site_label
 _atom_site_symmetry_multiplicity
 _atom_site_fract_x
 _atom_site_fract_y
 _atom_site_fract_z
 _atom_site_occupancy
  Y  Y0  1  0.25000000  0.75000000  0.29161800  1
  Y  Y1  1  0.75000000  0.25000000  0.70838200  1
  As  As0  1  0.75000000  0.75000000  0.99595200  1
  As  As1  1  0.25000000  0.25000000  0.00404800  1
  S  S0  1  0.25000000  0.75000000  0.62652400  1
  S  S1  1  0.75000000  0.25000000  0.37347600  1
loop_
_geom_bond_atom_site_label_1
_geom_bond_atom_site_label_2
_geom_bond_distance
_geom_bond_site_symmetry_2
As0 As1 2.719053 1_666
As0 As1 2.719053 1_556
As0 As1 2.719053 1_656
As0 As1 2.719053 1_566
As0 Y1 3.119509 1_565
As0 Y1 3.119509 1_555
As0 Y0 3.168801 1_656
As0 Y0 3.168801 1_556
As1 Y0 3.119509 1_545
As1 Y0 3.119509 1_555
As1 Y1 3.168801 1_454
As1 Y1 3.168801 1_554
S0 Y1 2.806472 1_565
S0 Y1 2.806472 1_465
S0 Y1 2.806472 1_555
S0 Y1 2.806472 1_455
S0 Y0 2.857491 1_555
S1 Y0 2.806472 1_545
S1 Y0 2.806472 1_655
S1 Y0 2.806472 1_555
S1 Y0 2.806472 1_645
S1 Y1 2.857491 1_555
