# generated using pymatgen
data_Sr2YMgSbO6
_symmetry_space_group_name_H-M   'P 1'
_cell_length_a   6.24740077
_cell_length_b   6.51541211
_cell_length_c   6.51541131
_cell_angle_alpha   55.74698101
_cell_angle_beta   61.35165899
_cell_angle_gamma   61.35165059
_symmetry_Int_Tables_number   1
_chemical_formula_structural   Sr2YMgSbO6
_chemical_formula_sum   'Sr2 Y1 Mg1 Sb1 O6'
_cell_volume   184.16788352
_cell_formula_units_Z   1
loop_
 _symmetry_equiv_pos_site_id
 _symmetry_equiv_pos_as_xyz
  1  'x, y, z'
loop_
 _atom_site_type_symbol
 _atom_site_label
 _atom_site_symmetry_multiplicity
 _atom_site_fract_x
 _atom_site_fract_y
 _atom_site_fract_z
 _atom_site_occupancy
  Sr  Sr0  1  0.31809400  0.18190600  0.18190600  1
  Sr  Sr1  1  0.68190600  0.81809400  0.81809400  1
  Y  Y0  1  0.00000000  0.00000000  0.00000000  1
  Mg  Mg0  1  0.00000000  0.50000000  0.50000000  1
  Sb  Sb0  1  0.50000000  0.50000000  0.50000000  1
  O  O0  1  0.24761900  0.75238100  0.75238100  1
  O  O1  1  0.23759700  0.73801200  0.26198800  1
  O  O2  1  0.76240300  0.26198800  0.73801200  1
  O  O3  1  0.23759700  0.26198800  0.73801200  1
  O  O4  1  0.75238100  0.24761900  0.24761900  1
  O  O5  1  0.76240300  0.73801200  0.26198800  1
loop_
_geom_bond_atom_site_label_1
_geom_bond_atom_site_label_2
_geom_bond_distance
_geom_bond_site_symmetry_2
Mg0 O3 2.075059 1_555
Mg0 O5 2.075059 1_455
Mg0 O1 2.075060 1_555
Mg0 O2 2.075060 1_455
Mg0 Sr1 3.078415 1_455
Mg0 Sr0 3.078415 1_555
O0 Y0 2.396380 1_566
O0 Sb0 2.442465 1_555
O0 Sr0 3.121513 1_565
O0 Sr0 3.121513 1_556
O0 Sr1 3.187779 1_555
O0 Sr1 3.187779 1_455
O1 Y0 2.179633 1_565
O1 Sb0 2.188598 1_555
O1 Sr1 2.886868 1_554
O1 Sr0 2.886868 1_565
O2 Y0 2.179633 1_656
O2 Sb0 2.188598 1_555
O2 Sr0 2.886868 1_556
O2 Sr1 2.886868 1_545
O3 Y0 2.179634 1_556
O3 Sb0 2.188598 1_555
O3 Sr0 2.886867 1_556
O3 Sr1 2.886867 1_545
O4 Y0 2.396380 1_655
O4 Sb0 2.442465 1_555
O4 Sr1 3.121513 1_545
O4 Sr1 3.121513 1_554
O4 Sr0 3.187779 1_555
O4 Sr0 3.187779 1_655
O5 Y0 2.179634 1_665
O5 Sb0 2.188598 1_555
O5 Sr1 2.886867 1_554
O5 Sr0 2.886867 1_565
