# generated using pymatgen
data_Na2GaCuF7
_symmetry_space_group_name_H-M   'P 1'
_cell_length_a   7.29760092
_cell_length_b   7.29760092
_cell_length_c   13.00354172
_cell_angle_alpha   73.02895365
_cell_angle_beta   73.02895365
_cell_angle_gamma   61.13685068
_symmetry_Int_Tables_number   1
_chemical_formula_structural   Na2GaCuF7
_chemical_formula_sum   'Na8 Ga4 Cu4 F28'
_cell_volume   570.56506122
_cell_formula_units_Z   4
loop_
 _symmetry_equiv_pos_site_id
 _symmetry_equiv_pos_as_xyz
  1  'x, y, z'
loop_
 _atom_site_type_symbol
 _atom_site_label
 _atom_site_symmetry_multiplicity
 _atom_site_fract_x
 _atom_site_fract_y
 _atom_site_fract_z
 _atom_site_occupancy
  Na  Na0  1  0.28076400  0.21408400  0.24747400  1
  Na  Na1  1  0.21408400  0.28076400  0.74747400  1
  Na  Na2  1  0.26933700  0.73066300  0.25000000  1
  Na  Na3  1  0.78591600  0.71923600  0.25252600  1
  Na  Na4  1  0.50000000  0.50000000  0.50000000  1
  Na  Na5  1  0.71923600  0.78591500  0.75252600  1
  Na  Na6  1  0.73066300  0.26933700  0.75000000  1
  Na  Na7  1  0.50000000  0.50000000  0.00000000  1
  Ga  Ga0  1  0.25539100  0.74460900  0.75000000  1
  Ga  Ga1  1  0.74460900  0.25539100  0.25000000  1
  Ga  Ga2  1  0.50000000  0.00000000  0.00000000  1
  Ga  Ga3  1  0.00000000  0.50000000  0.50000000  1
  Cu  Cu0  1  0.00000000  0.00000000  0.00000000  1
  Cu  Cu1  1  0.00000000  0.00000000  0.50000000  1
  Cu  Cu2  1  0.50000000  0.00000000  0.50000000  1
  Cu  Cu3  1  0.00000000  0.50000000  0.00000000  1
  F  F0  1  0.98158500  0.11456300  0.32480100  1
  F  F1  1  0.29908400  0.95141100  0.44926500  1
  F  F2  1  0.91208800  0.50683300  0.65642000  1
  F  F3  1  0.58523500  0.09916100  0.34544800  1
  F  F4  1  0.09953900  0.71920200  0.46520600  1
  F  F5  1  0.70091600  0.04858900  0.55073500  1
  F  F6  1  0.90046100  0.28079800  0.53479400  1
  F  F7  1  0.71920200  0.09953900  0.96520600  1
  F  F8  1  0.50683300  0.91208800  0.15642000  1
  F  F9  1  0.04858900  0.70091600  0.05073500  1
  F  F10  1  0.49316700  0.08791200  0.84358000  1
  F  F11  1  0.01841500  0.88543700  0.67519900  1
  F  F12  1  0.28079800  0.90046100  0.03479400  1
  F  F13  1  0.09916100  0.58523500  0.84544800  1
  F  F14  1  0.27619700  0.31504700  0.53184100  1
  F  F15  1  0.68495300  0.72380300  0.96815900  1
  F  F16  1  0.90083900  0.41476500  0.15455200  1
  F  F17  1  0.49170600  0.60058100  0.82593000  1
  F  F18  1  0.60058100  0.49170600  0.32593000  1
  F  F19  1  0.88543700  0.01841500  0.17519900  1
  F  F20  1  0.72380300  0.68495300  0.46815900  1
  F  F21  1  0.39941900  0.50829400  0.67407000  1
  F  F22  1  0.08791200  0.49316700  0.34358000  1
  F  F23  1  0.31504700  0.27619700  0.03184100  1
  F  F24  1  0.41476500  0.90083900  0.65455200  1
  F  F25  1  0.50829400  0.39941900  0.17407000  1
  F  F26  1  0.95141100  0.29908400  0.94926500  1
  F  F27  1  0.11456300  0.98158500  0.82480100  1
loop_
_geom_bond_atom_site_label_1
_geom_bond_atom_site_label_2
_geom_bond_distance
_geom_bond_site_symmetry_2
Cu0 F7 1.960537 1_454
Cu0 F12 1.960537 1_545
Cu0 F26 1.968121 1_454
Cu0 F9 1.968121 1_545
Cu0 F19 2.205812 1_455
Cu0 F27 2.205812 1_544
Cu1 F6 1.960537 1_455
Cu1 F4 1.960537 1_545
Cu1 F5 1.968121 1_455
Cu1 F1 1.968121 1_545
Cu1 F0 2.205812 1_455
Cu1 F11 2.205812 1_545
Cu2 F3 1.950727 1_555
Cu2 F24 1.950727 1_545
Cu2 F1 1.978361 1_545
Cu2 F5 1.978361 1_555
Cu2 F20 2.158809 1_545
Cu2 F14 2.158809 1_555
Cu3 F16 1.950727 1_455
Cu3 F13 1.950727 1_554
Cu3 F26 1.978361 1_454
Cu3 F9 1.978361 1_555
Cu3 F15 2.158809 1_454
Cu3 F23 2.158809 1_555
F0 Ga1 1.917166 1_555
F0 Na0 2.475524 1_655
F0 Na2 2.814805 1_645
F1 Na0 2.756577 1_565
F1 Na4 2.840734 1_555
F2 Ga3 1.953926 1_655
F2 Na5 2.319956 1_555
F2 Na1 2.419378 1_655
F2 Na6 2.506210 1_555
F3 Ga1 1.950485 1_555
F3 Na0 2.548151 1_555
F3 Na3 2.879999 1_545
F4 Ga3 1.949020 1_555
F4 Na4 2.672107 1_555
F4 Na2 2.704218 1_555
F5 Na5 2.756580 1_545
F5 Na4 2.840734 1_555
F6 Ga3 1.949020 1_655
F6 Na4 2.672107 1_555
F6 Na6 2.704218 1_555
F7 Ga2 1.949020 1_556
F7 Na7 2.672107 1_556
F7 Na6 2.704218 1_555
F8 Ga2 1.953926 1_565
F8 Na3 2.319961 1_555
F8 Na0 2.419378 1_565
F8 Na2 2.506210 1_555
F9 Na3 2.756577 1_455
F9 Na7 2.840734 1_555
F10 Ga2 1.953926 1_556
F10 Na1 2.319961 1_555
F10 Na5 2.419384 1_545
F10 Na6 2.506210 1_555
F11 Ga0 1.917166 1_555
F11 Na5 2.475529 1_455
F11 Na6 2.814805 1_465
F12 Ga2 1.949020 1_565
F12 Na7 2.672107 1_555
F12 Na2 2.704218 1_555
F13 Ga0 1.950485 1_555
F13 Na1 2.548151 1_555
F13 Na5 2.880000 1_455
F14 Ga3 1.894789 1_555
F14 Na4 2.463285 1_555
F14 Na1 2.662407 1_555
F15 Ga2 1.894789 1_566
F15 Na7 2.463285 1_556
F15 Na5 2.662408 1_555
F16 Ga1 1.950485 1_555
F16 Na3 2.548151 1_555
F16 Na0 2.879999 1_655
F17 Ga0 1.921422 1_555
F17 Na7 2.175582 1_556
F17 Na5 2.446747 1_555
F17 Na6 2.485481 1_555
F18 Ga1 1.921422 1_555
F18 Na4 2.175582 1_555
F18 Na3 2.446752 1_555
F18 Na2 2.485481 1_555
F19 Ga1 1.917166 1_555
F19 Na3 2.475524 1_545
F19 Na2 2.814805 1_645
F20 Ga3 1.894789 1_655
F20 Na4 2.463285 1_555
F20 Na3 2.662407 1_555
F21 Ga0 1.921422 1_555
F21 Na4 2.175582 1_555
F21 Na1 2.446752 1_555
F21 Na6 2.485481 1_555
F22 Ga3 1.953926 1_555
F22 Na0 2.319961 1_555
F22 Na3 2.419378 1_455
F22 Na2 2.506210 1_555
F23 Ga2 1.894789 1_555
F23 Na7 2.463285 1_555
F23 Na0 2.662407 1_555
F24 Ga0 1.950485 1_555
F24 Na5 2.548149 1_555
F24 Na1 2.879999 1_565
F25 Ga1 1.921422 1_555
F25 Na7 2.175582 1_555
F25 Na0 2.446752 1_555
F25 Na2 2.485481 1_555
F26 Na1 2.756577 1_655
F26 Na7 2.840734 1_556
F27 Ga0 1.917166 1_555
F27 Na1 2.475524 1_565
F27 Na6 2.814805 1_465
