# generated using pymatgen
data_MgFe6(O5F)2
_symmetry_space_group_name_H-M   'P 1'
_cell_length_a   5.12876273
_cell_length_b   7.65455505
_cell_length_c   5.70624627
_cell_angle_alpha   98.63960700
_cell_angle_beta   97.44886697
_cell_angle_gamma   84.63941471
_symmetry_Int_Tables_number   1
_chemical_formula_structural   MgFe6(O5F)2
_chemical_formula_sum   'Mg1 Fe6 O10 F2'
_cell_volume   218.98134048
_cell_formula_units_Z   1
loop_
 _symmetry_equiv_pos_site_id
 _symmetry_equiv_pos_as_xyz
  1  'x, y, z'
loop_
 _atom_site_type_symbol
 _atom_site_label
 _atom_site_symmetry_multiplicity
 _atom_site_fract_x
 _atom_site_fract_y
 _atom_site_fract_z
 _atom_site_occupancy
  Mg  Mg0  1  0.03562301  0.49083986  0.00354051  1
  Fe  Fe0  1  0.55040288  0.69944100  0.11505015  1
  Fe  Fe1  1  0.43384014  0.97791749  0.53486475  1
  Fe  Fe2  1  0.54887623  0.33889360  0.80100216  1
  Fe  Fe3  1  0.98193459  0.68290949  0.63662143  1
  Fe  Fe4  1  0.96302110  0.30202890  0.37708645  1
  Fe  Fe5  1  0.99420804  0.99047833  -0.00168818  1
  O  O0  1  0.83533154  0.43362695  0.65771137  1
  O  O1  1  0.84728621  0.74675152  0.95710957  1
  O  O2  1  0.83943176  0.08145331  0.27328092  1
  O  O3  1  0.68979877  0.09458779  0.79649873  1
  O  O4  1  0.66551340  0.76552458  0.45479354  1
  O  O5  1  0.70388689  0.43424635  0.12082869  1
  O  O6  1  0.32528275  0.56097158  0.85125522  1
  O  O7  1  0.31142629  0.22940157  0.54860119  1
  O  O8  1  0.30388250  0.90244762  0.19540886  1
  O  O9  1  0.16846152  0.89913174  0.71223225  1
  F  F0  1  0.16565198  0.24475284  0.05183366  1
  F  F1  1  0.15003039  0.54959448  0.35444471  1
loop_
_geom_bond_atom_site_label_1
_geom_bond_atom_site_label_2
_geom_bond_distance
_geom_bond_site_symmetry_2
Mg0 O6 1.968295 1_554
Mg0 O5 2.012561 1_455
Mg0 O0 2.107151 1_454
Mg0 O1 2.139276 1_454
Fe0 O8 1.947476 1_555
Fe0 O1 1.954158 1_554
Fe0 O4 1.956332 1_555
Fe0 O6 2.005258 1_554
Fe0 O5 2.110981 1_555
Fe1 O4 1.954575 1_555
Fe1 O7 1.961516 1_565
Fe1 O8 1.982681 1_555
Fe1 O9 1.983546 1_555
Fe1 O3 2.014965 1_565
Fe2 O7 1.906084 1_555
Fe2 O3 1.938549 1_555
Fe2 O5 1.956390 1_556
Fe2 O6 1.965082 1_555
Fe2 O0 2.010343 1_555
Fe3 O4 1.918035 1_555
Fe3 O9 1.953183 1_655
Fe3 O1 2.013966 1_555
Fe3 O0 2.140415 1_555
Fe3 O6 2.224704 1_655
Fe4 O2 1.845403 1_555
Fe4 O0 1.916199 1_555
Fe4 O7 1.996071 1_655
Fe4 O5 2.149013 1_555
Fe5 O2 1.862350 1_565
Fe5 O8 1.950915 1_655
Fe5 O9 1.967501 1_654
Fe5 O3 1.993940 1_564
Fe5 O1 2.046600 1_554
F0 Mg0 1.985583 1_555
F0 Fe5 2.174005 1_445
F0 Fe4 2.210744 1_455
F1 Mg0 2.007504 1_555
F1 Fe3 2.019689 1_455
F1 Fe4 2.230011 1_455
