# generated using pymatgen
data_Na4HfZn3P2(SO6)4
_symmetry_space_group_name_H-M   'P 1'
_cell_length_a   8.88292232
_cell_length_b   8.88088026
_cell_length_c   22.59552051
_cell_angle_alpha   90.21216274
_cell_angle_beta   90.25645400
_cell_angle_gamma   120.12620202
_symmetry_Int_Tables_number   1
_chemical_formula_structural   Na4HfZn3P2(SO6)4
_chemical_formula_sum   'Na12 Hf3 Zn9 P6 S12 O72'
_cell_volume   1541.68816710
_cell_formula_units_Z   3
loop_
 _symmetry_equiv_pos_site_id
 _symmetry_equiv_pos_as_xyz
  1  'x, y, z'
loop_
 _atom_site_type_symbol
 _atom_site_label
 _atom_site_symmetry_multiplicity
 _atom_site_fract_x
 _atom_site_fract_y
 _atom_site_fract_z
 _atom_site_occupancy
  Na  Na0  1  0.63208093  0.99665324  0.25372183  1
  Na  Na1  1  0.36425942  0.36447230  0.24993384  1
  Na  Na2  1  0.30579638  0.33930829  0.59130817  1
  Na  Na3  1  0.66757546  0.95857875  0.58339494  1
  Na  Na4  1  0.97811787  0.68119183  0.91213186  1
  Na  Na5  1  0.32144968  0.29576167  0.90911733  1
  Na  Na6  1  0.98602339  0.97978297  0.49679295  1
  Na  Na7  1  0.98879317  0.00084364  0.99743846  1
  Na  Na8  1  0.65872266  0.32116141  0.82266928  1
  Na  Na9  1  0.67972707  0.33786244  0.33287937  1
  Na  Na10  1  0.32047957  0.66573138  0.16080324  1
  Na  Na11  1  0.32764670  0.66081588  0.66675187  1
  Hf  Hf0  1  0.66672960  0.32842411  0.98128346  1
  Hf  Hf1  1  0.66933025  0.33803112  0.48006596  1
  Hf  Hf2  1  0.33572453  0.66221270  0.81452833  1
  Zn  Zn0  1  0.98690815  0.99448653  0.35276264  1
  Zn  Zn1  1  0.00025497  0.00866903  0.84770886  1
  Zn  Zn2  1  0.99718841  0.99049802  0.65736661  1
  Zn  Zn3  1  0.00036456  0.99646114  0.14841190  1
  Zn  Zn4  1  0.65534150  0.34590950  0.68679563  1
  Zn  Zn5  1  0.67532901  0.34079826  0.17799038  1
  Zn  Zn6  1  0.33770615  0.66992508  0.01114499  1
  Zn  Zn7  1  0.34718636  0.67445234  0.51103587  1
  Zn  Zn8  1  0.33212594  0.67751538  0.32530977  1
  P  P0  1  0.29405292  0.29048159  0.74935899  1
  P  P1  1  0.66855302  0.63139481  0.58440036  1
  P  P2  1  0.63126798  0.67317099  0.91976245  1
  P  P3  1  0.04246520  0.37248354  0.91888587  1
  P  P4  1  0.33018998  0.95584358  0.91823785  1
  P  P5  1  0.63469570  0.96458214  0.41621326  1
  S  S0  1  0.29066481  0.99817649  0.24987672  1
  S  S1  1  0.70649365  0.70342396  0.24918991  1
  S  S2  1  0.00165154  0.29585109  0.24968497  1
  S  S3  1  -0.00031457  0.70275039  0.75124610  1
  S  S4  1  0.70461866  0.00342671  0.74846749  1
  S  S5  1  0.96212537  0.33790705  0.58448843  1
  S  S6  1  0.37296501  0.03810017  0.58352079  1
  S  S7  1  0.96621850  0.63202237  0.08449450  1
  S  S8  1  0.66579705  0.03422986  0.08674993  1
  S  S9  1  0.36842986  0.33371833  0.08559624  1
  S  S10  1  0.32912577  0.36785274  0.41586108  1
  S  S11  1  0.04258792  0.66950193  0.41702194  1
  O  O0  1  0.21027724  0.02697268  0.30270421  1
  O  O1  1  0.81046357  0.78210684  0.30319604  1
  O  O2  1  0.97080118  0.18556873  0.30255586  1
  O  O3  1  0.21041373  0.18887947  0.80619808  1
  O  O4  1  0.97770376  0.78107076  0.80605803  1
  O  O5  1  0.80885770  0.02130612  0.80116589  1
  O  O6  1  0.77358661  0.97134345  0.69283144  1
  O  O7  1  0.18832463  0.21388201  0.69131668  1
  O  O8  1  0.02655278  0.80710481  0.69794121  1
  O  O9  1  0.78612010  0.81304658  0.19644174  1
  O  O10  1  0.03144922  0.21633267  0.19611911  1
  O  O11  1  0.18913743  0.97709413  0.19543528  1
  O  O12  1  0.87857546  0.35665707  0.63727576  1
  O  O13  1  0.48477624  0.11753730  0.63603759  1
  O  O14  1  0.63310697  0.51255855  0.63725789  1
  O  O15  1  0.88100141  0.52582136  0.13728740  1
  O  O16  1  0.64599132  0.11543227  0.14188443  1
  O  O17  1  0.47124227  0.35258411  0.14037050  1
  O  O18  1  0.46334271  0.31571303  0.03234917  1
  O  O19  1  0.85573563  0.54015492  0.02989664  1
  O  O20  1  0.68400739  0.15014251  0.03464186  1
  O  O21  1  0.46431664  0.15150492  0.53010627  1
  O  O22  1  0.68799921  0.53697696  0.52830907  1
  O  O23  1  0.84849840  0.31364499  0.53060678  1
  O  O24  1  0.55272126  0.69908892  0.97510463  1
  O  O25  1  0.15458620  0.45183598  0.97380163  1
  O  O26  1  0.29741399  0.84600961  0.97311316  1
  O  O27  1  0.55163759  0.86058600  0.47269431  1
  O  O28  1  0.30752255  0.44841903  0.46998365  1
  O  O29  1  0.14413451  0.68715713  0.47062767  1
  O  O30  1  0.11101563  0.63329102  0.36268725  1
  O  O31  1  0.52768719  0.89096446  0.35833144  1
  O  O32  1  0.35809203  0.47242192  0.36160081  1
  O  O33  1  0.12627855  0.49405682  0.86411294  1
  O  O34  1  0.36109263  0.87082148  0.86308029  1
  O  O35  1  0.50811087  0.63241116  0.86483876  1
  O  O36  1  0.02245591  0.82383364  0.41161971  1
  O  O37  1  0.81744655  0.98659640  0.41206836  1
  O  O38  1  0.17892344  0.19043961  0.41046836  1
  O  O39  1  0.01859703  0.19154529  0.90987713  1
  O  O40  1  0.17345477  0.98396635  0.91066985  1
  O  O41  1  0.81679997  0.82132145  0.90950385  1
  O  O42  1  0.97531451  0.17639025  0.58492573  1
  O  O43  1  0.20404698  0.03212342  0.58603226  1
  O  O44  1  0.83024130  0.81567253  0.58831030  1
  O  O45  1  0.97354304  0.80235924  0.08673113  1
  O  O46  1  0.82826239  0.02618606  0.08779781  1
  O  O47  1  0.19708288  0.17125194  0.08670268  1
  O  O48  1  0.68534846  0.15851398  0.74346099  1
  O  O49  1  0.47753927  0.31285282  0.74682233  1
  O  O50  1  0.84827100  0.52452374  0.74590364  1
  O  O51  1  0.68020999  0.52315921  0.24340900  1
  O  O52  1  0.84071645  0.31006546  0.24337176  1
  O  O53  1  0.47111090  0.15937856  0.24559057  1
  O  O54  1  0.64105142  0.49824394  0.92545528  1
  O  O55  1  0.86144987  0.36440606  0.92487563  1
  O  O56  1  0.49584974  0.14338971  0.92457839  1
  O  O57  1  0.65086065  0.14973685  0.42385410  1
  O  O58  1  0.49267769  0.35416461  0.42221414  1
  O  O59  1  0.86144181  0.50912277  0.42269713  1
  O  O60  1  0.35370399  0.49009419  0.07999542  1
  O  O61  1  0.13784394  0.64807675  0.07910119  1
  O  O62  1  0.50928777  0.86301466  0.07978687  1
  O  O63  1  0.35358396  0.86364420  0.57553399  1
  O  O64  1  0.50030992  0.64643157  0.57750431  1
  O  O65  1  0.13795022  0.49112378  0.57658615  1
  O  O66  1  0.31611965  0.84431465  0.25447696  1
  O  O67  1  0.52737316  0.68358377  0.25400190  1
  O  O68  1  0.16106691  0.47089386  0.25679237  1
  O  O69  1  0.31247156  0.47782668  0.75539437  1
  O  O70  1  0.16272473  0.68904625  0.75638972  1
  O  O71  1  0.52524350  0.84244124  0.75512871  1
loop_
_geom_bond_atom_site_label_1
_geom_bond_atom_site_label_2
_geom_bond_distance
_geom_bond_site_symmetry_2
Na0 O66 2.428366 1_555
Na0 O67 2.449429 1_555
Na0 O52 2.463167 1_565
Na0 O53 2.498129 1_565
Na0 O31 2.547621 1_555
Na0 O16 2.721314 1_565
Na0 O2 2.823950 1_565
Na0 O9 2.906226 1_555
Na1 O68 2.426703 1_555
Na1 O51 2.433010 1_555
Na1 O53 2.441919 1_555
Na1 O67 2.452411 1_555
Na1 O17 2.676358 1_555
Na1 O32 2.706387 1_555
Na1 O10 2.828614 1_555
Na1 O0 2.863937 1_555
Na2 O43 2.407282 1_555
Na2 O64 2.408847 1_555
Na2 O65 2.483580 1_555
Na2 O7 2.511785 1_555
Na2 O42 2.542286 1_455
Na2 O14 2.714651 1_555
Na2 O28 2.908531 1_555
Na3 O44 2.356128 1_555
Na3 O64 2.402298 1_555
Na3 O42 2.430292 1_565
Na3 O63 2.481076 1_555
Na3 O6 2.623769 1_555
Na3 O27 2.671296 1_555
Na3 O13 2.889696 1_565
Na3 O23 2.984429 1_565
Na4 O41 2.322831 1_555
Na4 O40 2.357919 1_655
Na4 O55 2.480676 1_555
Na4 O4 2.559368 1_555
Na4 O54 2.612223 1_555
Na4 O33 2.804708 1_655
Na4 O26 2.805053 1_655
Na4 O19 2.918062 1_556
Na5 O39 2.365444 1_555
Na5 O40 2.396656 1_545
Na5 O54 2.508163 1_555
Na5 O3 2.511010 1_555
Na5 O56 2.540896 1_555
Na5 O35 2.783822 1_555
Na5 O25 2.884640 1_555
Na5 O18 3.018971 1_556
Na6 O37 2.444810 1_555
Na6 O36 2.482430 1_655
Na6 O44 2.517662 1_555
Na6 O38 2.660786 1_665
Na6 O43 2.662173 1_665
Na6 O42 2.676956 1_565
Na7 O41 2.515588 1_545
Na7 O39 2.536183 1_655
Na7 O46 2.568561 1_556
Na7 O40 2.613514 1_645
Na7 O47 2.629645 1_656
Na7 O45 2.642986 1_546
Na8 O49 2.321209 1_555
Na8 O48 2.381843 1_555
Na8 O50 2.470284 1_555
Na8 O56 2.766221 1_555
Na8 O55 2.825903 1_555
Na8 O54 2.848842 1_555
Na9 O59 2.553619 1_555
Na9 O52 2.563778 1_555
Na9 O57 2.585102 1_555
Na9 O51 2.610101 1_555
Na9 O53 2.613857 1_555
Na9 O58 2.669388 1_555
Na10 O61 2.404238 1_555
Na10 O60 2.509949 1_555
Na10 O62 2.516991 1_555
Na10 O66 2.652240 1_555
Na10 O68 2.701700 1_555
Na10 O67 2.740038 1_555
Na11 O69 2.545086 1_555
Na11 O64 2.580278 1_555
Na11 O65 2.580449 1_555
Na11 O70 2.588984 1_555
Na11 O71 2.602515 1_555
Na11 O63 2.676021 1_555
Hf0 O56 2.027121 1_555
Hf0 O55 2.046059 1_555
Hf0 O20 2.059226 1_556
Hf0 O54 2.067528 1_555
Hf0 O19 2.088129 1_556
Hf0 O18 2.103113 1_556
Hf1 O22 2.006840 1_555
Hf1 O57 2.035556 1_555
Hf1 O23 2.053193 1_555
Hf1 O59 2.081535 1_555
Hf1 O21 2.084002 1_555
Hf1 O58 2.097702 1_555
Hf2 O35 2.025011 1_555
Hf2 O69 2.037458 1_555
Hf2 O33 2.046684 1_555
Hf2 O34 2.061605 1_555
Hf2 O70 2.120369 1_555
Hf2 O71 2.128075 1_555
O0 S0 1.479467 1_545
O0 Zn0 2.178859 1_445
O1 S1 1.471782 1_555
O1 Zn0 2.066288 1_555
O2 S2 1.484481 1_655
O2 Zn0 2.108010 1_545
O3 P0 1.536163 1_555
O3 Zn1 1.988429 1_555
O4 S3 1.479166 1_655
O4 Zn1 2.142233 1_665
O5 S4 1.463425 1_555
O5 Zn1 2.045864 1_655
O6 S4 1.488737 1_565
O6 Zn2 2.071793 1_555
O7 P0 1.551090 1_555
O7 Zn2 2.000691 1_445
O8 S3 1.468115 1_555
O8 Zn2 1.999144 1_455
O9 S1 1.481066 1_555
O9 Zn3 2.091102 1_655
O10 S2 1.489257 1_555
O10 Zn3 2.119347 1_545
O11 S0 1.476650 1_555
O11 Zn3 2.060409 1_555
O12 S5 1.460040 1_555
O12 Zn4 2.241415 1_555
O13 S6 1.473831 1_555
O13 Zn4 2.146385 1_555
O14 P1 1.522675 1_555
O14 Zn4 1.945764 1_555
O15 S7 1.478268 1_555
O15 Zn5 1.973943 1_555
O16 S8 1.491869 1_555
O16 Zn5 2.049810 1_555
O17 S9 1.492875 1_555
O17 Zn5 2.048761 1_555
O18 S9 1.525430 1_555
O19 S7 1.526005 1_555
O20 S8 1.521731 1_555
O21 S6 1.525409 1_555
O22 P1 1.574409 1_555
O23 S5 1.521909 1_555
O24 P2 1.506785 1_555
O24 Zn6 1.974113 1_556
O25 P3 1.518615 1_555
O25 Zn6 1.980483 1_556
O26 P4 1.516830 1_555
O26 Zn6 1.970035 1_556
O27 P5 1.535976 1_555
O27 Zn7 1.947437 1_555
O28 S10 1.475725 1_555
O28 Zn7 2.070617 1_555
O29 S11 1.467041 1_555
O29 Zn7 2.071231 1_555
O30 S11 1.476535 1_555
O30 Zn8 1.992037 1_555
O31 P5 1.549263 1_555
O31 Zn8 1.959639 1_555
O32 S10 1.484316 1_555
O32 Zn8 2.115242 1_555
O33 P3 1.569381 1_555
O34 P4 1.550142 1_555
O35 P2 1.566848 1_555
O36 S11 1.473945 1_555
O36 Zn0 2.157962 1_455
O37 P5 1.537923 1_555
O37 Zn0 1.994861 1_555
O38 S10 1.471192 1_555
O38 Zn0 2.149777 1_445
O39 P3 1.524364 1_555
O39 Zn1 2.086369 1_555
O40 P4 1.541837 1_555
O40 Zn1 2.181879 1_565
O41 P2 1.526426 1_555
O41 Zn1 2.165504 1_665
O42 S5 1.496712 1_555
O42 Zn2 2.404493 1_545
O43 S6 1.475917 1_555
O43 Zn2 2.336702 1_445
O44 P1 1.545078 1_555
O44 Zn2 2.166708 1_555
O45 S7 1.481816 1_555
O45 Zn3 2.130171 1_655
O46 S8 1.480401 1_555
O46 Zn3 2.161410 1_645
O47 S9 1.481632 1_555
O47 Zn3 2.173092 1_545
O48 S4 1.475373 1_555
O48 Zn4 2.222191 1_555
O49 P0 1.541162 1_555
O49 Zn4 1.994250 1_555
O50 S3 1.479534 1_655
O50 Zn4 2.114702 1_555
O51 S1 1.502486 1_555
O51 Zn5 2.172771 1_555
O52 S2 1.503139 1_655
O52 Zn5 2.191203 1_555
O53 S0 1.525484 1_545
O53 Zn5 2.308448 1_555
O54 P2 1.604488 1_555
O55 P3 1.579615 1_655
O56 P4 1.579918 1_545
O57 P5 1.585854 1_545
O58 S10 1.523684 1_555
O59 S11 1.528699 1_655
O60 S9 1.464676 1_555
O60 Zn6 2.288070 1_555
O61 S7 1.463894 1_455
O61 Zn6 2.286515 1_555
O62 S8 1.464201 1_565
O62 Zn6 2.237127 1_555
O63 S6 1.480713 1_565
O63 Zn7 2.198970 1_555
O64 P1 1.572901 1_555
O64 Zn7 2.119422 1_555
O65 S5 1.481123 1_455
O65 Zn7 2.303031 1_555
O66 S0 1.496678 1_555
O66 Zn8 2.236760 1_555
O67 S1 1.514853 1_555
O67 Zn8 2.353477 1_555
O68 S2 1.494664 1_555
O68 Zn8 2.287343 1_555
O69 P0 1.593245 1_555
O70 S3 1.517011 1_555
O71 S4 1.523988 1_565
