# generated using pymatgen
data_MgMn6(O2F)4
_symmetry_space_group_name_H-M   'P 1'
_cell_length_a   7.08423818
_cell_length_b   5.72051667
_cell_length_c   5.99148164
_cell_angle_alpha   83.01104808
_cell_angle_beta   72.96931242
_cell_angle_gamma   74.75832464
_symmetry_Int_Tables_number   1
_chemical_formula_structural   MgMn6(O2F)4
_chemical_formula_sum   'Mg1 Mn6 O8 F4'
_cell_volume   223.73120476
_cell_formula_units_Z   1
loop_
 _symmetry_equiv_pos_site_id
 _symmetry_equiv_pos_as_xyz
  1  'x, y, z'
loop_
 _atom_site_type_symbol
 _atom_site_label
 _atom_site_symmetry_multiplicity
 _atom_site_fract_x
 _atom_site_fract_y
 _atom_site_fract_z
 _atom_site_occupancy
  Mg  Mg0  1  0.99254274  0.01093229  0.51366719  1
  Mn  Mn0  1  0.82057469  0.63507985  0.69002547  1
  Mn  Mn1  1  0.66058559  0.38461017  0.28794670  1
  Mn  Mn2  1  0.33511929  0.64186266  0.69077020  1
  Mn  Mn3  1  0.16757593  0.39989737  0.29796861  1
  Mn  Mn4  1  0.50529231  0.97884025  0.00735109  1
  Mn  Mn5  1  0.99494189  0.98113708  0.02666853  1
  O  O0  1  0.29332770  0.87822537  0.91860883  1
  O  O1  1  0.62303601  0.56883427  0.55972037  1
  O  O2  1  0.95808532  0.24723964  0.23951013  1
  O  O3  1  0.70189996  0.10018046  0.10860330  1
  O  O4  1  0.03502382  0.76180048  0.77779930  1
  O  O5  1  0.36581419  0.45708564  0.42326867  1
  O  O6  1  0.65925987  0.65136741  0.00644507  1
  O  O7  1  0.98796917  0.70444407  0.36211512  1
  F  F0  1  0.69575101  0.02813971  0.64717046  1
  F  F1  1  0.35186743  0.32868595  0.96304165  1
  F  F2  1  0.28821005  0.02554134  0.35720910  1
  F  F3  1  -0.00169095  0.27562199  0.69354020  1
loop_
_geom_bond_atom_site_label_1
_geom_bond_atom_site_label_2
_geom_bond_distance
_geom_bond_site_symmetry_2
Mg0 O2 2.026356 1_555
Mg0 O4 2.032415 1_645
Mg0 O7 2.081835 1_545
Mn0 O6 1.904394 1_556
Mn0 O1 1.924136 1_555
Mn0 O7 2.028940 1_555
Mn0 O4 2.061518 1_655
Mn1 O5 1.955709 1_555
Mn1 O1 1.961965 1_555
Mn1 O3 1.969404 1_555
Mn1 O2 1.992483 1_555
Mn1 O6 2.132791 1_555
Mn2 O1 1.909185 1_555
Mn2 O0 1.944559 1_555
Mn2 O5 1.954634 1_555
Mn2 O4 1.983201 1_555
Mn3 O7 1.874244 1_455
Mn3 O5 1.887268 1_555
Mn3 O2 2.036698 1_455
Mn4 O6 1.903609 1_555
Mn4 O0 1.966058 1_554
Mn4 O3 1.973707 1_565
Mn5 O3 1.937913 1_565
Mn5 O0 1.967446 1_654
Mn5 O4 1.974404 1_654
Mn5 O2 2.019906 1_565
Mn5 O7 2.399158 1_555
F0 Mg0 1.998849 1_555
F0 Mn0 2.202440 1_545
F0 Mn4 2.214369 1_546
F1 Mn4 2.037907 1_546
F1 Mn3 2.069295 1_556
F1 Mn2 2.274914 1_555
F2 Mg0 2.048368 1_455
F2 Mn3 2.114909 1_555
F2 Mn4 2.205059 1_545
F3 Mg0 1.977682 1_455
F3 Mn0 2.111352 1_455
F3 Mn3 2.435965 1_555
F3 Mn5 2.448918 1_446
