# generated using pymatgen
data_Sr2MgZnWO6
_symmetry_space_group_name_H-M   'P 1'
_cell_length_a   5.68765606
_cell_length_b   6.08535535
_cell_length_c   5.67794701
_cell_angle_alpha   120.32028300
_cell_angle_beta   100.65433682
_cell_angle_gamma   106.23915024
_symmetry_Int_Tables_number   1
_chemical_formula_structural   Sr2MgZnWO6
_chemical_formula_sum   'Sr2 Mg1 Zn1 W1 O6'
_cell_volume   149.73835272
_cell_formula_units_Z   1
loop_
 _symmetry_equiv_pos_site_id
 _symmetry_equiv_pos_as_xyz
  1  'x, y, z'
loop_
 _atom_site_type_symbol
 _atom_site_label
 _atom_site_symmetry_multiplicity
 _atom_site_fract_x
 _atom_site_fract_y
 _atom_site_fract_z
 _atom_site_occupancy
  Sr  Sr0  1  0.60106733  0.20888023  0.38826291  1
  Sr  Sr1  1  0.32498063  0.76126955  0.56867829  1
  Mg  Mg0  1  0.17922823  0.41342218  0.83960753  1
  Zn  Zn0  1  0.76976131  0.55600646  0.11707408  1
  W  W0  1  0.96185728  0.98141175  0.97717140  1
  O  O0  1  0.31211239  0.22243781  0.99424419  1
  O  O1  1  0.60015313  0.71893692  0.94435840  1
  O  O2  1  0.78982381  0.19500530  0.83417519  1
  O  O3  1  0.14731654  0.77064840  0.11320797  1
  O  O4  1  0.07245263  0.27156344  0.42055262  1
  O  O5  1  0.84838973  0.68613197  0.52885743  1
loop_
_geom_bond_atom_site_label_1
_geom_bond_atom_site_label_2
_geom_bond_distance
_geom_bond_site_symmetry_2
Mg0 O4 1.968259 1_555
Mg0 O0 1.992256 1_555
Mg0 O3 2.021665 1_556
Mg0 O2 2.227063 1_455
Mg0 O1 2.325823 1_555
O0 W0 2.068840 1_445
O0 Zn0 2.515235 1_556
O0 Sr0 2.572080 1_556
O0 Sr1 2.655816 1_545
O1 Zn0 2.010527 1_556
O1 W0 2.130305 1_555
O1 Sr1 2.571341 1_555
O1 Sr0 2.764258 1_566
O1 Sr0 3.118283 1_555
O2 Zn0 2.016020 1_556
O2 W0 2.188418 1_545
O2 Sr0 2.613715 1_555
O2 Sr1 2.614408 1_545
O3 Zn0 2.189872 1_455
O3 W0 2.193149 1_454
O3 Sr0 2.581958 1_565
O3 Sr1 2.632002 1_555
O4 W0 2.038696 1_444
O4 Sr1 2.505945 1_555
O4 Sr0 2.557917 1_455
O4 Sr0 3.161214 1_555
O5 Zn0 1.959502 1_555
O5 W0 2.061712 1_555
O5 Sr0 2.451467 1_555
O5 Sr1 2.565890 1_655
