# generated using pymatgen
data_Na2Sn3O7
_symmetry_space_group_name_H-M   'P 1'
_cell_length_a   16.74473900
_cell_length_b   3.16665100
_cell_length_c   12.07715600
_cell_angle_alpha   90.00000000
_cell_angle_beta   90.00000000
_cell_angle_gamma   90.00000000
_symmetry_Int_Tables_number   1
_chemical_formula_structural   Na2Sn3O7
_chemical_formula_sum   'Na8 Sn12 O28'
_cell_volume   640.38811118
_cell_formula_units_Z   4
loop_
 _symmetry_equiv_pos_site_id
 _symmetry_equiv_pos_as_xyz
  1  'x, y, z'
loop_
 _atom_site_type_symbol
 _atom_site_label
 _atom_site_symmetry_multiplicity
 _atom_site_fract_x
 _atom_site_fract_y
 _atom_site_fract_z
 _atom_site_occupancy
  Na  Na0  1  0.30715800  0.25000000  0.43795300  1
  Na  Na1  1  0.69284200  0.75000000  0.56204700  1
  Na  Na2  1  0.19284200  0.75000000  0.93795300  1
  Na  Na3  1  0.80715800  0.25000000  0.06204700  1
  Na  Na4  1  0.43533100  0.25000000  0.88984900  1
  Na  Na5  1  0.56466900  0.75000000  0.11015100  1
  Na  Na6  1  0.06466900  0.75000000  0.38984900  1
  Na  Na7  1  0.93533100  0.25000000  0.61015100  1
  Sn  Sn0  1  0.02155000  0.25000000  0.11617900  1
  Sn  Sn1  1  0.97845000  0.75000000  0.88382100  1
  Sn  Sn2  1  0.47845000  0.75000000  0.61617900  1
  Sn  Sn3  1  0.52155000  0.25000000  0.38382100  1
  Sn  Sn4  1  0.28556700  0.25000000  0.71025600  1
  Sn  Sn5  1  0.71443300  0.75000000  0.28974400  1
  Sn  Sn6  1  0.21443300  0.75000000  0.21025600  1
  Sn  Sn7  1  0.78556700  0.25000000  0.78974400  1
  Sn  Sn8  1  0.38193500  0.25000000  0.15003900  1
  Sn  Sn9  1  0.61806500  0.75000000  0.84996100  1
  Sn  Sn10  1  0.11806500  0.75000000  0.65003900  1
  Sn  Sn11  1  0.88193500  0.25000000  0.34996100  1
  O  O0  1  0.08755500  0.25000000  0.54841000  1
  O  O1  1  0.91244500  0.75000000  0.45159000  1
  O  O2  1  0.41244500  0.75000000  0.04841000  1
  O  O3  1  0.58755500  0.25000000  0.95159000  1
  O  O4  1  0.16430000  0.25000000  0.75619400  1
  O  O5  1  0.83570000  0.75000000  0.24380600  1
  O  O6  1  0.33570000  0.75000000  0.25619400  1
  O  O7  1  0.66430000  0.25000000  0.74380600  1
  O  O8  1  0.18743800  0.25000000  0.31362400  1
  O  O9  1  0.81256200  0.75000000  0.68637600  1
  O  O10  1  0.31256200  0.75000000  0.81362400  1
  O  O11  1  0.68743800  0.25000000  0.18637600  1
  O  O12  1  0.25378100  0.25000000  0.09947800  1
  O  O13  1  0.74621900  0.75000000  0.90052200  1
  O  O14  1  0.24621900  0.75000000  0.59947800  1
  O  O15  1  0.75378100  0.25000000  0.40052200  1
  O  O16  1  0.39564200  0.25000000  0.62867400  1
  O  O17  1  0.60435800  0.75000000  0.37132600  1
  O  O18  1  0.10435800  0.75000000  0.12867400  1
  O  O19  1  0.89564200  0.25000000  0.87132600  1
  O  O20  1  0.49240000  0.25000000  0.22366600  1
  O  O21  1  0.50760000  0.75000000  0.77633400  1
  O  O22  1  0.00760000  0.75000000  0.72366600  1
  O  O23  1  0.99240000  0.25000000  0.27633400  1
  O  O24  1  0.55269600  0.25000000  0.55882500  1
  O  O25  1  0.44730400  0.75000000  0.44117500  1
  O  O26  1  0.94730400  0.75000000  0.05882500  1
  O  O27  1  0.05269600  0.25000000  0.94117500  1
loop_
_geom_bond_atom_site_label_1
_geom_bond_atom_site_label_2
_geom_bond_distance
_geom_bond_site_symmetry_2
Na0 O8 2.504669 1_555
Na0 O14 2.711757 1_555
Na0 O14 2.711757 1_545
Na0 O16 2.738752 1_555
Na0 O6 2.748443 1_545
Na0 O6 2.748443 1_555
Na0 O25 2.831161 1_555
Na0 O25 2.831161 1_545
Na1 O9 2.504669 1_555
Na1 O15 2.711757 1_565
Na1 O15 2.711757 1_555
Na1 O17 2.738752 1_555
Na1 O7 2.748443 1_555
Na1 O7 2.748443 1_565
Na1 O24 2.831161 1_555
Na1 O24 2.831161 1_565
Na2 O10 2.504669 1_555
Na2 O12 2.711757 1_566
Na2 O12 2.711757 1_556
Na2 O18 2.738752 1_556
Na2 O4 2.748443 1_555
Na2 O4 2.748443 1_565
Na2 O27 2.831161 1_565
Na2 O27 2.831161 1_555
Na3 O11 2.504669 1_555
Na3 O13 2.711757 1_554
Na3 O13 2.711757 1_544
Na3 O19 2.738752 1_554
Na3 O5 2.748443 1_555
Na3 O5 2.748443 1_545
Na3 O26 2.831161 1_545
Na3 O26 2.831161 1_555
Na4 O21 2.418842 1_555
Na4 O21 2.418842 1_545
Na4 O2 2.514134 1_546
Na4 O2 2.514134 1_556
Na4 O3 2.655778 1_555
Na4 O10 2.753259 1_555
Na4 O10 2.753259 1_545
Na5 O20 2.418842 1_555
Na5 O20 2.418842 1_565
Na5 O3 2.514134 1_554
Na5 O3 2.514134 1_564
Na5 O2 2.655778 1_555
Na5 O11 2.753259 1_555
Na5 O11 2.753259 1_565
Na6 O23 2.418842 1_465
Na6 O23 2.418842 1_455
Na6 O0 2.514134 1_555
Na6 O0 2.514134 1_565
Na6 O1 2.655778 1_455
Na6 O8 2.753259 1_555
Na6 O8 2.753259 1_565
Na7 O22 2.418842 1_645
Na7 O22 2.418842 1_655
Na7 O1 2.514134 1_545
Na7 O1 2.514134 1_555
Na7 O0 2.655778 1_655
Na7 O9 2.753259 1_545
Na7 O9 2.753259 1_555
O0 Sn10 2.067463 1_545
O0 Sn10 2.067463 1_555
O1 Sn11 2.067463 1_555
O1 Sn11 2.067463 1_565
O2 Sn8 2.067463 1_555
O2 Sn8 2.067463 1_565
O3 Sn9 2.067463 1_555
O3 Sn9 2.067463 1_545
O4 Sn4 2.105012 1_555
O4 Sn10 2.179438 1_555
O4 Sn10 2.179438 1_545
O5 Sn5 2.105012 1_555
O5 Sn11 2.179438 1_555
O5 Sn11 2.179438 1_565
O6 Sn6 2.105012 1_555
O6 Sn8 2.179438 1_555
O6 Sn8 2.179438 1_565
O7 Sn7 2.105012 1_555
O7 Sn9 2.179438 1_555
O7 Sn9 2.179438 1_545
O8 Sn6 2.066332 1_555
O8 Sn6 2.066332 1_545
O9 Sn7 2.066332 1_555
O9 Sn7 2.066332 1_565
O10 Sn4 2.066332 1_565
O10 Sn4 2.066332 1_555
O11 Sn5 2.066332 1_545
O11 Sn5 2.066332 1_555
O12 Sn6 2.175078 1_555
O12 Sn6 2.175078 1_545
O12 Sn8 2.231094 1_555
O13 Sn7 2.175078 1_555
O13 Sn7 2.175078 1_565
O13 Sn9 2.231094 1_555
O14 Sn4 2.175078 1_555
O14 Sn4 2.175078 1_565
O14 Sn10 2.231094 1_555
O15 Sn5 2.175078 1_555
O15 Sn5 2.175078 1_545
O15 Sn11 2.231094 1_555
O16 Sn4 2.089994 1_555
O16 Sn2 2.110058 1_555
O16 Sn2 2.110058 1_545
O17 Sn5 2.089994 1_555
O17 Sn3 2.110058 1_565
O17 Sn3 2.110058 1_555
O18 Sn6 2.089994 1_555
O18 Sn0 2.110058 1_555
O18 Sn0 2.110058 1_565
O19 Sn7 2.089994 1_555
O19 Sn1 2.110058 1_545
O19 Sn1 2.110058 1_555
O20 Sn3 1.994855 1_555
O20 Sn8 2.052341 1_555
O21 Sn2 1.994855 1_555
O21 Sn9 2.052341 1_555
O22 Sn1 1.994855 1_455
O22 Sn10 2.052341 1_555
O23 Sn0 1.994855 1_655
O23 Sn11 2.052341 1_555
O24 Sn2 2.128928 1_545
O24 Sn2 2.128928 1_555
O24 Sn3 2.176945 1_555
O25 Sn3 2.128928 1_565
O25 Sn3 2.128928 1_555
O25 Sn2 2.176945 1_555
O26 Sn0 2.128928 1_655
O26 Sn0 2.128928 1_665
O26 Sn1 2.176945 1_554
O27 Sn1 2.128928 1_445
O27 Sn1 2.128928 1_455
O27 Sn0 2.176945 1_556
