# generated using pymatgen
data_YbGa2
_symmetry_space_group_name_H-M   'P 1'
_cell_length_a   4.46099475
_cell_length_b   4.46099475
_cell_length_c   7.18104400
_cell_angle_alpha   90.00000000
_cell_angle_beta   90.00000000
_cell_angle_gamma   120.00001117
_symmetry_Int_Tables_number   1
_chemical_formula_structural   YbGa2
_chemical_formula_sum   'Yb2 Ga4'
_cell_volume   123.76036897
_cell_formula_units_Z   2
loop_
 _symmetry_equiv_pos_site_id
 _symmetry_equiv_pos_as_xyz
  1  'x, y, z'
loop_
 _atom_site_type_symbol
 _atom_site_label
 _atom_site_symmetry_multiplicity
 _atom_site_fract_x
 _atom_site_fract_y
 _atom_site_fract_z
 _atom_site_occupancy
  Yb  Yb0  1  0.00000000  0.00000000  0.25000000  1
  Yb  Yb1  1  0.00000000  0.00000000  0.75000000  1
  Ga  Ga0  1  0.33333300  0.66666700  0.95466200  1
  Ga  Ga1  1  0.66666700  0.33333300  0.45466200  1
  Ga  Ga2  1  0.33333300  0.66666700  0.54533800  1
  Ga  Ga3  1  0.66666700  0.33333300  0.04533800  1
loop_
_geom_bond_atom_site_label_1
_geom_bond_atom_site_label_2
_geom_bond_distance
_geom_bond_site_symmetry_2
Ga0 Ga3 2.656590 1_456
Ga0 Ga3 2.656590 1_566
Ga0 Ga3 2.656598 1_556
Ga0 Ga2 2.939374 1_555
Ga0 Yb1 2.965377 1_565
Ga0 Yb1 2.965380 1_665
Ga0 Yb1 2.965380 1_555
Ga0 Yb0 3.336378 1_566
Ga0 Yb0 3.336381 1_556
Ga0 Yb0 3.336381 1_666
Ga1 Ga2 2.656590 1_545
Ga1 Ga2 2.656590 1_655
Ga1 Ga2 2.656598 1_555
Ga1 Ga3 2.939374 1_555
Ga1 Yb0 2.965377 1_655
Ga1 Yb0 2.965380 1_665
Ga1 Yb0 2.965380 1_555
Ga1 Yb1 3.336378 1_655
Ga1 Yb1 3.336381 1_555
Ga1 Yb1 3.336381 1_665
Ga2 Yb1 2.965377 1_565
Ga2 Yb1 2.965380 1_665
Ga2 Yb1 2.965380 1_555
Ga2 Yb0 3.336378 1_565
Ga2 Yb0 3.336381 1_555
Ga2 Yb0 3.336381 1_665
Ga3 Yb0 2.965377 1_655
Ga3 Yb0 2.965380 1_665
Ga3 Yb0 2.965380 1_555
Ga3 Yb1 3.336378 1_654
Ga3 Yb1 3.336381 1_554
Ga3 Yb1 3.336381 1_664
