# generated using pymatgen
data_MgTiV4CoO12
_symmetry_space_group_name_H-M   'P 1'
_cell_length_a   7.10282226
_cell_length_b   7.10270722
_cell_length_c   5.42942534
_cell_angle_alpha   71.13801352
_cell_angle_beta   108.86089254
_cell_angle_gamma   103.92629475
_symmetry_Int_Tables_number   1
_chemical_formula_structural   MgTiV4CoO12
_chemical_formula_sum   'Mg1 Ti1 V4 Co1 O12'
_cell_volume   242.43190800
_cell_formula_units_Z   1
loop_
 _symmetry_equiv_pos_site_id
 _symmetry_equiv_pos_as_xyz
  1  'x, y, z'
loop_
 _atom_site_type_symbol
 _atom_site_label
 _atom_site_symmetry_multiplicity
 _atom_site_fract_x
 _atom_site_fract_y
 _atom_site_fract_z
 _atom_site_occupancy
  Mg  Mg0  1  0.72132194  0.72131644  0.75000052  1
  Ti  Ti0  1  0.91884484  0.91887370  0.24997588  1
  V  V0  1  0.19674611  0.61190561  0.76401114  1
  V  V1  1  0.38346583  0.84448411  0.21105240  1
  V  V2  1  0.61195887  0.19679180  0.73598690  1
  V  V3  1  0.84452857  0.38347207  0.28893580  1
  Co  Co0  1  0.09116034  0.09113123  0.75006836  1
  O  O0  1  0.02344526  0.78916728  0.65270333  1
  O  O1  1  0.06019632  0.39146745  0.68321962  1
  O  O2  1  0.17037312  0.98499653  0.14663353  1
  O  O3  1  0.40017782  0.70218294  0.61868023  1
  O  O4  1  0.39143316  0.06024791  0.81677730  1
  O  O5  1  0.28642038  0.59150082  0.10546889  1
  O  O6  1  0.70220515  0.40021832  0.88126599  1
  O  O7  1  0.66671500  0.86895980  0.33863295  1
  O  O8  1  0.59154428  0.28645689  0.39454685  1
  O  O9  1  0.78919411  0.02348104  0.84726774  1
  O  O10  1  0.86899785  0.66674347  0.16138526  1
  O  O11  1  0.98497606  0.17030759  0.35338530  1
loop_
_geom_bond_atom_site_label_1
_geom_bond_atom_site_label_2
_geom_bond_distance
_geom_bond_site_symmetry_2
Mg0 O7 2.088037 1_555
Mg0 O10 2.088188 1_556
Mg0 O6 2.142511 1_555
Mg0 O3 2.142860 1_555
Mg0 O0 2.277467 1_655
Mg0 O9 2.277637 1_565
Co0 O2 1.972870 1_546
Co0 O11 1.973464 1_455
Co0 O4 2.098202 1_555
Co0 O1 2.098631 1_555
Co0 O9 2.276269 1_455
Co0 O0 2.276610 1_545
O0 V0 1.799619 1_555
O0 Ti0 2.039238 1_455
O1 V0 1.738559 1_555
O1 V3 2.202059 1_455
O2 V1 1.889014 1_555
O2 Ti0 1.949625 1_455
O3 V0 1.756606 1_555
O3 V1 2.091744 1_555
O4 V2 1.739079 1_555
O4 V1 2.202208 1_546
O5 V0 1.723647 1_554
O5 V1 1.961337 1_555
O6 V2 1.756397 1_555
O6 V3 2.091948 1_556
O7 V1 1.888423 1_555
O7 Ti0 1.925064 1_555
O8 V2 1.723532 1_555
O8 V3 1.961420 1_555
O9 V2 1.799546 1_555
O9 Ti0 2.039088 1_546
O10 V3 1.888518 1_555
O10 Ti0 1.924928 1_555
O11 V3 1.889099 1_555
O11 Ti0 1.949151 1_545
