# generated using pymatgen
data_MgZn2Cu2H6(ClO3)2
_symmetry_space_group_name_H-M   'P 1'
_cell_length_a   6.62486521
_cell_length_b   5.56940401
_cell_length_c   6.38999600
_cell_angle_alpha   90.00012366
_cell_angle_beta   90.00023879
_cell_angle_gamma   90.65317622
_symmetry_Int_Tables_number   1
_chemical_formula_structural   MgZn2Cu2H6(ClO3)2
_chemical_formula_sum   'Mg1 Zn2 Cu2 H6 Cl2 O6'
_cell_volume   235.75349224
_cell_formula_units_Z   1
loop_
 _symmetry_equiv_pos_site_id
 _symmetry_equiv_pos_as_xyz
  1  'x, y, z'
loop_
 _atom_site_type_symbol
 _atom_site_label
 _atom_site_symmetry_multiplicity
 _atom_site_fract_x
 _atom_site_fract_y
 _atom_site_fract_z
 _atom_site_occupancy
  Mg  Mg0  1  0.67867200  0.58376100  0.25000000  1
  Zn  Zn0  1  0.08992400  0.47888900  0.25000000  1
  Zn  Zn1  1  0.93250000  0.46651900  0.75000000  1
  Cu  Cu0  1  0.40952500  0.49996300  0.56436600  1
  Cu  Cu1  1  0.40952500  0.49996300  0.93563400  1
  H  H0  1  0.37028100  0.82719600  0.25000200  1
  H  H1  1  0.60859600  0.19025900  0.74999800  1
  H  H2  1  0.90052800  0.83915300  0.47783100  1
  H  H3  1  0.17538400  0.14859300  0.95381700  1
  H  H4  1  0.17538300  0.14859100  0.54618100  1
  H  H5  1  0.90052700  0.83915100  0.02217100  1
  Cl  Cl0  1  0.66671500  0.14830000  0.24999900  1
  Cl  Cl1  1  0.32296100  0.86951700  0.75000100  1
  O  O0  1  0.37949200  0.65140400  0.24999900  1
  O  O1  1  0.63357500  0.36365700  0.75000100  1
  O  O2  1  0.88411800  0.66499400  0.47122900  1
  O  O3  1  0.12837400  0.31275700  0.97797300  1
  O  O4  1  0.12837400  0.31275700  0.52202700  1
  O  O5  1  0.88411800  0.66499400  0.02877100  1
loop_
_geom_bond_atom_site_label_1
_geom_bond_atom_site_label_2
_geom_bond_distance
_geom_bond_site_symmetry_2
Mg0 O2 2.010349 1_555
Mg0 O5 2.010358 1_555
Mg0 O0 2.021728 1_555
Cu0 O1 2.052368 1_555
Cu0 O4 2.141311 1_555
Cu0 O0 2.188628 1_555
Cu1 O1 2.052366 1_555
Cu1 O3 2.141314 1_555
Cu1 O0 2.188615 1_556
H0 O0 0.981651 1_555
H1 O1 0.977938 1_555
H2 O2 0.975715 1_555
H3 O3 0.981451 1_555
H4 O4 0.981457 1_555
H5 O5 0.975703 1_555
Cl0 Mg0 2.425649 1_555
Cl1 Cu1 2.449289 1_555
Cl1 Cu0 2.449293 1_555
O0 Zn0 2.135694 1_555
O1 Zn1 2.055253 1_555
O2 Zn1 2.122708 1_555
O2 Zn0 2.227986 1_655
O3 Zn0 1.986925 1_556
O3 Zn1 2.136506 1_455
O4 Zn0 1.986927 1_555
O4 Zn1 2.136511 1_455
O5 Zn1 2.122707 1_554
O5 Zn0 2.227982 1_655
