# generated using pymatgen
data_EuMgMnO3
_symmetry_space_group_name_H-M   'P 1'
_cell_length_a   3.94357926
_cell_length_b   3.94329951
_cell_length_c   6.95393673
_cell_angle_alpha   90.00000000
_cell_angle_beta   90.00000000
_cell_angle_gamma   90.00000000
_symmetry_Int_Tables_number   1
_chemical_formula_structural   EuMgMnO3
_chemical_formula_sum   'Eu1 Mg1 Mn1 O3'
_cell_volume   108.13868240
_cell_formula_units_Z   1
loop_
 _symmetry_equiv_pos_site_id
 _symmetry_equiv_pos_as_xyz
  1  'x, y, z'
loop_
 _atom_site_type_symbol
 _atom_site_label
 _atom_site_symmetry_multiplicity
 _atom_site_fract_x
 _atom_site_fract_y
 _atom_site_fract_z
 _atom_site_occupancy
  Eu  Eu0  1  0.50000000  0.50000000  0.50000000  1
  Mg  Mg0  1  0.50000000  0.50000000  0.00000000  1
  Mn  Mn0  1  0.00000000  -0.00000000  0.00000000  1
  O  O0  1  0.50000000  -0.00000000  0.00000000  1
  O  O1  1  0.00000000  0.50000000  0.00000000  1
  O  O2  1  0.00000000  -0.00000000  0.50000000  1
loop_
_geom_bond_atom_site_label_1
_geom_bond_atom_site_label_2
_geom_bond_distance
_geom_bond_site_symmetry_2
Eu0 O2 2.788433 1_555
Eu0 O2 2.788433 1_565
Eu0 O2 2.788433 1_665
Eu0 O2 2.788433 1_655
Mg0 O0 1.971650 1_555
Mg0 O0 1.971650 1_565
Mg0 O1 1.971790 1_555
Mg0 O1 1.971790 1_655
Mn0 O1 1.971650 1_555
Mn0 O1 1.971650 1_545
Mn0 O0 1.971790 1_555
Mn0 O0 1.971790 1_455
