# generated using pymatgen
data_MgMoW2(Se2S)2
_symmetry_space_group_name_H-M   'P 1'
_cell_length_a   6.54265400
_cell_length_b   6.54262883
_cell_length_c   60.44001000
_cell_angle_alpha   90.00004700
_cell_angle_beta   90.00003079
_cell_angle_gamma   120.00038133
_symmetry_Int_Tables_number   1
_chemical_formula_structural   MgMoW2(Se2S)2
_chemical_formula_sum   'Mg8 Mo8 W16 Se32 S16'
_cell_volume   2240.57624439
_cell_formula_units_Z   8
loop_
 _symmetry_equiv_pos_site_id
 _symmetry_equiv_pos_as_xyz
  1  'x, y, z'
loop_
 _atom_site_type_symbol
 _atom_site_label
 _atom_site_symmetry_multiplicity
 _atom_site_fract_x
 _atom_site_fract_y
 _atom_site_fract_z
 _atom_site_occupancy
  Mg  Mg0_0  1  0.36402150  0.19006450  0.42629900  1
  Mg  Mg0_1  1  0.36402150  0.19006450  0.92629900  1
  Mg  Mg0_2  1  0.36402150  0.69006450  0.42629900  1
  Mg  Mg0_3  1  0.36402150  0.69006450  0.92629900  1
  Mg  Mg0_4  1  0.86402150  0.19006450  0.42629900  1
  Mg  Mg0_5  1  0.86402150  0.19006450  0.92629900  1
  Mg  Mg0_6  1  0.86402150  0.69006450  0.42629900  1
  Mg  Mg0_7  1  0.86402150  0.69006450  0.92629900  1
  Mo  Mo0_0  1  0.33334400  0.16668800  0.17349600  1
  Mo  Mo0_1  1  0.33334400  0.16668800  0.67349600  1
  Mo  Mo0_2  1  0.33334400  0.66668800  0.17349600  1
  Mo  Mo0_3  1  0.33334400  0.66668800  0.67349600  1
  Mo  Mo0_4  1  0.83334400  0.16668800  0.17349600  1
  Mo  Mo0_5  1  0.83334400  0.16668800  0.67349600  1
  Mo  Mo0_6  1  0.83334400  0.66668800  0.17349600  1
  Mo  Mo0_7  1  0.83334400  0.66668800  0.67349600  1
  W  W0_0  1  0.16665500  0.33331050  0.05781600  1
  W  W0_1  1  0.16665500  0.33331050  0.55781600  1
  W  W0_2  1  0.16665500  0.83331050  0.05781600  1
  W  W0_3  1  0.16665500  0.83331050  0.55781600  1
  W  W0_4  1  0.66665500  0.33331050  0.05781600  1
  W  W0_5  1  0.66665500  0.33331050  0.55781600  1
  W  W0_6  1  0.66665500  0.83331050  0.05781600  1
  W  W0_7  1  0.66665500  0.83331050  0.55781600  1
  W  W1_0  1  0.16665600  0.33331150  0.28917850  1
  W  W1_1  1  0.16665600  0.33331150  0.78917850  1
  W  W1_2  1  0.16665600  0.83331150  0.28917850  1
  W  W1_3  1  0.16665600  0.83331150  0.78917850  1
  W  W1_4  1  0.66665600  0.33331150  0.28917850  1
  W  W1_5  1  0.66665600  0.33331150  0.78917850  1
  W  W1_6  1  0.66665600  0.83331150  0.28917850  1
  W  W1_7  1  0.66665600  0.83331150  0.78917850  1
  Se  Se0_0  1  0.16667950  0.33335950  0.20143400  1
  Se  Se0_1  1  0.16667950  0.33335950  0.70143400  1
  Se  Se0_2  1  0.16667950  0.83335950  0.20143400  1
  Se  Se0_3  1  0.16667950  0.83335950  0.70143400  1
  Se  Se0_4  1  0.66667950  0.33335950  0.20143400  1
  Se  Se0_5  1  0.66667950  0.33335950  0.70143400  1
  Se  Se0_6  1  0.66667950  0.83335950  0.20143400  1
  Se  Se0_7  1  0.66667950  0.83335950  0.70143400  1
  Se  Se1_0  1  0.33332400  0.16664700  0.26102800  1
  Se  Se1_1  1  0.33332400  0.16664700  0.76102800  1
  Se  Se1_2  1  0.33332400  0.66664700  0.26102800  1
  Se  Se1_3  1  0.33332400  0.66664700  0.76102800  1
  Se  Se1_4  1  0.83332400  0.16664700  0.26102800  1
  Se  Se1_5  1  0.83332400  0.16664700  0.76102800  1
  Se  Se1_6  1  0.83332400  0.66664700  0.26102800  1
  Se  Se1_7  1  0.83332400  0.66664700  0.76102800  1
  Se  Se2_0  1  0.33332300  0.16664600  0.31731100  1
  Se  Se2_1  1  0.33332300  0.16664600  0.81731100  1
  Se  Se2_2  1  0.33332300  0.66664600  0.31731100  1
  Se  Se2_3  1  0.33332300  0.66664600  0.81731100  1
  Se  Se2_4  1  0.83332300  0.16664600  0.31731100  1
  Se  Se2_5  1  0.83332300  0.16664600  0.81731100  1
  Se  Se2_6  1  0.83332300  0.66664600  0.31731100  1
  Se  Se2_7  1  0.83332300  0.66664600  0.81731100  1
  Se  Se3_0  1  0.16667500  0.33335100  0.14552300  1
  Se  Se3_1  1  0.16667500  0.33335100  0.64552300  1
  Se  Se3_2  1  0.16667500  0.83335100  0.14552300  1
  Se  Se3_3  1  0.16667500  0.83335100  0.64552300  1
  Se  Se3_4  1  0.66667500  0.33335100  0.14552300  1
  Se  Se3_5  1  0.66667500  0.33335100  0.64552300  1
  Se  Se3_6  1  0.66667500  0.83335100  0.14552300  1
  Se  Se3_7  1  0.66667500  0.83335100  0.64552300  1
  S  S0_0  1  0.33332250  0.16664500  0.03229500  1
  S  S0_1  1  0.33332250  0.16664500  0.53229500  1
  S  S0_2  1  0.33332250  0.66664500  0.03229500  1
  S  S0_3  1  0.33332250  0.66664500  0.53229500  1
  S  S0_4  1  0.83332250  0.16664500  0.03229500  1
  S  S0_5  1  0.83332250  0.16664500  0.53229500  1
  S  S0_6  1  0.83332250  0.66664500  0.03229500  1
  S  S0_7  1  0.83332250  0.66664500  0.53229500  1
  S  S1_0  1  0.33332150  0.16664300  0.08334050  1
  S  S1_1  1  0.33332150  0.16664300  0.58334050  1
  S  S1_2  1  0.33332150  0.66664300  0.08334050  1
  S  S1_3  1  0.33332150  0.66664300  0.58334050  1
  S  S1_4  1  0.83332150  0.16664300  0.08334050  1
  S  S1_5  1  0.83332150  0.16664300  0.58334050  1
  S  S1_6  1  0.83332150  0.66664300  0.08334050  1
  S  S1_7  1  0.83332150  0.66664300  0.58334050  1
loop_
_geom_bond_atom_site_label_1
_geom_bond_atom_site_label_2
_geom_bond_distance
_geom_bond_site_symmetry_2
Mg0_0 Mg0_6 3.271302 1_555
Mg0_0 Mg0_6 3.271302 1_445
Mg0_0 Mg0_2 3.271314 1_555
Mg0_0 Mg0_2 3.271314 1_545
Mg0_0 Mg0_4 3.271327 1_455
Mg0_0 Mg0_4 3.271327 1_555
Mg0_1 Mg0_7 3.271302 1_445
Mg0_1 Mg0_7 3.271302 1_555
Mg0_1 Mg0_3 3.271314 1_545
Mg0_1 Mg0_3 3.271314 1_555
Mg0_1 Mg0_5 3.271327 1_455
Mg0_1 Mg0_5 3.271327 1_555
Mg0_2 Mg0_4 3.271302 1_455
Mg0_2 Mg0_4 3.271302 1_565
Mg0_2 Mg0_6 3.271327 1_455
Mg0_2 Mg0_6 3.271327 1_555
Mg0_3 Mg0_5 3.271302 1_565
Mg0_3 Mg0_5 3.271302 1_455
Mg0_3 Mg0_7 3.271327 1_555
Mg0_3 Mg0_7 3.271327 1_455
Mg0_4 Mg0_6 3.271314 1_545
Mg0_4 Mg0_6 3.271314 1_555
Mg0_5 Mg0_7 3.271314 1_545
Mg0_5 Mg0_7 3.271314 1_555
Mo0_0 Se0_2 2.533441 1_545
Mo0_0 Se0_4 2.533473 1_555
Mo0_0 Se0_0 2.533481 1_555
Mo0_0 Se3_4 2.534867 1_555
Mo0_0 Se3_0 2.534875 1_555
Mo0_0 Se3_2 2.534884 1_545
Mo0_1 Se0_3 2.533441 1_545
Mo0_1 Se0_5 2.533473 1_555
Mo0_1 Se0_1 2.533481 1_555
Mo0_1 Se3_5 2.534867 1_555
Mo0_1 Se3_1 2.534875 1_555
Mo0_1 Se3_3 2.534884 1_545
Mo0_2 Se0_0 2.533441 1_555
Mo0_2 Se0_6 2.533473 1_555
Mo0_2 Se0_2 2.533481 1_555
Mo0_2 Se3_6 2.534867 1_555
Mo0_2 Se3_2 2.534875 1_555
Mo0_2 Se3_0 2.534884 1_555
Mo0_3 Se0_1 2.533441 1_555
Mo0_3 Se0_7 2.533473 1_555
Mo0_3 Se0_3 2.533481 1_555
Mo0_3 Se3_7 2.534867 1_555
Mo0_3 Se3_3 2.534875 1_555
Mo0_3 Se3_1 2.534884 1_555
Mo0_4 Se0_6 2.533441 1_545
Mo0_4 Se0_0 2.533473 1_655
Mo0_4 Se0_4 2.533481 1_555
Mo0_4 Se3_0 2.534867 1_655
Mo0_4 Se3_4 2.534875 1_555
Mo0_4 Se3_6 2.534884 1_545
Mo0_5 Se0_7 2.533441 1_545
Mo0_5 Se0_1 2.533473 1_655
Mo0_5 Se0_5 2.533481 1_555
Mo0_5 Se3_1 2.534867 1_655
Mo0_5 Se3_5 2.534875 1_555
Mo0_5 Se3_7 2.534884 1_545
Mo0_6 Se0_4 2.533441 1_555
Mo0_6 Se0_2 2.533473 1_655
Mo0_6 Se0_6 2.533481 1_555
Mo0_6 Se3_2 2.534867 1_655
Mo0_6 Se3_6 2.534875 1_555
Mo0_6 Se3_4 2.534884 1_555
Mo0_7 Se0_5 2.533441 1_555
Mo0_7 Se0_3 2.533473 1_655
Mo0_7 Se0_7 2.533481 1_555
Mo0_7 Se3_3 2.534867 1_655
Mo0_7 Se3_7 2.534875 1_555
Mo0_7 Se3_5 2.534884 1_555
Se1_0 W1_4 2.542036 1_555
Se1_0 W1_0 2.542045 1_555
Se1_0 W1_2 2.542049 1_545
Se1_1 W1_5 2.542036 1_555
Se1_1 W1_1 2.542045 1_555
Se1_1 W1_3 2.542049 1_545
Se1_2 W1_6 2.542036 1_555
Se1_2 W1_2 2.542045 1_555
Se1_2 W1_0 2.542049 1_555
Se1_3 W1_7 2.542036 1_555
Se1_3 W1_3 2.542045 1_555
Se1_3 W1_1 2.542049 1_555
Se1_4 W1_0 2.542036 1_655
Se1_4 W1_4 2.542045 1_555
Se1_4 W1_6 2.542049 1_545
Se1_5 W1_1 2.542036 1_655
Se1_5 W1_5 2.542045 1_555
Se1_5 W1_7 2.542049 1_545
Se1_6 W1_2 2.542036 1_655
Se1_6 W1_6 2.542045 1_555
Se1_6 W1_4 2.542049 1_555
Se1_7 W1_3 2.542036 1_655
Se1_7 W1_7 2.542045 1_555
Se1_7 W1_5 2.542049 1_555
Se2_0 W1_2 2.541313 1_545
Se2_0 W1_4 2.541315 1_555
Se2_0 W1_0 2.541317 1_555
Se2_1 W1_3 2.541313 1_545
Se2_1 W1_5 2.541315 1_555
Se2_1 W1_1 2.541317 1_555
Se2_2 W1_0 2.541313 1_555
Se2_2 W1_6 2.541315 1_555
Se2_2 W1_2 2.541317 1_555
Se2_3 W1_1 2.541313 1_555
Se2_3 W1_7 2.541315 1_555
Se2_3 W1_3 2.541317 1_555
Se2_4 W1_6 2.541313 1_545
Se2_4 W1_0 2.541315 1_655
Se2_4 W1_4 2.541317 1_555
Se2_5 W1_7 2.541313 1_545
Se2_5 W1_1 2.541315 1_655
Se2_5 W1_5 2.541317 1_555
Se2_6 W1_4 2.541313 1_555
Se2_6 W1_2 2.541315 1_655
Se2_6 W1_6 2.541317 1_555
Se2_7 W1_5 2.541313 1_555
Se2_7 W1_3 2.541315 1_655
Se2_7 W1_7 2.541317 1_555
S0_0 W0_4 2.438527 1_555
S0_0 W0_2 2.438533 1_545
S0_0 W0_0 2.438536 1_555
S0_1 W0_5 2.438527 1_555
S0_1 W0_3 2.438533 1_545
S0_1 W0_1 2.438536 1_555
S0_2 W0_6 2.438527 1_555
S0_2 W0_0 2.438533 1_555
S0_2 W0_2 2.438536 1_555
S0_3 W0_7 2.438527 1_555
S0_3 W0_1 2.438533 1_555
S0_3 W0_3 2.438536 1_555
S0_4 W0_0 2.438527 1_655
S0_4 W0_6 2.438533 1_545
S0_4 W0_4 2.438536 1_555
S0_5 W0_1 2.438527 1_655
S0_5 W0_7 2.438533 1_545
S0_5 W0_5 2.438536 1_555
S0_6 W0_2 2.438527 1_655
S0_6 W0_4 2.438533 1_555
S0_6 W0_6 2.438536 1_555
S0_7 W0_3 2.438527 1_655
S0_7 W0_5 2.438533 1_555
S0_7 W0_7 2.438536 1_555
S1_0 W0_2 2.438655 1_545
S1_0 W0_4 2.438668 1_555
S1_0 W0_0 2.438675 1_555
S1_1 W0_3 2.438655 1_545
S1_1 W0_5 2.438668 1_555
S1_1 W0_1 2.438675 1_555
S1_2 W0_0 2.438655 1_555
S1_2 W0_6 2.438668 1_555
S1_2 W0_2 2.438675 1_555
S1_3 W0_1 2.438655 1_555
S1_3 W0_7 2.438668 1_555
S1_3 W0_3 2.438675 1_555
S1_4 W0_6 2.438655 1_545
S1_4 W0_0 2.438668 1_655
S1_4 W0_4 2.438675 1_555
S1_5 W0_7 2.438655 1_545
S1_5 W0_1 2.438668 1_655
S1_5 W0_5 2.438675 1_555
S1_6 W0_4 2.438655 1_555
S1_6 W0_2 2.438668 1_655
S1_6 W0_6 2.438675 1_555
S1_7 W0_5 2.438655 1_555
S1_7 W0_3 2.438668 1_655
S1_7 W0_7 2.438675 1_555
