# generated using pymatgen
data_MgFe2W2(ClO4)2
_symmetry_space_group_name_H-M   'P 1'
_cell_length_a   5.45826042
_cell_length_b   7.19323047
_cell_length_c   7.19323047
_cell_angle_alpha   87.18922699
_cell_angle_beta   88.91313579
_cell_angle_gamma   91.08686421
_symmetry_Int_Tables_number   1
_chemical_formula_structural   MgFe2W2(ClO4)2
_chemical_formula_sum   'Mg1 Fe2 W2 Cl2 O8'
_cell_volume   281.97787156
_cell_formula_units_Z   1
loop_
 _symmetry_equiv_pos_site_id
 _symmetry_equiv_pos_as_xyz
  1  'x, y, z'
loop_
 _atom_site_type_symbol
 _atom_site_label
 _atom_site_symmetry_multiplicity
 _atom_site_fract_x
 _atom_site_fract_y
 _atom_site_fract_z
 _atom_site_occupancy
  Mg  Mg0  1  0.89426900  0.03463100  0.46536900  1
  Fe  Fe0  1  0.25636700  0.26419600  0.23580400  1
  Fe  Fe1  1  0.72590700  0.73593700  0.76406300  1
  W  W0  1  0.00771900  0.25852000  0.76331200  1
  W  W1  1  0.00771900  0.73668800  0.24148000  1
  Cl  Cl0  1  0.30192500  0.76801400  0.73198600  1
  Cl  Cl1  1  0.69905100  0.24637000  0.25363000  1
  O  O0  1  0.15793200  0.24308700  0.53301400  1
  O  O1  1  0.15793200  0.96698600  0.25691300  1
  O  O2  1  0.81047800  0.04847100  0.74263700  1
  O  O3  1  0.81876200  0.45918700  0.76460600  1
  O  O4  1  0.81047800  0.75736300  0.45152900  1
  O  O5  1  0.21277700  0.54324300  0.25178900  1
  O  O6  1  0.21277700  0.24821100  0.95675700  1
  O  O7  1  0.81876200  0.73539400  0.04081300  1
loop_
_geom_bond_atom_site_label_1
_geom_bond_atom_site_label_2
_geom_bond_distance
_geom_bond_site_symmetry_2
Mg0 O4 2.045366 1_545
Mg0 O2 2.045366 1_555
Mg0 O1 2.138357 1_645
Mg0 O0 2.138357 1_655
Fe0 O6 2.034354 1_554
Fe0 O5 2.034354 1_555
Fe0 O1 2.191766 1_545
Fe0 O0 2.191766 1_555
Fe1 O7 2.063364 1_556
Fe1 O3 2.063364 1_555
Fe1 O2 2.283610 1_565
Fe1 O4 2.283610 1_555
Cl0 Fe1 2.344635 1_555
Cl1 Mg0 2.381304 1_555
Cl1 Fe0 2.427594 1_555
O0 W0 1.843585 1_555
O1 W1 1.843585 1_555
O2 W0 1.852157 1_655
O3 W0 1.790191 1_655
O4 W1 1.852157 1_655
O5 W1 1.801836 1_555
O6 W0 1.801836 1_555
O7 W1 1.790191 1_655
