# generated using pymatgen
data_Na7Zr3ZnSi3(PO8)3
_symmetry_space_group_name_H-M   'P 1'
_cell_length_a   9.17268884
_cell_length_b   9.16024769
_cell_length_c   22.85607526
_cell_angle_alpha   90.05245067
_cell_angle_beta   90.14962289
_cell_angle_gamma   120.04216043
_symmetry_Int_Tables_number   1
_chemical_formula_structural   Na7Zr3ZnSi3(PO8)3
_chemical_formula_sum   'Na21 Zr9 Zn3 Si9 P9 O72'
_cell_volume   1662.45000793
_cell_formula_units_Z   3
loop_
 _symmetry_equiv_pos_site_id
 _symmetry_equiv_pos_as_xyz
  1  'x, y, z'
loop_
 _atom_site_type_symbol
 _atom_site_label
 _atom_site_symmetry_multiplicity
 _atom_site_fract_x
 _atom_site_fract_y
 _atom_site_fract_z
 _atom_site_occupancy
  Na  Na0  1  0.63744759  0.01131578  0.24751226  1
  Na  Na1  1  0.37423417  0.36277490  0.24775759  1
  Na  Na2  1  0.98964499  0.62845377  0.24945293  1
  Na  Na3  1  0.63863482  0.62472523  0.74818017  1
  Na  Na4  1  0.98685105  0.36735375  0.74600076  1
  Na  Na5  1  0.37124682  0.00753925  0.74641219  1
  Na  Na6  1  0.02911838  0.69131315  0.58441597  1
  Na  Na7  1  0.66653988  0.97243183  0.58153023  1
  Na  Na8  1  0.31113952  0.97539361  0.08417134  1
  Na  Na9  1  0.66214124  0.69275013  0.08421118  1
  Na  Na10  1  0.02872518  0.33316518  0.08193843  1
  Na  Na11  1  0.33416794  0.30377848  0.91797935  1
  Na  Na12  1  0.96907267  0.28970049  0.41516194  1
  Na  Na13  1  0.32104207  0.03107161  0.41442557  1
  Na  Na14  1  0.70973223  0.67865433  0.41429973  1
  Na  Na15  1  0.00534997  0.00861383  0.49321564  1
  Na  Na16  1  0.99136100  0.99766049  0.99714300  1
  Na  Na17  1  0.67963796  0.34147873  0.83260412  1
  Na  Na18  1  0.66573238  0.33319224  0.33175403  1
  Na  Na19  1  0.33745340  0.66802205  0.16565125  1
  Na  Na20  1  0.32690357  0.65712637  0.66417309  1
  Zr  Zr0  1  0.98896668  0.98970864  0.85397233  1
  Zr  Zr1  1  0.00780934  0.00610013  0.64710790  1
  Zr  Zr2  1  0.00037498  0.00391951  0.14921533  1
  Zr  Zr3  1  0.67263172  0.33227273  0.98022407  1
  Zr  Zr4  1  0.66860616  0.33125195  0.48132160  1
  Zr  Zr5  1  0.33891756  0.66483770  0.01642752  1
  Zr  Zr6  1  0.32893616  0.65710556  0.51672290  1
  Zr  Zr7  1  0.33355667  0.66670697  0.31829237  1
  Zr  Zr8  1  0.32735816  0.66326154  0.81737307  1
  Zn  Zn0  1  0.99944483  0.99935314  0.35349358  1
  Zn  Zn1  1  0.67819577  0.34382053  0.67954264  1
  Zn  Zn2  1  0.65884665  0.32788815  0.17709929  1
  Si  Si0  1  0.99713676  0.70218116  0.74877670  1
  Si  Si1  1  0.96121729  0.33465416  0.58586706  1
  Si  Si2  1  0.66526507  0.04146794  0.08627186  1
  Si  Si3  1  0.37668514  0.33384367  0.08476198  1
  Si  Si4  1  0.62898094  0.66566394  0.91625498  1
  Si  Si5  1  0.03542287  0.36961327  0.91666877  1
  Si  Si6  1  0.62969166  0.96069391  0.41749710  1
  Si  Si7  1  0.33151107  0.36793460  0.41529111  1
  Si  Si8  1  0.03848307  0.66930949  0.41673906  1
  P  P0  1  0.29380572  0.00141243  0.25157305  1
  P  P1  1  0.70809008  0.70521799  0.25120283  1
  P  P2  1  0.99772599  0.29360536  0.25150747  1
  P  P3  1  0.29394849  0.29201028  0.75112426  1
  P  P4  1  0.70736306  0.00035245  0.74937055  1
  P  P5  1  0.37669314  0.04336546  0.58540728  1
  P  P6  1  0.66417018  0.62473415  0.58566699  1
  P  P7  1  0.95783691  0.62397619  0.08541914  1
  P  P8  1  0.33337566  0.96030019  0.91679655  1
  O  O0  1  0.20993140  0.02670327  0.30495964  1
  O  O1  1  0.81672600  0.78892768  0.30506372  1
  O  O2  1  0.97117216  0.18362456  0.30479970  1
  O  O3  1  0.20854899  0.18278775  0.80569884  1
  O  O4  1  0.97390695  0.80367294  0.80337211  1
  O  O5  1  0.82430955  0.02802050  0.80224617  1
  O  O6  1  0.79036654  0.96981885  0.69476809  1
  O  O7  1  0.17485772  0.20696031  0.69787784  1
  O  O8  1  0.03289038  0.82619610  0.69201099  1
  O  O9  1  0.79182228  0.81834799  0.19553312  1
  O  O10  1  0.02737078  0.20891629  0.19577882  1
  O  O11  1  0.18090848  0.97164283  0.19555623  1
  O  O12  1  0.88257136  0.36954860  0.64309801  1
  O  O13  1  0.48316265  0.12090055  0.64026595  1
  O  O14  1  0.63676758  0.52128246  0.64057819  1
  O  O15  1  0.88748384  0.51862737  0.14070349  1
  O  O16  1  0.62985818  0.11575508  0.14452349  1
  O  O17  1  0.49017864  0.37618069  0.14263888  1
  O  O18  1  0.45774823  0.29845597  0.02662666  1
  O  O19  1  0.84279932  0.54271613  0.03179473  1
  O  O20  1  0.70430515  0.16506868  0.03006521  1
  O  O21  1  0.45652036  0.14944193  0.52968209  1
  O  O22  1  0.69535044  0.54461699  0.53052381  1
  O  O23  1  0.84229374  0.30092244  0.52746092  1
  O  O24  1  0.54035773  0.69370581  0.97411974  1
  O  O25  1  0.15603100  0.45964876  0.97381942  1
  O  O26  1  0.30713348  0.85209583  0.97154747  1
  O  O27  1  0.53831980  0.84244666  0.47435699  1
  O  O28  1  0.30191773  0.46432905  0.47008473  1
  O  O29  1  0.15903032  0.69765603  0.47351632  1
  O  O30  1  0.12376360  0.62959550  0.35939836  1
  O  O31  1  0.50599978  0.87511246  0.35965782  1
  O  O32  1  0.37023877  0.49246507  0.35804477  1
  O  O33  1  0.12771712  0.48749888  0.85893578  1
  O  O34  1  0.35791632  0.87565281  0.86203307  1
  O  O35  1  0.50885548  0.63684272  0.85885520  1
  O  O36  1  0.02136279  0.83468565  0.41179946  1
  O  O37  1  0.81224808  0.97933049  0.41188279  1
  O  O38  1  0.16531627  0.18602103  0.41110334  1
  O  O39  1  0.03623741  0.19261937  0.90971588  1
  O  O40  1  0.17901255  0.98503789  0.90982067  1
  O  O41  1  0.81313383  0.83375906  0.91172439  1
  O  O42  1  0.96908553  0.15887789  0.59006000  1
  O  O43  1  0.19427573  0.01582281  0.58951874  1
  O  O44  1  0.82888648  0.80387120  0.59047808  1
  O  O45  1  0.97720101  0.80397817  0.09083741  1
  O  O46  1  0.83197559  0.01640122  0.09062636  1
  O  O47  1  0.18667304  0.16328037  0.09062532  1
  O  O48  1  0.68479090  0.15460316  0.74546163  1
  O  O49  1  0.46739465  0.30833548  0.74452600  1
  O  O50  1  0.82966962  0.51885595  0.74691690  1
  O  O51  1  0.68779901  0.52835679  0.24477115  1
  O  O52  1  0.84402658  0.31754917  0.24422264  1
  O  O53  1  0.47102230  0.15695264  0.24587573  1
  O  O54  1  0.63225862  0.49019509  0.92275838  1
  O  O55  1  0.85254859  0.35350987  0.92165062  1
  O  O56  1  0.48975135  0.13866386  0.92214806  1
  O  O57  1  0.63806589  0.14414779  0.42248457  1
  O  O58  1  0.50435060  0.35870435  0.42310796  1
  O  O59  1  0.85391099  0.49706119  0.42329009  1
  O  O60  1  0.34722742  0.49745587  0.07756933  1
  O  O61  1  0.13766185  0.64960100  0.07614855  1
  O  O62  1  0.49702549  0.85326925  0.07755340  1
  O  O63  1  0.35702330  0.86398808  0.57839650  1
  O  O64  1  0.51609515  0.65848547  0.57826762  1
  O  O65  1  0.14481129  0.50627670  0.57847354  1
  O  O66  1  0.30707570  0.83578637  0.25381558  1
  O  O67  1  0.52957351  0.69192321  0.25361135  1
  O  O68  1  0.16399476  0.47171470  0.25355477  1
  O  O69  1  0.31010599  0.47056143  0.75530067  1
  O  O70  1  0.17245366  0.69252193  0.75450335  1
  O  O71  1  0.53156494  0.83656450  0.75575567  1
loop_
_geom_bond_atom_site_label_1
_geom_bond_atom_site_label_2
_geom_bond_distance
_geom_bond_site_symmetry_2
Na0 O52 2.478733 1_555
Na0 O53 2.480017 1_555
Na0 O16 2.555580 1_555
Na0 O67 2.580918 1_545
Na0 O66 2.629321 1_545
Na0 O31 2.845383 1_545
Na0 O2 2.951921 1_555
Na0 O9 3.008697 1_545
Na1 O53 2.453724 1_555
Na1 O51 2.492195 1_555
Na1 O68 2.580763 1_555
Na1 O17 2.608020 1_555
Na1 O67 2.614490 1_555
Na1 O32 2.793807 1_555
Na2 O51 2.444267 1_555
Na2 O52 2.469605 1_555
Na2 O66 2.560484 1_655
Na2 O68 2.631804 1_655
Na2 O15 2.666026 1_555
Na2 O30 2.792717 1_655
Na2 O1 2.938346 1_555
Na2 O11 2.995713 1_655
Na3 O50 2.390320 1_555
Na3 O49 2.512877 1_555
Na3 O71 2.582360 1_555
Na3 O69 2.616074 1_555
Na3 O14 2.631706 1_555
Na3 O35 2.824148 1_555
Na3 O4 2.943546 1_555
Na3 O6 3.005149 1_555
Na4 O50 2.451263 1_555
Na4 O48 2.463367 1_555
Na4 O12 2.540594 1_555
Na4 O70 2.593857 1_655
Na4 O69 2.630669 1_655
Na4 O33 2.845554 1_655
Na4 O7 2.981003 1_655
Na4 O5 2.985726 1_555
Na5 O49 2.437003 1_555
Na5 O48 2.491563 1_555
Na5 O70 2.533831 1_545
Na5 O71 2.639327 1_545
Na5 O13 2.639755 1_555
Na5 O34 2.884034 1_545
Na5 O8 2.958363 1_545
Na5 O3 3.007624 1_555
Na6 O65 2.412248 1_555
Na6 O44 2.520478 1_455
Na6 O43 2.575721 1_565
Na6 O63 2.608927 1_555
Na6 O8 2.743476 1_555
Na6 O29 2.791947 1_555
Na6 O12 2.888402 1_455
Na6 O22 2.924732 1_455
Na7 O42 2.430485 1_565
Na7 O64 2.491127 1_555
Na7 O63 2.495463 1_555
Na7 O44 2.635295 1_555
Na7 O27 2.716393 1_555
Na7 O6 2.828655 1_555
Na7 O23 2.888019 1_565
Na7 O13 2.963135 1_565
Na8 O62 2.468307 1_555
Na8 O47 2.501048 1_565
Na8 O61 2.591251 1_555
Na8 O45 2.656775 1_455
Na8 O26 2.802821 1_554
Na8 O11 2.807905 1_555
Na8 O16 2.883545 1_565
Na8 O18 2.885755 1_565
Na9 O60 2.527941 1_555
Na9 O45 2.542049 1_555
Na9 O46 2.571286 1_565
Na9 O62 2.590006 1_555
Na9 O24 2.752209 1_554
Na9 O9 2.796614 1_555
Na9 O17 2.849340 1_555
Na9 O19 2.891001 1_555
Na10 O60 2.531717 1_555
Na10 O46 2.544711 1_455
Na10 O61 2.553297 1_555
Na10 O47 2.610887 1_555
Na10 O25 2.734657 1_554
Na10 O20 2.832372 1_455
Na10 O10 2.838501 1_555
Na10 O15 2.928723 1_455
Na11 O54 2.393172 1_555
Na11 O39 2.398238 1_555
Na11 O40 2.534189 1_545
Na11 O56 2.548368 1_555
Na11 O18 2.737652 1_556
Na11 O3 2.800458 1_555
Na11 O25 2.946362 1_555
Na11 O35 2.970842 1_555
Na12 O38 2.421439 1_655
Na12 O37 2.462115 1_545
Na12 O59 2.601502 1_555
Na12 O57 2.640844 1_555
Na12 O2 2.705879 1_555
Na12 O23 2.843542 1_555
Na12 O28 2.922712 1_655
Na12 O30 2.987480 1_655
Na13 O36 2.417363 1_545
Na13 O38 2.467888 1_555
Na13 O57 2.558123 1_555
Na13 O58 2.611169 1_555
Na13 O0 2.691805 1_555
Na13 O21 2.878907 1_555
Na13 O29 2.972199 1_545
Na13 O31 2.986784 1_545
Na14 O37 2.424991 1_555
Na14 O36 2.475336 1_655
Na14 O58 2.579530 1_555
Na14 O59 2.600037 1_555
Na14 O1 2.691075 1_555
Na14 O22 2.902956 1_555
Na14 O32 2.986071 1_555
Na14 O27 2.996182 1_555
Na15 O38 2.438976 1_555
Na15 O37 2.484186 1_445
Na15 O36 2.500606 1_545
Na15 O42 2.713209 1_455
Na15 O43 2.778060 1_555
Na15 O44 2.840103 1_445
Na16 O41 2.501747 1_555
Na16 O39 2.574201 1_665
Na16 O46 2.645593 1_566
Na16 O40 2.678868 1_655
Na16 O47 2.707234 1_666
Na16 O45 2.743760 1_556
Na17 O50 2.480031 1_555
Na17 O55 2.545130 1_555
Na17 O54 2.623541 1_555
Na17 O48 2.640996 1_555
Na17 O49 2.705848 1_555
Na17 O56 2.731211 1_555
Na18 O53 2.595718 1_555
Na18 O51 2.614540 1_555
Na18 O57 2.633037 1_555
Na18 O52 2.636076 1_555
Na18 O58 2.639557 1_555
Na18 O59 2.644023 1_555
Na19 O62 2.571209 1_555
Na19 O60 2.576366 1_555
Na19 O67 2.605697 1_555
Na19 O66 2.631709 1_555
Na19 O68 2.638237 1_555
Na19 O61 2.691088 1_555
Na20 O65 2.490576 1_555
Na20 O70 2.617014 1_555
Na20 O64 2.619760 1_555
Na20 O63 2.645006 1_555
Na20 O69 2.650855 1_555
Na20 O71 2.736984 1_555
O0 P0 1.522278 1_555
O0 Zn0 2.132693 1_445
O1 P1 1.524215 1_555
O1 Zn0 2.121658 1_555
O2 P2 1.521851 1_555
O2 Zn0 2.143690 1_545
O3 P3 1.546996 1_555
O3 Zr0 2.202414 1_445
O4 Si0 1.632311 1_555
O4 Zr0 2.005130 1_555
O5 P4 1.547882 1_555
O5 Zr0 2.079473 1_545
O6 P4 1.559792 1_565
O6 Zr1 2.150243 1_665
O7 P3 1.555811 1_555
O7 Zr1 2.060020 1_555
O8 Si0 1.647212 1_455
O8 Zr1 2.050245 1_565
O9 P1 1.579041 1_555
O9 Zr2 2.104215 1_665
O10 P2 1.584106 1_455
O10 Zr2 2.061445 1_555
O11 P0 1.579773 1_565
O11 Zr2 2.105509 1_565
O12 Si1 1.602712 1_555
O12 Zn1 1.957023 1_555
O13 P5 1.525720 1_555
O13 Zn1 2.122876 1_555
O14 P6 1.517134 1_555
O14 Zn1 2.049268 1_555
O15 P7 1.525549 1_555
O15 Zn2 2.117994 1_555
O16 Si2 1.600958 1_555
O16 Zn2 1.969776 1_555
O17 Si3 1.603649 1_555
O17 Zn2 1.972118 1_555
O18 Si3 1.633783 1_555
O18 Zr3 2.122742 1_554
O19 P7 1.541056 1_555
O19 Zr3 2.124912 1_554
O20 Si2 1.630830 1_555
O20 Zr3 2.043290 1_554
O21 P5 1.548314 1_555
O21 Zr4 2.133196 1_555
O22 P6 1.555395 1_555
O22 Zr4 2.158535 1_555
O23 Si1 1.649735 1_555
O23 Zr4 2.040214 1_555
O24 Si4 1.640138 1_555
O24 Zr5 1.984875 1_556
O25 Si5 1.639290 1_555
O25 Zr5 2.031358 1_556
O26 P8 1.539906 1_555
O26 Zr5 2.140556 1_556
O27 Si6 1.632158 1_555
O27 Zr6 2.063159 1_555
O28 Si7 1.631422 1_555
O28 Zr6 1.967997 1_555
O29 Si8 1.636623 1_555
O29 Zr6 2.028393 1_555
O30 Si8 1.658707 1_555
O30 Zr7 2.014065 1_555
O31 Si6 1.658062 1_555
O31 Zr7 2.001423 1_555
O32 Si7 1.654948 1_555
O32 Zr7 2.006255 1_555
O33 Si5 1.648364 1_555
O33 Zr8 1.976828 1_555
O34 P8 1.546952 1_555
O34 Zr8 2.086751 1_555
O35 Si4 1.644851 1_555
O35 Zr8 2.030935 1_555
O36 Si8 1.603343 1_555
O36 Zn0 2.097031 1_455
O37 Si6 1.601437 1_555
O37 Zn0 2.111909 1_555
O38 Si7 1.601662 1_555
O38 Zn0 2.086389 1_445
O39 Si5 1.632671 1_555
O39 Zr0 2.109956 1_445
O40 P8 1.549762 1_555
O40 Zr0 2.175599 1_455
O41 Si4 1.622317 1_555
O41 Zr0 2.022870 1_555
O42 Si1 1.650331 1_555
O42 Zr1 2.069663 1_655
O43 P5 1.565390 1_555
O43 Zr1 2.127296 1_555
O44 P6 1.582381 1_555
O44 Zr1 2.177350 1_665
O45 P7 1.572228 1_555
O45 Zr2 2.187277 1_665
O46 Si2 1.658871 1_555
O46 Zr2 2.087734 1_655
O47 Si3 1.664880 1_555
O47 Zr2 2.088597 1_555
O48 P4 1.529839 1_555
O48 Zn1 2.321034 1_555
O49 P3 1.529496 1_555
O49 Zn1 2.331756 1_555
O50 Si0 1.611883 1_555
O50 Zn1 2.150888 1_555
O51 P1 1.542223 1_555
O51 Zn2 2.310705 1_555
O52 P2 1.540106 1_555
O52 Zn2 2.322850 1_555
O53 P0 1.540073 1_555
O53 Zn2 2.282235 1_555
O54 Si4 1.629520 1_555
O54 Zr3 2.119502 1_555
O55 Si5 1.613019 1_655
O55 Zr3 2.060155 1_555
O56 P8 1.547275 1_545
O56 Zr3 2.174054 1_555
O57 Si6 1.647201 1_545
O57 Zr4 2.082669 1_555
O58 Si7 1.638701 1_555
O58 Zr4 2.114973 1_555
O59 Si8 1.644796 1_655
O59 Zr4 2.094235 1_555
O60 Si3 1.658893 1_555
O60 Zr5 2.104752 1_555
O61 P7 1.560454 1_455
O61 Zr5 2.246357 1_555
O62 Si2 1.651411 1_565
O62 Zr5 2.124395 1_555
O63 P5 1.568652 1_565
O63 Zr6 2.269169 1_555
O64 P6 1.545439 1_555
O64 Zr6 2.211729 1_555
O65 Si1 1.639266 1_455
O65 Zr6 2.105451 1_555
O66 P0 1.582493 1_565
O66 Zr7 2.237981 1_555
O67 P1 1.581140 1_555
O67 Zr7 2.251746 1_555
O68 P2 1.580543 1_455
O68 Zr7 2.236148 1_555
O69 P3 1.569427 1_555
O69 Zr8 2.206412 1_555
O70 Si0 1.659044 1_455
O70 Zr8 2.127671 1_555
O71 P4 1.565820 1_565
O71 Zr8 2.247809 1_555
