# generated using pymatgen
data_PrGe
_symmetry_space_group_name_H-M   'P 1'
_cell_length_a   4.07451768
_cell_length_b   6.04252799
_cell_length_c   8.37510559
_cell_angle_alpha   90.00000000
_cell_angle_beta   90.00000000
_cell_angle_gamma   90.00000000
_symmetry_Int_Tables_number   1
_chemical_formula_structural   PrGe
_chemical_formula_sum   'Pr4 Ge4'
_cell_volume   206.19834186
_cell_formula_units_Z   4
loop_
 _symmetry_equiv_pos_site_id
 _symmetry_equiv_pos_as_xyz
  1  'x, y, z'
loop_
 _atom_site_type_symbol
 _atom_site_label
 _atom_site_symmetry_multiplicity
 _atom_site_fract_x
 _atom_site_fract_y
 _atom_site_fract_z
 _atom_site_occupancy
  Pr  Pr0  1  0.25000000  0.38314888  0.68069561  1
  Pr  Pr1  1  0.75000000  0.61685112  0.31930439  1
  Pr  Pr2  1  0.75000000  0.88314888  0.81930439  1
  Pr  Pr3  1  0.25000000  0.11685112  0.18069561  1
  Ge  Ge0  1  0.25000000  0.86558288  0.53769982  1
  Ge  Ge1  1  0.75000000  0.13441712  0.46230018  1
  Ge  Ge2  1  0.75000000  0.36558288  0.96230018  1
  Ge  Ge3  1  0.25000000  0.63441712  0.03769982  1
loop_
_geom_bond_atom_site_label_1
_geom_bond_atom_site_label_2
_geom_bond_distance
_geom_bond_site_symmetry_2
Ge0 Ge1 2.681043 1_565
Ge0 Ge1 2.681043 1_465
Ge0 Pr2 3.118343 1_455
Ge0 Pr2 3.118343 1_555
Ge0 Pr1 3.123282 1_555
Ge0 Pr1 3.123282 1_455
Ge0 Pr0 3.151537 1_555
Ge0 Pr0 3.348870 1_565
Ge0 Pr3 3.353358 1_565
Ge1 Pr3 3.118343 1_555
Ge1 Pr3 3.118343 1_655
Ge1 Pr0 3.123282 1_555
Ge1 Pr0 3.123282 1_655
Ge1 Pr1 3.151537 1_555
Ge1 Pr1 3.348870 1_545
Ge1 Pr2 3.353358 1_545
Ge2 Ge3 2.681043 1_556
Ge2 Ge3 2.681043 1_656
Ge2 Pr0 3.118343 1_655
Ge2 Pr0 3.118343 1_555
Ge2 Pr3 3.123282 1_556
Ge2 Pr3 3.123282 1_656
Ge2 Pr2 3.151537 1_545
Ge2 Pr2 3.348870 1_555
Ge2 Pr1 3.353358 1_556
Ge3 Pr1 3.118343 1_455
Ge3 Pr1 3.118343 1_555
Ge3 Pr2 3.123282 1_554
Ge3 Pr2 3.123282 1_454
Ge3 Pr3 3.151537 1_565
Ge3 Pr3 3.348870 1_555
Ge3 Pr0 3.353358 1_554
