# generated using pymatgen
data_NaNb2Zn2P3(SO8)3
_symmetry_space_group_name_H-M   'P 1'
_cell_length_a   8.77346634
_cell_length_b   8.76925232
_cell_length_c   22.64093223
_cell_angle_alpha   89.92152113
_cell_angle_beta   90.18063287
_cell_angle_gamma   119.91167755
_symmetry_Int_Tables_number   1
_chemical_formula_structural   NaNb2Zn2P3(SO8)3
_chemical_formula_sum   'Na3 Nb6 Zn6 P9 S9 O72'
_cell_volume   1509.87981629
_cell_formula_units_Z   3
loop_
 _symmetry_equiv_pos_site_id
 _symmetry_equiv_pos_as_xyz
  1  'x, y, z'
loop_
 _atom_site_type_symbol
 _atom_site_label
 _atom_site_symmetry_multiplicity
 _atom_site_fract_x
 _atom_site_fract_y
 _atom_site_fract_z
 _atom_site_occupancy
  Na  Na0  1  0.99114290  0.99987402  0.99983135  1
  Na  Na1  1  0.67530526  0.34273423  0.83512429  1
  Na  Na2  1  0.65984794  0.32867603  0.34050090  1
  Nb  Nb0  1  0.99900774  0.99656541  0.35632790  1
  Nb  Nb1  1  0.00107262  0.99870361  0.64439972  1
  Nb  Nb2  1  0.66020352  0.32457854  0.19086824  1
  Nb  Nb3  1  0.34032098  0.66662646  0.02412415  1
  Nb  Nb4  1  0.33347774  0.65825547  0.51785981  1
  Nb  Nb5  1  0.32540807  0.65889200  0.81137714  1
  Zn  Zn0  1  0.98995055  0.99259509  0.85540310  1
  Zn  Zn1  1  0.99163433  0.99260821  0.15046233  1
  Zn  Zn2  1  0.68346250  0.34239371  0.68371474  1
  Zn  Zn3  1  0.67715253  0.33697191  0.97900142  1
  Zn  Zn4  1  0.66638002  0.32281845  0.48123525  1
  Zn  Zn5  1  0.34945973  0.67605275  0.31129084  1
  P  P0  1  0.27889475  0.98922778  0.24861935  1
  P  P1  1  0.70898213  0.71298666  0.24827155  1
  P  P2  1  0.99251225  0.70911163  0.75269753  1
  P  P3  1  0.95331923  0.33583851  0.58320780  1
  P  P4  1  0.67634816  0.05088243  0.08097068  1
  P  P5  1  0.62478807  0.66448848  0.91667325  1
  P  P6  1  0.04109127  0.37212588  0.91773625  1
  P  P7  1  0.62034198  0.96007308  0.41447972  1
  P  P8  1  0.34062883  0.37752069  0.41311040  1
  S  S0  1  0.00614431  0.29270930  0.24961015  1
  S  S1  1  0.29258642  0.28563658  0.75124151  1
  S  S2  1  0.71039823  0.00304501  0.75122771  1
  S  S3  1  0.38017187  0.04342392  0.58399743  1
  S  S4  1  0.66511955  0.62013874  0.58345396  1
  S  S5  1  0.95464943  0.62466838  0.08194632  1
  S  S6  1  0.37537110  0.32668107  0.08194416  1
  S  S7  1  0.33333339  0.95609141  0.91682036  1
  S  S8  1  0.04205485  0.66185237  0.41487125  1
  O  O0  1  0.19843389  0.03320086  0.30463210  1
  O  O1  1  0.83469661  0.80050722  0.30437588  1
  O  O2  1  0.96495109  0.17435511  0.30295049  1
  O  O3  1  0.21124511  0.18212554  0.80366128  1
  O  O4  1  0.97189114  0.79783518  0.80626342  1
  O  O5  1  0.81910760  0.03330709  0.80330134  1
  O  O6  1  0.79475410  0.97295832  0.69728933  1
  O  O7  1  0.17807467  0.20562744  0.69699977  1
  O  O8  1  0.02450305  0.82904658  0.69586202  1
  O  O9  1  0.79139861  0.81888452  0.19376486  1
  O  O10  1  0.02723719  0.21405303  0.19612995  1
  O  O11  1  0.18127075  0.97917293  0.19294173  1
  O  O12  1  0.88644815  0.37284382  0.63934936  1
  O  O13  1  0.48236949  0.11642097  0.63764990  1
  O  O14  1  0.62997005  0.51657084  0.63696932  1
  O  O15  1  0.87437077  0.51220587  0.13548428  1
  O  O16  1  0.64121423  0.13744658  0.13740560  1
  O  O17  1  0.48884771  0.36188429  0.13615113  1
  O  O18  1  0.45701045  0.30567213  0.02938057  1
  O  O19  1  0.84857717  0.54652961  0.02918932  1
  O  O20  1  0.69491362  0.15784081  0.02677499  1
  O  O21  1  0.44525174  0.15089184  0.53140543  1
  O  O22  1  0.70188998  0.55196830  0.53064556  1
  O  O23  1  0.84367468  0.29439811  0.52837238  1
  O  O24  1  0.52456905  0.68664744  0.97207630  1
  O  O25  1  0.16217349  0.47510173  0.97159359  1
  O  O26  1  0.31086311  0.84379326  0.97009284  1
  O  O27  1  0.53002291  0.83759411  0.47133269  1
  O  O28  1  0.30652213  0.46666518  0.47107388  1
  O  O29  1  0.15566126  0.69387327  0.46972531  1
  O  O30  1  0.12163441  0.63634088  0.36299617  1
  O  O31  1  0.50810104  0.87588598  0.36151671  1
  O  O32  1  0.36024747  0.48902867  0.36081883  1
  O  O33  1  0.14148701  0.49502194  0.86111144  1
  O  O34  1  0.35530586  0.86540193  0.86287616  1
  O  O35  1  0.50397682  0.64693089  0.86161911  1
  O  O36  1  0.03259963  0.82958608  0.41057180  1
  O  O37  1  0.80489020  0.96970898  0.40718995  1
  O  O38  1  0.16629526  0.19417744  0.40710893  1
  O  O39  1  0.03804386  0.19902595  0.91164759  1
  O  O40  1  0.17330653  0.96672446  0.91246768  1
  O  O41  1  0.79960507  0.83351930  0.91405905  1
  O  O42  1  0.98388763  0.17259230  0.59688189  1
  O  O43  1  0.19481527  0.01962589  0.59427658  1
  O  O44  1  0.82210022  0.80526415  0.59338692  1
  O  O45  1  0.98533998  0.80312829  0.08887137  1
  O  O46  1  0.82927358  0.01985080  0.08990444  1
  O  O47  1  0.19854777  0.17937322  0.09000168  1
  O  O48  1  0.68152379  0.15167435  0.74225665  1
  O  O49  1  0.46786235  0.31117789  0.74161216  1
  O  O50  1  0.83797428  0.52583261  0.74380737  1
  O  O51  1  0.70031568  0.52478467  0.24057678  1
  O  O52  1  0.83502111  0.30367063  0.24363216  1
  O  O53  1  0.47204023  0.16917215  0.24171008  1
  O  O54  1  0.62837286  0.49429010  0.92107278  1
  O  O55  1  0.86618319  0.36659706  0.91880845  1
  O  O56  1  0.49359925  0.12649540  0.92010777  1
  O  O57  1  0.65124670  0.14375641  0.42379963  1
  O  O58  1  0.49642982  0.35388560  0.42589041  1
  O  O59  1  0.86538170  0.51498438  0.42437234  1
  O  O60  1  0.36287854  0.49442958  0.07633867  1
  O  O61  1  0.13311726  0.63630619  0.07455104  1
  O  O62  1  0.50016152  0.86359787  0.07306830  1
  O  O63  1  0.34969973  0.86190992  0.57453600  1
  O  O64  1  0.51107518  0.64955473  0.57479613  1
  O  O65  1  0.14414695  0.49543867  0.57090184  1
  O  O66  1  0.31021923  0.84075902  0.26000069  1
  O  O67  1  0.52726378  0.67635205  0.25877915  1
  O  O68  1  0.14906428  0.46673560  0.25979339  1
  O  O69  1  0.30526446  0.46493639  0.75653193  1
  O  O70  1  0.16756146  0.69753307  0.75983410  1
  O  O71  1  0.53499697  0.83733473  0.75733672  1
loop_
_geom_bond_atom_site_label_1
_geom_bond_atom_site_label_2
_geom_bond_distance
_geom_bond_site_symmetry_2
Na0 O41 2.503106 1_555
Na0 O46 2.544365 1_566
Na0 O39 2.546462 1_665
Na0 O45 2.635690 1_556
Na0 O40 2.652563 1_655
Na0 O47 2.661862 1_666
Na1 O55 2.463676 1_555
Na1 O54 2.506098 1_555
Na1 O50 2.571683 1_555
Na1 O56 2.614160 1_555
Na1 O48 2.707882 1_555
Na1 O49 2.710445 1_555
Na2 O57 2.462240 1_555
Na2 O58 2.485335 1_555
Na2 O59 2.564280 1_555
Na2 O53 2.713136 1_555
Na2 O52 2.752974 1_555
Na2 O51 2.754508 1_555
Nb0 O37 1.973236 1_555
Nb0 O38 1.984240 1_665
Nb0 O1 1.985099 1_555
Nb0 O0 1.996429 1_665
Nb0 O36 2.040217 1_655
Nb0 O2 2.106582 1_565
Nb1 O42 1.931113 1_465
Nb1 O43 1.977719 1_565
Nb1 O8 1.977889 1_555
Nb1 O44 2.003621 1_455
Nb1 O7 2.075187 1_565
Nb1 O6 2.089694 1_455
Nb2 O53 1.916110 1_555
Nb2 O51 1.964568 1_555
Nb2 O16 1.979227 1_555
Nb2 O52 2.020262 1_555
Nb2 O17 2.092745 1_555
Nb2 O15 2.176241 1_555
Nb3 O62 1.938493 1_555
Nb3 O24 1.939311 1_554
Nb3 O60 2.002156 1_555
Nb3 O25 2.013439 1_554
Nb3 O61 2.051618 1_555
Nb3 O26 2.090526 1_554
Nb4 O28 1.899413 1_555
Nb4 O27 1.964368 1_555
Nb4 O65 1.970413 1_555
Nb4 O29 2.047772 1_555
Nb4 O64 2.049641 1_555
Nb4 O63 2.146607 1_555
Nb5 O33 1.905561 1_555
Nb5 O70 1.962460 1_555
Nb5 O35 1.977811 1_555
Nb5 O69 2.042219 1_555
Nb5 O34 2.058622 1_555
Nb5 O71 2.113322 1_555
O0 P0 1.591782 1_545
O1 P1 1.602711 1_555
O2 S0 1.513773 1_655
O3 S1 1.448496 1_555
O3 Zn0 2.166793 1_445
O4 P2 1.501090 1_555
O4 Zn0 1.978394 1_555
O5 S2 1.453082 1_555
O5 Zn0 2.070516 1_545
O6 S2 1.519881 1_565
O7 S1 1.517031 1_555
O8 P2 1.595298 1_455
O9 P1 1.496990 1_555
O9 Zn1 1.925062 1_555
O10 S0 1.451603 1_555
O10 Zn1 2.082341 1_445
O11 P0 1.499547 1_555
O11 Zn1 1.972844 1_455
O12 P3 1.503633 1_555
O12 Zn2 1.946305 1_555
O13 S3 1.453321 1_555
O13 Zn2 2.152789 1_555
O14 S4 1.451905 1_555
O14 Zn2 2.093012 1_555
O15 S5 1.499114 1_555
O16 P4 1.594483 1_555
O17 S6 1.509819 1_555
O18 S6 1.449435 1_555
O18 Zn3 2.142672 1_554
O19 S5 1.456568 1_555
O19 Zn3 2.041733 1_554
O20 P4 1.502545 1_555
O20 Zn3 1.974889 1_554
O21 S3 1.447948 1_555
O21 Zn4 2.102193 1_555
O22 S4 1.444890 1_555
O22 Zn4 2.183143 1_555
O23 P3 1.497958 1_555
O23 Zn4 1.999017 1_555
O24 P5 1.600736 1_555
O25 P6 1.571293 1_555
O26 S7 1.505999 1_555
O27 P7 1.610037 1_555
O28 P8 1.631405 1_555
O29 S8 1.526026 1_555
O30 S8 1.441748 1_555
O30 Zn5 2.192351 1_555
O31 P7 1.490834 1_555
O31 Zn5 1.965747 1_555
O32 P8 1.489209 1_555
O32 Zn5 2.026156 1_555
O33 P6 1.624045 1_555
O34 S7 1.522618 1_555
O35 P5 1.590694 1_555
O36 S8 1.516955 1_555
O37 P7 1.587813 1_555
O38 P8 1.577836 1_555
O39 P6 1.511286 1_555
O39 Zn0 2.077928 1_445
O40 S7 1.455768 1_555
O40 Zn0 2.158379 1_455
O41 P5 1.511951 1_555
O41 Zn0 2.045485 1_555
O42 P3 1.611914 1_555
O43 S3 1.551157 1_555
O44 S4 1.533640 1_555
O45 S5 1.458195 1_555
O45 Zn1 2.150086 1_555
O46 P4 1.509090 1_555
O46 Zn1 2.071771 1_545
O47 S6 1.452983 1_555
O47 Zn1 2.212691 1_445
O48 S2 1.460291 1_555
O48 Zn2 2.126013 1_555
O49 S1 1.456341 1_555
O49 Zn2 2.206696 1_555
O50 P2 1.512554 1_555
O50 Zn2 2.023850 1_555
O51 P1 1.623414 1_555
O52 S0 1.556985 1_655
O53 P0 1.649294 1_545
O54 P5 1.511586 1_555
O54 Zn3 2.094485 1_555
O55 P6 1.511229 1_655
O55 Zn3 2.063694 1_555
O56 S7 1.455926 1_545
O56 Zn3 2.192451 1_555
O57 P7 1.509172 1_545
O57 Zn4 1.992709 1_555
O58 P8 1.508321 1_555
O58 Zn4 2.063984 1_555
O59 S8 1.455328 1_655
O59 Zn4 2.149284 1_555
O60 S6 1.533703 1_555
O61 S5 1.527206 1_455
O62 P4 1.608063 1_565
O63 S3 1.492370 1_565
O64 S4 1.509111 1_555
O65 P3 1.582525 1_455
O66 P0 1.480715 1_555
O66 Zn5 2.010473 1_555
O67 P1 1.480866 1_555
O67 Zn5 1.963312 1_555
O68 S0 1.430052 1_555
O68 Zn5 2.143407 1_555
O69 S1 1.524774 1_555
O70 P2 1.596551 1_455
O71 S2 1.506476 1_565
