# generated using pymatgen
data_Na7MgIn3(PO4)6
_symmetry_space_group_name_H-M   'P 1'
_cell_length_a   9.11529727
_cell_length_b   9.12288439
_cell_length_c   22.42500216
_cell_angle_alpha   89.92096305
_cell_angle_beta   90.01542396
_cell_angle_gamma   119.99349940
_symmetry_Int_Tables_number   1
_chemical_formula_structural   Na7MgIn3(PO4)6
_chemical_formula_sum   'Na21 Mg3 In9 P18 O72'
_cell_volume   1615.08027516
_cell_formula_units_Z   3
loop_
 _symmetry_equiv_pos_site_id
 _symmetry_equiv_pos_as_xyz
  1  'x, y, z'
loop_
 _atom_site_type_symbol
 _atom_site_label
 _atom_site_symmetry_multiplicity
 _atom_site_fract_x
 _atom_site_fract_y
 _atom_site_fract_z
 _atom_site_occupancy
  Na  Na0  1  0.63577400  0.00489601  0.24466456  1
  Na  Na1  1  0.36841834  0.36247064  0.24521290  1
  Na  Na2  1  0.99368255  0.63117871  0.24385255  1
  Na  Na3  1  0.63696106  0.63022935  0.74611484  1
  Na  Na4  1  0.99306585  0.36234918  0.74720933  1
  Na  Na5  1  0.37244321  0.00718072  0.74634715  1
  Na  Na6  1  0.02836743  0.69720522  0.58519781  1
  Na  Na7  1  0.66638663  0.97003456  0.58471868  1
  Na  Na8  1  0.30446133  0.97100434  0.08576372  1
  Na  Na9  1  0.66890804  0.69617167  0.08598297  1
  Na  Na10  1  0.69658088  0.03061076  0.92103298  1
  Na  Na11  1  0.33330289  0.30208530  0.92018988  1
  Na  Na12  1  0.96880591  0.29622660  0.41267236  1
  Na  Na13  1  0.32726968  0.03064048  0.41332858  1
  Na  Na14  1  0.70571027  0.67414534  0.41265815  1
  Na  Na15  1  0.01309302  0.01362244  0.49942582  1
  Na  Na16  1  0.99989655  0.99951526  0.00264398  1
  Na  Na17  1  0.67953548  0.34702753  0.83421522  1
  Na  Na18  1  0.66673220  0.33323199  0.32797077  1
  Na  Na19  1  0.31902973  0.65156056  0.16429806  1
  Na  Na20  1  0.33254505  0.65228765  0.66434965  1
  Mg  Mg0  1  0.00010437  0.00026675  0.34828574  1
  Mg  Mg1  1  0.66362593  0.33303847  0.68144879  1
  Mg  Mg2  1  0.67013844  0.33346981  0.18226917  1
  In  In0  1  0.00045532  0.99403647  0.84996525  1
  In  In1  1  0.00647621  0.00618889  0.64981427  1
  In  In2  1  0.00037511  0.00728722  0.15120502  1
  In  In3  1  0.67664562  0.33968148  0.98628027  1
  In  In4  1  0.66286556  0.33339695  0.48723251  1
  In  In5  1  0.32354743  0.66005635  0.01809003  1
  In  In6  1  0.33287703  0.66021275  0.51773133  1
  In  In7  1  0.33356960  0.66664323  0.31798357  1
  In  In8  1  0.32932998  0.66621495  0.81970216  1
  P  P0  1  0.29875402  0.00109817  0.25128558  1
  P  P1  1  0.70208614  0.70131740  0.25160769  1
  P  P2  1  0.99890537  0.29814203  0.25343817  1
  P  P3  1  0.30204553  0.30127389  0.75171565  1
  P  P4  1  0.99829101  0.69775215  0.74787121  1
  P  P5  1  0.69960085  0.00075754  0.74986187  1
  P  P6  1  0.96236310  0.33279163  0.58461812  1
  P  P7  1  0.36741784  0.03328099  0.58400927  1
  P  P8  1  0.66787917  0.63382175  0.58530935  1
  P  P9  1  0.96453155  0.63379835  0.08746549  1
  P  P10  1  0.66607583  0.03393343  0.08395798  1
  P  P11  1  0.37148179  0.33270377  0.08431372  1
  P  P12  1  0.63180734  0.66601215  0.91714107  1
  P  P13  1  0.03134742  0.36386979  0.91412740  1
  P  P14  1  0.33514463  0.96973604  0.91758857  1
  P  P15  1  0.63538253  0.96783269  0.41744634  1
  P  P16  1  0.33161133  0.36423489  0.41533953  1
  P  P17  1  0.03257847  0.66782581  0.41765329  1
  O  O0  1  0.21088641  0.02179112  0.30650415  1
  O  O1  1  0.81037081  0.78991526  0.30683149  1
  O  O2  1  0.97742614  0.19364456  0.30993870  1
  O  O3  1  0.22614590  0.19549976  0.80957414  1
  O  O4  1  0.96551990  0.78263525  0.80183960  1
  O  O5  1  0.81020012  0.02966647  0.80620595  1
  O  O6  1  0.78008519  0.96667453  0.69423179  1
  O  O7  1  0.17867557  0.21664644  0.69910147  1
  O  O8  1  0.03277630  0.80799995  0.69103675  1
  O  O9  1  0.77974570  0.80996179  0.19422495  1
  O  O10  1  0.03695673  0.21918519  0.19855841  1
  O  O11  1  0.18994626  0.96965995  0.19394143  1
  O  O12  1  0.87091033  0.35166384  0.63888923  1
  O  O13  1  0.47719866  0.12481566  0.63828281  1
  O  O14  1  0.65387196  0.52886959  0.64038402  1
  O  O15  1  0.88002678  0.53248487  0.14399350  1
  O  O16  1  0.64765756  0.12557670  0.13827328  1
  O  O17  1  0.48244864  0.35324393  0.13883273  1
  O  O18  1  0.44898012  0.30771311  0.02569074  1
  O  O19  1  0.85572395  0.55383209  0.03115706  1
  O  O20  1  0.68463535  0.12933516  0.02443632  1
  O  O21  1  0.44370066  0.12810087  0.52437162  1
  O  O22  1  0.69219470  0.55688251  0.52660687  1
  O  O23  1  0.86044376  0.30801186  0.52590717  1
  O  O24  1  0.54557707  0.69262143  0.97237934  1
  O  O25  1  0.15202667  0.45384364  0.96659543  1
  O  O26  1  0.31567868  0.86416149  0.97380569  1
  O  O27  1  0.55266832  0.85755002  0.47378183  1
  O  O28  1  0.29823589  0.44940952  0.46898282  1
  O  O29  1  0.14285127  0.69628491  0.47404064  1
  O  O30  1  0.11296133  0.63340889  0.36214493  1
  O  O31  1  0.52108932  0.88714224  0.36175776  1
  O  O32  1  0.36794513  0.47472532  0.35832988  1
  O  O33  1  0.10422734  0.45960765  0.85462987  1
  O  O34  1  0.35936208  0.88878572  0.86014583  1
  O  O35  1  0.52461895  0.63884948  0.85983514  1
  O  O36  1  0.01528705  0.82679359  0.41123459  1
  O  O37  1  0.81166790  0.98482712  0.41154788  1
  O  O38  1  0.17466811  0.18639348  0.41015122  1
  O  O39  1  0.01504171  0.18514483  0.91283470  1
  O  O40  1  0.17954143  0.99550687  0.91447969  1
  O  O41  1  0.80608308  0.83076812  0.91330895  1
  O  O42  1  0.97745494  0.17055015  0.58719054  1
  O  O43  1  0.18365782  0.00285206  0.58628296  1
  O  O44  1  0.82980440  0.81422869  0.58686270  1
  O  O45  1  0.98525334  0.81514262  0.08857597  1
  O  O46  1  0.81886722  0.00241495  0.08673435  1
  O  O47  1  0.19414551  0.17049912  0.08731416  1
  O  O48  1  0.68080959  0.15900133  0.74365863  1
  O  O49  1  0.47767374  0.31783390  0.74364538  1
  O  O50  1  0.84137402  0.51950827  0.74306194  1
  O  O51  1  0.68249681  0.52283110  0.24644878  1
  O  O52  1  0.83818629  0.31379140  0.24587130  1
  O  O53  1  0.47720524  0.16028213  0.24553216  1
  O  O54  1  0.64469549  0.50354004  0.92126855  1
  O  O55  1  0.85095466  0.33839130  0.92015926  1
  O  O56  1  0.49814670  0.14770564  0.92019509  1
  O  O57  1  0.65260878  0.14670232  0.42127827  1
  O  O58  1  0.49418576  0.34924185  0.42146840  1
  O  O59  1  0.85338556  0.50650752  0.42182997  1
  O  O60  1  0.36054348  0.49796336  0.08092762  1
  O  O61  1  0.14662598  0.65907713  0.08245182  1
  O  O62  1  0.50058709  0.85483810  0.08198870  1
  O  O63  1  0.35412209  0.85468794  0.58210541  1
  O  O64  1  0.51165935  0.65997024  0.58226681  1
  O  O65  1  0.13793961  0.49822893  0.58150578  1
  O  O66  1  0.31843299  0.83962878  0.25428426  1
  O  O67  1  0.52086678  0.68215865  0.25404118  1
  O  O68  1  0.15835029  0.48091367  0.25522020  1
  O  O69  1  0.32212480  0.48153872  0.75479636  1
  O  O70  1  0.16152821  0.68367154  0.75382569  1
  O  O71  1  0.52060302  0.83898070  0.75446596  1
loop_
_geom_bond_atom_site_label_1
_geom_bond_atom_site_label_2
_geom_bond_distance
_geom_bond_site_symmetry_2
Na0 O53 2.479458 1_555
Na0 O52 2.479513 1_555
Na0 O66 2.515194 1_545
Na0 O67 2.593316 1_545
Na0 O16 2.605697 1_555
Na0 O31 2.830665 1_545
Na0 O9 2.916152 1_545
Na1 O51 2.479895 1_555
Na1 O53 2.492870 1_555
Na1 O67 2.534861 1_555
Na1 O17 2.620651 1_555
Na1 O68 2.637057 1_555
Na1 O32 2.737690 1_555
Na1 O10 2.825839 1_555
Na2 O15 2.443425 1_555
Na2 O51 2.494622 1_555
Na2 O68 2.500654 1_655
Na2 O52 2.508254 1_555
Na2 O66 2.608923 1_655
Na2 O30 2.862846 1_655
Na2 O11 2.908070 1_655
Na3 O49 2.469140 1_555
Na3 O69 2.494257 1_555
Na3 O50 2.525628 1_555
Na3 O14 2.578620 1_555
Na3 O71 2.609101 1_555
Na3 O35 2.764183 1_555
Na3 O4 2.881623 1_555
Na3 O6 2.909303 1_555
Na4 O50 2.440863 1_555
Na4 O48 2.504069 1_555
Na4 O70 2.544333 1_655
Na4 O33 2.592781 1_655
Na4 O69 2.635811 1_655
Na4 O12 2.653384 1_555
Na4 O7 2.836651 1_655
Na4 O5 2.944873 1_555
Na5 O48 2.435229 1_555
Na5 O49 2.497449 1_555
Na5 O71 2.506526 1_545
Na5 O70 2.600105 1_545
Na5 O13 2.627851 1_555
Na5 O34 2.749002 1_545
Na6 O43 2.415221 1_565
Na6 O65 2.472376 1_555
Na6 O44 2.519756 1_455
Na6 O63 2.573046 1_555
Na6 O8 2.573408 1_555
Na6 O29 2.704227 1_555
Na7 O64 2.450569 1_555
Na7 O42 2.490705 1_565
Na7 O63 2.493611 1_555
Na7 O44 2.521562 1_555
Na7 O6 2.671395 1_555
Na7 O27 2.694185 1_555
Na8 O61 2.465867 1_555
Na8 O47 2.480840 1_565
Na8 O62 2.494167 1_555
Na8 O45 2.520989 1_455
Na8 O11 2.638778 1_555
Na8 O26 2.714860 1_554
Na9 O46 2.419945 1_565
Na9 O60 2.470242 1_555
Na9 O45 2.523372 1_555
Na9 O62 2.584056 1_555
Na9 O9 2.635779 1_555
Na9 O24 2.777989 1_554
Na9 O19 2.883402 1_555
Na9 O17 2.958955 1_555
Na10 O55 2.431879 1_555
Na10 O41 2.484050 1_545
Na10 O20 2.510758 1_556
Na10 O56 2.518923 1_555
Na10 O39 2.521087 1_655
Na10 O5 2.777358 1_555
Na10 O24 2.911309 1_545
Na10 O34 3.002198 1_545
Na11 O40 2.425896 1_545
Na11 O54 2.493890 1_555
Na11 O56 2.521347 1_555
Na11 O39 2.547019 1_555
Na11 O18 2.580041 1_556
Na11 O3 2.666177 1_555
Na11 O25 2.832354 1_555
Na11 O35 2.990811 1_555
Na12 O37 2.460615 1_545
Na12 O2 2.503807 1_555
Na12 O57 2.504788 1_555
Na12 O38 2.531503 1_655
Na12 O59 2.616928 1_555
Na12 O23 2.746542 1_555
Na12 O28 2.893418 1_655
Na12 O30 2.902190 1_655
Na13 O38 2.436139 1_555
Na13 O36 2.502101 1_545
Na13 O58 2.525121 1_555
Na13 O0 2.604630 1_555
Na13 O57 2.609272 1_555
Na13 O21 2.679355 1_555
Na13 O31 2.913796 1_545
Na13 O29 2.974368 1_545
Na14 O36 2.444244 1_655
Na14 O37 2.495931 1_555
Na14 O59 2.500082 1_555
Na14 O1 2.577678 1_555
Na14 O58 2.612845 1_555
Na14 O22 2.747729 1_555
Na14 O32 2.945709 1_555
Na14 O27 2.994237 1_555
Na15 O38 2.516615 1_555
Na15 O43 2.524141 1_555
Na15 O42 2.549845 1_455
Na15 O37 2.615502 1_445
Na15 O36 2.619178 1_545
Na15 O44 2.626458 1_445
Na16 O46 2.514969 1_565
Na16 O45 2.515379 1_555
Na16 O47 2.533467 1_665
Na16 O40 2.579432 1_654
Na16 O39 2.588438 1_664
Na16 O41 2.606116 1_554
Na17 O55 2.506639 1_555
Na17 O54 2.532184 1_555
Na17 O50 2.550007 1_555
Na17 O56 2.596915 1_555
Na17 O49 2.662938 1_555
Na17 O48 2.663821 1_555
Na18 O51 2.469302 1_555
Na18 O52 2.478532 1_555
Na18 O53 2.484501 1_555
Na18 O57 2.657411 1_555
Na18 O58 2.668979 1_555
Na18 O59 2.672454 1_555
Na19 O61 2.439035 1_555
Na19 O60 2.477859 1_555
Na19 O68 2.537551 1_555
Na19 O62 2.551198 1_555
Na19 O67 2.645563 1_555
Na19 O66 2.652304 1_555
Na20 O64 2.438363 1_555
Na20 O65 2.467004 1_555
Na20 O69 2.528409 1_555
Na20 O63 2.545073 1_555
Na20 O70 2.643406 1_555
Na20 O71 2.647979 1_555
Mg0 O1 2.055164 1_445
Mg0 O0 2.056998 1_555
Mg0 O2 2.062722 1_455
Mg0 O38 2.154953 1_555
Mg0 O36 2.174650 1_545
Mg0 O37 2.177527 1_445
Mg1 O12 2.046787 1_555
Mg1 O14 2.049851 1_555
Mg1 O13 2.051827 1_555
Mg1 O49 2.145535 1_555
Mg1 O50 2.162783 1_555
Mg1 O48 2.175772 1_555
Mg2 O17 2.053176 1_555
Mg2 O15 2.053560 1_555
Mg2 O16 2.056430 1_555
Mg2 O52 2.164714 1_555
Mg2 O53 2.195192 1_555
Mg2 O51 2.209208 1_555
In0 O4 2.092152 1_455
In0 O5 2.153596 1_465
In0 O3 2.155625 1_565
In0 O41 2.175429 1_455
In0 O40 2.175987 1_555
In0 O39 2.195431 1_565
In1 O7 2.088911 1_555
In1 O8 2.147024 1_545
In1 O6 2.153365 1_445
In1 O42 2.163576 1_455
In1 O43 2.165551 1_555
In1 O44 2.199785 1_445
In2 O10 2.082492 1_555
In2 O9 2.143008 1_445
In2 O11 2.147911 1_545
In2 O46 2.180576 1_455
In2 O47 2.180732 1_555
In2 O45 2.197571 1_445
In3 O19 2.076116 1_556
In3 O20 2.134252 1_556
In3 O18 2.137265 1_556
In3 O55 2.177907 1_555
In3 O54 2.207691 1_555
In3 O56 2.251153 1_555
In4 O21 2.109058 1_555
In4 O23 2.113044 1_555
In4 O22 2.113723 1_555
In4 O58 2.186396 1_555
In4 O59 2.216751 1_555
In4 O57 2.223688 1_555
In5 O25 2.093167 1_554
In5 O26 2.141701 1_554
In5 O24 2.152714 1_554
In5 O61 2.161208 1_555
In5 O60 2.186018 1_555
In5 O62 2.225732 1_555
In6 O28 2.095634 1_555
In6 O27 2.148559 1_555
In6 O29 2.153288 1_555
In6 O64 2.180026 1_555
In6 O65 2.180987 1_555
In6 O63 2.220935 1_555
In7 O31 2.120993 1_555
In7 O30 2.122990 1_555
In7 O32 2.127493 1_555
In7 O68 2.168538 1_555
In7 O67 2.179460 1_555
In7 O66 2.182060 1_555
In8 O34 2.114139 1_555
In8 O35 2.117534 1_555
In8 O33 2.122834 1_555
In8 O70 2.188369 1_555
In8 O69 2.203951 1_555
In8 O71 2.216235 1_555
O0 P0 1.537147 1_555
O1 P1 1.538064 1_555
O2 P2 1.537104 1_555
O3 P3 1.556537 1_555
O4 P4 1.545197 1_555
O5 P5 1.554603 1_555
O6 P5 1.555894 1_565
O7 P3 1.544843 1_555
O8 P4 1.554145 1_455
O9 P1 1.560399 1_555
O10 P2 1.551191 1_455
O11 P0 1.560619 1_565
O12 P6 1.533083 1_555
O13 P7 1.531885 1_555
O14 P8 1.527412 1_555
O15 P9 1.529709 1_555
O16 P10 1.534274 1_555
O17 P11 1.537343 1_555
O18 P11 1.562557 1_555
O19 P9 1.545578 1_555
O20 P10 1.554810 1_555
O21 P7 1.554440 1_555
O22 P8 1.559797 1_555
O23 P6 1.561344 1_555
O24 P12 1.550256 1_555
O25 P13 1.538637 1_555
O26 P14 1.540884 1_555
O27 P15 1.554115 1_555
O28 P16 1.543554 1_555
O29 P17 1.554349 1_555
O30 P17 1.554510 1_555
O31 P15 1.556241 1_555
O32 P16 1.556614 1_555
O33 P13 1.549674 1_555
O34 P14 1.555385 1_555
O35 P12 1.557440 1_555
O36 P17 1.541662 1_555
O37 P15 1.540979 1_555
O38 P16 1.540210 1_555
O39 P13 1.561811 1_555
O40 P14 1.550873 1_555
O41 P12 1.550030 1_555
O42 P6 1.554449 1_555
O43 P7 1.555792 1_555
O44 P8 1.568409 1_555
O45 P9 1.568746 1_555
O46 P10 1.557745 1_555
O47 P11 1.554182 1_555
O48 P5 1.542546 1_555
O49 P3 1.541668 1_555
O50 P4 1.541652 1_555
O51 P1 1.551281 1_555
O52 P2 1.550587 1_555
O53 P0 1.552210 1_555
O54 P12 1.546945 1_555
O55 P13 1.547275 1_655
O56 P14 1.560593 1_545
O57 P15 1.561741 1_545
O58 P16 1.560821 1_555
O59 P17 1.561713 1_655
O60 P11 1.561624 1_555
O61 P9 1.561483 1_455
O62 P10 1.575745 1_565
O63 P7 1.572846 1_565
O64 P8 1.558473 1_555
O65 P6 1.558494 1_455
O66 P0 1.571792 1_565
O67 P1 1.572754 1_555
O68 P2 1.572073 1_455
O69 P3 1.562734 1_555
O70 P4 1.561822 1_455
O71 P5 1.563048 1_565
