# generated using pymatgen
data_Na2Ta6Al2Si7S5O48
_symmetry_space_group_name_H-M   'P 1'
_cell_length_a   17.54859090
_cell_length_b   8.78202519
_cell_length_c   22.65324322
_cell_angle_alpha   90.05091531
_cell_angle_beta   89.96935905
_cell_angle_gamma   120.05041140
_symmetry_Int_Tables_number   1
_chemical_formula_structural   Na2Ta6Al2Si7S5O48
_chemical_formula_sum   'Na6 Ta18 Al6 Si21 S15 O144'
_cell_volume   3021.87807047
_cell_formula_units_Z   3
loop_
 _symmetry_equiv_pos_site_id
 _symmetry_equiv_pos_as_xyz
  1  'x, y, z'
loop_
 _atom_site_type_symbol
 _atom_site_label
 _atom_site_symmetry_multiplicity
 _atom_site_fract_x
 _atom_site_fract_y
 _atom_site_fract_z
 _atom_site_occupancy
  Na  Na0  1  0.99936695  0.00183462  0.49652048  1
  Na  Na1  1  0.50016873  0.00406917  0.99249529  1
  Na  Na2  1  0.33497912  0.32716336  0.83183681  1
  Na  Na3  1  0.82664582  0.32964676  0.83496803  1
  Na  Na4  1  0.32762136  0.32481466  0.34089975  1
  Na  Na5  1  0.83374248  0.34325793  0.33779916  1
  Ta  Ta0  1  0.49928383  0.99150474  0.36027413  1
  Ta  Ta1  1  0.99913271  0.00367769  0.85769952  1
  Ta  Ta2  1  0.49713975  0.00129196  0.64075546  1
  Ta  Ta3  1  0.99615034  0.99342720  0.14123419  1
  Ta  Ta4  1  0.32787776  0.33610986  0.68981117  1
  Ta  Ta5  1  0.83132418  0.31697704  0.68916355  1
  Ta  Ta6  1  0.32696735  0.33563708  0.19232202  1
  Ta  Ta7  1  0.82823969  0.31903269  0.19146266  1
  Ta  Ta8  1  0.32998798  0.33434217  0.97267612  1
  Ta  Ta9  1  0.83463690  0.32238792  0.47494713  1
  Ta  Ta10  1  0.17309577  0.67341029  0.02105595  1
  Ta  Ta11  1  0.67290237  0.66937447  0.02096425  1
  Ta  Ta12  1  0.16780222  0.66909303  0.52436931  1
  Ta  Ta13  1  0.67544683  0.67259069  0.52192147  1
  Ta  Ta14  1  0.17077421  0.68891003  0.31197490  1
  Ta  Ta15  1  0.67650207  0.67657048  0.30776091  1
  Ta  Ta16  1  0.17581670  0.67593920  0.80600842  1
  Ta  Ta17  1  0.66931604  0.65001615  0.80967472  1
  Al  Al0  1  0.99802505  0.96886279  0.35703755  1
  Al  Al1  1  0.49783097  0.02781371  0.85536726  1
  Al  Al2  1  0.99464442  0.02767368  0.64860274  1
  Al  Al3  1  0.49770529  0.98673511  0.15448713  1
  Al  Al4  1  0.83081640  0.32871252  0.98006980  1
  Al  Al5  1  0.32875741  0.32915457  0.48095546  1
  Si  Si0  1  0.13440633  0.99932102  0.25333744  1
  Si  Si1  1  0.63531102  0.99188568  0.24856604  1
  Si  Si2  1  0.35847870  0.72255903  0.24841024  1
  Si  Si3  1  0.86309188  0.71785812  0.25124131  1
  Si  Si4  1  0.13642147  0.27771855  0.74836534  1
  Si  Si5  1  0.63849889  0.26819849  0.75287127  1
  Si  Si6  1  0.36377769  0.01029260  0.75085283  1
  Si  Si7  1  0.85803826  0.99670731  0.74866788  1
  Si  Si8  1  0.97772065  0.32532829  0.58412475  1
  Si  Si9  1  0.68853335  0.04519162  0.58170085  1
  Si  Si10  1  0.33499404  0.61239036  0.57726700  1
  Si  Si11  1  0.83361382  0.05692176  0.07800286  1
  Si  Si12  1  0.18866845  0.33256290  0.08275972  1
  Si  Si13  1  0.31950716  0.68578359  0.91290643  1
  Si  Si14  1  0.81211622  0.64898267  0.91803897  1
  Si  Si15  1  0.52624420  0.37768824  0.91688827  1
  Si  Si16  1  0.16310353  0.94636195  0.91624981  1
  Si  Si17  1  0.31081176  0.97230625  0.42066877  1
  Si  Si18  1  0.82017597  0.95571841  0.41344252  1
  Si  Si19  1  0.66628892  0.38074299  0.41680660  1
  Si  Si20  1  0.02537113  0.67451718  0.41689560  1
  S  S0  1  0.00118383  0.28391297  0.25123347  1
  S  S1  1  0.50022604  0.28121979  0.24788293  1
  S  S2  1  0.99989652  0.71861007  0.74839584  1
  S  S3  1  0.50083311  0.71781091  0.75131993  1
  S  S4  1  0.47455672  0.33549237  0.58088405  1
  S  S5  1  0.18757313  0.04850865  0.58271239  1
  S  S6  1  0.83871827  0.62639556  0.58429623  1
  S  S7  1  0.47744059  0.62754326  0.08392787  1
  S  S8  1  0.97434397  0.61365775  0.08102798  1
  S  S9  1  0.33933527  0.04929668  0.08405042  1
  S  S10  1  0.68616114  0.32476483  0.08304148  1
  S  S11  1  0.02028268  0.38274848  0.91749768  1
  S  S12  1  0.66794961  0.95895958  0.91717951  1
  S  S13  1  0.16725745  0.37649339  0.41696812  1
  S  S14  1  0.52078249  0.65652822  0.41772743  1
  O  O0  1  0.09563827  0.04252013  0.30998844  1
  O  O1  1  0.59641071  0.03428128  0.30757692  1
  O  O2  1  0.41993625  0.80753128  0.30656900  1
  O  O3  1  0.91866516  0.80103104  0.30906272  1
  O  O4  1  0.48185952  0.17291146  0.30137048  1
  O  O5  1  0.98087511  0.17572671  0.30308313  1
  O  O6  1  0.09818684  0.16208444  0.80878516  1
  O  O7  1  0.59612532  0.15003131  0.81046850  1
  O  O8  1  0.48089764  0.78660845  0.80387490  1
  O  O9  1  0.98527142  0.79729807  0.80298047  1
  O  O10  1  0.41696277  0.03583045  0.81005544  1
  O  O11  1  0.91905116  0.03137507  0.80763309  1
  O  O12  1  0.40203058  0.97098231  0.69120976  1
  O  O13  1  0.89916077  0.95964077  0.69172126  1
  O  O14  1  0.08391114  0.18753564  0.68990614  1
  O  O15  1  0.58084269  0.18375524  0.69307321  1
  O  O16  1  0.01484705  0.82337408  0.69557811  1
  O  O17  1  0.51250929  0.81898263  0.69668129  1
  O  O18  1  0.39948897  0.83711427  0.18998451  1
  O  O19  1  0.90210044  0.83276321  0.19093273  1
  O  O20  1  0.01195358  0.20438507  0.19594333  1
  O  O21  1  0.51402814  0.20204284  0.19435919  1
  O  O22  1  0.08090030  0.97706407  0.19230977  1
  O  O23  1  0.58428137  0.97798149  0.18876671  1
  O  O24  1  0.43476616  0.35930123  0.63531285  1
  O  O25  1  0.93124096  0.36322180  0.64139855  1
  O  O26  1  0.24454621  0.13110381  0.63684403  1
  O  O27  1  0.75075828  0.13438736  0.64045324  1
  O  O28  1  0.32143801  0.49410188  0.63773806  1
  O  O29  1  0.81976868  0.51463185  0.63719441  1
  O  O30  1  0.43722209  0.51455098  0.13684383  1
  O  O31  1  0.93477465  0.50981642  0.13515368  1
  O  O32  1  0.32417094  0.13029420  0.13681933  1
  O  O33  1  0.82037085  0.14806430  0.13799042  1
  O  O34  1  0.25320388  0.36614152  0.14024373  1
  O  O35  1  0.74225815  0.35774417  0.13685457  1
  O  O36  1  0.24010380  0.30556144  0.02766771  1
  O  O37  1  0.72816329  0.30107759  0.03036968  1
  O  O38  1  0.42145869  0.54120963  0.03109675  1
  O  O39  1  0.91950418  0.53521982  0.02854345  1
  O  O40  1  0.35108601  0.15529127  0.03048850  1
  O  O41  1  0.84628838  0.18076517  0.02327573  1
  O  O42  1  0.23042693  0.15813015  0.53027995  1
  O  O43  1  0.73516626  0.17166738  0.52566563  1
  O  O44  1  0.34815091  0.51214994  0.52312827  1
  O  O45  1  0.84872447  0.54476858  0.53026395  1
  O  O46  1  0.41952234  0.30354632  0.52854727  1
  O  O47  1  0.91407222  0.30148719  0.52722255  1
  O  O48  1  0.26610096  0.70117580  0.97225503  1
  O  O49  1  0.76596248  0.69063963  0.97500244  1
  O  O50  1  0.07695249  0.46523940  0.97109122  1
  O  O51  1  0.58472818  0.47956921  0.97559783  1
  O  O52  1  0.15115254  0.83149763  0.97590745  1
  O  O53  1  0.65576902  0.84523726  0.97105380  1
  O  O54  1  0.26548908  0.83975634  0.47553498  1
  O  O55  1  0.76668617  0.83153208  0.47211854  1
  O  O56  1  0.15506041  0.46239309  0.47047285  1
  O  O57  1  0.65010585  0.47085303  0.47525297  1
  O  O58  1  0.08629656  0.69319798  0.47390198  1
  O  O59  1  0.57656968  0.68830052  0.47070145  1
  O  O60  1  0.06841896  0.63066099  0.35902196  1
  O  O61  1  0.56021670  0.63243318  0.36383333  1
  O  O62  1  0.24951549  0.87514722  0.36085030  1
  O  O63  1  0.75159297  0.86244790  0.35799693  1
  O  O64  1  0.18385999  0.48918466  0.36372157  1
  O  O65  1  0.67585663  0.50116056  0.35934862  1
  O  O66  1  0.05987490  0.48882773  0.86448989  1
  O  O67  1  0.56753398  0.50703676  0.86008117  1
  O  O68  1  0.17726745  0.85206480  0.85954272  1
  O  O69  1  0.68380744  0.87967523  0.86453464  1
  O  O70  1  0.25060144  0.63753539  0.85829390  1
  O  O71  1  0.74812127  0.62323894  0.86108396  1
  O  O72  1  0.01929206  0.84964802  0.41262641  1
  O  O73  1  0.51377654  0.82032607  0.41214254  1
  O  O74  1  0.40450785  0.98407613  0.40417798  1
  O  O75  1  0.91649748  0.98575408  0.40599596  1
  O  O76  1  0.08839963  0.20505396  0.41111894  1
  O  O77  1  0.58033918  0.18889734  0.40640711  1
  O  O78  1  0.01372336  0.20704972  0.91212070  1
  O  O79  1  0.51848862  0.18900192  0.91286147  1
  O  O80  1  0.08029171  0.97411216  0.90801773  1
  O  O81  1  0.58826622  0.97116849  0.91334627  1
  O  O82  1  0.41655406  0.84751600  0.90632946  1
  O  O83  1  0.90512110  0.82594295  0.90530555  1
  O  O84  1  0.48517692  0.17782834  0.58825747  1
  O  O85  1  0.98585167  0.15055288  0.58862693  1
  O  O86  1  0.09986443  0.02362768  0.59062155  1
  O  O87  1  0.59347175  0.02353080  0.59375823  1
  O  O88  1  0.41908025  0.80431343  0.59263759  1
  O  O89  1  0.91595052  0.80152448  0.59120715  1
  O  O90  1  0.48507704  0.80287376  0.09021078  1
  O  O91  1  0.98530567  0.79272688  0.08833844  1
  O  O92  1  0.41688481  0.02743608  0.09072351  1
  O  O93  1  0.91697277  0.02959207  0.09220137  1
  O  O94  1  0.09410630  0.16320723  0.09324969  1
  O  O95  1  0.59708648  0.17190022  0.09091561  1
  O  O96  1  0.34931974  0.17890989  0.73898162  1
  O  O97  1  0.85042037  0.17786419  0.74481932  1
  O  O98  1  0.23933107  0.31170714  0.74298064  1
  O  O99  1  0.74143383  0.31498302  0.74219876  1
  O  O100  1  0.42180207  0.53218536  0.74189007  1
  O  O101  1  0.91929498  0.54071648  0.74391947  1
  O  O102  1  0.35243632  0.52507921  0.24207486  1
  O  O103  1  0.84892163  0.52049647  0.23809023  1
  O  O104  1  0.42036932  0.30118224  0.23918838  1
  O  O105  1  0.92160930  0.31078575  0.24113888  1
  O  O106  1  0.23913119  0.16655899  0.24141123  1
  O  O107  1  0.73807500  0.16534745  0.24235679  1
  O  O108  1  0.32254727  0.50211882  0.92474081  1
  O  O109  1  0.82153049  0.47859957  0.93008833  1
  O  O110  1  0.42872307  0.35796229  0.92889500  1
  O  O111  1  0.93202803  0.36021210  0.92580127  1
  O  O112  1  0.25301867  0.14016872  0.92444611  1
  O  O113  1  0.74781547  0.13533850  0.92585994  1
  O  O114  1  0.32224432  0.16528927  0.42967290  1
  O  O115  1  0.82034461  0.14168167  0.42136838  1
  O  O116  1  0.24787234  0.36028342  0.42454811  1
  O  O117  1  0.75414730  0.36699091  0.42446756  1
  O  O118  1  0.43194463  0.50365166  0.42467617  1
  O  O119  1  0.92749102  0.49977933  0.42522052  1
  O  O120  1  0.17760242  0.50402560  0.07235944  1
  O  O121  1  0.67954892  0.48862218  0.07670215  1
  O  O122  1  0.06321314  0.63397646  0.07394991  1
  O  O123  1  0.56516407  0.64558099  0.07556870  1
  O  O124  1  0.25723236  0.87193515  0.07684660  1
  O  O125  1  0.74605874  0.86166288  0.07145660  1
  O  O126  1  0.18372109  0.87534449  0.57766166  1
  O  O127  1  0.67635647  0.84998877  0.57142750  1
  O  O128  1  0.24936639  0.63486936  0.57075143  1
  O  O129  1  0.75650381  0.64313478  0.57687762  1
  O  O130  1  0.07276085  0.50082604  0.57267895  1
  O  O131  1  0.56304584  0.49271996  0.57417810  1
  O  O132  1  0.15049770  0.83069279  0.25904134  1
  O  O133  1  0.64591208  0.82075640  0.26044796  1
  O  O134  1  0.25870148  0.67841684  0.26185881  1
  O  O135  1  0.76239915  0.68741324  0.25694235  1
  O  O136  1  0.07917850  0.46032918  0.25684424  1
  O  O137  1  0.57605060  0.45859731  0.25620822  1
  O  O138  1  0.14675307  0.47058538  0.76074945  1
  O  O139  1  0.64928510  0.46724076  0.75913715  1
  O  O140  1  0.07627538  0.69233134  0.75906245  1
  O  O141  1  0.57898891  0.69765728  0.75816021  1
  O  O142  1  0.26289952  0.83766569  0.75698063  1
  O  O143  1  0.75880156  0.83650427  0.76308164  1
loop_
_geom_bond_atom_site_label_1
_geom_bond_atom_site_label_2
_geom_bond_distance
_geom_bond_site_symmetry_2
Na0 O72 2.446040 1_645
Na0 O75 2.477301 1_545
Na0 O85 2.533850 1_555
Na0 O76 2.564995 1_655
Na0 O89 2.694913 1_545
Na0 O86 2.712241 1_655
Na1 O79 2.340290 1_555
Na1 O82 2.414782 1_545
Na1 O81 2.476253 1_545
Na1 O92 2.725010 1_556
Na1 O95 2.742895 1_556
Na1 O90 2.762184 1_546
Na2 O96 2.550638 1_555
Na2 O98 2.581159 1_555
Na2 O112 2.608450 1_555
Na2 O100 2.640215 1_555
Na2 O108 2.677130 1_555
Na2 O110 2.677837 1_555
Na3 O109 2.544539 1_555
Na3 O99 2.545404 1_555
Na3 O97 2.583115 1_555
Na3 O113 2.589214 1_555
Na3 O111 2.689223 1_555
Na3 O101 2.705238 1_555
Na4 O114 2.426543 1_555
Na4 O116 2.465552 1_555
Na4 O118 2.557079 1_555
Na4 O106 2.694255 1_555
Na4 O102 2.744717 1_555
Na4 O104 2.886941 1_555
Na5 O117 2.477292 1_555
Na5 O119 2.500339 1_555
Na5 O115 2.522216 1_555
Na5 O103 2.680655 1_555
Na5 O107 2.702785 1_555
Na5 O105 2.772943 1_555
Al0 O72 1.793127 1_655
Al0 O3 1.798885 1_555
Al0 O0 1.837988 1_665
Al0 O75 1.873361 1_555
Al0 O76 2.240875 1_665
Al0 O5 2.331676 1_565
Al1 O10 1.781638 1_555
Al1 O7 1.818717 1_555
Al1 O79 1.820669 1_555
Al1 O82 1.901017 1_545
Al1 O81 2.298954 1_545
Al1 O8 2.302517 1_545
Al2 O14 1.759831 1_655
Al2 O13 1.765034 1_545
Al2 O85 1.789928 1_555
Al2 O89 2.189167 1_545
Al2 O16 2.262292 1_645
Al2 O86 2.280110 1_655
Al3 O23 1.742271 1_555
Al3 O18 1.753865 1_555
Al3 O21 1.981904 1_565
Al3 O90 2.101003 1_555
Al3 O92 2.176366 1_565
Al3 O95 2.218311 1_565
Al4 O41 1.753753 1_556
Al4 O109 1.805236 1_555
Al4 O113 2.008589 1_555
Al4 O39 2.021991 1_556
Al4 O37 2.040295 1_556
Al4 O111 2.061224 1_555
Al5 O44 1.749585 1_555
Al5 O114 1.807210 1_555
Al5 O42 1.971589 1_555
Al5 O46 2.027540 1_555
Al5 O116 2.028168 1_555
Al5 O118 2.115318 1_555
O0 Si0 1.584422 1_545
O1 Si1 1.626136 1_545
O1 Ta0 1.956695 1_545
O2 Si2 1.627733 1_555
O2 Ta0 1.942815 1_555
O3 Si3 1.576875 1_555
O4 S1 1.473544 1_555
O4 Ta0 2.214526 1_545
O5 S0 1.439343 1_655
O6 Si4 1.635199 1_555
O6 Ta1 1.939964 1_455
O7 Si5 1.600247 1_555
O8 S3 1.454226 1_555
O9 S2 1.499384 1_555
O9 Ta1 2.106035 1_565
O10 Si6 1.584673 1_555
O11 Si7 1.642450 1_545
O11 Ta1 1.914410 1_555
O12 Si6 1.620369 1_565
O12 Ta2 1.927803 1_565
O13 Si7 1.588843 1_555
O14 Si4 1.580711 1_555
O15 Si5 1.629989 1_555
O15 Ta2 1.941922 1_555
O16 S2 1.451473 1_455
O17 S3 1.477418 1_555
O17 Ta2 2.162772 1_565
O18 Si2 1.599372 1_555
O19 Si3 1.631860 1_555
O19 Ta3 1.910718 1_555
O20 S0 1.490856 1_555
O20 Ta3 2.127642 1_445
O21 S1 1.476190 1_555
O22 Si0 1.627322 1_555
O22 Ta3 1.946133 1_455
O23 Si1 1.594801 1_555
O24 S4 1.482027 1_555
O24 Ta4 2.167808 1_555
O25 Si8 1.652067 1_555
O25 Ta5 1.922422 1_555
O26 S5 1.517517 1_555
O26 Ta4 2.044690 1_555
O27 Si9 1.649361 1_555
O27 Ta5 1.875024 1_555
O28 Si10 1.663411 1_555
O28 Ta4 1.868021 1_555
O29 S6 1.478067 1_555
O29 Ta5 2.190099 1_555
O30 S7 1.489801 1_555
O30 Ta6 2.178980 1_555
O31 S8 1.477854 1_555
O31 Ta7 2.189428 1_555
O32 S9 1.481038 1_555
O32 Ta6 2.177761 1_555
O33 Si11 1.650861 1_555
O33 Ta7 1.878833 1_555
O34 Si12 1.652778 1_555
O34 Ta6 1.867790 1_555
O35 S10 1.501380 1_555
O35 Ta7 2.106893 1_555
O36 Si12 1.625151 1_555
O36 Ta8 1.924298 1_554
O37 S10 1.470522 1_555
O38 S7 1.491961 1_555
O38 Ta8 2.169307 1_554
O39 S8 1.466314 1_555
O40 S9 1.480107 1_555
O40 Ta8 2.216305 1_554
O41 Si11 1.590326 1_555
O42 S5 1.476183 1_555
O43 Si9 1.614236 1_555
O43 Ta9 1.950800 1_555
O44 Si10 1.591760 1_555
O45 S6 1.472133 1_555
O45 Ta9 2.226624 1_555
O46 S4 1.465041 1_555
O47 Si8 1.649185 1_555
O47 Ta9 1.907255 1_555
O48 Si13 1.682066 1_555
O48 Ta10 1.882908 1_556
O49 Si14 1.658243 1_555
O49 Ta11 1.865195 1_556
O50 S11 1.505306 1_555
O50 Ta10 2.092628 1_556
O51 Si15 1.643875 1_555
O51 Ta11 1.909028 1_556
O52 Si16 1.636512 1_555
O52 Ta10 1.913148 1_556
O53 S12 1.523366 1_555
O53 Ta11 2.054880 1_556
O54 Si17 1.614520 1_555
O54 Ta12 1.958708 1_555
O55 Si18 1.677280 1_555
O55 Ta13 1.883435 1_555
O56 S13 1.497926 1_555
O56 Ta12 2.103716 1_555
O57 Si19 1.637886 1_555
O57 Ta13 1.913721 1_555
O58 Si20 1.631901 1_555
O58 Ta12 1.924328 1_555
O59 S14 1.484397 1_555
O59 Ta13 2.149019 1_555
O60 Si20 1.651434 1_555
O60 Ta14 1.924196 1_555
O61 S14 1.469521 1_555
O61 Ta15 2.265801 1_555
O62 Si17 1.673808 1_555
O62 Ta14 1.882872 1_555
O63 Si18 1.646052 1_555
O63 Ta15 1.881526 1_555
O64 S13 1.494059 1_555
O64 Ta14 2.216007 1_555
O65 Si19 1.632511 1_555
O65 Ta15 1.929905 1_555
O66 S11 1.464705 1_555
O66 Ta16 2.290738 1_555
O67 Si15 1.627473 1_555
O67 Ta17 1.955756 1_555
O68 Si16 1.612971 1_555
O68 Ta16 1.954742 1_555
O69 S12 1.475368 1_555
O69 Ta17 2.271362 1_555
O70 Si13 1.630880 1_555
O70 Ta16 1.919531 1_555
O71 Si14 1.650362 1_555
O71 Ta17 1.911005 1_555
O72 Si20 1.597118 1_555
O73 S14 1.509238 1_555
O73 Ta0 2.022757 1_555
O74 Si17 1.637970 1_555
O74 Ta0 1.910308 1_555
O75 Si18 1.583795 1_555
O76 S13 1.453458 1_555
O77 Si19 1.619760 1_555
O77 Ta0 1.910315 1_545
O78 S11 1.493556 1_555
O78 Ta1 2.076941 1_455
O79 Si15 1.595785 1_555
O80 Si16 1.600348 1_555
O80 Ta1 1.941072 1_465
O81 S12 1.457624 1_555
O82 Si13 1.586639 1_555
O83 Si14 1.619299 1_555
O83 Ta1 1.934725 1_565
O84 S4 1.496216 1_555
O84 Ta2 2.047307 1_555
O85 Si8 1.614392 1_555
O86 S5 1.453210 1_555
O87 Si9 1.604824 1_555
O87 Ta2 1.922796 1_555
O88 Si10 1.627292 1_555
O88 Ta2 1.918868 1_565
O89 S6 1.462518 1_555
O90 S7 1.483928 1_555
O91 S8 1.494681 1_555
O91 Ta3 2.058931 1_555
O92 S9 1.474330 1_555
O93 Si11 1.628867 1_555
O93 Ta3 1.925998 1_545
O94 Si12 1.597060 1_555
O94 Ta3 1.947707 1_445
O95 S10 1.475091 1_555
O96 Si6 1.645151 1_555
O96 Ta4 1.952332 1_555
O97 Si7 1.664264 1_545
O97 Ta5 1.899375 1_555
O98 Si4 1.680856 1_555
O98 Ta4 1.891061 1_555
O99 Si5 1.657293 1_555
O99 Ta5 1.975451 1_555
O100 S3 1.536856 1_555
O100 Ta4 2.056592 1_555
O101 S2 1.496120 1_555
O101 Ta5 2.177693 1_555
O102 Si2 1.689657 1_555
O102 Ta6 1.868256 1_555
O103 Si3 1.649908 1_555
O103 Ta7 1.931756 1_555
O104 S1 1.509894 1_555
O104 Ta6 2.098670 1_555
O105 S0 1.545467 1_655
O105 Ta7 2.019226 1_555
O106 Si0 1.704228 1_545
O106 Ta6 1.877810 1_555
O107 Si1 1.685605 1_545
O107 Ta7 1.875209 1_555
O108 Si13 1.662313 1_555
O108 Ta8 1.887551 1_555
O109 Si14 1.609065 1_555
O110 Si15 1.653906 1_555
O110 Ta8 1.915033 1_555
O111 S11 1.471710 1_655
O112 Si16 1.652612 1_545
O112 Ta8 1.901952 1_555
O113 S12 1.492573 1_545
O114 Si17 1.616489 1_545
O115 Si18 1.641344 1_545
O115 Ta9 1.911226 1_555
O116 S13 1.501020 1_555
O117 Si19 1.615126 1_555
O117 Ta9 2.003203 1_555
O118 S14 1.470228 1_555
O119 Si20 1.643496 1_655
O119 Ta9 1.951873 1_555
O120 Si12 1.629159 1_555
O120 Ta10 1.921122 1_555
O121 S10 1.507455 1_555
O121 Ta11 2.077684 1_555
O122 S8 1.486862 1_455
O122 Ta10 2.145556 1_555
O123 S7 1.478611 1_555
O123 Ta11 2.179593 1_555
O124 S9 1.510238 1_565
O124 Ta10 2.058370 1_555
O125 Si11 1.638367 1_565
O125 Ta11 1.906567 1_555
O126 S5 1.492324 1_565
O126 Ta12 2.075094 1_555
O127 Si9 1.634330 1_565
O127 Ta13 1.912344 1_555
O128 Si10 1.617429 1_555
O128 Ta12 1.917304 1_555
O129 S6 1.531042 1_555
O129 Ta13 2.002771 1_555
O130 Si8 1.627905 1_455
O130 Ta12 1.922386 1_555
O131 S4 1.481113 1_555
O131 Ta13 2.160448 1_555
O132 Si0 1.645808 1_555
O132 Ta14 1.887247 1_555
O133 Si1 1.626786 1_555
O133 Ta15 1.929786 1_555
O134 Si2 1.621343 1_555
O134 Ta14 1.954117 1_555
O135 Si3 1.654437 1_555
O135 Ta15 1.860403 1_555
O136 S0 1.471695 1_555
O136 Ta14 2.222424 1_555
O137 S1 1.468497 1_555
O137 Ta15 2.180428 1_555
O138 Si4 1.634643 1_555
O138 Ta16 1.907800 1_555
O139 Si5 1.667237 1_555
O139 Ta17 1.855469 1_555
O140 S2 1.489430 1_455
O140 Ta16 2.111199 1_555
O141 S3 1.476417 1_555
O141 Ta17 2.171750 1_555
O142 Si6 1.662435 1_565
O142 Ta16 1.847510 1_555
O143 Si7 1.632512 1_555
O143 Ta17 1.920363 1_555
