# generated using pymatgen
data_Na3LaAl(PO4)3
_symmetry_space_group_name_H-M   'P 1'
_cell_length_a   9.06766946
_cell_length_b   8.99342432
_cell_length_c   22.49524349
_cell_angle_alpha   89.74053061
_cell_angle_beta   90.31954516
_cell_angle_gamma   119.54542160
_symmetry_Int_Tables_number   1
_chemical_formula_structural   Na3LaAl(PO4)3
_chemical_formula_sum   'Na18 La6 Al6 P18 O72'
_cell_volume   1595.89975253
_cell_formula_units_Z   6
loop_
 _symmetry_equiv_pos_site_id
 _symmetry_equiv_pos_as_xyz
  1  'x, y, z'
loop_
 _atom_site_type_symbol
 _atom_site_label
 _atom_site_symmetry_multiplicity
 _atom_site_fract_x
 _atom_site_fract_y
 _atom_site_fract_z
 _atom_site_occupancy
  Na  Na0  1  0.99943154  0.00048743  0.50102847  1
  Na  Na1  1  0.99599730  0.99464970  0.00198491  1
  Na  Na2  1  0.62356670  0.31325334  0.83113635  1
  Na  Na3  1  0.69319908  0.38417512  0.33623208  1
  Na  Na4  1  0.32289315  0.66582358  0.17821722  1
  Na  Na5  1  0.33532387  0.67069682  0.66236279  1
  Na  Na6  1  0.64547909  0.99727772  0.24886828  1
  Na  Na7  1  0.35405322  0.35615482  0.24861973  1
  Na  Na8  1  0.64181402  0.63537916  0.73659815  1
  Na  Na9  1  0.98822060  0.35366168  0.73315370  1
  Na  Na10  1  0.04780207  0.71176616  0.58509623  1
  Na  Na11  1  0.66411243  0.97010490  0.58573917  1
  Na  Na12  1  0.29786076  0.96540519  0.09728497  1
  Na  Na13  1  0.01682584  0.32990342  0.10076330  1
  Na  Na14  1  0.98037451  0.66688550  0.91898047  1
  Na  Na15  1  0.69032108  0.02507828  0.91865256  1
  Na  Na16  1  0.97689807  0.30350973  0.41556724  1
  Na  Na17  1  0.33094152  0.02963168  0.41723855  1
  La  La0  1  0.98411819  0.97956880  0.33450307  1
  La  La1  1  0.02401802  0.02000490  0.83962885  1
  La  La2  1  0.66046809  0.34653671  0.99749060  1
  La  La3  1  0.34849357  0.65669456  0.02505921  1
  La  La4  1  0.34051246  0.65169714  0.52066725  1
  La  La5  1  0.33080952  0.66954463  0.80979712  1
  Al  Al0  1  0.01030996  0.00697999  0.64329453  1
  Al  Al1  1  0.99404346  0.98958226  0.15959084  1
  Al  Al2  1  0.66141782  0.32940983  0.67786302  1
  Al  Al3  1  0.67068520  0.33787188  0.18216304  1
  Al  Al4  1  0.65883930  0.33863839  0.48101187  1
  Al  Al5  1  0.32347118  0.66459010  0.32113223  1
  P  P0  1  0.31826506  0.00103170  0.25180151  1
  P  P1  1  0.69132086  0.68213030  0.24966889  1
  P  P2  1  0.99740268  0.31868302  0.25181735  1
  P  P3  1  0.31340498  0.29612013  0.73628354  1
  P  P4  1  0.98697202  0.68860503  0.73692525  1
  P  P5  1  0.70723719  0.01215557  0.73641650  1
  P  P6  1  0.93224043  0.31465716  0.58260056  1
  P  P7  1  0.37477179  0.06818762  0.58081407  1
  P  P8  1  0.69250563  0.62901592  0.58437717  1
  P  P9  1  0.95713395  0.64596076  0.08993734  1
  P  P10  1  0.68447287  0.03924007  0.09476405  1
  P  P11  1  0.34159245  0.30580836  0.09900101  1
  P  P12  1  0.65173183  0.66812337  0.90718783  1
  P  P13  1  0.01703155  0.35290992  0.91882368  1
  P  P14  1  0.33427728  0.97736039  0.92654306  1
  P  P15  1  0.62524068  0.97426876  0.41623447  1
  P  P16  1  0.34730356  0.37419080  0.40852182  1
  P  P17  1  0.03205620  0.65227210  0.42027794  1
  O  O0  1  0.26999253  0.06116182  0.30875833  1
  O  O1  1  0.76977156  0.70354708  0.31185526  1
  O  O2  1  0.93251641  0.21400650  0.31009094  1
  O  O3  1  0.27114256  0.23010452  0.80083962  1
  O  O4  1  0.97959755  0.75926940  0.79879755  1
  O  O5  1  0.79429196  0.04016675  0.79824528  1
  O  O6  1  0.82627607  0.00494685  0.68771925  1
  O  O7  1  0.17377749  0.17094353  0.69321249  1
  O  O8  1  0.99628941  0.81334979  0.68720347  1
  O  O9  1  0.81830074  0.84151751  0.21157329  1
  O  O10  1  0.03387967  0.20751219  0.20648669  1
  O  O11  1  0.18511665  0.97273441  0.20268273  1
  O  O12  1  0.83774774  0.32194562  0.63788894  1
  O  O13  1  0.49053266  0.16943229  0.63148902  1
  O  O14  1  0.68872265  0.52701762  0.63911743  1
  O  O15  1  0.81803367  0.49524374  0.12546584  1
  O  O16  1  0.67607991  0.16424454  0.13934154  1
  O  O17  1  0.46823325  0.30605674  0.14420644  1
  O  O18  1  0.39675596  0.29105057  0.03548702  1
  O  O19  1  0.90266850  0.61581771  0.02340276  1
  O  O20  1  0.71188956  0.11769624  0.03119717  1
  O  O21  1  0.45252222  0.16104859  0.52029426  1
  O  O22  1  0.69174596  0.53228700  0.52722130  1
  O  O23  1  0.82457198  0.29541138  0.52545794  1
  O  O24  1  0.54116456  0.67104026  0.95905005  1
  O  O25  1  0.11441975  0.45459984  0.97483360  1
  O  O26  1  0.33923839  0.89546461  0.98693818  1
  O  O27  1  0.56034080  0.88311202  0.47627412  1
  O  O28  1  0.28940181  0.43624658  0.46235745  1
  O  O29  1  0.12191031  0.68468020  0.48097832  1
  O  O30  1  0.13974523  0.62617447  0.37081298  1
  O  O31  1  0.50442203  0.86482110  0.36404012  1
  O  O32  1  0.36768110  0.49027113  0.35357088  1
  O  O33  1  0.11155330  0.44419148  0.86092894  1
  O  O34  1  0.33580324  0.86560653  0.87428274  1
  O  O35  1  0.57228297  0.66955862  0.84637282  1
  O  O36  1  0.02118293  0.81500021  0.40804022  1
  O  O37  1  0.80837155  0.00685124  0.40909357  1
  O  O38  1  0.19714707  0.18986566  0.40049460  1
  O  O39  1  0.99113655  0.17120883  0.92252944  1
  O  O40  1  0.16874346  0.98336367  0.92416456  1
  O  O41  1  0.82546688  0.83057805  0.91465948  1
  O  O42  1  0.95984573  0.15544302  0.58556540  1
  O  O43  1  0.18802422  0.03556585  0.58701203  1
  O  O44  1  0.85593022  0.81238497  0.58416996  1
  O  O45  1  0.98085584  0.82163673  0.10742632  1
  O  O46  1  0.84127121  0.02027218  0.10861599  1
  O  O47  1  0.16411600  0.14560313  0.10754891  1
  O  O48  1  0.67426285  0.16409839  0.72955438  1
  O  O49  1  0.49563279  0.32968665  0.72744632  1
  O  O50  1  0.82687702  0.50710430  0.73400763  1
  O  O51  1  0.65557147  0.50465751  0.22766709  1
  O  O52  1  0.85536774  0.35432844  0.23047036  1
  O  O53  1  0.50156416  0.14591379  0.23590618  1
  O  O54  1  0.67327169  0.50972650  0.91090490  1
  O  O55  1  0.84205433  0.34304420  0.91698554  1
  O  O56  1  0.49598007  0.15201565  0.91943048  1
  O  O57  1  0.62779324  0.15027343  0.41896204  1
  O  O58  1  0.51511617  0.37215412  0.42090692  1
  O  O59  1  0.85646112  0.48527620  0.42347663  1
  O  O60  1  0.32067977  0.46559361  0.10578361  1
  O  O61  1  0.13017695  0.64939783  0.09839859  1
  O  O62  1  0.51598956  0.86853540  0.10007712  1
  O  O63  1  0.35862277  0.88608109  0.58304457  1
  O  O64  1  0.54177111  0.66424916  0.58991100  1
  O  O65  1  0.10575590  0.48061279  0.58465098  1
  O  O66  1  0.32471251  0.83215667  0.26292635  1
  O  O67  1  0.52102599  0.68512414  0.25178757  1
  O  O68  1  0.16903278  0.48728831  0.26164368  1
  O  O69  1  0.31621347  0.47036921  0.73155432  1
  O  O70  1  0.14274662  0.66223086  0.73154720  1
  O  O71  1  0.54024551  0.83964463  0.73343948  1
loop_
_geom_bond_atom_site_label_1
_geom_bond_atom_site_label_2
_geom_bond_distance
_geom_bond_site_symmetry_2
Na0 O44 2.424975 1_545
Na0 O43 2.490328 1_655
Na0 O42 2.492439 1_555
Na0 O37 2.708967 1_555
Na0 O36 2.749176 1_645
Na0 O38 2.868523 1_655
Na1 O40 2.391125 1_654
Na1 O39 2.400085 1_564
Na1 O41 2.483825 1_554
Na1 O47 2.784578 1_665
Na1 O45 2.797408 1_555
Na1 O46 2.852479 1_565
Na2 O56 2.393991 1_555
Na2 O54 2.404060 1_555
Na2 O49 2.635162 1_555
Na2 O55 2.676729 1_555
Na2 O48 2.807147 1_555
Na2 O50 2.837725 1_555
Na2 O3 2.976491 1_555
Na3 O59 2.350813 1_555
Na3 O58 2.471380 1_555
Na3 O57 2.643230 1_555
Na3 O1 2.656268 1_555
Na3 O51 2.754299 1_555
Na3 O52 2.885961 1_555
Na3 O53 3.005383 1_555
Na4 O67 2.378815 1_555
Na4 O68 2.416442 1_555
Na4 O66 2.422862 1_555
Na4 O60 2.426657 1_555
Na4 O61 2.452001 1_555
Na4 O62 2.517211 1_555
Na5 O69 2.316947 1_555
Na5 O70 2.318481 1_555
Na5 O71 2.349950 1_555
Na5 O64 2.511173 1_555
Na5 O63 2.559245 1_555
Na5 O65 2.605491 1_555
Na6 O53 2.299454 1_565
Na6 O67 2.456348 1_555
Na6 O66 2.551752 1_555
Na6 O9 2.704107 1_555
Na6 O2 2.729705 1_565
Na6 O16 2.822315 1_565
Na6 O52 2.841516 1_565
Na6 O31 2.876406 1_555
Na7 O51 2.426615 1_555
Na7 O68 2.500262 1_555
Na7 O67 2.575558 1_555
Na7 O32 2.630495 1_555
Na7 O10 2.695789 1_555
Na7 O17 2.699737 1_555
Na7 O0 2.726572 1_555
Na7 O53 2.819468 1_555
Na8 O49 2.401195 1_555
Na8 O71 2.427899 1_555
Na8 O50 2.461946 1_555
Na8 O14 2.525437 1_555
Na8 O69 2.570746 1_555
Na8 O35 2.608707 1_555
Na9 O70 2.414656 1_655
Na9 O50 2.456982 1_555
Na9 O12 2.474795 1_555
Na9 O48 2.495945 1_555
Na9 O69 2.621184 1_655
Na9 O5 2.878720 1_555
Na10 O44 2.323452 1_455
Na10 O65 2.382346 1_555
Na10 O63 2.458966 1_555
Na10 O29 2.486116 1_555
Na10 O43 2.539201 1_565
Na10 O8 2.603944 1_455
Na11 O42 2.358221 1_565
Na11 O64 2.407309 1_555
Na11 O63 2.486397 1_555
Na11 O27 2.612796 1_555
Na11 O6 2.652849 1_565
Na11 O44 2.733650 1_555
Na11 O23 2.881501 1_565
Na12 O47 2.468854 1_565
Na12 O61 2.475379 1_555
Na12 O45 2.515102 1_455
Na12 O62 2.524404 1_555
Na12 O11 2.601115 1_555
Na12 O26 2.637311 1_554
Na13 O60 2.403149 1_555
Na13 O46 2.438534 1_455
Na13 O61 2.530214 1_555
Na13 O47 2.594802 1_555
Na13 O10 2.651741 1_555
Na13 O16 2.828033 1_455
Na13 O15 2.903674 1_455
Na13 O20 2.917394 1_455
Na13 O25 3.014312 1_554
Na14 O54 2.429049 1_555
Na14 O19 2.432031 1_556
Na14 O41 2.487228 1_555
Na14 O40 2.497655 1_655
Na14 O55 2.540751 1_555
Na14 O4 2.825725 1_555
Na15 O39 2.374462 1_555
Na15 O55 2.488193 1_555
Na15 O56 2.528547 1_555
Na15 O41 2.585792 1_545
Na15 O20 2.644726 1_556
Na15 O5 2.853539 1_555
Na15 O24 2.921210 1_545
Na15 O34 2.969404 1_545
Na16 O37 2.335522 1_555
Na16 O59 2.379495 1_555
Na16 O2 2.475244 1_555
Na16 O38 2.678040 1_655
Na16 O28 2.684149 1_655
Na16 O30 2.716424 1_655
Na16 O57 2.761369 1_555
Na16 O23 2.821569 1_555
Na17 O38 2.324772 1_555
Na17 O57 2.354392 1_555
Na17 O36 2.511601 1_545
Na17 O0 2.544426 1_555
Na17 O21 2.588027 1_555
Na17 O58 2.685546 1_555
Na17 O31 2.905196 1_545
La0 O1 2.332701 1_555
La0 O36 2.345668 1_655
La0 O0 2.393817 1_665
La0 O37 2.415458 1_565
La0 O38 2.429501 1_665
La0 O2 2.434224 1_565
La1 O3 2.276866 1_555
La1 O5 2.363914 1_455
La1 O4 2.363972 1_445
La1 O40 2.416617 1_545
La1 O39 2.417610 1_455
La1 O41 2.444462 1_445
La2 O18 2.353677 1_556
La2 O54 2.402044 1_555
La2 O19 2.404384 1_556
La2 O56 2.407033 1_555
La2 O20 2.440546 1_556
La2 O55 2.465075 1_555
La3 O24 2.253604 1_554
La3 O25 2.296134 1_554
La3 O26 2.348154 1_554
La3 O60 2.421627 1_555
La3 O62 2.435377 1_555
La3 O61 2.559754 1_555
La4 O28 2.195534 1_555
La4 O27 2.283431 1_555
La4 O29 2.317761 1_555
La4 O64 2.352908 1_555
La4 O65 2.398823 1_555
La4 O63 2.474278 1_555
La5 O34 2.271377 1_555
La5 O33 2.326747 1_555
La5 O35 2.334728 1_555
La5 O70 2.422349 1_555
La5 O71 2.458584 1_555
La5 O69 2.473100 1_555
Al0 O7 1.863674 1_555
Al0 O6 1.942195 1_455
Al0 O8 1.947241 1_445
Al0 O43 1.969033 1_555
Al0 O42 2.063685 1_455
Al0 O44 2.091777 1_445
Al1 O45 1.873226 1_555
Al1 O47 1.894417 1_665
Al1 O9 1.895773 1_555
Al1 O46 1.914838 1_565
Al1 O11 2.050202 1_655
Al1 O10 2.097849 1_665
Al2 O13 1.831987 1_555
Al2 O12 1.868700 1_555
Al2 O49 1.877865 1_555
Al2 O14 1.879823 1_555
Al2 O48 1.931224 1_555
Al2 O50 2.008110 1_555
Al3 O16 1.859591 1_555
Al3 O51 1.880084 1_555
Al3 O15 1.884854 1_555
Al3 O17 1.909885 1_555
Al3 O52 1.934924 1_555
Al3 O53 2.045593 1_555
Al4 O22 1.924333 1_555
Al4 O21 1.972443 1_555
Al4 O23 1.991262 1_555
Al4 O58 1.995356 1_555
Al4 O59 2.074900 1_555
Al4 O57 2.108097 1_555
Al5 O30 1.895631 1_555
Al5 O32 1.938334 1_555
Al5 O31 1.987640 1_555
Al5 O66 1.987748 1_555
Al5 O68 2.022543 1_555
Al5 O67 2.319213 1_555
O0 P0 1.540012 1_555
O1 P1 1.535013 1_555
O2 P2 1.549832 1_555
O3 P3 1.543456 1_555
O4 P4 1.548066 1_555
O5 P5 1.554307 1_555
O6 P5 1.565947 1_555
O7 P3 1.549065 1_555
O8 P4 1.553389 1_555
O9 P1 1.577030 1_555
O10 P2 1.577337 1_455
O11 P0 1.558198 1_565
O12 P6 1.534053 1_555
O13 P7 1.511234 1_555
O14 P8 1.522558 1_555
O15 P9 1.543459 1_555
O16 P10 1.539698 1_555
O17 P11 1.528806 1_555
O18 P11 1.544133 1_555
O19 P9 1.555936 1_555
O20 P10 1.557644 1_555
O21 P7 1.570881 1_555
O22 P8 1.553722 1_555
O23 P6 1.567429 1_555
O24 P12 1.551197 1_555
O25 P13 1.550886 1_555
O26 P14 1.553456 1_555
O27 P15 1.538044 1_555
O28 P16 1.534913 1_555
O29 P17 1.539577 1_555
O30 P17 1.577116 1_555
O31 P15 1.574886 1_555
O32 P16 1.566091 1_555
O33 P13 1.553549 1_555
O34 P14 1.554661 1_555
O35 P12 1.545555 1_555
O36 P17 1.538064 1_555
O37 P15 1.546551 1_545
O38 P16 1.551921 1_555
O39 P13 1.533944 1_655
O40 P14 1.528986 1_555
O41 P12 1.540764 1_555
O42 P6 1.571567 1_555
O43 P7 1.576484 1_555
O44 P8 1.582861 1_555
O45 P9 1.538422 1_555
O46 P10 1.543202 1_555
O47 P11 1.554642 1_555
O48 P5 1.543062 1_555
O49 P3 1.540191 1_555
O50 P4 1.561758 1_555
O51 P1 1.546816 1_555
O52 P2 1.546291 1_555
O53 P0 1.566761 1_555
O54 P12 1.532177 1_555
O55 P13 1.545140 1_655
O56 P14 1.540038 1_545
O57 P15 1.573072 1_545
O58 P16 1.554396 1_555
O59 P17 1.561380 1_655
O60 P11 1.547679 1_555
O61 P9 1.564652 1_455
O62 P10 1.546756 1_565
O63 P7 1.571318 1_565
O64 P8 1.553532 1_555
O65 P6 1.545675 1_455
O66 P0 1.567372 1_565
O67 P1 1.558627 1_555
O68 P2 1.562694 1_455
O69 P3 1.557857 1_555
O70 P4 1.548767 1_455
O71 P5 1.545091 1_565
