# generated using pymatgen
data_MgZn2(CoO3)2
_symmetry_space_group_name_H-M   'P 1'
_cell_length_a   5.25105717
_cell_length_b   5.95777410
_cell_length_c   5.23292649
_cell_angle_alpha   118.87258080
_cell_angle_beta   58.72568529
_cell_angle_gamma   117.17597284
_symmetry_Int_Tables_number   1
_chemical_formula_structural   MgZn2(CoO3)2
_chemical_formula_sum   'Mg1 Zn2 Co2 O6'
_cell_volume   117.79383178
_cell_formula_units_Z   1
loop_
 _symmetry_equiv_pos_site_id
 _symmetry_equiv_pos_as_xyz
  1  'x, y, z'
loop_
 _atom_site_type_symbol
 _atom_site_label
 _atom_site_symmetry_multiplicity
 _atom_site_fract_x
 _atom_site_fract_y
 _atom_site_fract_z
 _atom_site_occupancy
  Mg  Mg0  1  0.00000000  0.00000000  0.00000000  1
  Zn  Zn0  1  0.39091300  0.18821500  0.39719800  1
  Zn  Zn1  1  0.60908700  0.81178500  0.60280200  1
  Co  Co0  1  0.17864900  0.54183000  0.17455800  1
  Co  Co1  1  0.82135100  0.45817000  0.82544200  1
  O  O0  1  0.05153000  0.26219400  0.42257000  1
  O  O1  1  0.39575300  0.26836300  0.80291000  1
  O  O2  1  0.78815300  0.25671400  0.05829800  1
  O  O3  1  0.21184700  0.74328600  0.94170200  1
  O  O4  1  0.60424600  0.73163700  0.19709000  1
  O  O5  1  0.94847000  0.73780600  0.57742900  1
loop_
_geom_bond_atom_site_label_1
_geom_bond_atom_site_label_2
_geom_bond_distance
_geom_bond_site_symmetry_2
Mg0 O1 2.066573 1_554
Mg0 O4 2.066575 1_445
Mg0 O0 2.074225 1_555
Mg0 O5 2.074229 1_444
Mg0 O2 2.102600 1_455
Mg0 O3 2.102600 1_544
Co0 O5 1.880146 1_455
Co0 O3 1.989079 1_554
Co0 O1 2.017688 1_554
Co0 O4 2.030641 1_555
Co0 O2 2.139100 1_455
Co0 O0 2.253509 1_555
Co1 O0 1.880149 1_655
Co1 O2 1.989079 1_556
Co1 O4 2.017690 1_556
Co1 O1 2.030645 1_555
Co1 O3 2.139100 1_655
Co1 O5 2.253514 1_555
O0 Zn0 1.950166 1_555
O1 Zn0 1.949861 1_555
O2 Zn0 1.934744 1_555
O3 Zn1 1.934744 1_555
O4 Zn1 1.949863 1_555
O5 Zn1 1.950163 1_555
