# generated using pymatgen
data_MgZn2(NiO2)4
_symmetry_space_group_name_H-M   'P 1'
_cell_length_a   6.23290952
_cell_length_b   6.16204018
_cell_length_c   6.16931075
_cell_angle_alpha   57.13802850
_cell_angle_beta   56.00619003
_cell_angle_gamma   56.03512095
_symmetry_Int_Tables_number   1
_chemical_formula_structural   MgZn2(NiO2)4
_chemical_formula_sum   'Mg1 Zn2 Ni4 O8'
_cell_volume   153.52804643
_cell_formula_units_Z   1
loop_
 _symmetry_equiv_pos_site_id
 _symmetry_equiv_pos_as_xyz
  1  'x, y, z'
loop_
 _atom_site_type_symbol
 _atom_site_label
 _atom_site_symmetry_multiplicity
 _atom_site_fract_x
 _atom_site_fract_y
 _atom_site_fract_z
 _atom_site_occupancy
  Mg  Mg0  1  0.00000000  0.00000000  0.00000000  1
  Zn  Zn0  1  0.82721600  0.85186900  0.85492100  1
  Zn  Zn1  1  0.17278400  0.14813100  0.14507900  1
  Ni  Ni0  1  0.50000000  0.50000100  0.49999900  1
  Ni  Ni1  1  0.50000000  0.50000000  0.00000100  1
  Ni  Ni2  1  0.00000000  0.50000000  0.50000000  1
  Ni  Ni3  1  0.50000000  0.00000000  0.50000100  1
  O  O0  1  0.29488300  0.26596000  0.26611800  1
  O  O1  1  0.73897300  0.76406800  0.26792300  1
  O  O2  1  0.23598400  0.75314300  0.75440300  1
  O  O3  1  0.73795800  0.26693900  0.76470600  1
  O  O4  1  0.76401700  0.24685700  0.24559700  1
  O  O5  1  0.26204100  0.73306200  0.23529400  1
  O  O6  1  0.26102700  0.23593200  0.73207700  1
  O  O7  1  0.70511700  0.73403900  0.73388200  1
loop_
_geom_bond_atom_site_label_1
_geom_bond_atom_site_label_2
_geom_bond_distance
_geom_bond_site_symmetry_2
Mg0 O2 2.069356 1_544
Mg0 O4 2.069356 1_455
Mg0 O6 2.126187 1_554
Mg0 O1 2.126187 1_445
Mg0 O5 2.130354 1_545
Mg0 O3 2.130358 1_454
Ni0 O4 2.122531 1_555
Ni0 O2 2.122532 1_555
Ni0 O1 2.170587 1_555
Ni0 O6 2.170595 1_555
Ni0 O5 2.170791 1_555
Ni0 O3 2.170795 1_555
Ni1 O7 1.885025 1_554
Ni1 O0 1.885028 1_555
Ni1 O5 1.960687 1_555
Ni1 O3 1.960692 1_554
Ni1 O4 2.189030 1_555
Ni1 O2 2.189035 1_554
Ni2 O7 1.967463 1_455
Ni2 O0 1.967466 1_555
Ni2 O6 2.112585 1_555
Ni2 O1 2.112585 1_455
Ni2 O5 2.119000 1_555
Ni2 O3 2.119001 1_455
Ni3 O7 1.886168 1_545
Ni3 O0 1.886176 1_555
Ni3 O6 1.958759 1_555
Ni3 O1 1.958767 1_545
Ni3 O2 2.191613 1_545
Ni3 O4 2.191616 1_555
O0 Zn1 1.872219 1_555
O1 Zn0 2.087260 1_554
O2 Zn0 2.038823 1_455
O3 Zn0 2.091040 1_545
O4 Zn1 2.038817 1_655
O5 Zn1 2.091036 1_565
O6 Zn1 2.087260 1_556
O7 Zn0 1.872224 1_555
