# generated using pymatgen
data_Ca2PbAu2
_symmetry_space_group_name_H-M   'P 1'
_cell_length_a   8.02359995
_cell_length_b   8.02359995
_cell_length_c   3.89314881
_cell_angle_alpha   90.00000000
_cell_angle_beta   90.00000000
_cell_angle_gamma   90.00000000
_symmetry_Int_Tables_number   1
_chemical_formula_structural   Ca2PbAu2
_chemical_formula_sum   'Ca4 Pb2 Au4'
_cell_volume   250.63374204
_cell_formula_units_Z   2
loop_
 _symmetry_equiv_pos_site_id
 _symmetry_equiv_pos_as_xyz
  1  'x, y, z'
loop_
 _atom_site_type_symbol
 _atom_site_label
 _atom_site_symmetry_multiplicity
 _atom_site_fract_x
 _atom_site_fract_y
 _atom_site_fract_z
 _atom_site_occupancy
  Ca  Ca0  1  0.67368843  0.17368843  0.50000000  1
  Ca  Ca1  1  0.17368843  0.32631157  0.50000000  1
  Ca  Ca2  1  0.82631157  0.67368843  0.50000000  1
  Ca  Ca3  1  0.32631157  0.82631157  0.50000000  1
  Pb  Pb0  1  0.00000000  -0.00000000  0.00000000  1
  Pb  Pb1  1  0.50000000  0.50000000  0.00000000  1
  Au  Au0  1  0.12352688  0.62352688  0.00000000  1
  Au  Au1  1  0.62352688  0.87647312  0.00000000  1
  Au  Au2  1  0.37647312  0.12352688  -0.00000000  1
  Au  Au3  1  0.87647312  0.37647312  -0.00000000  1
loop_
_geom_bond_atom_site_label_1
_geom_bond_atom_site_label_2
_geom_bond_distance
_geom_bond_site_symmetry_2
Ca0 Pb0 3.547707 1_655
Ca0 Pb0 3.547707 1_656
Ca0 Pb1 3.547707 1_555
Ca0 Pb1 3.547707 1_556
Ca1 Pb0 3.547707 1_555
Ca1 Pb0 3.547707 1_556
Ca1 Pb1 3.547707 1_555
Ca1 Pb1 3.547707 1_556
Ca2 Pb1 3.547707 1_555
Ca2 Pb0 3.547707 1_666
Ca2 Pb1 3.547707 1_556
Ca2 Pb0 3.547707 1_665
Ca3 Pb0 3.547707 1_566
Ca3 Pb1 3.547707 1_555
Ca3 Pb0 3.547707 1_565
Ca3 Pb1 3.547707 1_556
Au0 Au3 2.803340 1_455
Au0 Ca3 3.013938 1_554
Au0 Ca3 3.013938 1_555
Au0 Ca1 3.104530 1_554
Au0 Ca1 3.104530 1_555
Au0 Ca2 3.104530 1_455
Au0 Ca2 3.104530 1_454
Au0 Pb0 3.179117 1_565
Au0 Pb1 3.179117 1_555
Au1 Au2 2.803340 1_565
Au1 Ca2 3.013938 1_555
Au1 Ca2 3.013938 1_554
Au1 Ca0 3.104530 1_564
Au1 Ca0 3.104530 1_565
Au1 Ca3 3.104530 1_555
Au1 Ca3 3.104530 1_554
Au1 Pb0 3.179117 1_665
Au1 Pb1 3.179117 1_555
Au2 Ca1 3.013938 1_554
Au2 Ca1 3.013938 1_555
Au2 Ca0 3.104530 1_554
Au2 Ca0 3.104530 1_555
Au2 Ca3 3.104530 1_545
Au2 Ca3 3.104530 1_544
Au2 Pb1 3.179117 1_555
Au2 Pb0 3.179117 1_555
Au3 Ca0 3.013938 1_554
Au3 Ca0 3.013938 1_555
Au3 Ca1 3.104530 1_654
Au3 Ca1 3.104530 1_655
Au3 Ca2 3.104530 1_555
Au3 Ca2 3.104530 1_554
Au3 Pb1 3.179117 1_555
Au3 Pb0 3.179117 1_655
