# generated using pymatgen
data_MgV5O12
_symmetry_space_group_name_H-M   'P 1'
_cell_length_a   6.80998901
_cell_length_b   6.77172950
_cell_length_c   5.95313592
_cell_angle_alpha   74.12379854
_cell_angle_beta   107.17008256
_cell_angle_gamma   101.44086726
_symmetry_Int_Tables_number   1
_chemical_formula_structural   MgV5O12
_chemical_formula_sum   'Mg1 V5 O12'
_cell_volume   250.21665580
_cell_formula_units_Z   1
loop_
 _symmetry_equiv_pos_site_id
 _symmetry_equiv_pos_as_xyz
  1  'x, y, z'
loop_
 _atom_site_type_symbol
 _atom_site_label
 _atom_site_symmetry_multiplicity
 _atom_site_fract_x
 _atom_site_fract_y
 _atom_site_fract_z
 _atom_site_occupancy
  Mg  Mg0  1  0.30122800  0.27989900  0.32567700  1
  V  V0  1  0.16735900  0.59624400  0.74151200  1
  V  V1  1  0.37591900  0.79192400  0.26096900  1
  V  V2  1  0.67251700  0.22216800  0.74633100  1
  V  V3  1  0.81343500  0.39978100  0.23400200  1
  V  V4  1  0.92950800  0.92592800  0.26398400  1
  O  O0  1  0.04866800  0.81429000  0.61751200  1
  O  O1  1  0.97557300  0.39289000  0.71610100  1
  O  O2  1  0.22423200  0.99586800  0.21888900  1
  O  O3  1  0.32760200  0.59918700  0.54882500  1
  O  O4  1  0.41966700  0.12678800  0.69029200  1
  O  O5  1  0.29373800  0.57761100  0.06564900  1
  O  O6  1  0.66811800  0.38847200  0.93851400  1
  O  O7  1  0.63754900  0.86889200  0.29976500  1
  O  O8  1  0.61987000  0.32596500  0.39993700  1
  O  O9  1  0.80159900  0.01822900  0.91100300  1
  O  O10  1  0.92657900  0.64574100  0.21069200  1
  O  O11  1  0.99492700  0.22821300  0.31034800  1
loop_
_geom_bond_atom_site_label_1
_geom_bond_atom_site_label_2
_geom_bond_distance
_geom_bond_site_symmetry_2
Mg0 O11 2.024177 1_455
Mg0 O8 2.059600 1_555
Mg0 O2 2.109635 1_545
Mg0 O4 2.122229 1_555
Mg0 O5 2.179438 1_555
O0 V0 1.703901 1_555
O0 V4 2.005963 1_455
O1 V0 1.705518 1_655
O1 V2 2.187955 1_555
O2 V1 1.805827 1_555
O2 V4 2.048451 1_455
O3 V0 1.795823 1_555
O3 V1 1.920198 1_555
O4 V2 1.682541 1_555
O5 V0 1.846470 1_554
O5 V1 1.997061 1_555
O6 V3 1.759372 1_556
O6 V2 1.821165 1_555
O7 V1 1.718705 1_555
O7 V4 2.011972 1_555
O8 V3 1.788999 1_555
O8 V2 1.935307 1_555
O9 V2 1.695011 1_555
O9 V4 1.995433 1_546
O10 V3 1.677688 1_555
O10 V4 2.002891 1_555
O11 V3 1.741570 1_555
O11 V4 2.083164 1_545
