# generated using pymatgen
data_LiMn2(PO4)3
_symmetry_space_group_name_H-M   'P 1'
_cell_length_a   8.49761414
_cell_length_b   8.49761414
_cell_length_c   6.18823470
_cell_angle_alpha   74.24647590
_cell_angle_beta   74.24647590
_cell_angle_gamma   91.72092509
_symmetry_Int_Tables_number   1
_chemical_formula_structural   LiMn2(PO4)3
_chemical_formula_sum   'Li2 Mn4 P6 O24'
_cell_volume   411.30664415
_cell_formula_units_Z   2
loop_
 _symmetry_equiv_pos_site_id
 _symmetry_equiv_pos_as_xyz
  1  'x, y, z'
loop_
 _atom_site_type_symbol
 _atom_site_label
 _atom_site_symmetry_multiplicity
 _atom_site_fract_x
 _atom_site_fract_y
 _atom_site_fract_z
 _atom_site_occupancy
  Li  Li0  1  0.50000000  0.50000000  0.50000000  1
  Li  Li1  1  0.50000000  0.50000000  0.00000000  1
  Mn  Mn0  1  0.05943800  0.37999900  0.36272600  1
  Mn  Mn1  1  0.37999900  0.05943800  0.86272600  1
  Mn  Mn2  1  0.62000100  0.94056200  0.13727400  1
  Mn  Mn3  1  0.94056200  0.62000100  0.63727400  1
  P  P0  1  0.72408400  0.27591600  0.75000000  1
  P  P1  1  0.83890500  0.64794400  0.14133600  1
  P  P2  1  0.64794400  0.83890500  0.64133600  1
  P  P3  1  0.35205600  0.16109500  0.35866400  1
  P  P4  1  0.27591600  0.72408400  0.25000000  1
  P  P5  1  0.16109500  0.35205600  0.85866400  1
  O  O0  1  0.96905100  0.64385900  0.91021700  1
  O  O1  1  0.94073000  0.58990100  0.33004300  1
  O  O2  1  0.85075500  0.25711400  0.52597600  1
  O  O3  1  0.74288600  0.14924500  0.97402400  1
  O  O4  1  0.03094900  0.35614100  0.08978300  1
  O  O5  1  0.05927000  0.41009900  0.66995700  1
  O  O6  1  0.14924500  0.74288600  0.47402400  1
  O  O7  1  0.25711400  0.85075500  0.02597600  1
  O  O8  1  0.16696900  0.18897400  0.39172400  1
  O  O9  1  0.25334400  0.54634400  0.22625900  1
  O  O10  1  0.18897400  0.16696900  0.89172400  1
  O  O11  1  0.31688700  0.46152200  0.78747200  1
  O  O12  1  0.41009900  0.05927000  0.16995700  1
  O  O13  1  0.45365600  0.74665600  0.27374100  1
  O  O14  1  0.35614100  0.03094900  0.58978300  1
  O  O15  1  0.46152200  0.31688700  0.28747200  1
  O  O16  1  0.53847800  0.68311300  0.71252800  1
  O  O17  1  0.64385900  0.96905100  0.41021700  1
  O  O18  1  0.54634400  0.25334400  0.72625900  1
  O  O19  1  0.58990100  0.94073000  0.83004300  1
  O  O20  1  0.68311300  0.53847800  0.21252800  1
  O  O21  1  0.81102600  0.83303100  0.10827600  1
  O  O22  1  0.74665600  0.45365600  0.77374100  1
  O  O23  1  0.83303100  0.81102600  0.60827600  1
loop_
_geom_bond_atom_site_label_1
_geom_bond_atom_site_label_2
_geom_bond_distance
_geom_bond_site_symmetry_2
Li0 O20 1.960433 1_555
Li0 O11 1.960433 1_555
Li0 O18 2.294365 1_555
Li0 O13 2.294365 1_555
Li0 O15 2.360500 1_555
Li0 O16 2.360500 1_555
Li1 O16 1.960433 1_554
Li1 O15 1.960433 1_555
Li1 O9 2.294365 1_555
Li1 O22 2.294365 1_554
Li1 O20 2.360500 1_555
Li1 O11 2.360500 1_554
Mn0 O4 1.832367 1_555
Mn0 O8 1.876718 1_555
Mn0 O2 1.897052 1_455
Mn0 O9 1.970438 1_555
Mn0 O5 1.985612 1_555
Mn0 O1 2.064674 1_455
Mn1 O14 1.832367 1_555
Mn1 O10 1.876718 1_555
Mn1 O7 1.897052 1_546
Mn1 O18 1.970438 1_555
Mn1 O12 1.985612 1_556
Mn1 O19 2.064674 1_545
Mn2 O17 1.832367 1_555
Mn2 O21 1.876718 1_555
Mn2 O3 1.897052 1_564
Mn2 O13 1.970438 1_555
Mn2 O19 1.985612 1_554
Mn2 O12 2.064674 1_565
Mn3 O0 1.832367 1_555
Mn3 O23 1.876718 1_555
Mn3 O6 1.897052 1_655
Mn3 O22 1.970438 1_555
Mn3 O1 1.985612 1_555
Mn3 O5 2.064674 1_655
O0 P1 1.562115 1_556
O1 P1 1.617770 1_555
O2 P0 1.557675 1_555
O3 P0 1.557675 1_555
O4 P5 1.562115 1_554
O5 P5 1.617770 1_555
O6 P4 1.557675 1_555
O7 P4 1.557675 1_555
O8 P3 1.563857 1_555
O9 P4 1.567791 1_555
O10 P5 1.563857 1_555
O11 P5 1.482830 1_555
O12 P3 1.617770 1_555
O13 P4 1.567791 1_555
O14 P3 1.562115 1_555
O15 P3 1.482830 1_555
O16 P2 1.482830 1_555
O17 P2 1.562115 1_555
O18 P0 1.567791 1_555
O19 P2 1.617770 1_555
O20 P1 1.482830 1_555
O21 P1 1.563857 1_555
O22 P0 1.567791 1_555
O23 P2 1.563857 1_555
