# generated using pymatgen
data_CaIn4Ir
_symmetry_space_group_name_H-M   'P 1'
_cell_length_a   4.26814754
_cell_length_b   7.49250453
_cell_length_c   8.72750075
_cell_angle_alpha   90.00000000
_cell_angle_beta   90.00000000
_cell_angle_gamma   90.00000000
_symmetry_Int_Tables_number   1
_chemical_formula_structural   CaIn4Ir
_chemical_formula_sum   'Ca2 In8 Ir2'
_cell_volume   279.09774821
_cell_formula_units_Z   2
loop_
 _symmetry_equiv_pos_site_id
 _symmetry_equiv_pos_as_xyz
  1  'x, y, z'
loop_
 _atom_site_type_symbol
 _atom_site_label
 _atom_site_symmetry_multiplicity
 _atom_site_fract_x
 _atom_site_fract_y
 _atom_site_fract_z
 _atom_site_occupancy
  Ca  Ca0  1  0.00000000  0.40158128  0.25000000  1
  Ca  Ca1  1  0.00000000  0.59841872  0.75000000  1
  In  In0  1  0.00000000  -0.00000000  -0.00000000  1
  In  In1  1  0.50000000  0.31402917  0.56494382  1
  In  In2  1  0.50000000  0.06729658  0.25000000  1
  In  In3  1  0.00000000  -0.00000000  0.50000000  1
  In  In4  1  0.50000000  0.93270342  0.75000000  1
  In  In5  1  0.50000000  0.31402917  0.93505618  1
  In  In6  1  0.50000000  0.68597083  0.06494382  1
  In  In7  1  0.50000000  0.68597083  0.43505618  1
  Ir  Ir0  1  0.00000000  0.80610944  0.25000000  1
  Ir  Ir1  1  0.00000000  0.19389056  0.75000000  1
loop_
_geom_bond_atom_site_label_1
_geom_bond_atom_site_label_2
_geom_bond_distance
_geom_bond_site_symmetry_2
Ca0 Ir0 3.030929 1_555
Ca0 In2 3.290508 1_555
Ca0 In2 3.290508 1_455
Ca0 In6 3.420967 1_555
Ca0 In6 3.420967 1_455
Ca0 In7 3.420967 1_455
Ca0 In7 3.420967 1_555
Ca0 In5 3.541156 1_454
Ca0 In5 3.541156 1_554
Ca0 In1 3.541156 1_455
Ca0 In1 3.541156 1_555
Ca0 In3 3.716686 1_555
Ca0 In0 3.716686 1_555
Ca1 Ir1 3.030929 1_555
Ca1 In4 3.290508 1_455
Ca1 In4 3.290508 1_555
Ca1 In1 3.420967 1_555
Ca1 In5 3.420967 1_555
Ca1 In5 3.420967 1_455
Ca1 In1 3.420967 1_455
Ca1 In7 3.541156 1_455
Ca1 In7 3.541156 1_555
Ca1 In6 3.541156 1_456
Ca1 In6 3.541156 1_556
Ca1 In3 3.716686 1_565
Ca1 In0 3.716686 1_566
In0 Ir0 2.621258 1_545
In0 Ir1 2.621258 1_554
In1 Ir1 2.823650 1_655
In1 Ir1 2.823650 1_555
In2 Ir0 2.895498 1_545
In2 Ir0 2.895498 1_645
In3 Ir0 2.621258 1_545
In3 Ir1 2.621258 1_555
In4 Ir1 2.895498 1_565
In4 Ir1 2.895498 1_665
In5 Ir1 2.823650 1_655
In5 Ir1 2.823650 1_555
In6 Ir0 2.823650 1_655
In6 Ir0 2.823650 1_555
In7 Ir0 2.823650 1_655
In7 Ir0 2.823650 1_555
