# generated using pymatgen
data_MgV4O5F7
_symmetry_space_group_name_H-M   'P 1'
_cell_length_a   5.24160764
_cell_length_b   5.34196064
_cell_length_c   9.28954371
_cell_angle_alpha   76.07367178
_cell_angle_beta   91.21307503
_cell_angle_gamma   59.84585713
_symmetry_Int_Tables_number   1
_chemical_formula_structural   MgV4O5F7
_chemical_formula_sum   'Mg1 V4 O5 F7'
_cell_volume   215.15096552
_cell_formula_units_Z   1
loop_
 _symmetry_equiv_pos_site_id
 _symmetry_equiv_pos_as_xyz
  1  'x, y, z'
loop_
 _atom_site_type_symbol
 _atom_site_label
 _atom_site_symmetry_multiplicity
 _atom_site_fract_x
 _atom_site_fract_y
 _atom_site_fract_z
 _atom_site_occupancy
  Mg  Mg0  1  0.40549200  0.26599700  0.11929100  1
  V  V0  1  0.76637200  0.48351700  0.25193100  1
  V  V1  1  0.46531600  0.02217300  0.51116600  1
  V  V2  1  0.25397000  0.52574600  0.73362200  1
  V  V3  1  0.03575800  0.00224000  0.01015500  1
  O  O0  1  0.02775000  0.26085900  0.12105700  1
  O  O1  1  0.41311200  0.64240000  0.11568400  1
  O  O2  1  0.34102400  0.78436100  0.64807000  1
  O  O3  1  0.46547500  0.23787100  0.61985300  1
  O  O4  1  0.07889900  0.30092100  0.39568200  1
  F  F0  1  0.88996000  0.68453000  0.59721900  1
  F  F1  1  0.78810000  0.85366800  0.14582400  1
  F  F2  1  0.51074500  0.76319000  0.37440800  1
  F  F3  1  0.63585600  0.17768200  0.33700200  1
  F  F4  1  0.58939400  0.30306700  0.91361700  1
  F  F5  1  0.02810200  0.74852700  0.87661800  1
  F  F6  1  0.17967700  0.20575400  0.85022900  1
loop_
_geom_bond_atom_site_label_1
_geom_bond_atom_site_label_2
_geom_bond_distance
_geom_bond_site_symmetry_2
Mg0 O0 1.994262 1_555
Mg0 O1 2.023379 1_555
O0 V3 1.897482 1_555
O0 V0 1.974654 1_455
O1 V0 1.885655 1_555
O1 V3 1.938907 1_565
O2 V2 1.693689 1_555
O2 V1 1.935101 1_565
O3 V1 1.705285 1_555
O3 V2 1.957042 1_555
O4 V0 1.758772 1_455
O4 V1 1.891991 1_555
F0 V2 1.928698 1_655
F0 V1 2.010926 1_565
F1 V0 2.046272 1_555
F1 Mg0 2.052843 1_565
F1 V3 2.127504 1_665
F2 V1 2.027938 1_565
F2 V0 2.047797 1_555
F3 V1 2.065699 1_555
F3 V0 2.070267 1_555
F3 Mg0 2.153100 1_555
F4 V2 2.029518 1_555
F4 V3 2.073847 1_656
F4 Mg0 2.169446 1_556
F5 V2 1.998633 1_555
F5 V3 2.058923 1_566
F6 V2 2.010559 1_555
F6 V3 2.012975 1_556
