# generated using pymatgen
data_MgMn6(O2F)4
_symmetry_space_group_name_H-M   'P 1'
_cell_length_a   5.25092606
_cell_length_b   14.38562082
_cell_length_c   3.06059425
_cell_angle_alpha   89.70861776
_cell_angle_beta   90.33218369
_cell_angle_gamma   79.32072390
_symmetry_Int_Tables_number   1
_chemical_formula_structural   MgMn6(O2F)4
_chemical_formula_sum   'Mg1 Mn6 O8 F4'
_cell_volume   227.17812175
_cell_formula_units_Z   1
loop_
 _symmetry_equiv_pos_site_id
 _symmetry_equiv_pos_as_xyz
  1  'x, y, z'
loop_
 _atom_site_type_symbol
 _atom_site_label
 _atom_site_symmetry_multiplicity
 _atom_site_fract_x
 _atom_site_fract_y
 _atom_site_fract_z
 _atom_site_occupancy
  Mg  Mg0  1  0.50712649  0.33141383  0.50008956  1
  Mn  Mn0  1  0.83141209  0.99531495  0.99834584  1
  Mn  Mn1  1  0.00654893  0.33240607  0.00012311  1
  Mn  Mn2  1  0.17110316  0.66830772  0.00146728  1
  Mn  Mn3  1  0.26295550  0.11335853  0.49904901  1
  Mn  Mn4  1  0.74027357  0.55076436  0.50080522  1
  Mn  Mn5  1  0.50037017  0.83197295  0.49986151  1
  O  O0  1  0.19720930  0.26037374  0.50237335  1
  O  O1  1  0.36597565  0.60536129  0.50102870  1
  O  O2  1  0.07011400  0.08441197  0.99755228  1
  O  O3  1  0.38461817  0.76453172  0.00087793  1
  O  O4  1  0.93440734  0.57869627  0.00239398  1
  O  O5  1  0.61547972  0.89959065  0.99881456  1
  O  O6  1  0.63732529  0.05862852  0.49822867  1
  O  O7  1  0.81493571  0.40364830  0.49794551  1
  F  F0  1  0.06393317  0.92830715  0.49603180  1
  F  F1  1  0.33086846  0.40654969  0.99774071  1
  F  F2  1  0.68438684  0.25708007  0.00252656  1
  F  F3  1  0.93651344  0.73483124  0.50474141  1
loop_
_geom_bond_atom_site_label_1
_geom_bond_atom_site_label_2
_geom_bond_distance
_geom_bond_site_symmetry_2
Mg0 O0 2.075850 1_555
Mg0 O7 2.077198 1_555
Mn0 O5 1.939216 1_555
Mn0 O2 1.951728 1_665
Mn0 O6 1.958269 1_565
Mn0 O6 1.974118 1_566
Mn1 O7 2.002200 1_454
Mn1 O0 2.005109 1_555
Mn1 O7 2.008885 1_455
Mn1 O0 2.011490 1_554
Mn2 O3 1.936051 1_555
Mn2 O4 1.949456 1_455
Mn2 O1 1.956809 1_555
Mn2 O1 1.975303 1_554
Mn3 O2 1.922054 1_555
Mn3 O2 1.923372 1_554
Mn3 O6 1.977541 1_555
Mn3 O0 2.078886 1_555
Mn4 O4 1.921238 1_555
Mn4 O4 1.922823 1_556
Mn4 O1 1.976770 1_555
Mn4 O7 2.079774 1_555
Mn5 O3 1.966174 1_555
Mn5 O5 1.966177 1_555
Mn5 O3 1.968819 1_556
Mn5 O5 1.968917 1_554
F0 Mn0 2.065770 1_454
F0 Mn0 2.093823 1_455
F0 Mn5 2.448469 1_555
F1 Mg0 1.996141 1_556
F1 Mg0 2.001766 1_555
F1 Mn1 2.170505 1_556
F2 Mg0 1.993068 1_554
F2 Mg0 1.998245 1_555
F2 Mn1 2.171495 1_655
F3 Mn2 2.066642 1_656
F3 Mn2 2.099012 1_655
F3 Mn5 2.451765 1_555
