# generated using pymatgen
data_Nb4CoP
_symmetry_space_group_name_H-M   'P 1'
_cell_length_a   6.15362900
_cell_length_b   6.15362900
_cell_length_c   5.03207500
_cell_angle_alpha   90.00000000
_cell_angle_beta   90.00000000
_cell_angle_gamma   90.00000000
_symmetry_Int_Tables_number   1
_chemical_formula_structural   Nb4CoP
_chemical_formula_sum   'Nb8 Co2 P2'
_cell_volume   190.55033818
_cell_formula_units_Z   2
loop_
 _symmetry_equiv_pos_site_id
 _symmetry_equiv_pos_as_xyz
  1  'x, y, z'
loop_
 _atom_site_type_symbol
 _atom_site_label
 _atom_site_symmetry_multiplicity
 _atom_site_fract_x
 _atom_site_fract_y
 _atom_site_fract_z
 _atom_site_occupancy
  Nb  Nb0  1  0.33466300  0.15932100  0.50000000  1
  Nb  Nb1  1  0.66533700  0.84067900  0.50000000  1
  Nb  Nb2  1  0.15932100  0.66533700  0.50000000  1
  Nb  Nb3  1  0.84067900  0.33466300  0.50000000  1
  Nb  Nb4  1  0.33466300  0.84067900  0.00000000  1
  Nb  Nb5  1  0.84067900  0.66533700  0.00000000  1
  Nb  Nb6  1  0.15932100  0.33466300  0.00000000  1
  Nb  Nb7  1  0.66533700  0.15932100  0.00000000  1
  Co  Co0  1  0.00000000  0.00000000  0.75000000  1
  Co  Co1  1  0.00000000  0.00000000  0.25000000  1
  P  P0  1  0.50000000  0.50000000  0.75000000  1
  P  P1  1  0.50000000  0.50000000  0.25000000  1
loop_
_geom_bond_atom_site_label_1
_geom_bond_atom_site_label_2
_geom_bond_distance
_geom_bond_site_symmetry_2
Nb0 P0 2.648151 1_555
Nb0 P1 2.648151 1_555
Nb1 P0 2.648151 1_555
Nb1 P1 2.648151 1_555
Nb2 P0 2.648151 1_555
Nb2 P1 2.648151 1_555
Nb3 P0 2.648151 1_555
Nb3 P1 2.648151 1_555
Nb4 P0 2.648151 1_554
Nb4 P1 2.648151 1_555
Nb5 P0 2.648151 1_554
Nb5 P1 2.648151 1_555
Nb6 P0 2.648151 1_554
Nb6 P1 2.648151 1_555
Nb7 P0 2.648151 1_554
Nb7 P1 2.648151 1_555
Co0 Co1 2.516037 1_556
Co0 Co1 2.516037 1_555
Co0 Nb0 2.604783 1_555
Co0 Nb6 2.604783 1_556
Co0 Nb7 2.604783 1_456
Co0 Nb5 2.604783 1_446
Co0 Nb2 2.604783 1_545
Co0 Nb4 2.604783 1_546
Co0 Nb3 2.604783 1_455
Co0 Nb1 2.604783 1_445
Co1 Nb0 2.604783 1_555
Co1 Nb6 2.604783 1_555
Co1 Nb4 2.604783 1_545
Co1 Nb5 2.604783 1_445
Co1 Nb2 2.604783 1_545
Co1 Nb3 2.604783 1_455
Co1 Nb7 2.604783 1_455
Co1 Nb1 2.604783 1_445
P0 P1 2.516037 1_556
P0 P1 2.516037 1_555
