# generated using pymatgen
data_BaFe2S3
_symmetry_space_group_name_H-M   'P 1'
_cell_length_a   6.93044482
_cell_length_b   6.93044482
_cell_length_c   5.16512400
_cell_angle_alpha   90.00000000
_cell_angle_beta   90.00000000
_cell_angle_gamma   101.67728491
_symmetry_Int_Tables_number   1
_chemical_formula_structural   BaFe2S3
_chemical_formula_sum   'Ba2 Fe4 S6'
_cell_volume   242.95179640
_cell_formula_units_Z   2
loop_
 _symmetry_equiv_pos_site_id
 _symmetry_equiv_pos_as_xyz
  1  'x, y, z'
loop_
 _atom_site_type_symbol
 _atom_site_label
 _atom_site_symmetry_multiplicity
 _atom_site_fract_x
 _atom_site_fract_y
 _atom_site_fract_z
 _atom_site_occupancy
  Ba  Ba0  1  0.68288600  0.31711400  0.25000000  1
  Ba  Ba1  1  0.31711400  0.68288600  0.75000000  1
  Fe  Fe0  1  0.14517500  0.14517500  0.00000000  1
  Fe  Fe1  1  0.85482500  0.85482500  0.00000000  1
  Fe  Fe2  1  0.85482500  0.85482500  0.50000000  1
  Fe  Fe3  1  0.14517500  0.14517500  0.50000000  1
  S  S0  1  0.81939000  0.60001000  0.75000000  1
  S  S1  1  0.18061000  0.39999000  0.25000000  1
  S  S2  1  0.60001000  0.81939000  0.25000000  1
  S  S3  1  0.39999000  0.18061000  0.75000000  1
  S  S4  1  0.88982500  0.11017500  0.75000000  1
  S  S5  1  0.11017500  0.88982500  0.25000000  1
loop_
_geom_bond_atom_site_label_1
_geom_bond_atom_site_label_2
_geom_bond_distance
_geom_bond_site_symmetry_2
Ba0 S3 3.264617 1_555
Ba0 S3 3.264617 1_554
Ba0 S0 3.264617 1_554
Ba0 S0 3.264617 1_555
Ba0 S1 3.380324 1_655
Ba0 S2 3.380324 1_545
Ba0 S4 3.408223 1_555
Ba0 S4 3.408223 1_554
Ba0 S1 3.640958 1_555
Ba0 S2 3.640958 1_555
Ba1 S2 3.264617 1_555
Ba1 S2 3.264617 1_556
Ba1 S1 3.264617 1_556
Ba1 S1 3.264617 1_555
Ba1 S3 3.380324 1_565
Ba1 S0 3.380324 1_455
Ba1 S5 3.408223 1_556
Ba1 S5 3.408223 1_555
Ba1 S3 3.640958 1_555
Ba1 S0 3.640958 1_555
Fe0 S3 2.161215 1_554
Fe0 S1 2.161215 1_555
Fe0 S5 2.164319 1_545
Fe0 S4 2.164319 1_454
Fe1 S0 2.161215 1_554
Fe1 S2 2.161215 1_555
Fe1 S5 2.164319 1_655
Fe1 S4 2.164319 1_564
Fe2 S0 2.161215 1_555
Fe2 S2 2.161215 1_555
Fe2 S4 2.164319 1_565
Fe2 S5 2.164319 1_655
Fe3 S3 2.161215 1_555
Fe3 S1 2.161215 1_555
Fe3 S5 2.164319 1_545
Fe3 S4 2.164319 1_455
