# generated using pymatgen
data_LaSi2Ru3
_symmetry_space_group_name_H-M   'P 1'
_cell_length_a   5.69385245
_cell_length_b   5.69385245
_cell_length_c   7.21774100
_cell_angle_alpha   90.00000000
_cell_angle_beta   90.00000000
_cell_angle_gamma   120.00000526
_symmetry_Int_Tables_number   1
_chemical_formula_structural   LaSi2Ru3
_chemical_formula_sum   'La2 Si4 Ru6'
_cell_volume   202.64893249
_cell_formula_units_Z   2
loop_
 _symmetry_equiv_pos_site_id
 _symmetry_equiv_pos_as_xyz
  1  'x, y, z'
loop_
 _atom_site_type_symbol
 _atom_site_label
 _atom_site_symmetry_multiplicity
 _atom_site_fract_x
 _atom_site_fract_y
 _atom_site_fract_z
 _atom_site_occupancy
  La  La0  1  0.00000000  0.00000000  0.50000000  1
  La  La1  1  0.00000000  0.00000000  0.00000000  1
  Si  Si0  1  0.33333300  0.66666700  0.50000000  1
  Si  Si1  1  0.66666700  0.33333300  0.00000000  1
  Si  Si2  1  0.66666700  0.33333300  0.50000000  1
  Si  Si3  1  0.33333300  0.66666700  0.00000000  1
  Ru  Ru0  1  0.48523300  0.48523300  0.75000000  1
  Ru  Ru1  1  0.00000000  0.48523300  0.25000000  1
  Ru  Ru2  1  0.51476700  0.51476700  0.25000000  1
  Ru  Ru3  1  0.51476700  0.00000000  0.75000000  1
  Ru  Ru4  1  0.00000000  0.51476700  0.75000000  1
  Ru  Ru5  1  0.48523300  0.00000000  0.25000000  1
loop_
_geom_bond_atom_site_label_1
_geom_bond_atom_site_label_2
_geom_bond_distance
_geom_bond_site_symmetry_2
La0 Si0 3.287344 1_545
La0 Si2 3.287344 1_455
La0 Si2 3.287349 1_555
La0 Si0 3.287349 1_445
La0 Si0 3.287349 1_555
La0 Si2 3.287349 1_445
La0 Ru0 3.299894 1_555
La0 Ru2 3.299894 1_445
La0 Ru1 3.299894 1_555
La0 Ru5 3.299894 1_555
La0 Ru3 3.299894 1_455
La0 Ru4 3.299894 1_545
La0 Ru2 3.441917 1_555
La0 Ru0 3.441917 1_445
La0 Ru3 3.441917 1_555
La0 Ru4 3.441917 1_555
La0 Ru5 3.441917 1_455
La0 Ru1 3.441917 1_545
La1 Si3 3.287344 1_545
La1 Si1 3.287344 1_455
La1 Si1 3.287349 1_445
La1 Si1 3.287349 1_555
La1 Si3 3.287349 1_445
La1 Si3 3.287349 1_555
La1 Ru0 3.299894 1_554
La1 Ru2 3.299894 1_445
La1 Ru1 3.299894 1_555
La1 Ru5 3.299894 1_555
La1 Ru3 3.299894 1_454
La1 Ru4 3.299894 1_544
La1 Ru2 3.441917 1_555
La1 Ru0 3.441917 1_444
La1 Ru3 3.441917 1_554
La1 Ru4 3.441917 1_554
La1 Ru5 3.441917 1_455
La1 Ru1 3.441917 1_545
Ru0 Si0 2.442280 1_555
Ru0 Si3 2.442280 1_556
Ru0 Si1 2.442280 1_556
Ru0 Si2 2.442280 1_555
Ru1 Si1 2.442276 1_455
Ru1 Si2 2.442276 1_455
Ru1 Si0 2.442276 1_555
Ru1 Si3 2.442276 1_555
Ru2 Si1 2.442280 1_555
Ru2 Si2 2.442280 1_555
Ru2 Si0 2.442280 1_555
Ru2 Si3 2.442280 1_555
Ru3 Si1 2.442276 1_556
Ru3 Si2 2.442276 1_555
Ru3 Si0 2.442276 1_545
Ru3 Si3 2.442276 1_546
Ru4 Si0 2.442276 1_555
Ru4 Si3 2.442276 1_556
Ru4 Si2 2.442276 1_455
Ru4 Si1 2.442276 1_456
Ru5 Si0 2.442276 1_545
Ru5 Si3 2.442276 1_545
Ru5 Si1 2.442276 1_555
Ru5 Si2 2.442276 1_555
