# generated using pymatgen
data_Mo3H12C4NO10
_symmetry_space_group_name_H-M   'P 1'
_cell_length_a   10.00660119
_cell_length_b   9.89533332
_cell_length_c   10.00660119
_cell_angle_alpha   60.36715171
_cell_angle_beta   59.26569658
_cell_angle_gamma   60.36715171
_symmetry_Int_Tables_number   1
_chemical_formula_structural   Mo3H12C4NO10
_chemical_formula_sum   'Mo6 H24 C8 N2 O20'
_cell_volume   700.45845789
_cell_formula_units_Z   2
loop_
 _symmetry_equiv_pos_site_id
 _symmetry_equiv_pos_as_xyz
  1  'x, y, z'
loop_
 _atom_site_type_symbol
 _atom_site_label
 _atom_site_symmetry_multiplicity
 _atom_site_fract_x
 _atom_site_fract_y
 _atom_site_fract_z
 _atom_site_occupancy
  Mo  Mo0  1  0.16244651  0.83755349  0.16244651  1
  Mo  Mo1  1  0.83377674  0.16622326  0.16622326  1
  Mo  Mo2  1  0.83377674  0.83377674  0.16622326  1
  Mo  Mo3  1  0.83755349  0.16244651  0.83755349  1
  Mo  Mo4  1  0.16622326  0.16622326  0.83377674  1
  Mo  Mo5  1  0.16622326  0.83377674  0.83377674  1
  H  H0  1  0.26603851  0.44610219  0.26603851  1
  H  H1  1  0.02490397  0.26378206  0.26696686  1
  H  H2  1  0.44434612  0.02490397  0.26378206  1
  H  H3  1  0.02490397  0.44434612  0.26696686  1
  H  H4  1  0.44434612  0.26696686  0.26378206  1
  H  H5  1  0.26603851  0.02181980  0.26603851  1
  H  H6  1  0.02181980  0.26603851  0.44610219  1
  H  H7  1  0.26696686  0.26378206  0.02490397  1
  H  H8  1  0.26378206  0.26696686  0.44434612  1
  H  H9  1  0.44610219  0.26603851  0.02181980  1
  H  H10  1  0.26696686  0.44434612  0.02490397  1
  H  H11  1  0.26378206  0.02490397  0.44434612  1
  H  H12  1  0.73396149  0.55389781  0.73396149  1
  H  H13  1  0.97509603  0.73621794  0.73303314  1
  H  H14  1  0.55565388  0.97509603  0.73621794  1
  H  H15  1  0.97509603  0.55565388  0.73303314  1
  H  H16  1  0.55565388  0.73303314  0.73621794  1
  H  H17  1  0.73396149  0.97818020  0.73396149  1
  H  H18  1  0.97818020  0.73396149  0.55389781  1
  H  H19  1  0.73303314  0.73621794  0.97509603  1
  H  H20  1  0.73621794  0.73303314  0.55565388  1
  H  H21  1  0.55389781  0.73396149  0.97818020  1
  H  H22  1  0.73303314  0.55565388  0.97509603  1
  H  H23  1  0.73621794  0.97509603  0.55565388  1
  C  C0  1  0.31072314  0.31252378  0.31072314  1
  C  C1  1  0.06603093  0.31072314  0.31252378  1
  C  C2  1  0.31072314  0.06603093  0.31072314  1
  C  C3  1  0.31252378  0.31072314  0.06603093  1
  C  C4  1  0.68927686  0.68747622  0.68927686  1
  C  C5  1  0.93396907  0.68927686  0.68747622  1
  C  C6  1  0.68927686  0.93396907  0.68927686  1
  C  C7  1  0.68747622  0.68927686  0.93396907  1
  N  N0  1  0.25000000  0.25000000  0.25000000  1
  N  N1  1  0.75000000  0.75000000  0.75000000  1
  O  O0  1  -0.00000000  -0.00000000  0.00000000  1
  O  O1  1  0.99701001  0.00298999  0.26498186  1
  O  O2  1  0.73232195  -0.00000000  0.26767805  1
  O  O3  1  0.99701001  0.73501814  0.26498186  1
  O  O4  1  0.73501814  0.26498186  0.00298999  1
  O  O5  1  0.00000000  0.26767805  -0.00000000  1
  O  O6  1  0.00298999  0.26498186  0.73501814  1
  O  O7  1  0.26498186  0.73501814  0.99701001  1
  O  O8  1  0.26767805  0.00000000  0.73232195  1
  O  O9  1  0.26498186  0.00298999  0.99701001  1
  O  O10  1  0.00298999  0.99701001  0.73501814  1
  O  O11  1  -0.00000000  0.73232195  0.00000000  1
  O  O12  1  0.73501814  0.99701001  0.00298999  1
  O  O13  1  0.27948679  0.72051321  0.27948679  1
  O  O14  1  0.71392551  0.28607449  0.28607449  1
  O  O15  1  0.71392551  0.71392551  0.28607449  1
  O  O16  1  0.72051321  0.27948679  0.72051321  1
  O  O17  1  0.28607449  0.28607449  0.71392551  1
  O  O18  1  0.28607449  0.71392551  0.71392551  1
  O  O19  1  0.50000000  0.50000000  0.50000000  1
loop_
_geom_bond_atom_site_label_1
_geom_bond_atom_site_label_2
_geom_bond_distance
_geom_bond_site_symmetry_2
Mo0 O13 1.674507 1_555
Mo0 O3 1.928250 1_455
Mo0 O7 1.928250 1_554
Mo0 O9 1.928250 1_564
Mo0 O1 1.928250 1_465
Mo0 O0 2.324138 1_565
Mo1 O14 1.677212 1_555
Mo1 O5 1.927007 1_655
Mo1 O2 1.927007 1_555
Mo1 O1 1.927703 1_555
Mo1 O4 1.927703 1_555
Mo1 O0 2.326147 1_655
Mo2 O15 1.677212 1_555
Mo2 O2 1.927007 1_565
Mo2 O11 1.927007 1_655
Mo2 O3 1.927703 1_555
Mo2 O12 1.927703 1_555
Mo2 O0 2.326147 1_665
Mo3 O16 1.674507 1_555
Mo3 O12 1.928250 1_546
Mo3 O10 1.928250 1_645
Mo3 O4 1.928250 1_556
Mo3 O6 1.928250 1_655
Mo3 O0 2.324138 1_656
Mo4 O17 1.677212 1_555
Mo4 O5 1.927007 1_556
Mo4 O8 1.927007 1_555
Mo4 O9 1.927703 1_555
Mo4 O6 1.927703 1_555
Mo4 O0 2.326147 1_556
Mo5 O18 1.677212 1_555
Mo5 O8 1.927007 1_565
Mo5 O11 1.927007 1_556
Mo5 O7 1.927703 1_555
Mo5 O10 1.927703 1_555
Mo5 O0 2.326147 1_566
C0 H0 1.087414 1_555
C0 H4 1.087702 1_555
C0 H8 1.087702 1_555
C0 N0 1.497369 1_555
C1 H6 1.087414 1_555
C1 H3 1.087702 1_555
C1 H1 1.087718 1_555
C1 N0 1.497361 1_555
C2 H5 1.087430 1_555
C2 H2 1.087701 1_555
C2 H11 1.087701 1_555
C2 N0 1.497361 1_555
C3 H9 1.087414 1_555
C3 H10 1.087702 1_555
C3 H7 1.087718 1_555
C3 N0 1.497361 1_555
C4 H12 1.087414 1_555
C4 H20 1.087702 1_555
C4 H16 1.087702 1_555
C4 N1 1.497369 1_555
C5 H18 1.087414 1_555
C5 H15 1.087702 1_555
C5 H13 1.087718 1_555
C5 N1 1.497361 1_555
C6 H17 1.087430 1_555
C6 H23 1.087701 1_555
C6 H14 1.087701 1_555
C6 N1 1.497361 1_555
C7 H21 1.087414 1_555
C7 H22 1.087702 1_555
C7 H19 1.087718 1_555
C7 N1 1.497361 1_555
