# generated using pymatgen
data_BaZnCl4
_symmetry_space_group_name_H-M   'P 1'
_cell_length_a   6.52424128
_cell_length_b   6.87124580
_cell_length_c   15.45838323
_cell_angle_alpha   90.00000000
_cell_angle_beta   90.00000000
_cell_angle_gamma   90.00000000
_symmetry_Int_Tables_number   1
_chemical_formula_structural   BaZnCl4
_chemical_formula_sum   'Ba4 Zn4 Cl16'
_cell_volume   692.99414927
_cell_formula_units_Z   4
loop_
 _symmetry_equiv_pos_site_id
 _symmetry_equiv_pos_as_xyz
  1  'x, y, z'
loop_
 _atom_site_type_symbol
 _atom_site_label
 _atom_site_symmetry_multiplicity
 _atom_site_fract_x
 _atom_site_fract_y
 _atom_site_fract_z
 _atom_site_occupancy
  Ba  Ba0  1  0.50000000  0.75000000  0.62914561  1
  Ba  Ba1  1  0.00000000  0.25000000  0.87085439  1
  Ba  Ba2  1  0.50000000  0.25000000  0.37085439  1
  Ba  Ba3  1  0.00000000  0.75000000  0.12914561  1
  Zn  Zn0  1  0.00000000  0.75000000  0.39025483  1
  Zn  Zn1  1  0.50000000  0.25000000  0.10974517  1
  Zn  Zn2  1  0.00000000  0.25000000  0.60974517  1
  Zn  Zn3  1  0.50000000  0.75000000  0.89025483  1
  Cl  Cl0  1  0.85343024  0.47359587  0.70004089  1
  Cl  Cl1  1  0.35343024  0.52640413  0.79995911  1
  Cl  Cl2  1  0.64656976  0.97359587  0.79995911  1
  Cl  Cl3  1  0.14656976  0.02640413  0.70004089  1
  Cl  Cl4  1  0.14656976  0.52640413  0.29995911  1
  Cl  Cl5  1  0.64656976  0.47359587  0.20004089  1
  Cl  Cl6  1  0.35343024  0.02640413  0.20004089  1
  Cl  Cl7  1  0.85343024  0.97359587  0.29995911  1
  Cl  Cl8  1  0.75301667  0.59317365  0.96261265  1
  Cl  Cl9  1  0.25301667  0.40682635  0.53738735  1
  Cl  Cl10  1  0.74698333  0.09317365  0.53738735  1
  Cl  Cl11  1  0.24698333  0.90682635  0.96261265  1
  Cl  Cl12  1  0.24698333  0.40682635  0.03738735  1
  Cl  Cl13  1  0.74698333  0.59317365  0.46261265  1
  Cl  Cl14  1  0.25301667  0.90682635  0.46261265  1
  Cl  Cl15  1  0.75301667  0.09317365  0.03738735  1
loop_
_geom_bond_atom_site_label_1
_geom_bond_atom_site_label_2
_geom_bond_distance
_geom_bond_site_symmetry_2
Ba0 Cl3 3.182009 1_565
Ba0 Cl0 3.182009 1_555
Ba0 Cl9 3.188856 1_555
Ba0 Cl10 3.188856 1_565
Ba0 Cl1 3.201115 1_555
Ba0 Cl2 3.201115 1_555
Ba0 Cl14 3.222565 1_555
Ba0 Cl13 3.222565 1_555
Ba1 Cl1 3.182009 1_555
Ba1 Cl2 3.182009 1_445
Ba1 Cl8 3.188856 1_455
Ba1 Cl11 3.188856 1_545
Ba1 Cl0 3.201115 1_455
Ba1 Cl3 3.201115 1_555
Ba1 Cl12 3.222565 1_556
Ba1 Cl15 3.222565 1_456
Ba2 Cl4 3.182009 1_555
Ba2 Cl7 3.182009 1_545
Ba2 Cl13 3.188856 1_555
Ba2 Cl14 3.188856 1_545
Ba2 Cl6 3.201115 1_555
Ba2 Cl5 3.201115 1_555
Ba2 Cl9 3.222565 1_555
Ba2 Cl10 3.222565 1_555
Ba3 Cl5 3.182009 1_455
Ba3 Cl6 3.182009 1_565
Ba3 Cl12 3.188856 1_555
Ba3 Cl15 3.188856 1_465
Ba3 Cl4 3.201115 1_555
Ba3 Cl7 3.201115 1_455
Ba3 Cl11 3.222565 1_554
Ba3 Cl8 3.222565 1_454
Cl0 Zn2 2.285438 1_655
Cl1 Zn3 2.285438 1_555
Cl2 Zn3 2.285438 1_555
Cl3 Zn2 2.285438 1_555
Cl4 Zn0 2.285438 1_555
Cl5 Zn1 2.285438 1_555
Cl6 Zn1 2.285438 1_555
Cl7 Zn0 2.285438 1_655
Cl8 Zn3 2.266556 1_555
Cl9 Zn2 2.266556 1_555
Cl10 Zn2 2.266556 1_655
Cl11 Zn3 2.266556 1_555
Cl12 Zn1 2.266556 1_555
Cl13 Zn0 2.266556 1_655
Cl14 Zn0 2.266556 1_555
Cl15 Zn1 2.266556 1_555
