# generated using pymatgen
data_TlRe6Se8Cl3
_symmetry_space_group_name_H-M   'P 1'
_cell_length_a   9.20716700
_cell_length_b   9.27815381
_cell_length_c   11.22848844
_cell_angle_alpha   90.59806623
_cell_angle_beta   110.07489902
_cell_angle_gamma   94.19503246
_symmetry_Int_Tables_number   1
_chemical_formula_structural   TlRe6Se8Cl3
_chemical_formula_sum   'Tl2 Re12 Se16 Cl6'
_cell_volume   897.86201693
_cell_formula_units_Z   2
loop_
 _symmetry_equiv_pos_site_id
 _symmetry_equiv_pos_as_xyz
  1  'x, y, z'
loop_
 _atom_site_type_symbol
 _atom_site_label
 _atom_site_symmetry_multiplicity
 _atom_site_fract_x
 _atom_site_fract_y
 _atom_site_fract_z
 _atom_site_occupancy
  Tl  Tl0  1  0.95515900  0.65497000  0.86200500  1
  Tl  Tl1  1  0.04484100  0.34503000  0.13799500  1
  Re  Re0  1  0.70087500  0.74150500  0.18570400  1
  Re  Re1  1  0.14003800  0.05158600  0.64812400  1
  Re  Re2  1  0.85996200  0.94841400  0.35187600  1
  Re  Re3  1  0.39239200  0.99392300  0.83762800  1
  Re  Re4  1  0.60760800  0.00607700  0.16237200  1
  Re  Re5  1  0.39331100  0.99311800  0.60183600  1
  Re  Re6  1  0.60668900  0.00688200  0.39816400  1
  Re  Re7  1  0.55670500  0.20021600  0.76807000  1
  Re  Re8  1  0.44329500  0.79978400  0.23193000  1
  Re  Re9  1  0.30014000  0.26122100  0.57862200  1
  Re  Re10  1  0.69986000  0.73877900  0.42137800  1
  Re  Re11  1  0.29912500  0.25849500  0.81429600  1
  Se  Se0  1  0.84508000  0.94441600  0.58178700  1
  Se  Se1  1  0.55157000  0.21264400  0.54018900  1
  Se  Se2  1  0.44843000  0.78735600  0.45981100  1
  Se  Se3  1  0.15492000  0.05558400  0.41821300  1
  Se  Se4  1  0.23507600  0.79936400  0.67425900  1
  Se  Se5  1  0.93880500  0.69079900  0.37004000  1
  Se  Se6  1  0.54111700  0.54784400  0.25611300  1
  Se  Se7  1  0.45888300  0.45215600  0.74388700  1
  Se  Se8  1  0.44951800  0.78772300  0.00708600  1
  Se  Se9  1  0.55048200  0.21227700  0.99291400  1
  Se  Se10  1  0.85431000  0.95031100  0.12425000  1
  Se  Se11  1  0.14569000  0.04968900  0.87575000  1
  Se  Se12  1  0.63154200  0.94069600  0.78698800  1
  Se  Se13  1  0.06119500  0.30920100  0.62996000  1
  Se  Se14  1  0.36845800  0.05930400  0.21301200  1
  Se  Se15  1  0.76492400  0.20063600  0.32574100  1
  Cl  Cl0  1  0.82607600  0.29824800  0.84271100  1
  Cl  Cl1  1  0.76483500  0.56760200  0.05032300  1
  Cl  Cl2  1  0.17392400  0.70175200  0.15728900  1
  Cl  Cl3  1  0.24436400  0.43843000  0.41705600  1
  Cl  Cl4  1  0.75563600  0.56157000  0.58294400  1
  Cl  Cl5  1  0.23516500  0.43239800  0.94967700  1
loop_
_geom_bond_atom_site_label_1
_geom_bond_atom_site_label_2
_geom_bond_distance
_geom_bond_site_symmetry_2
Re0 Se5 2.522462 1_555
Re0 Se6 2.541353 1_555
Re0 Se10 2.553789 1_555
Re0 Se8 2.557149 1_555
Re1 Se13 2.538496 1_555
Re1 Se11 2.538777 1_555
Re1 Se4 2.542786 1_545
Re1 Se3 2.632234 1_555
Re1 Se0 2.668239 1_445
Re2 Se5 2.538496 1_555
Re2 Se10 2.538777 1_555
Re2 Se15 2.542786 1_565
Re2 Se0 2.632234 1_555
Re2 Se3 2.668239 1_665
Re3 Se12 2.535405 1_555
Re3 Se11 2.538722 1_565
Re3 Se4 2.538863 1_555
Re3 Se9 2.648733 1_565
Re3 Se8 2.663356 1_556
Re4 Se14 2.535405 1_555
Re4 Se10 2.538722 1_545
Re4 Se15 2.538863 1_555
Re4 Se8 2.648733 1_545
Re4 Se9 2.663356 1_554
Re5 Se12 2.533093 1_555
Re5 Se4 2.544831 1_555
Re5 Se3 2.551255 1_565
Re5 Se1 2.653020 1_565
Re5 Se2 2.660658 1_555
Re6 Se14 2.533093 1_555
Re6 Se15 2.544831 1_555
Re6 Se0 2.551255 1_545
Re6 Se2 2.653020 1_545
Re6 Se1 2.660658 1_555
Re7 Se12 2.543747 1_545
Re7 Se9 2.546380 1_555
Re7 Se1 2.546898 1_555
Re7 Se7 2.549978 1_555
Re8 Se14 2.543747 1_565
Re8 Se8 2.546380 1_555
Re8 Se2 2.546898 1_555
Re8 Se6 2.549978 1_555
Re9 Se13 2.525674 1_555
Re9 Se7 2.531535 1_555
Re9 Se3 2.563955 1_555
Re9 Se1 2.565696 1_555
Re10 Se5 2.525674 1_555
Re10 Se6 2.531535 1_555
Re10 Se0 2.563955 1_555
Re10 Se2 2.565696 1_555
Re11 Se13 2.522462 1_555
Re11 Se7 2.541353 1_555
Re11 Se11 2.553789 1_555
Re11 Se9 2.557149 1_555
Cl0 Re7 2.430619 1_555
Cl1 Re0 2.441987 1_555
Cl2 Re8 2.430619 1_555
Cl3 Re9 2.409227 1_555
Cl3 Tl1 3.114940 1_555
Cl4 Re10 2.409227 1_555
Cl4 Tl0 3.114940 1_555
Cl5 Re11 2.441987 1_555
