# generated using pymatgen
data_Rb4MgTi2(CuS2)4
_symmetry_space_group_name_H-M   'P 1'
_cell_length_a   5.85088173
_cell_length_b   5.85088173
_cell_length_c   13.18446432
_cell_angle_alpha   90.00000000
_cell_angle_beta   90.00000000
_cell_angle_gamma   84.27983375
_symmetry_Int_Tables_number   1
_chemical_formula_structural   Rb4MgTi2(CuS2)4
_chemical_formula_sum   'Rb4 Mg1 Ti2 Cu4 S8'
_cell_volume   449.09392344
_cell_formula_units_Z   1
loop_
 _symmetry_equiv_pos_site_id
 _symmetry_equiv_pos_as_xyz
  1  'x, y, z'
loop_
 _atom_site_type_symbol
 _atom_site_label
 _atom_site_symmetry_multiplicity
 _atom_site_fract_x
 _atom_site_fract_y
 _atom_site_fract_z
 _atom_site_occupancy
  Rb  Rb0  1  0.82398971  0.82398971  0.00000000  1
  Rb  Rb1  1  0.23422364  0.76577636  0.50000000  1
  Rb  Rb2  1  0.76577636  0.23422364  0.50000000  1
  Rb  Rb3  1  0.17601029  0.17601029  0.00000000  1
  Mg  Mg0  1  0.50000000  0.50000000  0.00000000  1
  Ti  Ti0  1  0.50000000  0.50000000  0.74013945  1
  Ti  Ti1  1  0.50000000  0.50000000  0.25986055  1
  Cu  Cu0  1  0.00000000  0.50000000  0.74664844  1
  Cu  Cu1  1  0.50000000  0.00000000  0.74664844  1
  Cu  Cu2  1  0.00000000  0.50000000  0.25335156  1
  Cu  Cu3  1  0.50000000  0.00000000  0.25335156  1
  S  S0  1  0.73289093  0.73289093  0.65505630  1
  S  S1  1  0.26710907  0.26710907  0.65505630  1
  S  S2  1  0.73289093  0.73289093  0.34494370  1
  S  S3  1  0.72198183  0.27801817  0.14389636  1
  S  S4  1  0.27801817  0.72198183  0.85610364  1
  S  S5  1  0.26710907  0.26710907  0.34494370  1
  S  S6  1  0.27801817  0.72198183  0.14389636  1
  S  S7  1  0.72198183  0.27801817  0.85610364  1
loop_
_geom_bond_atom_site_label_1
_geom_bond_atom_site_label_2
_geom_bond_distance
_geom_bond_site_symmetry_2
Rb0 S4 3.270525 1_654
Rb0 S7 3.270525 1_564
Rb0 S6 3.270525 1_655
Rb0 S3 3.270525 1_565
Rb1 S1 3.552050 1_555
Rb1 S0 3.552050 1_555
Rb1 S5 3.552050 1_555
Rb1 S2 3.552050 1_555
Rb1 S1 3.596208 1_565
Rb1 S0 3.596208 1_455
Rb1 S2 3.596208 1_455
Rb1 S5 3.596208 1_565
Rb2 S1 3.552050 1_555
Rb2 S0 3.552050 1_555
Rb2 S5 3.552050 1_555
Rb2 S2 3.552050 1_555
Rb2 S0 3.596208 1_545
Rb2 S1 3.596208 1_655
Rb2 S5 3.596208 1_655
Rb2 S2 3.596208 1_545
Rb3 S6 3.270525 1_545
Rb3 S4 3.270525 1_544
Rb3 S3 3.270525 1_455
Rb3 S7 3.270525 1_454
Mg0 S7 2.576200 1_554
Mg0 S4 2.576200 1_554
Mg0 S3 2.576200 1_555
Mg0 S6 2.576200 1_555
Mg0 Rb3 2.811245 1_555
Mg0 Rb0 2.811245 1_555
Cu0 S1 2.309313 1_555
Cu0 S0 2.309313 1_455
Cu0 S7 2.614680 1_455
Cu0 S4 2.614680 1_555
Cu1 S0 2.309313 1_545
Cu1 S1 2.309313 1_555
Cu1 S4 2.614680 1_545
Cu1 S7 2.614680 1_555
Cu2 S5 2.309313 1_555
Cu2 S2 2.309313 1_455
Cu2 S3 2.614680 1_455
Cu2 S6 2.614680 1_555
Cu3 S5 2.309313 1_555
Cu3 S2 2.309313 1_545
Cu3 S6 2.614680 1_545
Cu3 S3 2.614680 1_555
S0 Ti0 2.311266 1_555
S1 Ti0 2.311266 1_555
S2 Ti1 2.311266 1_555
S3 Ti1 2.318419 1_555
S4 Ti0 2.318419 1_555
S5 Ti1 2.311266 1_555
S6 Ti1 2.318419 1_555
S7 Ti0 2.318419 1_555
