# generated using pymatgen
data_Mg3B7ClO13
_symmetry_space_group_name_H-M   'P 1'
_cell_length_a   8.50465723
_cell_length_b   8.50465752
_cell_length_c   8.50465806
_cell_angle_alpha   59.99999413
_cell_angle_beta   59.99999303
_cell_angle_gamma   59.99999649
_symmetry_Int_Tables_number   1
_chemical_formula_structural   Mg3B7ClO13
_chemical_formula_sum   'Mg6 B14 Cl2 O26'
_cell_volume   434.96613913
_cell_formula_units_Z   2
loop_
 _symmetry_equiv_pos_site_id
 _symmetry_equiv_pos_as_xyz
  1  'x, y, z'
loop_
 _atom_site_type_symbol
 _atom_site_label
 _atom_site_symmetry_multiplicity
 _atom_site_fract_x
 _atom_site_fract_y
 _atom_site_fract_z
 _atom_site_occupancy
  Mg  Mg0  1  0.75000000  0.75000000  0.25000000  1
  Mg  Mg1  1  0.25000000  0.75000000  0.25000000  1
  Mg  Mg2  1  0.75000000  0.25000000  0.25000000  1
  Mg  Mg3  1  0.25000000  0.25000000  0.75000000  1
  Mg  Mg4  1  0.75000000  0.25000000  0.75000000  1
  Mg  Mg5  1  0.25000000  0.75000000  0.75000000  1
  B  B0  1  -0.00000000  -0.00000000  0.50000000  1
  B  B1  1  0.83042941  0.83042941  0.83042941  1
  B  B2  1  0.83042941  0.50871476  0.83042941  1
  B  B3  1  0.50000000  -0.00000000  0.50000000  1
  B  B4  1  0.33042941  0.33042941  0.33042941  1
  B  B5  1  0.33042941  0.33042941  0.00871476  1
  B  B6  1  0.50871476  0.83042941  0.83042941  1
  B  B7  1  0.50000000  0.50000000  0.00000000  1
  B  B8  1  -0.00000000  0.50000000  0.50000000  1
  B  B9  1  0.33042941  0.00871476  0.33042941  1
  B  B10  1  0.83042941  0.83042941  0.50871476  1
  B  B11  1  0.00871476  0.33042941  0.33042941  1
  B  B12  1  0.50000000  -0.00000000  0.00000000  1
  B  B13  1  -0.00000000  0.50000000  0.00000000  1
  Cl  Cl0  1  0.50000000  0.50000000  0.50000000  1
  Cl  Cl1  1  -0.00000000  -0.00000000  0.00000000  1
  O  O0  1  0.35254395  0.18708554  0.50902588  1
  O  O1  1  0.45134463  0.00902588  0.85254395  1
  O  O2  1  0.35254395  0.50902588  0.95134463  1
  O  O3  1  0.68708554  0.00902588  0.45134463  1
  O  O4  1  0.95134463  0.35254395  0.50902588  1
  O  O5  1  0.50902588  0.18708554  0.95134463  1
  O  O6  1  0.85254395  0.68708554  0.45134463  1
  O  O7  1  0.18708554  0.50902588  0.35254395  1
  O  O8  1  0.68708554  0.85254395  0.00902588  1
  O  O9  1  0.50902588  0.35254395  0.18708554  1
  O  O10  1  0.85254395  0.45134463  0.00902588  1
  O  O11  1  0.00902588  0.68708554  0.85254395  1
  O  O12  1  0.18708554  0.95134463  0.50902588  1
  O  O13  1  0.50902588  0.95134463  0.35254395  1
  O  O14  1  0.95134463  0.50902588  0.18708554  1
  O  O15  1  0.25000000  0.25000000  0.25000000  1
  O  O16  1  0.85254395  0.00902588  0.68708554  1
  O  O17  1  0.95134463  0.18708554  0.35254395  1
  O  O18  1  0.45134463  0.68708554  0.00902588  1
  O  O19  1  0.18708554  0.35254395  0.95134463  1
  O  O20  1  0.00902588  0.45134463  0.68708554  1
  O  O21  1  0.45134463  0.85254395  0.68708554  1
  O  O22  1  0.75000000  0.75000000  0.75000000  1
  O  O23  1  0.00902588  0.85254395  0.45134463  1
  O  O24  1  0.35254395  0.95134463  0.18708554  1
  O  O25  1  0.68708554  0.45134463  0.85254395  1
loop_
_geom_bond_atom_site_label_1
_geom_bond_atom_site_label_2
_geom_bond_distance
_geom_bond_site_symmetry_2
Mg0 O13 2.022264 1_555
Mg0 O14 2.022264 1_555
Mg0 O8 2.022265 1_555
Mg0 O6 2.022265 1_555
Mg1 O23 2.022264 1_555
Mg1 O7 2.022264 1_555
Mg1 O18 2.022264 1_555
Mg1 O24 2.022264 1_555
Mg2 O10 2.022264 1_555
Mg2 O3 2.022264 1_555
Mg2 O9 2.022264 1_555
Mg2 O17 2.022264 1_555
Mg3 O20 2.022264 1_555
Mg3 O1 2.022264 1_555
Mg3 O0 2.022265 1_555
Mg3 O19 2.022265 1_555
Mg4 O5 2.022264 1_555
Mg4 O4 2.022264 1_555
Mg4 O16 2.022264 1_555
Mg4 O25 2.022265 1_555
Mg5 O11 2.022264 1_555
Mg5 O21 2.022264 1_555
Mg5 O2 2.022264 1_555
Mg5 O12 2.022264 1_555
B0 O16 1.463111 1_455
B0 O17 1.463111 1_455
B0 O12 1.463111 1_545
B0 O23 1.463111 1_545
B1 O16 1.425947 1_565
B1 O11 1.425947 1_655
B1 O8 1.425947 1_556
B1 O22 1.675511 1_555
B2 O10 1.425941 1_556
B2 O20 1.425953 1_655
B2 O25 1.425965 1_555
B2 O22 1.675490 1_555
B3 O3 1.463111 1_555
B3 O21 1.463111 1_545
B3 O0 1.463111 1_555
B3 O13 1.463111 1_545
B4 O9 1.425947 1_555
B4 O7 1.425947 1_555
B4 O0 1.425947 1_555
B4 O15 1.675511 1_555
B5 O2 1.425941 1_554
B5 O5 1.425953 1_554
B5 O19 1.425965 1_554
B5 O15 1.675490 1_555
B6 O1 1.425941 1_565
B6 O18 1.425953 1_556
B6 O21 1.425965 1_555
B6 O22 1.675490 1_555
B7 O25 1.463111 1_554
B7 O9 1.463111 1_555
B7 O18 1.463111 1_555
B7 O2 1.463111 1_554
B8 O7 1.463111 1_555
B8 O6 1.463111 1_455
B8 O4 1.463111 1_455
B8 O20 1.463111 1_555
B9 O13 1.425941 1_545
B9 O12 1.425953 1_545
B9 O24 1.425965 1_545
B9 O15 1.675490 1_555
B10 O23 1.425941 1_655
B10 O3 1.425953 1_565
B10 O6 1.425965 1_555
B10 O22 1.675490 1_555
B11 O4 1.425941 1_455
B11 O14 1.425953 1_455
B11 O17 1.425965 1_455
B11 O15 1.675490 1_555
B12 O24 1.463111 1_545
B12 O8 1.463111 1_545
B12 O5 1.463111 1_554
B12 O1 1.463111 1_554
B13 O19 1.463111 1_554
B13 O11 1.463111 1_554
B13 O10 1.463111 1_455
B13 O14 1.463111 1_455
Cl0 Mg3 3.006850 1_555
Cl0 Mg0 3.006850 1_555
Cl0 Mg1 3.006850 1_555
Cl0 Mg4 3.006850 1_555
Cl0 Mg2 3.006850 1_555
Cl0 Mg5 3.006850 1_555
Cl1 Mg0 3.006850 1_445
Cl1 Mg3 3.006850 1_554
Cl1 Mg4 3.006850 1_454
Cl1 Mg1 3.006850 1_545
Cl1 Mg5 3.006850 1_544
Cl1 Mg2 3.006850 1_455
