# generated using pymatgen
data_MgMn3Cd2O8
_symmetry_space_group_name_H-M   'P 1'
_cell_length_a   5.31868261
_cell_length_b   5.89121877
_cell_length_c   6.39288714
_cell_angle_alpha   117.43639217
_cell_angle_beta   101.68499000
_cell_angle_gamma   89.99999201
_symmetry_Int_Tables_number   1
_chemical_formula_structural   MgMn3Cd2O8
_chemical_formula_sum   'Mg1 Mn3 Cd2 O8'
_cell_volume   173.09040973
_cell_formula_units_Z   1
loop_
 _symmetry_equiv_pos_site_id
 _symmetry_equiv_pos_as_xyz
  1  'x, y, z'
loop_
 _atom_site_type_symbol
 _atom_site_label
 _atom_site_symmetry_multiplicity
 _atom_site_fract_x
 _atom_site_fract_y
 _atom_site_fract_z
 _atom_site_occupancy
  Mg  Mg0  1  0.50000000  0.50000000  0.00000000  1
  Mn  Mn0  1  0.50000100  0.99999900  0.00000000  1
  Mn  Mn1  1  0.00000000  0.74886200  0.99999900  1
  Mn  Mn2  1  0.00000100  0.25114000  0.00000100  1
  Cd  Cd0  1  0.69962500  0.75205200  0.50410400  1
  Cd  Cd1  1  0.30037600  0.24794800  0.49589700  1
  O  O0  1  0.11361800  0.40884600  0.81769000  1
  O  O1  1  0.88638300  0.59115400  0.18231100  1
  O  O2  1  0.08767400  0.90291400  0.80582900  1
  O  O3  1  0.91232500  0.09708600  0.19417100  1
  O  O4  1  0.39120400  0.34059500  0.20169700  1
  O  O5  1  0.39120400  0.86110100  0.20169700  1
  O  O6  1  0.60879700  0.13889700  0.79830300  1
  O  O7  1  0.60879700  0.65940600  0.79830300  1
loop_
_geom_bond_atom_site_label_1
_geom_bond_atom_site_label_2
_geom_bond_distance
_geom_bond_site_symmetry_2
Mg0 O5 2.073022 1_555
Mg0 O4 2.073027 1_555
Mg0 O6 2.073033 1_554
Mg0 O7 2.073033 1_554
Mg0 O0 2.079184 1_554
Mg0 O1 2.079190 1_555
Mn0 O7 1.985332 1_554
Mn0 O6 1.985341 1_564
Mn0 O5 1.985343 1_555
Mn0 O4 1.985347 1_565
Mn0 O3 2.218197 1_565
Mn0 O2 2.218211 1_554
Mn1 O2 1.963302 1_555
Mn1 O3 1.963315 1_466
Mn1 O0 1.967198 1_555
Mn1 O1 1.967217 1_456
Mn1 O7 2.134631 1_455
Mn1 O5 2.134639 1_556
Mn2 O3 1.963315 1_455
Mn2 O2 1.963320 1_544
Mn2 O1 1.967190 1_455
Mn2 O0 1.967202 1_554
Mn2 O4 2.134631 1_555
Mn2 O6 2.134640 1_454
Cd0 O1 2.268901 1_555
Cd0 O6 2.320044 1_565
Cd0 O7 2.320044 1_555
Cd0 O2 2.361753 1_655
Cd0 O5 2.588635 1_555
Cd0 O4 2.588638 1_555
Cd1 O0 2.268901 1_555
Cd1 O5 2.320054 1_545
Cd1 O4 2.320054 1_555
Cd1 O3 2.361764 1_455
Cd1 O6 2.588637 1_555
Cd1 O7 2.588641 1_555
