# generated using pymatgen
data_Ba2YbMgNbO6
_symmetry_space_group_name_H-M   'P 1'
_cell_length_a   6.40964621
_cell_length_b   6.40964578
_cell_length_c   6.05441900
_cell_angle_alpha   61.81697808
_cell_angle_beta   61.81698014
_cell_angle_gamma   56.74838109
_symmetry_Int_Tables_number   1
_chemical_formula_structural   Ba2YbMgNbO6
_chemical_formula_sum   'Ba2 Yb1 Mg1 Nb1 O6'
_cell_volume   175.50443416
_cell_formula_units_Z   1
loop_
 _symmetry_equiv_pos_site_id
 _symmetry_equiv_pos_as_xyz
  1  'x, y, z'
loop_
 _atom_site_type_symbol
 _atom_site_label
 _atom_site_symmetry_multiplicity
 _atom_site_fract_x
 _atom_site_fract_y
 _atom_site_fract_z
 _atom_site_occupancy
  Ba  Ba0  1  0.81272600  0.81272600  0.68727400  1
  Ba  Ba1  1  0.18727400  0.18727400  0.31272600  1
  Yb  Yb0  1  0.50000000  0.50000000  0.50000000  1
  Mg  Mg0  1  0.50000000  0.50000000  0.00000000  1
  Nb  Nb0  1  0.00000000  0.00000000  0.00000000  1
  O  O0  1  0.25491800  0.74508200  0.76989600  1
  O  O1  1  0.25491800  0.74508200  0.23010400  1
  O  O2  1  0.74508200  0.25491800  0.76989600  1
  O  O3  1  0.21658100  0.21658100  0.78341900  1
  O  O4  1  0.74508200  0.25491800  0.23010400  1
  O  O5  1  0.78341900  0.78341900  0.21658100  1
loop_
_geom_bond_atom_site_label_1
_geom_bond_atom_site_label_2
_geom_bond_distance
_geom_bond_site_symmetry_2
Ba0 O2 2.873702 1_565
Ba0 O0 2.873702 1_655
Ba0 O4 2.873702 1_565
Ba0 O1 2.873702 1_655
Ba0 Mg0 2.976073 1_556
Ba0 O5 3.040030 1_555
Ba0 O5 3.040030 1_556
Ba0 O3 3.180494 1_655
Ba0 O3 3.180494 1_565
Ba1 O1 2.873702 1_545
Ba1 O4 2.873702 1_455
Ba1 O0 2.873702 1_545
Ba1 O2 2.873702 1_455
Ba1 Mg0 2.976073 1_555
Ba1 O3 3.040030 1_555
Ba1 O3 3.040030 1_554
Ba1 O5 3.180494 1_455
Ba1 O5 3.180494 1_545
Mg0 O2 2.042079 1_554
Mg0 O1 2.042079 1_555
Mg0 O0 2.042079 1_554
Mg0 O4 2.042079 1_555
Nb0 O3 2.061104 1_554
Nb0 O5 2.061104 1_445
Nb0 O2 2.086291 1_454
Nb0 O0 2.086291 1_544
Nb0 O1 2.086291 1_545
Nb0 O4 2.086291 1_455
O0 Yb0 2.213457 1_555
O1 Yb0 2.213457 1_555
O2 Yb0 2.213457 1_555
O3 Yb0 2.697172 1_555
O4 Yb0 2.213457 1_555
O5 Yb0 2.697172 1_555
