# generated using pymatgen
data_Yb(GeRu)2
_symmetry_space_group_name_H-M   'P 1'
_cell_length_a   5.81034742
_cell_length_b   5.81034742
_cell_length_c   5.81034742
_cell_angle_alpha   136.80945055
_cell_angle_beta   136.80945055
_cell_angle_gamma   62.73136364
_symmetry_Int_Tables_number   1
_chemical_formula_structural   Yb(GeRu)2
_chemical_formula_sum   'Yb1 Ge2 Ru2'
_cell_volume   90.75341226
_cell_formula_units_Z   1
loop_
 _symmetry_equiv_pos_site_id
 _symmetry_equiv_pos_as_xyz
  1  'x, y, z'
loop_
 _atom_site_type_symbol
 _atom_site_label
 _atom_site_symmetry_multiplicity
 _atom_site_fract_x
 _atom_site_fract_y
 _atom_site_fract_z
 _atom_site_occupancy
  Yb  Yb0  1  0.00000000  0.00000000  0.00000000  1
  Ge  Ge0  1  0.63113400  0.63113400  0.00000000  1
  Ge  Ge1  1  0.36886600  0.36886600  0.00000000  1
  Ru  Ru0  1  0.25000000  0.75000000  0.50000000  1
  Ru  Ru1  1  0.75000000  0.25000000  0.50000000  1
loop_
_geom_bond_atom_site_label_1
_geom_bond_atom_site_label_2
_geom_bond_distance
_geom_bond_site_symmetry_2
Ge0 Ru1 2.442174 1_565
Ge0 Ru0 2.442174 1_655
Ge0 Ru0 2.442174 1_554
Ge0 Ru1 2.442174 1_554
Ge0 Ge1 2.602348 1_555
Ge0 Yb0 3.292309 1_554
Ge0 Yb0 3.292309 1_666
Ge0 Yb0 3.292309 1_655
Ge0 Yb0 3.292309 1_565
Ge1 Ru1 2.442174 1_454
Ge1 Ru0 2.442174 1_555
Ge1 Ru1 2.442174 1_555
Ge1 Ru0 2.442174 1_544
Ge1 Yb0 3.292309 1_666
Ge1 Yb0 3.292309 1_554
Ge1 Yb0 3.292309 1_655
Ge1 Yb0 3.292309 1_565
Ru0 Yb0 3.275148 1_666
Ru0 Yb0 3.275148 1_555
Ru0 Yb0 3.275148 1_566
Ru0 Yb0 3.275148 1_565
Ru1 Yb0 3.275148 1_555
Ru1 Yb0 3.275148 1_655
Ru1 Yb0 3.275148 1_666
Ru1 Yb0 3.275148 1_656
