# generated using pymatgen
data_Li5Cu(PO4)2
_symmetry_space_group_name_H-M   'P 1'
_cell_length_a   5.08058100
_cell_length_b   6.17498500
_cell_length_c   10.75136457
_cell_angle_alpha   89.47254392
_cell_angle_beta   90.00000000
_cell_angle_gamma   90.00000000
_symmetry_Int_Tables_number   1
_chemical_formula_structural   Li5Cu(PO4)2
_chemical_formula_sum   'Li10 Cu2 P4 O16'
_cell_volume   337.28301588
_cell_formula_units_Z   2
loop_
 _symmetry_equiv_pos_site_id
 _symmetry_equiv_pos_as_xyz
  1  'x, y, z'
loop_
 _atom_site_type_symbol
 _atom_site_label
 _atom_site_symmetry_multiplicity
 _atom_site_fract_x
 _atom_site_fract_y
 _atom_site_fract_z
 _atom_site_occupancy
  Li  Li0  1  0.45159400  0.99767000  0.66373100  1
  Li  Li1  1  0.94790200  0.25067300  0.07487100  1
  Li  Li2  1  0.05209800  0.25067300  0.57487100  1
  Li  Li3  1  0.54840600  0.99767000  0.16373100  1
  Li  Li4  1  0.54502200  0.75044500  0.92577600  1
  Li  Li5  1  0.45497800  0.75044500  0.42577600  1
  Li  Li6  1  0.44737400  0.50202600  0.66442100  1
  Li  Li7  1  0.55262600  0.50202600  0.16442100  1
  Li  Li8  1  0.94185600  0.49650700  0.83610800  1
  Li  Li9  1  0.05814400  0.49650700  0.33610800  1
  Cu  Cu0  1  0.04872400  0.00750100  0.32726500  1
  Cu  Cu1  1  0.95127600  0.00750100  0.82726500  1
  P  P0  1  0.05325700  0.74379000  0.08850300  1
  P  P1  1  0.44325100  0.25415800  0.91352900  1
  P  P2  1  0.94674300  0.74379000  0.58850300  1
  P  P3  1  0.55674900  0.25415800  0.41352900  1
  O  O0  1  0.94365400  0.73723600  0.95357300  1
  O  O1  1  0.47109000  0.04447900  0.34351300  1
  O  O2  1  0.05556700  0.95447600  0.65050800  1
  O  O3  1  0.94443300  0.95447600  0.15050800  1
  O  O4  1  0.55192100  0.25241400  0.04864900  1
  O  O5  1  0.36014600  0.74908000  0.08863800  1
  O  O6  1  0.63985400  0.74908000  0.58863800  1
  O  O7  1  0.05634600  0.73723600  0.45357400  1
  O  O8  1  0.04674900  0.54113400  0.66164200  1
  O  O9  1  0.95325100  0.54113400  0.16164200  1
  O  O10  1  0.54447800  0.45745100  0.84121500  1
  O  O11  1  0.45552200  0.45745100  0.34121500  1
  O  O12  1  0.13550900  0.26096000  0.91805800  1
  O  O13  1  0.86449100  0.26096000  0.41805800  1
  O  O14  1  0.44807900  0.25241400  0.54864900  1
  O  O15  1  0.52891000  0.04447900  0.84351300  1
loop_
_geom_bond_atom_site_label_1
_geom_bond_atom_site_label_2
_geom_bond_distance
_geom_bond_site_symmetry_2
Li0 O6 1.986408 1_555
Li0 O14 1.992442 1_565
Li0 O15 1.996057 1_565
Li0 O2 2.034793 1_555
Li1 O12 1.937267 1_654
Li1 O3 1.994870 1_545
Li1 O9 2.029491 1_555
Li1 O4 2.031486 1_555
Li2 O13 1.937267 1_455
Li2 O2 1.994870 1_545
Li2 O8 2.029491 1_555
Li2 O14 2.031486 1_555
Li3 O5 1.986408 1_555
Li3 O4 1.992442 1_565
Li3 O1 1.996057 1_565
Li3 O3 2.034793 1_555
Li4 O5 1.986958 1_556
Li4 O15 2.013945 1_565
Li4 O10 2.032281 1_555
Li4 O0 2.048728 1_555
Li5 O6 1.986958 1_555
Li5 O1 2.013945 1_565
Li5 O11 2.032281 1_555
Li5 O7 2.048730 1_555
Li6 O10 1.980523 1_555
Li6 O6 1.981058 1_555
Li6 O14 1.990073 1_555
Li6 O8 2.049869 1_555
Li7 O11 1.980523 1_555
Li7 O5 1.981058 1_555
Li7 O4 1.990073 1_555
Li7 O9 2.049869 1_555
Li8 O12 1.958639 1_655
Li8 O0 1.959404 1_555
Li8 O8 1.966940 1_655
Li8 O10 2.033946 1_555
Li9 O13 1.958639 1_455
Li9 O7 1.959411 1_555
Li9 O9 1.966940 1_455
Li9 O11 2.033946 1_555
Cu0 O3 2.002712 1_445
Cu0 O13 2.075251 1_455
Cu0 O7 2.142216 1_545
Cu0 O1 2.165208 1_555
Cu1 O2 2.002712 1_645
Cu1 O12 2.075251 1_655
Cu1 O0 2.142209 1_545
Cu1 O15 2.165208 1_555
O0 P0 1.554759 1_656
O1 P3 1.565381 1_555
O2 P2 1.567998 1_455
O3 P0 1.567998 1_655
O4 P1 1.554046 1_554
O5 P0 1.559518 1_555
O6 P2 1.559518 1_555
O7 P2 1.554749 1_455
O8 P2 1.557039 1_455
O9 P0 1.557039 1_655
O10 P1 1.557835 1_555
O11 P3 1.557835 1_555
O12 P1 1.564842 1_555
O13 P3 1.564842 1_555
O14 P3 1.554046 1_555
O15 P1 1.565381 1_555
