# generated using pymatgen
data_Na4CaTi3Si3(SO8)3
_symmetry_space_group_name_H-M   'P 1'
_cell_length_a   8.99123345
_cell_length_b   8.98098950
_cell_length_c   22.54605719
_cell_angle_alpha   89.21579771
_cell_angle_beta   90.87440518
_cell_angle_gamma   119.91805842
_symmetry_Int_Tables_number   1
_chemical_formula_structural   Na4CaTi3Si3(SO8)3
_chemical_formula_sum   'Na12 Ca3 Ti9 Si9 S9 O72'
_cell_volume   1577.76186762
_cell_formula_units_Z   3
loop_
 _symmetry_equiv_pos_site_id
 _symmetry_equiv_pos_as_xyz
  1  'x, y, z'
loop_
 _atom_site_type_symbol
 _atom_site_label
 _atom_site_symmetry_multiplicity
 _atom_site_fract_x
 _atom_site_fract_y
 _atom_site_fract_z
 _atom_site_occupancy
  Na  Na0  1  0.64147969  0.00677983  0.23979064  1
  Na  Na1  1  0.36939219  0.34735931  0.25020073  1
  Na  Na2  1  0.98755777  0.63934344  0.24950869  1
  Na  Na3  1  0.99161138  0.36309229  0.75640668  1
  Na  Na4  1  0.38486780  0.00969341  0.75567043  1
  Na  Na5  1  0.70772422  0.67559319  0.40755829  1
  Na  Na6  1  0.00829820  0.01938914  0.49830659  1
  Na  Na7  1  0.00570922  0.00833400  0.00154983  1
  Na  Na8  1  0.65572803  0.33652008  0.83527435  1
  Na  Na9  1  0.64686175  0.31698584  0.32449412  1
  Na  Na10  1  0.34617565  0.68269362  0.15866724  1
  Na  Na11  1  0.35437919  0.66406571  0.67052234  1
  Ca  Ca0  1  0.00943949  0.01046606  0.35815623  1
  Ca  Ca1  1  0.66094045  0.33413410  0.68459806  1
  Ca  Ca2  1  0.65732604  0.32062047  0.17156488  1
  Ti  Ti0  1  0.01391271  0.02772207  0.85947015  1
  Ti  Ti1  1  0.98910326  0.01141201  0.65334914  1
  Ti  Ti2  1  0.98544542  0.97859819  0.14879750  1
  Ti  Ti3  1  0.66779796  0.30262247  0.97777478  1
  Ti  Ti4  1  0.65176665  0.31713376  0.47558284  1
  Ti  Ti5  1  0.32927221  0.67276879  0.01504058  1
  Ti  Ti6  1  0.34088668  0.66483187  0.51582475  1
  Ti  Ti7  1  0.36091564  0.68598433  0.31194326  1
  Ti  Ti8  1  0.34145899  0.66879374  0.81763203  1
  Si  Si0  1  0.29188676  0.99667744  0.25109839  1
  Si  Si1  1  0.70432806  0.70134630  0.25405754  1
  Si  Si2  1  0.28694050  0.29664354  0.75362462  1
  Si  Si3  1  0.70699610  0.98752615  0.75537899  1
  Si  Si4  1  0.66774442  0.01734384  0.08381537  1
  Si  Si5  1  0.04422741  0.38531016  0.91651729  1
  Si  Si6  1  0.32957844  0.95483124  0.91413469  1
  Si  Si7  1  0.61825797  0.95895694  0.41901086  1
  Si  Si8  1  0.33703607  0.38215746  0.41843617  1
  S  S0  1  0.00929881  0.29932643  0.24796872  1
  S  S1  1  0.00770565  0.72482193  0.75118728  1
  S  S2  1  0.96643259  0.33458129  0.58302792  1
  S  S3  1  0.36373766  0.03069137  0.58116346  1
  S  S4  1  0.67089592  0.64059462  0.58015937  1
  S  S5  1  0.97026299  0.63437120  0.08073155  1
  S  S6  1  0.36221041  0.33386399  0.07932672  1
  S  S7  1  0.62268689  0.66447278  0.91809240  1
  S  S8  1  0.03833520  0.64926510  0.42068200  1
  O  O0  1  0.21983108  0.04700042  0.30608920  1
  O  O1  1  0.80460283  0.77591502  0.31491841  1
  O  O2  1  0.97029235  0.19653896  0.30260377  1
  O  O3  1  0.18495441  0.17399680  0.81077887  1
  O  O4  1  0.99043641  0.80442441  0.80431488  1
  O  O5  1  0.83353500  0.00281006  0.80990195  1
  O  O6  1  0.80298855  0.96997954  0.69282010  1
  O  O7  1  0.15582895  0.18773685  0.69458127  1
  O  O8  1  0.02186334  0.82806601  0.69558435  1
  O  O9  1  0.80736027  0.83464393  0.19609566  1
  O  O10  1  0.03021625  0.20934551  0.19601345  1
  O  O11  1  0.16004527  0.96899610  0.19201115  1
  O  O12  1  0.90275403  0.35941760  0.63945893  1
  O  O13  1  0.45923201  0.09374181  0.63739513  1
  O  O14  1  0.64253362  0.54090482  0.63480778  1
  O  O15  1  0.91184422  0.54820431  0.13859223  1
  O  O16  1  0.62577183  0.07200987  0.14501356  1
  O  O17  1  0.44771218  0.36456618  0.13817628  1
  O  O18  1  0.46737012  0.31719356  0.03196695  1
  O  O19  1  0.85271062  0.53823600  0.03151748  1
  O  O20  1  0.68933309  0.16064396  0.02898968  1
  O  O21  1  0.46641232  0.15237857  0.53133258  1
  O  O22  1  0.68707805  0.55132285  0.52795682  1
  O  O23  1  0.84844093  0.31367618  0.53286906  1
  O  O24  1  0.53843282  0.68901308  0.96926814  1
  O  O25  1  0.16887297  0.47997603  0.97238244  1
  O  O26  1  0.31168527  0.83277656  0.97071413  1
  O  O27  1  0.49468777  0.84086823  0.47322760  1
  O  O28  1  0.33528661  0.49579040  0.47531138  1
  O  O29  1  0.14068084  0.65775097  0.47396533  1
  O  O30  1  0.11288269  0.63025268  0.36529753  1
  O  O31  1  0.50921912  0.87539461  0.35642884  1
  O  O32  1  0.36918220  0.50474588  0.35907735  1
  O  O33  1  0.13614469  0.50104146  0.85582776  1
  O  O34  1  0.36304735  0.86668560  0.85500150  1
  O  O35  1  0.51217337  0.64136497  0.86268175  1
  O  O36  1  0.01541935  0.79926870  0.42145925  1
  O  O37  1  0.79491428  0.96168612  0.42471069  1
  O  O38  1  0.17883629  0.19659805  0.42520144  1
  O  O39  1  0.01915510  0.19026418  0.91064169  1
  O  O40  1  0.15606951  0.96910413  0.90834057  1
  O  O41  1  0.79430893  0.81777185  0.91163407  1
  O  O42  1  0.97862828  0.17139190  0.58636114  1
  O  O43  1  0.19412784  0.02260645  0.58287522  1
  O  O44  1  0.82844703  0.81442787  0.58453641  1
  O  O45  1  0.98465373  0.80931557  0.08320560  1
  O  O46  1  0.84964945  0.01332948  0.08827609  1
  O  O47  1  0.19108424  0.17409072  0.08160130  1
  O  O48  1  0.69790842  0.16233047  0.75120639  1
  O  O49  1  0.46557118  0.30056149  0.75038459  1
  O  O50  1  0.86204681  0.54655677  0.74617759  1
  O  O51  1  0.67420350  0.51241750  0.24339627  1
  O  O52  1  0.86703240  0.33614379  0.23927865  1
  O  O53  1  0.48849695  0.14772297  0.24347762  1
  O  O54  1  0.63508465  0.50679657  0.92274260  1
  O  O55  1  0.85057883  0.36255989  0.92543318  1
  O  O56  1  0.50148311  0.14778810  0.92452925  1
  O  O57  1  0.63436801  0.15092261  0.42730972  1
  O  O58  1  0.52319339  0.37792708  0.42814693  1
  O  O59  1  0.86089054  0.49057598  0.42645656  1
  O  O60  1  0.34017205  0.48576768  0.06876631  1
  O  O61  1  0.14704094  0.65941703  0.07272525  1
  O  O62  1  0.50392192  0.82854562  0.06672714  1
  O  O63  1  0.33747412  0.85490092  0.57217571  1
  O  O64  1  0.51594996  0.66609158  0.57450780  1
  O  O65  1  0.14233836  0.48329782  0.57427748  1
  O  O66  1  0.28578197  0.80541886  0.25891920  1
  O  O67  1  0.51529917  0.69935434  0.25452512  1
  O  O68  1  0.17423925  0.46724239  0.25321787  1
  O  O69  1  0.28936562  0.48007659  0.75552023  1
  O  O70  1  0.17099799  0.71572185  0.75141384  1
  O  O71  1  0.51314392  0.81884473  0.75743745  1
loop_
_geom_bond_atom_site_label_1
_geom_bond_atom_site_label_2
_geom_bond_distance
_geom_bond_site_symmetry_2
Na0 O16 2.228974 1_555
Na0 O53 2.290059 1_555
Na0 O67 2.425346 1_545
Na0 O52 2.622700 1_555
Na0 O66 2.817105 1_545
Na0 O9 2.823390 1_545
Na0 O31 2.886652 1_545
Na0 O2 2.926226 1_555
Na1 O51 2.384546 1_555
Na1 O68 2.476460 1_555
Na1 O53 2.512387 1_555
Na1 O17 2.614197 1_555
Na1 O0 2.648189 1_555
Na1 O67 2.755310 1_555
Na1 O32 2.849820 1_555
Na1 O10 2.913103 1_555
Na2 O66 2.336967 1_655
Na2 O52 2.389237 1_555
Na2 O51 2.458686 1_555
Na2 O15 2.614438 1_555
Na2 O68 2.791673 1_655
Na2 O30 2.843887 1_655
Na2 O11 2.868286 1_655
Na2 O1 2.919154 1_555
Na3 O69 2.338120 1_655
Na3 O48 2.342013 1_555
Na3 O50 2.453832 1_555
Na3 O33 2.574753 1_655
Na3 O12 2.739237 1_555
Na3 O70 2.746674 1_655
Na4 O49 2.338383 1_555
Na4 O70 2.369466 1_545
Na4 O48 2.442839 1_555
Na4 O71 2.497671 1_545
Na4 O34 2.527220 1_545
Na4 O13 2.761102 1_555
Na5 O1 2.270284 1_555
Na5 O37 2.318317 1_555
Na5 O58 2.383286 1_555
Na5 O36 2.429728 1_655
Na5 O59 2.661674 1_555
Na5 O32 2.846032 1_555
Na5 O22 2.893861 1_555
Na6 O38 2.274154 1_555
Na6 O37 2.374314 1_445
Na6 O43 2.506813 1_555
Na6 O42 2.515896 1_455
Na6 O44 2.609932 1_445
Na6 O36 2.671620 1_545
Na7 O47 2.399643 1_555
Na7 O46 2.437862 1_455
Na7 O45 2.490570 1_445
Na7 O39 2.569841 1_554
Na7 O40 2.636333 1_544
Na7 O41 2.717352 1_444
Na8 O49 2.461078 1_555
Na8 O56 2.548106 1_555
Na8 O54 2.576618 1_555
Na8 O55 2.598386 1_555
Na8 O48 2.622718 1_555
Na8 O50 2.748478 1_555
Na9 O53 2.347820 1_555
Na9 O51 2.445342 1_555
Na9 O57 2.712314 1_555
Na9 O52 2.721581 1_555
Na9 O58 2.778259 1_555
Na9 O59 2.896353 1_555
Na10 O62 2.487268 1_555
Na10 O61 2.556522 1_555
Na10 O67 2.585951 1_555
Na10 O60 2.690492 1_555
Na10 O66 2.705784 1_555
Na10 O68 2.771656 1_555
Na11 O69 2.393448 1_555
Na11 O71 2.412430 1_555
Na11 O64 2.620192 1_555
Na11 O70 2.671704 1_555
Na11 O65 2.803883 1_555
Na11 O63 2.832422 1_555
Ca0 O0 2.121851 1_555
Ca0 O38 2.204154 1_555
Ca0 O1 2.216091 1_445
Ca0 O2 2.236348 1_455
Ca0 O37 2.321943 1_445
Ca0 O36 2.379680 1_545
Ca1 O49 2.217093 1_555
Ca1 O14 2.231563 1_555
Ca1 O48 2.275835 1_555
Ca1 O13 2.276196 1_555
Ca1 O12 2.320169 1_555
Ca1 O50 2.321969 1_555
Ca2 O16 2.196273 1_555
Ca2 O17 2.228241 1_555
Ca2 O53 2.235875 1_555
Ca2 O15 2.304722 1_555
Ca2 O51 2.328319 1_555
Ca2 O52 2.358202 1_555
O0 Si0 1.578954 1_545
O1 Si1 1.590384 1_555
O2 S0 1.466842 1_655
O3 Si2 1.644476 1_555
O3 Ti0 1.814599 1_555
O4 S1 1.452522 1_655
O4 Ti0 2.291438 1_665
O5 Si3 1.621902 1_545
O5 Ti0 1.875867 1_655
O6 Si3 1.714077 1_555
O6 Ti1 1.773677 1_565
O7 Si2 1.719306 1_555
O7 Ti1 1.802461 1_455
O8 S1 1.517518 1_555
O8 Ti1 2.034021 1_465
O9 Si1 1.699106 1_555
O9 Ti2 1.822605 1_555
O10 S0 1.498271 1_555
O10 Ti2 2.192038 1_445
O11 Si0 1.705471 1_555
O11 Ti2 1.872762 1_455
O12 S2 1.467549 1_555
O13 S3 1.471945 1_555
O14 S4 1.461625 1_555
O15 S5 1.471179 1_555
O16 Si4 1.583193 1_555
O17 S6 1.481529 1_555
O18 S6 1.494309 1_555
O18 Ti3 2.250407 1_554
O19 S5 1.474408 1_555
O19 Ti3 2.282396 1_554
O20 Si4 1.713628 1_555
O20 Ti3 1.787699 1_554
O21 S3 1.516734 1_555
O21 Ti4 2.024824 1_555
O22 S4 1.482103 1_555
O22 Ti4 2.304179 1_555
O23 S2 1.486656 1_555
O23 Ti4 2.186355 1_555
O24 S7 1.467624 1_555
O24 Ti5 2.098670 1_556
O25 Si5 1.612773 1_555
O25 Ti5 1.874895 1_556
O26 Si6 1.626903 1_555
O26 Ti5 1.808691 1_556
O27 Si7 1.638279 1_555
O27 Ti6 1.775467 1_555
O28 Si8 1.654846 1_555
O28 Ti6 1.761243 1_555
O29 S8 1.481419 1_555
O29 Ti6 1.992658 1_555
O30 S8 1.477574 1_555
O30 Ti7 2.371274 1_555
O31 Si7 1.663751 1_555
O31 Ti7 1.849574 1_555
O32 Si8 1.655530 1_555
O32 Ti7 1.963457 1_555
O33 Si5 1.665629 1_555
O33 Ti8 1.912568 1_555
O34 Si6 1.665379 1_555
O34 Ti8 1.896862 1_555
O35 S7 1.534487 1_555
O35 Ti8 1.941926 1_555
O36 S8 1.461267 1_555
O37 Si7 1.579563 1_555
O38 Si8 1.568070 1_555
O39 Si5 1.657821 1_555
O39 Ti0 1.854743 1_555
O40 Si6 1.630976 1_555
O40 Ti0 1.933197 1_565
O41 S7 1.476481 1_555
O41 Ti0 2.265736 1_665
O42 S2 1.524043 1_555
O42 Ti1 2.103687 1_555
O43 S3 1.491192 1_555
O43 Ti1 2.415182 1_455
O44 S4 1.499213 1_555
O44 Ti1 2.254092 1_565
O45 S5 1.512557 1_555
O45 Ti2 2.132799 1_555
O46 Si4 1.655337 1_555
O46 Ti2 1.940976 1_545
O47 S6 1.492338 1_555
O47 Ti2 2.360276 1_445
O48 Si3 1.613643 1_545
O49 Si2 1.591635 1_555
O50 S1 1.483247 1_655
O51 Si1 1.600280 1_555
O52 S0 1.482038 1_655
O53 Si0 1.614159 1_545
O54 S7 1.477080 1_555
O54 Ti3 2.335164 1_555
O55 Si5 1.663855 1_655
O55 Ti3 1.882176 1_555
O56 Si6 1.665894 1_545
O56 Ti3 1.878192 1_555
O57 Si7 1.669493 1_545
O57 Ti4 1.801008 1_555
O58 Si8 1.703805 1_555
O58 Ti4 1.831452 1_555
O59 S8 1.525333 1_655
O59 Ti4 2.069622 1_555
O60 S6 1.488773 1_555
O60 Ti5 2.098167 1_555
O61 S5 1.503510 1_455
O61 Ti5 2.062826 1_555
O62 Si4 1.643868 1_565
O62 Ti5 1.891684 1_555
O63 S3 1.491561 1_565
O63 Ti6 2.154477 1_555
O64 S4 1.523667 1_555
O64 Ti6 2.036496 1_555
O65 S2 1.489769 1_455
O65 Ti6 2.165984 1_555
O66 Si0 1.697799 1_555
O66 Ti7 1.923322 1_555
O67 Si1 1.690944 1_555
O67 Ti7 1.871210 1_555
O68 S0 1.502056 1_555
O68 Ti7 2.267988 1_555
O69 Si2 1.637782 1_555
O69 Ti8 2.075109 1_555
O70 S1 1.510553 1_555
O70 Ti8 2.304968 1_555
O71 Si3 1.643690 1_555
O71 Ti8 1.994887 1_555
