# generated using pymatgen
data_MgCo4(PO3)12
_symmetry_space_group_name_H-M   'P 1'
_cell_length_a   8.48782129
_cell_length_b   8.57691623
_cell_length_c   8.73214668
_cell_angle_alpha   88.85508652
_cell_angle_beta   89.51704718
_cell_angle_gamma   90.11302747
_symmetry_Int_Tables_number   1
_chemical_formula_structural   MgCo4(PO3)12
_chemical_formula_sum   'Mg1 Co4 P12 O36'
_cell_volume   635.54349922
_cell_formula_units_Z   1
loop_
 _symmetry_equiv_pos_site_id
 _symmetry_equiv_pos_as_xyz
  1  'x, y, z'
loop_
 _atom_site_type_symbol
 _atom_site_label
 _atom_site_symmetry_multiplicity
 _atom_site_fract_x
 _atom_site_fract_y
 _atom_site_fract_z
 _atom_site_occupancy
  Mg  Mg0  1  0.15115300  0.13218800  0.38613000  1
  Co  Co0  1  0.85778700  0.36743000  0.34650600  1
  Co  Co1  1  0.62852600  0.64167900  0.85113400  1
  Co  Co2  1  0.37859600  0.14579500  0.66172600  1
  Co  Co3  1  0.12863500  0.84952600  0.14432300  1
  P  P0  1  0.68560900  0.01168500  0.80646100  1
  P  P1  1  0.70192200  0.69215000  0.44907300  1
  P  P2  1  0.79698600  0.30537200  0.94376400  1
  P  P3  1  0.81708000  0.98433500  0.31056200  1
  P  P4  1  0.03059200  0.32574400  0.68092300  1
  P  P5  1  0.18611900  0.47738100  0.19476800  1
  P  P6  1  0.20674100  0.81696800  0.56418700  1
  P  P7  1  0.29801700  0.19539800  0.05238700  1
  P  P8  1  0.32098700  0.51489600  0.68232600  1
  P  P9  1  0.46601300  0.67573500  0.19049300  1
  P  P10  1  0.53130000  0.18231700  0.30712000  1
  P  P11  1  0.96595200  0.81763300  0.81495200  1
  O  O0  1  0.62932100  0.31405400  0.36030000  1
  O  O1  1  0.95663900  0.27558500  0.84356900  1
  O  O2  1  0.90548800  0.38323600  0.57548100  1
  O  O3  1  0.90756700  0.12151300  0.37454100  1
  O  O4  1  0.04577500  0.77487500  0.65470400  1
  O  O5  1  0.09160100  0.87061300  0.92181200  1
  O  O6  1  0.09229700  0.61544700  0.14491900  1
  O  O7  1  0.11554100  0.37181100  0.32011400  1
  O  O8  1  0.13239600  0.19365900  0.61944500  1
  O  O9  1  0.14553300  0.46388000  0.73739700  1
  O  O10  1  0.15912200  0.87904900  0.40702500  1
  O  O11  1  0.19198500  0.09106100  0.15247200  1
  O  O12  1  0.22454200  0.36883200  0.05073900  1
  O  O13  1  0.28013300  0.64461600  0.54963200  1
  O  O14  1  0.31317900  0.91918700  0.65352400  1
  O  O15  1  0.33356500  0.15503600  0.89219200  1
  O  O16  1  0.35922400  0.52748900  0.24806900  1
  O  O17  1  0.35826700  0.80727800  0.14360300  1
  O  O18  1  0.40015200  0.59360400  0.81503800  1
  O  O19  1  0.40148300  0.37907100  0.61151400  1
  O  O20  1  0.39526100  0.13021300  0.40954700  1
  O  O21  1  0.46136200  0.22196100  0.14086400  1
  O  O22  1  0.54374200  0.72105100  0.34964900  1
  O  O23  1  0.85992200  0.68541300  0.86518100  1
  O  O24  1  0.60311200  0.86956100  0.87466500  1
  O  O25  1  0.60969800  0.09377800  0.67321300  1
  O  O26  1  0.89649800  0.90270800  0.18047900  1
  O  O27  1  0.64316200  0.03766100  0.26207300  1
  O  O28  1  0.65362400  0.65772500  0.61084300  1
  O  O29  1  0.68883100  0.41685200  0.86025500  1
  O  O30  1  0.71804200  0.13266100  0.94106400  1
  O  O31  1  0.77723300  0.86638800  0.44910600  1
  O  O32  1  0.81280500  0.59153000  0.36098200  1
  O  O33  1  0.84572500  0.33230000  0.10487100  1
  O  O34  1  0.86171000  0.96466400  0.75743100  1
  O  O35  1  0.58970500  0.62221300  0.07965900  1
loop_
_geom_bond_atom_site_label_1
_geom_bond_atom_site_label_2
_geom_bond_distance
_geom_bond_site_symmetry_2
Mg0 O3 2.072774 1_455
Mg0 O20 2.083794 1_555
Mg0 O11 2.103529 1_555
Mg0 O8 2.119402 1_555
Mg0 O7 2.146083 1_555
Mg0 O10 2.176402 1_545
Co0 O32 1.966713 1_555
Co0 O0 1.993705 1_555
Co0 O2 2.050449 1_555
Co0 O33 2.140622 1_555
Co0 O3 2.161445 1_555
Co0 O7 2.198111 1_655
Co1 O24 1.981384 1_555
Co1 O29 1.996300 1_555
Co1 O23 2.004052 1_555
Co1 O18 2.009750 1_555
Co1 O35 2.023341 1_556
Co1 O28 2.108983 1_555
Co2 O25 2.015385 1_555
Co2 O14 2.023111 1_545
Co2 O19 2.048197 1_555
Co2 O15 2.048391 1_555
Co2 O8 2.163800 1_555
Co2 O20 2.212135 1_555
Co3 O5 1.975662 1_554
Co3 O17 1.983156 1_555
Co3 O6 2.030525 1_555
Co3 O26 2.046652 1_455
Co3 O11 2.141953 1_565
Co3 O10 2.329433 1_555
O0 P10 1.486029 1_555
O1 P4 1.598650 1_655
O1 P2 1.630146 1_555
O2 P4 1.489583 1_655
O3 P3 1.521919 1_545
O4 P11 1.599094 1_455
O4 P6 1.609401 1_555
O5 P11 1.498797 1_455
O6 P5 1.488250 1_555
O7 P5 1.524451 1_555
O8 P4 1.529254 1_555
O9 P8 1.617851 1_555
O9 P4 1.620365 1_555
O10 P6 1.520281 1_555
O11 P7 1.525419 1_555
O12 P5 1.611208 1_555
O12 P7 1.613950 1_555
O13 P6 1.612213 1_555
O13 P8 1.630180 1_555
O14 P6 1.493142 1_555
O15 P7 1.476584 1_556
O16 P5 1.605353 1_555
O16 P9 1.628884 1_555
O17 P9 1.506269 1_555
O18 P8 1.514193 1_555
O19 P8 1.493684 1_555
O20 P10 1.515761 1_555
O21 P10 1.603509 1_555
O21 P7 1.610862 1_555
O22 P9 1.598073 1_555
O22 P1 1.621770 1_555
O23 P11 1.502597 1_555
O24 P0 1.513778 1_565
O25 P0 1.498809 1_555
O26 P3 1.501850 1_555
O27 P3 1.604074 1_545
O27 P10 1.616604 1_555
O28 P1 1.491229 1_555
O29 P2 1.508507 1_555
O30 P0 1.608404 1_555
O30 P2 1.625305 1_555
O31 P3 1.595053 1_555
O31 P1 1.624244 1_555
O32 P1 1.496593 1_555
O33 P2 1.491983 1_554
O34 P0 1.605805 1_565
O34 P11 1.616175 1_555
O35 P9 1.500723 1_555
