# generated using pymatgen
data_MgV4O8
_symmetry_space_group_name_H-M   'P 1'
_cell_length_a   3.99799600
_cell_length_b   6.45030116
_cell_length_c   6.61026107
_cell_angle_alpha   104.76667017
_cell_angle_beta   90.00025570
_cell_angle_gamma   108.05555195
_symmetry_Int_Tables_number   1
_chemical_formula_structural   MgV4O8
_chemical_formula_sum   'Mg1 V4 O8'
_cell_volume   156.14015281
_cell_formula_units_Z   1
loop_
 _symmetry_equiv_pos_site_id
 _symmetry_equiv_pos_as_xyz
  1  'x, y, z'
loop_
 _atom_site_type_symbol
 _atom_site_label
 _atom_site_symmetry_multiplicity
 _atom_site_fract_x
 _atom_site_fract_y
 _atom_site_fract_z
 _atom_site_occupancy
  Mg  Mg0  1  0.17438200  0.34865600  0.01755500  1
  V  V0  1  0.29776000  0.59537000  0.70323300  1
  V  V1  1  0.71661700  0.43307600  0.33065500  1
  V  V2  1  0.40447100  0.80868500  0.29334200  1
  V  V3  1  0.59675900  0.19352100  0.69007200  1
  O  O0  1  0.34301300  0.68573700  0.99718300  1
  O  O1  1  0.64462700  0.28909500  0.00415300  1
  O  O2  1  0.23895400  0.47772100  0.34032000  1
  O  O3  1  0.75937100  0.51861100  0.64601800  1
  O  O4  1  0.44751300  0.89478500  0.62763500  1
  O  O5  1  0.56745600  0.13485000  0.36372000  1
  O  O6  1  0.12835700  0.25660700  0.71083200  1
  O  O7  1  0.86405300  0.72787000  0.30653300  1
loop_
_geom_bond_atom_site_label_1
_geom_bond_atom_site_label_2
_geom_bond_distance
_geom_bond_site_symmetry_2
Mg0 O6 1.953414 1_554
Mg0 O1 2.029644 1_455
Mg0 O1 2.029869 1_555
Mg0 O2 2.067152 1_555
Mg0 O0 2.107304 1_554
O0 V0 1.872255 1_555
O0 V2 1.899899 1_556
O1 V3 2.000378 1_554
O1 V1 2.101422 1_555
O2 V1 2.016300 1_555
O2 V1 2.016396 1_455
O2 V2 2.134017 1_555
O2 V0 2.312465 1_555
O3 V1 2.008617 1_555
O3 V0 2.065208 1_555
O3 V0 2.065249 1_655
O3 V3 2.090646 1_555
O4 V3 1.766727 1_565
O4 V0 2.028149 1_555
O4 V2 2.129849 1_555
O5 V1 1.899224 1_555
O5 V2 1.928350 1_545
O5 V3 2.089762 1_555
O6 V3 2.033522 1_555
O6 V3 2.033928 1_455
O6 V0 2.091546 1_555
O7 V1 1.856985 1_555
O7 V2 2.066953 1_555
O7 V2 2.067003 1_655
