# generated using pymatgen
data_RbGaBP2HO9
_symmetry_space_group_name_H-M   'P 1'
_cell_length_a   8.36745458
_cell_length_b   9.34892185
_cell_length_c   9.55395225
_cell_angle_alpha   77.05441417
_cell_angle_beta   90.00000000
_cell_angle_gamma   90.00000000
_symmetry_Int_Tables_number   1
_chemical_formula_structural   RbGaBP2HO9
_chemical_formula_sum   'Rb4 Ga4 B4 P8 H4 O36'
_cell_volume   728.37814767
_cell_formula_units_Z   4
loop_
 _symmetry_equiv_pos_site_id
 _symmetry_equiv_pos_as_xyz
  1  'x, y, z'
loop_
 _atom_site_type_symbol
 _atom_site_label
 _atom_site_symmetry_multiplicity
 _atom_site_fract_x
 _atom_site_fract_y
 _atom_site_fract_z
 _atom_site_occupancy
  Rb  Rb0  1  0.89338036  0.31013055  0.06030132  1
  Rb  Rb1  1  0.39338036  0.68986945  0.43969868  1
  Rb  Rb2  1  0.10661964  0.68986945  0.93969868  1
  Rb  Rb3  1  0.60661964  0.31013055  0.56030132  1
  Ga  Ga0  1  0.84511232  0.70365398  0.56541703  1
  Ga  Ga1  1  0.15488768  0.29634602  0.43458297  1
  Ga  Ga2  1  0.65488768  0.70365398  0.06541703  1
  Ga  Ga3  1  0.34511232  0.29634602  0.93458297  1
  B  B0  1  0.55534218  0.16608994  0.19807426  1
  B  B1  1  0.05534218  0.83391006  0.30192574  1
  B  B2  1  0.44465782  0.83391006  0.80192574  1
  B  B3  1  0.94465782  0.16608994  0.69807426  1
  P  P0  1  0.43764715  0.42919464  0.20846374  1
  P  P1  1  0.06235285  0.42919464  0.70846374  1
  P  P2  1  0.56235285  0.57080536  0.79153626  1
  P  P3  1  0.93764715  0.57080536  0.29153626  1
  P  P4  1  0.23629815  0.08267281  0.22246979  1
  P  P5  1  0.26370185  0.08267281  0.72246979  1
  P  P6  1  0.76370185  0.91732719  0.77753021  1
  P  P7  1  0.73629815  0.91732719  0.27753021  1
  H  H0  1  0.56759470  0.10488972  0.00171522  1
  H  H1  1  0.06759470  0.89511028  0.49828478  1
  H  H2  1  0.43240530  0.89511028  -0.00171522  1
  H  H3  1  0.93240530  0.10488972  0.50171522  1
  O  O0  1  0.33980874  0.41933817  0.07682091  1
  O  O1  1  0.83980874  0.58066183  0.42317909  1
  O  O2  1  0.66019126  0.58066183  0.92317909  1
  O  O3  1  0.16019126  0.41933817  0.57682091  1
  O  O4  1  0.12778374  0.14977982  0.31728540  1
  O  O5  1  0.62778374  0.85022018  0.18271460  1
  O  O6  1  0.15852447  0.39787796  0.84751209  1
  O  O7  1  0.87221626  0.85022018  0.68271460  1
  O  O8  1  0.95488926  0.19076141  0.53896462  1
  O  O9  1  0.45488926  0.80923859  0.96103538  1
  O  O10  1  0.04511074  0.80923859  0.46103538  1
  O  O11  1  0.54511074  0.19076141  0.03896462  1
  O  O12  1  0.92483082  0.31114585  0.72892135  1
  O  O13  1  0.42483082  0.68885415  0.77107865  1
  O  O14  1  0.07516918  0.68885415  0.27107865  1
  O  O15  1  0.57516918  0.31114585  0.22892135  1
  O  O16  1  0.29979762  0.91537457  0.75013583  1
  O  O17  1  0.79979762  0.08462543  0.74986417  1
  O  O18  1  0.70020238  0.08462543  0.24986417  1
  O  O19  1  0.20020238  0.91537457  0.25013583  1
  O  O20  1  0.28608264  0.14975570  0.56443301  1
  O  O21  1  0.78608264  0.85024430  0.93556699  1
  O  O22  1  0.71391736  0.85024430  0.43556699  1
  O  O23  1  0.21391736  0.14975570  0.06443301  1
  O  O24  1  0.01448140  0.42202968  0.30242977  1
  O  O25  1  0.51448140  0.57797032  0.19757023  1
  O  O26  1  0.98551860  0.57797032  0.69757023  1
  O  O27  1  0.48551860  0.42202968  0.80242977  1
  O  O28  1  0.08632684  0.08849957  0.76805028  1
  O  O29  1  0.58632684  0.91150043  0.73194972  1
  O  O30  1  0.91367316  0.91150043  0.23194972  1
  O  O31  1  0.41367316  0.08849957  0.26805028  1
  O  O32  1  0.34147553  0.39787796  0.34751209  1
  O  O33  1  0.84147553  0.60212204  0.15248791  1
  O  O34  1  0.65852447  0.60212204  0.65248791  1
  O  O35  1  0.37221626  0.14977982  0.81728540  1
loop_
_geom_bond_atom_site_label_1
_geom_bond_atom_site_label_2
_geom_bond_distance
_geom_bond_site_symmetry_2
Ga0 O34 1.917492 1_555
Ga0 O26 1.921019 1_555
Ga0 O22 1.964825 1_555
Ga0 O1 1.967466 1_555
Ga0 O7 1.967958 1_555
Ga0 O10 2.080471 1_655
Ga1 O32 1.917492 1_555
Ga1 O24 1.921019 1_555
Ga1 O20 1.964825 1_555
Ga1 O3 1.967466 1_555
Ga1 O4 1.967958 1_555
Ga1 O8 2.080471 1_455
Ga2 O33 1.917492 1_555
Ga2 O25 1.921019 1_555
Ga2 O21 1.964825 1_554
Ga2 O2 1.967466 1_554
Ga2 O5 1.967958 1_555
Ga2 O9 2.080471 1_554
Ga3 O6 1.917492 1_555
Ga3 O27 1.921019 1_555
Ga3 O23 1.964825 1_556
Ga3 O0 1.967466 1_556
Ga3 O35 1.967958 1_555
Ga3 O11 2.080471 1_556
B0 O18 1.457819 1_555
B0 O15 1.460308 1_555
B0 O31 1.470051 1_555
B0 O11 1.488024 1_555
B1 O19 1.457819 1_555
B1 O14 1.460308 1_555
B1 O30 1.470051 1_455
B1 O10 1.488024 1_555
B2 O16 1.457819 1_555
B2 O13 1.460308 1_555
B2 O29 1.470051 1_555
B2 O9 1.488024 1_555
B3 O17 1.457819 1_555
B3 O12 1.460308 1_555
B3 O28 1.470051 1_655
B3 O8 1.488024 1_555
H0 O11 0.966723 1_555
H1 O10 0.966723 1_555
H2 O9 0.966723 1_554
H3 O8 0.966723 1_555
O0 P0 1.520675 1_555
O0 Rb2 3.230419 1_554
O1 P3 1.520675 1_555
O1 Rb3 3.230419 1_555
O2 P2 1.520675 1_555
O2 Rb0 3.230419 1_556
O3 P1 1.520675 1_555
O3 Rb1 3.230419 1_555
O4 P4 1.514356 1_555
O4 Rb0 3.236235 1_455
O5 P7 1.514356 1_555
O5 Rb1 3.236235 1_555
O6 P1 1.524409 1_555
O6 Rb0 2.996804 1_456
O6 Rb2 3.081138 1_555
O7 P6 1.514356 1_555
O7 Rb2 3.236235 1_655
O8 Rb3 3.143411 1_555
O9 Rb2 3.143411 1_555
O10 Rb1 3.143411 1_555
O11 Rb0 3.143411 1_555
O12 P1 1.575970 1_655
O12 Rb3 3.113158 1_555
O12 Rb0 3.174801 1_556
O13 P2 1.575970 1_555
O13 Rb2 3.113158 1_555
O13 Rb1 3.174801 1_555
O14 P3 1.575970 1_455
O14 Rb1 3.113158 1_555
O14 Rb2 3.174801 1_554
O15 P0 1.575970 1_555
O15 Rb0 3.113158 1_555
O15 Rb3 3.174801 1_555
O16 P5 1.556321 1_565
O16 Rb2 2.937119 1_555
O17 P6 1.556321 1_545
O17 Rb3 2.937119 1_555
O18 P7 1.556321 1_545
O18 Rb0 2.937119 1_555
O19 P4 1.556321 1_565
O19 Rb1 2.937119 1_555
O20 P5 1.511240 1_555
O20 Rb3 3.068645 1_555
O21 P6 1.511240 1_555
O21 Rb2 3.068645 1_655
O22 P7 1.511240 1_555
O22 Rb1 3.068645 1_555
O23 P4 1.511240 1_555
O23 Rb0 3.068645 1_455
O24 P3 1.514557 1_455
O24 Rb0 2.925194 1_455
O25 P0 1.514557 1_555
O25 Rb1 2.925194 1_555
O26 P1 1.514557 1_655
O26 Rb2 2.925194 1_655
O27 P2 1.514557 1_555
O27 Rb3 2.925194 1_555
O28 P5 1.551134 1_555
O29 P6 1.551134 1_555
O30 P7 1.551134 1_555
O31 P4 1.551134 1_555
O32 P0 1.524409 1_555
O32 Rb3 2.996804 1_555
O32 Rb1 3.081138 1_555
O33 P3 1.524409 1_555
O33 Rb2 2.996804 1_654
O33 Rb0 3.081138 1_555
O34 P2 1.524409 1_555
O34 Rb1 2.996804 1_555
O34 Rb3 3.081138 1_555
O35 P5 1.514356 1_555
O35 Rb3 3.236235 1_555
