# generated using pymatgen
data_Pd7Se4
_symmetry_space_group_name_H-M   'P 1'
_cell_length_a   5.30869759
_cell_length_b   7.03737506
_cell_length_c   10.36598178
_cell_angle_alpha   90.00116383
_cell_angle_beta   89.99922099
_cell_angle_gamma   89.99989283
_symmetry_Int_Tables_number   1
_chemical_formula_structural   Pd7Se4
_chemical_formula_sum   'Pd14 Se8'
_cell_volume   387.26578181
_cell_formula_units_Z   2
loop_
 _symmetry_equiv_pos_site_id
 _symmetry_equiv_pos_as_xyz
  1  'x, y, z'
loop_
 _atom_site_type_symbol
 _atom_site_label
 _atom_site_symmetry_multiplicity
 _atom_site_fract_x
 _atom_site_fract_y
 _atom_site_fract_z
 _atom_site_occupancy
  Pd  Pd0  1  0.66127711  0.87427095  0.63246191  1
  Pd  Pd1  1  0.66129081  0.12572777  0.36748842  1
  Pd  Pd2  1  0.33873991  0.37426937  0.86751221  1
  Pd  Pd3  1  0.33868533  0.62570804  0.13252643  1
  Pd  Pd4  1  0.32282553  0.00001528  -0.00000809  1
  Pd  Pd5  1  0.67717911  0.50000611  0.49999526  1
  Pd  Pd6  1  0.00630812  0.91380990  0.22596000  1
  Pd  Pd7  1  0.00644087  0.08619411  0.77394554  1
  Pd  Pd8  1  0.99366974  0.41379102  0.27406703  1
  Pd  Pd9  1  0.99357077  0.58620236  0.72604726  1
  Pd  Pd10  1  0.35092425  0.81037646  0.41705436  1
  Pd  Pd11  1  0.35091547  0.18963348  0.58287241  1
  Pd  Pd12  1  0.64907617  0.31040021  0.08294787  1
  Pd  Pd13  1  0.64906074  0.68958644  0.91713123  1
  Se  Se0  1  0.00009110  0.00000601  0.49995106  1
  Se  Se1  1  0.99995240  0.49999078  0.00002692  1
  Se  Se2  1  0.16921048  0.50004771  0.50003052  1
  Se  Se3  1  0.83076211  0.00004350  0.99997900  1
  Se  Se4  1  0.68393501  0.67491634  0.28009429  1
  Se  Se5  1  0.68396581  0.32502056  0.71987768  1
  Se  Se6  1  0.31604574  0.17495256  0.21991489  1
  Se  Se7  1  0.31607441  0.82503204  0.78012280  1
loop_
_geom_bond_atom_site_label_1
_geom_bond_atom_site_label_2
_geom_bond_distance
_geom_bond_site_symmetry_2
Pd0 Se7 2.412726 1_555
Pd0 Se0 2.430002 1_665
Pd1 Se6 2.412339 1_555
Pd1 Se0 2.429657 1_655
Pd2 Se5 2.412646 1_555
Pd2 Se1 2.429863 1_456
Pd3 Se4 2.412295 1_555
Pd3 Se1 2.429579 1_455
Pd4 Se7 2.590780 1_544
Pd4 Se6 2.591119 1_555
Pd4 Se3 2.612216 1_454
Pd4 Se3 2.696482 1_554
Pd5 Se4 2.590870 1_555
Pd5 Se5 2.590956 1_555
Pd5 Se2 2.612046 1_655
Pd5 Se2 2.696652 1_555
Pd6 Se4 2.463762 1_455
Pd6 Se6 2.466786 1_565
Pd6 Se3 2.593115 1_464
Pd6 Se0 2.904416 1_565
Pd7 Se5 2.463665 1_455
Pd7 Se7 2.466551 1_545
Pd7 Se3 2.593701 1_455
Pd7 Se0 2.904448 1_555
Pd8 Se6 2.463530 1_655
Pd8 Se4 2.466673 1_555
Pd8 Se2 2.592957 1_655
Pd8 Se1 2.904947 1_555
Pd9 Se7 2.463793 1_655
Pd9 Se5 2.466554 1_555
Pd9 Se2 2.593453 1_655
Pd9 Se1 2.904358 1_556
Pd10 Se0 2.447032 1_565
Pd10 Se4 2.459583 1_555
Pd10 Se2 2.537691 1_555
Pd11 Se0 2.447100 1_555
Pd11 Se5 2.459835 1_555
Pd11 Se2 2.537726 1_555
Pd12 Se1 2.447168 1_555
Pd12 Se6 2.459690 1_555
Pd12 Se3 2.537746 1_554
Pd13 Se1 2.447171 1_556
Pd13 Se7 2.459789 1_555
Pd13 Se3 2.537972 1_565
