# generated using pymatgen
data_Na4Y2Zr2Si3(SO8)3
_symmetry_space_group_name_H-M   'P 1'
_cell_length_a   9.25326261
_cell_length_b   9.23568487
_cell_length_c   23.59477443
_cell_angle_alpha   90.14058123
_cell_angle_beta   89.87974769
_cell_angle_gamma   119.79840429
_symmetry_Int_Tables_number   1
_chemical_formula_structural   Na4Y2Zr2Si3(SO8)3
_chemical_formula_sum   'Na12 Y6 Zr6 Si9 S9 O72'
_cell_volume   1749.79663381
_cell_formula_units_Z   3
loop_
 _symmetry_equiv_pos_site_id
 _symmetry_equiv_pos_as_xyz
  1  'x, y, z'
loop_
 _atom_site_type_symbol
 _atom_site_label
 _atom_site_symmetry_multiplicity
 _atom_site_fract_x
 _atom_site_fract_y
 _atom_site_fract_z
 _atom_site_occupancy
  Na  Na0  1  0.98840775  0.64695049  0.25355037  1
  Na  Na1  1  0.99278665  0.35033450  0.73876838  1
  Na  Na2  1  0.65960699  0.98200108  0.59274006  1
  Na  Na3  1  0.66949413  0.69531488  0.07945621  1
  Na  Na4  1  0.33844082  0.31080473  0.90047577  1
  Na  Na5  1  0.31631477  0.01551180  0.42214475  1
  Na  Na6  1  0.01285420  0.99204067  0.50679453  1
  Na  Na7  1  0.97972985  0.97077419  0.99622484  1
  Na  Na8  1  0.64861666  0.31876574  0.81894965  1
  Na  Na9  1  0.65749016  0.34796831  0.33368680  1
  Na  Na10  1  0.32657404  0.67768555  0.17245290  1
  Na  Na11  1  0.31924396  0.66682690  0.65944673  1
  Y  Y0  1  0.99667338  0.98972706  0.35144726  1
  Y  Y1  1  0.98699810  0.98958070  0.84908837  1
  Y  Y2  1  0.65260515  0.32475953  0.68428538  1
  Y  Y3  1  0.66223821  0.33062339  0.18791615  1
  Y  Y4  1  0.32884191  0.67259179  0.01801529  1
  Y  Y5  1  0.31196827  0.65526383  0.52040753  1
  Zr  Zr0  1  0.01638056  0.02105864  0.64789013  1
  Zr  Zr1  1  0.99657132  0.97999103  0.15266873  1
  Zr  Zr2  1  0.68094233  0.35320961  0.98094581  1
  Zr  Zr3  1  0.68014572  0.33736168  0.48586663  1
  Zr  Zr4  1  0.32970379  0.66953972  0.31328343  1
  Zr  Zr5  1  0.36186553  0.67493205  0.80925843  1
  Si  Si0  1  0.29671231  0.99629634  0.25394955  1
  Si  Si1  1  0.69480219  0.70301081  0.24938893  1
  Si  Si2  1  0.29611480  0.29627808  0.75661638  1
  Si  Si3  1  0.70933570  0.00252907  0.74707538  1
  Si  Si4  1  0.96316505  0.33026907  0.58892801  1
  Si  Si5  1  0.36912609  0.03984933  0.57923401  1
  Si  Si6  1  0.96589918  0.63376572  0.08712704  1
  Si  Si7  1  0.63090950  0.66863766  0.92171802  1
  Si  Si8  1  0.02881147  0.65813211  0.41489182  1
  S  S0  1  0.00799468  0.29617498  0.24882135  1
  S  S1  1  0.00843401  0.70639411  0.75018125  1
  S  S2  1  0.67598131  0.63528089  0.58212577  1
  S  S3  1  0.67485183  0.04294301  0.08150683  1
  S  S4  1  0.36864468  0.32627312  0.08115988  1
  S  S5  1  0.03625609  0.37413827  0.91679316  1
  S  S6  1  0.34013854  0.96881546  0.91680436  1
  S  S7  1  0.62155343  0.96203772  0.41714011  1
  S  S8  1  0.34112509  0.37528859  0.41498647  1
  O  O0  1  0.21941090  0.02256123  0.31134363  1
  O  O1  1  0.82085422  0.79922548  0.30038486  1
  O  O2  1  0.98815691  0.20190283  0.30056063  1
  O  O3  1  0.21828057  0.19951813  0.81586823  1
  O  O4  1  0.98825607  0.78240895  0.80237333  1
  O  O5  1  0.81767639  0.02026352  0.80276259  1
  O  O6  1  0.79594663  0.97360450  0.69001569  1
  O  O7  1  0.16880402  0.19541734  0.70240677  1
  O  O8  1  0.02831966  0.80904234  0.69970779  1
  O  O9  1  0.78508517  0.81725330  0.18974757  1
  O  O10  1  0.02255877  0.20935504  0.19752022  1
  O  O11  1  0.16495140  0.96781529  0.19926706  1
  O  O12  1  0.88467717  0.35437315  0.64645117  1
  O  O13  1  0.48848747  0.13201124  0.63245519  1
  O  O14  1  0.65145139  0.53840743  0.63398878  1
  O  O15  1  0.87623341  0.52983052  0.14293506  1
  O  O16  1  0.65243070  0.11800659  0.13296773  1
  O  O17  1  0.47426924  0.34929204  0.13066430  1
  O  O18  1  0.45022195  0.30447244  0.02885459  1
  O  O19  1  0.83688790  0.53041519  0.03122807  1
  O  O20  1  0.68183401  0.14095883  0.03040871  1
  O  O21  1  0.45745266  0.15348863  0.52018899  1
  O  O22  1  0.69033983  0.54403361  0.53138390  1
  O  O23  1  0.83659139  0.30947062  0.53387908  1
  O  O24  1  0.54592020  0.67875195  0.98058132  1
  O  O25  1  0.13897597  0.46063420  0.96684238  1
  O  O26  1  0.31814078  0.86924857  0.96819375  1
  O  O27  1  0.55261371  0.86586721  0.46907620  1
  O  O28  1  0.33272548  0.45788040  0.46673916  1
  O  O29  1  0.15627813  0.69127405  0.46612185  1
  O  O30  1  0.12336036  0.63837068  0.35613561  1
  O  O31  1  0.51176646  0.86895403  0.36716245  1
  O  O32  1  0.35424996  0.47742936  0.36398029  1
  O  O33  1  0.10731086  0.47274879  0.86507813  1
  O  O34  1  0.35324945  0.88280752  0.86596642  1
  O  O35  1  0.50161571  0.63934454  0.86760354  1
  O  O36  1  0.01745098  0.83016797  0.41371594  1
  O  O37  1  0.79269565  0.99670205  0.40893645  1
  O  O38  1  0.18917565  0.20744891  0.41185964  1
  O  O39  1  0.02582954  0.20865816  0.91464107  1
  O  O40  1  0.19711513  0.99932444  0.91422341  1
  O  O41  1  0.81848183  0.82171707  0.91658424  1
  O  O42  1  0.95923358  0.14715073  0.58864823  1
  O  O43  1  0.18103769  0.01556750  0.58835743  1
  O  O44  1  0.83077440  0.80005468  0.58514200  1
  O  O45  1  0.96628894  0.81663159  0.08725513  1
  O  O46  1  0.83029100  0.03118529  0.08392868  1
  O  O47  1  0.20054590  0.17932331  0.08670058  1
  O  O48  1  0.69570510  0.17097483  0.74639806  1
  O  O49  1  0.48478145  0.33731347  0.74929064  1
  O  O50  1  0.86321655  0.53652535  0.74568800  1
  O  O51  1  0.68872880  0.52374570  0.24519380  1
  O  O52  1  0.86430938  0.32477789  0.24367326  1
  O  O53  1  0.48266124  0.14533723  0.24372056  1
  O  O54  1  0.63086896  0.48345367  0.92478418  1
  O  O55  1  0.86349077  0.34881296  0.92517517  1
  O  O56  1  0.49545130  0.13646960  0.92226514  1
  O  O57  1  0.62017775  0.12463017  0.41949230  1
  O  O58  1  0.48989938  0.35172430  0.41589386  1
  O  O59  1  0.84309643  0.48882017  0.42239741  1
  O  O60  1  0.35862293  0.48187450  0.07647024  1
  O  O61  1  0.15113554  0.66161339  0.07959679  1
  O  O62  1  0.53118471  0.86835202  0.07767687  1
  O  O63  1  0.36896117  0.86259098  0.57603814  1
  O  O64  1  0.53348142  0.66360951  0.57484306  1
  O  O65  1  0.15158680  0.48016103  0.58166723  1
  O  O66  1  0.29120619  0.81207405  0.25547316  1
  O  O67  1  0.50960462  0.68344944  0.25671189  1
  O  O68  1  0.16247111  0.46483694  0.25169687  1
  O  O69  1  0.28924431  0.47594348  0.75952574  1
  O  O70  1  0.16115738  0.68893862  0.75615528  1
  O  O71  1  0.52030132  0.83386727  0.75512209  1
loop_
_geom_bond_atom_site_label_1
_geom_bond_atom_site_label_2
_geom_bond_distance
_geom_bond_site_symmetry_2
Na0 O51 2.426585 1_555
Na0 O66 2.435485 1_655
Na0 O52 2.613086 1_555
Na0 O30 2.745239 1_655
Na0 O1 2.784801 1_555
Na0 O15 2.817951 1_555
Na0 O68 2.849017 1_655
Na0 O11 2.879103 1_655
Na1 O12 2.406933 1_555
Na1 O48 2.409720 1_555
Na1 O69 2.439413 1_655
Na1 O50 2.543243 1_555
Na1 O70 2.743932 1_655
Na1 O7 2.782116 1_655
Na2 O63 2.378856 1_555
Na2 O42 2.412303 1_565
Na2 O64 2.602374 1_555
Na2 O6 2.641175 1_555
Na2 O13 2.733590 1_565
Na2 O44 2.829680 1_555
Na2 O23 2.974238 1_565
Na3 O45 2.402980 1_555
Na3 O62 2.495402 1_555
Na3 O60 2.555347 1_555
Na3 O24 2.570811 1_554
Na3 O46 2.694271 1_565
Na3 O9 2.825664 1_555
Na3 O19 2.888285 1_555
Na4 O3 2.267439 1_555
Na4 O54 2.430462 1_555
Na4 O40 2.520859 1_545
Na4 O39 2.579626 1_555
Na4 O56 2.701802 1_555
Na4 O35 2.746160 1_555
Na5 O36 2.431704 1_545
Na5 O57 2.471555 1_555
Na5 O38 2.580957 1_555
Na5 O21 2.650492 1_555
Na5 O58 2.699591 1_555
Na5 O0 2.776990 1_555
Na5 O29 2.799701 1_545
Na6 O43 2.418075 1_565
Na6 O44 2.536480 1_455
Na6 O42 2.591759 1_465
Na6 O36 2.665840 1_555
Na6 O38 2.901335 1_565
Na7 O41 2.368545 1_555
Na7 O45 2.548188 1_556
Na7 O46 2.693468 1_566
Na7 O40 2.705222 1_655
Na7 O39 2.792873 1_665
Na7 O47 2.920373 1_666
Na8 O49 2.301948 1_555
Na8 O48 2.357933 1_555
Na8 O50 2.647517 1_555
Na8 O56 2.901675 1_555
Na8 O54 2.967162 1_555
Na9 O58 2.491755 1_555
Na9 O51 2.574177 1_555
Na9 O59 2.608485 1_555
Na9 O53 2.758848 1_555
Na9 O57 2.789703 1_555
Na9 O52 2.933794 1_555
Na10 O66 2.423587 1_555
Na10 O68 2.589480 1_555
Na10 O67 2.597624 1_555
Na10 O61 2.689117 1_555
Na10 O62 2.893803 1_555
Na10 O60 2.999562 1_555
Na11 O65 2.466781 1_555
Na11 O63 2.557455 1_555
Na11 O70 2.769266 1_555
Na11 O64 2.820860 1_555
Na11 O71 2.843443 1_555
Na11 O69 2.879623 1_555
O0 Si0 1.603470 1_545
O0 Y0 2.146456 1_445
O1 Si1 1.602616 1_555
O1 Y0 2.084897 1_555
O2 S0 1.458589 1_655
O2 Y0 2.335210 1_545
O3 Si2 1.622968 1_555
O3 Y1 2.197748 1_445
O4 S1 1.472855 1_655
O4 Y1 2.210832 1_555
O5 Si3 1.612303 1_555
O5 Y1 2.044465 1_545
O6 Si3 1.653089 1_565
O6 Zr0 2.108469 1_665
O7 Si2 1.673713 1_555
O7 Zr0 1.994261 1_555
O8 S1 1.477200 1_555
O8 Zr0 2.359779 1_565
O9 Si1 1.708135 1_555
O9 Zr1 1.982405 1_555
O10 S0 1.492725 1_555
O10 Zr1 2.269110 1_445
O11 Si0 1.704859 1_555
O11 Zr1 1.957293 1_455
O12 Si4 1.604436 1_555
O12 Y2 2.211908 1_555
O13 Si5 1.608562 1_555
O13 Y2 2.069044 1_555
O14 S2 1.466900 1_555
O14 Y2 2.309632 1_555
O15 Si6 1.598053 1_555
O15 Y3 2.193671 1_555
O16 S3 1.461412 1_555
O16 Y3 2.314300 1_555
O17 S4 1.470319 1_555
O17 Y3 2.277901 1_555
O18 S4 1.509754 1_555
O18 Zr2 2.252894 1_554
O19 Si6 1.715710 1_555
O19 Zr2 1.954158 1_554
O20 S3 1.491351 1_555
O20 Zr2 2.287391 1_554
O21 Si5 1.691222 1_555
O21 Zr3 2.075485 1_555
O22 S2 1.505624 1_555
O22 Zr3 2.148738 1_555
O23 Si4 1.696250 1_555
O23 Zr3 1.955574 1_555
O24 Si7 1.619857 1_555
O24 Y4 2.167344 1_556
O25 S5 1.477003 1_555
O25 Y4 2.226125 1_556
O26 S6 1.475007 1_555
O26 Y4 2.209115 1_556
O27 S7 1.461647 1_555
O27 Y5 2.429832 1_555
O28 S8 1.460451 1_555
O28 Y5 2.302014 1_555
O29 Si8 1.609757 1_555
O29 Y5 2.076703 1_555
O30 Si8 1.695005 1_555
O30 Zr4 2.048858 1_555
O31 S7 1.514486 1_555
O31 Zr4 2.181723 1_555
O32 S8 1.498029 1_555
O32 Zr4 2.245566 1_555
O33 S5 1.468867 1_555
O33 Zr5 2.529261 1_555
O34 S6 1.474793 1_555
O34 Zr5 2.370996 1_555
O35 Si7 1.678638 1_555
O35 Zr5 2.026700 1_555
O36 Si8 1.643946 1_555
O36 Y0 2.158835 1_455
O37 S7 1.463879 1_555
O37 Y0 2.348673 1_555
O38 S8 1.489590 1_555
O38 Y0 2.384271 1_445
O39 S5 1.483490 1_555
O39 Y1 2.424799 1_445
O40 S6 1.485137 1_555
O40 Y1 2.447068 1_455
O41 Si7 1.608432 1_555
O41 Y1 2.229397 1_555
O42 Si4 1.673440 1_555
O42 Zr0 2.052506 1_655
O43 Si5 1.654228 1_555
O43 Zr0 2.089142 1_555
O44 S2 1.485260 1_555
O44 Zr0 2.412364 1_665
O45 Si6 1.687097 1_555
O45 Zr1 2.075367 1_555
O46 S3 1.496473 1_555
O46 Zr1 2.441069 1_545
O47 S4 1.476600 1_555
O47 Zr1 2.433617 1_445
O48 Si3 1.622207 1_555
O48 Y2 2.213542 1_555
O49 Si2 1.600851 1_555
O49 Y2 2.223864 1_555
O50 S1 1.477391 1_655
O50 Y2 2.435521 1_555
O51 Si1 1.631205 1_555
O51 Y3 2.150075 1_555
O52 S0 1.483975 1_655
O52 Y3 2.311034 1_555
O53 Si0 1.599832 1_545
O53 Y3 2.144501 1_555
O54 Si7 1.711821 1_555
O54 Zr2 1.995478 1_555
O55 S5 1.508888 1_655
O55 Zr2 2.155250 1_555
O56 S6 1.505867 1_545
O56 Zr2 2.334853 1_555
O57 S7 1.508903 1_545
O57 Zr3 2.350670 1_555
O58 S8 1.496964 1_555
O58 Zr3 2.467335 1_555
O59 Si8 1.661017 1_655
O59 Zr3 2.092215 1_555
O60 S4 1.489743 1_555
O60 Y4 2.361507 1_555
O61 Si6 1.611350 1_455
O61 Y4 2.156481 1_555
O62 S3 1.498253 1_565
O62 Y4 2.321665 1_555
O63 Si5 1.637896 1_565
O63 Y5 2.157412 1_555
O64 S2 1.476723 1_555
O64 Y5 2.389665 1_555
O65 Si4 1.608299 1_455
O65 Y5 2.126979 1_555
O66 Si0 1.677155 1_555
O66 Zr4 2.048730 1_555
O67 Si1 1.640244 1_555
O67 Zr4 2.085250 1_555
O68 S0 1.503709 1_555
O68 Zr4 2.273468 1_555
O69 Si2 1.693048 1_555
O69 Zr5 1.992809 1_555
O70 S1 1.506767 1_555
O70 Zr5 2.298955 1_555
O71 Si3 1.677530 1_565
O71 Zr5 1.948854 1_555
