# generated using pymatgen
data_Na5Si3Sn2Ge2(PO8)3
_symmetry_space_group_name_H-M   'P 1'
_cell_length_a   8.79706282
_cell_length_b   8.79796746
_cell_length_c   22.15790504
_cell_angle_alpha   89.86182098
_cell_angle_beta   90.33078328
_cell_angle_gamma   120.00936926
_symmetry_Int_Tables_number   1
_chemical_formula_structural   Na5Si3Sn2Ge2(PO8)3
_chemical_formula_sum   'Na15 Si9 Sn6 Ge6 P9 O72'
_cell_volume   1485.01575222
_cell_formula_units_Z   3
loop_
 _symmetry_equiv_pos_site_id
 _symmetry_equiv_pos_as_xyz
  1  'x, y, z'
loop_
 _atom_site_type_symbol
 _atom_site_label
 _atom_site_symmetry_multiplicity
 _atom_site_fract_x
 _atom_site_fract_y
 _atom_site_fract_z
 _atom_site_occupancy
  Na  Na0  1  0.99987971  0.63612138  0.24989680  1
  Na  Na1  1  0.36776361  0.99734214  0.75177139  1
  Na  Na2  1  0.02941074  0.70067942  0.58071934  1
  Na  Na3  1  0.66092801  0.96314750  0.58508672  1
  Na  Na4  1  0.29626959  0.96696287  0.08004280  1
  Na  Na5  1  0.03904314  0.33770142  0.08359082  1
  Na  Na6  1  0.96617405  0.66663624  0.91803889  1
  Na  Na7  1  0.96432723  0.29761194  0.41338820  1
  Na  Na8  1  0.33493033  0.02999353  0.41793291  1
  Na  Na9  1  0.99454005  0.99109279  0.49988891  1
  Na  Na10  1  0.99517190  0.00199530  0.99738193  1
  Na  Na11  1  0.66618616  0.32843478  0.83651251  1
  Na  Na12  1  0.66203639  0.33173777  0.32991180  1
  Na  Na13  1  0.34943153  0.66407498  0.16737204  1
  Na  Na14  1  0.34007489  0.65254433  0.66969165  1
  Si  Si0  1  0.99961896  0.30011177  0.24840888  1
  Si  Si1  1  0.70908043  0.99390785  0.75503830  1
  Si  Si2  1  0.37251916  0.04469405  0.58401318  1
  Si  Si3  1  0.66362383  0.62057347  0.58514680  1
  Si  Si4  1  0.94870323  0.61558111  0.08001548  1
  Si  Si5  1  0.38940235  0.34407669  0.08213472  1
  Si  Si6  1  0.33835673  0.96008149  0.91683495  1
  Si  Si7  1  0.62180403  0.95106000  0.41445200  1
  Si  Si8  1  0.04316091  0.66672001  0.41390523  1
  Sn  Sn0  1  0.99247738  0.99579266  0.34913095  1
  Sn  Sn1  1  -0.00016088  0.00191602  0.65102089  1
  Sn  Sn2  1  0.99657560  -0.00120857  0.14677708  1
  Sn  Sn3  1  0.66836365  0.33378018  0.69028522  1
  Sn  Sn4  1  0.66559962  0.33839965  0.47843772  1
  Sn  Sn5  1  0.33854702  0.66839538  0.51924943  1
  Ge  Ge0  1  0.00423041  0.00808725  0.85474179  1
  Ge  Ge1  1  0.66859642  0.33515068  0.18353189  1
  Ge  Ge2  1  0.65375278  0.32778968  0.98034922  1
  Ge  Ge3  1  0.33132910  0.66369006  0.01832843  1
  Ge  Ge4  1  0.33079135  0.66478406  0.31357740  1
  Ge  Ge5  1  0.34268639  0.67250120  0.81702084  1
  P  P0  1  0.30461111  0.00433536  0.24932932  1
  P  P1  1  0.69593690  0.69899074  0.24852709  1
  P  P2  1  0.28609191  0.29661131  0.75555862  1
  P  P3  1  0.00363056  0.70805877  0.75575639  1
  P  P4  1  0.95951025  0.33334300  0.58321156  1
  P  P5  1  0.66143280  0.04726625  0.08104922  1
  P  P6  1  0.61816465  0.66698772  0.91755940  1
  P  P7  1  0.04828078  0.37783900  0.91622647  1
  P  P8  1  0.33521651  0.38318577  0.41279047  1
  O  O0  1  0.22222575  0.03625625  0.30617564  1
  O  O1  1  0.82254659  0.77447105  0.30367118  1
  O  O2  1  0.96232145  0.18235407  0.30906573  1
  O  O3  1  0.20077761  0.16614240  0.80888105  1
  O  O4  1  0.97659788  0.79980725  0.81071945  1
  O  O5  1  0.84277479  0.02807554  0.81103885  1
  O  O6  1  0.78030250  0.96326536  0.69086653  1
  O  O7  1  0.18040555  0.22282382  0.69643166  1
  O  O8  1  0.04504276  0.82069573  0.69705850  1
  O  O9  1  0.77867053  0.81767474  0.19276832  1
  O  O10  1  0.03640662  0.21727480  0.18836165  1
  O  O11  1  0.17877007  0.95802222  0.19364222  1
  O  O12  1  0.87961120  0.37192719  0.63846850  1
  O  O13  1  0.49657399  0.12015968  0.64393149  1
  O  O14  1  0.63549931  0.50735952  0.64536348  1
  O  O15  1  0.87019033  0.49392806  0.14086358  1
  O  O16  1  0.62389104  0.12471751  0.13835863  1
  O  O17  1  0.50684524  0.36967601  0.14252274  1
  O  O18  1  0.46623243  0.28962637  0.02430536  1
  O  O19  1  0.83127225  0.52511483  0.01922294  1
  O  O20  1  0.70381696  0.16901850  0.02554419  1
  O  O21  1  0.45247325  0.15283925  0.52147565  1
  O  O22  1  0.71719292  0.54837551  0.52598442  1
  O  O23  1  0.84792427  0.29546296  0.52481252  1
  O  O24  1  0.53377510  0.70006212  0.97358598  1
  O  O25  1  0.15916933  0.45586144  0.97536654  1
  O  O26  1  0.29173765  0.82773233  0.97612064  1
  O  O27  1  0.55346170  0.84928432  0.47830710  1
  O  O28  1  0.29330922  0.45205604  0.47047238  1
  O  O29  1  0.15609732  0.70307479  0.47619659  1
  O  O30  1  0.13303701  0.62981703  0.35514509  1
  O  O31  1  0.48840652  0.85498857  0.35782130  1
  O  O32  1  0.36178681  0.49698325  0.35713764  1
  O  O33  1  0.13669860  0.50428683  0.86214929  1
  O  O34  1  0.36650571  0.86876025  0.85677045  1
  O  O35  1  0.50252846  0.63123349  0.86066262  1
  O  O36  1  0.03694747  0.84808133  0.40864538  1
  O  O37  1  0.82130566  0.98540769  0.41132417  1
  O  O38  1  0.17232055  0.19608942  0.40810048  1
  O  O39  1  0.03083230  0.19334499  0.91026199  1
  O  O40  1  0.15329066  0.97192678  0.90950785  1
  O  O41  1  0.80766422  0.83071482  0.91181000  1
  O  O42  1  0.97278446  0.16676477  0.58915591  1
  O  O43  1  0.17774789  0.02074501  0.58967644  1
  O  O44  1  0.83723759  0.81866132  0.58894016  1
  O  O45  1  0.97877354  0.81481625  0.08617552  1
  O  O46  1  0.82871878  0.03117657  0.08666850  1
  O  O47  1  0.18963335  0.16818560  0.08716551  1
  O  O48  1  0.68174173  0.16686052  0.75206687  1
  O  O49  1  0.46817374  0.30828085  0.75129325  1
  O  O50  1  0.83774027  0.52641283  0.75098143  1
  O  O51  1  0.68443875  0.51785651  0.24155330  1
  O  O52  1  0.82392238  0.32302740  0.24104883  1
  O  O53  1  0.48490323  0.16940872  0.24091485  1
  O  O54  1  0.64382781  0.50293442  0.92271459  1
  O  O55  1  0.86498209  0.36433503  0.92116322  1
  O  O56  1  0.51573309  0.15482429  0.92385645  1
  O  O57  1  0.63523163  0.14543967  0.41678693  1
  O  O58  1  0.49752821  0.36071553  0.41639462  1
  O  O59  1  0.85347800  0.48740129  0.41645759  1
  O  O60  1  0.36270972  0.51638442  0.07405269  1
  O  O61  1  0.14911789  0.63827022  0.07430108  1
  O  O62  1  0.49415253  0.86372826  0.07419455  1
  O  O63  1  0.34808997  0.84685287  0.58146546  1
  O  O64  1  0.49138780  0.64214313  0.58120179  1
  O  O65  1  0.14015455  0.49898724  0.57797615  1
  O  O66  1  0.31590994  0.83414980  0.25569898  1
  O  O67  1  0.51638455  0.68464700  0.25773059  1
  O  O68  1  0.17487167  0.49879974  0.25557085  1
  O  O69  1  0.30180687  0.47802453  0.76358806  1
  O  O70  1  0.17080857  0.69030462  0.76145261  1
  O  O71  1  0.50933558  0.81924153  0.76053081  1
loop_
_geom_bond_atom_site_label_1
_geom_bond_atom_site_label_2
_geom_bond_distance
_geom_bond_site_symmetry_2
Na0 O68 2.388020 1_655
Na0 O52 2.399222 1_555
Na0 O51 2.433935 1_555
Na0 O66 2.435778 1_655
Na0 O30 2.616614 1_655
Na0 O15 2.694168 1_555
Na0 O1 2.694953 1_555
Na0 O11 2.756523 1_655
Na1 O70 2.380101 1_555
Na1 O48 2.394313 1_565
Na1 O49 2.418033 1_565
Na1 O71 2.447806 1_555
Na1 O34 2.582214 1_555
Na1 O13 2.637308 1_565
Na1 O8 2.738772 1_555
Na1 O3 2.859631 1_565
Na2 O44 2.393404 1_455
Na2 O65 2.414956 1_555
Na2 O63 2.430363 1_555
Na2 O43 2.448623 1_565
Na2 O29 2.571467 1_555
Na2 O22 2.664247 1_455
Na2 O8 2.764569 1_555
Na2 O12 2.815789 1_455
Na3 O63 2.410055 1_555
Na3 O42 2.413625 1_565
Na3 O64 2.448311 1_555
Na3 O44 2.449274 1_555
Na3 O27 2.556088 1_555
Na3 O6 2.562612 1_555
Na3 O13 2.779755 1_565
Na3 O23 2.869396 1_565
Na4 O62 2.335972 1_555
Na4 O47 2.388163 1_565
Na4 O45 2.423849 1_455
Na4 O61 2.511956 1_555
Na4 O26 2.601575 1_554
Na4 O11 2.712618 1_555
Na4 O18 2.752863 1_565
Na4 O16 2.804802 1_565
Na5 O61 2.326189 1_555
Na5 O46 2.389598 1_455
Na5 O47 2.441312 1_555
Na5 O60 2.480155 1_555
Na5 O10 2.544926 1_555
Na5 O25 2.620364 1_554
Na5 O15 2.788999 1_455
Na5 O20 2.853249 1_455
Na6 O55 2.345733 1_555
Na6 O40 2.353336 1_655
Na6 O54 2.458383 1_555
Na6 O41 2.461226 1_555
Na6 O19 2.554318 1_556
Na6 O4 2.630115 1_555
Na6 O26 2.788097 1_655
Na6 O33 2.827969 1_655
Na7 O59 2.318119 1_555
Na7 O37 2.381776 1_545
Na7 O38 2.407732 1_655
Na7 O57 2.510880 1_555
Na7 O2 2.522867 1_555
Na7 O23 2.674725 1_555
Na7 O28 2.802559 1_655
Na7 O30 2.841739 1_655
Na8 O36 2.296560 1_545
Na8 O57 2.308222 1_555
Na8 O38 2.512970 1_555
Na8 O58 2.519990 1_555
Na8 O21 2.523446 1_555
Na8 O0 2.672785 1_555
Na8 O29 2.809569 1_545
Na8 O31 2.842119 1_545
Na9 O44 2.454998 1_555
Na9 O37 2.462861 1_555
Na9 O43 2.483674 1_665
Na9 O36 2.510040 1_655
Na9 O42 2.579289 1_565
Na9 O38 2.651945 1_665
Na10 O41 2.465393 1_545
Na10 O39 2.474271 1_655
Na10 O40 2.489551 1_645
Na10 O45 2.520663 1_546
Na10 O47 2.548498 1_656
Na10 O46 2.556581 1_556
Na11 O48 2.398121 1_555
Na11 O56 2.413200 1_555
Na11 O55 2.467545 1_555
Na11 O49 2.507197 1_555
Na11 O50 2.508167 1_555
Na11 O54 2.522797 1_555
Na12 O57 2.459879 1_555
Na12 O52 2.460344 1_555
Na12 O59 2.461222 1_555
Na12 O53 2.471551 1_555
Na12 O51 2.493886 1_555
Na12 O58 2.496980 1_555
Na13 O67 2.429064 1_555
Na13 O68 2.465597 1_555
Na13 O60 2.478958 1_555
Na13 O66 2.572639 1_555
Na13 O62 2.597087 1_555
Na13 O61 2.640041 1_555
Na14 O64 2.403666 1_555
Na14 O71 2.492922 1_555
Na14 O69 2.505027 1_555
Na14 O63 2.571769 1_555
Na14 O65 2.577493 1_555
Na14 O70 2.644748 1_555
Ge0 O5 1.794200 1_455
Ge0 O3 1.887938 1_555
Ge0 O40 1.921026 1_545
Ge0 O39 1.962026 1_555
Ge0 O4 1.982104 1_445
Ge0 O41 2.083474 1_445
Ge1 O17 1.832699 1_555
Ge1 O15 1.877566 1_555
Ge1 O52 1.904656 1_555
Ge1 O16 1.964755 1_555
Ge1 O53 2.003014 1_555
Ge1 O51 2.009963 1_555
Ge2 O18 1.801548 1_556
Ge2 O19 1.863972 1_556
Ge2 O56 1.870903 1_555
Ge2 O20 1.936902 1_556
Ge2 O54 2.033897 1_555
Ge2 O55 2.169014 1_555
Ge3 O26 1.889826 1_554
Ge3 O60 1.904358 1_555
Ge3 O24 1.925041 1_554
Ge3 O25 1.940350 1_554
Ge3 O61 1.954635 1_555
Ge3 O62 2.037111 1_555
Ge4 O31 1.831724 1_555
Ge4 O30 1.857736 1_555
Ge4 O32 1.891611 1_555
Ge4 O68 1.910768 1_555
Ge4 O67 1.991063 1_555
Ge4 O66 2.016468 1_555
Ge5 O34 1.855904 1_555
Ge5 O71 1.871604 1_555
Ge5 O35 1.880809 1_555
Ge5 O33 1.950650 1_555
Ge5 O69 1.961625 1_555
Ge5 O70 2.010287 1_555
O0 P0 1.551307 1_555
O0 Sn0 2.102001 1_445
O1 P1 1.556555 1_555
O1 Sn0 2.030093 1_555
O2 Si0 1.626583 1_555
O2 Sn0 1.994584 1_545
O3 P2 1.555249 1_555
O4 P3 1.546422 1_655
O5 Si1 1.626234 1_545
O6 Si1 1.633452 1_555
O6 Sn1 1.996572 1_665
O7 P2 1.545502 1_555
O7 Sn1 2.053257 1_555
O8 P3 1.563491 1_555
O8 Sn1 2.088639 1_565
O9 P1 1.546109 1_555
O9 Sn2 2.052202 1_565
O10 Si0 1.628415 1_455
O10 Sn2 1.999446 1_455
O11 P0 1.565097 1_565
O11 Sn2 2.080849 1_465
O12 P4 1.535898 1_555
O12 Sn3 2.069610 1_555
O13 Si2 1.630102 1_555
O13 Sn3 2.005331 1_555
O14 Si3 1.607644 1_555
O14 Sn3 1.958955 1_555
O15 Si4 1.644613 1_555
O16 P5 1.555651 1_555
O17 Si5 1.631350 1_555
O18 Si5 1.632503 1_555
O19 Si4 1.637629 1_555
O20 P5 1.548696 1_555
O21 Si2 1.629614 1_555
O21 Sn4 2.010288 1_555
O22 Si3 1.629300 1_555
O22 Sn4 1.973283 1_555
O23 P4 1.552184 1_555
O23 Sn4 2.087180 1_555
O24 P6 1.550943 1_555
O25 P7 1.568362 1_555
O26 Si6 1.664592 1_555
O27 Si7 1.621845 1_555
O27 Sn5 1.983261 1_555
O28 P8 1.539231 1_555
O28 Sn5 2.048538 1_555
O29 Si8 1.631832 1_555
O29 Sn5 2.012458 1_555
O30 Si8 1.642083 1_555
O31 Si7 1.631579 1_555
O32 P8 1.530019 1_555
O33 P7 1.554725 1_555
O34 Si6 1.638937 1_555
O35 P6 1.546022 1_555
O36 Si8 1.627518 1_555
O36 Sn0 2.018718 1_455
O37 Si7 1.626975 1_555
O37 Sn0 2.015098 1_555
O38 P8 1.553530 1_555
O38 Sn0 2.124657 1_445
O39 P7 1.557978 1_555
O40 Si6 1.689469 1_555
O41 P6 1.571549 1_555
O42 P4 1.532612 1_555
O42 Sn1 2.090723 1_655
O43 Si2 1.623935 1_555
O43 Sn1 2.022038 1_555
O44 Si3 1.647326 1_555
O44 Sn1 2.053978 1_665
O45 Si4 1.642577 1_555
O45 Sn2 2.049887 1_565
O46 P5 1.551579 1_555
O46 Sn2 2.105204 1_555
O47 Si5 1.666331 1_555
O47 Sn2 2.082002 1_455
O48 Si1 1.656179 1_545
O48 Sn3 2.050818 1_555
O49 P2 1.556403 1_555
O49 Sn3 2.147082 1_555
O50 P3 1.536564 1_655
O50 Sn3 2.088796 1_555
O51 P1 1.553538 1_555
O52 Si0 1.662768 1_555
O53 P0 1.535424 1_555
O54 P6 1.572285 1_555
O55 P7 1.560945 1_655
O56 Si6 1.648880 1_545
O57 Si7 1.655150 1_545
O57 Sn4 2.091129 1_555
O58 P8 1.537930 1_555
O58 Sn4 2.092877 1_555
O59 Si8 1.626016 1_655
O59 Sn4 2.046099 1_555
O60 Si5 1.655178 1_555
O61 Si4 1.677700 1_455
O62 P5 1.554909 1_565
O63 Si2 1.644757 1_565
O63 Sn5 2.061524 1_555
O64 Si3 1.620309 1_555
O64 Sn5 2.008321 1_555
O65 P4 1.532120 1_455
O65 Sn5 2.091789 1_555
O66 P0 1.555427 1_565
O67 P1 1.535137 1_555
O68 Si0 1.661474 1_455
O69 P2 1.542262 1_555
O70 P3 1.559090 1_555
O71 Si1 1.662670 1_555
