# generated using pymatgen
data_Yb5Ge4
_symmetry_space_group_name_H-M   'P 1'
_cell_length_a   7.49618800
_cell_length_b   7.86745600
_cell_length_c   15.51623600
_cell_angle_alpha   90.00000000
_cell_angle_beta   90.00000000
_cell_angle_gamma   90.00000000
_symmetry_Int_Tables_number   1
_chemical_formula_structural   Yb5Ge4
_chemical_formula_sum   'Yb20 Ge16'
_cell_volume   915.08443668
_cell_formula_units_Z   4
loop_
 _symmetry_equiv_pos_site_id
 _symmetry_equiv_pos_as_xyz
  1  'x, y, z'
loop_
 _atom_site_type_symbol
 _atom_site_label
 _atom_site_symmetry_multiplicity
 _atom_site_fract_x
 _atom_site_fract_y
 _atom_site_fract_z
 _atom_site_occupancy
  Yb  Yb0  1  0.32168800  0.17684200  0.12231800  1
  Yb  Yb1  1  0.82168800  0.32315800  0.37768200  1
  Yb  Yb2  1  0.17831200  0.67684200  0.87768200  1
  Yb  Yb3  1  0.67831200  0.82315800  0.62231800  1
  Yb  Yb4  1  0.32168800  0.17684200  0.37768200  1
  Yb  Yb5  1  0.82168800  0.32315800  0.12231800  1
  Yb  Yb6  1  0.17831200  0.67684200  0.62231800  1
  Yb  Yb7  1  0.67831200  0.82315800  0.87768200  1
  Yb  Yb8  1  0.97806400  0.82089900  0.40246900  1
  Yb  Yb9  1  0.47806400  0.67910100  0.09753100  1
  Yb  Yb10  1  0.52193600  0.32089900  0.59753100  1
  Yb  Yb11  1  0.02193600  0.17910100  0.90246900  1
  Yb  Yb12  1  0.02193600  0.17910100  0.59753100  1
  Yb  Yb13  1  0.52193600  0.32089900  0.90246900  1
  Yb  Yb14  1  0.47806400  0.67910100  0.40246900  1
  Yb  Yb15  1  0.97806400  0.82089900  0.09753100  1
  Yb  Yb16  1  0.35110900  0.00837400  0.75000000  1
  Yb  Yb17  1  0.85110900  0.49162600  0.75000000  1
  Yb  Yb18  1  0.14889100  0.50837400  0.25000000  1
  Yb  Yb19  1  0.64889100  0.99162600  0.25000000  1
  Ge  Ge0  1  0.85018800  0.52595100  0.53821700  1
  Ge  Ge1  1  0.35018800  0.97404900  0.96178300  1
  Ge  Ge2  1  0.64981200  0.02595100  0.46178300  1
  Ge  Ge3  1  0.14981200  0.47404900  0.03821700  1
  Ge  Ge4  1  0.14981200  0.47404900  0.46178300  1
  Ge  Ge5  1  0.64981200  0.02595100  0.03821700  1
  Ge  Ge6  1  0.35018800  0.97404900  0.53821700  1
  Ge  Ge7  1  0.85018800  0.52595100  0.96178300  1
  Ge  Ge8  1  0.97189200  0.89764300  0.75000000  1
  Ge  Ge9  1  0.47189200  0.60235700  0.75000000  1
  Ge  Ge10  1  0.52810800  0.39764300  0.25000000  1
  Ge  Ge11  1  0.02810800  0.10235700  0.25000000  1
  Ge  Ge12  1  0.23896000  0.37242400  0.75000000  1
  Ge  Ge13  1  0.73896000  0.12757600  0.75000000  1
  Ge  Ge14  1  0.26104000  0.87242400  0.25000000  1
  Ge  Ge15  1  0.76104000  0.62757600  0.25000000  1
loop_
_geom_bond_atom_site_label_1
_geom_bond_atom_site_label_2
_geom_bond_distance
_geom_bond_site_symmetry_2
Ge0 Ge4 2.572537 1_655
Ge0 Yb1 2.965759 1_555
Ge0 Yb3 2.971587 1_555
Ge0 Yb6 3.026903 1_655
Ge0 Yb10 3.082902 1_555
Ge0 Yb12 3.154528 1_655
Ge0 Yb8 3.277201 1_555
Ge0 Yb17 3.297160 1_555
Ge0 Yb14 3.697249 1_555
Ge1 Ge5 2.572537 1_566
Ge1 Yb0 2.965759 1_566
Ge1 Yb2 2.971587 1_555
Ge1 Yb7 3.026903 1_555
Ge1 Yb11 3.082902 1_565
Ge1 Yb13 3.154528 1_565
Ge1 Yb9 3.277201 1_556
Ge1 Yb16 3.297160 1_565
Ge1 Yb15 3.697249 1_456
Ge2 Ge6 2.572537 1_545
Ge2 Yb3 2.965759 1_545
Ge2 Yb1 2.971587 1_555
Ge2 Yb4 3.026903 1_555
Ge2 Yb8 3.082902 1_545
Ge2 Yb14 3.154528 1_545
Ge2 Yb10 3.277201 1_555
Ge2 Yb19 3.297160 1_545
Ge2 Yb12 3.697249 1_655
Ge3 Ge7 2.572537 1_454
Ge3 Yb2 2.965759 1_554
Ge3 Yb0 2.971587 1_555
Ge3 Yb5 3.026903 1_455
Ge3 Yb9 3.082902 1_555
Ge3 Yb15 3.154528 1_455
Ge3 Yb11 3.277201 1_554
Ge3 Yb18 3.297160 1_555
Ge3 Yb13 3.697249 1_554
Ge4 Yb6 2.965759 1_555
Ge4 Yb4 2.971587 1_555
Ge4 Yb1 3.026903 1_455
Ge4 Yb14 3.082902 1_555
Ge4 Yb8 3.154528 1_455
Ge4 Yb12 3.277201 1_555
Ge4 Yb18 3.297160 1_555
Ge4 Yb10 3.697249 1_555
Ge5 Yb7 2.965759 1_544
Ge5 Yb5 2.971587 1_555
Ge5 Yb0 3.026903 1_555
Ge5 Yb15 3.082902 1_545
Ge5 Yb9 3.154528 1_545
Ge5 Yb13 3.277201 1_554
Ge5 Yb19 3.297160 1_545
Ge5 Yb11 3.697249 1_654
Ge6 Yb4 2.965759 1_565
Ge6 Yb6 2.971587 1_555
Ge6 Yb3 3.026903 1_555
Ge6 Yb12 3.082902 1_565
Ge6 Yb10 3.154528 1_565
Ge6 Yb14 3.277201 1_555
Ge6 Yb16 3.297160 1_565
Ge6 Yb8 3.697249 1_455
Ge7 Yb5 2.965759 1_556
Ge7 Yb7 2.971587 1_555
Ge7 Yb2 3.026903 1_655
Ge7 Yb13 3.082902 1_555
Ge7 Yb11 3.154528 1_655
Ge7 Yb15 3.277201 1_556
Ge7 Yb17 3.297160 1_555
Ge7 Yb9 3.697249 1_556
Ge8 Yb16 2.973177 1_665
Ge8 Yb3 3.018535 1_555
Ge8 Yb7 3.018535 1_555
Ge8 Yb2 3.055639 1_655
Ge8 Yb6 3.055639 1_655
Ge8 Yb12 3.262033 1_665
Ge8 Yb11 3.262033 1_665
Ge8 Yb17 3.320159 1_555
Ge9 Yb17 2.973177 1_555
Ge9 Yb2 3.018535 1_555
Ge9 Yb6 3.018535 1_555
Ge9 Yb7 3.055639 1_555
Ge9 Yb3 3.055639 1_555
Ge9 Yb10 3.262033 1_555
Ge9 Yb13 3.262033 1_555
Ge9 Yb16 3.320159 1_565
Ge10 Ge15 2.514221 1_555
Ge10 Yb18 2.973177 1_555
Ge10 Yb1 3.018535 1_555
Ge10 Yb5 3.018535 1_555
Ge10 Yb0 3.055639 1_555
Ge10 Yb4 3.055639 1_555
Ge10 Yb9 3.262033 1_555
Ge10 Yb14 3.262033 1_555
Ge10 Yb19 3.320159 1_545
Ge11 Ge14 2.514221 1_545
Ge11 Yb19 2.973177 1_445
Ge11 Yb4 3.018535 1_555
Ge11 Yb0 3.018535 1_555
Ge11 Yb5 3.055639 1_455
Ge11 Yb1 3.055639 1_455
Ge11 Yb8 3.262033 1_445
Ge11 Yb15 3.262033 1_445
Ge11 Yb18 3.320159 1_555
Ge12 Ge9 2.514221 1_555
Ge12 Yb16 2.984979 1_555
Ge12 Yb17 3.054914 1_455
Ge12 Yb2 3.141277 1_555
Ge12 Yb6 3.141277 1_555
Ge12 Yb10 3.203239 1_555
Ge12 Yb13 3.203239 1_555
Ge12 Yb11 3.249110 1_555
Ge12 Yb12 3.249110 1_555
Ge13 Ge8 2.514221 1_545
Ge13 Yb17 2.984979 1_555
Ge13 Yb16 3.054914 1_555
Ge13 Yb7 3.141277 1_545
Ge13 Yb3 3.141277 1_545
Ge13 Yb11 3.203239 1_655
Ge13 Yb12 3.203239 1_655
Ge13 Yb10 3.249110 1_555
Ge13 Yb13 3.249110 1_555
Ge14 Yb18 2.984979 1_555
Ge14 Yb19 3.054914 1_555
Ge14 Yb0 3.141277 1_565
Ge14 Yb4 3.141277 1_565
Ge14 Yb15 3.203239 1_455
Ge14 Yb8 3.203239 1_455
Ge14 Yb9 3.249110 1_555
Ge14 Yb14 3.249110 1_555
Ge15 Yb19 2.984979 1_555
Ge15 Yb18 3.054914 1_655
Ge15 Yb1 3.141277 1_555
Ge15 Yb5 3.141277 1_555
Ge15 Yb9 3.203239 1_555
Ge15 Yb14 3.203239 1_555
Ge15 Yb15 3.249110 1_555
Ge15 Yb8 3.249110 1_555
