# generated using pymatgen
data_Na6Nb4Si9Sn4(SO16)3
_symmetry_space_group_name_H-M   'P 1'
_cell_length_a   17.91090048
_cell_length_b   8.94659501
_cell_length_c   22.82937337
_cell_angle_alpha   89.92535305
_cell_angle_beta   89.74340213
_cell_angle_gamma   119.90227390
_symmetry_Int_Tables_number   1
_chemical_formula_structural   Na6Nb4Si9Sn4(SO16)3
_chemical_formula_sum   'Na18 Nb12 Si27 Sn12 S9 O144'
_cell_volume   3171.16387715
_cell_formula_units_Z   3
loop_
 _symmetry_equiv_pos_site_id
 _symmetry_equiv_pos_as_xyz
  1  'x, y, z'
loop_
 _atom_site_type_symbol
 _atom_site_label
 _atom_site_symmetry_multiplicity
 _atom_site_fract_x
 _atom_site_fract_y
 _atom_site_fract_z
 _atom_site_occupancy
  Na  Na0  1  0.00364819  0.64845845  0.24293651  1
  Na  Na1  1  0.50049164  0.62527544  0.24720463  1
  Na  Na2  1  0.99978607  0.37614969  0.74770622  1
  Na  Na3  1  0.50339973  0.36337744  0.74528813  1
  Na  Na4  1  0.33295052  0.96945263  0.58936790  1
  Na  Na5  1  0.83098323  0.69326625  0.08153242  1
  Na  Na6  1  0.99719109  0.01206395  0.50381143  1
  Na  Na7  1  0.50524234  0.99978345  0.50464870  1
  Na  Na8  1  0.00462232  0.01025703  0.99963502  1
  Na  Na9  1  0.49835137  0.98487145  0.99588751  1
  Na  Na10  1  0.32736920  0.33883194  0.82805022  1
  Na  Na11  1  0.82474806  0.33663290  0.83081292  1
  Na  Na12  1  0.32783960  0.31594413  0.33318517  1
  Na  Na13  1  0.81952644  0.31066360  0.33270756  1
  Na  Na14  1  0.17400416  0.68513936  0.16043937  1
  Na  Na15  1  0.66273455  0.65476584  0.16861880  1
  Na  Na16  1  0.16577162  0.67423032  0.67112060  1
  Na  Na17  1  0.66628465  0.66080919  0.66797565  1
  Nb  Nb0  1  0.00132740  0.00155601  0.35533509  1
  Nb  Nb1  1  0.50435712  0.00971204  0.35622940  1
  Nb  Nb2  1  0.00279356  0.99777817  0.85552579  1
  Nb  Nb3  1  0.50019701  0.98460164  0.85080031  1
  Nb  Nb4  1  0.00591401  0.99601096  0.63999891  1
  Nb  Nb5  1  0.50598644  0.01608449  0.13874992  1
  Nb  Nb6  1  0.33352241  0.34616145  0.98583574  1
  Nb  Nb7  1  0.83194314  0.34246021  0.97280130  1
  Nb  Nb8  1  0.33313827  0.32547449  0.47511129  1
  Nb  Nb9  1  0.83248411  0.31946954  0.48668058  1
  Nb  Nb10  1  0.16830042  0.65045618  0.02327428  1
  Nb  Nb11  1  0.66821123  0.68571911  0.52451213  1
  Si  Si0  1  0.14887088  0.99838053  0.25259843  1
  Si  Si1  1  0.64596683  0.00564005  0.24701018  1
  Si  Si2  1  0.85455273  0.71431903  0.24905539  1
  Si  Si3  1  0.49918088  0.28918044  0.25004373  1
  Si  Si4  1  0.14432800  0.28511625  0.74728769  1
  Si  Si5  1  0.64870606  0.29614525  0.75237373  1
  Si  Si6  1  0.99894017  0.70799712  0.75036058  1
  Si  Si7  1  0.50153773  0.70770321  0.74609527  1
  Si  Si8  1  0.35416509  0.99221203  0.74922210  1
  Si  Si9  1  0.47827215  0.33369150  0.58385313  1
  Si  Si10  1  0.98047729  0.33729809  0.58922752  1
  Si  Si11  1  0.19297040  0.04489532  0.58198652  1
  Si  Si12  1  0.68528273  0.04695099  0.58919735  1
  Si  Si13  1  0.83266708  0.62291605  0.58113911  1
  Si  Si14  1  0.48055313  0.62337734  0.08908940  1
  Si  Si15  1  0.97723862  0.61497252  0.08379454  1
  Si  Si16  1  0.33155720  0.04112353  0.08150414  1
  Si  Si17  1  0.18667260  0.32512874  0.08917226  1
  Si  Si18  1  0.69041211  0.34212185  0.08012927  1
  Si  Si19  1  0.31181098  0.66680024  0.91508894  1
  Si  Si20  1  0.81055765  0.67524005  0.91742836  1
  Si  Si21  1  0.02431847  0.37981356  0.91431883  1
  Si  Si22  1  0.66564825  0.95632479  0.91676256  1
  Si  Si23  1  0.31354214  0.95379855  0.41884310  1
  Si  Si24  1  0.80972172  0.95776159  0.41455388  1
  Si  Si25  1  0.16710619  0.38036118  0.41584244  1
  Si  Si26  1  0.52457038  0.66790374  0.41423342  1
  Sn  Sn0  1  0.50670090  0.01586486  0.65007025  1
  Sn  Sn1  1  0.00482560  0.98472429  0.14653175  1
  Sn  Sn2  1  0.33449660  0.32391572  0.69035450  1
  Sn  Sn3  1  0.82936327  0.34553658  0.68676010  1
  Sn  Sn4  1  0.33040938  0.31262437  0.18651937  1
  Sn  Sn5  1  0.82908855  0.34585287  0.18647081  1
  Sn  Sn6  1  0.66314946  0.67078768  0.01856122  1
  Sn  Sn7  1  0.16570956  0.65815767  0.52091277  1
  Sn  Sn8  1  0.17569866  0.67820714  0.31702874  1
  Sn  Sn9  1  0.66725533  0.67541746  0.30975823  1
  Sn  Sn10  1  0.16779477  0.65846441  0.80997945  1
  Sn  Sn11  1  0.66881982  0.67457576  0.81434915  1
  S  S0  1  0.35611151  0.71449072  0.24980634  1
  S  S1  1  0.00127703  0.29125581  0.25010299  1
  S  S2  1  0.85744034  0.99863947  0.74953178  1
  S  S3  1  0.33366224  0.62026900  0.58347730  1
  S  S4  1  0.83475519  0.04741963  0.08490605  1
  S  S5  1  0.51651413  0.36855399  0.91675061  1
  S  S6  1  0.16927867  0.95828167  0.91705558  1
  S  S7  1  0.66968305  0.38075799  0.41658932  1
  S  S8  1  0.01819207  0.66351528  0.41553699  1
  O  O0  1  0.09670575  0.01641264  0.30953198  1
  O  O1  1  0.59637883  0.02651562  0.30552190  1
  O  O2  1  0.40609494  0.79977642  0.30390258  1
  O  O3  1  0.92057663  0.82224451  0.30325698  1
  O  O4  1  0.48800446  0.16800241  0.30805555  1
  O  O5  1  0.99252697  0.18686049  0.30332447  1
  O  O6  1  0.09284119  0.16555291  0.80564271  1
  O  O7  1  0.59651971  0.17062332  0.80870146  1
  O  O8  1  0.48958018  0.80050986  0.80575492  1
  O  O9  1  0.98760623  0.80697929  0.80822656  1
  O  O10  1  0.41869060  0.01675869  0.80415028  1
  O  O11  1  0.90877611  0.01628661  0.80339920  1
  O  O12  1  0.39305252  0.96548263  0.68715438  1
  O  O13  1  0.89889828  0.98029108  0.69616664  1
  O  O14  1  0.08094275  0.18455610  0.69141725  1
  O  O15  1  0.58805773  0.22882939  0.69380302  1
  O  O16  1  0.00494935  0.82490966  0.69262849  1
  O  O17  1  0.51951447  0.82812355  0.68903446  1
  O  O18  1  0.39622522  0.81572851  0.19668173  1
  O  O19  1  0.89435262  0.82479750  0.18809614  1
  O  O20  1  0.01438761  0.21314732  0.19672908  1
  O  O21  1  0.50513951  0.18474385  0.19259403  1
  O  O22  1  0.08616735  0.94593699  0.19512142  1
  O  O23  1  0.58366899  0.98248499  0.19123445  1
  O  O24  1  0.44416226  0.37299354  0.64506473  1
  O  O25  1  0.93795609  0.36469065  0.64825701  1
  O  O26  1  0.25373172  0.12514937  0.63889710  1
  O  O27  1  0.74662315  0.12799252  0.64477055  1
  O  O28  1  0.32242762  0.51974357  0.63717752  1
  O  O29  1  0.81015814  0.51001771  0.64022915  1
  O  O30  1  0.43842727  0.51157440  0.14870839  1
  O  O31  1  0.94282269  0.51039208  0.14695103  1
  O  O32  1  0.30810627  0.10599121  0.14139394  1
  O  O33  1  0.82334344  0.12725639  0.13952974  1
  O  O34  1  0.24574093  0.36329548  0.14627772  1
  O  O35  1  0.74963244  0.38990999  0.13907952  1
  O  O36  1  0.23444753  0.30233976  0.03007418  1
  O  O37  1  0.73584965  0.30798980  0.02425141  1
  O  O38  1  0.41767609  0.52685310  0.03118737  1
  O  O39  1  0.91042755  0.51013733  0.03100547  1
  O  O40  1  0.34746887  0.16753503  0.02497509  1
  O  O41  1  0.84283760  0.14683720  0.03193912  1
  O  O42  1  0.23571902  0.16517963  0.52397508  1
  O  O43  1  0.73544428  0.16463859  0.52919375  1
  O  O44  1  0.33993829  0.53524189  0.52981308  1
  O  O45  1  0.84789419  0.52773233  0.52360652  1
  O  O46  1  0.41226601  0.30894069  0.52937109  1
  O  O47  1  0.91781215  0.30870439  0.53063831  1
  O  O48  1  0.26325901  0.68711317  0.97358150  1
  O  O49  1  0.77328055  0.70611070  0.97880448  1
  O  O50  1  0.08609392  0.47716287  0.97067882  1
  O  O51  1  0.57065406  0.45046474  0.96937359  1
  O  O52  1  0.15567576  0.85219139  0.96947899  1
  O  O53  1  0.64318998  0.83678792  0.97519254  1
  O  O54  1  0.27301259  0.83924982  0.47764517  1
  O  O55  1  0.76560761  0.84037067  0.47275312  1
  O  O56  1  0.14209877  0.45570641  0.47226949  1
  O  O57  1  0.65622566  0.45910391  0.46862368  1
  O  O58  1  0.07188996  0.68965048  0.46699643  1
  O  O59  1  0.58755203  0.69753857  0.46975997  1
  O  O60  1  0.05644768  0.64013840  0.36039689  1
  O  O61  1  0.55795586  0.62432235  0.35362396  1
  O  O62  1  0.25489943  0.88416514  0.36042436  1
  O  O63  1  0.75194682  0.87955204  0.35648022  1
  O  O64  1  0.18209912  0.49063708  0.35535344  1
  O  O65  1  0.68126722  0.47846160  0.36200575  1
  O  O66  1  0.05828576  0.49198833  0.85437775  1
  O  O67  1  0.55457682  0.47215916  0.86259367  1
  O  O68  1  0.18080747  0.88347985  0.86289835  1
  O  O69  1  0.68545128  0.87810229  0.85870155  1
  O  O70  1  0.25165330  0.62461097  0.85818720  1
  O  O71  1  0.75065115  0.63501528  0.86101870  1
  O  O72  1  0.00894535  0.82120564  0.41119132  1
  O  O73  1  0.51551792  0.84231419  0.40685584  1
  O  O74  1  0.40982730  0.97600508  0.40916451  1
  O  O75  1  0.90743987  0.98065352  0.40648014  1
  O  O76  1  0.08217983  0.18570492  0.40596815  1
  O  O77  1  0.59030859  0.20175657  0.41213790  1
  O  O78  1  0.01529636  0.18782078  0.90841731  1
  O  O79  1  0.50659603  0.19494625  0.91213137  1
  O  O80  1  0.08949323  0.97756008  0.91280640  1
  O  O81  1  0.58245573  0.98465106  0.90970868  1
  O  O82  1  0.40716809  0.83939361  0.91110262  1
  O  O83  1  0.90787363  0.84332074  0.90877457  1
  O  O84  1  0.47822046  0.14956855  0.58515938  1
  O  O85  1  0.98587996  0.15981736  0.59113348  1
  O  O86  1  0.09641486  0.02370513  0.58780660  1
  O  O87  1  0.59095328  0.02820838  0.58697093  1
  O  O88  1  0.41093951  0.79576290  0.58501069  1
  O  O89  1  0.91845847  0.81398649  0.58736854  1
  O  O90  1  0.48595449  0.81185722  0.09224112  1
  O  O91  1  0.97683500  0.79994626  0.08454386  1
  O  O92  1  0.41745759  0.02153115  0.08893712  1
  O  O93  1  0.91341209  0.02941877  0.08863652  1
  O  O94  1  0.08905645  0.15891663  0.09015055  1
  O  O95  1  0.59491588  0.16953386  0.08637023  1
  O  O96  1  0.35480906  0.17635842  0.75001394  1
  O  O97  1  0.85253179  0.15992627  0.74830921  1
  O  O98  1  0.23815120  0.30224175  0.74464497  1
  O  O99  1  0.74058129  0.30080089  0.75021402  1
  O  O100  1  0.41533869  0.51714142  0.74608468  1
  O  O101  1  0.91551011  0.51250413  0.74849104  1
  O  O102  1  0.35017077  0.54309998  0.24885391  1
  O  O103  1  0.85778146  0.53223331  0.24902974  1
  O  O104  1  0.41575314  0.31873564  0.24851010  1
  O  O105  1  0.92217517  0.30533598  0.24791361  1
  O  O106  1  0.24097266  0.17296490  0.25034431  1
  O  O107  1  0.74295101  0.17404174  0.24400076  1
  O  O108  1  0.32454814  0.49601286  0.92606135  1
  O  O109  1  0.82437249  0.50449995  0.92230675  1
  O  O110  1  0.42989990  0.35273593  0.92338827  1
  O  O111  1  0.92826093  0.35244189  0.92845507  1
  O  O112  1  0.24494031  0.13558168  0.92293840  1
  O  O113  1  0.75295576  0.14649264  0.92540161  1
  O  O114  1  0.32692564  0.14965295  0.42389667  1
  O  O115  1  0.82482608  0.15546487  0.42405581  1
  O  O116  1  0.25231445  0.36094228  0.42380741  1
  O  O117  1  0.74550701  0.35459616  0.42180894  1
  O  O118  1  0.42801568  0.50674705  0.42807134  1
  O  O119  1  0.93078605  0.51016475  0.42070128  1
  O  O120  1  0.17784048  0.49817685  0.07875362  1
  O  O121  1  0.68176806  0.51385158  0.07377940  1
  O  O122  1  0.07386646  0.64694606  0.07346089  1
  O  O123  1  0.57520349  0.64330100  0.08047429  1
  O  O124  1  0.24819028  0.85120425  0.07004178  1
  O  O125  1  0.75815486  0.86920107  0.08265292  1
  O  O126  1  0.18458277  0.85467396  0.57551365  1
  O  O127  1  0.67700216  0.85623896  0.57845155  1
  O  O128  1  0.25550828  0.64319770  0.58115037  1
  O  O129  1  0.74908050  0.64531427  0.56884878  1
  O  O130  1  0.07468681  0.50833166  0.58027138  1
  O  O131  1  0.57458722  0.49752953  0.57037354  1
  O  O132  1  0.15110889  0.81438531  0.25840181  1
  O  O133  1  0.64631725  0.82397785  0.24975588  1
  O  O134  1  0.26706109  0.69287106  0.25257967  1
  O  O135  1  0.75858298  0.68352248  0.25558367  1
  O  O136  1  0.07710369  0.46915913  0.25587478  1
  O  O137  1  0.58581340  0.47745489  0.25356567  1
  O  O138  1  0.14403586  0.46659167  0.74995791  1
  O  O139  1  0.65652001  0.48631244  0.75929633  1
  O  O140  1  0.08583948  0.69471175  0.75383412  1
  O  O141  1  0.58485726  0.67942864  0.75501047  1
  O  O142  1  0.25866027  0.82694902  0.75521321  1
  O  O143  1  0.77048911  0.84431496  0.75268442  1
loop_
_geom_bond_atom_site_label_1
_geom_bond_atom_site_label_2
_geom_bond_distance
_geom_bond_site_symmetry_2
Na0 O103 2.283427 1_455
Na0 O132 2.324778 1_555
Na0 O31 2.490203 1_455
Na0 O136 2.549090 1_555
Na0 O22 2.552495 1_555
Na0 O105 2.664044 1_455
Na0 O60 2.860583 1_555
Na0 O3 2.970064 1_455
Na1 O133 2.314673 1_555
Na1 O104 2.382218 1_555
Na1 O102 2.411701 1_555
Na1 O137 2.474260 1_555
Na1 O30 2.495521 1_555
Na1 O61 2.644409 1_555
Na2 O138 2.291180 1_655
Na2 O101 2.367009 1_555
Na2 O97 2.368784 1_555
Na2 O140 2.478127 1_655
Na2 O25 2.510257 1_555
Na2 O66 2.655008 1_655
Na3 O96 2.334805 1_555
Na3 O139 2.415511 1_555
Na3 O141 2.462610 1_555
Na3 O24 2.545677 1_555
Na3 O100 2.558060 1_555
Na3 O15 2.633866 1_555
Na3 O67 2.845778 1_555
Na4 O84 2.278781 1_565
Na4 O126 2.346040 1_555
Na4 O12 2.490610 1_555
Na4 O128 2.538900 1_555
Na4 O88 2.557177 1_555
Na4 O26 2.681866 1_565
Na4 O54 2.792884 1_555
Na4 O46 2.964602 1_565
Na5 O91 2.292559 1_555
Na5 O121 2.340572 1_555
Na5 O125 2.495320 1_555
Na5 O49 2.592449 1_554
Na5 O93 2.612857 1_565
Na5 O35 2.691767 1_555
Na5 O19 2.700359 1_555
Na5 O39 2.890357 1_555
Na6 O85 2.456170 1_555
Na6 O89 2.498650 1_545
Na6 O86 2.587038 1_655
Na6 O75 2.680235 1_545
Na6 O76 2.706041 1_655
Na6 O72 2.791911 1_645
Na7 O87 2.364581 1_565
Na7 O84 2.460366 1_565
Na7 O88 2.537716 1_555
Na7 O77 2.695029 1_565
Na7 O73 2.695541 1_555
Na7 O74 2.718390 1_555
Na8 O94 2.521058 1_556
Na8 O78 2.565491 1_555
Na8 O91 2.567805 1_446
Na8 O80 2.596823 1_545
Na8 O83 2.644978 1_445
Na8 O93 2.660271 1_456
Na9 O82 2.454235 1_555
Na9 O81 2.473120 1_555
Na9 O79 2.630907 1_565
Na9 O90 2.632106 1_556
Na9 O92 2.677194 1_566
Na9 O95 2.679497 1_566
Na10 O98 2.406981 1_555
Na10 O100 2.447165 1_555
Na10 O96 2.497890 1_555
Na10 O108 2.657937 1_555
Na10 O112 2.731891 1_555
Na10 O110 2.816706 1_555
Na11 O99 2.303380 1_555
Na11 O101 2.462730 1_555
Na11 O109 2.576150 1_555
Na11 O113 2.644779 1_555
Na11 O97 2.660510 1_555
Na11 O111 2.864030 1_555
Na12 O106 2.383691 1_555
Na12 O104 2.479963 1_555
Na12 O114 2.543540 1_555
Na12 O116 2.606174 1_555
Na12 O102 2.677513 1_555
Na12 O118 2.795770 1_555
Na13 O107 2.415801 1_555
Na13 O115 2.532108 1_555
Na13 O117 2.558762 1_555
Na13 O103 2.583109 1_555
Na13 O105 2.680578 1_555
Na13 O119 2.773296 1_555
Na14 O124 2.496197 1_555
Na14 O120 2.530169 1_555
Na14 O122 2.588259 1_555
Na14 O132 2.641608 1_555
Na14 O134 2.669148 1_555
Na14 O136 2.846799 1_555
Na15 O137 2.442208 1_555
Na15 O133 2.501116 1_555
Na15 O123 2.527082 1_555
Na15 O135 2.558609 1_555
Na15 O121 2.611966 1_555
Na15 O125 2.672837 1_555
Na16 O140 2.426342 1_555
Na16 O142 2.467658 1_555
Na16 O138 2.470973 1_555
Na16 O130 2.605789 1_555
Na16 O126 2.631641 1_555
Na16 O128 2.701107 1_555
Na17 O141 2.513941 1_555
Na17 O139 2.555420 1_555
Na17 O143 2.627556 1_555
Na17 O127 2.631241 1_555
Na17 O131 2.728620 1_555
Na17 O129 2.741399 1_555
Nb0 O3 1.945738 1_445
Nb0 O0 1.945929 1_555
Nb0 O76 1.946465 1_555
Nb0 O75 1.973423 1_445
Nb0 O5 2.107185 1_455
Nb0 O72 2.112773 1_545
Nb1 O4 1.926964 1_555
Nb1 O1 1.953108 1_555
Nb1 O74 1.972217 1_545
Nb1 O73 1.978571 1_545
Nb1 O77 2.082587 1_555
Nb1 O2 2.186562 1_545
Nb2 O9 1.923099 1_455
Nb2 O6 1.927823 1_565
Nb2 O83 1.977983 1_455
Nb2 O78 2.006765 1_565
Nb2 O80 2.109924 1_555
Nb2 O11 2.138844 1_465
Nb3 O8 1.870875 1_555
Nb3 O10 1.944229 1_565
Nb3 O7 1.946305 1_565
Nb3 O81 1.999098 1_555
Nb3 O82 2.043477 1_555
Nb3 O79 2.303961 1_565
Nb4 O86 1.920960 1_565
Nb4 O16 1.937994 1_555
Nb4 O14 1.946378 1_565
Nb4 O89 2.006961 1_455
Nb4 O85 2.011120 1_465
Nb4 O13 2.246480 1_455
Nb5 O95 1.910528 1_555
Nb5 O21 1.953351 1_555
Nb5 O23 1.973047 1_545
Nb5 O92 1.975565 1_555
Nb5 O90 1.987300 1_545
Nb5 O18 2.298712 1_545
Nb6 O38 1.883096 1_556
Nb6 O36 1.900490 1_556
Nb6 O40 1.952178 1_556
Nb6 O108 1.974190 1_555
Nb6 O110 2.211831 1_555
Nb6 O112 2.275003 1_555
Nb7 O109 1.908382 1_555
Nb7 O113 1.947280 1_555
Nb7 O111 1.959475 1_555
Nb7 O37 1.971985 1_556
Nb7 O39 1.977744 1_556
Nb7 O41 2.293589 1_556
Nb8 O114 1.919684 1_555
Nb8 O46 1.946578 1_555
Nb8 O42 1.956804 1_555
Nb8 O118 1.975466 1_555
Nb8 O116 2.010055 1_555
Nb8 O44 2.208154 1_555
Nb9 O43 1.860799 1_555
Nb9 O47 1.874111 1_555
Nb9 O45 1.936988 1_555
Nb9 O115 2.005565 1_555
Nb9 O117 2.286153 1_555
Nb9 O119 2.292180 1_555
Nb10 O48 1.926877 1_554
Nb10 O120 1.928470 1_555
Nb10 O50 1.938562 1_554
Nb10 O124 1.967084 1_555
Nb10 O122 2.025857 1_555
Nb10 O52 2.284834 1_554
Nb11 O127 1.906738 1_555
Nb11 O129 1.946119 1_555
Nb11 O59 1.956736 1_555
Nb11 O131 1.976755 1_555
Nb11 O55 1.981036 1_555
Nb11 O57 2.315111 1_555
O0 Si0 1.651760 1_545
O1 Si1 1.662364 1_555
O2 S0 1.496708 1_555
O3 Si2 1.655184 1_555
O4 Si3 1.657372 1_555
O5 S1 1.490818 1_655
O6 Si4 1.664684 1_555
O7 Si5 1.651454 1_555
O8 Si7 1.663710 1_555
O9 Si6 1.658450 1_555
O10 Si8 1.648330 1_545
O11 S2 1.499518 1_545
O12 Si8 1.645667 1_555
O12 Sn0 2.032762 1_565
O13 S2 1.475302 1_555
O14 Si4 1.650075 1_555
O15 Si5 1.641170 1_555
O15 Sn0 2.000042 1_555
O16 Si6 1.650945 1_455
O17 Si7 1.614935 1_555
O17 Sn0 2.011820 1_565
O18 S0 1.465590 1_555
O19 Si2 1.645251 1_555
O19 Sn1 2.004906 1_655
O20 S1 1.480358 1_555
O20 Sn1 2.275482 1_545
O21 Si3 1.644964 1_555
O22 Si0 1.640926 1_555
O22 Sn1 1.997753 1_555
O23 Si1 1.640808 1_565
O24 Si9 1.630181 1_555
O24 Sn2 2.059289 1_555
O25 Si10 1.622925 1_555
O25 Sn3 2.058396 1_555
O26 Si11 1.619851 1_555
O26 Sn2 2.022554 1_555
O27 Si12 1.600940 1_555
O27 Sn3 2.011195 1_555
O28 S3 1.471990 1_555
O28 Sn2 2.228095 1_555
O29 Si13 1.608754 1_555
O29 Sn3 1.978909 1_555
O30 Si14 1.630054 1_555
O30 Sn4 2.050343 1_555
O31 Si15 1.657628 1_555
O31 Sn5 2.029997 1_555
O32 Si16 1.619429 1_555
O32 Sn4 1.977564 1_555
O33 S4 1.500874 1_555
O33 Sn5 2.188500 1_555
O34 Si17 1.608976 1_555
O34 Sn4 2.011487 1_555
O35 Si18 1.637425 1_555
O35 Sn5 1.980698 1_555
O36 Si17 1.660833 1_555
O37 Si18 1.619370 1_555
O38 Si14 1.675714 1_555
O39 Si15 1.631209 1_555
O40 Si16 1.642335 1_555
O41 S4 1.463385 1_555
O42 Si11 1.632156 1_555
O43 Si12 1.683543 1_555
O44 S3 1.476035 1_555
O45 Si13 1.660099 1_555
O46 Si9 1.657284 1_555
O47 Si10 1.685916 1_555
O48 Si19 1.649304 1_555
O49 Si20 1.631516 1_555
O49 Sn6 2.043595 1_556
O50 Si21 1.641081 1_555
O51 S5 1.491574 1_555
O51 Sn6 2.158116 1_556
O52 S6 1.468474 1_555
O53 Si22 1.627092 1_555
O53 Sn6 1.960200 1_556
O54 Si23 1.620260 1_555
O54 Sn7 2.041700 1_555
O55 Si24 1.628564 1_555
O56 Si25 1.616348 1_555
O56 Sn7 1.984543 1_555
O57 S7 1.458968 1_555
O58 S8 1.465070 1_555
O58 Sn7 2.215365 1_555
O59 Si26 1.632543 1_555
O60 S8 1.494551 1_555
O60 Sn8 2.216562 1_555
O61 Si26 1.628067 1_555
O61 Sn9 2.033032 1_555
O62 Si23 1.622432 1_555
O62 Sn8 1.949421 1_555
O63 Si24 1.615827 1_555
O63 Sn9 2.007866 1_555
O64 Si25 1.637501 1_555
O64 Sn8 1.945144 1_555
O65 S7 1.474426 1_555
O65 Sn9 2.242491 1_555
O66 Si21 1.621752 1_555
O66 Sn10 2.039203 1_555
O67 S5 1.487267 1_555
O67 Sn11 2.226997 1_555
O68 S6 1.468595 1_555
O68 Sn10 2.259989 1_555
O69 Si22 1.618084 1_555
O69 Sn11 1.973888 1_555
O70 Si19 1.612213 1_555
O70 Sn10 2.006589 1_555
O71 Si20 1.602437 1_555
O71 Sn11 1.984651 1_555
O72 S8 1.503445 1_555
O73 Si26 1.655672 1_555
O74 Si23 1.648406 1_555
O75 Si24 1.666975 1_555
O76 Si25 1.661428 1_555
O77 S7 1.525724 1_555
O78 Si21 1.648862 1_555
O79 S5 1.476685 1_555
O80 S6 1.525852 1_555
O81 Si22 1.639803 1_555
O82 Si19 1.636584 1_555
O83 Si20 1.649615 1_555
O84 Si9 1.647043 1_555
O84 Sn0 2.120750 1_555
O85 Si10 1.638772 1_555
O86 Si11 1.647845 1_555
O87 Si12 1.613543 1_555
O87 Sn0 2.044123 1_555
O88 S3 1.488609 1_555
O88 Sn0 2.385039 1_565
O89 Si13 1.639256 1_555
O90 Si14 1.641863 1_555
O91 Si15 1.658611 1_555
O91 Sn1 2.042780 1_655
O92 Si16 1.642503 1_555
O93 S4 1.498401 1_555
O93 Sn1 2.293104 1_645
O94 Si17 1.635840 1_555
O94 Sn1 1.998669 1_545
O95 Si18 1.641354 1_555
O96 Si8 1.641887 1_545
O96 Sn2 2.051523 1_555
O97 S2 1.488982 1_545
O97 Sn3 2.364383 1_555
O98 Si4 1.610407 1_555
O98 Sn2 2.048940 1_555
O99 Si5 1.625727 1_555
O99 Sn3 2.032386 1_555
O100 Si7 1.632748 1_555
O100 Sn2 2.056760 1_555
O101 Si6 1.639731 1_555
O101 Sn3 2.079695 1_555
O102 S0 1.483385 1_555
O102 Sn4 2.384658 1_555
O103 Si2 1.658635 1_555
O103 Sn5 2.059767 1_555
O104 Si3 1.642669 1_555
O104 Sn4 2.068484 1_555
O105 S1 1.484658 1_655
O105 Sn5 2.345408 1_555
O106 Si0 1.610464 1_545
O106 Sn4 2.056473 1_555
O107 Si1 1.637479 1_555
O107 Sn5 2.019915 1_555
O108 Si19 1.672285 1_555
O109 Si20 1.668433 1_555
O110 S5 1.492845 1_555
O111 Si21 1.642835 1_655
O112 S6 1.493177 1_545
O113 Si22 1.652221 1_545
O114 Si23 1.650172 1_545
O115 Si24 1.665300 1_545
O116 Si25 1.630695 1_555
O117 S7 1.493874 1_555
O118 Si26 1.636221 1_555
O119 S8 1.484411 1_655
O120 Si17 1.649866 1_555
O121 Si18 1.625511 1_555
O121 Sn6 2.034117 1_555
O122 Si15 1.623371 1_455
O123 Si14 1.624820 1_555
O123 Sn6 2.032841 1_555
O124 Si16 1.630997 1_565
O125 S4 1.499001 1_565
O125 Sn6 2.281421 1_555
O126 Si11 1.639081 1_565
O126 Sn7 2.043541 1_555
O127 Si12 1.656045 1_565
O128 S3 1.513704 1_555
O128 Sn7 2.174830 1_555
O129 Si13 1.631856 1_555
O130 Si10 1.628563 1_455
O130 Sn7 2.021786 1_555
O131 Si9 1.640762 1_555
O132 Si0 1.671579 1_555
O132 Sn8 2.001422 1_555
O133 Si1 1.629522 1_565
O133 Sn9 2.068912 1_555
O134 S0 1.508918 1_555
O134 Sn8 2.150271 1_555
O135 Si2 1.605664 1_555
O135 Sn9 2.018405 1_555
O136 S1 1.497349 1_555
O136 Sn8 2.302477 1_555
O137 Si3 1.626940 1_555
O137 Sn9 2.087361 1_555
O138 Si4 1.627422 1_555
O138 Sn10 2.070856 1_555
O139 Si5 1.643971 1_555
O139 Sn11 2.025608 1_555
O140 Si6 1.621255 1_455
O140 Sn10 2.095990 1_555
O141 Si7 1.646641 1_555
O141 Sn11 2.044932 1_555
O142 Si8 1.614484 1_555
O142 Sn10 2.003734 1_555
O143 S2 1.480449 1_555
O143 Sn11 2.195046 1_555
