# generated using pymatgen
data_BaHoMg(CoO3)2
_symmetry_space_group_name_H-M   'P 1'
_cell_length_a   3.71773652
_cell_length_b   3.92880154
_cell_length_c   11.01299496
_cell_angle_alpha   90.00000000
_cell_angle_beta   90.00000000
_cell_angle_gamma   90.00000000
_symmetry_Int_Tables_number   1
_chemical_formula_structural   BaHoMg(CoO3)2
_chemical_formula_sum   'Ba1 Ho1 Mg1 Co2 O6'
_cell_volume   160.85854624
_cell_formula_units_Z   1
loop_
 _symmetry_equiv_pos_site_id
 _symmetry_equiv_pos_as_xyz
  1  'x, y, z'
loop_
 _atom_site_type_symbol
 _atom_site_label
 _atom_site_symmetry_multiplicity
 _atom_site_fract_x
 _atom_site_fract_y
 _atom_site_fract_z
 _atom_site_occupancy
  Ba  Ba0  1  0.50000000  0.50000000  0.45768074  1
  Ho  Ho0  1  0.50000000  0.50000000  0.13294860  1
  Mg  Mg0  1  0.50000000  0.50000000  0.75531794  1
  Co  Co0  1  0.00000000  0.00000000  0.65855482  1
  Co  Co1  1  0.00000000  0.00000000  0.26183711  1
  O  O0  1  0.00000000  0.00000000  0.07718189  1
  O  O1  1  0.00000000  0.00000000  0.47977689  1
  O  O2  1  0.50000000  0.00000000  0.74009445  1
  O  O3  1  0.00000000  0.50000000  0.68419078  1
  O  O4  1  0.50000000  0.00000000  0.25821438  1
  O  O5  1  0.00000000  0.50000000  0.25253541  1
loop_
_geom_bond_atom_site_label_1
_geom_bond_atom_site_label_2
_geom_bond_distance
_geom_bond_site_symmetry_2
Ba0 O1 2.715415 1_555
Ba0 O1 2.715415 1_565
Ba0 O1 2.715415 1_665
Ba0 O1 2.715415 1_655
Ba0 O5 2.925691 1_555
Ba0 O5 2.925691 1_655
Ba0 O4 2.946940 1_555
Ba0 O4 2.946940 1_565
Ba0 O3 3.110979 1_555
Ba0 O3 3.110979 1_655
Ho0 O5 2.278136 1_555
Ho0 O5 2.278136 1_655
Ho0 O4 2.400423 1_555
Ho0 O4 2.400423 1_565
Ho0 O0 2.773347 1_555
Ho0 O0 2.773347 1_655
Ho0 O0 2.773347 1_565
Ho0 O0 2.773347 1_665
Mg0 O2 1.971542 1_565
Mg0 O2 1.971542 1_555
Mg0 O3 2.017173 1_655
Mg0 O3 2.017173 1_555
Co0 O1 1.968880 1_555
Co0 O3 1.984586 1_545
Co0 O3 1.984586 1_555
Co0 O2 2.064410 1_555
Co0 O2 2.064410 1_455
Co1 O4 1.859296 1_455
Co1 O4 1.859296 1_555
Co1 O5 1.967070 1_555
Co1 O5 1.967070 1_545
Co1 O0 2.033607 1_555
Co1 O1 2.400170 1_555
