# generated using pymatgen
data_MgZn2(Bi2O5)2
_symmetry_space_group_name_H-M   'P 1'
_cell_length_a   4.48653737
_cell_length_b   5.73797155
_cell_length_c   11.07017058
_cell_angle_alpha   90.00000000
_cell_angle_beta   90.00000000
_cell_angle_gamma   112.29623575
_symmetry_Int_Tables_number   1
_chemical_formula_structural   MgZn2(Bi2O5)2
_chemical_formula_sum   'Mg1 Zn2 Bi4 O10'
_cell_volume   263.67920432
_cell_formula_units_Z   1
loop_
 _symmetry_equiv_pos_site_id
 _symmetry_equiv_pos_as_xyz
  1  'x, y, z'
loop_
 _atom_site_type_symbol
 _atom_site_label
 _atom_site_symmetry_multiplicity
 _atom_site_fract_x
 _atom_site_fract_y
 _atom_site_fract_z
 _atom_site_occupancy
  Mg  Mg0  1  0.57279799  0.96799326  0.75000000  1
  Zn  Zn0  1  0.82865316  0.59254855  0.75000000  1
  Zn  Zn1  1  0.22468925  0.37870263  0.25000000  1
  Bi  Bi0  1  0.16478716  0.30621485  0.57168541  1
  Bi  Bi1  1  0.85036946  0.73485535  0.42757741  1
  Bi  Bi2  1  0.85036946  0.73485535  0.07242259  1
  Bi  Bi3  1  0.16478716  0.30621485  0.92831459  1
  O  O0  1  0.72786007  0.54307671  0.25000000  1
  O  O1  1  0.29102045  0.58808503  0.75000000  1
  O  O2  1  0.29111994  0.63016367  0.07783219  1
  O  O3  1  0.65695879  0.28681909  0.87599435  1
  O  O4  1  0.65695879  0.28681909  0.62400565  1
  O  O5  1  0.29111994  0.63016367  0.42216681  1
  O  O6  1  0.90596672  0.89375003  0.62838907  1
  O  O7  1  0.06610398  0.12341242  0.38585512  1
  O  O8  1  0.90596672  0.89375003  0.87161093  1
  O  O9  1  0.06610398  0.12341242  0.11414588  1
loop_
_geom_bond_atom_site_label_1
_geom_bond_atom_site_label_2
_geom_bond_distance
_geom_bond_site_symmetry_2
Mg0 O1 2.063754 1_555
Mg0 O8 2.170579 1_555
Mg0 O6 2.170579 1_555
Mg0 O4 2.215985 1_565
Mg0 O3 2.215985 1_565
Bi0 O7 2.275044 1_555
Bi0 O6 2.293124 1_445
Bi0 O4 2.312253 1_455
Bi0 O4 2.325991 1_555
Bi0 O5 2.390955 1_555
Bi0 O1 2.477526 1_555
Bi1 O7 2.117432 1_665
Bi1 O0 2.217770 1_555
Bi1 O5 2.275102 1_655
Bi1 O5 2.348682 1_555
Bi1 O6 2.379648 1_555
Bi2 O9 2.117434 1_665
Bi2 O0 2.217770 1_555
Bi2 O2 2.275102 1_655
Bi2 O2 2.348682 1_555
Bi2 O8 2.379648 1_554
Bi3 O9 2.275054 1_556
Bi3 O8 2.293124 1_445
Bi3 O3 2.312253 1_455
Bi3 O3 2.325991 1_555
Bi3 O2 2.390948 1_556
Bi3 O1 2.477526 1_555
O0 Zn1 2.090511 1_555
O1 Zn0 2.084280 1_455
O1 Zn0 2.402509 1_555
O2 Zn1 2.340293 1_555
O3 Zn0 2.142630 1_555
O4 Zn0 2.142630 1_555
O5 Zn1 2.340284 1_555
O6 Zn0 2.113008 1_555
O7 Zn1 2.030518 1_555
O8 Zn0 2.113008 1_555
O9 Zn1 2.030510 1_555
