# generated using pymatgen
data_NaNb3GaSiP5O24
_symmetry_space_group_name_H-M   'P 1'
_cell_length_a   8.74113710
_cell_length_b   8.74397732
_cell_length_c   22.68780742
_cell_angle_alpha   89.75352298
_cell_angle_beta   90.12394467
_cell_angle_gamma   120.01944366
_symmetry_Int_Tables_number   1
_chemical_formula_structural   NaNb3GaSiP5O24
_chemical_formula_sum   'Na3 Nb9 Ga3 Si3 P15 O72'
_cell_volume   1501.45033451
_cell_formula_units_Z   3
loop_
 _symmetry_equiv_pos_site_id
 _symmetry_equiv_pos_as_xyz
  1  'x, y, z'
loop_
 _atom_site_type_symbol
 _atom_site_label
 _atom_site_symmetry_multiplicity
 _atom_site_fract_x
 _atom_site_fract_y
 _atom_site_fract_z
 _atom_site_occupancy
  Na  Na0  1  0.00108630  0.00026958  0.99243837  1
  Na  Na1  1  0.66492444  0.33228447  0.83985785  1
  Na  Na2  1  0.66696660  0.33351219  0.33867985  1
  Nb  Nb0  1  0.99363300  0.99776623  0.36044256  1
  Nb  Nb1  1  0.00366732  0.00535107  0.64332358  1
  Nb  Nb2  1  0.99728398  0.00197870  0.14380303  1
  Nb  Nb3  1  0.66470213  0.33393064  0.69009663  1
  Nb  Nb4  1  0.66845126  0.33565085  0.18826684  1
  Nb  Nb5  1  0.33365601  0.66667859  0.02032631  1
  Nb  Nb6  1  0.33298248  0.66594094  0.52463579  1
  Nb  Nb7  1  0.33283548  0.66488162  0.30949624  1
  Nb  Nb8  1  0.33333108  0.66478456  0.81071007  1
  Ga  Ga0  1  0.00366087  0.00106502  0.85502656  1
  Ga  Ga1  1  0.66600906  0.33321316  0.97781531  1
  Ga  Ga2  1  0.66704857  0.33437314  0.48005221  1
  Si  Si0  1  0.71712322  0.71539321  0.25108425  1
  Si  Si1  1  0.99787003  0.28235208  0.25070029  1
  Si  Si2  1  0.27896178  0.27880941  0.75375459  1
  P  P0  1  0.28271584  0.00149738  0.25101264  1
  P  P1  1  0.99920459  0.71966443  0.75250020  1
  P  P2  1  0.72042852  0.00070308  0.75230694  1
  P  P3  1  0.94456174  0.33109983  0.58072426  1
  P  P4  1  0.38577761  0.05384117  0.58078590  1
  P  P5  1  0.67007379  0.61550731  0.58064010  1
  P  P6  1  0.94977694  0.61703920  0.07962585  1
  P  P7  1  0.66626979  0.05119329  0.07988169  1
  P  P8  1  0.38397194  0.33210086  0.07960836  1
  P  P9  1  0.62915324  0.66762402  0.91626801  1
  P  P10  1  0.03750782  0.37202276  0.91672908  1
  P  P11  1  0.33359453  0.96168447  0.91635861  1
  P  P12  1  0.61544454  0.96040212  0.41818301  1
  P  P13  1  0.34300532  0.38234629  0.41807487  1
  P  P14  1  0.04061145  0.65764564  0.41798436  1
  O  O0  1  0.20219175  0.03444726  0.30597585  1
  O  O1  1  0.83992289  0.80261072  0.30885080  1
  O  O2  1  0.96795812  0.16098744  0.30851921  1
  O  O3  1  0.20219464  0.15859607  0.81053080  1
  O  O4  1  0.95591489  0.78926933  0.80690453  1
  O  O5  1  0.83172210  0.03733973  0.80696898  1
  O  O6  1  0.80040520  0.97136667  0.69537281  1
  O  O7  1  0.16572157  0.19297692  0.69273394  1
  O  O8  1  0.02488919  0.82843596  0.69549277  1
  O  O9  1  0.80668041  0.83317040  0.19196518  1
  O  O10  1  0.03207754  0.19752902  0.19171637  1
  O  O11  1  0.17248655  0.97132958  0.19454222  1
  O  O12  1  0.86636034  0.36363755  0.63700542  1
  O  O13  1  0.49890377  0.13482989  0.63699336  1
  O  O14  1  0.63627624  0.50037582  0.63680347  1
  O  O15  1  0.86511782  0.50531536  0.13686575  1
  O  O16  1  0.64032085  0.13330246  0.13694693  1
  O  O17  1  0.49346377  0.35903225  0.13681063  1
  O  O18  1  0.46480961  0.29832341  0.02611480  1
  O  O19  1  0.83371702  0.53688486  0.02628138  1
  O  O20  1  0.70301496  0.16672776  0.02610740  1
  O  O21  1  0.46231035  0.16485396  0.52627878  1
  O  O22  1  0.70164002  0.53722140  0.52637880  1
  O  O23  1  0.83506443  0.29878448  0.52605452  1
  O  O24  1  0.53292559  0.69110091  0.97137572  1
  O  O25  1  0.15890002  0.46913538  0.97162883  1
  O  O26  1  0.31201763  0.84124968  0.97173848  1
  O  O27  1  0.52976010  0.84066581  0.47277943  1
  O  O28  1  0.31014225  0.46918351  0.47233224  1
  O  O29  1  0.15955429  0.68838643  0.47264558  1
  O  O30  1  0.13154048  0.63559711  0.36289346  1
  O  O31  1  0.50410954  0.87043054  0.36280333  1
  O  O32  1  0.36545179  0.49781311  0.36282676  1
  O  O33  1  0.13346497  0.49263927  0.86219475  1
  O  O34  1  0.35877964  0.86814492  0.86210039  1
  O  O35  1  0.50837874  0.64260749  0.86187602  1
  O  O36  1  0.03138164  0.82919535  0.40965428  1
  O  O37  1  0.79832258  0.97105342  0.41056012  1
  O  O38  1  0.17449102  0.20000526  0.40881691  1
  O  O39  1  0.02623705  0.19243947  0.91268429  1
  O  O40  1  0.16183166  0.96761785  0.91358558  1
  O  O41  1  0.80813712  0.83708743  0.91082991  1
  O  O42  1  0.97015263  0.16961860  0.59154441  1
  O  O43  1  0.19748516  0.02370109  0.59227102  1
  O  O44  1  0.82755397  0.80134093  0.59302061  1
  O  O45  1  0.97701211  0.80538761  0.08940648  1
  O  O46  1  0.83090803  0.02631457  0.08859014  1
  O  O47  1  0.19656298  0.16801611  0.08881837  1
  O  O48  1  0.69641910  0.16509614  0.74102774  1
  O  O49  1  0.47959129  0.30937197  0.74103047  1
  O  O50  1  0.83895685  0.52869945  0.74102670  1
  O  O51  1  0.68809123  0.51751228  0.24231025  1
  O  O52  1  0.82351087  0.30225466  0.24220292  1
  O  O53  1  0.46924072  0.16393398  0.24199001  1
  O  O54  1  0.63832948  0.49807947  0.92256757  1
  O  O55  1  0.85904385  0.36383261  0.92270589  1
  O  O56  1  0.50241157  0.14101578  0.92298459  1
  O  O57  1  0.63993504  0.14433452  0.42391313  1
  O  O58  1  0.50568443  0.36258048  0.42366313  1
  O  O59  1  0.85721144  0.49680091  0.42385601  1
  O  O60  1  0.36158888  0.49609563  0.07294065  1
  O  O61  1  0.13512229  0.63660859  0.07324769  1
  O  O62  1  0.50370431  0.86404456  0.07327107  1
  O  O63  1  0.36275509  0.86588193  0.57321743  1
  O  O64  1  0.50375630  0.63643872  0.57294332  1
  O  O65  1  0.13382797  0.49407791  0.57296742  1
  O  O66  1  0.30429711  0.83879589  0.26034658  1
  O  O67  1  0.52539799  0.69792839  0.26095883  1
  O  O68  1  0.16658350  0.47778036  0.26079127  1
  O  O69  1  0.30799030  0.47815028  0.76048762  1
  O  O70  1  0.16356673  0.69817790  0.75995236  1
  O  O71  1  0.53176133  0.84048608  0.75987734  1
loop_
_geom_bond_atom_site_label_1
_geom_bond_atom_site_label_2
_geom_bond_distance
_geom_bond_site_symmetry_2
Na0 O40 2.381804 1_545
Na0 O39 2.398304 1_555
Na0 O41 2.431032 1_445
Na0 O47 2.712228 1_556
Na0 O46 2.716759 1_456
Na0 O45 2.720104 1_446
Na1 O56 2.445233 1_555
Na1 O55 2.451666 1_555
Na1 O54 2.457531 1_555
Na1 O49 2.712077 1_555
Na1 O50 2.767486 1_555
Na1 O48 2.770219 1_555
Na2 O57 2.472828 1_555
Na2 O58 2.478737 1_555
Na2 O59 2.484452 1_555
Na2 O51 2.660312 1_555
Na2 O52 2.670307 1_555
Na2 O53 2.728623 1_555
Nb0 O2 1.944198 1_565
Nb0 O1 1.950264 1_555
Nb0 O37 1.967033 1_555
Nb0 O36 1.999744 1_655
Nb0 O38 2.010683 1_665
Nb0 O0 2.091567 1_665
Nb1 O7 1.907466 1_555
Nb1 O42 1.983434 1_455
Nb1 O43 1.993114 1_555
Nb1 O8 2.024546 1_545
Nb1 O44 2.028955 1_445
Nb1 O6 2.029131 1_445
Nb2 O9 1.918826 1_545
Nb2 O10 1.921486 1_655
Nb2 O46 2.007222 1_555
Nb2 O11 2.035382 1_645
Nb2 O47 2.040018 1_655
Nb2 O45 2.054736 1_545
Nb3 O49 1.912573 1_555
Nb3 O50 1.992328 1_555
Nb3 O48 1.996237 1_555
Nb3 O14 1.996808 1_555
Nb3 O13 2.017099 1_555
Nb3 O12 2.043009 1_555
Nb4 O51 1.950456 1_555
Nb4 O52 1.950788 1_555
Nb4 O15 1.989494 1_555
Nb4 O17 2.011829 1_555
Nb4 O16 2.031708 1_555
Nb4 O53 2.037063 1_555
Nb5 O26 1.963288 1_554
Nb5 O25 1.976542 1_554
Nb5 O24 1.986744 1_554
Nb5 O60 2.014240 1_555
Nb5 O61 2.017951 1_555
Nb5 O62 2.018409 1_555
Nb6 O65 1.966644 1_555
Nb6 O64 1.967706 1_555
Nb6 O63 1.974630 1_555
Nb6 O29 2.003983 1_555
Nb6 O27 2.010168 1_555
Nb6 O28 2.020094 1_555
Nb7 O68 1.907659 1_555
Nb7 O67 1.909969 1_555
Nb7 O66 1.995492 1_555
Nb7 O32 2.019745 1_555
Nb7 O30 2.045717 1_555
Nb7 O31 2.062259 1_555
Nb8 O69 1.914099 1_555
Nb8 O35 2.003417 1_555
Nb8 O71 2.006478 1_555
Nb8 O70 2.009159 1_555
Nb8 O33 2.011160 1_555
Nb8 O34 2.047372 1_555
Ga0 O3 1.879335 1_555
Ga0 O5 2.003787 1_455
Ga0 O4 2.009453 1_445
Ga0 O41 2.030152 1_445
Ga0 O40 2.038507 1_545
Ga0 O39 2.058547 1_555
Ga1 O18 1.963554 1_556
Ga1 O20 1.969816 1_556
Ga1 O19 1.981754 1_556
Ga1 O56 2.005597 1_555
Ga1 O55 2.009057 1_555
Ga1 O54 2.009973 1_555
Ga2 O23 1.947030 1_555
Ga2 O22 1.954529 1_555
Ga2 O21 1.959679 1_555
Ga2 O58 2.006155 1_555
Ga2 O59 2.009258 1_555
Ga2 O57 2.015560 1_555
O0 P0 1.530766 1_555
O1 Si0 1.623235 1_555
O2 Si1 1.620859 1_555
O3 Si2 1.581387 1_555
O4 P1 1.508664 1_555
O5 P2 1.507779 1_555
O6 P2 1.552170 1_565
O7 Si2 1.649055 1_555
O8 P1 1.550748 1_455
O9 Si0 1.630469 1_555
O10 Si1 1.631720 1_455
O11 P0 1.543590 1_565
O12 P3 1.542781 1_555
O13 P4 1.551500 1_555
O14 P5 1.554796 1_555
O15 P6 1.567914 1_555
O16 P7 1.554136 1_555
O17 P8 1.558035 1_555
O18 P8 1.508343 1_555
O19 P6 1.508545 1_555
O20 P7 1.509504 1_555
O21 P4 1.504185 1_555
O22 P5 1.502651 1_555
O23 P3 1.503877 1_555
O24 P9 1.578724 1_555
O25 P10 1.581209 1_555
O26 P11 1.585596 1_555
O27 P12 1.549085 1_555
O28 P13 1.549900 1_555
O29 P14 1.552041 1_555
O30 P14 1.546234 1_555
O31 P12 1.543312 1_555
O32 P13 1.555952 1_555
O33 P10 1.566782 1_555
O34 P11 1.556534 1_555
O35 P9 1.565512 1_555
O36 P14 1.552705 1_555
O37 P12 1.563993 1_555
O38 P13 1.551630 1_555
O39 P10 1.526529 1_555
O40 P11 1.529171 1_555
O41 P9 1.529135 1_555
O42 P3 1.554616 1_555
O43 P4 1.553561 1_555
O44 P5 1.542182 1_555
O45 P6 1.558478 1_555
O46 P7 1.571334 1_555
O47 P8 1.559784 1_555
O48 P2 1.572974 1_555
O49 Si2 1.662200 1_555
O50 P1 1.574768 1_555
O51 Si0 1.631331 1_555
O52 Si1 1.629158 1_555
O53 P0 1.549002 1_555
O54 P9 1.530280 1_555
O55 P10 1.531697 1_655
O56 P11 1.531265 1_545
O57 P12 1.518730 1_545
O58 P13 1.520846 1_555
O59 P14 1.519571 1_655
O60 P8 1.547952 1_555
O61 P6 1.548693 1_455
O62 P7 1.547285 1_565
O63 P4 1.562835 1_565
O64 P5 1.562818 1_555
O65 P3 1.561706 1_455
O66 P0 1.539532 1_565
O67 Si0 1.620923 1_555
O68 Si1 1.621021 1_455
O69 Si2 1.638738 1_555
O70 P1 1.548156 1_455
O71 P2 1.548964 1_565
