# generated using pymatgen
data_MnAlGe
_symmetry_space_group_name_H-M   'P 1'
_cell_length_a   3.85817742
_cell_length_b   3.85817742
_cell_length_c   5.98518540
_cell_angle_alpha   90.00000000
_cell_angle_beta   90.00000000
_cell_angle_gamma   90.00000000
_symmetry_Int_Tables_number   1
_chemical_formula_structural   MnAlGe
_chemical_formula_sum   'Mn2 Al2 Ge2'
_cell_volume   89.09267481
_cell_formula_units_Z   2
loop_
 _symmetry_equiv_pos_site_id
 _symmetry_equiv_pos_as_xyz
  1  'x, y, z'
loop_
 _atom_site_type_symbol
 _atom_site_label
 _atom_site_symmetry_multiplicity
 _atom_site_fract_x
 _atom_site_fract_y
 _atom_site_fract_z
 _atom_site_occupancy
  Mn  Mn0  1  0.50000000  0.50000000  0.00000000  1
  Mn  Mn1  1  0.00000000  -0.00000000  0.00000000  1
  Al  Al0  1  0.00000000  0.50000000  0.70074868  1
  Al  Al1  1  0.50000000  0.00000000  0.29925132  1
  Ge  Ge0  1  0.50000000  -0.00000000  0.71738483  1
  Ge  Ge1  1  -0.00000000  0.50000000  0.28261517  1
loop_
_geom_bond_atom_site_label_1
_geom_bond_atom_site_label_2
_geom_bond_distance
_geom_bond_site_symmetry_2
Mn0 Mn1 2.728143 1_655
Mn0 Mn1 2.728143 1_555
Mn0 Mn1 2.728143 1_665
Mn0 Mn1 2.728143 1_565
Al0 Ge1 2.502607 1_555
Al0 Mn1 2.632362 1_556
Al0 Mn0 2.632362 1_456
Al0 Mn1 2.632362 1_566
Al0 Mn0 2.632362 1_556
Al0 Ge0 2.729960 1_465
Al0 Ge0 2.729960 1_555
Al0 Ge0 2.729960 1_455
Al0 Ge0 2.729960 1_565
Al1 Ge0 2.502607 1_555
Al1 Mn0 2.632362 1_545
Al1 Mn1 2.632362 1_655
Al1 Mn1 2.632362 1_555
Al1 Mn0 2.632362 1_555
Al1 Ge1 2.729960 1_655
Al1 Ge1 2.729960 1_545
Al1 Ge1 2.729960 1_645
Al1 Ge1 2.729960 1_555
Ge0 Mn0 2.565652 1_556
Ge0 Mn1 2.565652 1_656
Ge0 Mn0 2.565652 1_546
Ge0 Mn1 2.565652 1_556
Ge1 Mn1 2.565652 1_555
Ge1 Mn1 2.565652 1_565
Ge1 Mn0 2.565652 1_555
Ge1 Mn0 2.565652 1_455
