# generated using pymatgen
data_MgTe4MoW3(SeS)2
_symmetry_space_group_name_H-M   'P 1'
_cell_length_a   6.78333800
_cell_length_b   6.78346830
_cell_length_c   92.17852917
_cell_angle_alpha   90.01548962
_cell_angle_beta   90.00000000
_cell_angle_gamma   119.99935482
_symmetry_Int_Tables_number   1
_chemical_formula_structural   MgTe4MoW3(SeS)2
_chemical_formula_sum   'Mg8 Te32 Mo8 W24 Se16 S16'
_cell_volume   3673.31748208
_cell_formula_units_Z   8
loop_
 _symmetry_equiv_pos_site_id
 _symmetry_equiv_pos_as_xyz
  1  'x, y, z'
loop_
 _atom_site_type_symbol
 _atom_site_label
 _atom_site_symmetry_multiplicity
 _atom_site_fract_x
 _atom_site_fract_y
 _atom_site_fract_z
 _atom_site_occupancy
  Mg  Mg0_0  1  0.49999900  0.49999800  0.18631050  1
  Mg  Mg0_1  1  0.49999900  0.49999800  0.68631050  1
  Mg  Mg0_2  1  0.49999900  0.99999800  0.18631050  1
  Mg  Mg0_3  1  0.49999900  0.99999800  0.68631050  1
  Mg  Mg0_4  1  0.99999900  0.49999800  0.18631050  1
  Mg  Mg0_5  1  0.99999900  0.49999800  0.68631050  1
  Mg  Mg0_6  1  0.99999900  0.99999800  0.18631050  1
  Mg  Mg0_7  1  0.99999900  0.99999800  0.68631050  1
  Te  Te0_0  1  0.16670750  0.33341600  0.34931800  1
  Te  Te0_1  1  0.16670750  0.33341600  0.84931800  1
  Te  Te0_2  1  0.16670750  0.83341600  0.34931800  1
  Te  Te0_3  1  0.16670750  0.83341600  0.84931800  1
  Te  Te0_4  1  0.66670750  0.33341600  0.34931800  1
  Te  Te0_5  1  0.66670750  0.33341600  0.84931800  1
  Te  Te0_6  1  0.66670750  0.83341600  0.34931800  1
  Te  Te0_7  1  0.66670750  0.83341600  0.84931800  1
  Te  Te1_0  1  0.33327900  0.16655750  0.02662000  1
  Te  Te1_1  1  0.33327900  0.16655750  0.52662000  1
  Te  Te1_2  1  0.33327900  0.66655750  0.02662000  1
  Te  Te1_3  1  0.33327900  0.66655750  0.52662000  1
  Te  Te1_4  1  0.83327900  0.16655750  0.02662000  1
  Te  Te1_5  1  0.83327900  0.16655750  0.52662000  1
  Te  Te1_6  1  0.83327900  0.66655750  0.02662000  1
  Te  Te1_7  1  0.83327900  0.66655750  0.52662000  1
  Te  Te2_0  1  0.33336650  0.16673300  0.06734400  1
  Te  Te2_1  1  0.33336650  0.16673300  0.56734400  1
  Te  Te2_2  1  0.33336650  0.66673300  0.06734400  1
  Te  Te2_3  1  0.33336650  0.66673300  0.56734400  1
  Te  Te2_4  1  0.83336650  0.16673300  0.06734400  1
  Te  Te2_5  1  0.83336650  0.16673300  0.56734400  1
  Te  Te2_6  1  0.83336650  0.66673300  0.06734400  1
  Te  Te2_7  1  0.83336650  0.66673300  0.56734400  1
  Te  Te3_0  1  0.16666200  0.33332500  0.30839950  1
  Te  Te3_1  1  0.16666200  0.33332500  0.80839950  1
  Te  Te3_2  1  0.16666200  0.83332500  0.30839950  1
  Te  Te3_3  1  0.16666200  0.83332500  0.80839950  1
  Te  Te3_4  1  0.66666200  0.33332500  0.30839950  1
  Te  Te3_5  1  0.66666200  0.33332500  0.80839950  1
  Te  Te3_6  1  0.66666200  0.83332500  0.30839950  1
  Te  Te3_7  1  0.66666200  0.83332500  0.80839950  1
  Mo  Mo0_0  1  0.16665550  0.33331150  0.04698050  1
  Mo  Mo0_1  1  0.16665550  0.33331150  0.54698050  1
  Mo  Mo0_2  1  0.16665550  0.83331150  0.04698050  1
  Mo  Mo0_3  1  0.16665550  0.83331150  0.54698050  1
  Mo  Mo0_4  1  0.66665550  0.33331150  0.04698050  1
  Mo  Mo0_5  1  0.66665550  0.33331150  0.54698050  1
  Mo  Mo0_6  1  0.66665550  0.83331150  0.04698050  1
  Mo  Mo0_7  1  0.66665550  0.83331150  0.54698050  1
  W  W0_0  1  0.16664950  0.33329950  0.23818350  1
  W  W0_1  1  0.16664950  0.33329950  0.73818350  1
  W  W0_2  1  0.16664950  0.83329950  0.23818350  1
  W  W0_3  1  0.16664950  0.83329950  0.73818350  1
  W  W0_4  1  0.66664950  0.33329950  0.23818350  1
  W  W0_5  1  0.66664950  0.33329950  0.73818350  1
  W  W0_6  1  0.66664950  0.83329950  0.23818350  1
  W  W0_7  1  0.66664950  0.83329950  0.73818350  1
  W  W1_0  1  0.33333900  0.16667750  0.13726250  1
  W  W1_1  1  0.33333900  0.16667750  0.63726250  1
  W  W1_2  1  0.33333900  0.66667750  0.13726250  1
  W  W1_3  1  0.33333900  0.66667750  0.63726250  1
  W  W1_4  1  0.83333900  0.16667750  0.13726250  1
  W  W1_5  1  0.83333900  0.16667750  0.63726250  1
  W  W1_6  1  0.83333900  0.66667750  0.13726250  1
  W  W1_7  1  0.83333900  0.66667750  0.63726250  1
  W  W2_0  1  0.33335100  0.16670200  0.32885300  1
  W  W2_1  1  0.33335100  0.16670200  0.82885300  1
  W  W2_2  1  0.33335100  0.66670200  0.32885300  1
  W  W2_3  1  0.33335100  0.66670200  0.82885300  1
  W  W2_4  1  0.83335100  0.16670200  0.32885300  1
  W  W2_5  1  0.83335100  0.16670200  0.82885300  1
  W  W2_6  1  0.83335100  0.66670200  0.32885300  1
  W  W2_7  1  0.83335100  0.66670200  0.82885300  1
  Se  Se0_0  1  0.33323450  0.16646900  0.22007800  1
  Se  Se0_1  1  0.33323450  0.16646900  0.72007800  1
  Se  Se0_2  1  0.33323450  0.66646900  0.22007800  1
  Se  Se0_3  1  0.33323450  0.66646900  0.72007800  1
  Se  Se0_4  1  0.83323450  0.16646900  0.22007800  1
  Se  Se0_5  1  0.83323450  0.16646900  0.72007800  1
  Se  Se0_6  1  0.83323450  0.66646900  0.22007800  1
  Se  Se0_7  1  0.83323450  0.66646900  0.72007800  1
  Se  Se1_0  1  0.33341050  0.16682050  0.25615300  1
  Se  Se1_1  1  0.33341050  0.16682050  0.75615300  1
  Se  Se1_2  1  0.33341050  0.66682050  0.25615300  1
  Se  Se1_3  1  0.33341050  0.66682050  0.75615300  1
  Se  Se1_4  1  0.83341050  0.16682050  0.25615300  1
  Se  Se1_5  1  0.83341050  0.16682050  0.75615300  1
  Se  Se1_6  1  0.83341050  0.66682050  0.25615300  1
  Se  Se1_7  1  0.83341050  0.66682050  0.75615300  1
  S  S0_0  1  0.16669500  0.33339100  0.15362450  1
  S  S0_1  1  0.16669500  0.33339100  0.65362450  1
  S  S0_2  1  0.16669500  0.83339100  0.15362450  1
  S  S0_3  1  0.16669500  0.83339100  0.65362450  1
  S  S0_4  1  0.66669500  0.33339100  0.15362450  1
  S  S0_5  1  0.66669500  0.33339100  0.65362450  1
  S  S0_6  1  0.66669500  0.83339100  0.15362450  1
  S  S0_7  1  0.66669500  0.83339100  0.65362450  1
  S  S1_0  1  0.16665000  0.33330100  0.12101200  1
  S  S1_1  1  0.16665000  0.33330100  0.62101200  1
  S  S1_2  1  0.16665000  0.83330100  0.12101200  1
  S  S1_3  1  0.16665000  0.83330100  0.62101200  1
  S  S1_4  1  0.66665000  0.33330100  0.12101200  1
  S  S1_5  1  0.66665000  0.33330100  0.62101200  1
  S  S1_6  1  0.66665000  0.83330100  0.12101200  1
  S  S1_7  1  0.66665000  0.83330100  0.62101200  1
loop_
_geom_bond_atom_site_label_1
_geom_bond_atom_site_label_2
_geom_bond_distance
_geom_bond_site_symmetry_2
Mg0_0 Mg0_4 3.391669 1_555
Mg0_0 Mg0_4 3.391669 1_455
Mg0_0 Mg0_2 3.391734 1_555
Mg0_0 Mg0_2 3.391734 1_545
Mg0_0 Mg0_6 3.391735 1_445
Mg0_0 Mg0_6 3.391735 1_555
Mg0_1 Mg0_5 3.391669 1_455
Mg0_1 Mg0_5 3.391669 1_555
Mg0_1 Mg0_3 3.391734 1_555
Mg0_1 Mg0_3 3.391734 1_545
Mg0_1 Mg0_7 3.391735 1_555
Mg0_1 Mg0_7 3.391735 1_445
Mg0_2 Mg0_6 3.391669 1_555
Mg0_2 Mg0_6 3.391669 1_455
Mg0_2 Mg0_4 3.391735 1_565
Mg0_2 Mg0_4 3.391735 1_455
Mg0_3 Mg0_7 3.391669 1_455
Mg0_3 Mg0_7 3.391669 1_555
Mg0_3 Mg0_5 3.391735 1_455
Mg0_3 Mg0_5 3.391735 1_565
Mg0_4 Mg0_6 3.391734 1_555
Mg0_4 Mg0_6 3.391734 1_545
Mg0_5 Mg0_7 3.391734 1_555
Mg0_5 Mg0_7 3.391734 1_545
Te0_0 W2_4 2.718921 1_455
Te0_0 W2_0 2.718926 1_555
Te0_0 W2_2 2.719286 1_555
Te0_1 W2_5 2.718921 1_455
Te0_1 W2_1 2.718926 1_555
Te0_1 W2_3 2.719286 1_555
Te0_2 W2_6 2.718921 1_455
Te0_2 W2_2 2.718926 1_555
Te0_2 W2_0 2.719286 1_565
Te0_3 W2_7 2.718921 1_455
Te0_3 W2_3 2.718926 1_555
Te0_3 W2_1 2.719286 1_565
Te0_4 W2_0 2.718921 1_555
Te0_4 W2_4 2.718926 1_555
Te0_4 W2_6 2.719286 1_555
Te0_5 W2_1 2.718921 1_555
Te0_5 W2_5 2.718926 1_555
Te0_5 W2_7 2.719286 1_555
Te0_6 W2_2 2.718921 1_555
Te0_6 W2_6 2.718926 1_555
Te0_6 W2_4 2.719286 1_565
Te0_7 W2_3 2.718921 1_555
Te0_7 W2_7 2.718926 1_555
Te0_7 W2_5 2.719286 1_565
Te3_0 W2_2 2.718088 1_555
Te3_0 W2_4 2.718418 1_455
Te3_0 W2_0 2.718422 1_555
Te3_1 W2_3 2.718088 1_555
Te3_1 W2_5 2.718418 1_455
Te3_1 W2_1 2.718422 1_555
Te3_2 W2_0 2.718088 1_565
Te3_2 W2_6 2.718418 1_455
Te3_2 W2_2 2.718422 1_555
Te3_3 W2_1 2.718088 1_565
Te3_3 W2_7 2.718418 1_455
Te3_3 W2_3 2.718422 1_555
Te3_4 W2_6 2.718088 1_555
Te3_4 W2_0 2.718418 1_555
Te3_4 W2_4 2.718422 1_555
Te3_5 W2_7 2.718088 1_555
Te3_5 W2_1 2.718418 1_555
Te3_5 W2_5 2.718422 1_555
Te3_6 W2_4 2.718088 1_565
Te3_6 W2_2 2.718418 1_555
Te3_6 W2_6 2.718422 1_555
Te3_7 W2_5 2.718088 1_565
Te3_7 W2_3 2.718418 1_555
Te3_7 W2_7 2.718422 1_555
Mo0_0 Te1_4 2.712333 1_455
Mo0_0 Te1_0 2.712337 1_555
Mo0_0 Te1_2 2.712441 1_555
Mo0_0 Te2_2 2.712531 1_555
Mo0_0 Te2_4 2.712576 1_455
Mo0_0 Te2_0 2.712578 1_555
Mo0_1 Te1_5 2.712333 1_455
Mo0_1 Te1_1 2.712337 1_555
Mo0_1 Te1_3 2.712441 1_555
Mo0_1 Te2_3 2.712531 1_555
Mo0_1 Te2_5 2.712576 1_455
Mo0_1 Te2_1 2.712578 1_555
Mo0_2 Te1_6 2.712333 1_455
Mo0_2 Te1_2 2.712337 1_555
Mo0_2 Te1_0 2.712441 1_565
Mo0_2 Te2_0 2.712531 1_565
Mo0_2 Te2_6 2.712576 1_455
Mo0_2 Te2_2 2.712578 1_555
Mo0_3 Te1_7 2.712333 1_455
Mo0_3 Te1_3 2.712337 1_555
Mo0_3 Te1_1 2.712441 1_565
Mo0_3 Te2_1 2.712531 1_565
Mo0_3 Te2_7 2.712576 1_455
Mo0_3 Te2_3 2.712578 1_555
Mo0_4 Te1_0 2.712333 1_555
Mo0_4 Te1_4 2.712337 1_555
Mo0_4 Te1_6 2.712441 1_555
Mo0_4 Te2_6 2.712531 1_555
Mo0_4 Te2_0 2.712576 1_555
Mo0_4 Te2_4 2.712578 1_555
Mo0_5 Te1_1 2.712333 1_555
Mo0_5 Te1_5 2.712337 1_555
Mo0_5 Te1_7 2.712441 1_555
Mo0_5 Te2_7 2.712531 1_555
Mo0_5 Te2_1 2.712576 1_555
Mo0_5 Te2_5 2.712578 1_555
Mo0_6 Te1_2 2.712333 1_555
Mo0_6 Te1_6 2.712337 1_555
Mo0_6 Te1_4 2.712441 1_565
Mo0_6 Te2_4 2.712531 1_565
Mo0_6 Te2_2 2.712576 1_555
Mo0_6 Te2_6 2.712578 1_555
Mo0_7 Te1_3 2.712333 1_555
Mo0_7 Te1_7 2.712337 1_555
Mo0_7 Te1_5 2.712441 1_565
Mo0_7 Te2_5 2.712531 1_565
Mo0_7 Te2_3 2.712576 1_555
Mo0_7 Te2_7 2.712578 1_555
Se0_0 W0_2 2.572605 1_545
Se0_0 W0_4 2.573079 1_555
Se0_0 W0_0 2.573081 1_555
Se0_1 W0_3 2.572605 1_545
Se0_1 W0_5 2.573079 1_555
Se0_1 W0_1 2.573081 1_555
Se0_2 W0_0 2.572605 1_555
Se0_2 W0_6 2.573079 1_555
Se0_2 W0_2 2.573081 1_555
Se0_3 W0_1 2.572605 1_555
Se0_3 W0_7 2.573079 1_555
Se0_3 W0_3 2.573081 1_555
Se0_4 W0_6 2.572605 1_545
Se0_4 W0_0 2.573079 1_655
Se0_4 W0_4 2.573081 1_555
Se0_5 W0_7 2.572605 1_545
Se0_5 W0_1 2.573079 1_655
Se0_5 W0_5 2.573081 1_555
Se0_6 W0_4 2.572605 1_555
Se0_6 W0_2 2.573079 1_655
Se0_6 W0_6 2.573081 1_555
Se0_7 W0_5 2.572605 1_555
Se0_7 W0_3 2.573079 1_655
Se0_7 W0_7 2.573081 1_555
Se1_0 W0_4 2.564573 1_555
Se1_0 W0_0 2.564577 1_555
Se1_0 W0_2 2.565274 1_545
Se1_1 W0_5 2.564573 1_555
Se1_1 W0_1 2.564577 1_555
Se1_1 W0_3 2.565274 1_545
Se1_2 W0_6 2.564573 1_555
Se1_2 W0_2 2.564577 1_555
Se1_2 W0_0 2.565274 1_555
Se1_3 W0_7 2.564573 1_555
Se1_3 W0_3 2.564577 1_555
Se1_3 W0_1 2.565274 1_555
Se1_4 W0_0 2.564573 1_655
Se1_4 W0_4 2.564577 1_555
Se1_4 W0_6 2.565274 1_545
Se1_5 W0_1 2.564573 1_655
Se1_5 W0_5 2.564577 1_555
Se1_5 W0_7 2.565274 1_545
Se1_6 W0_2 2.564573 1_655
Se1_6 W0_6 2.564577 1_555
Se1_6 W0_4 2.565274 1_555
Se1_7 W0_3 2.564573 1_655
Se1_7 W0_7 2.564577 1_555
Se1_7 W0_5 2.565274 1_555
S0_0 W1_4 2.471612 1_455
S0_0 W1_0 2.471619 1_555
S0_0 W1_2 2.471878 1_555
S0_1 W1_5 2.471612 1_455
S0_1 W1_1 2.471619 1_555
S0_1 W1_3 2.471878 1_555
S0_2 W1_6 2.471612 1_455
S0_2 W1_2 2.471619 1_555
S0_2 W1_0 2.471878 1_565
S0_3 W1_7 2.471612 1_455
S0_3 W1_3 2.471619 1_555
S0_3 W1_1 2.471878 1_565
S0_4 W1_0 2.471612 1_555
S0_4 W1_4 2.471619 1_555
S0_4 W1_6 2.471878 1_555
S0_5 W1_1 2.471612 1_555
S0_5 W1_5 2.471619 1_555
S0_5 W1_7 2.471878 1_555
S0_6 W1_2 2.471612 1_555
S0_6 W1_6 2.471619 1_555
S0_6 W1_4 2.471878 1_565
S0_7 W1_3 2.471612 1_555
S0_7 W1_7 2.471619 1_555
S0_7 W1_5 2.471878 1_565
S1_0 W1_2 2.465295 1_555
S1_0 W1_4 2.465516 1_455
S1_0 W1_0 2.465523 1_555
S1_1 W1_3 2.465295 1_555
S1_1 W1_5 2.465516 1_455
S1_1 W1_1 2.465523 1_555
S1_2 W1_0 2.465295 1_565
S1_2 W1_6 2.465516 1_455
S1_2 W1_2 2.465523 1_555
S1_3 W1_1 2.465295 1_565
S1_3 W1_7 2.465516 1_455
S1_3 W1_3 2.465523 1_555
S1_4 W1_6 2.465295 1_555
S1_4 W1_0 2.465516 1_555
S1_4 W1_4 2.465523 1_555
S1_5 W1_7 2.465295 1_555
S1_5 W1_1 2.465516 1_555
S1_5 W1_5 2.465523 1_555
S1_6 W1_4 2.465295 1_565
S1_6 W1_2 2.465516 1_555
S1_6 W1_6 2.465523 1_555
S1_7 W1_5 2.465295 1_565
S1_7 W1_3 2.465516 1_555
S1_7 W1_7 2.465523 1_555
