# generated using pymatgen
data_Na6CaSi4Ge3(SO12)2
_symmetry_space_group_name_H-M   'P 1'
_cell_length_a   8.91114512
_cell_length_b   8.90756579
_cell_length_c   22.17860890
_cell_angle_alpha   91.71967117
_cell_angle_beta   89.42337442
_cell_angle_gamma   120.30157905
_symmetry_Int_Tables_number   1
_chemical_formula_structural   Na6CaSi4Ge3(SO12)2
_chemical_formula_sum   'Na18 Ca3 Si12 Ge9 S6 O72'
_cell_volume   1519.24042858
_cell_formula_units_Z   3
loop_
 _symmetry_equiv_pos_site_id
 _symmetry_equiv_pos_as_xyz
  1  'x, y, z'
loop_
 _atom_site_type_symbol
 _atom_site_label
 _atom_site_symmetry_multiplicity
 _atom_site_fract_x
 _atom_site_fract_y
 _atom_site_fract_z
 _atom_site_occupancy
  Na  Na0  1  0.99035678  0.36088097  0.75468444  1
  Na  Na1  1  0.39508278  0.01368033  0.75224368  1
  Na  Na2  1  0.31639869  0.33788073  0.58613631  1
  Na  Na3  1  0.02604835  0.69552417  0.57543507  1
  Na  Na4  1  0.65889898  0.97161912  0.59048197  1
  Na  Na5  1  0.31590186  0.97486779  0.08490443  1
  Na  Na6  1  0.65565004  0.67955353  0.08547207  1
  Na  Na7  1  0.02517888  0.34127416  0.08516189  1
  Na  Na8  1  0.33841852  0.30087045  0.92284691  1
  Na  Na9  1  0.96422334  0.28976842  0.41659328  1
  Na  Na10  1  0.32074364  0.03437954  0.41523317  1
  Na  Na11  1  0.71469784  0.68204404  0.41569747  1
  Na  Na12  1  0.00080275  0.99986967  0.49700044  1
  Na  Na13  1  0.99172648  0.98999152  0.99557969  1
  Na  Na14  1  0.66555367  0.32689701  0.83622841  1
  Na  Na15  1  0.66701603  0.33355004  0.32778258  1
  Na  Na16  1  0.33439566  0.66791437  0.16619276  1
  Na  Na17  1  0.36484591  0.67185715  0.66974120  1
  Ca  Ca0  1  0.00161125  0.99950282  0.35322510  1
  Ca  Ca1  1  0.65464111  0.33363228  0.68702158  1
  Ca  Ca2  1  0.66305233  0.33127368  0.17994975  1
  Si  Si0  1  0.28338317  0.29315518  0.75406016  1
  Si  Si1  1  0.71473571  0.98388337  0.75604774  1
  Si  Si2  1  0.36824089  0.03380554  0.58301244  1
  Si  Si3  1  0.66193936  0.63199010  0.58158898  1
  Si  Si4  1  0.95724391  0.61890414  0.08102475  1
  Si  Si5  1  0.65749765  0.02570776  0.08106067  1
  Si  Si6  1  0.37627696  0.34336463  0.07876021  1
  Si  Si7  1  0.03836679  0.38632851  0.91467248  1
  Si  Si8  1  0.33211079  0.95387330  0.91537363  1
  Si  Si9  1  0.61283891  0.96314650  0.41885839  1
  Si  Si10  1  0.34183383  0.39380919  0.41930951  1
  Si  Si11  1  0.04129853  0.65003851  0.42028626  1
  Ge  Ge0  1  0.01597308  0.02830401  0.85672030  1
  Ge  Ge1  1  0.99571897  0.99275061  0.65144408  1
  Ge  Ge2  1  0.00399358  0.00398403  0.13815640  1
  Ge  Ge3  1  0.67315504  0.30845816  0.98437098  1
  Ge  Ge4  1  0.64769422  0.34075469  0.47605477  1
  Ge  Ge5  1  0.31722021  0.66722237  0.01646115  1
  Ge  Ge6  1  0.34841598  0.68395903  0.51540738  1
  Ge  Ge7  1  0.33199861  0.66352589  0.32234271  1
  Ge  Ge8  1  0.34405002  0.66714315  0.81647151  1
  S  S0  1  0.29429263  0.98356781  0.24985419  1
  S  S1  1  0.68510591  0.70490622  0.25091181  1
  S  S2  1  0.01744136  0.30894550  0.25097775  1
  S  S3  1  0.01015212  0.72301833  0.75161364  1
  S  S4  1  0.96670920  0.33247340  0.58271570  1
  S  S5  1  0.62818814  0.67011549  0.91421083  1
  O  O0  1  0.21237257  0.99758262  0.30538993  1
  O  O1  1  0.77945165  0.79160785  0.30645272  1
  O  O2  1  0.00668654  0.21470134  0.30481265  1
  O  O3  1  0.19545517  0.17390894  0.81299749  1
  O  O4  1  0.99234052  0.81198346  0.80497451  1
  O  O5  1  0.84152502  0.00710606  0.81210673  1
  O  O6  1  0.79872999  0.96068173  0.68965016  1
  O  O7  1  0.15594102  0.19718839  0.69217540  1
  O  O8  1  0.02741662  0.81831306  0.69312857  1
  O  O9  1  0.77488149  0.80568479  0.19501910  1
  O  O10  1  0.03077112  0.21700160  0.19290396  1
  O  O11  1  0.18946988  0.97060528  0.19323578  1
  O  O12  1  0.89338838  0.35890950  0.63863284  1
  O  O13  1  0.48458109  0.08593485  0.64224420  1
  O  O14  1  0.60529234  0.50774867  0.63665734  1
  O  O15  1  0.90862380  0.50386577  0.13844645  1
  O  O16  1  0.58574170  0.07828500  0.13801234  1
  O  O17  1  0.49429054  0.40772203  0.13695067  1
  O  O18  1  0.46059721  0.28676269  0.02086110  1
  O  O19  1  0.81488400  0.52711093  0.02490404  1
  O  O20  1  0.72252844  0.16648455  0.02606497  1
  O  O21  1  0.45801804  0.17254688  0.52573133  1
  O  O22  1  0.71144911  0.54548080  0.52137124  1
  O  O23  1  0.85723469  0.30760470  0.52895817  1
  O  O24  1  0.54839124  0.69460198  0.96941078  1
  O  O25  1  0.17256907  0.47431574  0.97131596  1
  O  O26  1  0.30519812  0.83920948  0.97417672  1
  O  O27  1  0.53454159  0.84690759  0.47827279  1
  O  O28  1  0.31215551  0.48227685  0.48006282  1
  O  O29  1  0.16056090  0.67696659  0.47928143  1
  O  O30  1  0.12819260  0.61062357  0.35890057  1
  O  O31  1  0.47942716  0.87112143  0.35998867  1
  O  O32  1  0.38425208  0.51823493  0.36011299  1
  O  O33  1  0.13274609  0.50251197  0.85402995  1
  O  O34  1  0.36207318  0.86327083  0.85363641  1
  O  O35  1  0.51197006  0.63818546  0.86009542  1
  O  O36  1  0.02001027  0.81820950  0.41850661  1
  O  O37  1  0.80346470  0.98986314  0.41597567  1
  O  O38  1  0.17872209  0.20125639  0.41856533  1
  O  O39  1  0.02690727  0.19153431  0.91235656  1
  O  O40  1  0.15795050  0.98169313  0.90883756  1
  O  O41  1  0.80332484  0.82617274  0.90946831  1
  O  O42  1  0.97952118  0.16999771  0.58427128  1
  O  O43  1  0.17354600  0.02015352  0.59258817  1
  O  O44  1  0.84602365  0.82682125  0.58941902  1
  O  O45  1  0.97514140  0.81843487  0.09091122  1
  O  O46  1  0.83982858  0.01432819  0.09234267  1
  O  O47  1  0.17840778  0.15823567  0.08916291  1
  O  O48  1  0.70252745  0.15844388  0.75519112  1
  O  O49  1  0.46725520  0.30637115  0.75461533  1
  O  O50  1  0.86281813  0.54525981  0.74835334  1
  O  O51  1  0.66355973  0.53059777  0.24878295  1
  O  O52  1  0.86530400  0.33014001  0.24829851  1
  O  O53  1  0.46882641  0.13728469  0.24830553  1
  O  O54  1  0.63811760  0.51029399  0.91554701  1
  O  O55  1  0.84561755  0.36240500  0.92411059  1
  O  O56  1  0.50574526  0.15294287  0.92326401  1
  O  O57  1  0.62193881  0.15215891  0.42626075  1
  O  O58  1  0.51959765  0.38013118  0.42092584  1
  O  O59  1  0.84891323  0.47148297  0.42509026  1
  O  O60  1  0.33478771  0.49888012  0.06529933  1
  O  O61  1  0.15968017  0.66613353  0.06942459  1
  O  O62  1  0.50211378  0.82783837  0.06345845  1
  O  O63  1  0.33062729  0.83299409  0.57168054  1
  O  O64  1  0.49614762  0.66493826  0.57283729  1
  O  O65  1  0.14490989  0.48680874  0.57891449  1
  O  O66  1  0.29824731  0.81671901  0.24972493  1
  O  O67  1  0.51065624  0.69803369  0.25240709  1
  O  O68  1  0.18575580  0.48272891  0.25202984  1
  O  O69  1  0.28794829  0.48278921  0.75846736  1
  O  O70  1  0.17507566  0.71597608  0.75111738  1
  O  O71  1  0.51474597  0.81159826  0.75980736  1
loop_
_geom_bond_atom_site_label_1
_geom_bond_atom_site_label_2
_geom_bond_distance
_geom_bond_site_symmetry_2
Na0 O48 2.272413 1_555
Na0 O69 2.304736 1_655
Na0 O50 2.430920 1_555
Na0 O33 2.516032 1_655
Na0 O12 2.720016 1_555
Na0 O70 2.734778 1_655
Na0 O7 2.869474 1_655
Na1 O49 2.348214 1_555
Na1 O48 2.367809 1_555
Na1 O70 2.372161 1_545
Na1 O71 2.522715 1_545
Na1 O13 2.557190 1_555
Na1 O34 2.590028 1_545
Na2 O43 2.456814 1_555
Na2 O65 2.486792 1_555
Na2 O14 2.489563 1_555
Na2 O64 2.544224 1_555
Na2 O42 2.592008 1_455
Na2 O21 2.698028 1_555
Na2 O28 2.724484 1_555
Na2 O7 2.728919 1_555
Na3 O63 2.349631 1_555
Na3 O44 2.428795 1_455
Na3 O29 2.477748 1_555
Na3 O43 2.518474 1_565
Na3 O65 2.565472 1_555
Na3 O22 2.697002 1_455
Na3 O8 2.797467 1_555
Na4 O64 2.380847 1_555
Na4 O42 2.493313 1_565
Na4 O13 2.501577 1_565
Na4 O6 2.567116 1_555
Na4 O63 2.569919 1_555
Na4 O44 2.571451 1_555
Na4 O27 2.702363 1_555
Na5 O61 2.389232 1_555
Na5 O16 2.403040 1_565
Na5 O47 2.487137 1_565
Na5 O62 2.614325 1_555
Na5 O45 2.629328 1_455
Na5 O11 2.636529 1_555
Na5 O26 2.685234 1_554
Na5 O18 2.825549 1_565
Na6 O62 2.393896 1_555
Na6 O17 2.419416 1_555
Na6 O45 2.468684 1_555
Na6 O60 2.510897 1_555
Na6 O46 2.578442 1_565
Na6 O9 2.641528 1_555
Na6 O19 2.730987 1_555
Na6 O24 2.785123 1_554
Na7 O60 2.425075 1_555
Na7 O15 2.442017 1_455
Na7 O46 2.530502 1_455
Na7 O61 2.546419 1_555
Na7 O47 2.605428 1_555
Na7 O20 2.669646 1_455
Na7 O10 2.674831 1_555
Na7 O25 2.836721 1_554
Na8 O54 2.370789 1_555
Na8 O56 2.437887 1_555
Na8 O39 2.445334 1_555
Na8 O40 2.471674 1_545
Na8 O18 2.475633 1_556
Na8 O3 2.698295 1_555
Na8 O25 2.810551 1_555
Na8 O35 2.979131 1_555
Na9 O37 2.307664 1_545
Na9 O59 2.316785 1_555
Na9 O38 2.408648 1_655
Na9 O2 2.621712 1_655
Na9 O57 2.661143 1_555
Na9 O23 2.688124 1_555
Na9 O30 2.812187 1_655
Na10 O57 2.349604 1_555
Na10 O36 2.385796 1_545
Na10 O38 2.388850 1_555
Na10 O0 2.579723 1_545
Na10 O58 2.667434 1_555
Na10 O21 2.716081 1_555
Na10 O31 2.747513 1_545
Na11 O36 2.355004 1_655
Na11 O58 2.359025 1_555
Na11 O37 2.440144 1_555
Na11 O1 2.588700 1_555
Na11 O22 2.666028 1_555
Na11 O59 2.698848 1_555
Na11 O32 2.819424 1_555
Na11 O27 2.978565 1_555
Na12 O36 2.404745 1_555
Na12 O38 2.453483 1_565
Na12 O42 2.487045 1_465
Na12 O37 2.495072 1_455
Na12 O44 2.543041 1_455
Na12 O43 2.580438 1_565
Na13 O40 2.438285 1_655
Na13 O41 2.453676 1_555
Na13 O39 2.519405 1_665
Na13 O47 2.586167 1_666
Na13 O46 2.587374 1_566
Na13 O45 2.605220 1_556
Na14 O48 2.432170 1_555
Na14 O55 2.446943 1_555
Na14 O54 2.458675 1_555
Na14 O56 2.460208 1_555
Na14 O49 2.480076 1_555
Na14 O50 2.716626 1_555
Na15 O53 2.458570 1_555
Na15 O52 2.493791 1_555
Na15 O51 2.528202 1_555
Na15 O58 2.570862 1_555
Na15 O59 2.587691 1_555
Na15 O57 2.661119 1_555
Na16 O66 2.358891 1_555
Na16 O67 2.408243 1_555
Na16 O68 2.456141 1_555
Na16 O61 2.659065 1_555
Na16 O60 2.660305 1_555
Na16 O62 2.726247 1_555
Na17 O71 2.355953 1_555
Na17 O64 2.450724 1_555
Na17 O69 2.487049 1_555
Na17 O70 2.614982 1_555
Na17 O65 2.690021 1_555
Na17 O63 2.743266 1_555
Ca0 O0 2.155090 1_555
Ca0 O1 2.156659 1_455
Ca0 O38 2.201865 1_565
Ca0 O2 2.205556 1_565
Ca0 O37 2.206063 1_455
Ca0 O36 2.267883 1_555
Ca1 O14 2.156075 1_555
Ca1 O49 2.158002 1_555
Ca1 O13 2.162319 1_555
Ca1 O50 2.283257 1_555
Ca1 O12 2.283398 1_555
Ca1 O48 2.393673 1_555
Ca2 O15 2.156169 1_555
Ca2 O17 2.176242 1_555
Ca2 O16 2.176812 1_555
Ca2 O51 2.304850 1_555
Ca2 O53 2.316526 1_555
Ca2 O52 2.370766 1_555
Ge0 O3 1.769622 1_555
Ge0 O5 1.776179 1_455
Ge0 O39 1.843350 1_555
Ge0 O40 1.922877 1_545
Ge0 O4 2.130025 1_445
Ge0 O41 2.200025 1_445
Ge1 O6 1.832926 1_555
Ge1 O7 1.863950 1_665
Ge1 O44 1.944657 1_555
Ge1 O43 1.965136 1_665
Ge1 O8 1.970582 1_655
Ge1 O42 2.260208 1_565
Ge2 O46 1.830996 1_455
Ge2 O45 1.835332 1_445
Ge2 O47 1.839809 1_555
Ge2 O10 2.131273 1_555
Ge2 O11 2.206981 1_545
Ge2 O9 2.306857 1_445
Ge3 O20 1.813239 1_556
Ge3 O55 1.905511 1_555
Ge3 O19 1.905823 1_556
Ge3 O56 1.955469 1_555
Ge3 O18 1.972108 1_556
Ge4 O58 1.838157 1_555
Ge4 O22 1.874694 1_555
Ge4 O57 1.897138 1_555
Ge4 O59 1.944220 1_555
Ge4 O21 1.954930 1_555
Ge4 O23 2.360460 1_555
Ge5 O25 1.817780 1_554
Ge5 O61 1.817826 1_555
Ge5 O62 1.847798 1_555
Ge5 O26 1.868640 1_554
Ge5 O60 1.945273 1_555
Ge5 O24 2.203865 1_554
Ge6 O27 1.775091 1_555
Ge6 O28 1.811381 1_555
Ge6 O29 1.834915 1_555
Ge6 O63 1.858514 1_555
Ge6 O64 1.912040 1_555
Ge6 O65 2.289084 1_555
Ge7 O32 1.809558 1_555
Ge7 O30 1.818659 1_555
Ge7 O31 1.822209 1_555
Ge7 O68 2.120396 1_555
Ge7 O67 2.126033 1_555
Ge7 O66 2.258815 1_555
Ge8 O34 1.841300 1_555
Ge8 O71 1.905865 1_555
Ge8 O33 1.909254 1_555
Ge8 O69 1.912916 1_555
Ge8 O35 1.917114 1_555
Ge8 O70 2.302208 1_555
O0 S0 1.459527 1_555
O1 S1 1.459176 1_555
O2 S2 1.454712 1_555
O3 Si0 1.635144 1_555
O4 S3 1.456244 1_655
O5 Si1 1.625466 1_545
O6 Si1 1.699164 1_555
O7 Si0 1.698699 1_555
O8 S3 1.535254 1_555
O9 S1 1.518109 1_555
O10 S2 1.541290 1_555
O11 S0 1.539076 1_555
O12 S4 1.463481 1_555
O13 Si2 1.587824 1_555
O14 Si3 1.573603 1_555
O15 Si4 1.574435 1_555
O16 Si5 1.572921 1_555
O17 Si6 1.573129 1_555
O18 Si6 1.670858 1_555
O19 Si4 1.658642 1_555
O20 Si5 1.655384 1_555
O21 Si2 1.690378 1_555
O22 Si3 1.685697 1_555
O23 S4 1.487194 1_555
O24 S5 1.474781 1_555
O25 Si7 1.627263 1_555
O26 Si8 1.621129 1_555
O27 Si9 1.621626 1_555
O28 Si10 1.626620 1_555
O29 Si11 1.628161 1_555
O30 Si11 1.673564 1_555
O31 Si9 1.665424 1_555
O32 Si10 1.658181 1_555
O33 Si7 1.664262 1_555
O34 Si8 1.655659 1_555
O35 S5 1.516978 1_555
O36 Si11 1.603743 1_555
O37 Si9 1.592820 1_555
O38 Si10 1.593067 1_555
O39 Si7 1.685153 1_555
O40 Si8 1.698764 1_555
O41 S5 1.481673 1_555
O42 S4 1.509506 1_555
O43 Si2 1.688547 1_555
O44 Si3 1.687542 1_555
O45 Si4 1.709883 1_555
O46 Si5 1.699613 1_555
O47 Si6 1.721081 1_555
O48 Si1 1.613211 1_545
O49 Si0 1.582530 1_555
O50 S3 1.460605 1_655
O51 S1 1.464519 1_555
O52 S2 1.462094 1_655
O53 S0 1.465516 1_545
O54 S5 1.471428 1_555
O55 Si7 1.632642 1_655
O56 Si8 1.669492 1_545
O57 Si9 1.647447 1_545
O58 Si10 1.649727 1_555
O59 Si11 1.653806 1_655
O60 Si6 1.639706 1_555
O61 Si4 1.651879 1_455
O62 Si5 1.638005 1_565
O63 Si2 1.656747 1_565
O64 Si3 1.659289 1_555
O65 S4 1.489976 1_455
O66 S0 1.504222 1_555
O67 S1 1.524636 1_555
O68 S2 1.517250 1_555
O69 Si0 1.668939 1_555
O70 S3 1.502202 1_555
O71 Si1 1.668215 1_555
