# generated using pymatgen
data_K4I2O9
_symmetry_space_group_name_H-M   'P 1'
_cell_length_a   6.12245368
_cell_length_b   6.12228937
_cell_length_c   15.71488724
_cell_angle_alpha   89.99882489
_cell_angle_beta   89.99973758
_cell_angle_gamma   119.99980717
_symmetry_Int_Tables_number   1
_chemical_formula_structural   K4I2O9
_chemical_formula_sum   'K8 I4 O18'
_cell_volume   510.13145754
_cell_formula_units_Z   2
loop_
 _symmetry_equiv_pos_site_id
 _symmetry_equiv_pos_as_xyz
  1  'x, y, z'
loop_
 _atom_site_type_symbol
 _atom_site_label
 _atom_site_symmetry_multiplicity
 _atom_site_fract_x
 _atom_site_fract_y
 _atom_site_fract_z
 _atom_site_occupancy
  K  K0  1  -0.00005942  -0.00008304  0.00007067  1
  K  K1  1  0.00005306  0.00007841  0.49992877  1
  K  K2  1  0.00016470  0.00020060  0.24995999  1
  K  K3  1  0.00010819  -0.00008804  0.74995357  1
  K  K4  1  0.33346204  0.66670811  0.39866267  1
  K  K5  1  0.66664467  0.33324801  0.89864613  1
  K  K6  1  0.66665562  0.33332041  0.60134547  1
  K  K7  1  0.33342684  0.66668023  0.10135225  1
  I  I0  1  0.33331905  0.66666652  0.65867004  1
  I  I1  1  0.66668060  0.33333447  0.15866546  1
  I  I2  1  0.66665692  0.33336897  0.34133419  1
  I  I3  1  0.33331607  0.66668230  0.84133689  1
  O  O0  1  0.18370224  0.81627476  0.89543427  1
  O  O1  1  0.18382440  0.36754884  0.89547062  1
  O  O2  1  0.63253042  0.81635065  0.89540434  1
  O  O3  1  0.36744136  0.18367830  0.39541945  1
  O  O4  1  0.81624180  0.63253949  0.10456386  1
  O  O5  1  0.81625119  0.18369784  0.39538814  1
  O  O6  1  0.81623695  0.63249379  0.39545396  1
  O  O7  1  0.18362561  0.81615630  0.60457426  1
  O  O8  1  0.63249234  0.81628070  0.60457009  1
  O  O9  1  0.36745349  0.18373242  0.10458884  1
  O  O10  1  0.81623747  0.18368110  0.10458895  1
  O  O11  1  0.18378112  0.36746286  0.60459543  1
  O  O12  1  0.53243611  0.06499271  0.25000757  1
  O  O13  1  0.46745353  0.53242374  0.74999939  1
  O  O14  1  0.06485696  0.53232484  0.75002119  1
  O  O15  1  0.93498930  0.46755800  0.24999587  1
  O  O16  1  0.53244720  0.46756186  0.25000551  1
  O  O17  1  0.46756516  0.93512785  0.74999015  1
loop_
_geom_bond_atom_site_label_1
_geom_bond_atom_site_label_2
_geom_bond_distance
_geom_bond_site_symmetry_2
K0 O4 2.547642 1_445
K0 O10 2.548320 1_455
K0 O9 2.548539 1_555
K0 O0 2.549260 1_544
K0 O2 2.549624 1_444
K0 O1 2.549756 1_554
K1 O3 2.547901 1_555
K1 O5 2.548338 1_455
K1 O6 2.548362 1_445
K1 O11 2.549494 1_555
K1 O7 2.549698 1_545
K1 O8 2.549937 1_445
K2 O9 3.001880 1_555
K2 O10 3.002279 1_455
K2 O3 3.002945 1_555
K2 O5 3.002999 1_455
K2 O4 3.003490 1_445
K2 O6 3.004739 1_445
K2 O16 3.079414 1_555
K2 O12 3.079690 1_555
K2 O15 3.080259 1_455
K2 O15 3.080919 1_445
K2 O12 3.081194 1_455
K2 O16 3.081560 1_445
K3 O7 3.001941 1_545
K3 O11 3.002578 1_555
K3 O0 3.002983 1_545
K3 O8 3.003203 1_445
K3 O2 3.003826 1_445
K3 O1 3.004852 1_555
K3 O17 3.079513 1_545
K3 O14 3.080106 1_545
K3 O13 3.080187 1_555
K3 O14 3.080566 1_555
K3 O13 3.081078 1_445
K3 O17 3.081363 1_445
K4 O6 3.066287 1_555
K4 O5 3.066310 1_565
K4 O3 3.066743 1_565
K4 O3 3.066988 1_555
K4 O5 3.067675 1_455
K4 O6 3.067736 1_455
K4 O16 3.148599 1_555
K4 O12 3.149049 1_565
K4 O15 3.149960 1_455
K5 O2 3.065930 1_545
K5 O0 3.066661 1_545
K5 O1 3.066848 1_555
K5 O0 3.067185 1_655
K5 O1 3.067213 1_655
K5 O2 3.067885 1_555
K5 O14 3.148492 1_655
K5 O17 3.148557 1_545
K5 O13 3.149285 1_555
K6 O7 3.066374 1_655
K6 O8 3.066659 1_545
K6 O11 3.066665 1_555
K6 O8 3.067178 1_555
K6 O11 3.067335 1_655
K6 O7 3.067546 1_545
K6 O17 3.148600 1_545
K6 O14 3.149099 1_655
K6 O13 3.149179 1_555
K7 O4 3.066285 1_555
K7 O10 3.066399 1_565
K7 O9 3.066642 1_555
K7 O9 3.067115 1_565
K7 O10 3.067560 1_455
K7 O4 3.067693 1_455
K7 O16 3.148550 1_555
K7 O12 3.149233 1_565
K7 O15 3.149511 1_455
I0 O11 1.799681 1_555
I0 O7 1.799730 1_555
I0 O8 1.799732 1_555
I0 O13 2.021062 1_555
I0 O17 2.021298 1_555
I0 O14 2.021630 1_555
I1 O10 1.799727 1_555
I1 O9 1.799836 1_555
I1 O4 1.799848 1_555
I1 O15 2.020861 1_555
I1 O12 2.021044 1_555
I1 O16 2.021512 1_555
I2 O6 1.799647 1_555
I2 O5 1.799804 1_555
I2 O3 1.799820 1_555
I2 O15 2.021003 1_555
I2 O12 2.021053 1_555
I2 O16 2.021149 1_555
I3 O2 1.799708 1_555
I3 O1 1.799752 1_555
I3 O0 1.799864 1_555
I3 O13 2.021241 1_555
I3 O14 2.021258 1_555
I3 O17 2.021483 1_555
