# generated using pymatgen
data_Na8Ti3ZnSi5SO24
_symmetry_space_group_name_H-M   'P 1'
_cell_length_a   9.06277307
_cell_length_b   9.06034269
_cell_length_c   22.05081465
_cell_angle_alpha   90.39080145
_cell_angle_beta   90.23412290
_cell_angle_gamma   119.96758375
_symmetry_Int_Tables_number   1
_chemical_formula_structural   Na8Ti3ZnSi5SO24
_chemical_formula_sum   'Na24 Ti9 Zn3 Si15 S3 O72'
_cell_volume   1568.47073230
_cell_formula_units_Z   3
loop_
 _symmetry_equiv_pos_site_id
 _symmetry_equiv_pos_as_xyz
  1  'x, y, z'
loop_
 _atom_site_type_symbol
 _atom_site_label
 _atom_site_symmetry_multiplicity
 _atom_site_fract_x
 _atom_site_fract_y
 _atom_site_fract_z
 _atom_site_occupancy
  Na  Na0  1  0.64279565  0.01768632  0.24666274  1
  Na  Na1  1  0.36892705  0.36427029  0.24126174  1
  Na  Na2  1  0.98942781  0.61935304  0.24294151  1
  Na  Na3  1  0.62717048  0.61553812  0.74722976  1
  Na  Na4  1  0.98939303  0.37109928  0.75123850  1
  Na  Na5  1  0.38579029  0.00902754  0.74732391  1
  Na  Na6  1  0.31146442  0.33692600  0.58861958  1
  Na  Na7  1  0.03392040  0.70475142  0.58172532  1
  Na  Na8  1  0.66174720  0.96817474  0.59137744  1
  Na  Na9  1  0.30845247  0.96735140  0.08067854  1
  Na  Na10  1  0.66278591  0.69330916  0.08001917  1
  Na  Na11  1  0.03186575  0.34851497  0.07995690  1
  Na  Na12  1  0.96264977  0.66736692  0.91483963  1
  Na  Na13  1  0.70420000  0.03752833  0.91455261  1
  Na  Na14  1  0.33315342  0.29559423  0.91502330  1
  Na  Na15  1  0.95920629  0.28400873  0.41316328  1
  Na  Na16  1  0.32054034  0.03058925  0.41708678  1
  Na  Na17  1  0.71536372  0.67860146  0.41711544  1
  Na  Na18  1  0.00087476  0.99659203  0.49718520  1
  Na  Na19  1  0.00047895  0.99847177  0.99479718  1
  Na  Na20  1  0.66735983  0.33306412  0.82902430  1
  Na  Na21  1  0.67868083  0.33133262  0.33194351  1
  Na  Na22  1  0.33027948  0.66423784  0.16114837  1
  Na  Na23  1  0.34113315  0.67252235  0.66994198  1
  Ti  Ti0  1  0.99896024  0.99957068  0.85247344  1
  Ti  Ti1  1  0.00155578  0.98901668  0.65104647  1
  Ti  Ti2  1  0.00690863  0.02124134  0.13938578  1
  Ti  Ti3  1  0.66835784  0.33545925  0.98108300  1
  Ti  Ti4  1  0.65289305  0.33761258  0.47846741  1
  Ti  Ti5  1  0.33403269  0.66773198  0.01656077  1
  Ti  Ti6  1  0.34434910  0.67964395  0.51725222  1
  Ti  Ti7  1  0.32163171  0.65264597  0.31934735  1
  Ti  Ti8  1  0.33438833  0.66634436  0.81325026  1
  Zn  Zn0  1  0.99670863  0.00864660  0.35733884  1
  Zn  Zn1  1  0.64833743  0.32862809  0.68857643  1
  Zn  Zn2  1  0.68112895  0.33393596  0.17157878  1
  Si  Si0  1  0.00004148  0.29605877  0.25257974  1
  Si  Si1  1  0.28358483  0.28899991  0.75147188  1
  Si  Si2  1  0.00331037  0.70856042  0.75205985  1
  Si  Si3  1  0.71014026  0.99594266  0.75051840  1
  Si  Si4  1  0.37409282  0.04050618  0.58429504  1
  Si  Si5  1  0.66489683  0.62817294  0.58500295  1
  Si  Si6  1  0.96442798  0.63156641  0.08451770  1
  Si  Si7  1  0.66187952  0.03928615  0.08408995  1
  Si  Si8  1  0.38211547  0.33984758  0.08500182  1
  Si  Si9  1  0.62276713  0.66430412  0.91644816  1
  Si  Si10  1  0.04225345  0.37746639  0.91587634  1
  Si  Si11  1  0.33585029  0.95816298  0.91645148  1
  Si  Si12  1  0.62031395  0.96001910  0.41497892  1
  Si  Si13  1  0.33371922  0.37780992  0.41914934  1
  Si  Si14  1  0.03775028  0.66030328  0.41836035  1
  S  S0  1  0.28913479  0.99555710  0.25095139  1
  S  S1  1  0.70599652  0.71012659  0.25075805  1
  S  S2  1  0.95966523  0.33464974  0.58230479  1
  O  O0  1  0.20460649  0.00587499  0.30671944  1
  O  O1  1  0.80561965  0.78920302  0.30673313  1
  O  O2  1  0.97384198  0.18303545  0.31191729  1
  O  O3  1  0.18356061  0.16981103  0.81039876  1
  O  O4  1  0.98001307  0.80746037  0.81079066  1
  O  O5  1  0.82786237  0.01494772  0.81067410  1
  O  O6  1  0.80674475  0.97030709  0.68999822  1
  O  O7  1  0.16534685  0.19278300  0.68996384  1
  O  O8  1  0.03036811  0.83021182  0.69108679  1
  O  O9  1  0.79340527  0.81202161  0.19601750  1
  O  O10  1  0.02609848  0.19376519  0.19220267  1
  O  O11  1  0.18580853  0.97851988  0.19570764  1
  O  O12  1  0.88589230  0.36022675  0.63762557  1
  O  O13  1  0.49499865  0.11143491  0.64317793  1
  O  O14  1  0.62436053  0.51061056  0.64359650  1
  O  O15  1  0.89760325  0.51933757  0.14504026  1
  O  O16  1  0.61906046  0.10500370  0.14588726  1
  O  O17  1  0.49056463  0.37060135  0.14644232  1
  O  O18  1  0.47215688  0.30258161  0.02669144  1
  O  O19  1  0.83227505  0.53456054  0.02693456  1
  O  O20  1  0.70213236  0.17009681  0.02714631  1
  O  O21  1  0.47474440  0.16774991  0.52489390  1
  O  O22  1  0.69395851  0.52986565  0.52477048  1
  O  O23  1  0.85404731  0.31480878  0.52724818  1
  O  O24  1  0.52869259  0.69120512  0.97574287  1
  O  O25  1  0.16401727  0.47045535  0.97573460  1
  O  O26  1  0.30773955  0.83628593  0.97542660  1
  O  O27  1  0.52127205  0.84003800  0.47413913  1
  O  O28  1  0.31183616  0.47717723  0.47696049  1
  O  O29  1  0.16000202  0.68651038  0.47681631  1
  O  O30  1  0.13321136  0.62927918  0.35792033  1
  O  O31  1  0.49574450  0.86222095  0.35506375  1
  O  O32  1  0.36377404  0.49903051  0.35830448  1
  O  O33  1  0.13473696  0.50065608  0.85714010  1
  O  O34  1  0.36657143  0.86434982  0.85750268  1
  O  O35  1  0.49914809  0.63366585  0.85709099  1
  O  O36  1  0.01890586  0.82732327  0.41212685  1
  O  O37  1  0.80396849  0.97272899  0.41613109  1
  O  O38  1  0.17312293  0.18811852  0.41643006  1
  O  O39  1  0.02245213  0.18722876  0.91297328  1
  O  O40  1  0.16577147  0.97797408  0.91321800  1
  O  O41  1  0.81203702  0.83484106  0.91359767  1
  O  O42  1  0.97506414  0.17714695  0.58362150  1
  O  O43  1  0.18561038  0.02806254  0.58641384  1
  O  O44  1  0.83928486  0.81869764  0.58630137  1
  O  O45  1  0.98026853  0.82194757  0.09214712  1
  O  O46  1  0.83815056  0.02202323  0.09007995  1
  O  O47  1  0.18784154  0.16250176  0.08890496  1
  O  O48  1  0.69604775  0.16600913  0.74889862  1
  O  O49  1  0.46880135  0.30540331  0.75187947  1
  O  O50  1  0.83661999  0.52297013  0.74708282  1
  O  O51  1  0.67778604  0.53499982  0.24799614  1
  O  O52  1  0.83465831  0.32105583  0.24696603  1
  O  O53  1  0.46051594  0.14834978  0.24950558  1
  O  O54  1  0.63951188  0.49242950  0.92288132  1
  O  O55  1  0.85369225  0.36051177  0.92281206  1
  O  O56  1  0.50751444  0.14671074  0.92352186  1
  O  O57  1  0.63518971  0.14744958  0.42137688  1
  O  O58  1  0.51203960  0.36920690  0.42106094  1
  O  O59  1  0.85261641  0.48449871  0.42242836  1
  O  O60  1  0.34798000  0.49973061  0.07715981  1
  O  O61  1  0.15630290  0.65896893  0.07510468  1
  O  O62  1  0.50256979  0.84537864  0.07525329  1
  O  O63  1  0.34173127  0.84384680  0.57549684  1
  O  O64  1  0.49695668  0.65443310  0.57634329  1
  O  O65  1  0.13541475  0.48675500  0.57767519  1
  O  O66  1  0.30458308  0.83584887  0.25088453  1
  O  O67  1  0.53412345  0.70215992  0.25200172  1
  O  O68  1  0.18292512  0.48735880  0.25362709  1
  O  O69  1  0.29494028  0.47601174  0.75411747  1
  O  O70  1  0.18081208  0.70197591  0.75433526  1
  O  O71  1  0.52351868  0.81991874  0.75410441  1
loop_
_geom_bond_atom_site_label_1
_geom_bond_atom_site_label_2
_geom_bond_distance
_geom_bond_site_symmetry_2
Na0 O16 2.408387 1_555
Na0 O52 2.409039 1_555
Na0 O53 2.467390 1_555
Na0 O67 2.519764 1_545
Na0 O66 2.660372 1_545
Na0 O31 2.769554 1_545
Na1 O17 2.355303 1_555
Na1 O51 2.432646 1_555
Na1 O68 2.457097 1_555
Na1 O53 2.484966 1_555
Na1 O67 2.660456 1_555
Na1 O32 2.858129 1_555
Na1 O10 2.892191 1_555
Na2 O15 2.319349 1_555
Na2 O52 2.344536 1_555
Na2 O51 2.533913 1_555
Na2 O66 2.535798 1_655
Na2 O68 2.580021 1_655
Na2 O30 2.826136 1_655
Na3 O50 2.428379 1_555
Na3 O49 2.437680 1_555
Na3 O71 2.463642 1_555
Na3 O14 2.464198 1_555
Na3 O69 2.625004 1_555
Na3 O35 2.729413 1_555
Na4 O48 2.363396 1_555
Na4 O50 2.392218 1_555
Na4 O69 2.437965 1_655
Na4 O70 2.608061 1_655
Na4 O33 2.637986 1_655
Na4 O12 2.655370 1_555
Na5 O49 2.400884 1_555
Na5 O48 2.435890 1_555
Na5 O70 2.461622 1_545
Na5 O13 2.498924 1_555
Na5 O71 2.579651 1_545
Na5 O34 2.733139 1_545
Na6 O43 2.437906 1_555
Na6 O64 2.521492 1_555
Na6 O65 2.571334 1_555
Na6 O7 2.605655 1_555
Na6 O42 2.643568 1_455
Na6 O14 2.734060 1_555
Na6 O28 2.777683 1_555
Na6 O21 2.960969 1_555
Na7 O63 2.425364 1_555
Na7 O44 2.450880 1_455
Na7 O43 2.540289 1_565
Na7 O65 2.562888 1_555
Na7 O29 2.624786 1_555
Na7 O8 2.666146 1_555
Na8 O64 2.482474 1_555
Na8 O42 2.512839 1_565
Na8 O6 2.531220 1_555
Na8 O63 2.554489 1_555
Na8 O44 2.571354 1_555
Na8 O13 2.688254 1_565
Na8 O27 2.847360 1_555
Na9 O61 2.422433 1_555
Na9 O62 2.504535 1_555
Na9 O47 2.506397 1_565
Na9 O45 2.596525 1_455
Na9 O26 2.598335 1_554
Na9 O11 2.794874 1_555
Na9 O16 2.825280 1_565
Na9 O18 2.899223 1_565
Na10 O62 2.452964 1_555
Na10 O60 2.493561 1_555
Na10 O45 2.519502 1_555
Na10 O46 2.589310 1_565
Na10 O24 2.591866 1_554
Na10 O9 2.786854 1_555
Na10 O19 2.827943 1_555
Na10 O17 2.940799 1_555
Na11 O61 2.455864 1_555
Na11 O60 2.483899 1_555
Na11 O25 2.583004 1_554
Na11 O46 2.589688 1_455
Na11 O47 2.694398 1_555
Na11 O15 2.793024 1_455
Na11 O20 2.831808 1_455
Na11 O10 2.840763 1_555
Na12 O55 2.449693 1_555
Na12 O40 2.477140 1_655
Na12 O41 2.497141 1_555
Na12 O54 2.547713 1_555
Na12 O4 2.596751 1_555
Na12 O19 2.756403 1_556
Na12 O33 2.945501 1_655
Na12 O26 3.010720 1_655
Na13 O56 2.440668 1_555
Na13 O41 2.473985 1_545
Na13 O39 2.500606 1_655
Na13 O55 2.542069 1_555
Na13 O5 2.605456 1_555
Na13 O20 2.754891 1_556
Na13 O34 2.924453 1_545
Na14 O54 2.442217 1_555
Na14 O39 2.476139 1_555
Na14 O40 2.494188 1_545
Na14 O56 2.546032 1_555
Na14 O3 2.618077 1_555
Na14 O18 2.747203 1_556
Na14 O35 2.956841 1_555
Na14 O25 3.010941 1_555
Na15 O2 2.436112 1_555
Na15 O37 2.444796 1_545
Na15 O59 2.454419 1_555
Na15 O38 2.490151 1_655
Na15 O57 2.562097 1_555
Na15 O23 2.755072 1_555
Na16 O38 2.393185 1_555
Na16 O36 2.416979 1_545
Na16 O57 2.498345 1_555
Na16 O0 2.610278 1_555
Na16 O58 2.666089 1_555
Na16 O21 2.710384 1_555
Na17 O37 2.368557 1_555
Na17 O36 2.386784 1_655
Na17 O58 2.470900 1_555
Na17 O1 2.613116 1_555
Na17 O59 2.615496 1_555
Na17 O22 2.697258 1_555
Na18 O38 2.444937 1_565
Na18 O37 2.451313 1_455
Na18 O36 2.471895 1_555
Na18 O43 2.498826 1_565
Na18 O44 2.512505 1_455
Na18 O42 2.589797 1_465
Na19 O41 2.393716 1_455
Na19 O40 2.410376 1_555
Na19 O39 2.434068 1_565
Na19 O47 2.608889 1_566
Na19 O45 2.637614 1_456
Na19 O46 2.637617 1_466
Na20 O49 2.390265 1_555
Na20 O48 2.416738 1_555
Na20 O50 2.450847 1_555
Na20 O55 2.595272 1_555
Na20 O54 2.599896 1_555
Na20 O56 2.630682 1_555
Na21 O52 2.380939 1_555
Na21 O59 2.478480 1_555
Na21 O57 2.493049 1_555
Na21 O53 2.572372 1_555
Na21 O58 2.606340 1_555
Na21 O51 2.625491 1_555
Na22 O60 2.425057 1_555
Na22 O61 2.446894 1_555
Na22 O62 2.495097 1_555
Na22 O68 2.537502 1_555
Na22 O66 2.590524 1_555
Na22 O67 2.621207 1_555
Na23 O71 2.386557 1_555
Na23 O70 2.459281 1_555
Na23 O69 2.469275 1_555
Na23 O64 2.555656 1_555
Na23 O63 2.604325 1_555
Na23 O65 2.689909 1_555
O0 S0 1.478344 1_545
O0 Zn0 2.204666 1_455
O1 S1 1.478026 1_555
O1 Zn0 2.170603 1_565
O2 Si0 1.610883 1_655
O2 Zn0 1.972205 1_555
O3 Si1 1.651398 1_555
O3 Ti0 1.868968 1_445
O4 Si2 1.643203 1_655
O4 Ti0 1.892680 1_555
O5 Si3 1.652043 1_545
O5 Ti0 1.865283 1_545
O6 Si3 1.676267 1_555
O6 Ti1 1.897091 1_655
O7 Si1 1.669291 1_555
O7 Ti1 1.891688 1_545
O8 Si2 1.683916 1_555
O8 Ti1 1.818994 1_555
O9 S1 1.493071 1_555
O9 Ti2 2.298800 1_665
O10 Si0 1.700491 1_555
O10 Ti2 1.879350 1_555
O11 S0 1.492768 1_555
O11 Ti2 2.222164 1_565
O12 S2 1.465054 1_555
O12 Zn1 2.321127 1_555
O13 Si4 1.604068 1_555
O13 Zn1 2.008863 1_555
O14 Si5 1.603310 1_555
O14 Zn1 2.031766 1_555
O15 Si6 1.609879 1_555
O15 Zn2 1.934829 1_555
O16 Si7 1.608137 1_555
O16 Zn2 1.937894 1_555
O17 Si8 1.609201 1_555
O17 Zn2 1.992010 1_555
O18 Si8 1.646531 1_555
O18 Ti3 1.936866 1_554
O19 Si6 1.655268 1_555
O19 Ti3 1.941366 1_554
O20 Si7 1.645153 1_555
O20 Ti3 1.961249 1_554
O21 Si4 1.690161 1_555
O21 Ti4 1.891020 1_555
O22 Si5 1.687555 1_555
O22 Ti4 1.881524 1_555
O23 S2 1.496013 1_555
O23 Ti4 2.210520 1_555
O24 Si9 1.645661 1_555
O24 Ti5 1.899571 1_556
O25 Si10 1.647388 1_555
O25 Ti5 1.895970 1_556
O26 Si11 1.648238 1_555
O26 Ti5 1.895360 1_556
O27 Si12 1.656297 1_555
O27 Ti6 1.813850 1_555
O28 Si13 1.624725 1_555
O28 Ti6 1.917528 1_555
O29 Si14 1.633025 1_555
O29 Ti6 1.918995 1_555
O30 Si14 1.688480 1_555
O30 Ti7 1.826849 1_555
O31 Si12 1.666630 1_555
O31 Ti7 1.921419 1_555
O32 Si13 1.674748 1_555
O32 Ti7 1.834562 1_555
O33 Si10 1.649176 1_555
O33 Ti8 1.945426 1_555
O34 Si11 1.647406 1_555
O34 Ti8 1.925290 1_555
O35 Si9 1.648551 1_555
O35 Ti8 1.919786 1_555
O36 Si14 1.612092 1_555
O36 Zn0 2.134066 1_465
O37 Si12 1.610072 1_555
O37 Zn0 2.072233 1_565
O38 Si13 1.604571 1_555
O38 Zn0 2.062759 1_455
O39 Si10 1.642119 1_555
O39 Ti0 2.078705 1_445
O40 Si11 1.639771 1_555
O40 Ti0 2.097728 1_455
O41 Si9 1.639538 1_555
O41 Ti0 2.105763 1_555
O42 S2 1.502072 1_555
O42 Ti1 2.369396 1_645
O43 Si4 1.655620 1_555
O43 Ti1 2.091772 1_545
O44 Si5 1.658881 1_555
O44 Ti1 2.065899 1_655
O45 Si6 1.665147 1_555
O45 Ti2 1.985078 1_665
O46 Si7 1.685854 1_555
O46 Ti2 1.875788 1_655
O47 Si8 1.692935 1_555
O47 Ti2 1.871813 1_555
O48 Si3 1.609085 1_545
O48 Zn1 2.187604 1_555
O49 Si1 1.609477 1_555
O49 Zn1 2.078637 1_555
O50 Si2 1.606259 1_655
O50 Zn1 2.150789 1_555
O51 S1 1.476484 1_555
O51 Zn2 2.484484 1_555
O52 Si0 1.628220 1_655
O52 Zn2 2.204310 1_555
O53 S0 1.477430 1_545
O53 Zn2 2.546851 1_555
O54 Si9 1.645321 1_555
O54 Ti3 2.032658 1_555
O55 Si10 1.645444 1_655
O55 Ti3 2.040707 1_555
O56 Si11 1.643859 1_545
O56 Ti3 2.031087 1_555
O57 Si12 1.640051 1_545
O57 Ti4 2.066805 1_555
O58 Si13 1.656771 1_555
O58 Ti4 1.915892 1_555
O59 Si14 1.641216 1_655
O59 Ti4 2.051479 1_555
O60 Si8 1.635456 1_555
O60 Ti5 2.082566 1_555
O61 Si6 1.643444 1_455
O61 Ti5 2.039092 1_555
O62 Si7 1.633417 1_565
O62 Ti5 2.024355 1_555
O63 Si4 1.664700 1_565
O63 Ti6 1.967967 1_555
O64 Si5 1.664206 1_555
O64 Ti6 1.991923 1_555
O65 S2 1.502313 1_455
O65 Ti6 2.271857 1_555
O66 S0 1.521778 1_555
O66 Ti7 2.312281 1_555
O67 S1 1.523246 1_555
O67 Ti7 2.298806 1_555
O68 Si0 1.697343 1_555
O68 Ti7 1.999464 1_555
O69 Si1 1.646012 1_555
O69 Ti8 2.037515 1_555
O70 Si2 1.639851 1_555
O70 Ti8 2.041803 1_555
O71 Si3 1.648751 1_555
O71 Ti8 2.058008 1_555
