# generated using pymatgen
data_Na6Ca4Nb8Si9(SO8)9
_symmetry_space_group_name_H-M   'P 1'
_cell_length_a   9.00612830
_cell_length_b   9.01214863
_cell_length_c   23.32637771
_cell_angle_alpha   89.67893737
_cell_angle_beta   90.16274957
_cell_angle_gamma   119.96860680
_symmetry_Int_Tables_number   1
_chemical_formula_structural   Na6Ca4Nb8Si9(SO8)9
_chemical_formula_sum   'Na6 Ca4 Nb8 Si9 S9 O72'
_cell_volume   1640.11722013
_cell_formula_units_Z   1
loop_
 _symmetry_equiv_pos_site_id
 _symmetry_equiv_pos_as_xyz
  1  'x, y, z'
loop_
 _atom_site_type_symbol
 _atom_site_label
 _atom_site_symmetry_multiplicity
 _atom_site_fract_x
 _atom_site_fract_y
 _atom_site_fract_z
 _atom_site_occupancy
  Na  Na0  1  0.00010397  0.00111998  0.49361226  1
  Na  Na1  1  0.99156297  0.00624700  0.00033779  1
  Na  Na2  1  0.67928536  0.33440668  0.82258176  1
  Na  Na3  1  0.66461652  0.31896604  0.32278233  1
  Na  Na4  1  0.33097884  0.66640908  0.17313397  1
  Na  Na5  1  0.33152893  0.67153200  0.66129006  1
  Ca  Ca0  1  0.67370968  0.33499834  0.69061011  1
  Ca  Ca1  1  0.66545460  0.32617198  0.19181557  1
  Ca  Ca2  1  0.33557964  0.66267460  0.01595075  1
  Ca  Ca3  1  0.33212853  0.66953496  0.51374590  1
  Nb  Nb0  1  0.01211483  0.01262556  0.35583541  1
  Nb  Nb1  1  0.98227868  0.98817529  0.85336032  1
  Nb  Nb2  1  0.98745490  0.98438100  0.64660619  1
  Nb  Nb3  1  0.01115638  0.01062517  0.15278580  1
  Nb  Nb4  1  0.67816297  0.34050834  0.97650359  1
  Nb  Nb5  1  0.66459787  0.32481196  0.47020679  1
  Nb  Nb6  1  0.31921631  0.66389092  0.31787001  1
  Nb  Nb7  1  0.33059575  0.65777017  0.81167780  1
  Si  Si0  1  0.28933308  0.99130776  0.25416241  1
  Si  Si1  1  0.01252873  0.30204690  0.25404886  1
  Si  Si2  1  0.00788207  0.71564530  0.75261880  1
  Si  Si3  1  0.70263162  0.99073638  0.75093440  1
  Si  Si4  1  0.62142346  0.66489870  0.91785508  1
  Si  Si5  1  0.04707865  0.37156623  0.91660096  1
  Si  Si6  1  0.62529049  0.94855786  0.41587806  1
  Si  Si7  1  0.33274867  0.37944835  0.41791787  1
  Si  Si8  1  0.03966137  0.67299286  0.41846131  1
  S  S0  1  0.71234446  0.72325925  0.25075628  1
  S  S1  1  0.27713571  0.28597773  0.75116667  1
  S  S2  1  0.95818155  0.32589514  0.58417878  1
  S  S3  1  0.36934298  0.04532038  0.58494128  1
  S  S4  1  0.66913772  0.62653686  0.58418870  1
  S  S5  1  0.95368793  0.63164941  0.08245458  1
  S  S6  1  0.67461538  0.04470133  0.08298976  1
  S  S7  1  0.36981356  0.32229423  0.08351273  1
  S  S8  1  0.33578325  0.96468151  0.91504721  1
  O  O0  1  0.16850089  0.99097222  0.30481568  1
  O  O1  1  0.81254085  0.80719435  0.30103242  1
  O  O2  1  0.99681770  0.17378762  0.30490303  1
  O  O3  1  0.19263868  0.18832405  0.80327225  1
  O  O4  1  0.01222114  0.83527407  0.80539075  1
  O  O5  1  0.82490875  0.00296438  0.80566307  1
  O  O6  1  0.80929601  0.97307306  0.69366842  1
  O  O7  1  0.17399124  0.20591206  0.69842156  1
  O  O8  1  0.03058234  0.83658726  0.69313798  1
  O  O9  1  0.80490613  0.83122642  0.19584536  1
  O  O10  1  0.02795787  0.19234637  0.19350446  1
  O  O11  1  0.16537703  0.97145278  0.19276658  1
  O  O12  1  0.87496358  0.33939982  0.63581536  1
  O  O13  1  0.46596101  0.12861266  0.63653710  1
  O  O14  1  0.65933991  0.53454812  0.63668159  1
  O  O15  1  0.87038797  0.53078728  0.13308420  1
  O  O16  1  0.66188396  0.12768963  0.13417156  1
  O  O17  1  0.46574401  0.33567895  0.13503448  1
  O  O18  1  0.45654820  0.30318877  0.03096465  1
  O  O19  1  0.84252459  0.53247538  0.02882363  1
  O  O20  1  0.69100916  0.15504427  0.03010827  1
  O  O21  1  0.45491970  0.15015816  0.53231755  1
  O  O22  1  0.69523328  0.54828910  0.53251122  1
  O  O23  1  0.85146093  0.30278280  0.53197044  1
  O  O24  1  0.57126269  0.71767169  0.97477983  1
  O  O25  1  0.14202431  0.43511719  0.97483831  1
  O  O26  1  0.29861876  0.86555215  0.96728258  1
  O  O27  1  0.57237231  0.85597563  0.47525505  1
  O  O28  1  0.28831862  0.43246138  0.47597902  1
  O  O29  1  0.14309675  0.72061465  0.47551431  1
  O  O30  1  0.12995424  0.63161743  0.36190246  1
  O  O31  1  0.49448024  0.85944075  0.36028045  1
  O  O32  1  0.36552356  0.50290959  0.36110424  1
  O  O33  1  0.13724214  0.50049782  0.86002496  1
  O  O34  1  0.36605891  0.88222373  0.86452741  1
  O  O35  1  0.49571109  0.63551687  0.86167450  1
  O  O36  1  0.99146826  0.81803267  0.40085139  1
  O  O37  1  0.81829199  0.99288808  0.39931452  1
  O  O38  1  0.18192917  0.18084048  0.40406273  1
  O  O39  1  0.01336010  0.17987400  0.90161239  1
  O  O40  1  0.19315248  -0.00024986  0.90431992  1
  O  O41  1  0.82174563  0.81431510  0.90254172  1
  O  O42  1  0.97022125  0.16126711  0.58983105  1
  O  O43  1  0.19371644  0.03684499  0.58958753  1
  O  O44  1  0.84046057  0.80783127  0.58942595  1
  O  O45  1  0.95637289  0.79957743  0.08271119  1
  O  O46  1  0.83698111  0.03390349  0.08468987  1
  O  O47  1  0.19319854  0.15567467  0.08686408  1
  O  O48  1  0.68114876  0.15310016  0.75256920  1
  O  O49  1  0.44833983  0.31033744  0.74803530  1
  O  O50  1  0.83828495  0.53673088  0.75328072  1
  O  O51  1  0.69650856  0.55527675  0.24453973  1
  O  O52  1  0.84932692  0.32300481  0.25142087  1
  O  O53  1  0.46553391  0.16428103  0.25262361  1
  O  O54  1  0.63898492  0.48712074  0.92799842  1
  O  O55  1  0.84667918  0.34835785  0.92689870  1
  O  O56  1  0.49641122  0.13838409  0.92208426  1
  O  O57  1  0.64187012  0.14546255  0.42471118  1
  O  O58  1  0.50827292  0.35765575  0.42674017  1
  O  O59  1  0.84999740  0.49008167  0.42753040  1
  O  O60  1  0.34014932  0.46631538  0.07909639  1
  O  O61  1  0.12502875  0.65829026  0.07566807  1
  O  O62  1  0.52457956  0.87524057  0.07766335  1
  O  O63  1  0.33904020  0.87121625  0.58180618  1
  O  O64  1  0.53018142  0.66302943  0.58142288  1
  O  O65  1  0.13130738  0.47100753  0.58089616  1
  O  O66  1  0.29887352  0.81460425  0.25616607  1
  O  O67  1  0.54437535  0.71522530  0.25074886  1
  O  O68  1  0.19602958  0.48079566  0.25641383  1
  O  O69  1  0.28779703  0.45996718  0.75500339  1
  O  O70  1  0.18598223  0.70532715  0.76013537  1
  O  O71  1  0.52087257  0.80865415  0.75870967  1
loop_
_geom_bond_atom_site_label_1
_geom_bond_atom_site_label_2
_geom_bond_distance
_geom_bond_site_symmetry_2
Na0 O38 2.645749 1_555
Na0 O36 2.705800 1_445
Na0 O37 2.717538 1_445
Na0 O44 2.751219 1_445
Na0 O43 2.753398 1_555
Na0 O42 2.760569 1_455
Na1 O46 2.497916 1_555
Na1 O45 2.575882 1_545
Na1 O47 2.598344 1_655
Na1 O39 2.728675 1_654
Na1 O41 2.813622 1_544
Na1 O40 2.906349 1_654
Na2 O50 2.315172 1_555
Na2 O48 2.322652 1_555
Na2 O49 2.632461 1_555
Na2 O55 2.828944 1_555
Na2 O56 2.879161 1_555
Na2 O54 2.935057 1_555
Na3 O53 2.312611 1_555
Na3 O52 2.343952 1_555
Na3 O51 2.701358 1_555
Na3 O57 2.789471 1_555
Na3 O58 2.916158 1_555
Na3 O59 2.929603 1_555
Na4 O68 2.448458 1_555
Na4 O66 2.456956 1_555
Na4 O67 2.511857 1_555
Na4 O62 2.870244 1_555
Na4 O60 2.874797 1_555
Na4 O61 2.908080 1_555
Na5 O63 2.553890 1_555
Na5 O65 2.607168 1_555
Na5 O64 2.614388 1_555
Na5 O71 2.739194 1_555
Na5 O70 2.747935 1_555
Na5 O69 2.788720 1_555
Ca0 O12 2.204827 1_555
Ca0 O48 2.205273 1_555
Ca0 O50 2.228139 1_555
Ca0 O14 2.244902 1_555
Ca0 O13 2.255504 1_555
Ca0 O49 2.350505 1_555
Ca1 O52 2.170235 1_555
Ca1 O53 2.179293 1_555
Ca1 O16 2.231128 1_555
Ca1 O17 2.266234 1_555
Ca1 O15 2.295559 1_555
Ca1 O51 2.302928 1_555
Ca2 O25 2.145957 1_554
Ca2 O24 2.151410 1_554
Ca2 O26 2.307627 1_554
Ca2 O60 2.312154 1_555
Ca2 O62 2.323511 1_555
Ca2 O61 2.340357 1_555
Ca3 O27 2.161686 1_555
Ca3 O28 2.161832 1_555
Ca3 O29 2.162238 1_555
Ca3 O65 2.382765 1_555
Ca3 O63 2.397227 1_555
Ca3 O64 2.400957 1_555
Nb0 O38 1.896250 1_555
Nb0 O2 1.928636 1_455
Nb0 O0 1.929981 1_545
Nb0 O37 1.950689 1_445
Nb0 O36 1.966559 1_445
Nb0 O1 2.231900 1_445
Nb1 O5 1.855390 1_565
Nb1 O41 1.894079 1_555
Nb1 O4 1.901003 1_655
Nb1 O39 1.966401 1_665
Nb1 O3 2.186968 1_665
Nb1 O40 2.195754 1_665
Nb2 O8 1.897712 1_655
Nb2 O6 1.906676 1_555
Nb2 O44 1.993134 1_555
Nb2 O42 2.131104 1_565
Nb2 O43 2.138414 1_665
Nb2 O7 2.221204 1_665
Nb3 O10 1.837430 1_555
Nb3 O11 1.844541 1_545
Nb3 O9 2.016246 1_445
Nb3 O47 2.147550 1_555
Nb3 O46 2.310552 1_455
Nb3 O45 2.371838 1_445
Nb4 O55 1.883889 1_555
Nb4 O54 1.896638 1_555
Nb4 O19 2.031893 1_556
Nb4 O20 2.130614 1_556
Nb4 O56 2.155027 1_555
Nb4 O18 2.247118 1_556
Nb5 O57 1.862285 1_555
Nb5 O58 1.871532 1_555
Nb5 O59 1.872336 1_555
Nb5 O21 2.272236 1_555
Nb5 O23 2.294363 1_555
Nb5 O22 2.391635 1_555
Nb6 O30 1.885803 1_555
Nb6 O31 1.951291 1_555
Nb6 O32 1.970145 1_555
Nb6 O66 2.043351 1_555
Nb6 O68 2.048716 1_555
Nb6 O67 2.418702 1_555
Nb7 O33 1.959736 1_555
Nb7 O70 1.966844 1_555
Nb7 O35 1.974115 1_555
Nb7 O71 1.994352 1_555
Nb7 O69 2.100262 1_555
Nb7 O34 2.256945 1_555
O0 Si0 1.607579 1_555
O1 S0 1.443551 1_555
O2 Si1 1.607939 1_655
O3 S1 1.468022 1_555
O4 Si2 1.628395 1_555
O5 Si3 1.651361 1_545
O6 Si3 1.701465 1_555
O7 S1 1.493702 1_555
O8 Si2 1.707895 1_555
O9 S0 1.569733 1_555
O10 Si1 1.773489 1_555
O11 Si0 1.767354 1_555
O12 S2 1.457816 1_555
O13 S3 1.456286 1_555
O14 S4 1.452767 1_555
O15 S5 1.447606 1_555
O16 S6 1.447179 1_555
O17 S7 1.448085 1_555
O18 S7 1.511451 1_555
O19 S5 1.574051 1_555
O20 S6 1.540420 1_555
O21 S3 1.502787 1_555
O22 S4 1.477271 1_555
O23 S2 1.498824 1_555
O24 Si4 1.555182 1_555
O25 Si5 1.554826 1_555
O26 S8 1.444358 1_555
O27 Si6 1.560510 1_555
O28 Si7 1.556911 1_555
O29 Si8 1.556616 1_555
O30 Si8 1.689807 1_555
O31 Si6 1.665107 1_555
O32 Si7 1.654994 1_555
O33 Si5 1.672549 1_555
O34 S8 1.493111 1_555
O35 Si4 1.662914 1_555
O36 Si8 1.620324 1_655
O37 Si6 1.624356 1_555
O38 Si7 1.651730 1_555
O39 Si5 1.637366 1_555
O40 S8 1.488437 1_545
O41 Si4 1.663402 1_555
O42 S2 1.545578 1_555
O43 S3 1.549059 1_555
O44 S4 1.596154 1_555
O45 S5 1.501505 1_555
O46 S6 1.513643 1_555
O47 S7 1.550537 1_555
O48 Si3 1.569548 1_545
O49 S1 1.446800 1_555
O50 Si2 1.572406 1_655
O51 S0 1.455970 1_555
O52 Si1 1.573690 1_655
O53 Si0 1.574120 1_545
O54 Si4 1.701945 1_555
O55 Si5 1.727310 1_655
O56 S8 1.519655 1_545
O57 Si6 1.718408 1_545
O58 Si7 1.699324 1_555
O59 Si8 1.692593 1_655
O60 S7 1.453069 1_555
O61 S5 1.447322 1_455
O62 S6 1.453670 1_565
O63 S3 1.454346 1_565
O64 S4 1.445323 1_555
O65 S2 1.452460 1_455
O66 Si0 1.637497 1_555
O67 S0 1.477915 1_555
O68 Si1 1.634023 1_555
O69 S1 1.525458 1_555
O70 Si2 1.661148 1_555
O71 Si3 1.649230 1_555
