# generated using pymatgen
data_Na2Y3Nb5Si6(SO8)6
_symmetry_space_group_name_H-M   'P 1'
_cell_length_a   18.02662995
_cell_length_b   9.02145918
_cell_length_c   23.49697738
_cell_angle_alpha   89.90133915
_cell_angle_beta   89.87304866
_cell_angle_gamma   120.15251461
_symmetry_Int_Tables_number   1
_chemical_formula_structural   Na2Y3Nb5Si6(SO8)6
_chemical_formula_sum   'Na6 Y9 Nb15 Si18 S18 O144'
_cell_volume   3304.15999143
_cell_formula_units_Z   3
loop_
 _symmetry_equiv_pos_site_id
 _symmetry_equiv_pos_as_xyz
  1  'x, y, z'
loop_
 _atom_site_type_symbol
 _atom_site_label
 _atom_site_symmetry_multiplicity
 _atom_site_fract_x
 _atom_site_fract_y
 _atom_site_fract_z
 _atom_site_occupancy
  Na  Na0  1  0.99244696  0.97131981  0.49926648  1
  Na  Na1  1  0.50176540  0.99738431  0.99879267  1
  Na  Na2  1  0.33623385  0.31383315  0.83891582  1
  Na  Na3  1  0.83370886  0.34152193  0.83709450  1
  Na  Na4  1  0.32489014  0.31382005  0.33648904  1
  Na  Na5  1  0.83620972  0.34692856  0.34441107  1
  Y  Y0  1  0.00564384  0.00085173  0.35382492  1
  Y  Y1  1  0.50229906  0.02050842  0.85294721  1
  Y  Y2  1  0.99926529  0.00488944  0.65175635  1
  Y  Y3  1  0.49284658  0.98307667  0.14749547  1
  Y  Y4  1  0.33692970  0.33450017  0.97561809  1
  Y  Y5  1  0.83757741  0.33288692  0.97587245  1
  Y  Y6  1  0.33500904  0.33793576  0.47986974  1
  Y  Y7  1  0.83088964  0.34005043  0.47896471  1
  Y  Y8  1  0.67161710  0.66649635  0.30956305  1
  Nb  Nb0  1  0.49270616  0.99114939  0.36176839  1
  Nb  Nb1  1  0.00556285  0.00900699  0.86306439  1
  Nb  Nb2  1  0.49822218  0.00444894  0.64578677  1
  Nb  Nb3  1  0.00453896  0.01798092  0.14965300  1
  Nb  Nb4  1  0.32542313  0.33650891  0.69027273  1
  Nb  Nb5  1  0.82488370  0.32627069  0.68006773  1
  Nb  Nb6  1  0.34027444  0.35345007  0.18977901  1
  Nb  Nb7  1  0.83352430  0.31869700  0.18440064  1
  Nb  Nb8  1  0.16003636  0.66468845  0.01774829  1
  Nb  Nb9  1  0.66879194  0.66541857  0.02318300  1
  Nb  Nb10  1  0.17349686  0.67827145  0.51970517  1
  Nb  Nb11  1  0.67013239  0.65608413  0.52525637  1
  Nb  Nb12  1  0.16231785  0.67881369  0.30572767  1
  Nb  Nb13  1  0.16711180  0.67347849  0.80720934  1
  Nb  Nb14  1  0.66443809  0.64476095  0.81167423  1
  Si  Si0  1  0.14814488  0.00837763  0.24686407  1
  Si  Si1  1  0.35432622  0.71127880  0.25457961  1
  Si  Si2  1  0.99831502  0.28994895  0.25313329  1
  Si  Si3  1  0.14289964  0.28882440  0.75358360  1
  Si  Si4  1  0.64633506  0.28713783  0.74861686  1
  Si  Si5  1  0.35571559  0.00597889  0.74847060  1
  Si  Si6  1  0.68237285  0.03030352  0.58168790  1
  Si  Si7  1  0.33269410  0.62534579  0.58378685  1
  Si  Si8  1  0.83800658  0.63258730  0.58140645  1
  Si  Si9  1  0.48160333  0.62598212  0.07997121  1
  Si  Si10  1  0.83536696  0.03671980  0.08164651  1
  Si  Si11  1  0.80889741  0.66840488  0.91530645  1
  Si  Si12  1  0.02626794  0.38537735  0.91265843  1
  Si  Si13  1  0.52491171  0.38025896  0.91862227  1
  Si  Si14  1  0.16633286  0.94984014  0.91282176  1
  Si  Si15  1  0.30478219  0.95202041  0.41263528  1
  Si  Si16  1  0.66475668  0.37451000  0.41476499  1
  Si  Si17  1  0.02465622  0.66530127  0.41669948  1
  S  S0  1  0.64888965  0.01407220  0.25093634  1
  S  S1  1  0.85775730  0.70438225  0.24456115  1
  S  S2  1  0.49536073  0.28493507  0.25075452  1
  S  S3  1  0.99679965  0.70076379  0.75250475  1
  S  S4  1  0.49957879  0.70624963  0.74874365  1
  S  S5  1  0.85235090  0.00520469  0.75422090  1
  S  S6  1  0.47884468  0.33336450  0.58493199  1
  S  S7  1  0.98214068  0.34200618  0.58306143  1
  S  S8  1  0.18914270  0.03900601  0.58419790  1
  S  S9  1  0.98009969  0.62868413  0.08476757  1
  S  S10  1  0.32781320  0.03522170  0.08232212  1
  S  S11  1  0.18873940  0.33797186  0.08515955  1
  S  S12  1  0.69026164  0.33956887  0.08358518  1
  S  S13  1  0.30534940  0.66914037  0.91706003  1
  S  S14  1  0.66385059  0.93985826  0.91663576  1
  S  S15  1  0.80996158  0.94758511  0.41997217  1
  S  S16  1  0.16570515  0.38759659  0.41736071  1
  S  S17  1  0.52429173  0.67366551  0.41531676  1
  O  O0  1  0.11512323  0.05610863  0.30293777  1
  O  O1  1  0.60948851  0.04204302  0.30174645  1
  O  O2  1  0.42332210  0.80864784  0.30698134  1
  O  O3  1  0.90627572  0.76719441  0.29748969  1
  O  O4  1  0.48187768  0.17526095  0.30140444  1
  O  O5  1  0.96782425  0.16453057  0.30598263  1
  O  O6  1  0.09397640  0.15535088  0.80694472  1
  O  O7  1  0.61582134  0.17969453  0.80603101  1
  O  O8  1  0.47808712  0.76714378  0.80040119  1
  O  O9  1  0.98312080  0.78248216  0.80256580  1
  O  O10  1  0.41021492  0.05117202  0.80555130  1
  O  O11  1  0.90967772  0.03152779  0.80286817  1
  O  O12  1  0.40472808  0.97772376  0.69453045  1
  O  O13  1  0.88384281  0.96624204  0.70198150  1
  O  O14  1  0.09336510  0.22375822  0.69566739  1
  O  O15  1  0.58325585  0.19122875  0.69489285  1
  O  O16  1  0.01285349  0.80234523  0.70071984  1
  O  O17  1  0.51198833  0.81408079  0.69870045  1
  O  O18  1  0.38836417  0.81473025  0.19691436  1
  O  O19  1  0.90482597  0.81753157  0.19537372  1
  O  O20  1  0.01055164  0.19019306  0.19632942  1
  O  O21  1  0.50904889  0.21429171  0.19885891  1
  O  O22  1  0.08425397  0.98034132  0.19255314  1
  O  O23  1  0.60012292  0.99145432  0.19909483  1
  O  O24  1  0.43721879  0.36000312  0.63463227  1
  O  O25  1  0.93842474  0.36230750  0.63535083  1
  O  O26  1  0.24290792  0.12610526  0.63556969  1
  O  O27  1  0.75060383  0.13268159  0.63849633  1
  O  O28  1  0.31873739  0.49426216  0.63946370  1
  O  O29  1  0.82373700  0.50091110  0.63742850  1
  O  O30  1  0.42948605  0.50029620  0.13870565  1
  O  O31  1  0.93725656  0.51148048  0.13445801  1
  O  O32  1  0.31537427  0.11540098  0.13349746  1
  O  O33  1  0.81948092  0.14042296  0.13859828  1
  O  O34  1  0.24441091  0.36447605  0.13551245  1
  O  O35  1  0.74471280  0.35906350  0.13507249  1
  O  O36  1  0.22029739  0.29778383  0.03408225  1
  O  O37  1  0.72875378  0.31227960  0.03275967  1
  O  O38  1  0.41832404  0.53663305  0.02831301  1
  O  O39  1  0.92936177  0.56054336  0.03336060  1
  O  O40  1  0.33862757  0.13553411  0.03073583  1
  O  O41  1  0.85923055  0.16656341  0.03049731  1
  O  O42  1  0.22796820  0.14137237  0.53289066  1
  O  O43  1  0.72263661  0.15181570  0.52913967  1
  O  O44  1  0.35299595  0.54833772  0.52922231  1
  O  O45  1  0.85274909  0.55457608  0.52599069  1
  O  O46  1  0.42813052  0.29739537  0.53310839  1
  O  O47  1  0.92934375  0.31012804  0.53288324  1
  O  O48  1  0.26006986  0.68302423  0.97052504  1
  O  O49  1  0.76470078  0.69651029  0.97224711  1
  O  O50  1  0.08279773  0.47728788  0.97347995  1
  O  O51  1  0.58647714  0.49301836  0.97243992  1
  O  O52  1  0.15530260  0.82952798  0.97228689  1
  O  O53  1  0.65973005  0.84621278  0.97005934  1
  O  O54  1  0.26464981  0.83937749  0.47277524  1
  O  O55  1  0.75980181  0.83848522  0.47083954  1
  O  O56  1  0.16211197  0.47586401  0.47108882  1
  O  O57  1  0.65220526  0.47478165  0.47201159  1
  O  O58  1  0.08643743  0.67696461  0.47346216  1
  O  O59  1  0.57289575  0.69277838  0.46741793  1
  O  O60  1  0.07833223  0.66073104  0.35927365  1
  O  O61  1  0.56446939  0.65682910  0.36360645  1
  O  O62  1  0.24911107  0.84890697  0.35830477  1
  O  O63  1  0.76264514  0.86999335  0.36721152  1
  O  O64  1  0.17304627  0.48452211  0.36593283  1
  O  O65  1  0.67471288  0.48710625  0.35973778  1
  O  O66  1  0.08148015  0.50638064  0.86040921  1
  O  O67  1  0.57604505  0.49211208  0.85896639  1
  O  O68  1  0.17589204  0.84911711  0.85909723  1
  O  O69  1  0.67143450  0.85517664  0.86464119  1
  O  O70  1  0.25838321  0.66166142  0.86514257  1
  O  O71  1  0.74953877  0.65402535  0.85842665  1
  O  O72  1  0.02063260  0.84056736  0.41811578  1
  O  O73  1  0.51832818  0.83596080  0.40940123  1
  O  O74  1  0.40033530  0.96227308  0.40459480  1
  O  O75  1  0.89336876  0.95428457  0.42030222  1
  O  O76  1  0.08678891  0.21770440  0.41826969  1
  O  O77  1  0.57422619  0.18529837  0.40258032  1
  O  O78  1  0.02133932  0.19774848  0.90692271  1
  O  O79  1  0.51998123  0.19698889  0.92098224  1
  O  O80  1  0.07483450  0.94845005  0.90612081  1
  O  O81  1  0.58447101  0.94885077  0.91494055  1
  O  O82  1  0.39123829  0.82087372  0.91743806  1
  O  O83  1  0.90114952  0.84298290  0.89944410  1
  O  O84  1  0.49314811  0.18520375  0.59418631  1
  O  O85  1  0.99465265  0.19380486  0.59096522  1
  O  O86  1  0.10258254  0.01247633  0.59116185  1
  O  O87  1  0.59058743  0.00579814  0.60380215  1
  O  O88  1  0.41274416  0.81266200  0.60284768  1
  O  O89  1  0.91253943  0.82445998  0.59137913  1
  O  O90  1  0.50057835  0.81895163  0.08741328  1
  O  O91  1  0.99462675  0.80046889  0.09717155  1
  O  O92  1  0.40406530  0.01581124  0.08712733  1
  O  O93  1  0.91461788  0.00843707  0.10253870  1
  O  O94  1  0.10022295  0.18699881  0.09676552  1
  O  O95  1  0.60330476  0.19549863  0.09173935  1
  O  O96  1  0.34125967  0.16801430  0.73025269  1
  O  O97  1  0.84667430  0.16466759  0.74628473  1
  O  O98  1  0.24173212  0.31092907  0.74418098  1
  O  O99  1  0.74472600  0.32000475  0.73418286  1
  O  O100  1  0.42423215  0.52502339  0.73769530  1
  O  O101  1  0.92179859  0.52482763  0.74552107  1
  O  O102  1  0.34737122  0.51625556  0.24300238  1
  O  O103  1  0.84547775  0.53003050  0.23292369  1
  O  O104  1  0.41310751  0.29433272  0.24474432  1
  O  O105  1  0.91685602  0.32134427  0.23213073  1
  O  O106  1  0.24375236  0.16875105  0.22869258  1
  O  O107  1  0.73813231  0.17764415  0.24296385  1
  O  O108  1  0.30686180  0.50884539  0.92080053  1
  O  O109  1  0.81780523  0.50136234  0.91692731  1
  O  O110  1  0.43416546  0.37300276  0.91431042  1
  O  O111  1  0.93360981  0.36460697  0.91476874  1
  O  O112  1  0.24555235  0.13740901  0.91677925  1
  O  O113  1  0.74076393  0.11306583  0.91879297  1
  O  O114  1  0.32128995  0.14298940  0.41639813  1
  O  O115  1  0.81969583  0.11693424  0.42436461  1
  O  O116  1  0.24252611  0.36758193  0.42077427  1
  O  O117  1  0.74219288  0.33802234  0.41726134  1
  O  O118  1  0.43610811  0.52618783  0.41829558  1
  O  O119  1  0.93486523  0.48965958  0.41493750  1
  O  O120  1  0.17894287  0.49122067  0.07736728  1
  O  O121  1  0.68745963  0.50132135  0.07860999  1
  O  O122  1  0.06652663  0.64017715  0.07651032  1
  O  O123  1  0.57447258  0.63262900  0.07167893  1
  O  O124  1  0.24990599  0.85847982  0.07410998  1
  O  O125  1  0.74917390  0.85301473  0.07319361  1
  O  O126  1  0.18462304  0.86964692  0.57815950  1
  O  O127  1  0.67182609  0.83996585  0.56985564  1
  O  O128  1  0.24641430  0.64056095  0.57252231  1
  O  O129  1  0.74522215  0.63519422  0.57368492  1
  O  O130  1  0.06750033  0.50036448  0.57673575  1
  O  O131  1  0.56468021  0.48993310  0.57647828  1
  O  O132  1  0.15766314  0.83796475  0.25436304  1
  O  O133  1  0.66456139  0.87197373  0.25770154  1
  O  O134  1  0.25895459  0.66817460  0.27081075  1
  O  O135  1  0.77354028  0.69116021  0.24720019  1
  O  O136  1  0.08173242  0.47683260  0.25954417  1
  O  O137  1  0.56549248  0.46036277  0.25821904  1
  O  O138  1  0.16317928  0.48174436  0.76902160  1
  O  O139  1  0.65859993  0.48222521  0.75801682  1
  O  O140  1  0.07498160  0.68264628  0.76046088  1
  O  O141  1  0.57640219  0.68857980  0.75640485  1
  O  O142  1  0.25949314  0.83723503  0.75924265  1
  O  O143  1  0.76389441  0.85952386  0.76504278  1
loop_
_geom_bond_atom_site_label_1
_geom_bond_atom_site_label_2
_geom_bond_distance
_geom_bond_site_symmetry_2
Na0 O72 2.427134 1_655
Na0 O75 2.529048 1_555
Na0 O89 2.563947 1_555
Na0 O76 2.761972 1_665
Na0 O86 2.832524 1_665
Na0 O85 2.933902 1_565
Na1 O79 2.466805 1_565
Na1 O90 2.623235 1_556
Na1 O81 2.634808 1_555
Na1 O82 2.645688 1_555
Na1 O92 2.777894 1_566
Na1 O95 2.838858 1_566
Na2 O110 2.368605 1_555
Na2 O112 2.432206 1_555
Na2 O98 2.798201 1_555
Na2 O108 2.832023 1_555
Na2 O96 2.896227 1_555
Na2 O100 2.955411 1_555
Na3 O109 2.470327 1_555
Na3 O111 2.501330 1_555
Na3 O101 2.687121 1_555
Na3 O113 2.691310 1_555
Na3 O97 2.745404 1_555
Na3 O99 2.857264 1_555
Na4 O114 2.407033 1_555
Na4 O116 2.659999 1_555
Na4 O104 2.733854 1_555
Na4 O118 2.748811 1_555
Na4 O102 2.750179 1_555
Na4 O106 2.893518 1_555
Na5 O119 2.299321 1_555
Na5 O117 2.378828 1_555
Na5 O115 2.699395 1_555
Na5 O107 2.908417 1_555
Nb0 O74 1.846363 1_555
Nb0 O77 1.890284 1_565
Nb0 O2 1.969267 1_555
Nb0 O73 2.018067 1_555
Nb0 O4 2.264393 1_565
Nb0 O1 2.375979 1_565
Nb1 O78 1.887596 1_555
Nb1 O80 1.889539 1_545
Nb1 O83 1.916540 1_445
Nb1 O6 1.973028 1_555
Nb1 O11 2.322109 1_455
Nb1 O9 2.354286 1_445
Nb2 O87 1.928215 1_555
Nb2 O88 1.928846 1_545
Nb2 O12 1.947486 1_545
Nb2 O15 1.984961 1_555
Nb2 O84 2.069065 1_555
Nb2 O17 2.231373 1_545
Nb3 O20 1.861594 1_555
Nb3 O22 1.921407 1_545
Nb3 O93 1.930955 1_455
Nb3 O94 2.046027 1_555
Nb3 O19 2.091529 1_445
Nb3 O91 2.249488 1_445
Nb4 O98 1.890656 1_555
Nb4 O28 1.905864 1_555
Nb4 O96 1.925307 1_555
Nb4 O100 2.068506 1_555
Nb4 O26 2.155946 1_555
Nb4 O24 2.318158 1_555
Nb5 O27 1.859995 1_555
Nb5 O29 1.874520 1_555
Nb5 O99 1.901977 1_555
Nb5 O25 2.172496 1_555
Nb5 O97 2.295821 1_555
Nb5 O101 2.345993 1_555
Nb6 O102 1.885687 1_555
Nb6 O30 1.904500 1_555
Nb6 O106 1.927446 1_555
Nb6 O104 2.094001 1_555
Nb6 O34 2.191827 1_555
Nb6 O32 2.367768 1_555
Nb7 O33 1.845828 1_555
Nb7 O105 1.867205 1_555
Nb7 O107 2.062771 1_555
Nb7 O103 2.139417 1_555
Nb7 O31 2.148173 1_555
Nb7 O35 2.152121 1_555
Nb8 O52 1.866067 1_554
Nb8 O50 1.877899 1_554
Nb8 O48 2.049681 1_554
Nb8 O122 2.100226 1_555
Nb8 O124 2.146397 1_555
Nb8 O120 2.248996 1_555
Nb9 O51 1.933429 1_554
Nb9 O123 1.939549 1_555
Nb9 O125 1.973698 1_555
Nb9 O49 2.000683 1_554
Nb9 O121 2.120554 1_555
Nb9 O53 2.122878 1_554
Nb10 O54 1.901487 1_555
Nb10 O58 1.905982 1_555
Nb10 O128 1.959270 1_555
Nb10 O56 2.076803 1_555
Nb10 O126 2.137522 1_555
Nb10 O130 2.218801 1_555
Nb11 O129 1.850682 1_555
Nb11 O127 1.950964 1_555
Nb11 O57 1.955179 1_555
Nb11 O55 2.065665 1_555
Nb11 O131 2.104775 1_555
Nb11 O59 2.370856 1_555
Nb12 O132 1.908046 1_555
Nb12 O60 1.909048 1_555
Nb12 O134 1.969500 1_555
Nb12 O62 1.982929 1_555
Nb12 O136 1.990664 1_555
Nb12 O64 2.333262 1_555
Nb13 O138 1.919517 1_555
Nb13 O142 1.934030 1_555
Nb13 O68 1.943649 1_555
Nb13 O66 1.965996 1_555
Nb13 O140 2.029147 1_555
Nb13 O70 2.181074 1_555
Nb14 O71 1.856381 1_555
Nb14 O67 1.858149 1_555
Nb14 O139 1.898065 1_555
Nb14 O143 2.159415 1_555
Nb14 O69 2.221833 1_555
Nb14 O141 2.235832 1_555
O0 Si0 1.591138 1_555
O0 Y0 2.138273 1_555
O1 S0 1.473380 1_555
O2 Si1 1.657574 1_555
O3 S1 1.463595 1_555
O3 Y0 2.372988 1_665
O4 S2 1.485761 1_555
O5 Si2 1.578525 1_555
O5 Y0 2.217643 1_655
O6 Si3 1.650105 1_555
O7 Si4 1.587023 1_555
O7 Y1 2.120762 1_555
O8 S4 1.462605 1_555
O8 Y1 2.439121 1_565
O9 S3 1.473860 1_555
O10 Si5 1.592364 1_555
O10 Y1 2.130891 1_555
O11 S5 1.480053 1_555
O12 Si5 1.635354 1_565
O13 S5 1.466754 1_565
O13 Y2 2.258856 1_565
O14 Si3 1.573342 1_555
O14 Y2 2.119123 1_455
O15 Si4 1.630001 1_555
O16 S3 1.460243 1_455
O16 Y2 2.272908 1_465
O17 S4 1.468095 1_555
O18 Si1 1.581168 1_555
O18 Y3 2.076761 1_555
O19 S1 1.489687 1_555
O20 Si2 1.685910 1_455
O21 S2 1.453713 1_555
O21 Y3 2.300225 1_545
O22 Si0 1.653478 1_565
O23 S0 1.457279 1_565
O23 Y3 2.253725 1_555
O24 S6 1.470656 1_555
O25 S7 1.518423 1_555
O26 S8 1.502400 1_555
O27 Si6 1.737216 1_555
O28 Si7 1.693388 1_555
O29 Si8 1.701827 1_555
O30 Si9 1.729634 1_555
O31 S9 1.499691 1_555
O32 S10 1.477890 1_555
O33 Si10 1.737757 1_555
O34 S11 1.493090 1_555
O35 S12 1.513469 1_555
O36 S11 1.449531 1_555
O36 Y4 2.388161 1_554
O37 S12 1.461937 1_555
O37 Y5 2.300168 1_554
O38 Si9 1.584324 1_555
O38 Y4 2.083051 1_554
O39 S9 1.454682 1_555
O39 Y5 2.320770 1_554
O40 S10 1.464291 1_555
O40 Y4 2.224293 1_554
O41 Si10 1.577424 1_555
O41 Y5 2.152951 1_554
O42 S8 1.462594 1_555
O42 Y6 2.228051 1_555
O43 Si6 1.563681 1_555
O43 Y7 2.176139 1_555
O44 Si7 1.586435 1_555
O44 Y6 2.108021 1_555
O45 Si8 1.565540 1_555
O45 Y7 2.089237 1_555
O46 S6 1.460181 1_555
O46 Y6 2.267389 1_555
O47 S7 1.452525 1_555
O47 Y7 2.306068 1_555
O48 S13 1.535852 1_555
O49 Si11 1.639663 1_555
O50 Si12 1.711736 1_555
O51 Si13 1.655921 1_555
O52 Si14 1.716582 1_555
O53 S14 1.492611 1_555
O54 Si15 1.674780 1_555
O55 S15 1.520526 1_555
O56 S16 1.512277 1_555
O57 Si16 1.699206 1_555
O58 Si17 1.708698 1_555
O59 S17 1.466228 1_555
O60 Si17 1.671266 1_555
O61 S17 1.459862 1_555
O61 Y8 2.273852 1_555
O62 Si15 1.604402 1_555
O63 S15 1.470469 1_555
O63 Y8 2.211302 1_555
O64 S16 1.456619 1_555
O65 Si16 1.595965 1_555
O65 Y8 2.024004 1_555
O66 Si12 1.608718 1_555
O67 Si13 1.699331 1_555
O68 Si14 1.615310 1_555
O69 S14 1.484014 1_555
O70 S13 1.468670 1_555
O71 Si11 1.677955 1_555
O72 Si17 1.619199 1_555
O72 Y0 2.198351 1_565
O73 S17 1.527113 1_555
O74 Si15 1.688105 1_555
O75 S15 1.474157 1_555
O75 Y0 2.417078 1_665
O76 S16 1.477382 1_555
O76 Y0 2.324880 1_555
O77 Si16 1.692399 1_555
O78 Si12 1.655597 1_555
O79 Si13 1.611403 1_555
O79 Y1 2.166379 1_555
O80 Si14 1.651021 1_555
O81 S14 1.473987 1_555
O81 Y1 2.387942 1_565
O82 S13 1.463556 1_555
O82 Y1 2.429591 1_565
O83 Si11 1.658001 1_555
O84 S6 1.498603 1_555
O85 S7 1.474851 1_555
O85 Y2 2.255301 1_555
O86 S8 1.463702 1_555
O86 Y2 2.315269 1_455
O87 Si6 1.638549 1_555
O88 Si7 1.641427 1_555
O89 Si8 1.588318 1_555
O89 Y2 2.137200 1_565
O90 Si9 1.606640 1_555
O90 Y3 2.102006 1_555
O91 S9 1.466094 1_555
O92 S10 1.474883 1_555
O92 Y3 2.268051 1_545
O93 Si10 1.648010 1_555
O94 S11 1.512950 1_555
O95 S12 1.460900 1_555
O95 Y3 2.345209 1_545
O96 Si5 1.664038 1_555
O97 S5 1.503938 1_555
O98 Si3 1.704089 1_555
O99 Si4 1.678531 1_555
O100 S4 1.535373 1_555
O101 S3 1.490018 1_555
O102 Si1 1.722030 1_555
O103 S1 1.499926 1_555
O104 S2 1.533900 1_555
O105 Si2 1.703115 1_555
O106 Si0 1.653940 1_555
O107 S0 1.553556 1_555
O108 S13 1.462477 1_555
O108 Y4 2.297666 1_555
O109 Si11 1.594088 1_555
O109 Y5 2.212373 1_555
O110 Si13 1.607399 1_555
O110 Y4 2.154920 1_555
O111 Si12 1.585148 1_655
O111 Y5 2.151749 1_555
O112 Si14 1.576347 1_545
O112 Y4 2.205092 1_555
O113 S14 1.480097 1_545
O113 Y5 2.306500 1_555
O114 Si15 1.596897 1_545
O114 Y6 2.225344 1_555
O115 S15 1.451497 1_545
O115 Y7 2.310877 1_555
O116 S16 1.486072 1_555
O116 Y6 2.288224 1_555
O117 Si16 1.588168 1_555
O117 Y7 2.154030 1_555
O118 S17 1.475296 1_555
O118 Y6 2.273628 1_555
O119 Si17 1.598866 1_655
O119 Y7 2.244377 1_555
O120 S11 1.490182 1_555
O121 S12 1.489663 1_555
O122 S9 1.520534 1_455
O123 Si9 1.655868 1_555
O124 S10 1.518085 1_565
O125 Si10 1.617358 1_565
O126 S8 1.495622 1_565
O127 Si6 1.654046 1_565
O128 Si7 1.650495 1_555
O129 Si8 1.694662 1_555
O130 S7 1.490180 1_455
O131 S6 1.493588 1_555
O132 Si0 1.639575 1_565
O133 S0 1.453190 1_565
O133 Y8 2.273132 1_555
O134 Si1 1.605421 1_555
O135 S1 1.463040 1_555
O135 Y8 2.269088 1_555
O136 Si2 1.606654 1_455
O137 S2 1.457960 1_555
O137 Y8 2.239974 1_555
O138 Si3 1.630297 1_555
O139 Si4 1.675056 1_555
O140 S3 1.510109 1_455
O141 S4 1.482719 1_555
O142 Si5 1.653553 1_565
O143 S5 1.492082 1_565
