# generated using pymatgen
data_Na14Y4Hf4Si9(SO16)3
_symmetry_space_group_name_H-M   'P 1'
_cell_length_a   18.69591527
_cell_length_b   9.33641703
_cell_length_c   22.77563281
_cell_angle_alpha   89.99111615
_cell_angle_beta   89.94218169
_cell_angle_gamma   119.96572436
_symmetry_Int_Tables_number   1
_chemical_formula_structural   Na14Y4Hf4Si9(SO16)3
_chemical_formula_sum   'Na42 Y12 Hf12 Si27 S9 O144'
_cell_volume   3444.11469383
_cell_formula_units_Z   3
loop_
 _symmetry_equiv_pos_site_id
 _symmetry_equiv_pos_as_xyz
  1  'x, y, z'
loop_
 _atom_site_type_symbol
 _atom_site_label
 _atom_site_symmetry_multiplicity
 _atom_site_fract_x
 _atom_site_fract_y
 _atom_site_fract_z
 _atom_site_occupancy
  Na  Na0  1  0.82442896  0.01591494  0.25981356  1
  Na  Na1  1  0.17154479  0.34559034  0.25634616  1
  Na  Na2  1  0.69462644  0.36901575  0.25544538  1
  Na  Na3  1  0.99681389  0.62953607  0.24304412  1
  Na  Na4  1  0.49797475  0.65149400  0.24693986  1
  Na  Na5  1  0.32237189  0.63193564  0.75413612  1
  Na  Na6  1  0.99679005  0.34293784  0.73503959  1
  Na  Na7  1  0.50009551  0.36845128  0.73834138  1
  Na  Na8  1  0.19216116  0.01838785  0.74792776  1
  Na  Na9  1  0.67864309  0.00260136  0.74668256  1
  Na  Na10  1  0.14369739  0.31162409  0.57983704  1
  Na  Na11  1  0.65638269  0.32903569  0.58160401  1
  Na  Na12  1  0.33564918  0.99921477  0.58947229  1
  Na  Na13  1  0.83368911  0.97568806  0.58330436  1
  Na  Na14  1  0.14682359  0.98017238  0.07866892  1
  Na  Na15  1  0.64800109  0.97870561  0.07661051  1
  Na  Na16  1  0.33428486  0.67630557  0.08147166  1
  Na  Na17  1  0.83611208  0.67451179  0.09049233  1
  Na  Na18  1  0.47987420  0.67855958  0.91548859  1
  Na  Na19  1  0.97763820  0.68106397  0.93012009  1
  Na  Na20  1  0.33981810  0.01675104  0.90120631  1
  Na  Na21  1  0.83937066  0.01413771  0.90404875  1
  Na  Na22  1  0.17629270  0.29544438  0.90714314  1
  Na  Na23  1  0.67104851  0.28649559  0.90778506  1
  Na  Na24  1  0.48334593  0.28226240  0.43521029  1
  Na  Na25  1  0.97818412  0.27656311  0.42279876  1
  Na  Na26  1  0.16858862  0.05466809  0.41330081  1
  Na  Na27  1  0.67804063  0.05692216  0.41681367  1
  Na  Na28  1  0.34197798  0.66804470  0.40948109  1
  Na  Na29  1  0.84179125  0.66481750  0.42166889  1
  Na  Na30  1  0.99551177  0.99110654  0.50382446  1
  Na  Na31  1  0.51038348  0.01885914  0.50552479  1
  Na  Na32  1  0.00493911  0.99570617  0.00270755  1
  Na  Na33  1  0.50686897  0.99797548  0.99745039  1
  Na  Na34  1  0.32884060  0.33768745  0.82323452  1
  Na  Na35  1  0.81553104  0.32696963  0.82646156  1
  Na  Na36  1  0.31428942  0.29686326  0.33435936  1
  Na  Na37  1  0.82731315  0.31794564  0.33144331  1
  Na  Na38  1  0.14987098  0.64164725  0.16756705  1
  Na  Na39  1  0.66255701  0.65517920  0.16774314  1
  Na  Na40  1  0.15990210  0.66841970  0.66560144  1
  Na  Na41  1  0.66008863  0.66116360  0.66311169  1
  Y  Y0  1  0.00136130  0.00812244  0.35051810  1
  Y  Y1  1  0.50082086  0.00380186  0.35135515  1
  Y  Y2  1  0.99985189  0.99805127  0.84945083  1
  Y  Y3  1  0.50161387  0.99455578  0.84892995  1
  Y  Y4  1  0.33610469  0.32944433  0.68087053  1
  Y  Y5  1  0.83567086  0.34270557  0.18176694  1
  Y  Y6  1  0.33083615  0.33817446  0.98429350  1
  Y  Y7  1  0.82630690  0.33640595  0.98490023  1
  Y  Y8  1  0.32750016  0.31809582  0.48518257  1
  Y  Y9  1  0.83165275  0.33449191  0.48766186  1
  Y  Y10  1  0.67425281  0.67591689  0.31511252  1
  Y  Y11  1  0.17243146  0.67012942  0.81296921  1
  Hf  Hf0  1  0.99624483  0.00196119  0.64771320  1
  Hf  Hf1  1  0.50765941  0.01052595  0.65456113  1
  Hf  Hf2  1  0.00654774  0.00503467  0.15406002  1
  Hf  Hf3  1  0.50081478  0.99187415  0.14959386  1
  Hf  Hf4  1  0.82876141  0.32716515  0.67815041  1
  Hf  Hf5  1  0.33058503  0.34342752  0.18278097  1
  Hf  Hf6  1  0.16685062  0.66898343  0.01976217  1
  Hf  Hf7  1  0.66556190  0.66551322  0.02026132  1
  Hf  Hf8  1  0.16498328  0.66524451  0.51983384  1
  Hf  Hf9  1  0.67242327  0.66404121  0.52181177  1
  Hf  Hf10  1  0.17570592  0.67149418  0.30891973  1
  Hf  Hf11  1  0.67638343  0.68253668  0.80816208  1
  Si  Si0  1  0.15473877  0.00252464  0.25080985  1
  Si  Si1  1  0.64863241  0.99450288  0.25037829  1
  Si  Si2  1  0.35169616  0.69794041  0.24994948  1
  Si  Si3  1  0.85162379  0.70460246  0.24909827  1
  Si  Si4  1  0.00100901  0.30154733  0.25391909  1
  Si  Si5  1  0.14764195  0.29914725  0.75065124  1
  Si  Si6  1  0.65514404  0.30773728  0.75246092  1
  Si  Si7  1  0.50108237  0.70045100  0.75474972  1
  Si  Si8  1  0.35101261  0.99943294  0.74999070  1
  Si  Si9  1  0.85257935  0.01514242  0.75217924  1
  Si  Si10  1  0.48835607  0.32652422  0.58234236  1
  Si  Si11  1  0.98663157  0.33900818  0.58478319  1
  Si  Si12  1  0.17570433  0.01952016  0.58440089  1
  Si  Si13  1  0.67851286  0.02342851  0.58206205  1
  Si  Si14  1  0.83666844  0.63737908  0.57863915  1
  Si  Si15  1  0.48670857  0.63604467  0.08474250  1
  Si  Si16  1  0.98944770  0.64970519  0.08245043  1
  Si  Si17  1  0.17929114  0.33549721  0.08251879  1
  Si  Si18  1  0.67361391  0.32942056  0.08435163  1
  Si  Si19  1  0.31829260  0.67300458  0.92014406  1
  Si  Si20  1  0.81066941  0.66625639  0.91808353  1
  Si  Si21  1  0.16659448  0.96361079  0.91581789  1
  Si  Si22  1  0.66822880  0.95973626  0.91767716  1
  Si  Si23  1  0.31073805  0.95665549  0.41766188  1
  Si  Si24  1  0.81845778  0.96904453  0.41868843  1
  Si  Si25  1  0.16855019  0.37692513  0.41692305  1
  Si  Si26  1  0.66655152  0.36732632  0.41396607  1
  S  S0  1  0.49318457  0.29112567  0.24714719  1
  S  S1  1  0.99400200  0.69469695  0.74854462  1
  S  S2  1  0.33376135  0.64500127  0.58168477  1
  S  S3  1  0.33403803  0.03359364  0.08277607  1
  S  S4  1  0.83411506  0.02340343  0.08150610  1
  S  S5  1  0.02075550  0.37457984  0.91950132  1
  S  S6  1  0.52514879  0.38327454  0.91601159  1
  S  S7  1  0.02578490  0.66475302  0.41394733  1
  S  S8  1  0.52017294  0.66520756  0.41811714  1
  O  O0  1  0.12292663  0.05219752  0.31019394  1
  O  O1  1  0.61019442  0.02363566  0.31075085  1
  O  O2  1  0.40620770  0.77103327  0.30923993  1
  O  O3  1  0.90310821  0.79039728  0.30891458  1
  O  O4  1  0.48439553  0.20631756  0.30382270  1
  O  O5  1  0.98834046  0.20578128  0.31613345  1
  O  O6  1  0.11221440  0.20167928  0.81363001  1
  O  O7  1  0.62016508  0.19840845  0.81255517  1
  O  O8  1  0.48691568  0.76649349  0.81774978  1
  O  O9  1  0.98656074  0.76237980  0.80612058  1
  O  O10  1  0.39903324  0.01231049  0.81163001  1
  O  O11  1  0.90361414  0.04137933  0.81324016  1
  O  O12  1  0.40554267  0.99071217  0.69444831  1
  O  O13  1  0.90425084  0.99818393  0.69740538  1
  O  O14  1  0.08776965  0.17663856  0.69802650  1
  O  O15  1  0.59214935  0.20581687  0.69737216  1
  O  O16  1  0.99942243  0.80580356  0.70058596  1
  O  O17  1  0.51472488  0.83989285  0.70469133  1
  O  O18  1  0.39973466  0.81306522  0.19297110  1
  O  O19  1  0.90382433  0.81873259  0.19157378  1
  O  O20  1  0.01529540  0.19229514  0.20259814  1
  O  O21  1  0.49789491  0.19046282  0.19838143  1
  O  O22  1  0.09245925  0.97949286  0.19520330  1
  O  O23  1  0.58841540  0.99352343  0.19572719  1
  O  O24  1  0.44643150  0.34970832  0.64116200  1
  O  O25  1  0.93680811  0.35455510  0.64193071  1
  O  O26  1  0.23853868  0.10368098  0.63972331  1
  O  O27  1  0.74380231  0.12537545  0.63703864  1
  O  O28  1  0.32198466  0.54039881  0.63346040  1
  O  O29  1  0.82194336  0.49486736  0.62753015  1
  O  O30  1  0.43598369  0.51657531  0.14095612  1
  O  O31  1  0.94725115  0.54307257  0.14112591  1
  O  O32  1  0.32496014  0.13023340  0.13088337  1
  O  O33  1  0.82242810  0.10387979  0.13324106  1
  O  O34  1  0.24650755  0.36067002  0.13581972  1
  O  O35  1  0.73498078  0.36456571  0.13986966  1
  O  O36  1  0.21730894  0.29690187  0.02391445  1
  O  O37  1  0.71270433  0.28310938  0.02716155  1
  O  O38  1  0.43297665  0.55762954  0.02551323  1
  O  O39  1  0.93138320  0.56036454  0.02447674  1
  O  O40  1  0.34631882  0.11987395  0.02620683  1
  O  O41  1  0.84150562  0.11700638  0.02740065  1
  O  O42  1  0.21544229  0.14156030  0.52677713  1
  O  O43  1  0.71524744  0.13941359  0.52374848  1
  O  O44  1  0.34187928  0.56689585  0.52761296  1
  O  O45  1  0.85205590  0.58021201  0.51511425  1
  O  O46  1  0.42810842  0.29406556  0.52523090  1
  O  O47  1  0.93393720  0.30924357  0.52518347  1
  O  O48  1  0.26311320  0.67307042  0.97768122  1
  O  O49  1  0.76132642  0.67199881  0.97758576  1
  O  O50  1  0.07461344  0.47392647  0.96970180  1
  O  O51  1  0.57390156  0.47918303  0.96801965  1
  O  O52  1  0.16375401  0.84569392  0.97187723  1
  O  O53  1  0.66345773  0.85221377  0.97701845  1
  O  O54  1  0.26105602  0.85109626  0.47667435  1
  O  O55  1  0.76113434  0.85241165  0.47383617  1
  O  O56  1  0.16471516  0.47845034  0.47525092  1
  O  O57  1  0.66393040  0.48206307  0.46850872  1
  O  O58  1  0.07457361  0.66766591  0.46612296  1
  O  O59  1  0.57379265  0.67300294  0.46713339  1
  O  O60  1  0.06759243  0.65719695  0.35948475  1
  O  O61  1  0.55369434  0.64783055  0.36111757  1
  O  O62  1  0.25378873  0.85297850  0.36102929  1
  O  O63  1  0.76748714  0.88965686  0.35730347  1
  O  O64  1  0.17070946  0.48383133  0.35826573  1
  O  O65  1  0.66485807  0.45278767  0.35154059  1
  O  O66  1  0.05548886  0.46422874  0.86402219  1
  O  O67  1  0.56385613  0.47564288  0.86151942  1
  O  O68  1  0.16818797  0.87521855  0.85446802  1
  O  O69  1  0.67020425  0.85460881  0.86023895  1
  O  O70  1  0.26452847  0.64852642  0.86045976  1
  O  O71  1  0.75305749  0.65516285  0.86212190  1
  O  O72  1  0.02192637  0.81986674  0.41579136  1
  O  O73  1  0.51464904  0.81939066  0.41938639  1
  O  O74  1  0.40151845  0.96983189  0.41660337  1
  O  O75  1  0.90656456  0.96869715  0.42231552  1
  O  O76  1  0.08854687  0.19024583  0.42039519  1
  O  O77  1  0.58220515  0.18370473  0.42107432  1
  O  O78  1  0.01766170  0.21250684  0.92071711  1
  O  O79  1  0.52212558  0.22124737  0.91771682  1
  O  O80  1  0.08309251  0.98049528  0.92105805  1
  O  O81  1  0.58770086  0.98532105  0.92008762  1
  O  O82  1  0.40656521  0.84790412  0.92277516  1
  O  O83  1  0.90199974  0.83400571  0.91711133  1
  O  O84  1  0.49633627  0.15729407  0.58779744  1
  O  O85  1  0.99573281  0.17114992  0.59244634  1
  O  O86  1  0.08505247  0.00305231  0.59346289  1
  O  O87  1  0.58822649  0.00591746  0.59380687  1
  O  O88  1  0.40534142  0.81339522  0.58772797  1
  O  O89  1  0.90966775  0.82494090  0.59366939  1
  O  O90  1  0.49151475  0.82008918  0.09123362  1
  O  O91  1  0.99751613  0.83549335  0.08628985  1
  O  O92  1  0.40286774  0.00139576  0.09264538  1
  O  O93  1  0.90600249  0.99846605  0.08682650  1
  O  O94  1  0.08903457  0.17288751  0.09292892  1
  O  O95  1  0.58036547  0.16649541  0.09186518  1
  O  O96  1  0.34062854  0.16348301  0.74848201  1
  O  O97  1  0.84252030  0.18023418  0.74415027  1
  O  O98  1  0.24254406  0.33652871  0.74418325  1
  O  O99  1  0.74520277  0.32311078  0.73973927  1
  O  O100  1  0.41932600  0.52211119  0.74427118  1
  O  O101  1  0.92155040  0.52627038  0.74229763  1
  O  O102  1  0.34259631  0.51108382  0.24216813  1
  O  O103  1  0.84051260  0.51919932  0.24735584  1
  O  O104  1  0.42044765  0.31404035  0.24013408  1
  O  O105  1  0.91939506  0.31670743  0.24396196  1
  O  O106  1  0.24661061  0.16328844  0.23660454  1
  O  O107  1  0.74255630  0.14657039  0.24346936  1
  O  O108  1  0.33182227  0.51179801  0.92040305  1
  O  O109  1  0.82040310  0.50012347  0.91688048  1
  O  O110  1  0.44000994  0.35715015  0.92001779  1
  O  O111  1  0.93678383  0.35051582  0.92647649  1
  O  O112  1  0.25304608  0.14297791  0.91813580  1
  O  O113  1  0.75519078  0.13904829  0.91623113  1
  O  O114  1  0.32001859  0.14164675  0.41635275  1
  O  O115  1  0.83194962  0.15652346  0.42057365  1
  O  O116  1  0.25585744  0.37274751  0.41566957  1
  O  O117  1  0.75134514  0.35563244  0.41517523  1
  O  O118  1  0.43575512  0.51953260  0.42422322  1
  O  O119  1  0.94253382  0.51750912  0.41581052  1
  O  O120  1  0.17799173  0.51058652  0.08043610  1
  O  O121  1  0.66835229  0.49930974  0.07671121  1
  O  O122  1  0.08520150  0.68227796  0.07694322  1
  O  O123  1  0.58295487  0.67659652  0.08194633  1
  O  O124  1  0.25521116  0.86806576  0.08145596  1
  O  O125  1  0.75708155  0.85335506  0.07889096  1
  O  O126  1  0.16948089  0.83841785  0.57622855  1
  O  O127  1  0.67504491  0.84498880  0.57835743  1
  O  O128  1  0.25653614  0.65965926  0.57879617  1
  O  O129  1  0.75040557  0.64815410  0.57912577  1
  O  O130  1  0.08272712  0.49435669  0.58135247  1
  O  O131  1  0.58212443  0.48396309  0.57462796  1
  O  O132  1  0.15372140  0.82642414  0.25472996  1
  O  O133  1  0.64195669  0.81292892  0.24671198  1
  O  O134  1  0.25700135  0.66519511  0.25245816  1
  O  O135  1  0.75996410  0.68986942  0.24563153  1
  O  O136  1  0.08428686  0.48704759  0.25379719  1
  O  O137  1  0.56941701  0.45619491  0.24578883  1
  O  O138  1  0.14244474  0.46980950  0.74653394  1
  O  O139  1  0.65538606  0.48336522  0.75579513  1
  O  O140  1  0.07073797  0.68298238  0.74711560  1
  O  O141  1  0.58429363  0.68134850  0.75431573  1
  O  O142  1  0.25938709  0.83083063  0.74522512  1
  O  O143  1  0.75814409  0.85324709  0.75359301  1
loop_
_geom_bond_atom_site_label_1
_geom_bond_atom_site_label_2
_geom_bond_distance
_geom_bond_site_symmetry_2
Na0 O107 2.415759 1_555
Na0 O105 2.487326 1_555
Na0 O63 2.488743 1_545
Na0 O135 2.675723 1_545
Na1 O136 2.561537 1_555
Na1 O134 2.588748 1_555
Na1 O64 2.659969 1_555
Na1 O0 2.709827 1_555
Na1 O106 2.730185 1_555
Na1 O102 2.789317 1_555
Na1 O20 2.812767 1_555
Na2 O103 2.370155 1_555
Na2 O65 2.478807 1_555
Na2 O135 2.619091 1_555
Na2 O107 2.655081 1_555
Na2 O35 2.743599 1_555
Na2 O137 2.845184 1_555
Na3 O31 2.481165 1_555
Na3 O105 2.530369 1_555
Na3 O103 2.569492 1_555
Na3 O132 2.582699 1_655
Na3 O136 2.584244 1_655
Na3 O60 2.918356 1_655
Na4 O133 2.337703 1_555
Na4 O102 2.522992 1_555
Na4 O30 2.702741 1_555
Na4 O104 2.736778 1_555
Na4 O137 2.746339 1_555
Na4 O61 2.808887 1_555
Na4 O2 2.847959 1_555
Na5 O98 2.403017 1_555
Na5 O100 2.498698 1_555
Na5 O142 2.657244 1_555
Na5 O70 2.686960 1_555
Na5 O28 2.877341 1_555
Na5 O138 2.924331 1_555
Na6 O138 2.380422 1_655
Na6 O25 2.427463 1_555
Na6 O97 2.508233 1_555
Na6 O101 2.709382 1_555
Na6 O140 2.771771 1_655
Na7 O24 2.401091 1_555
Na7 O100 2.553523 1_555
Na7 O141 2.559720 1_555
Na7 O139 2.574691 1_555
Na7 O96 2.627378 1_555
Na8 O96 2.404944 1_555
Na8 O26 2.600897 1_555
Na8 O142 2.616933 1_545
Na8 O98 2.630966 1_555
Na8 O68 2.697025 1_545
Na8 O140 2.803321 1_545
Na9 O143 2.499860 1_545
Na9 O99 2.609141 1_555
Na9 O141 2.617603 1_545
Na9 O97 2.657918 1_555
Na9 O27 2.762617 1_555
Na9 O17 2.823093 1_545
Na9 O69 2.898859 1_545
Na9 O7 2.963516 1_555
Na10 O85 2.414352 1_455
Na10 O130 2.480702 1_555
Na10 O86 2.538094 1_555
Na10 O56 2.764046 1_555
Na10 O42 2.811677 1_555
Na10 O128 2.856860 1_555
Na10 O14 2.933341 1_555
Na11 O131 2.459963 1_555
Na11 O129 2.595761 1_555
Na11 O84 2.598169 1_555
Na11 O87 2.638321 1_555
Na11 O43 2.833006 1_555
Na11 O29 2.879551 1_555
Na11 O15 2.886233 1_555
Na11 O57 2.914229 1_555
Na12 O84 2.602953 1_565
Na12 O88 2.639543 1_555
Na12 O26 2.706026 1_565
Na12 O126 2.709077 1_555
Na12 O12 2.745920 1_555
Na12 O128 2.759342 1_555
Na12 O46 2.819046 1_565
Na12 O54 2.922161 1_555
Na13 O89 2.460114 1_555
Na13 O127 2.585354 1_555
Na13 O129 2.651163 1_555
Na13 O85 2.651474 1_565
Na13 O55 2.798018 1_555
Na13 O13 2.875431 1_555
Na13 O27 2.935570 1_565
Na13 O47 3.020987 1_565
Na14 O122 2.421462 1_555
Na14 O91 2.424687 1_455
Na14 O94 2.539995 1_565
Na14 O124 2.706455 1_555
Na14 O52 2.826450 1_554
Na14 O22 2.840014 1_555
Na14 O36 2.852896 1_565
Na15 O123 2.454087 1_555
Na15 O90 2.556015 1_555
Na15 O53 2.638884 1_554
Na15 O95 2.647215 1_565
Na15 O37 2.714917 1_565
Na15 O125 2.813499 1_555
Na15 O23 2.961127 1_555
Na16 O120 2.533096 1_555
Na16 O90 2.559668 1_555
Na16 O92 2.652230 1_565
Na16 O48 2.706598 1_554
Na16 O18 2.832497 1_555
Na16 O124 2.834596 1_555
Na16 O34 2.841345 1_555
Na16 O38 2.880021 1_555
Na17 O91 2.615852 1_555
Na17 O93 2.629463 1_555
Na17 O19 2.649490 1_555
Na17 O121 2.736495 1_555
Na17 O125 2.739760 1_555
Na17 O35 2.782552 1_555
Na17 O39 2.908678 1_555
Na17 O49 2.922788 1_554
Na18 O8 2.353207 1_555
Na18 O108 2.406754 1_555
Na18 O81 2.551569 1_555
Na18 O82 2.563235 1_555
Na18 O38 2.707163 1_556
Na18 O110 2.708607 1_555
Na19 O39 2.378671 1_556
Na19 O83 2.478795 1_555
Na19 O80 2.497620 1_655
Na19 O109 2.574370 1_555
Na19 O111 2.785669 1_555
Na19 O9 2.907232 1_555
Na20 O10 2.330431 1_555
Na20 O112 2.465384 1_555
Na20 O82 2.499973 1_545
Na20 O110 2.801389 1_555
Na20 O79 2.984280 1_555
Na20 O40 2.988582 1_556
Na20 O68 2.991181 1_545
Na21 O11 2.339767 1_555
Na21 O113 2.397225 1_555
Na21 O83 2.501134 1_545
Na21 O111 2.780210 1_555
Na21 O69 2.918538 1_545
Na21 O78 2.919058 1_655
Na21 O41 2.963040 1_556
Na22 O6 2.386582 1_555
Na22 O112 2.487837 1_555
Na22 O80 2.581343 1_545
Na22 O108 2.600200 1_555
Na22 O78 2.682316 1_555
Na22 O36 2.766782 1_556
Na23 O7 2.347070 1_555
Na23 O81 2.456659 1_545
Na23 O109 2.501161 1_555
Na23 O79 2.545318 1_555
Na23 O113 2.563336 1_555
Na23 O37 2.833486 1_556
Na24 O46 2.322017 1_555
Na24 O77 2.462582 1_555
Na24 O74 2.563706 1_545
Na24 O114 2.688931 1_555
Na24 O118 2.780448 1_555
Na25 O115 2.381743 1_555
Na25 O75 2.492042 1_545
Na25 O47 2.542349 1_555
Na25 O5 2.549418 1_555
Na25 O76 2.563336 1_655
Na25 O119 2.651051 1_555
Na26 O76 2.399916 1_555
Na26 O0 2.495665 1_555
Na26 O72 2.514427 1_545
Na26 O114 2.526513 1_555
Na26 O116 2.577619 1_555
Na26 O42 2.720368 1_555
Na27 O117 2.416443 1_555
Na27 O43 2.545105 1_555
Na27 O115 2.545465 1_555
Na27 O77 2.595998 1_555
Na27 O1 2.674606 1_555
Na27 O73 2.735916 1_545
Na28 O116 2.403827 1_555
Na28 O74 2.464077 1_555
Na28 O2 2.533622 1_555
Na28 O118 2.745674 1_555
Na28 O73 2.813147 1_555
Na28 O44 2.851006 1_555
Na29 O45 2.311296 1_555
Na29 O75 2.466570 1_555
Na29 O117 2.517655 1_555
Na29 O3 2.816766 1_555
Na29 O119 2.836210 1_555
Na29 O72 2.929906 1_655
Na30 O75 2.431922 1_555
Na30 O89 2.583593 1_555
Na30 O86 2.608321 1_665
Na30 O76 2.618105 1_665
Na30 O85 2.625603 1_565
Na30 O72 2.758210 1_655
Na31 O84 2.364214 1_555
Na31 O77 2.408459 1_555
Na31 O87 2.521302 1_555
Na31 O88 2.696285 1_545
Na31 O73 2.733617 1_545
Na31 O74 2.744380 1_545
Na32 O91 2.381549 1_455
Na32 O80 2.411472 1_554
Na32 O94 2.615389 1_565
Na32 O83 2.624817 1_454
Na32 O93 2.670786 1_455
Na32 O78 2.675410 1_564
Na33 O81 2.361231 1_555
Na33 O82 2.398925 1_555
Na33 O95 2.614373 1_566
Na33 O90 2.631446 1_556
Na33 O79 2.669896 1_565
Na33 O92 2.921646 1_566
Na34 O98 2.415198 1_555
Na34 O96 2.439405 1_555
Na34 O100 2.478728 1_555
Na34 O112 2.720990 1_555
Na34 O108 2.730224 1_555
Na34 O110 2.973861 1_555
Na35 O99 2.364172 1_555
Na35 O97 2.517019 1_555
Na35 O113 2.558939 1_555
Na35 O109 2.591724 1_555
Na35 O101 2.715233 1_555
Na36 O114 2.398657 1_555
Na36 O116 2.427835 1_555
Na36 O106 2.558024 1_555
Na36 O102 2.761913 1_555
Na36 O104 2.871180 1_555
Na36 O118 2.993749 1_555
Na37 O117 2.504362 1_555
Na37 O115 2.555326 1_555
Na37 O107 2.561318 1_555
Na37 O103 2.606530 1_555
Na37 O105 2.635656 1_555
Na37 O119 2.793589 1_555
Na38 O136 2.381222 1_555
Na38 O122 2.515719 1_555
Na38 O120 2.520533 1_555
Na38 O132 2.607606 1_555
Na38 O134 2.714080 1_555
Na38 O124 2.832986 1_555
Na39 O135 2.446582 1_555
Na39 O133 2.473548 1_555
Na39 O123 2.525128 1_555
Na39 O137 2.530682 1_555
Na39 O121 2.566347 1_555
Na39 O125 2.714209 1_555
Na40 O130 2.463516 1_555
Na40 O142 2.497539 1_555
Na40 O138 2.517109 1_555
Na40 O126 2.531574 1_555
Na40 O140 2.542512 1_555
Na40 O128 2.705528 1_555
Na41 O127 2.503682 1_555
Na41 O131 2.553629 1_555
Na41 O141 2.572820 1_555
Na41 O129 2.592941 1_555
Na41 O139 2.659337 1_555
Na41 O143 2.747401 1_555
Hf0 O85 2.023416 1_555
Hf0 O14 2.029195 1_655
Hf0 O13 2.043456 1_545
Hf0 O89 2.049106 1_545
Hf0 O86 2.064573 1_655
Hf0 O16 2.217174 1_545
Hf1 O15 1.974056 1_555
Hf1 O17 2.017169 1_545
Hf1 O12 2.036680 1_545
Hf1 O87 2.060569 1_555
Hf1 O84 2.127081 1_555
Hf1 O88 2.419374 1_545
Hf2 O22 1.974947 1_545
Hf2 O20 2.005212 1_555
Hf2 O19 2.025589 1_445
Hf2 O94 2.086484 1_555
Hf2 O91 2.156574 1_445
Hf2 O93 2.402679 1_445
Hf3 O23 1.940317 1_555
Hf3 O90 2.022841 1_555
Hf3 O95 2.042509 1_565
Hf3 O18 2.044126 1_555
Hf3 O21 2.185638 1_565
Hf3 O92 2.282743 1_565
Hf4 O27 1.990801 1_555
Hf4 O29 1.999024 1_555
Hf4 O25 2.075323 1_555
Hf4 O99 2.084717 1_555
Hf4 O97 2.135476 1_555
Hf4 O101 2.320353 1_555
Hf5 O34 1.974060 1_555
Hf5 O102 1.995049 1_555
Hf5 O106 2.038124 1_555
Hf5 O30 2.053593 1_555
Hf5 O104 2.251442 1_555
Hf5 O32 2.272010 1_555
Hf6 O52 2.002436 1_554
Hf6 O48 2.021611 1_554
Hf6 O122 2.055971 1_555
Hf6 O120 2.108954 1_555
Hf6 O50 2.111312 1_554
Hf6 O124 2.257505 1_555
Hf7 O49 2.010497 1_554
Hf7 O53 2.019415 1_554
Hf7 O121 2.035681 1_555
Hf7 O51 2.098913 1_554
Hf7 O123 2.127210 1_555
Hf7 O125 2.189554 1_555
Hf8 O56 2.016034 1_555
Hf8 O54 2.021338 1_555
Hf8 O126 2.033709 1_555
Hf8 O58 2.096758 1_555
Hf8 O130 2.101806 1_555
Hf8 O128 2.197655 1_555
Hf9 O129 2.017772 1_555
Hf9 O57 2.029101 1_555
Hf9 O55 2.029683 1_555
Hf9 O131 2.069701 1_555
Hf9 O127 2.105506 1_555
Hf9 O59 2.262054 1_555
Hf10 O62 1.985908 1_555
Hf10 O134 2.013099 1_555
Hf10 O64 2.043862 1_555
Hf10 O132 2.092589 1_555
Hf10 O136 2.127833 1_555
Hf10 O60 2.270554 1_555
Hf11 O143 1.995820 1_555
Hf11 O71 2.000006 1_555
Hf11 O69 2.046172 1_555
Hf11 O139 2.075315 1_555
Hf11 O141 2.110353 1_555
Hf11 O67 2.359785 1_555
O0 Si0 1.634691 1_555
O0 Y0 2.289039 1_555
O1 Si1 1.635387 1_545
O1 Y1 2.165354 1_555
O2 Si2 1.623629 1_555
O2 Y1 2.221663 1_565
O3 Si3 1.630001 1_555
O3 Y0 2.162925 1_665
O4 S0 1.479680 1_555
O4 Y1 2.328383 1_555
O5 Si4 1.628103 1_655
O5 Y0 2.127644 1_655
O6 Si5 1.649189 1_555
O6 Y2 2.167814 1_445
O7 Si6 1.635176 1_555
O7 Y3 2.236741 1_545
O8 Si7 1.634576 1_555
O8 Y3 2.128386 1_555
O9 S1 1.491967 1_555
O9 Y2 2.309130 1_555
O10 Si8 1.638936 1_545
O10 Y3 2.179016 1_545
O11 Si9 1.635158 1_555
O11 Y2 2.193423 1_545
O12 Si8 1.651241 1_555
O13 Si9 1.632489 1_565
O14 Si5 1.649827 1_555
O15 Si6 1.658493 1_555
O16 S1 1.474396 1_555
O17 Si7 1.651381 1_555
O18 Si2 1.636727 1_555
O19 Si3 1.662087 1_555
O20 Si4 1.658295 1_555
O21 S0 1.485743 1_555
O22 Si0 1.660994 1_565
O23 Si1 1.676125 1_555
O24 Si10 1.619678 1_555
O24 Y4 2.171319 1_555
O25 Si11 1.647883 1_555
O26 Si12 1.632862 1_555
O26 Y4 2.193549 1_555
O27 Si13 1.675286 1_555
O28 S2 1.475510 1_555
O28 Y4 2.373631 1_555
O29 Si14 1.648965 1_555
O30 Si15 1.650178 1_555
O31 Si16 1.616254 1_555
O31 Y5 2.192091 1_555
O32 S3 1.481992 1_555
O33 S4 1.471198 1_555
O33 Y5 2.388413 1_555
O34 Si17 1.678181 1_555
O35 Si18 1.627828 1_555
O35 Y5 2.209837 1_555
O36 Si17 1.634229 1_555
O36 Y6 2.155639 1_554
O37 Si18 1.652756 1_555
O37 Y7 2.150582 1_554
O38 Si15 1.622730 1_555
O38 Y6 2.195832 1_554
O39 Si16 1.648126 1_555
O39 Y7 2.223647 1_554
O40 S3 1.475100 1_555
O40 Y6 2.395495 1_554
O41 S4 1.476498 1_555
O41 Y7 2.407298 1_554
O42 Si12 1.650636 1_555
O42 Y8 2.132892 1_555
O43 Si13 1.631874 1_555
O43 Y9 2.182962 1_555
O44 S2 1.477128 1_555
O44 Y8 2.404044 1_555
O45 Si14 1.616697 1_555
O45 Y9 2.219518 1_555
O46 Si10 1.647609 1_555
O46 Y8 2.201205 1_555
O47 Si11 1.618550 1_555
O47 Y9 2.212764 1_555
O48 Si19 1.667163 1_555
O49 Si20 1.654503 1_555
O50 S5 1.500376 1_555
O51 S6 1.490928 1_555
O52 Si21 1.669148 1_555
O53 Si22 1.658992 1_555
O54 Si23 1.650187 1_555
O55 Si24 1.656197 1_555
O56 Si25 1.654237 1_555
O57 Si26 1.657056 1_555
O58 S7 1.490741 1_555
O59 S8 1.478491 1_555
O60 S7 1.485839 1_555
O61 S8 1.484727 1_555
O61 Y10 2.377319 1_555
O62 Si23 1.645570 1_555
O63 Si24 1.646064 1_555
O63 Y10 2.114987 1_555
O64 Si25 1.655863 1_555
O65 Si26 1.638317 1_555
O65 Y10 2.166261 1_555
O66 S5 1.474423 1_555
O66 Y11 2.371332 1_555
O67 S6 1.477208 1_555
O68 Si21 1.630701 1_555
O68 Y11 2.172151 1_555
O69 Si22 1.647001 1_555
O70 Si19 1.638229 1_555
O70 Y11 2.127426 1_555
O71 Si20 1.639135 1_555
O72 S7 1.486151 1_555
O72 Y0 2.474394 1_565
O73 S8 1.494065 1_555
O73 Y1 2.424186 1_565
O74 Si23 1.639396 1_555
O74 Y1 2.271969 1_565
O75 Si24 1.651010 1_555
O75 Y0 2.300615 1_665
O76 Si25 1.636066 1_555
O76 Y0 2.306165 1_555
O77 Si26 1.658536 1_555
O77 Y1 2.260629 1_555
O78 S5 1.485389 1_555
O78 Y2 2.467899 1_445
O79 S6 1.485829 1_555
O79 Y3 2.504487 1_545
O80 Si21 1.649771 1_555
O80 Y2 2.317004 1_455
O81 Si22 1.638850 1_555
O81 Y3 2.316944 1_555
O82 Si19 1.643718 1_555
O82 Y3 2.328923 1_555
O83 Si20 1.642377 1_555
O83 Y2 2.293875 1_555
O84 Si10 1.664203 1_555
O85 Si11 1.667897 1_555
O86 Si12 1.636345 1_555
O87 Si13 1.634311 1_555
O88 S2 1.476581 1_555
O89 Si14 1.630959 1_555
O90 Si15 1.681787 1_555
O91 Si16 1.666707 1_555
O92 S3 1.477781 1_555
O93 S4 1.479238 1_565
O94 Si17 1.627401 1_555
O95 Si18 1.653067 1_555
O96 Si8 1.637630 1_545
O96 Y4 2.215799 1_555
O97 Si9 1.653533 1_555
O98 Si5 1.634761 1_555
O98 Y4 2.292144 1_555
O99 Si6 1.642280 1_555
O100 Si7 1.619923 1_555
O100 Y4 2.225115 1_555
O101 S1 1.483388 1_555
O102 Si2 1.675572 1_555
O103 Si3 1.637656 1_555
O103 Y5 2.192500 1_555
O104 S0 1.487154 1_555
O105 Si4 1.617439 1_655
O105 Y5 2.213496 1_555
O106 Si0 1.652606 1_555
O107 Si1 1.622611 1_545
O107 Y5 2.273433 1_555
O108 Si19 1.646098 1_555
O108 Y6 2.171373 1_555
O109 Si20 1.649762 1_555
O109 Y7 2.217375 1_555
O110 S6 1.487731 1_555
O110 Y6 2.444014 1_555
O111 S5 1.479027 1_655
O111 Y7 2.403475 1_555
O112 Si21 1.648003 1_545
O112 Y6 2.250416 1_555
O113 Si22 1.651658 1_545
O113 Y7 2.273054 1_555
O114 Si23 1.647625 1_545
O114 Y8 2.227567 1_555
O115 Si24 1.639600 1_545
O115 Y9 2.259557 1_555
O116 Si25 1.652335 1_555
O116 Y8 2.290789 1_555
O117 Si26 1.642810 1_555
O117 Y9 2.306456 1_555
O118 S8 1.488369 1_555
O118 Y8 2.398331 1_555
O119 S7 1.475329 1_655
O119 Y9 2.519702 1_555
O120 Si17 1.647652 1_555
O121 Si18 1.646714 1_555
O122 Si16 1.663949 1_455
O123 Si15 1.644530 1_555
O124 S3 1.511980 1_565
O125 S4 1.521314 1_565
O126 Si12 1.646437 1_565
O127 Si13 1.636761 1_565
O128 S2 1.518281 1_555
O129 Si14 1.665319 1_555
O130 Si11 1.653516 1_455
O131 Si10 1.640095 1_555
O132 Si0 1.637152 1_565
O133 Si1 1.638635 1_555
O133 Y10 2.280516 1_555
O134 Si2 1.640172 1_555
O135 Si3 1.651240 1_555
O135 Y10 2.208015 1_555
O136 Si4 1.652242 1_555
O137 S0 1.487641 1_555
O137 Y10 2.556061 1_555
O138 Si5 1.646727 1_555
O138 Y11 2.248745 1_555
O139 Si6 1.639252 1_555
O140 S1 1.492613 1_455
O140 Y11 2.472317 1_555
O141 Si7 1.652054 1_555
O142 Si8 1.652523 1_555
O142 Y11 2.198232 1_555
O143 Si9 1.654351 1_565
