# generated using pymatgen
data_MgTi2(Bi2O5)2
_symmetry_space_group_name_H-M   'P 1'
_cell_length_a   6.19613130
_cell_length_b   8.64319099
_cell_length_c   5.88669405
_cell_angle_alpha   92.56096470
_cell_angle_beta   91.81139124
_cell_angle_gamma   78.35300009
_symmetry_Int_Tables_number   1
_chemical_formula_structural   MgTi2(Bi2O5)2
_chemical_formula_sum   'Mg1 Ti2 Bi4 O10'
_cell_volume   308.37628138
_cell_formula_units_Z   1
loop_
 _symmetry_equiv_pos_site_id
 _symmetry_equiv_pos_as_xyz
  1  'x, y, z'
loop_
 _atom_site_type_symbol
 _atom_site_label
 _atom_site_symmetry_multiplicity
 _atom_site_fract_x
 _atom_site_fract_y
 _atom_site_fract_z
 _atom_site_occupancy
  Mg  Mg0  1  0.77991683  0.64511791  0.27318004  1
  Ti  Ti0  1  0.27216892  0.02085161  0.69876590  1
  Ti  Ti1  1  0.60093066  0.04405859  0.19852960  1
  Bi  Bi0  1  0.07673855  0.60097834  0.79515189  1
  Bi  Bi1  1  0.30993169  0.65840666  0.31882912  1
  Bi  Bi2  1  0.64643110  0.35115716  0.81719047  1
  Bi  Bi3  1  0.04795877  0.29233814  0.32162987  1
  O  O0  1  0.25896225  0.81530617  0.68634144  1
  O  O1  1  0.75827744  0.85335030  0.15403695  1
  O  O2  1  0.32148479  0.46199711  0.54975219  1
  O  O3  1  0.35700822  0.48066846  0.00957873  1
  O  O4  1  0.86128993  0.47945459  0.02394573  1
  O  O5  1  0.84564284  0.48598516  0.52540411  1
  O  O6  1  0.01029671  0.15182667  0.62268036  1
  O  O7  1  0.76299080  0.19914383  0.15615292  1
  O  O8  1  0.45386706  0.06186236  0.47472324  1
  O  O9  1  0.37734945  0.08576496  0.97924745  1
loop_
_geom_bond_atom_site_label_1
_geom_bond_atom_site_label_2
_geom_bond_distance
_geom_bond_site_symmetry_2
Mg0 O1 1.938700 1_555
Mg0 O4 2.006129 1_555
Mg0 O5 2.044567 1_555
Bi0 O3 2.222603 1_556
Bi0 O2 2.253318 1_555
Bi0 O4 2.346387 1_456
Bi0 O5 2.418580 1_455
Bi0 O0 2.472458 1_555
Bi1 O2 2.210405 1_555
Bi1 O3 2.315573 1_555
Bi1 O0 2.495457 1_555
Bi2 O4 2.203715 1_556
Bi2 O3 2.226249 1_556
Bi2 O7 2.447330 1_556
Bi2 O2 2.570155 1_555
Bi2 O5 2.593390 1_555
Bi2 O6 2.789429 1_655
Bi3 O5 2.209128 1_455
Bi3 O6 2.236731 1_555
Bi3 O7 2.260711 1_455
Bi3 O4 2.528649 1_455
Bi3 O2 2.740366 1_555
O0 Ti0 1.793028 1_565
O1 Ti1 1.750658 1_565
O6 Ti0 1.836480 1_555
O7 Ti1 1.859159 1_555
O8 Ti0 1.851842 1_555
O8 Ti1 1.874071 1_555
O9 Ti1 1.855341 1_556
O9 Ti0 1.860780 1_555
