# generated using pymatgen
data_Na3Hf2Zn2P3(SO8)3
_symmetry_space_group_name_H-M   'P 1'
_cell_length_a   8.86518833
_cell_length_b   8.85705454
_cell_length_c   22.85561381
_cell_angle_alpha   90.08088843
_cell_angle_beta   89.85448936
_cell_angle_gamma   119.89559860
_symmetry_Int_Tables_number   1
_chemical_formula_structural   Na3Hf2Zn2P3(SO8)3
_chemical_formula_sum   'Na9 Hf6 Zn6 P9 S9 O72'
_cell_volume   1555.80557881
_cell_formula_units_Z   3
loop_
 _symmetry_equiv_pos_site_id
 _symmetry_equiv_pos_as_xyz
  1  'x, y, z'
loop_
 _atom_site_type_symbol
 _atom_site_label
 _atom_site_symmetry_multiplicity
 _atom_site_fract_x
 _atom_site_fract_y
 _atom_site_fract_z
 _atom_site_occupancy
  Na  Na0  1  0.66252773  0.68978963  0.08074335  1
  Na  Na1  1  0.33261407  0.29726177  0.91736046  1
  Na  Na2  1  0.33194432  0.03485439  0.41742032  1
  Na  Na3  1  0.99431862  0.00015549  0.49747917  1
  Na  Na4  1  0.00313013  0.99716973  0.99703461  1
  Na  Na5  1  0.67799346  0.33458599  0.83468974  1
  Na  Na6  1  0.67720412  0.34209754  0.33425242  1
  Na  Na7  1  0.31808133  0.65970634  0.16288898  1
  Na  Na8  1  0.33438706  0.67305056  0.66218531  1
  Hf  Hf0  1  0.00601954  0.00014577  0.64919139  1
  Hf  Hf1  1  0.01126323  0.00495535  0.14975426  1
  Hf  Hf2  1  0.66051819  0.32568699  0.68672177  1
  Hf  Hf3  1  0.66879267  0.33938739  0.18668921  1
  Hf  Hf4  1  0.33245918  0.66321411  0.31149194  1
  Hf  Hf5  1  0.33287232  0.67002684  0.81117983  1
  Zn  Zn0  1  0.99435844  0.00015406  0.34384548  1
  Zn  Zn1  1  0.99362024  0.99426701  0.84352215  1
  Zn  Zn2  1  0.67209792  0.33944736  0.98718806  1
  Zn  Zn3  1  0.66459721  0.33217861  0.48639440  1
  Zn  Zn4  1  0.31518395  0.65756226  0.01977280  1
  Zn  Zn5  1  0.33492960  0.67485636  0.51930728  1
  P  P0  1  0.29397147  0.00227978  0.25357263  1
  P  P1  1  0.71152385  0.71163260  0.25089700  1
  P  P2  1  0.99716466  0.28878903  0.25194897  1
  P  P3  1  0.29044900  0.29002322  0.75292428  1
  P  P4  1  0.99633759  0.70721037  0.75148376  1
  P  P5  1  0.71265497  0.00097463  0.75127001  1
  P  P6  1  0.37434100  0.03773644  0.58003988  1
  P  P7  1  0.96110445  0.62511933  0.08186715  1
  P  P8  1  0.37420207  0.33362495  0.08002402  1
  S  S0  1  0.95962590  0.33451474  0.58204939  1
  S  S1  1  0.66560034  0.62472429  0.58221701  1
  S  S2  1  0.66641459  0.04143652  0.08232981  1
  S  S3  1  0.62862017  0.67057068  0.91814766  1
  S  S4  1  0.03793264  0.37231412  0.91717106  1
  S  S5  1  0.33400753  0.95970581  0.91825130  1
  S  S6  1  0.62901682  0.95854095  0.41767495  1
  S  S7  1  0.33306317  0.37521560  0.41868242  1
  S  S8  1  0.03786511  0.66423553  0.41804000  1
  O  O0  1  0.22155630  0.03367611  0.30971496  1
  O  O1  1  0.82037894  0.78672509  0.30495843  1
  O  O2  1  0.96634707  0.18352775  0.30684749  1
  O  O3  1  0.22047232  0.18717570  0.80925697  1
  O  O4  1  0.96414333  0.78125118  0.80644544  1
  O  O5  1  0.81848139  0.03562975  0.80627261  1
  O  O6  1  0.79590504  0.97160135  0.69596353  1
  O  O7  1  0.17500916  0.20305082  0.69842265  1
  O  O8  1  0.02798803  0.82247026  0.69637271  1
  O  O9  1  0.79055472  0.81962443  0.19399261  1
  O  O10  1  0.02747730  0.20518866  0.19662352  1
  O  O11  1  0.17722599  0.97204120  0.19895232  1
  O  O12  1  0.87337991  0.35697265  0.63509686  1
  O  O13  1  0.49058232  0.13583307  0.63412082  1
  O  O14  1  0.64674167  0.51779370  0.63520300  1
  O  O15  1  0.86897036  0.51142264  0.13680286  1
  O  O16  1  0.64456182  0.12577540  0.13540121  1
  O  O17  1  0.49306830  0.35723107  0.13379857  1
  O  O18  1  0.44638577  0.29940857  0.02358665  1
  O  O19  1  0.84432969  0.55140223  0.02811427  1
  O  O20  1  0.69713919  0.14566177  0.02968257  1
  O  O21  1  0.44753580  0.14501819  0.52382357  1
  O  O22  1  0.69912373  0.55128713  0.52959065  1
  O  O23  1  0.85431140  0.30461844  0.52945957  1
  O  O24  1  0.54749167  0.69126585  0.97208717  1
  O  O25  1  0.14949716  0.45272476  0.96900803  1
  O  O26  1  0.31235498  0.85402008  0.97032051  1
  O  O27  1  0.54605030  0.85319000  0.47020786  1
  O  O28  1  0.31100870  0.45958071  0.47080759  1
  O  O29  1  0.14934792  0.69376901  0.46971489  1
  O  O30  1  0.12708277  0.64308840  0.36448613  1
  O  O31  1  0.51297899  0.86995958  0.36498786  1
  O  O32  1  0.35314045  0.48324987  0.36499348  1
  O  O33  1  0.12792273  0.48357760  0.86406033  1
  O  O34  1  0.35310118  0.87073921  0.86454769  1
  O  O35  1  0.51130484  0.64565421  0.86620892  1
  O  O36  1  0.02633505  0.82549086  0.41135569  1
  O  O37  1  0.80210248  0.97772140  0.41063049  1
  O  O38  1  0.17882867  0.19809788  0.41272349  1
  O  O39  1  0.02696048  0.19976240  0.91060726  1
  O  O40  1  0.17895849  0.98192628  0.91239960  1
  O  O41  1  0.80160190  0.82456744  0.91098500  1
  O  O42  1  0.97499885  0.17390431  0.59040314  1
  O  O43  1  0.19122526  0.02187658  0.59053355  1
  O  O44  1  0.82327438  0.80243935  0.59042757  1
  O  O45  1  0.97115145  0.80695488  0.09160644  1
  O  O46  1  0.82373792  0.01865951  0.09010075  1
  O  O47  1  0.19044271  0.17212811  0.09040634  1
  O  O48  1  0.68623866  0.16038337  0.74110301  1
  O  O49  1  0.47453087  0.31505558  0.74142669  1
  O  O50  1  0.83890935  0.52365806  0.73997594  1
  O  O51  1  0.68459862  0.52533379  0.24193043  1
  O  O52  1  0.83824796  0.31364184  0.24154805  1
  O  O53  1  0.47615758  0.16020955  0.24152505  1
  O  O54  1  0.63513569  0.50503575  0.91934586  1
  O  O55  1  0.86559296  0.35781403  0.92126588  1
  O  O56  1  0.49293312  0.13550363  0.92011881  1
  O  O57  1  0.63638557  0.13119543  0.42032649  1
  O  O58  1  0.49249740  0.35808951  0.42036367  1
  O  O59  1  0.86527551  0.50621607  0.42210820  1
  O  O60  1  0.36547932  0.50369841  0.07796775  1
  O  O61  1  0.14333983  0.64836008  0.07878119  1
  O  O62  1  0.51341348  0.86384050  0.07871735  1
  O  O63  1  0.35541964  0.85577637  0.57850175  1
  O  O64  1  0.50830280  0.64070088  0.57869572  1
  O  O65  1  0.13480994  0.48868081  0.57853362  1
  O  O66  1  0.31177380  0.83614990  0.25805230  1
  O  O67  1  0.52603229  0.68981945  0.25737228  1
  O  O68  1  0.16250607  0.47397142  0.25711265  1
  O  O69  1  0.31117942  0.47498882  0.75779804  1
  O  O70  1  0.16239425  0.68859017  0.75693243  1
  O  O71  1  0.52680132  0.83731596  0.75734604  1
loop_
_geom_bond_atom_site_label_1
_geom_bond_atom_site_label_2
_geom_bond_distance
_geom_bond_site_symmetry_2
Na0 O60 2.308517 1_555
Na0 O45 2.407636 1_555
Na0 O62 2.481537 1_555
Na0 O46 2.534325 1_565
Na0 O24 2.689561 1_554
Na0 O19 2.738993 1_555
Na0 O17 2.827195 1_555
Na0 O9 2.831212 1_555
Na1 O54 2.379458 1_555
Na1 O39 2.404387 1_555
Na1 O40 2.424115 1_545
Na1 O56 2.471255 1_555
Na1 O18 2.627807 1_556
Na1 O3 2.661420 1_555
Na1 O25 2.852828 1_555
Na1 O35 2.919934 1_555
Na2 O57 2.392024 1_555
Na2 O36 2.406476 1_545
Na2 O38 2.429433 1_555
Na2 O58 2.482860 1_555
Na2 O21 2.631649 1_555
Na2 O0 2.649453 1_555
Na2 O29 2.881141 1_545
Na2 O31 2.909753 1_545
Na3 O37 2.561620 1_545
Na3 O38 2.576158 1_655
Na3 O36 2.602826 1_645
Na3 O42 2.675798 1_555
Na3 O44 2.688143 1_545
Na3 O43 2.700085 1_655
Na4 O40 2.526562 1_555
Na4 O41 2.585281 1_455
Na4 O39 2.606995 1_565
Na4 O45 2.668681 1_456
Na4 O47 2.675178 1_566
Na4 O46 2.715388 1_466
Na5 O55 2.529465 1_555
Na5 O56 2.592848 1_555
Na5 O54 2.593648 1_555
Na5 O48 2.657726 1_555
Na5 O50 2.671829 1_555
Na5 O49 2.744903 1_555
Na6 O59 2.552981 1_555
Na6 O58 2.605552 1_555
Na6 O57 2.612160 1_555
Na6 O52 2.633058 1_555
Na6 O51 2.644531 1_555
Na6 O53 2.722291 1_555
Na7 O61 2.442259 1_555
Na7 O60 2.533794 1_555
Na7 O62 2.615432 1_555
Na7 O68 2.641851 1_555
Na7 O66 2.693133 1_555
Na7 O67 2.767941 1_555
Na8 O63 2.453228 1_555
Na8 O64 2.554282 1_555
Na8 O65 2.565283 1_555
Na8 O70 2.687897 1_555
Na8 O71 2.700535 1_555
Na8 O69 2.746624 1_555
Hf0 O8 1.997156 1_545
Hf0 O7 2.014747 1_555
Hf0 O6 2.048797 1_445
Hf0 O43 2.050544 1_555
Hf0 O44 2.161321 1_445
Hf0 O42 2.163121 1_455
Hf1 O11 1.987703 1_545
Hf1 O10 2.013631 1_555
Hf1 O47 2.050769 1_555
Hf1 O9 2.082828 1_445
Hf1 O45 2.083829 1_445
Hf1 O46 2.202385 1_455
Hf2 O13 2.005181 1_555
Hf2 O48 2.019850 1_555
Hf2 O49 2.031214 1_555
Hf2 O50 2.072816 1_555
Hf2 O12 2.120931 1_555
Hf2 O14 2.123687 1_555
Hf3 O15 2.017462 1_555
Hf3 O51 2.022649 1_555
Hf3 O17 2.041728 1_555
Hf3 O52 2.057355 1_555
Hf3 O53 2.073363 1_555
Hf3 O16 2.142355 1_555
Hf4 O68 2.027419 1_555
Hf4 O67 2.029126 1_555
Hf4 O66 2.039108 1_555
Hf4 O32 2.089863 1_555
Hf4 O30 2.116519 1_555
Hf4 O31 2.119333 1_555
Hf5 O70 2.026367 1_555
Hf5 O71 2.029804 1_555
Hf5 O69 2.042980 1_555
Hf5 O34 2.087449 1_555
Hf5 O35 2.117060 1_555
Hf5 O33 2.119563 1_555
O0 P0 1.519454 1_555
O0 Zn0 2.037161 1_455
O1 P1 1.504751 1_555
O1 Zn0 1.959100 1_565
O2 P2 1.505278 1_555
O2 Zn0 1.954886 1_555
O3 P3 1.519300 1_555
O3 Zn1 2.036566 1_445
O4 P4 1.507293 1_555
O4 Zn1 1.962433 1_555
O5 P5 1.507505 1_555
O5 Zn1 1.960696 1_545
O6 P5 1.547888 1_565
O7 P3 1.552525 1_555
O8 P4 1.556847 1_455
O9 P1 1.558245 1_555
O10 P2 1.553519 1_455
O11 P0 1.559055 1_565
O12 S0 1.496785 1_555
O13 P6 1.567026 1_555
O14 S1 1.495289 1_555
O15 P7 1.560823 1_555
O16 S2 1.485717 1_555
O17 P8 1.565548 1_555
O18 P8 1.534026 1_555
O18 Zn2 2.026519 1_554
O19 P7 1.528973 1_555
O19 Zn2 1.968626 1_554
O20 S2 1.457764 1_555
O20 Zn2 2.079455 1_554
O21 P6 1.536028 1_555
O21 Zn3 1.999623 1_555
O22 S1 1.465198 1_555
O22 Zn3 2.058773 1_555
O23 S0 1.464543 1_555
O23 Zn3 2.067693 1_555
O24 S3 1.482226 1_555
O24 Zn4 2.212461 1_556
O25 S4 1.480034 1_555
O25 Zn4 2.035068 1_556
O26 S5 1.467041 1_555
O26 Zn4 2.086876 1_556
O27 S6 1.472347 1_555
O27 Zn5 2.074748 1_555
O28 S7 1.468956 1_555
O28 Zn5 2.121654 1_555
O29 S8 1.479002 1_555
O29 Zn5 2.074673 1_555
O30 S8 1.516890 1_555
O31 S6 1.524121 1_555
O32 S7 1.511775 1_555
O33 S4 1.515207 1_555
O34 S5 1.511728 1_555
O35 S3 1.521931 1_555
O36 S8 1.489934 1_555
O36 Zn0 2.302282 1_465
O37 S6 1.465691 1_555
O37 Zn0 2.219102 1_565
O38 S7 1.487012 1_555
O38 Zn0 2.318103 1_455
O39 S4 1.489599 1_555
O39 Zn1 2.282356 1_445
O40 S5 1.488843 1_555
O40 Zn1 2.320012 1_455
O41 S3 1.467365 1_555
O41 Zn1 2.230930 1_555
O42 S0 1.507578 1_555
O43 P6 1.575862 1_555
O44 S1 1.507950 1_555
O45 P7 1.583469 1_555
O46 S2 1.516334 1_555
O47 P8 1.559590 1_555
O48 P5 1.559834 1_555
O49 P3 1.555213 1_555
O50 P4 1.548829 1_555
O51 P1 1.558314 1_555
O52 P2 1.549432 1_555
O53 P0 1.545247 1_555
O54 S3 1.496071 1_555
O54 Zn2 2.269517 1_555
O55 S4 1.470785 1_655
O55 Zn2 2.224517 1_555
O56 S5 1.491493 1_545
O56 Zn2 2.297828 1_555
O57 S6 1.498867 1_545
O57 Zn3 2.249904 1_555
O58 S7 1.495405 1_555
O58 Zn3 2.240475 1_555
O59 S8 1.474277 1_655
O59 Zn3 2.226972 1_555
O60 P8 1.547131 1_555
O60 Zn4 2.106879 1_555
O61 P7 1.524897 1_455
O61 Zn4 2.003123 1_555
O62 S2 1.481293 1_565
O62 Zn4 2.246274 1_555
O63 P6 1.535289 1_565
O63 Zn5 2.033745 1_555
O64 S1 1.472535 1_555
O64 Zn5 2.184381 1_555
O65 S0 1.472625 1_455
O65 Zn5 2.185591 1_555
O66 P0 1.559637 1_565
O67 P1 1.563804 1_555
O68 P2 1.567290 1_455
O69 P3 1.558689 1_555
O70 P4 1.566161 1_455
O71 P5 1.566450 1_565
