# generated using pymatgen
data_MgMn6(O5F)2
_symmetry_space_group_name_H-M   'P 1'
_cell_length_a   5.09461393
_cell_length_b   7.53288360
_cell_length_c   5.73668283
_cell_angle_alpha   98.46170028
_cell_angle_beta   98.53409726
_cell_angle_gamma   84.38165853
_symmetry_Int_Tables_number   1
_chemical_formula_structural   MgMn6(O5F)2
_chemical_formula_sum   'Mg1 Mn6 O10 F2'
_cell_volume   214.69769119
_cell_formula_units_Z   1
loop_
 _symmetry_equiv_pos_site_id
 _symmetry_equiv_pos_as_xyz
  1  'x, y, z'
loop_
 _atom_site_type_symbol
 _atom_site_label
 _atom_site_symmetry_multiplicity
 _atom_site_fract_x
 _atom_site_fract_y
 _atom_site_fract_z
 _atom_site_occupancy
  Mg  Mg0  1  0.50460782  0.49985739  0.50068940  1
  Mn  Mn0  1  0.46898866  -0.00630611  0.53347612  1
  Mn  Mn1  1  0.59690919  0.69036198  0.11004334  1
  Mn  Mn2  1  0.42525936  0.31887572  0.88791307  1
  Mn  Mn3  1  0.00614060  0.68033059  0.67318710  1
  Mn  Mn4  1  0.98513677  0.31743211  0.33880719  1
  Mn  Mn5  1  0.98581428  0.01268536  0.98881610  1
  O  O0  1  0.87546057  0.44179175  0.62951237  1
  O  O1  1  0.88163019  0.77086452  0.95911684  1
  O  O2  1  0.86437172  0.09389145  0.29190978  1
  O  O3  1  0.64957509  0.09158375  0.83230301  1
  O  O4  1  0.66161747  0.75594969  0.48232681  1
  O  O5  1  0.64237292  0.42415875  0.17776435  1
  O  O6  1  0.35395340  0.57319475  0.81999931  1
  O  O7  1  0.33149274  0.25154772  0.53412925  1
  O  O8  1  0.12831182  0.24154500  0.04684297  1
  O  O9  1  0.14983425  0.90877051  0.70715335  1
  F  F0  1  0.33225398  0.92102664  0.19016871  1
  F  F1  1  0.14237616  0.57493745  0.35536091  1
loop_
_geom_bond_atom_site_label_1
_geom_bond_atom_site_label_2
_geom_bond_distance
_geom_bond_site_symmetry_2
Mg0 O0 1.956024 1_555
Mg0 O5 2.060641 1_555
Mg0 O6 2.070301 1_555
Mg0 O4 2.181600 1_555
Mg0 O7 2.189109 1_555
Mn0 O3 1.903061 1_555
Mn0 O4 1.960405 1_545
Mn0 O7 1.998943 1_555
Mn0 O9 2.217598 1_545
Mn1 O1 1.980141 1_554
Mn1 O6 2.061566 1_554
Mn1 O5 2.082627 1_555
Mn1 O4 2.103871 1_555
Mn2 O5 1.963444 1_556
Mn2 O3 1.975755 1_555
Mn2 O6 1.998814 1_555
Mn2 O7 2.015252 1_555
Mn2 O8 2.048774 1_556
Mn3 O1 1.858202 1_455
Mn3 O9 1.908068 1_555
Mn3 O0 1.946035 1_455
Mn3 O6 1.994397 1_555
Mn3 O4 2.005360 1_455
Mn4 O2 1.818477 1_555
Mn4 O8 1.913982 1_655
Mn4 O0 1.919701 1_555
Mn4 O5 2.003527 1_555
Mn4 O7 2.005203 1_655
Mn5 O3 1.896050 1_555
Mn5 O8 1.901149 1_656
Mn5 O1 1.923577 1_545
Mn5 O2 1.926761 1_556
Mn5 O9 1.955062 1_645
F0 Mn0 2.003455 1_565
F0 Mn5 2.077772 1_464
F0 Mn1 2.130388 1_555
F1 Mg0 1.974415 1_555
F1 Mn3 2.068340 1_555
F1 Mn4 2.154267 1_455
