# generated using pymatgen
data_BaBiO3
_symmetry_space_group_name_H-M   'P 1'
_cell_length_a   6.15571811
_cell_length_b   6.15571811
_cell_length_c   6.15571789
_cell_angle_alpha   60.65765849
_cell_angle_beta   60.65765860
_cell_angle_gamma   60.65766008
_symmetry_Int_Tables_number   1
_chemical_formula_structural   BaBiO3
_chemical_formula_sum   'Ba2 Bi2 O6'
_cell_volume   167.38710722
_cell_formula_units_Z   2
loop_
 _symmetry_equiv_pos_site_id
 _symmetry_equiv_pos_as_xyz
  1  'x, y, z'
loop_
 _atom_site_type_symbol
 _atom_site_label
 _atom_site_symmetry_multiplicity
 _atom_site_fract_x
 _atom_site_fract_y
 _atom_site_fract_z
 _atom_site_occupancy
  Ba  Ba0  1  0.24889562  0.24889562  0.24889562  1
  Ba  Ba1  1  0.75110438  0.75110438  0.75110438  1
  Bi  Bi0  1  0.00000000  0.00000000  0.00000000  1
  Bi  Bi1  1  0.50000000  0.50000000  0.50000000  1
  O  O0  1  0.70197311  0.23780476  0.81530715  1
  O  O1  1  0.81530715  0.70197311  0.23780476  1
  O  O2  1  0.23780476  0.81530715  0.70197311  1
  O  O3  1  0.29802689  0.76219524  0.18469285  1
  O  O4  1  0.76219524  0.18469285  0.29802689  1
  O  O5  1  0.18469285  0.29802689  0.76219524  1
loop_
_geom_bond_atom_site_label_1
_geom_bond_atom_site_label_2
_geom_bond_distance
_geom_bond_site_symmetry_2
Ba0 O2 2.757450 1_545
Ba0 O0 2.757450 1_554
Ba0 O1 2.757450 1_455
Ba0 O5 3.062497 1_554
Ba0 O4 3.062497 1_455
Ba0 O3 3.062497 1_545
Ba0 O5 3.134820 1_555
Ba0 O3 3.134821 1_555
Ba0 O4 3.134821 1_555
Ba1 O4 2.757450 1_565
Ba1 O3 2.757450 1_556
Ba1 O5 2.757450 1_655
Ba1 O1 3.062497 1_556
Ba1 O2 3.062497 1_655
Ba1 O0 3.062497 1_565
Ba1 O1 3.134820 1_555
Ba1 O0 3.134821 1_555
Ba1 O2 3.134821 1_555
Bi0 O2 2.140604 1_544
Bi0 O4 2.140604 1_455
Bi0 O5 2.140604 1_554
Bi0 O1 2.140604 1_445
Bi0 O0 2.140604 1_454
Bi0 O3 2.140604 1_545
Bi1 O3 2.290459 1_555
Bi1 O0 2.290459 1_555
Bi1 O5 2.290459 1_555
Bi1 O1 2.290459 1_555
Bi1 O4 2.290459 1_555
Bi1 O2 2.290459 1_555
