# generated using pymatgen
data_MgMnV4NiO12
_symmetry_space_group_name_H-M   'P 1'
_cell_length_a   6.93014376
_cell_length_b   7.09159222
_cell_length_c   5.69975092
_cell_angle_alpha   73.78197267
_cell_angle_beta   109.36028362
_cell_angle_gamma   100.90286369
_symmetry_Int_Tables_number   1
_chemical_formula_structural   MgMnV4NiO12
_chemical_formula_sum   'Mg1 Mn1 V4 Ni1 O12'
_cell_volume   252.31631436
_cell_formula_units_Z   1
loop_
 _symmetry_equiv_pos_site_id
 _symmetry_equiv_pos_as_xyz
  1  'x, y, z'
loop_
 _atom_site_type_symbol
 _atom_site_label
 _atom_site_symmetry_multiplicity
 _atom_site_fract_x
 _atom_site_fract_y
 _atom_site_fract_z
 _atom_site_occupancy
  Mg  Mg0  1  0.73715400  0.71686800  0.78896000  1
  Mn  Mn0  1  0.09263200  0.08792000  0.74900800  1
  V  V0  1  0.18063100  0.61127700  0.75665800  1
  V  V1  1  0.38008900  0.79535800  0.28189000  1
  V  V2  1  0.62697900  0.20720900  0.73280400  1
  V  V3  1  0.84797100  0.38886000  0.28529800  1
  Ni  Ni0  1  0.91435800  0.91624600  0.24985100  1
  O  O0  1  0.99691500  0.79144800  0.65394900  1
  O  O1  1  0.04576300  0.39553300  0.65990800  1
  O  O2  1  0.20669600  0.96766900  0.16115000  1
  O  O3  1  0.40764200  0.68440100  0.61974400  1
  O  O4  1  0.39005900  0.10016500  0.74184300  1
  O  O5  1  0.30206100  0.61495500  0.09418100  1
  O  O6  1  0.70556500  0.39612400  0.90550100  1
  O  O7  1  0.62612400  0.88733700  0.30218200  1
  O  O8  1  0.61643500  0.31545100  0.41342100  1
  O  O9  1  0.79303800  0.01304100  0.84725500  1
  O  O10  1  0.88121300  0.65252800  0.17311500  1
  O  O11  1  0.97089900  0.17983100  0.33328200  1
loop_
_geom_bond_atom_site_label_1
_geom_bond_atom_site_label_2
_geom_bond_distance
_geom_bond_site_symmetry_2
Mg0 O10 2.040616 1_556
Mg0 O0 2.107963 1_555
Mg0 O3 2.159352 1_555
Mg0 O9 2.160695 1_565
Mg0 O6 2.174161 1_555
Mg0 O7 2.610421 1_555
Mn0 O4 2.060078 1_555
Mn0 O1 2.159177 1_555
Mn0 O11 2.184301 1_455
Mn0 O2 2.185230 1_546
Mn0 O0 2.241506 1_445
Mn0 O9 2.256984 1_455
Ni0 O10 1.992342 1_555
Ni0 O11 1.992392 1_565
Ni0 O7 2.080137 1_555
Ni0 O9 2.122031 1_564
Ni0 O0 2.143548 1_555
Ni0 O2 2.188533 1_655
O0 V0 1.816481 1_655
O1 V0 1.762692 1_555
O1 V3 2.128747 1_455
O2 V1 1.717022 1_555
O3 V1 1.824971 1_555
O3 V0 1.905843 1_555
O4 V2 1.684475 1_555
O5 V1 1.786923 1_555
O5 V0 1.831993 1_554
O6 V2 1.779187 1_555
O6 V3 2.050181 1_556
O7 V1 1.684261 1_555
O8 V2 1.749546 1_555
O8 V3 1.904607 1_555
O9 V2 1.801637 1_555
O10 V3 1.795840 1_555
O11 V3 1.759170 1_555
