# generated using pymatgen
data_MgTe4Mo2W2(SeS)2
_symmetry_space_group_name_H-M   'P 1'
_cell_length_a   6.77812400
_cell_length_b   6.77747760
_cell_length_c   92.09653807
_cell_angle_alpha   90.00446803
_cell_angle_beta   89.99999378
_cell_angle_gamma   120.00319146
_symmetry_Int_Tables_number   1
_chemical_formula_structural   MgTe4Mo2W2(SeS)2
_chemical_formula_sum   'Mg8 Te32 Mo16 W16 Se16 S16'
_cell_volume   3663.84901353
_cell_formula_units_Z   8
loop_
 _symmetry_equiv_pos_site_id
 _symmetry_equiv_pos_as_xyz
  1  'x, y, z'
loop_
 _atom_site_type_symbol
 _atom_site_label
 _atom_site_symmetry_multiplicity
 _atom_site_fract_x
 _atom_site_fract_y
 _atom_site_fract_z
 _atom_site_occupancy
  Mg  Mg0_0  1  0.00002050  0.00004100  0.18678650  1
  Mg  Mg0_1  1  0.00002050  0.00004100  0.68678650  1
  Mg  Mg0_2  1  0.00002050  0.50004100  0.18678650  1
  Mg  Mg0_3  1  0.00002050  0.50004100  0.68678650  1
  Mg  Mg0_4  1  0.50002050  0.00004100  0.18678650  1
  Mg  Mg0_5  1  0.50002050  0.00004100  0.68678650  1
  Mg  Mg0_6  1  0.50002050  0.50004100  0.18678650  1
  Mg  Mg0_7  1  0.50002050  0.50004100  0.68678650  1
  Te  Te0_0  1  0.16666600  0.33333300  0.34915400  1
  Te  Te0_1  1  0.16666600  0.33333300  0.84915400  1
  Te  Te0_2  1  0.16666600  0.83333300  0.34915400  1
  Te  Te0_3  1  0.16666600  0.83333300  0.84915400  1
  Te  Te0_4  1  0.66666600  0.33333300  0.34915400  1
  Te  Te0_5  1  0.66666600  0.33333300  0.84915400  1
  Te  Te0_6  1  0.66666600  0.83333300  0.34915400  1
  Te  Te0_7  1  0.66666600  0.83333300  0.84915400  1
  Te  Te1_0  1  0.33335200  0.16670350  0.02663000  1
  Te  Te1_1  1  0.33335200  0.16670350  0.52663000  1
  Te  Te1_2  1  0.33335200  0.66670350  0.02663000  1
  Te  Te1_3  1  0.33335200  0.66670350  0.52663000  1
  Te  Te1_4  1  0.83335200  0.16670350  0.02663000  1
  Te  Te1_5  1  0.83335200  0.16670350  0.52663000  1
  Te  Te1_6  1  0.83335200  0.66670350  0.02663000  1
  Te  Te1_7  1  0.83335200  0.66670350  0.52663000  1
  Te  Te2_0  1  0.33332600  0.16665200  0.06739400  1
  Te  Te2_1  1  0.33332600  0.16665200  0.56739400  1
  Te  Te2_2  1  0.33332600  0.66665200  0.06739400  1
  Te  Te2_3  1  0.33332600  0.66665200  0.56739400  1
  Te  Te2_4  1  0.83332600  0.16665200  0.06739400  1
  Te  Te2_5  1  0.83332600  0.16665200  0.56739400  1
  Te  Te2_6  1  0.83332600  0.66665200  0.06739400  1
  Te  Te2_7  1  0.83332600  0.66665200  0.56739400  1
  Te  Te3_0  1  0.16666000  0.33331950  0.30841400  1
  Te  Te3_1  1  0.16666000  0.33331950  0.80841400  1
  Te  Te3_2  1  0.16666000  0.83331950  0.30841400  1
  Te  Te3_3  1  0.16666000  0.83331950  0.80841400  1
  Te  Te3_4  1  0.66666000  0.33331950  0.30841400  1
  Te  Te3_5  1  0.66666000  0.33331950  0.80841400  1
  Te  Te3_6  1  0.66666000  0.83331950  0.30841400  1
  Te  Te3_7  1  0.66666000  0.83331950  0.80841400  1
  Mo  Mo0_0  1  0.16666450  0.33332800  0.04701100  1
  Mo  Mo0_1  1  0.16666450  0.33332800  0.54701100  1
  Mo  Mo0_2  1  0.16666450  0.83332800  0.04701100  1
  Mo  Mo0_3  1  0.16666450  0.83332800  0.54701100  1
  Mo  Mo0_4  1  0.66666450  0.33332800  0.04701100  1
  Mo  Mo0_5  1  0.66666450  0.33332800  0.54701100  1
  Mo  Mo0_6  1  0.66666450  0.83332800  0.04701100  1
  Mo  Mo0_7  1  0.66666450  0.83332800  0.54701100  1
  Mo  Mo1_0  1  0.33333500  0.16667050  0.32877600  1
  Mo  Mo1_1  1  0.33333500  0.16667050  0.82877600  1
  Mo  Mo1_2  1  0.33333500  0.66667050  0.32877600  1
  Mo  Mo1_3  1  0.33333500  0.66667050  0.82877600  1
  Mo  Mo1_4  1  0.83333500  0.16667050  0.32877600  1
  Mo  Mo1_5  1  0.83333500  0.16667050  0.82877600  1
  Mo  Mo1_6  1  0.83333500  0.66667050  0.32877600  1
  Mo  Mo1_7  1  0.83333500  0.66667050  0.82877600  1
  W  W0_0  1  0.16663750  0.33327500  0.23804650  1
  W  W0_1  1  0.16663750  0.33327500  0.73804650  1
  W  W0_2  1  0.16663750  0.83327500  0.23804650  1
  W  W0_3  1  0.16663750  0.83327500  0.73804650  1
  W  W0_4  1  0.66663750  0.33327500  0.23804650  1
  W  W0_5  1  0.66663750  0.33327500  0.73804650  1
  W  W0_6  1  0.66663750  0.83327500  0.23804650  1
  W  W0_7  1  0.66663750  0.83327500  0.73804650  1
  W  W1_0  1  0.33335500  0.16671050  0.13730500  1
  W  W1_1  1  0.33335500  0.16671050  0.63730500  1
  W  W1_2  1  0.33335500  0.66671050  0.13730500  1
  W  W1_3  1  0.33335500  0.66671050  0.63730500  1
  W  W1_4  1  0.83335500  0.16671050  0.13730500  1
  W  W1_5  1  0.83335500  0.16671050  0.63730500  1
  W  W1_6  1  0.83335500  0.66671050  0.13730500  1
  W  W1_7  1  0.83335500  0.66671050  0.63730500  1
  Se  Se0_0  1  0.33329150  0.16658200  0.21987800  1
  Se  Se0_1  1  0.33329150  0.16658200  0.71987800  1
  Se  Se0_2  1  0.33329150  0.66658200  0.21987800  1
  Se  Se0_3  1  0.33329150  0.66658200  0.71987800  1
  Se  Se0_4  1  0.83329150  0.16658200  0.21987800  1
  Se  Se0_5  1  0.83329150  0.16658200  0.71987800  1
  Se  Se0_6  1  0.83329150  0.66658200  0.21987800  1
  Se  Se0_7  1  0.83329150  0.66658200  0.71987800  1
  Se  Se1_0  1  0.33332300  0.16664600  0.25603000  1
  Se  Se1_1  1  0.33332300  0.16664600  0.75603000  1
  Se  Se1_2  1  0.33332300  0.66664600  0.25603000  1
  Se  Se1_3  1  0.33332300  0.66664600  0.75603000  1
  Se  Se1_4  1  0.83332300  0.16664600  0.25603000  1
  Se  Se1_5  1  0.83332300  0.16664600  0.75603000  1
  Se  Se1_6  1  0.83332300  0.66664600  0.25603000  1
  Se  Se1_7  1  0.83332300  0.66664600  0.75603000  1
  S  S0_0  1  0.16671800  0.33343650  0.15369200  1
  S  S0_1  1  0.16671800  0.33343650  0.65369200  1
  S  S0_2  1  0.16671800  0.83343650  0.15369200  1
  S  S0_3  1  0.16671800  0.83343650  0.65369200  1
  S  S0_4  1  0.66671800  0.33343650  0.15369200  1
  S  S0_5  1  0.66671800  0.33343650  0.65369200  1
  S  S0_6  1  0.66671800  0.83343650  0.15369200  1
  S  S0_7  1  0.66671800  0.83343650  0.65369200  1
  S  S1_0  1  0.16665100  0.33330300  0.12102050  1
  S  S1_1  1  0.16665100  0.33330300  0.62102050  1
  S  S1_2  1  0.16665100  0.83330300  0.12102050  1
  S  S1_3  1  0.16665100  0.83330300  0.62102050  1
  S  S1_4  1  0.66665100  0.33330300  0.12102050  1
  S  S1_5  1  0.66665100  0.33330300  0.62102050  1
  S  S1_6  1  0.66665100  0.83330300  0.12102050  1
  S  S1_7  1  0.66665100  0.83330300  0.62102050  1
loop_
_geom_bond_atom_site_label_1
_geom_bond_atom_site_label_2
_geom_bond_distance
_geom_bond_site_symmetry_2
Mg0_0 Mg0_6 3.388737 1_555
Mg0_0 Mg0_6 3.388737 1_445
Mg0_0 Mg0_2 3.388739 1_555
Mg0_0 Mg0_2 3.388739 1_545
Mg0_0 Mg0_4 3.389062 1_555
Mg0_0 Mg0_4 3.389062 1_455
Mg0_1 Mg0_7 3.388737 1_555
Mg0_1 Mg0_7 3.388737 1_445
Mg0_1 Mg0_3 3.388739 1_555
Mg0_1 Mg0_3 3.388739 1_545
Mg0_1 Mg0_5 3.389062 1_455
Mg0_1 Mg0_5 3.389062 1_555
Mg0_2 Mg0_4 3.388737 1_565
Mg0_2 Mg0_4 3.388737 1_455
Mg0_2 Mg0_6 3.389062 1_455
Mg0_2 Mg0_6 3.389062 1_555
Mg0_3 Mg0_5 3.388737 1_455
Mg0_3 Mg0_5 3.388737 1_565
Mg0_3 Mg0_7 3.389062 1_455
Mg0_3 Mg0_7 3.389062 1_555
Mg0_4 Mg0_6 3.388739 1_555
Mg0_4 Mg0_6 3.388739 1_545
Mg0_5 Mg0_7 3.388739 1_555
Mg0_5 Mg0_7 3.388739 1_545
Mo0_0 Te2_2 2.711203 1_555
Mo0_0 Te1_0 2.711221 1_555
Mo0_0 Te1_4 2.711223 1_455
Mo0_0 Te1_2 2.711538 1_555
Mo0_0 Te2_0 2.711579 1_555
Mo0_0 Te2_4 2.711582 1_455
Mo0_1 Te2_3 2.711203 1_555
Mo0_1 Te1_1 2.711221 1_555
Mo0_1 Te1_5 2.711223 1_455
Mo0_1 Te1_3 2.711538 1_555
Mo0_1 Te2_1 2.711579 1_555
Mo0_1 Te2_5 2.711582 1_455
Mo0_2 Te2_0 2.711203 1_565
Mo0_2 Te1_2 2.711221 1_555
Mo0_2 Te1_6 2.711223 1_455
Mo0_2 Te1_0 2.711538 1_565
Mo0_2 Te2_2 2.711579 1_555
Mo0_2 Te2_6 2.711582 1_455
Mo0_3 Te2_1 2.711203 1_565
Mo0_3 Te1_3 2.711221 1_555
Mo0_3 Te1_7 2.711223 1_455
Mo0_3 Te1_1 2.711538 1_565
Mo0_3 Te2_3 2.711579 1_555
Mo0_3 Te2_7 2.711582 1_455
Mo0_4 Te2_6 2.711203 1_555
Mo0_4 Te1_4 2.711221 1_555
Mo0_4 Te1_0 2.711223 1_555
Mo0_4 Te1_6 2.711538 1_555
Mo0_4 Te2_4 2.711579 1_555
Mo0_4 Te2_0 2.711582 1_555
Mo0_5 Te2_7 2.711203 1_555
Mo0_5 Te1_5 2.711221 1_555
Mo0_5 Te1_1 2.711223 1_555
Mo0_5 Te1_7 2.711538 1_555
Mo0_5 Te2_5 2.711579 1_555
Mo0_5 Te2_1 2.711582 1_555
Mo0_6 Te2_4 2.711203 1_565
Mo0_6 Te1_6 2.711221 1_555
Mo0_6 Te1_2 2.711223 1_555
Mo0_6 Te1_4 2.711538 1_565
Mo0_6 Te2_6 2.711579 1_555
Mo0_6 Te2_2 2.711582 1_555
Mo0_7 Te2_5 2.711203 1_565
Mo0_7 Te1_7 2.711221 1_555
Mo0_7 Te1_3 2.711223 1_555
Mo0_7 Te1_5 2.711538 1_565
Mo0_7 Te2_7 2.711579 1_555
Mo0_7 Te2_3 2.711582 1_555
Mo1_0 Te3_2 2.709979 1_545
Mo1_0 Te3_0 2.710183 1_555
Mo1_0 Te3_4 2.710186 1_555
Mo1_0 Te0_4 2.711110 1_555
Mo1_0 Te0_0 2.711112 1_555
Mo1_0 Te0_2 2.711185 1_545
Mo1_1 Te3_3 2.709979 1_545
Mo1_1 Te3_1 2.710183 1_555
Mo1_1 Te3_5 2.710186 1_555
Mo1_1 Te0_5 2.711110 1_555
Mo1_1 Te0_1 2.711112 1_555
Mo1_1 Te0_3 2.711185 1_545
Mo1_2 Te3_0 2.709979 1_555
Mo1_2 Te3_2 2.710183 1_555
Mo1_2 Te3_6 2.710186 1_555
Mo1_2 Te0_6 2.711110 1_555
Mo1_2 Te0_2 2.711112 1_555
Mo1_2 Te0_0 2.711185 1_555
Mo1_3 Te3_1 2.709979 1_555
Mo1_3 Te3_3 2.710183 1_555
Mo1_3 Te3_7 2.710186 1_555
Mo1_3 Te0_7 2.711110 1_555
Mo1_3 Te0_3 2.711112 1_555
Mo1_3 Te0_1 2.711185 1_555
Mo1_4 Te3_6 2.709979 1_545
Mo1_4 Te3_4 2.710183 1_555
Mo1_4 Te3_0 2.710186 1_655
Mo1_4 Te0_0 2.711110 1_655
Mo1_4 Te0_4 2.711112 1_555
Mo1_4 Te0_6 2.711185 1_545
Mo1_5 Te3_7 2.709979 1_545
Mo1_5 Te3_5 2.710183 1_555
Mo1_5 Te3_1 2.710186 1_655
Mo1_5 Te0_1 2.711110 1_655
Mo1_5 Te0_5 2.711112 1_555
Mo1_5 Te0_7 2.711185 1_545
Mo1_6 Te3_4 2.709979 1_555
Mo1_6 Te3_6 2.710183 1_555
Mo1_6 Te3_2 2.710186 1_655
Mo1_6 Te0_2 2.711110 1_655
Mo1_6 Te0_6 2.711112 1_555
Mo1_6 Te0_4 2.711185 1_555
Mo1_7 Te3_5 2.709979 1_555
Mo1_7 Te3_7 2.710183 1_555
Mo1_7 Te3_3 2.710186 1_655
Mo1_7 Te0_3 2.711110 1_655
Mo1_7 Te0_7 2.711112 1_555
Mo1_7 Te0_5 2.711185 1_555
Se0_0 W0_2 2.574369 1_545
Se0_0 W0_4 2.574513 1_555
Se0_0 W0_0 2.574518 1_555
Se0_1 W0_3 2.574369 1_545
Se0_1 W0_5 2.574513 1_555
Se0_1 W0_1 2.574518 1_555
Se0_2 W0_0 2.574369 1_555
Se0_2 W0_6 2.574513 1_555
Se0_2 W0_2 2.574518 1_555
Se0_3 W0_1 2.574369 1_555
Se0_3 W0_7 2.574513 1_555
Se0_3 W0_3 2.574518 1_555
Se0_4 W0_6 2.574369 1_545
Se0_4 W0_0 2.574513 1_655
Se0_4 W0_4 2.574518 1_555
Se0_5 W0_7 2.574369 1_545
Se0_5 W0_1 2.574513 1_655
Se0_5 W0_5 2.574518 1_555
Se0_6 W0_4 2.574369 1_555
Se0_6 W0_2 2.574513 1_655
Se0_6 W0_6 2.574518 1_555
Se0_7 W0_5 2.574369 1_555
Se0_7 W0_3 2.574513 1_655
Se0_7 W0_7 2.574518 1_555
Se1_0 W0_2 2.563385 1_545
Se1_0 W0_4 2.563445 1_555
Se1_0 W0_0 2.563446 1_555
Se1_1 W0_3 2.563385 1_545
Se1_1 W0_5 2.563445 1_555
Se1_1 W0_1 2.563446 1_555
Se1_2 W0_0 2.563385 1_555
Se1_2 W0_6 2.563445 1_555
Se1_2 W0_2 2.563446 1_555
Se1_3 W0_1 2.563385 1_555
Se1_3 W0_7 2.563445 1_555
Se1_3 W0_3 2.563446 1_555
Se1_4 W0_6 2.563385 1_545
Se1_4 W0_0 2.563445 1_655
Se1_4 W0_4 2.563446 1_555
Se1_5 W0_7 2.563385 1_545
Se1_5 W0_1 2.563445 1_655
Se1_5 W0_5 2.563446 1_555
Se1_6 W0_4 2.563385 1_555
Se1_6 W0_2 2.563445 1_655
Se1_6 W0_6 2.563446 1_555
Se1_7 W0_5 2.563385 1_555
Se1_7 W0_3 2.563445 1_655
Se1_7 W0_7 2.563446 1_555
S0_0 W1_2 2.470711 1_555
S0_0 W1_4 2.471112 1_455
S0_0 W1_0 2.471112 1_555
S0_1 W1_3 2.470711 1_555
S0_1 W1_5 2.471112 1_455
S0_1 W1_1 2.471112 1_555
S0_2 W1_0 2.470711 1_565
S0_2 W1_6 2.471112 1_455
S0_2 W1_2 2.471112 1_555
S0_3 W1_1 2.470711 1_565
S0_3 W1_7 2.471112 1_455
S0_3 W1_3 2.471112 1_555
S0_4 W1_6 2.470711 1_555
S0_4 W1_0 2.471112 1_555
S0_4 W1_4 2.471112 1_555
S0_5 W1_7 2.470711 1_555
S0_5 W1_1 2.471112 1_555
S0_5 W1_5 2.471112 1_555
S0_6 W1_4 2.470711 1_565
S0_6 W1_2 2.471112 1_555
S0_6 W1_6 2.471112 1_555
S0_7 W1_5 2.470711 1_565
S0_7 W1_3 2.471112 1_555
S0_7 W1_7 2.471112 1_555
S1_0 W1_4 2.465153 1_455
S1_0 W1_0 2.465156 1_555
S1_0 W1_2 2.465364 1_555
S1_1 W1_5 2.465153 1_455
S1_1 W1_1 2.465156 1_555
S1_1 W1_3 2.465364 1_555
S1_2 W1_6 2.465153 1_455
S1_2 W1_2 2.465156 1_555
S1_2 W1_0 2.465364 1_565
S1_3 W1_7 2.465153 1_455
S1_3 W1_3 2.465156 1_555
S1_3 W1_1 2.465364 1_565
S1_4 W1_0 2.465153 1_555
S1_4 W1_4 2.465156 1_555
S1_4 W1_6 2.465364 1_555
S1_5 W1_1 2.465153 1_555
S1_5 W1_5 2.465156 1_555
S1_5 W1_7 2.465364 1_555
S1_6 W1_2 2.465153 1_555
S1_6 W1_6 2.465156 1_555
S1_6 W1_4 2.465364 1_565
S1_7 W1_3 2.465153 1_555
S1_7 W1_7 2.465156 1_555
S1_7 W1_5 2.465364 1_565
