# generated using pymatgen
data_MgZn(CoO2)4
_symmetry_space_group_name_H-M   'P 1'
_cell_length_a   3.07216589
_cell_length_b   7.29367412
_cell_length_c   7.64745219
_cell_angle_alpha   80.19732149
_cell_angle_beta   78.33601610
_cell_angle_gamma   77.88329624
_symmetry_Int_Tables_number   1
_chemical_formula_structural   MgZn(CoO2)4
_chemical_formula_sum   'Mg1 Zn1 Co4 O8'
_cell_volume   162.61362798
_cell_formula_units_Z   1
loop_
 _symmetry_equiv_pos_site_id
 _symmetry_equiv_pos_as_xyz
  1  'x, y, z'
loop_
 _atom_site_type_symbol
 _atom_site_label
 _atom_site_symmetry_multiplicity
 _atom_site_fract_x
 _atom_site_fract_y
 _atom_site_fract_z
 _atom_site_occupancy
  Mg  Mg0  1  0.19502100  0.78281500  0.82307100  1
  Zn  Zn0  1  0.34355400  0.12546500  0.18043500  1
  Co  Co0  1  0.64201700  0.17483700  0.53906400  1
  Co  Co1  1  0.11301500  0.53627500  0.23505700  1
  Co  Co2  1  0.87855300  0.38910800  0.84927800  1
  Co  Co3  1  0.34487100  0.82134500  0.48678300  1
  O  O0  1  0.80808600  0.71042700  0.67021600  1
  O  O1  1  0.47394900  0.34318000  0.70520700  1
  O  O2  1  0.51433100  0.67434900  0.29446300  1
  O  O3  1  0.15865400  0.30795300  0.37299000  1
  O  O4  1  0.16151300  0.02396100  0.65083600  1
  O  O5  1  0.90357100  0.17191300  0.01433100  1
  O  O6  1  0.81944800  0.99182400  0.36874100  1
  O  O7  1  0.23128900  0.54622400  0.98681800  1
loop_
_geom_bond_atom_site_label_1
_geom_bond_atom_site_label_2
_geom_bond_distance
_geom_bond_site_symmetry_2
Mg0 O7 1.948893 1_555
Mg0 O4 2.007234 1_565
Mg0 O0 2.023308 1_455
Mg0 O0 2.023614 1_555
Co0 O1 1.840745 1_555
Co0 O6 1.942940 1_545
Co0 O4 1.993037 1_555
Co0 O4 1.995685 1_655
Co0 O3 2.118212 1_655
Co0 O3 2.120906 1_555
Co1 O3 1.808096 1_555
Co1 O7 1.851067 1_554
Co1 O2 1.908868 1_455
Co1 O2 1.908966 1_555
Co2 O5 1.848218 1_556
Co2 O1 1.930138 1_555
Co2 O1 1.930154 1_655
Co2 O7 2.231993 1_555
Co2 O7 2.233053 1_655
Co2 O0 2.495710 1_555
Co3 O2 1.891207 1_555
Co3 O4 2.017755 1_565
Co3 O6 2.081100 1_455
Co3 O6 2.081675 1_555
Co3 O0 2.140111 1_455
Co3 O0 2.141236 1_555
O3 Zn0 2.067473 1_555
O5 Zn0 1.975560 1_555
O5 Zn0 1.977612 1_655
O6 Zn0 2.204492 1_665
O6 Zn0 2.221819 1_565
