# generated using pymatgen
data_MgV4O7F5
_symmetry_space_group_name_H-M   'P 1'
_cell_length_a   5.28018156
_cell_length_b   5.38307670
_cell_length_c   8.71156980
_cell_angle_alpha   76.07649060
_cell_angle_beta   89.68277245
_cell_angle_gamma   60.17014442
_symmetry_Int_Tables_number   1
_chemical_formula_structural   MgV4O7F5
_chemical_formula_sum   'Mg1 V4 O7 F5'
_cell_volume   206.57050183
_cell_formula_units_Z   1
loop_
 _symmetry_equiv_pos_site_id
 _symmetry_equiv_pos_as_xyz
  1  'x, y, z'
loop_
 _atom_site_type_symbol
 _atom_site_label
 _atom_site_symmetry_multiplicity
 _atom_site_fract_x
 _atom_site_fract_y
 _atom_site_fract_z
 _atom_site_occupancy
  Mg  Mg0  1  0.57628700  0.88385500  0.85381800  1
  V  V0  1  0.71787200  0.51456300  0.25492200  1
  V  V1  1  0.43376100  0.02921600  0.50134100  1
  V  V2  1  0.24279200  0.54430000  0.73715800  1
  V  V3  1  0.03797700  0.97934000  0.02345000  1
  O  O0  1  0.96053200  0.22664600  0.13157400  1
  O  O1  1  0.55183900  0.74689200  0.37598600  1
  O  O2  1  0.45150100  0.73946200  0.06034800  1
  O  O3  1  0.45007300  0.74760100  0.68141500  1
  O  O4  1  0.46139400  0.23202200  0.63233100  1
  O  O5  1  0.01779400  0.73355800  0.86992600  1
  O  O6  1  0.07973100  0.22546600  0.42933600  1
  F  F0  1  0.93720900  0.76328500  0.56295300  1
  F  F1  1  0.95277800  0.70983500  0.17832700  1
  F  F2  1  0.55250800  0.25515200  0.32804900  1
  F  F3  1  0.58714100  0.22169100  0.92026700  1
  F  F4  1  0.11381200  0.20962100  0.83022600  1
loop_
_geom_bond_atom_site_label_1
_geom_bond_atom_site_label_2
_geom_bond_distance
_geom_bond_site_symmetry_2
Mg0 O2 2.024545 1_556
Mg0 O5 2.044876 1_655
Mg0 O3 2.065267 1_555
Mg0 O4 2.178332 1_565
O0 V3 1.698336 1_645
O0 V0 2.002279 1_555
O1 V0 1.725905 1_555
O1 V1 1.933775 1_565
O2 V3 1.881852 1_555
O2 V0 1.913603 1_555
O3 V1 1.869108 1_565
O3 V2 1.887156 1_555
O4 V1 1.809743 1_555
O4 V2 1.946496 1_555
O5 V2 1.770554 1_555
O5 V3 2.131671 1_556
O6 V1 1.653291 1_555
O6 V0 2.077795 1_455
F0 V2 1.889472 1_655
F0 V1 2.294361 1_565
F1 V3 1.956544 1_655
F1 V0 2.009732 1_555
F2 V0 1.974077 1_555
F2 V1 2.003982 1_555
F3 Mg0 2.063096 1_545
F3 V2 2.103330 1_555
F3 V3 2.132245 1_646
F4 V3 2.003147 1_546
F4 Mg0 2.156955 1_545
F4 V2 2.208733 1_555
