# generated using pymatgen
data_Na10Zr4Ga4Si7S5O48
_symmetry_space_group_name_H-M   'P 1'
_cell_length_a   18.03100617
_cell_length_b   8.96034821
_cell_length_c   22.68702610
_cell_angle_alpha   89.71352105
_cell_angle_beta   91.23185281
_cell_angle_gamma   119.71501907
_symmetry_Int_Tables_number   1
_chemical_formula_structural   Na10Zr4Ga4Si7S5O48
_chemical_formula_sum   'Na30 Zr12 Ga12 Si21 S15 O144'
_cell_volume   3182.61019158
_cell_formula_units_Z   3
loop_
 _symmetry_equiv_pos_site_id
 _symmetry_equiv_pos_as_xyz
  1  'x, y, z'
loop_
 _atom_site_type_symbol
 _atom_site_label
 _atom_site_symmetry_multiplicity
 _atom_site_fract_x
 _atom_site_fract_y
 _atom_site_fract_z
 _atom_site_occupancy
  Na  Na0  1  0.18481509  0.37065034  0.24391940  1
  Na  Na1  1  0.68472038  0.37103660  0.24426064  1
  Na  Na2  1  0.99387458  0.62766917  0.25247966  1
  Na  Na3  1  0.49408076  0.62747101  0.25246680  1
  Na  Na4  1  0.49415537  0.35863436  0.75543860  1
  Na  Na5  1  0.18434901  0.99754948  0.74694806  1
  Na  Na6  1  0.68636911  0.00082481  0.74573111  1
  Na  Na7  1  0.65612960  0.33827844  0.58033048  1
  Na  Na8  1  0.01892013  0.70460102  0.57989436  1
  Na  Na9  1  0.82738701  0.95950499  0.58829559  1
  Na  Na10  1  0.48851033  0.66879390  0.91275204  1
  Na  Na11  1  0.98965461  0.67097989  0.91214374  1
  Na  Na12  1  0.85239157  0.03672247  0.90934219  1
  Na  Na13  1  0.15945360  0.29211813  0.92042946  1
  Na  Na14  1  0.48934802  0.31043498  0.41233054  1
  Na  Na15  1  0.98755609  0.30768877  0.41219537  1
  Na  Na16  1  0.35388875  0.66900886  0.40925997  1
  Na  Na17  1  0.85316898  0.66844161  0.41195692  1
  Na  Na18  1  0.01449178  0.00476791  0.49665677  1
  Na  Na19  1  0.51123615  0.99478672  0.49532822  1
  Na  Na20  1  0.00980747  0.01516004  0.99831307  1
  Na  Na21  1  0.51056196  0.02746165  0.99441937  1
  Na  Na22  1  0.33823358  0.32704174  0.83115830  1
  Na  Na23  1  0.84042943  0.33735665  0.82627292  1
  Na  Na24  1  0.33491207  0.33358656  0.32851463  1
  Na  Na25  1  0.83419990  0.33280768  0.32974830  1
  Na  Na26  1  0.17318122  0.66416522  0.15989951  1
  Na  Na27  1  0.67297889  0.66440060  0.16018241  1
  Na  Na28  1  0.17335887  0.67479899  0.66581575  1
  Na  Na29  1  0.67198927  0.68195173  0.66400416  1
  Zr  Zr0  1  0.99912661  0.99025024  0.64844027  1
  Zr  Zr1  1  0.49551416  0.98274519  0.64801987  1
  Zr  Zr2  1  0.99993081  0.01244799  0.14531042  1
  Zr  Zr3  1  0.49956283  0.01148883  0.14536027  1
  Zr  Zr4  1  0.33041731  0.31859484  0.97969906  1
  Zr  Zr5  1  0.82440169  0.32231874  0.98096560  1
  Zr  Zr6  1  0.32665295  0.33018041  0.48060796  1
  Zr  Zr7  1  0.82745055  0.33795967  0.48106277  1
  Zr  Zr8  1  0.16463008  0.65475414  0.31305564  1
  Zr  Zr9  1  0.66412374  0.65495157  0.31355059  1
  Zr  Zr10  1  0.16225171  0.67225185  0.81332618  1
  Zr  Zr11  1  0.66556572  0.67553916  0.81390353  1
  Ga  Ga0  1  0.00178539  0.99941817  0.35068981  1
  Ga  Ga1  1  0.50314075  0.99959323  0.35032046  1
  Ga  Ga2  1  0.99851125  0.99860384  0.84860546  1
  Ga  Ga3  1  0.49814604  0.00279878  0.85294895  1
  Ga  Ga4  1  0.33374647  0.31732238  0.68813489  1
  Ga  Ga5  1  0.83423926  0.33327632  0.68628728  1
  Ga  Ga6  1  0.33666071  0.35578505  0.18474477  1
  Ga  Ga7  1  0.83641886  0.35577686  0.18518846  1
  Ga  Ga8  1  0.15843525  0.64345637  0.01536853  1
  Ga  Ga9  1  0.65499606  0.63969536  0.01562852  1
  Ga  Ga10  1  0.16169269  0.67450045  0.51384132  1
  Ga  Ga11  1  0.66178697  0.66760873  0.51878347  1
  Si  Si0  1  0.35648921  0.71389540  0.25072987  1
  Si  Si1  1  0.85633651  0.71398507  0.25063342  1
  Si  Si2  1  0.99102530  0.28181879  0.25171875  1
  Si  Si3  1  0.49109255  0.28197842  0.25168188  1
  Si  Si4  1  0.99181242  0.69656623  0.75219276  1
  Si  Si5  1  0.49155915  0.69903215  0.75293122  1
  Si  Si6  1  0.35553670  0.99794915  0.75110294  1
  Si  Si7  1  0.85584971  0.00755881  0.75045425  1
  Si  Si8  1  0.18995336  0.03423273  0.58564702  1
  Si  Si9  1  0.68663521  0.03590433  0.58539770  1
  Si  Si10  1  0.82871918  0.62078533  0.58487013  1
  Si  Si11  1  0.19002521  0.34568673  0.08339438  1
  Si  Si12  1  0.68831342  0.34605657  0.08549410  1
  Si  Si13  1  0.02004155  0.36687615  0.91658649  1
  Si  Si14  1  0.52083948  0.36334694  0.91535532  1
  Si  Si15  1  0.16272926  0.95011685  0.91923835  1
  Si  Si16  1  0.66092677  0.94970880  0.92021072  1
  Si  Si17  1  0.16122616  0.37140122  0.41975544  1
  Si  Si18  1  0.66065459  0.36588829  0.41909169  1
  Si  Si19  1  0.02109947  0.67639218  0.41633392  1
  Si  Si20  1  0.52340457  0.67708731  0.41756310  1
  S  S0  1  0.14708570  0.00511377  0.25073727  1
  S  S1  1  0.64719823  0.00506541  0.25051726  1
  S  S2  1  0.14836071  0.29342247  0.75092765  1
  S  S3  1  0.64645322  0.28879311  0.75046714  1
  S  S4  1  0.48048079  0.33714166  0.58467898  1
  S  S5  1  0.98215732  0.33888905  0.58347269  1
  S  S6  1  0.32812139  0.62059656  0.58374188  1
  S  S7  1  0.48174033  0.62541075  0.08445681  1
  S  S8  1  0.98188979  0.62510332  0.08422528  1
  S  S9  1  0.32851793  0.03723922  0.08577163  1
  S  S10  1  0.82889275  0.03875114  0.08477582  1
  S  S11  1  0.31292925  0.67280825  0.91888495  1
  S  S12  1  0.81243051  0.66932970  0.91886226  1
  S  S13  1  0.31184259  0.95529544  0.41862908  1
  S  S14  1  0.81311717  0.95742094  0.41838678  1
  O  O0  1  0.10863659  0.03562833  0.30305255  1
  O  O1  1  0.60875563  0.03573284  0.30297022  1
  O  O2  1  0.41646999  0.79503509  0.31043772  1
  O  O3  1  0.91671389  0.79497044  0.31003465  1
  O  O4  1  0.48261842  0.17397265  0.31163536  1
  O  O5  1  0.98311766  0.17452913  0.31167624  1
  O  O6  1  0.11056218  0.18731912  0.80443266  1
  O  O7  1  0.60622124  0.17958777  0.80170102  1
  O  O8  1  0.48317280  0.79151835  0.81137471  1
  O  O9  1  0.98565783  0.79478782  0.81114249  1
  O  O10  1  0.42172958  0.04315101  0.80605705  1
  O  O11  1  0.91292259  0.03070356  0.81053017  1
  O  O12  1  0.40109770  0.97962580  0.69162485  1
  O  O13  1  0.89994621  0.98303311  0.69116604  1
  O  O14  1  0.09416189  0.21365662  0.69782352  1
  O  O15  1  0.59282908  0.21493630  0.69521840  1
  O  O16  1  0.01607459  0.82325430  0.69406486  1
  O  O17  1  0.51758706  0.82870830  0.69583797  1
  O  O18  1  0.40459607  0.82727266  0.19355220  1
  O  O19  1  0.90479089  0.82801772  0.19334006  1
  O  O20  1  0.01850514  0.20432629  0.19646759  1
  O  O21  1  0.51826072  0.20383517  0.19655863  1
  O  O22  1  0.09194508  0.97070406  0.19722598  1
  O  O23  1  0.59196301  0.97066663  0.19723129  1
  O  O24  1  0.43979744  0.35911737  0.63734805  1
  O  O25  1  0.94095151  0.36597878  0.63431958  1
  O  O26  1  0.24729514  0.13194726  0.64489373  1
  O  O27  1  0.74747433  0.12439694  0.64405309  1
  O  O28  1  0.32142268  0.51634527  0.63590144  1
  O  O29  1  0.81381999  0.49130395  0.63864403  1
  O  O30  1  0.44187344  0.52066729  0.13808482  1
  O  O31  1  0.94165111  0.52094504  0.13770682  1
  O  O32  1  0.32161469  0.12556051  0.13750952  1
  O  O33  1  0.82253767  0.12881340  0.13611490  1
  O  O34  1  0.24652270  0.36098308  0.14410220  1
  O  O35  1  0.74565591  0.36213612  0.14563078  1
  O  O36  1  0.23490605  0.31638629  0.02531487  1
  O  O37  1  0.73504297  0.31497142  0.02916717  1
  O  O38  1  0.42856759  0.54351598  0.03075084  1
  O  O39  1  0.92897689  0.54349480  0.03021551  1
  O  O40  1  0.34393174  0.14420469  0.03147641  1
  O  O41  1  0.84420086  0.14347325  0.02961059  1
  O  O42  1  0.23612377  0.15532314  0.52836635  1
  O  O43  1  0.73339343  0.16203025  0.52866184  1
  O  O44  1  0.34365580  0.54537166  0.52912229  1
  O  O45  1  0.85253755  0.54898631  0.52514088  1
  O  O46  1  0.42880447  0.31321450  0.53022560  1
  O  O47  1  0.92912411  0.30706778  0.52819881  1
  O  O48  1  0.27310438  0.69553326  0.97096138  1
  O  O49  1  0.77280339  0.69622205  0.97036474  1
  O  O50  1  0.08361978  0.44829496  0.97348011  1
  O  O51  1  0.57914730  0.45313786  0.97345319  1
  O  O52  1  0.14897184  0.82322117  0.97485613  1
  O  O53  1  0.65135756  0.82505100  0.97560107  1
  O  O54  1  0.27190872  0.84898991  0.47068615  1
  O  O55  1  0.77468329  0.85356540  0.47151878  1
  O  O56  1  0.15072792  0.47554618  0.47470967  1
  O  O57  1  0.64787852  0.45876698  0.47675969  1
  O  O58  1  0.07634831  0.70165494  0.47694401  1
  O  O59  1  0.58347118  0.70010618  0.47440274  1
  O  O60  1  0.06557666  0.64370489  0.35885492  1
  O  O61  1  0.56231281  0.63955861  0.35764878  1
  O  O62  1  0.25963935  0.88269978  0.36451503  1
  O  O63  1  0.75951190  0.87998535  0.36491389  1
  O  O64  1  0.18446869  0.49118148  0.35991290  1
  O  O65  1  0.68257225  0.49054565  0.36071581  1
  O  O66  1  0.06471089  0.49235109  0.86043152  1
  O  O67  1  0.56233590  0.48621972  0.85669658  1
  O  O68  1  0.18158084  0.87746683  0.85874815  1
  O  O69  1  0.68474707  0.87803128  0.86023264  1
  O  O70  1  0.25879828  0.63586302  0.86509344  1
  O  O71  1  0.76066091  0.63780104  0.86438105  1
  O  O72  1  0.00495760  0.83993417  0.41001752  1
  O  O73  1  0.50491940  0.83809651  0.41066785  1
  O  O74  1  0.39735648  0.97196040  0.41449310  1
  O  O75  1  0.89840839  0.97248084  0.41344734  1
  O  O76  1  0.07528531  0.18615897  0.41085245  1
  O  O77  1  0.57394426  0.18149206  0.40958600  1
  O  O78  1  0.00849074  0.17333787  0.90909859  1
  O  O79  1  0.50910522  0.17315824  0.90895099  1
  O  O80  1  0.07727991  0.97212159  0.91126482  1
  O  O81  1  0.57498777  0.96238722  0.91084086  1
  O  O82  1  0.39941962  0.81995685  0.91344355  1
  O  O83  1  0.89874993  0.82361010  0.91412072  1
  O  O84  1  0.49083010  0.18207229  0.58857164  1
  O  O85  1  0.98955735  0.18134632  0.58882829  1
  O  O86  1  0.09369785  0.01281202  0.58890463  1
  O  O87  1  0.59426636  0.03375347  0.58841567  1
  O  O88  1  0.40756479  0.79446748  0.58699871  1
  O  O89  1  0.91354845  0.81599755  0.58816160  1
  O  O90  1  0.48881961  0.79704196  0.08924404  1
  O  O91  1  0.98879372  0.79717762  0.08869194  1
  O  O92  1  0.40712682  0.01965808  0.08869584  1
  O  O93  1  0.90794133  0.02137299  0.08787518  1
  O  O94  1  0.09501470  0.16958396  0.08863838  1
  O  O95  1  0.59429632  0.16983482  0.08957576  1
  O  O96  1  0.34386007  0.17109887  0.74588912  1
  O  O97  1  0.83822567  0.17025462  0.74448685  1
  O  O98  1  0.23299309  0.30451627  0.74502047  1
  O  O99  1  0.73073420  0.30399327  0.74490882  1
  O  O100  1  0.41000059  0.50666739  0.73949981  1
  O  O101  1  0.90841684  0.51077500  0.74236367  1
  O  O102  1  0.34397076  0.51682404  0.24578075  1
  O  O103  1  0.84427342  0.51723106  0.24577844  1
  O  O104  1  0.40981008  0.31309278  0.23943093  1
  O  O105  1  0.90989079  0.31289486  0.23934571  1
  O  O106  1  0.23201294  0.15761992  0.24459996  1
  O  O107  1  0.73206411  0.15757624  0.24452741  1
  O  O108  1  0.32283721  0.51391569  0.92420194  1
  O  O109  1  0.82685047  0.51862981  0.92408322  1
  O  O110  1  0.42896930  0.36612563  0.92299315  1
  O  O111  1  0.92653266  0.35622695  0.92414241  1
  O  O112  1  0.24473481  0.14876367  0.92224248  1
  O  O113  1  0.74959931  0.13904817  0.92394685  1
  O  O114  1  0.32573601  0.13436291  0.42379935  1
  O  O115  1  0.82663110  0.13509570  0.42290526  1
  O  O116  1  0.24999089  0.35978272  0.42327523  1
  O  O117  1  0.74923054  0.35485900  0.42047041  1
  O  O118  1  0.42787517  0.49755993  0.42435146  1
  O  O119  1  0.92784374  0.49404671  0.42069530  1
  O  O120  1  0.18177086  0.52057246  0.07670719  1
  O  O121  1  0.68137449  0.52125646  0.07701462  1
  O  O122  1  0.06722490  0.64278506  0.08026121  1
  O  O123  1  0.56723819  0.64328948  0.08060130  1
  O  O124  1  0.25266682  0.86742583  0.07819462  1
  O  O125  1  0.75349501  0.86851601  0.07803126  1
  O  O126  1  0.17669101  0.83796178  0.57743277  1
  O  O127  1  0.68088773  0.84905502  0.57688948  1
  O  O128  1  0.25330336  0.63971769  0.57669268  1
  O  O129  1  0.74333209  0.64013062  0.57556851  1
  O  O130  1  0.06710276  0.49310406  0.57846147  1
  O  O131  1  0.56690923  0.48867770  0.58114779  1
  O  O132  1  0.15415243  0.84723368  0.25664913  1
  O  O133  1  0.65421672  0.84728734  0.25659170  1
  O  O134  1  0.25939371  0.68670346  0.25469803  1
  O  O135  1  0.75914293  0.68640816  0.25479742  1
  O  O136  1  0.07771388  0.47873470  0.25549024  1
  O  O137  1  0.57785388  0.47874629  0.25537676  1
  O  O138  1  0.15891507  0.46625658  0.75601336  1
  O  O139  1  0.65342076  0.46082052  0.75543569  1
  O  O140  1  0.08182535  0.68797194  0.75430464  1
  O  O141  1  0.57840456  0.67666947  0.75494501  1
  O  O142  1  0.25941456  0.83138645  0.75429576  1
  O  O143  1  0.75940459  0.83318212  0.75475986  1
loop_
_geom_bond_atom_site_label_1
_geom_bond_atom_site_label_2
_geom_bond_distance
_geom_bond_site_symmetry_2
Na0 O106 2.444931 1_555
Na0 O134 2.470921 1_555
Na0 O102 2.494343 1_555
Na0 O34 2.565064 1_555
Na0 O136 2.571892 1_555
Na0 O20 2.796271 1_555
Na0 O64 2.850842 1_555
Na0 O0 2.940943 1_555
Na1 O107 2.450602 1_555
Na1 O135 2.465134 1_555
Na1 O103 2.500765 1_555
Na1 O35 2.532758 1_555
Na1 O137 2.564178 1_555
Na1 O21 2.800537 1_555
Na1 O65 2.863964 1_555
Na1 O1 2.938631 1_555
Na2 O103 2.369859 1_555
Na2 O136 2.462813 1_655
Na2 O105 2.468163 1_555
Na2 O132 2.566115 1_655
Na2 O60 2.683559 1_655
Na2 O31 2.758260 1_555
Na2 O3 2.837821 1_555
Na2 O22 2.968903 1_655
Na3 O102 2.378103 1_555
Na3 O137 2.460145 1_555
Na3 O104 2.465174 1_555
Na3 O133 2.564665 1_555
Na3 O61 2.638915 1_555
Na3 O30 2.750027 1_555
Na3 O2 2.850298 1_555
Na3 O23 2.969481 1_555
Na4 O96 2.382956 1_555
Na4 O141 2.477374 1_555
Na4 O100 2.481858 1_555
Na4 O139 2.545270 1_555
Na4 O67 2.570433 1_555
Na4 O10 2.717992 1_555
Na4 O24 2.833647 1_555
Na5 O98 2.438319 1_565
Na5 O142 2.462147 1_555
Na5 O140 2.462688 1_555
Na5 O96 2.501920 1_565
Na5 O26 2.613265 1_565
Na5 O68 2.741993 1_555
Na5 O16 2.872126 1_555
Na5 O6 2.949890 1_565
Na6 O97 2.384279 1_555
Na6 O99 2.421867 1_555
Na6 O143 2.445206 1_545
Na6 O27 2.575935 1_555
Na6 O141 2.583729 1_545
Na6 O69 2.811099 1_545
Na6 O17 2.852686 1_545
Na6 O7 2.942887 1_555
Na7 O129 2.363831 1_555
Na7 O87 2.389515 1_555
Na7 O131 2.560327 1_555
Na7 O84 2.600597 1_555
Na7 O57 2.612987 1_555
Na7 O29 2.775996 1_555
Na7 O43 2.842323 1_555
Na7 O15 2.857690 1_555
Na8 O86 2.406016 1_565
Na8 O130 2.445656 1_555
Na8 O126 2.481906 1_555
Na8 O89 2.557069 1_455
Na8 O58 2.580666 1_555
Na8 O16 2.815916 1_555
Na8 O45 2.863144 1_455
Na8 O25 2.918150 1_455
Na9 O127 2.324988 1_555
Na9 O89 2.459229 1_555
Na9 O129 2.501887 1_555
Na9 O85 2.595794 1_565
Na9 O13 2.608269 1_555
Na9 O55 2.801009 1_555
Na9 O27 2.840238 1_565
Na10 O81 2.299775 1_555
Na10 O110 2.383180 1_555
Na10 O82 2.563921 1_555
Na10 O8 2.564836 1_555
Na10 O108 2.614760 1_555
Na10 O67 2.884093 1_555
Na10 O53 2.894738 1_555
Na10 O38 2.913140 1_556
Na11 O80 2.356273 1_655
Na11 O111 2.479309 1_555
Na11 O9 2.556015 1_555
Na11 O109 2.571369 1_555
Na11 O83 2.604834 1_555
Na11 O66 2.829178 1_655
Na11 O52 2.845351 1_655
Na11 O39 2.921253 1_556
Na12 O83 2.435842 1_545
Na12 O78 2.450612 1_655
Na12 O113 2.469792 1_555
Na12 O111 2.508395 1_555
Na12 O11 2.526727 1_555
Na12 O69 2.830272 1_545
Na12 O41 2.926621 1_556
Na12 O49 2.997869 1_545
Na13 O78 2.389302 1_555
Na13 O112 2.443582 1_555
Na13 O80 2.498175 1_545
Na13 O108 2.611965 1_555
Na13 O36 2.670786 1_556
Na13 O50 2.694648 1_555
Na13 O6 2.772844 1_555
Na14 O77 2.327537 1_555
Na14 O118 2.444244 1_555
Na14 O4 2.568577 1_555
Na14 O114 2.583516 1_555
Na14 O74 2.639450 1_545
Na14 O57 2.854344 1_555
Na14 O61 2.855529 1_555
Na14 O46 2.915384 1_555
Na15 O76 2.323590 1_655
Na15 O119 2.404008 1_555
Na15 O115 2.539310 1_555
Na15 O5 2.560335 1_555
Na15 O75 2.611675 1_545
Na15 O47 2.854745 1_555
Na15 O60 2.888987 1_655
Na15 O56 2.895661 1_655
Na16 O73 2.370425 1_555
Na16 O74 2.426350 1_555
Na16 O116 2.481676 1_555
Na16 O118 2.502758 1_555
Na16 O2 2.528868 1_555
Na16 O64 2.858220 1_555
Na16 O44 2.906001 1_555
Na17 O72 2.385158 1_655
Na17 O75 2.425900 1_555
Na17 O117 2.496858 1_555
Na17 O119 2.522976 1_555
Na17 O3 2.597087 1_555
Na17 O45 2.775091 1_555
Na17 O65 2.891041 1_555
Na17 O55 3.002009 1_555
Na18 O72 2.416052 1_545
Na18 O76 2.434450 1_555
Na18 O86 2.489123 1_555
Na18 O75 2.695127 1_445
Na18 O89 2.749317 1_445
Na18 O85 2.803018 1_455
Na19 O73 2.352078 1_555
Na19 O77 2.459250 1_565
Na19 O87 2.485259 1_565
Na19 O74 2.654590 1_555
Na19 O88 2.800865 1_555
Na19 O84 2.847390 1_565
Na20 O80 2.470821 1_545
Na20 O78 2.471561 1_555
Na20 O94 2.501955 1_556
Na20 O83 2.658043 1_445
Na20 O91 2.724422 1_446
Na20 O93 2.787171 1_456
Na21 O79 2.339082 1_555
Na21 O81 2.462134 1_545
Na21 O95 2.558396 1_556
Na21 O82 2.651408 1_545
Na21 O92 2.845820 1_556
Na21 O90 2.869477 1_546
Na22 O96 2.425089 1_555
Na22 O110 2.536307 1_555
Na22 O100 2.570336 1_555
Na22 O98 2.631603 1_555
Na22 O112 2.666654 1_555
Na22 O108 2.803227 1_555
Na23 O97 2.377374 1_555
Na23 O101 2.392395 1_555
Na23 O99 2.582875 1_555
Na23 O111 2.638988 1_555
Na23 O113 2.825180 1_555
Na23 O109 2.841819 1_555
Na24 O102 2.441720 1_555
Na24 O104 2.511787 1_555
Na24 O106 2.555543 1_555
Na24 O118 2.670112 1_555
Na24 O116 2.743066 1_555
Na24 O114 2.751554 1_555
Na25 O103 2.465502 1_555
Na25 O105 2.542902 1_555
Na25 O107 2.570128 1_555
Na25 O119 2.580156 1_555
Na25 O117 2.657504 1_555
Na25 O115 2.712756 1_555
Na26 O120 2.340100 1_555
Na26 O124 2.509951 1_555
Na26 O122 2.538361 1_555
Na26 O134 2.575289 1_555
Na26 O136 2.777761 1_555
Na26 O132 2.872751 1_555
Na27 O121 2.336050 1_555
Na27 O125 2.525127 1_555
Na27 O123 2.535447 1_555
Na27 O135 2.572423 1_555
Na27 O137 2.769136 1_555
Na27 O133 2.863766 1_555
Na28 O126 2.459764 1_555
Na28 O142 2.478239 1_555
Na28 O128 2.616445 1_555
Na28 O130 2.650572 1_555
Na28 O140 2.665728 1_555
Na28 O138 2.692428 1_555
Na29 O127 2.433020 1_555
Na29 O143 2.516132 1_555
Na29 O129 2.533178 1_555
Na29 O131 2.597888 1_555
Na29 O141 2.678784 1_555
Na29 O139 2.769827 1_555
Ga0 O3 1.931285 1_455
Ga0 O5 1.963549 1_465
Ga0 O72 1.978769 1_555
Ga0 O76 2.041031 1_565
Ga0 O0 2.109861 1_565
Ga0 O75 2.285722 1_455
Ga1 O2 1.933025 1_555
Ga1 O4 1.973354 1_565
Ga1 O77 1.994858 1_565
Ga1 O73 1.998445 1_555
Ga1 O1 2.087701 1_565
Ga1 O74 2.338091 1_555
Ga2 O11 1.894932 1_565
Ga2 O9 1.923218 1_555
Ga2 O78 2.024550 1_665
Ga2 O80 2.082845 1_655
Ga2 O6 2.151466 1_665
Ga2 O83 2.280131 1_555
Ga3 O10 1.894208 1_555
Ga3 O79 1.921710 1_555
Ga3 O8 2.011644 1_545
Ga3 O81 2.046999 1_545
Ga3 O7 2.162703 1_555
Ga3 O82 2.219882 1_545
Ga4 O26 1.880142 1_555
Ga4 O96 1.917330 1_555
Ga4 O100 1.940400 1_555
Ga4 O24 2.122458 1_555
Ga4 O98 2.207200 1_555
Ga4 O28 2.234784 1_555
Ga5 O101 1.942972 1_555
Ga5 O29 1.947638 1_555
Ga5 O27 1.979716 1_555
Ga5 O97 1.990732 1_555
Ga5 O25 2.171011 1_555
Ga5 O99 2.222263 1_555
Ga6 O34 1.871918 1_555
Ga6 O102 1.959736 1_555
Ga6 O104 1.962225 1_555
Ga6 O30 2.048017 1_555
Ga6 O32 2.220876 1_555
Ga6 O106 2.306898 1_555
Ga7 O35 1.875028 1_555
Ga7 O103 1.952152 1_555
Ga7 O105 1.960157 1_555
Ga7 O31 2.058884 1_555
Ga7 O33 2.223515 1_555
Ga7 O107 2.297603 1_555
Ga8 O50 1.844925 1_554
Ga8 O52 1.928558 1_554
Ga8 O120 1.935137 1_555
Ga8 O48 2.153157 1_554
Ga8 O122 2.228551 1_555
Ga8 O124 2.343075 1_555
Ga9 O51 1.809295 1_554
Ga9 O53 1.917749 1_554
Ga9 O121 1.936274 1_555
Ga9 O123 2.197495 1_555
Ga9 O49 2.201181 1_554
Ga9 O125 2.381866 1_555
Ga10 O58 1.855191 1_555
Ga10 O56 1.914192 1_555
Ga10 O126 1.977740 1_555
Ga10 O54 2.083379 1_555
Ga10 O130 2.243982 1_555
Ga10 O128 2.294247 1_555
Ga11 O59 1.853702 1_555
Ga11 O127 1.986580 1_555
Ga11 O57 2.003975 1_555
Ga11 O129 2.038744 1_555
Ga11 O55 2.187091 1_555
Ga11 O131 2.204820 1_555
O0 S0 1.480073 1_555
O1 S1 1.483122 1_555
O2 Si0 1.643326 1_555
O3 Si1 1.640552 1_555
O4 Si3 1.630691 1_555
O5 Si2 1.629172 1_555
O6 S2 1.491146 1_555
O7 S3 1.468314 1_555
O8 Si5 1.616013 1_555
O9 Si4 1.640271 1_555
O10 Si6 1.613925 1_545
O11 Si7 1.640298 1_555
O12 Si6 1.645071 1_555
O12 Zr1 1.975510 1_555
O13 Si7 1.646776 1_565
O13 Zr0 2.025122 1_555
O14 S2 1.477462 1_555
O14 Zr0 2.176694 1_445
O15 S3 1.505245 1_555
O15 Zr1 2.208257 1_545
O16 Si4 1.654269 1_455
O16 Zr0 1.956543 1_455
O17 Si5 1.648813 1_555
O17 Zr1 1.936845 1_555
O18 Si0 1.621346 1_555
O18 Zr3 2.027926 1_565
O19 Si1 1.627085 1_555
O19 Zr2 2.028061 1_565
O20 Si2 1.635652 1_455
O20 Zr2 1.961515 1_455
O21 Si3 1.633810 1_555
O21 Zr3 1.964787 1_555
O22 S0 1.485041 1_565
O22 Zr2 2.192392 1_465
O23 S1 1.481885 1_565
O23 Zr3 2.193169 1_565
O24 S4 1.479163 1_555
O25 S5 1.469726 1_555
O26 Si8 1.642212 1_555
O27 Si9 1.639629 1_555
O28 S6 1.473339 1_555
O29 Si10 1.611676 1_555
O30 S7 1.495056 1_555
O31 S8 1.491597 1_555
O32 S9 1.460402 1_555
O33 S10 1.458689 1_555
O34 Si11 1.660298 1_555
O35 Si12 1.656744 1_555
O36 Si11 1.649227 1_555
O36 Zr4 2.019869 1_554
O37 Si12 1.644094 1_555
O37 Zr5 1.940649 1_554
O38 S7 1.484418 1_555
O38 Zr4 2.221367 1_554
O39 S8 1.487762 1_555
O39 Zr5 2.226744 1_554
O40 S9 1.500674 1_555
O40 Zr4 2.056154 1_554
O41 S10 1.506440 1_555
O41 Zr5 2.108555 1_554
O42 Si8 1.641955 1_555
O42 Zr6 1.953689 1_555
O43 Si9 1.652978 1_555
O43 Zr7 1.984614 1_555
O44 S6 1.509551 1_555
O44 Zr6 2.108079 1_555
O45 Si10 1.655967 1_555
O45 Zr7 1.982808 1_555
O46 S4 1.481708 1_555
O46 Zr6 2.206709 1_555
O47 S5 1.499977 1_555
O47 Zr7 2.235377 1_555
O48 S11 1.461777 1_555
O49 S12 1.463983 1_555
O50 Si13 1.621457 1_555
O51 Si14 1.613195 1_555
O52 Si15 1.632791 1_555
O53 Si16 1.631190 1_555
O54 S13 1.471720 1_555
O55 S14 1.478042 1_555
O56 Si17 1.630316 1_555
O57 Si18 1.634401 1_555
O58 Si19 1.629446 1_555
O59 Si20 1.612321 1_555
O60 Si19 1.646533 1_555
O60 Zr8 2.045190 1_555
O61 Si20 1.652980 1_555
O61 Zr9 2.053412 1_555
O62 S13 1.472292 1_555
O62 Zr8 2.222266 1_555
O63 S14 1.476656 1_555
O63 Zr9 2.209312 1_555
O64 Si17 1.653705 1_555
O64 Zr8 1.973334 1_555
O65 Si18 1.651628 1_555
O65 Zr9 1.969897 1_555
O66 Si13 1.633365 1_555
O66 Zr10 2.021569 1_555
O67 Si14 1.659668 1_555
O67 Zr11 2.053227 1_555
O68 Si15 1.634314 1_555
O68 Zr10 1.983110 1_555
O69 Si16 1.660083 1_555
O69 Zr11 1.974270 1_555
O70 S11 1.477850 1_555
O70 Zr10 2.233183 1_555
O71 S12 1.473547 1_555
O71 Zr11 2.202808 1_555
O72 Si19 1.634491 1_555
O73 Si20 1.639865 1_555
O74 S13 1.478644 1_555
O75 S14 1.482358 1_555
O76 Si17 1.623919 1_555
O77 Si18 1.627575 1_555
O78 Si13 1.650134 1_555
O79 Si14 1.616702 1_555
O80 Si15 1.653571 1_555
O81 Si16 1.618444 1_555
O82 S11 1.467627 1_555
O83 S12 1.489208 1_555
O84 S4 1.492776 1_555
O84 Zr1 2.266414 1_545
O85 S5 1.486474 1_555
O85 Zr0 2.247318 1_545
O86 Si8 1.652173 1_555
O86 Zr0 2.127798 1_445
O87 Si9 1.658924 1_555
O87 Zr1 2.120976 1_545
O88 S6 1.506231 1_555
O88 Zr1 2.134044 1_555
O89 Si10 1.657932 1_555
O89 Zr0 2.056988 1_555
O90 S7 1.483109 1_555
O90 Zr3 2.235043 1_565
O91 S8 1.487882 1_555
O91 Zr2 2.245129 1_565
O92 S9 1.501814 1_555
O92 Zr3 2.112773 1_555
O93 S10 1.508759 1_555
O93 Zr2 2.119667 1_555
O94 Si11 1.663090 1_555
O94 Zr2 2.063599 1_455
O95 Si12 1.651433 1_555
O95 Zr3 2.050579 1_555
O96 Si6 1.669234 1_545
O97 Si7 1.643158 1_555
O98 S2 1.488226 1_555
O99 S3 1.465171 1_555
O100 Si5 1.643025 1_555
O101 Si4 1.609303 1_555
O102 Si0 1.669567 1_555
O103 Si1 1.669823 1_555
O104 Si3 1.640050 1_555
O105 Si2 1.637658 1_555
O106 S0 1.471202 1_555
O107 S1 1.470203 1_555
O108 S11 1.524137 1_555
O108 Zr4 2.207856 1_555
O109 S12 1.500049 1_555
O109 Zr5 2.159678 1_555
O110 Si14 1.681651 1_555
O110 Zr4 2.082468 1_555
O111 Si13 1.653497 1_655
O111 Zr5 2.165388 1_555
O112 Si15 1.657382 1_545
O112 Zr4 2.001060 1_555
O113 Si16 1.657792 1_545
O113 Zr5 1.984863 1_555
O114 S13 1.501031 1_545
O114 Zr6 2.175514 1_555
O115 S14 1.490105 1_545
O115 Zr7 2.245386 1_555
O116 Si17 1.654835 1_555
O116 Zr6 1.988886 1_555
O117 Si18 1.647972 1_555
O117 Zr7 2.007010 1_555
O118 Si20 1.685338 1_555
O118 Zr6 2.139326 1_555
O119 Si19 1.669927 1_655
O119 Zr7 2.164741 1_555
O120 Si11 1.651860 1_555
O121 Si12 1.645528 1_555
O122 S8 1.471343 1_455
O123 S7 1.473332 1_555
O124 S9 1.464490 1_565
O125 S10 1.461485 1_565
O126 Si8 1.664098 1_565
O127 Si9 1.637505 1_565
O128 S6 1.447219 1_555
O129 Si10 1.641717 1_555
O130 S5 1.475133 1_455
O131 S4 1.478240 1_555
O132 S0 1.487131 1_565
O132 Zr8 2.222252 1_555
O133 S1 1.486053 1_565
O133 Zr9 2.223704 1_555
O134 Si0 1.648089 1_555
O134 Zr8 2.088772 1_555
O135 Si1 1.648882 1_555
O135 Zr9 2.099337 1_555
O136 Si2 1.680885 1_455
O136 Zr8 2.032581 1_555
O137 Si3 1.680579 1_555
O137 Zr9 2.037674 1_555
O138 S2 1.468511 1_555
O138 Zr10 2.238699 1_555
O139 S3 1.487827 1_555
O139 Zr11 2.259292 1_555
O140 Si4 1.662215 1_455
O140 Zr10 2.008218 1_555
O141 Si5 1.673981 1_555
O141 Zr11 2.045594 1_555
O142 Si6 1.636009 1_555
O142 Zr10 2.121618 1_555
O143 Si7 1.669453 1_565
O143 Zr11 2.089934 1_555
