# generated using pymatgen
data_MgNb2Al2O8
_symmetry_space_group_name_H-M   'P 1'
_cell_length_a   3.67744900
_cell_length_b   6.68086322
_cell_length_c   6.67303443
_cell_angle_alpha   110.48908981
_cell_angle_beta   90.00000000
_cell_angle_gamma   105.97528416
_symmetry_Int_Tables_number   1
_chemical_formula_structural   MgNb2Al2O8
_chemical_formula_sum   'Mg1 Nb2 Al2 O8'
_cell_volume   146.79702689
_cell_formula_units_Z   1
loop_
 _symmetry_equiv_pos_site_id
 _symmetry_equiv_pos_as_xyz
  1  'x, y, z'
loop_
 _atom_site_type_symbol
 _atom_site_label
 _atom_site_symmetry_multiplicity
 _atom_site_fract_x
 _atom_site_fract_y
 _atom_site_fract_z
 _atom_site_occupancy
  Mg  Mg0  1  0.50000000  0.00000000  0.50000000  1
  Nb  Nb0  1  0.11261800  0.22523500  0.22121300  1
  Nb  Nb1  1  0.88738200  0.77476500  0.77878700  1
  Al  Al0  1  0.80707600  0.61415200  0.18332400  1
  Al  Al1  1  0.19292400  0.38584800  0.81667600  1
  O  O0  1  0.32710300  0.65420500  0.74337700  1
  O  O1  1  0.67289700  0.34579500  0.25662300  1
  O  O2  1  0.72472400  0.44944700  0.85676300  1
  O  O3  1  0.27527600  0.55055300  0.14323700  1
  O  O4  1  0.89629500  0.79259000  0.47471500  1
  O  O5  1  0.10370500  0.20741000  0.52528500  1
  O  O6  1  0.94257700  0.88515600  0.12022200  1
  O  O7  1  0.05742300  0.11484400  0.87977800  1
loop_
_geom_bond_atom_site_label_1
_geom_bond_atom_site_label_2
_geom_bond_distance
_geom_bond_site_symmetry_2
Mg0 O5 2.240616 1_655
Mg0 O4 2.240616 1_445
Mg0 O4 2.240616 1_545
Mg0 O5 2.240616 1_555
Nb0 O1 1.975625 1_555
Nb0 O1 1.975632 1_455
Nb0 O6 2.037973 1_445
Nb0 O5 2.073510 1_555
Nb0 O7 2.125446 1_554
Nb0 O3 2.329877 1_555
Nb1 O0 1.975625 1_555
Nb1 O0 1.975632 1_655
Nb1 O7 2.037973 1_665
Nb1 O4 2.073510 1_555
Nb1 O6 2.125446 1_556
Nb1 O2 2.329877 1_555
Al0 O4 1.863244 1_555
Al0 O3 1.881423 1_655
Al0 O3 1.881426 1_555
Al0 O6 1.934109 1_555
Al0 O1 1.955507 1_555
Al0 O2 2.046742 1_554
Al1 O5 1.863244 1_555
Al1 O2 1.881423 1_455
Al1 O2 1.881426 1_555
Al1 O7 1.934109 1_555
Al1 O0 1.955507 1_555
Al1 O3 2.046742 1_556
