# generated using pymatgen
data_Nd3S2Br5
_symmetry_space_group_name_H-M   'P 1'
_cell_length_a   6.92728900
_cell_length_b   7.25648100
_cell_length_c   22.78728300
_cell_angle_alpha   90.00000000
_cell_angle_beta   90.00000000
_cell_angle_gamma   90.00000000
_symmetry_Int_Tables_number   1
_chemical_formula_structural   Nd3S2Br5
_chemical_formula_sum   'Nd12 S8 Br20'
_cell_volume   1145.46524017
_cell_formula_units_Z   4
loop_
 _symmetry_equiv_pos_site_id
 _symmetry_equiv_pos_as_xyz
  1  'x, y, z'
loop_
 _atom_site_type_symbol
 _atom_site_label
 _atom_site_symmetry_multiplicity
 _atom_site_fract_x
 _atom_site_fract_y
 _atom_site_fract_z
 _atom_site_occupancy
  Nd  Nd0  1  0.05498000  0.38020200  0.39625400  1
  Nd  Nd1  1  0.55498000  0.11979800  0.60374600  1
  Nd  Nd2  1  0.44502000  0.88020200  0.10374600  1
  Nd  Nd3  1  0.94502000  0.61979800  0.89625400  1
  Nd  Nd4  1  0.94502000  0.61979800  0.60374600  1
  Nd  Nd5  1  0.44502000  0.88020200  0.39625400  1
  Nd  Nd6  1  0.55498000  0.11979800  0.89625400  1
  Nd  Nd7  1  0.05498000  0.38020200  0.10374600  1
  Nd  Nd8  1  0.94322000  0.04715300  0.75000000  1
  Nd  Nd9  1  0.44322000  0.45284700  0.25000000  1
  Nd  Nd10  1  0.55678000  0.54715300  0.75000000  1
  Nd  Nd11  1  0.05678000  0.95284700  0.25000000  1
  S  S0  1  0.69823300  0.83383100  0.82550600  1
  S  S1  1  0.19823300  0.66616900  0.32550600  1
  S  S2  1  0.69823300  0.83383100  0.67449400  1
  S  S3  1  0.30176700  0.16616900  0.17449400  1
  S  S4  1  0.80176700  0.33383100  0.82550600  1
  S  S5  1  0.80176700  0.33383100  0.67449400  1
  S  S6  1  0.30176700  0.16616900  0.32550600  1
  S  S7  1  0.19823300  0.66616900  0.17449400  1
  Br  Br0  1  0.63538000  0.82955900  0.25000000  1
  Br  Br1  1  0.13538000  0.67044100  0.75000000  1
  Br  Br2  1  0.86462000  0.32955900  0.25000000  1
  Br  Br3  1  0.36462000  0.17044100  0.75000000  1
  Br  Br4  1  0.34861900  0.47885500  0.61989500  1
  Br  Br5  1  0.34861900  0.47885500  0.88010500  1
  Br  Br6  1  0.84861900  0.02114500  0.38010500  1
  Br  Br7  1  0.15138100  0.97885500  0.88010500  1
  Br  Br8  1  0.65138100  0.52114500  0.11989500  1
  Br  Br9  1  0.65138100  0.52114500  0.38010500  1
  Br  Br10  1  0.15138100  0.97885500  0.61989500  1
  Br  Br11  1  0.84861900  0.02114500  0.11989500  1
  Br  Br12  1  0.16656600  0.67805900  0.02112200  1
  Br  Br13  1  0.66656600  0.82194100  0.97887800  1
  Br  Br14  1  0.33343400  0.17805900  0.47887800  1
  Br  Br15  1  0.83343400  0.32194100  0.52112200  1
  Br  Br16  1  0.83343400  0.32194100  0.97887800  1
  Br  Br17  1  0.33343400  0.17805900  0.02112200  1
  Br  Br18  1  0.66656600  0.82194100  0.52112200  1
  Br  Br19  1  0.16656600  0.67805900  0.47887800  1
loop_
_geom_bond_atom_site_label_1
_geom_bond_atom_site_label_2
_geom_bond_distance
_geom_bond_site_symmetry_2
Nd0 S1 2.808898 1_555
Nd0 S6 2.816710 1_555
Nd1 S2 2.808898 1_545
Nd1 S5 2.816710 1_555
Nd2 S3 2.808898 1_565
Nd2 S7 2.816710 1_555
Nd3 S4 2.808898 1_555
Nd3 S0 2.816710 1_555
Nd4 S5 2.808898 1_555
Nd4 S2 2.816710 1_555
Nd5 S6 2.808898 1_565
Nd5 S1 2.816710 1_555
Nd6 S0 2.808898 1_545
Nd6 S4 2.816710 1_555
Nd7 S7 2.808898 1_555
Nd7 S3 2.816710 1_555
Nd8 S0 2.869969 1_545
Nd8 S2 2.869969 1_545
Nd8 S4 2.871950 1_555
Nd8 S5 2.871950 1_555
Nd9 S1 2.869969 1_555
Nd9 S7 2.869969 1_555
Nd9 S6 2.871950 1_555
Nd9 S3 2.871950 1_555
Nd10 S4 2.869969 1_555
Nd10 S5 2.869969 1_555
Nd10 S0 2.871950 1_555
Nd10 S2 2.871950 1_555
Nd11 S6 2.869969 1_565
Nd11 S3 2.869969 1_565
Nd11 S1 2.871950 1_555
Nd11 S7 2.871950 1_555
Br0 Nd9 3.040484 1_555
Br0 Nd11 3.053173 1_655
Br0 Nd5 3.602924 1_555
Br0 Nd2 3.602924 1_555
Br1 Nd8 3.040484 1_465
Br1 Nd10 3.053173 1_555
Br1 Nd3 3.602924 1_455
Br1 Nd4 3.602924 1_455
Br2 Nd11 3.040484 1_645
Br2 Nd9 3.053173 1_555
Br2 Nd0 3.602924 1_655
Br2 Nd7 3.602924 1_655
Br3 Nd10 3.040484 1_555
Br3 Nd8 3.053173 1_455
Br3 Nd6 3.602924 1_555
Br3 Nd1 3.602924 1_555
Br4 Nd1 2.994584 1_555
Br4 Nd4 2.999699 1_455
Br4 Nd10 3.333863 1_555
Br5 Nd6 2.994584 1_555
Br5 Nd3 2.999699 1_455
Br5 Nd10 3.333863 1_555
Br6 Nd0 2.994584 1_655
Br6 Nd5 2.999699 1_545
Br6 Nd11 3.333863 1_645
Br7 Nd3 2.994584 1_455
Br7 Nd6 2.999699 1_565
Br7 Nd8 3.333863 1_465
Br8 Nd2 2.994584 1_555
Br8 Nd7 2.999699 1_655
Br8 Nd9 3.333863 1_555
Br9 Nd5 2.994584 1_555
Br9 Nd0 2.999699 1_655
Br9 Nd9 3.333863 1_555
Br10 Nd4 2.994584 1_455
Br10 Nd1 2.999699 1_565
Br10 Nd8 3.333863 1_465
Br11 Nd7 2.994584 1_655
Br11 Nd2 2.999699 1_545
Br11 Nd11 3.333863 1_645
Br12 Nd7 2.968835 1_555
Br12 Nd2 3.068756 1_555
Br12 Nd3 3.260428 1_454
Br13 Nd6 2.968835 1_565
Br13 Nd3 3.068756 1_555
Br13 Nd2 3.260428 1_556
Br14 Nd5 2.968835 1_545
Br14 Nd0 3.068756 1_555
Br14 Nd1 3.260428 1_555
Br15 Nd4 2.968835 1_555
Br15 Nd1 3.068756 1_555
Br15 Nd0 3.260428 1_655
Br16 Nd3 2.968835 1_555
Br16 Nd6 3.068756 1_555
Br16 Nd7 3.260428 1_656
Br17 Nd2 2.968835 1_545
Br17 Nd7 3.068756 1_555
Br17 Nd6 3.260428 1_554
Br18 Nd1 2.968835 1_565
Br18 Nd4 3.068756 1_555
Br18 Nd5 3.260428 1_555
Br19 Nd0 2.968835 1_555
Br19 Nd5 3.068756 1_555
Br19 Nd4 3.260428 1_455
