# generated using pymatgen
data_CuW3Cl7
_symmetry_space_group_name_H-M   'P 1'
_cell_length_a   12.94819777
_cell_length_b   12.94819777
_cell_length_c   12.94819777
_cell_angle_alpha   90.00000000
_cell_angle_beta   90.00000000
_cell_angle_gamma   90.00000000
_symmetry_Int_Tables_number   1
_chemical_formula_structural   CuW3Cl7
_chemical_formula_sum   'Cu8 W24 Cl56'
_cell_volume   2170.84078575
_cell_formula_units_Z   8
loop_
 _symmetry_equiv_pos_site_id
 _symmetry_equiv_pos_as_xyz
  1  'x, y, z'
loop_
 _atom_site_type_symbol
 _atom_site_label
 _atom_site_symmetry_multiplicity
 _atom_site_fract_x
 _atom_site_fract_y
 _atom_site_fract_z
 _atom_site_occupancy
  Cu  Cu0  1  0.19016408  0.19016408  0.19016408  1
  Cu  Cu1  1  0.80983592  0.80983592  0.19016408  1
  Cu  Cu2  1  0.19016408  0.80983592  0.80983592  1
  Cu  Cu3  1  0.80983592  0.19016408  0.80983592  1
  Cu  Cu4  1  0.30983592  0.30983592  0.30983592  1
  Cu  Cu5  1  0.69016408  0.69016408  0.30983592  1
  Cu  Cu6  1  0.30983592  0.69016408  0.69016408  1
  Cu  Cu7  1  0.69016408  0.30983592  0.69016408  1
  W  W0  1  0.88682729  0.72508266  0.78080127  1
  W  W1  1  0.78080127  0.88682729  0.72508266  1
  W  W2  1  0.72508266  0.78080127  0.88682729  1
  W  W3  1  0.27491734  0.21919873  0.88682729  1
  W  W4  1  0.78080127  0.11317271  0.27491734  1
  W  W5  1  0.27491734  0.78080127  0.11317271  1
  W  W6  1  0.21919873  0.11317271  0.72508266  1
  W  W7  1  0.21919873  0.88682729  0.27491734  1
  W  W8  1  0.72508266  0.21919873  0.11317271  1
  W  W9  1  0.88682729  0.27491734  0.21919873  1
  W  W10  1  0.11317271  0.72508266  0.21919873  1
  W  W11  1  0.11317271  0.27491734  0.78080127  1
  W  W12  1  0.61317271  0.77491734  0.71919873  1
  W  W13  1  0.71919873  0.61317271  0.77491734  1
  W  W14  1  0.77491734  0.71919873  0.61317271  1
  W  W15  1  0.22508266  0.28080127  0.61317271  1
  W  W16  1  0.71919873  0.38682729  0.22508266  1
  W  W17  1  0.22508266  0.71919873  0.38682729  1
  W  W18  1  0.28080127  0.38682729  0.77491734  1
  W  W19  1  0.28080127  0.61317271  0.22508266  1
  W  W20  1  0.77491734  0.28080127  0.38682729  1
  W  W21  1  0.61317271  0.22508266  0.28080127  1
  W  W22  1  0.38682729  0.77491734  0.28080127  1
  W  W23  1  0.38682729  0.22508266  0.71919873  1
  Cl  Cl0  1  0.88772975  0.88772975  0.88772975  1
  Cl  Cl1  1  0.11227025  0.11227025  0.88772975  1
  Cl  Cl2  1  0.88772975  0.11227025  0.11227025  1
  Cl  Cl3  1  0.11227025  0.88772975  0.11227025  1
  Cl  Cl4  1  0.61227025  0.61227025  0.61227025  1
  Cl  Cl5  1  0.38772975  0.38772975  0.61227025  1
  Cl  Cl6  1  0.61227025  0.38772975  0.38772975  1
  Cl  Cl7  1  0.38772975  0.61227025  0.38772975  1
  Cl  Cl8  1  0.93458781  0.82700065  0.62334894  1
  Cl  Cl9  1  0.62334894  0.93458781  0.82700065  1
  Cl  Cl10  1  0.82700065  0.62334894  0.93458781  1
  Cl  Cl11  1  0.17299935  0.37665106  0.93458781  1
  Cl  Cl12  1  0.62334894  0.06541219  0.17299935  1
  Cl  Cl13  1  0.17299935  0.62334894  0.06541219  1
  Cl  Cl14  1  0.37665106  0.06541219  0.82700065  1
  Cl  Cl15  1  0.37665106  0.93458781  0.17299935  1
  Cl  Cl16  1  0.82700065  0.37665106  0.06541219  1
  Cl  Cl17  1  0.93458781  0.17299935  0.37665106  1
  Cl  Cl18  1  0.06541219  0.82700065  0.37665106  1
  Cl  Cl19  1  0.06541219  0.17299935  0.62334894  1
  Cl  Cl20  1  0.56541219  0.67299935  0.87665106  1
  Cl  Cl21  1  0.87665106  0.56541219  0.67299935  1
  Cl  Cl22  1  0.67299935  0.87665106  0.56541219  1
  Cl  Cl23  1  0.32700065  0.12334894  0.56541219  1
  Cl  Cl24  1  0.87665106  0.43458781  0.32700065  1
  Cl  Cl25  1  0.32700065  0.87665106  0.43458781  1
  Cl  Cl26  1  0.12334894  0.43458781  0.67299935  1
  Cl  Cl27  1  0.12334894  0.56541219  0.32700065  1
  Cl  Cl28  1  0.67299935  0.12334894  0.43458781  1
  Cl  Cl29  1  0.56541219  0.32700065  0.12334894  1
  Cl  Cl30  1  0.43458781  0.67299935  0.12334894  1
  Cl  Cl31  1  0.43458781  0.32700065  0.87665106  1
  Cl  Cl32  1  0.06816160  0.68827412  0.82752670  1
  Cl  Cl33  1  0.82752670  0.06816160  0.68827412  1
  Cl  Cl34  1  0.68827412  0.82752670  0.06816160  1
  Cl  Cl35  1  0.31172588  0.17247330  0.06816160  1
  Cl  Cl36  1  0.82752670  0.93183840  0.31172588  1
  Cl  Cl37  1  0.31172588  0.82752670  0.93183840  1
  Cl  Cl38  1  0.17247330  0.93183840  0.68827412  1
  Cl  Cl39  1  0.17247330  0.06816160  0.31172588  1
  Cl  Cl40  1  0.68827412  0.17247330  0.93183840  1
  Cl  Cl41  1  0.06816160  0.31172588  0.17247330  1
  Cl  Cl42  1  0.93183840  0.68827412  0.17247330  1
  Cl  Cl43  1  0.93183840  0.31172588  0.82752670  1
  Cl  Cl44  1  0.43183840  0.81172588  0.67247330  1
  Cl  Cl45  1  0.67247330  0.43183840  0.81172588  1
  Cl  Cl46  1  0.81172588  0.67247330  0.43183840  1
  Cl  Cl47  1  0.18827412  0.32752670  0.43183840  1
  Cl  Cl48  1  0.67247330  0.56816160  0.18827412  1
  Cl  Cl49  1  0.18827412  0.67247330  0.56816160  1
  Cl  Cl50  1  0.32752670  0.56816160  0.81172588  1
  Cl  Cl51  1  0.32752670  0.43183840  0.18827412  1
  Cl  Cl52  1  0.81172588  0.32752670  0.56816160  1
  Cl  Cl53  1  0.43183840  0.18827412  0.32752670  1
  Cl  Cl54  1  0.56816160  0.81172588  0.32752670  1
  Cl  Cl55  1  0.56816160  0.18827412  0.67247330  1
loop_
_geom_bond_atom_site_label_1
_geom_bond_atom_site_label_2
_geom_bond_distance
_geom_bond_site_symmetry_2
Cl0 W0 2.520366 1_555
Cl0 W2 2.520366 1_555
Cl0 W1 2.520366 1_555
Cl1 W11 2.520366 1_555
Cl1 W3 2.520366 1_555
Cl1 W6 2.520366 1_555
Cl2 W4 2.520366 1_555
Cl2 W8 2.520366 1_555
Cl2 W9 2.520366 1_555
Cl3 W5 2.520366 1_555
Cl3 W7 2.520366 1_555
Cl3 W10 2.520366 1_555
Cl4 W12 2.520366 1_555
Cl4 W14 2.520366 1_555
Cl4 W13 2.520366 1_555
Cl5 W23 2.520366 1_555
Cl5 W15 2.520366 1_555
Cl5 W18 2.520366 1_555
Cl6 W16 2.520366 1_555
Cl6 W21 2.520366 1_555
Cl6 W20 2.520366 1_555
Cl7 W19 2.520366 1_555
Cl7 W17 2.520366 1_555
Cl7 W22 2.520366 1_555
Cl8 W14 2.498011 1_555
Cl8 W0 2.506056 1_555
Cl8 W1 2.510057 1_555
Cl9 W12 2.498011 1_555
Cl9 W1 2.506056 1_555
Cl9 W2 2.510057 1_555
Cl10 W13 2.498011 1_555
Cl10 W2 2.506056 1_555
Cl10 W0 2.510057 1_555
Cl11 W18 2.498011 1_555
Cl11 W3 2.506056 1_555
Cl11 W11 2.510057 1_555
Cl12 W21 2.498011 1_555
Cl12 W4 2.506056 1_555
Cl12 W8 2.510057 1_555
Cl13 W19 2.498011 1_555
Cl13 W5 2.506056 1_555
Cl13 W10 2.510057 1_555
Cl14 W23 2.498011 1_555
Cl14 W6 2.506056 1_555
Cl14 W3 2.510057 1_555
Cl15 W22 2.498011 1_555
Cl15 W7 2.506056 1_555
Cl15 W5 2.510057 1_555
Cl16 W16 2.498011 1_555
Cl16 W8 2.506056 1_555
Cl16 W9 2.510057 1_555
Cl17 W20 2.498011 1_555
Cl17 W9 2.506056 1_555
Cl17 W4 2.510057 1_555
Cl18 W17 2.498011 1_555
Cl18 W10 2.506056 1_555
Cl18 W7 2.510057 1_555
Cl19 W15 2.498011 1_555
Cl19 W11 2.506056 1_555
Cl19 W6 2.510057 1_555
Cl20 W2 2.498011 1_555
Cl20 W12 2.506056 1_555
Cl20 W13 2.510057 1_555
Cl21 W0 2.498011 1_555
Cl21 W13 2.506056 1_555
Cl21 W14 2.510057 1_555
Cl22 W1 2.498011 1_555
Cl22 W14 2.506056 1_555
Cl22 W12 2.510057 1_555
Cl23 W6 2.498011 1_555
Cl23 W15 2.506056 1_555
Cl23 W23 2.510057 1_555
Cl24 W9 2.498011 1_555
Cl24 W16 2.506056 1_555
Cl24 W20 2.510057 1_555
Cl25 W7 2.498011 1_555
Cl25 W17 2.506056 1_555
Cl25 W22 2.510057 1_555
Cl26 W11 2.498011 1_555
Cl26 W18 2.506056 1_555
Cl26 W15 2.510057 1_555
Cl27 W10 2.498011 1_555
Cl27 W19 2.506056 1_555
Cl27 W17 2.510057 1_555
Cl28 W4 2.498011 1_555
Cl28 W20 2.506056 1_555
Cl28 W21 2.510057 1_555
Cl29 W8 2.498011 1_555
Cl29 W21 2.506056 1_555
Cl29 W16 2.510057 1_555
Cl30 W5 2.498011 1_555
Cl30 W22 2.506056 1_555
Cl30 W19 2.510057 1_555
Cl31 W3 2.498011 1_555
Cl31 W23 2.506056 1_555
Cl31 W18 2.510057 1_555
Cl32 Cu2 2.241753 1_555
Cl32 W0 2.471046 1_455
Cl33 Cu3 2.241753 1_555
Cl33 W1 2.471046 1_545
Cl34 Cu1 2.241753 1_555
Cl34 W2 2.471046 1_554
Cl35 Cu0 2.241753 1_555
Cl35 W3 2.471046 1_554
Cl36 Cu1 2.241753 1_555
Cl36 W4 2.471046 1_565
Cl37 Cu2 2.241753 1_555
Cl37 W5 2.471046 1_556
Cl38 Cu2 2.241753 1_555
Cl38 W6 2.471046 1_565
Cl39 Cu0 2.241753 1_555
Cl39 W7 2.471046 1_545
Cl40 Cu3 2.241753 1_555
Cl40 W8 2.471046 1_556
Cl41 Cu0 2.241753 1_555
Cl41 W9 2.471046 1_455
Cl42 Cu1 2.241753 1_555
Cl42 W10 2.471046 1_655
Cl43 Cu3 2.241753 1_555
Cl43 W11 2.471046 1_655
Cl44 Cu6 2.241753 1_555
Cl44 W12 2.471046 1_555
Cl45 Cu7 2.241753 1_555
Cl45 W13 2.471046 1_555
Cl46 Cu5 2.241753 1_555
Cl46 W14 2.471046 1_555
Cl47 Cu4 2.241753 1_555
Cl47 W15 2.471046 1_555
Cl48 Cu5 2.241753 1_555
Cl48 W16 2.471046 1_555
Cl49 Cu6 2.241753 1_555
Cl49 W17 2.471046 1_555
Cl50 Cu6 2.241753 1_555
Cl50 W18 2.471046 1_555
Cl51 Cu4 2.241753 1_555
Cl51 W19 2.471046 1_555
Cl52 Cu7 2.241753 1_555
Cl52 W20 2.471046 1_555
Cl53 Cu4 2.241753 1_555
Cl53 W21 2.471046 1_555
Cl54 Cu5 2.241753 1_555
Cl54 W22 2.471046 1_555
Cl55 Cu7 2.241753 1_555
Cl55 W23 2.471046 1_555
