# generated using pymatgen
data_Na2CaHfSi(SO6)2
_symmetry_space_group_name_H-M   'P 1'
_cell_length_a   9.18732318
_cell_length_b   9.22392016
_cell_length_c   23.07341162
_cell_angle_alpha   90.15350072
_cell_angle_beta   90.00000000
_cell_angle_gamma   119.86883885
_symmetry_Int_Tables_number   1
_chemical_formula_structural   Na2CaHfSi(SO6)2
_chemical_formula_sum   'Na12 Ca6 Hf6 Si6 S12 O72'
_cell_volume   1695.57645929
_cell_formula_units_Z   6
loop_
 _symmetry_equiv_pos_site_id
 _symmetry_equiv_pos_as_xyz
  1  'x, y, z'
loop_
 _atom_site_type_symbol
 _atom_site_label
 _atom_site_symmetry_multiplicity
 _atom_site_fract_x
 _atom_site_fract_y
 _atom_site_fract_z
 _atom_site_occupancy
  Na  Na0  1  0.00421937  0.64782253  0.23635009  1
  Na  Na1  1  0.64360316  0.64782253  0.73635009  1
  Na  Na2  1  0.65303330  0.96220679  0.57206533  1
  Na  Na3  1  0.30917449  0.96220679  0.07206533  1
  Na  Na4  1  0.68368614  0.01617276  0.90271205  1
  Na  Na5  1  0.33248561  0.01617276  0.40271205  1
  Na  Na6  1  0.95663522  0.97800690  0.49478503  1
  Na  Na7  1  0.02137168  0.97800690  0.99478503  1
  Na  Na8  1  0.64098796  0.28413075  0.82769163  1
  Na  Na9  1  0.64314380  0.28413075  0.32769163  1
  Na  Na10  1  0.31117187  0.64781107  0.16201973  1
  Na  Na11  1  0.33663820  0.64781107  0.66201973  1
  Ca  Ca0  1  0.99547026  0.00661125  0.35247855  1
  Ca  Ca1  1  0.01114099  0.00661125  0.85247855  1
  Ca  Ca2  1  0.66260955  0.32652331  0.68528452  1
  Ca  Ca3  1  0.66391476  0.32652331  0.18528452  1
  Ca  Ca4  1  0.32064259  0.66496704  0.01842134  1
  Ca  Ca5  1  0.34432346  0.66496704  0.51842134  1
  Hf  Hf0  1  0.98742507  0.99008600  0.64924117  1
  Hf  Hf1  1  0.00266093  0.99008600  0.14924117  1
  Hf  Hf2  1  0.67641300  0.34443950  0.98209693  1
  Hf  Hf3  1  0.66802750  0.34443950  0.48209693  1
  Hf  Hf4  1  0.34668699  0.68590215  0.31601000  1
  Hf  Hf5  1  0.33921416  0.68590215  0.81601000  1
  Si  Si0  1  0.29825260  0.99407451  0.25642262  1
  Si  Si1  1  0.69582192  0.99407451  0.75642262  1
  Si  Si2  1  0.67112539  0.63508957  0.59084861  1
  Si  Si3  1  0.96396518  0.63508957  0.09084861  1
  Si  Si4  1  0.34621079  0.98134979  0.92370837  1
  Si  Si5  1  0.63513800  0.98134979  0.42370837  1
  S  S0  1  0.69712068  0.71185207  0.24986940  1
  S  S1  1  0.01828048  0.30797294  0.24945397  1
  S  S2  1  0.28969246  0.30797294  0.74945397  1
  S  S3  1  0.01473139  0.71185207  0.74986940  1
  S  S4  1  0.95559433  0.32034315  0.58340180  1
  S  S5  1  0.35920277  0.04600709  0.57977991  1
  S  S6  1  0.68680532  0.04600709  0.07977991  1
  S  S7  1  0.36474981  0.32034315  0.08340180  1
  S  S8  1  0.61894929  0.65117044  0.91630795  1
  S  S9  1  0.02910213  0.37770405  0.91589094  1
  S  S10  1  0.34860092  0.37770405  0.41589094  1
  S  S11  1  0.03222015  0.65117044  0.41630795  1
  O  O0  1  0.21107350  0.99283686  0.31642459  1
  O  O1  1  0.79320891  0.79187709  0.30213732  1
  O  O2  1  0.00143701  0.21422777  0.30191742  1
  O  O3  1  0.21279077  0.21422777  0.80191742  1
  O  O4  1  0.99866818  0.79187709  0.80213732  1
  O  O5  1  0.78176336  0.99283686  0.81642459  1
  O  O6  1  0.81003804  0.97210014  0.70078272  1
  O  O7  1  0.19354938  0.21217271  0.69660253  1
  O  O8  1  0.03773576  0.82076156  0.69749331  1
  O  O9  1  0.78302580  0.82076156  0.19749331  1
  O  O10  1  0.01862333  0.21217271  0.19660253  1
  O  O11  1  0.16206210  0.97210014  0.20078272  1
  O  O12  1  0.88239746  0.33683879  0.63713861  1
  O  O13  1  0.47066468  0.12057603  0.62949045  1
  O  O14  1  0.67245406  0.55143628  0.65092106  1
  O  O15  1  0.87898321  0.55143628  0.15092106  1
  O  O16  1  0.64991235  0.12057603  0.12949045  1
  O  O17  1  0.45444233  0.33683879  0.13713861  1
  O  O18  1  0.45729977  0.29870284  0.03236254  1
  O  O19  1  0.83747642  0.51987939  0.03510533  1
  O  O20  1  0.69919882  0.14658003  0.02590092  1
  O  O21  1  0.44738221  0.14658003  0.52590092  1
  O  O22  1  0.68240397  0.51987939  0.53510533  1
  O  O23  1  0.84140407  0.29870284  0.53236254  1
  O  O24  1  0.53224570  0.66452585  0.96698723  1
  O  O25  1  0.12261857  0.44839848  0.96908764  1
  O  O26  1  0.34269611  0.89133470  0.98321971  1
  O  O27  1  0.54863759  0.89133470  0.48321971  1
  O  O28  1  0.32577891  0.44839848  0.46908764  1
  O  O29  1  0.13227914  0.66452585  0.46698723  1
  O  O30  1  0.11319309  0.63013586  0.36187354  1
  O  O31  1  0.49715964  0.86051725  0.36848544  1
  O  O32  1  0.35409283  0.47748987  0.36391157  1
  O  O33  1  0.12339604  0.47748987  0.86391157  1
  O  O34  1  0.36335661  0.86051725  0.86848544  1
  O  O35  1  0.51694177  0.63013586  0.86187354  1
  O  O36  1  0.01305267  0.79985282  0.41202551  1
  O  O37  1  0.82117905  0.01113533  0.41679275  1
  O  O38  1  0.21715283  0.20105525  0.41086512  1
  O  O39  1  0.98390242  0.20105525  0.91086512  1
  O  O40  1  0.18995628  0.01113533  0.91679275  1
  O  O41  1  0.78680016  0.79985282  0.91202551  1
  O  O42  1  0.95711929  0.15573060  0.58573063  1
  O  O43  1  0.19996438  0.05112934  0.58690468  1
  O  O44  1  0.84926702  0.82804852  0.58848214  1
  O  O45  1  0.97878149  0.82804852  0.08848214  1
  O  O46  1  0.85116496  0.05112934  0.08690468  1
  O  O47  1  0.19861131  0.15573060  0.08573063  1
  O  O48  1  0.65883949  0.14457815  0.74859606  1
  O  O49  1  0.46651401  0.34641998  0.74670781  1
  O  O50  1  0.86796093  0.54570849  0.74363534  1
  O  O51  1  0.67774855  0.54570849  0.24363534  1
  O  O52  1  0.87990698  0.34641998  0.24670781  1
  O  O53  1  0.48573965  0.14457815  0.24859606  1
  O  O54  1  0.63541822  0.49718274  0.92104069  1
  O  O55  1  0.86490233  0.38040664  0.91850456  1
  O  O56  1  0.53367080  0.15952122  0.92099291  1
  O  O57  1  0.62585141  0.15952122  0.42099291  1
  O  O58  1  0.51550531  0.38040664  0.41850456  1
  O  O59  1  0.86176553  0.49718274  0.42104069  1
  O  O60  1  0.33457356  0.45908169  0.07491408  1
  O  O61  1  0.15795283  0.67694152  0.08724183  1
  O  O62  1  0.55111874  0.87181695  0.07352640  1
  O  O63  1  0.32069721  0.87181695  0.57352640  1
  O  O64  1  0.51898769  0.67694152  0.58724183  1
  O  O65  1  0.12450713  0.45908169  0.57491408  1
  O  O66  1  0.29346249  0.80529454  0.25504018  1
  O  O67  1  0.52661246  0.69771955  0.25356324  1
  O  O68  1  0.18112608  0.47244156  0.25075421  1
  O  O69  1  0.29131447  0.47244156  0.75075421  1
  O  O70  1  0.17110609  0.69771955  0.75356324  1
  O  O71  1  0.51183105  0.80529454  0.75504018  1
loop_
_geom_bond_atom_site_label_1
_geom_bond_atom_site_label_2
_geom_bond_distance
_geom_bond_site_symmetry_2
Na0 O15 2.229662 1_455
Na0 O66 2.347227 1_555
Na0 O52 2.435473 1_455
Na0 O51 2.664344 1_455
Na0 O11 2.723227 1_555
Na0 O68 2.826783 1_555
Na1 O14 2.229665 1_555
Na1 O71 2.347234 1_555
Na1 O49 2.435472 1_555
Na1 O50 2.664352 1_555
Na1 O6 2.723227 1_555
Na1 O69 2.826791 1_555
Na2 O27 2.217645 1_555
Na2 O64 2.310877 1_555
Na2 O42 2.473983 1_565
Na2 O44 2.673903 1_555
Na2 O63 2.735575 1_555
Na2 O23 2.851829 1_565
Na2 O13 3.020624 1_565
Na3 O26 2.217640 1_554
Na3 O61 2.310878 1_555
Na3 O47 2.473990 1_565
Na3 O45 2.673911 1_455
Na3 O62 2.735557 1_555
Na3 O18 2.851829 1_565
Na3 O16 3.020624 1_565
Na4 O5 2.238975 1_545
Na4 O56 2.374427 1_555
Na4 O39 2.421664 1_555
Na4 O41 2.609593 1_545
Na4 O34 2.670476 1_545
Na5 O0 2.238971 1_545
Na5 O57 2.374443 1_555
Na5 O38 2.421656 1_555
Na5 O36 2.609586 1_545
Na5 O31 2.670476 1_545
Na6 O37 2.293948 1_565
Na6 O44 2.493424 1_555
Na6 O42 2.658016 1_565
Na6 O36 2.728910 1_655
Na6 O43 2.908757 1_665
Na6 O38 2.971097 1_665
Na7 O40 2.293948 1_565
Na7 O45 2.493424 1_456
Na7 O47 2.658016 1_566
Na7 O41 2.728910 1_455
Na7 O46 2.908757 1_466
Na7 O39 2.971097 1_465
Na8 O48 2.283018 1_555
Na8 O56 2.410844 1_555
Na8 O49 2.704476 1_555
Na8 O55 2.753462 1_555
Na8 O54 2.929371 1_555
Na8 O50 2.990837 1_555
Na9 O53 2.283018 1_555
Na9 O57 2.410844 1_555
Na9 O52 2.704476 1_555
Na9 O58 2.753462 1_555
Na9 O59 2.929371 1_555
Na9 O51 2.990837 1_555
Na10 O61 2.325920 1_555
Na10 O68 2.515696 1_555
Na10 O66 2.638534 1_555
Na10 O60 2.733154 1_555
Na10 O67 2.770982 1_555
Na10 O62 2.963751 1_555
Na11 O64 2.325920 1_555
Na11 O69 2.515696 1_555
Na11 O71 2.638534 1_555
Na11 O65 2.733154 1_555
Na11 O70 2.770982 1_555
Na11 O63 2.963751 1_555
Ca0 O37 2.198666 1_555
Ca0 O0 2.209507 1_645
Ca0 O2 2.222337 1_655
Ca0 O1 2.246565 1_545
Ca0 O38 2.351252 1_655
Ca0 O36 2.423188 1_645
Ca1 O40 2.198666 1_555
Ca1 O5 2.209507 1_445
Ca1 O3 2.222337 1_555
Ca1 O4 2.246565 1_445
Ca1 O39 2.351252 1_455
Ca1 O41 2.423188 1_445
Ca2 O14 2.182349 1_555
Ca2 O48 2.215159 1_555
Ca2 O13 2.241867 1_555
Ca2 O12 2.264895 1_555
Ca2 O49 2.369796 1_555
Ca2 O50 2.376080 1_555
Ca3 O15 2.182348 1_555
Ca3 O53 2.215159 1_555
Ca3 O16 2.241867 1_555
Ca3 O17 2.264895 1_555
Ca3 O52 2.369796 1_555
Ca3 O51 2.376080 1_555
Ca4 O26 2.155968 1_554
Ca4 O61 2.220647 1_555
Ca4 O25 2.228008 1_554
Ca4 O24 2.279400 1_554
Ca4 O60 2.361624 1_555
Ca4 O62 2.388216 1_555
Ca5 O27 2.155968 1_555
Ca5 O64 2.220647 1_555
Ca5 O28 2.228008 1_555
Ca5 O29 2.279400 1_555
Ca5 O65 2.361624 1_555
Ca5 O63 2.388216 1_555
Hf0 O6 1.956920 1_555
Hf0 O44 1.977263 1_555
Hf0 O8 2.149621 1_655
Hf0 O42 2.234974 1_565
Hf0 O7 2.258510 1_665
Hf0 O43 2.260073 1_665
Hf1 O11 1.956920 1_555
Hf1 O45 1.977263 1_455
Hf1 O9 2.149621 1_455
Hf1 O47 2.234974 1_565
Hf1 O10 2.258510 1_565
Hf1 O46 2.260073 1_465
Hf2 O19 1.977017 1_556
Hf2 O56 2.091896 1_555
Hf2 O54 2.156534 1_555
Hf2 O55 2.166153 1_555
Hf2 O18 2.175379 1_556
Hf2 O20 2.187818 1_556
Hf3 O22 1.977017 1_555
Hf3 O57 2.091896 1_555
Hf3 O59 2.156534 1_555
Hf3 O58 2.166153 1_555
Hf3 O23 2.175379 1_555
Hf3 O21 2.187818 1_555
Hf4 O31 1.934702 1_555
Hf4 O66 1.993892 1_555
Hf4 O67 2.154495 1_555
Hf4 O30 2.211357 1_555
Hf4 O32 2.250203 1_555
Hf4 O68 2.336350 1_555
Hf5 O34 1.934702 1_555
Hf5 O71 1.993892 1_555
Hf5 O70 2.154495 1_555
Hf5 O35 2.211357 1_555
Hf5 O33 2.250203 1_555
Hf5 O69 2.336350 1_555
O0 Si0 1.596659 1_555
O1 S0 1.457670 1_555
O2 S1 1.452348 1_555
O3 S2 1.452348 1_555
O4 S3 1.457670 1_655
O5 Si1 1.596659 1_555
O6 Si1 1.732282 1_555
O7 S2 1.504973 1_555
O8 S3 1.519647 1_555
O9 S0 1.519647 1_555
O10 S1 1.504973 1_555
O11 Si0 1.732282 1_555
O12 S4 1.453830 1_555
O13 S5 1.459983 1_555
O14 Si2 1.591180 1_555
O15 Si3 1.591180 1_555
O16 S6 1.459983 1_555
O17 S7 1.453830 1_555
O18 S7 1.522328 1_555
O19 Si3 1.701964 1_555
O20 S6 1.523153 1_555
O21 S5 1.523153 1_555
O22 Si2 1.701964 1_555
O23 S4 1.522327 1_555
O24 S8 1.453973 1_555
O25 S9 1.451773 1_555
O26 Si4 1.598536 1_555
O27 Si5 1.598536 1_555
O28 S10 1.451773 1_555
O29 S11 1.453973 1_555
O30 S11 1.520208 1_555
O31 Si5 1.748667 1_555
O32 S10 1.499263 1_555
O33 S9 1.499263 1_555
O34 Si4 1.748667 1_555
O35 S8 1.520208 1_555
O36 S11 1.470674 1_555
O37 Si5 1.598400 1_545
O38 S10 1.471684 1_555
O39 S9 1.471686 1_655
O40 Si4 1.598391 1_545
O41 S8 1.470679 1_555
O42 S4 1.526488 1_555
O43 S5 1.496114 1_555
O44 Si2 1.717127 1_555
O45 Si3 1.717131 1_555
O46 S6 1.496105 1_555
O47 S7 1.526493 1_555
O48 Si1 1.595744 1_545
O49 S2 1.481598 1_555
O50 S3 1.458783 1_655
O51 S0 1.458787 1_555
O52 S1 1.481589 1_655
O53 Si0 1.595750 1_545
O54 S8 1.505708 1_555
O55 S9 1.522317 1_655
O56 Si4 1.688888 1_545
O57 Si5 1.688878 1_545
O58 S10 1.522336 1_555
O59 S11 1.505698 1_655
O60 S7 1.451758 1_555
O61 Si3 1.627015 1_455
O62 S6 1.469740 1_565
O63 S5 1.469735 1_565
O64 Si2 1.627033 1_555
O65 S4 1.451747 1_455
O66 Si0 1.720007 1_555
O67 S0 1.508273 1_555
O68 S1 1.509892 1_555
O69 S2 1.509897 1_555
O70 S3 1.508264 1_555
O71 Si1 1.720012 1_555
