# generated using pymatgen
data_CaH4SO6
_symmetry_space_group_name_H-M   'P 1'
_cell_length_a   8.19557334
_cell_length_b   8.19557334
_cell_length_c   5.76418668
_cell_angle_alpha   80.76294127
_cell_angle_beta   80.76294127
_cell_angle_gamma   133.95335803
_symmetry_Int_Tables_number   1
_chemical_formula_structural   CaH4SO6
_chemical_formula_sum   'Ca2 H8 S2 O12'
_cell_volume   254.16540893
_cell_formula_units_Z   2
loop_
 _symmetry_equiv_pos_site_id
 _symmetry_equiv_pos_as_xyz
  1  'x, y, z'
loop_
 _atom_site_type_symbol
 _atom_site_label
 _atom_site_symmetry_multiplicity
 _atom_site_fract_x
 _atom_site_fract_y
 _atom_site_fract_z
 _atom_site_occupancy
  Ca  Ca0  1  0.32992100  0.67007900  0.25000000  1
  Ca  Ca1  1  0.67007900  0.32992100  0.75000000  1
  H  H0  1  0.24745700  0.26080700  0.59001100  1
  H  H1  1  0.73919300  0.75254300  0.90998900  1
  H  H2  1  0.75254300  0.73919300  0.40998900  1
  H  H3  1  0.26080700  0.24745700  0.09001100  1
  H  H4  1  0.84004400  0.65994900  0.24235100  1
  H  H5  1  0.34005100  0.15995600  0.25764900  1
  H  H6  1  0.15995600  0.34005100  0.75764900  1
  H  H7  1  0.65994900  0.84004400  0.74235100  1
  S  S0  1  0.82855100  0.17144900  0.25000000  1
  S  S1  1  0.17144900  0.82855100  0.75000000  1
  O  O0  1  0.08203700  0.31292800  0.08420500  1
  O  O1  1  0.31350900  0.85829700  0.90475100  1
  O  O2  1  0.68649100  0.14170300  0.09524900  1
  O  O3  1  0.85829700  0.31350900  0.40475100  1
  O  O4  1  0.36274200  0.22278300  0.08090200  1
  O  O5  1  0.77721700  0.63725800  0.41909800  1
  O  O6  1  0.63725800  0.77721700  0.91909800  1
  O  O7  1  0.22278300  0.36274200  0.58090200  1
  O  O8  1  0.91796300  0.68707200  0.91579500  1
  O  O9  1  0.31292800  0.08203700  0.58420500  1
  O  O10  1  0.14170300  0.68649100  0.59524900  1
  O  O11  1  0.68707200  0.91796300  0.41579500  1
loop_
_geom_bond_atom_site_label_1
_geom_bond_atom_site_label_2
_geom_bond_distance
_geom_bond_site_symmetry_2
Ca0 O7 2.367131 1_555
Ca0 O6 2.367131 1_554
Ca0 O1 2.397166 1_554
Ca0 O10 2.397166 1_555
Ca0 O3 2.579180 1_455
Ca0 O2 2.579180 1_565
Ca0 O0 2.622015 1_555
Ca0 O11 2.622015 1_555
Ca1 O4 2.367131 1_556
Ca1 O5 2.367131 1_555
Ca1 O2 2.397166 1_556
Ca1 O3 2.397166 1_555
Ca1 O1 2.579180 1_545
Ca1 O10 2.579180 1_655
Ca1 O9 2.622015 1_555
Ca1 O8 2.622015 1_555
H0 O7 0.982549 1_555
H1 O6 0.982549 1_555
H2 O5 0.982549 1_555
H3 O4 0.982549 1_555
H4 O5 0.987679 1_555
H5 O4 0.987679 1_555
H6 O7 0.987679 1_555
H7 O6 0.987679 1_555
O0 S0 1.495555 1_455
O1 S1 1.489918 1_555
O2 S0 1.489918 1_555
O3 S0 1.489918 1_555
O8 S1 1.495555 1_655
O9 S1 1.495555 1_545
O10 S1 1.489918 1_555
O11 S0 1.495555 1_565
