# generated using pymatgen
data_Tb2Si3Pd
_symmetry_space_group_name_H-M   'P 1'
_cell_length_a   8.13122665
_cell_length_b   8.13122619
_cell_length_c   8.17657688
_cell_angle_alpha   90.00004073
_cell_angle_beta   90.00005035
_cell_angle_gamma   120.00049485
_symmetry_Int_Tables_number   1
_chemical_formula_structural   Tb2Si3Pd
_chemical_formula_sum   'Tb8 Si12 Pd4'
_cell_volume   468.17918309
_cell_formula_units_Z   4
loop_
 _symmetry_equiv_pos_site_id
 _symmetry_equiv_pos_as_xyz
  1  'x, y, z'
loop_
 _atom_site_type_symbol
 _atom_site_label
 _atom_site_symmetry_multiplicity
 _atom_site_fract_x
 _atom_site_fract_y
 _atom_site_fract_z
 _atom_site_occupancy
  Tb  Tb0  1  0.49989980  -0.00020163  0.25000336  1
  Tb  Tb1  1  0.50008603  0.00017213  0.74999994  1
  Tb  Tb2  1  0.00020124  0.50010044  0.25000234  1
  Tb  Tb3  1  -0.00017232  0.49991385  0.74999969  1
  Tb  Tb4  1  0.49989949  0.50010083  0.25000268  1
  Tb  Tb5  1  0.50008586  0.49991337  0.75000085  1
  Tb  Tb6  1  -0.00000007  -0.00000014  0.24999743  1
  Tb  Tb7  1  0.00000015  -0.00000015  0.74999628  1
  Si  Si0  1  0.16586624  0.33173302  -0.00017924  1
  Si  Si1  1  0.83415084  0.66829822  0.00016865  1
  Si  Si2  1  0.66826805  0.83413528  -0.00017545  1
  Si  Si3  1  0.83414820  0.66829497  0.49983005  1
  Si  Si4  1  0.33170199  0.16584895  0.00016884  1
  Si  Si5  1  0.16586602  0.33173541  0.50016952  1
  Si  Si6  1  0.16586554  0.83413441  -0.00017931  1
  Si  Si7  1  0.33170350  0.16585205  0.49983045  1
  Si  Si8  1  0.83415047  0.16585066  0.00016878  1
  Si  Si9  1  0.66826525  0.83413282  0.50017484  1
  Si  Si10  1  0.83414843  0.16584977  0.49983007  1
  Si  Si11  1  0.16586536  0.83413501  0.50016879  1
  Pd  Pd0  1  0.33333564  0.66666596  0.00003943  1
  Pd  Pd1  1  0.66666635  0.33333238  -0.00001408  1
  Pd  Pd2  1  0.66666603  0.33333158  0.50004456  1
  Pd  Pd3  1  0.33333092  0.66666981  0.49995153  1
loop_
_geom_bond_atom_site_label_1
_geom_bond_atom_site_label_2
_geom_bond_distance
_geom_bond_site_symmetry_2
Si0 Si8 2.335882 1_455
Si0 Si4 2.335928 1_555
Si0 Tb7 3.103153 1_554
Si0 Tb6 3.105053 1_555
Si0 Tb5 3.116347 1_554
Si0 Tb3 3.116363 1_554
Si0 Tb4 3.117300 1_555
Si0 Tb2 3.117310 1_555
Si1 Si6 2.335875 1_655
Si1 Si2 2.335929 1_555
Si1 Tb6 3.103009 1_665
Si1 Tb7 3.104863 1_664
Si1 Tb2 3.116584 1_655
Si1 Tb4 3.116591 1_555
Si1 Tb5 3.117393 1_554
Si1 Tb3 3.117395 1_654
Si2 Si8 2.335879 1_565
Si2 Tb7 3.103172 1_664
Si2 Tb6 3.105022 1_665
Si2 Tb5 3.116375 1_554
Si2 Tb1 3.116379 1_564
Si2 Tb0 3.117289 1_565
Si2 Tb4 3.117290 1_555
Si3 Si9 2.335935 1_555
Si3 Tb6 3.103051 1_665
Si3 Tb7 3.104843 1_665
Si3 Tb4 3.116537 1_555
Si3 Tb2 3.116548 1_655
Si3 Tb3 3.117395 1_655
Si3 Tb5 3.117399 1_555
Si4 Si6 2.335874 1_545
Si4 Tb6 3.103014 1_555
Si4 Tb7 3.104861 1_554
Si4 Tb4 3.116589 1_555
Si4 Tb0 3.116589 1_555
Si4 Tb1 3.117393 1_554
Si4 Tb5 3.117395 1_554
Si5 Si7 2.335935 1_555
Si5 Tb7 3.103182 1_555
Si5 Tb6 3.105037 1_555
Si5 Tb3 3.116398 1_555
Si5 Tb5 3.116405 1_555
Si5 Tb2 3.117218 1_555
Si5 Tb4 3.117225 1_555
Si6 Tb7 3.103155 1_564
Si6 Tb6 3.105054 1_565
Si6 Tb3 3.116353 1_554
Si6 Tb1 3.116356 1_564
Si6 Tb2 3.117307 1_555
Si6 Tb0 3.117310 1_565
Si7 Tb6 3.103042 1_555
Si7 Tb7 3.104837 1_555
Si7 Tb4 3.116544 1_555
Si7 Tb0 3.116558 1_555
Si7 Tb5 3.117388 1_555
Si7 Tb1 3.117404 1_555
Si8 Tb6 3.103016 1_655
Si8 Tb7 3.104869 1_654
Si8 Tb2 3.116576 1_655
Si8 Tb0 3.116591 1_555
Si8 Tb3 3.117395 1_654
Si8 Tb1 3.117396 1_554
Si9 Tb7 3.103146 1_665
Si9 Tb6 3.105066 1_665
Si9 Tb5 3.116378 1_555
Si9 Tb1 3.116380 1_565
Si9 Tb4 3.117241 1_555
Si9 Tb0 3.117247 1_565
Si10 Si9 2.335891 1_545
Si10 Si5 2.335895 1_655
Si10 Tb6 3.103044 1_655
Si10 Tb7 3.104841 1_655
Si10 Tb0 3.116533 1_555
Si10 Tb2 3.116554 1_655
Si10 Tb1 3.117395 1_555
Si10 Tb3 3.117398 1_655
Si11 Si7 2.335891 1_565
Si11 Si3 2.335892 1_455
Si11 Tb7 3.103168 1_565
Si11 Tb6 3.105020 1_565
Si11 Tb1 3.116408 1_565
Si11 Tb3 3.116414 1_555
Si11 Tb0 3.117223 1_565
Si11 Tb2 3.117224 1_555
Pd0 Si2 2.358532 1_555
Pd0 Si0 2.358536 1_555
Pd0 Si6 2.358593 1_555
Pd0 Tb4 3.111319 1_555
Pd0 Tb0 3.111326 1_565
Pd0 Tb2 3.111335 1_555
Pd0 Tb5 3.113709 1_554
Pd0 Tb1 3.113720 1_564
Pd0 Tb3 3.113727 1_554
Pd1 Si4 2.358757 1_555
Pd1 Si1 2.358767 1_555
Pd1 Si8 2.358785 1_555
Pd1 Tb1 3.111592 1_554
Pd1 Tb3 3.111604 1_654
Pd1 Tb5 3.111609 1_554
Pd1 Tb2 3.113745 1_655
Pd1 Tb0 3.113750 1_555
Pd1 Tb4 3.113765 1_555
Pd2 Si7 2.358744 1_555
Pd2 Si3 2.358750 1_555
Pd2 Si10 2.358774 1_555
Pd2 Tb1 3.111428 1_555
Pd2 Tb3 3.111434 1_655
Pd2 Tb5 3.111457 1_555
Pd2 Tb0 3.113869 1_555
Pd2 Tb2 3.113890 1_655
Pd2 Tb4 3.113902 1_555
Pd3 Si11 2.358538 1_555
Pd3 Si9 2.358546 1_555
Pd3 Si5 2.358546 1_555
Pd3 Tb0 3.111225 1_565
Pd3 Tb2 3.111232 1_555
Pd3 Tb4 3.111288 1_555
Pd3 Tb1 3.113744 1_565
Pd3 Tb3 3.113752 1_555
Pd3 Tb5 3.113812 1_555
