# generated using pymatgen
data_LiCr2(PO4)3
_symmetry_space_group_name_H-M   'P 1'
_cell_length_a   8.65262500
_cell_length_b   8.31430600
_cell_length_c   14.44568719
_cell_angle_alpha   54.80448932
_cell_angle_beta   90.00000000
_cell_angle_gamma   90.00000000
_symmetry_Int_Tables_number   1
_chemical_formula_structural   LiCr2(PO4)3
_chemical_formula_sum   'Li4 Cr8 P12 O48'
_cell_volume   849.24924351
_cell_formula_units_Z   4
loop_
 _symmetry_equiv_pos_site_id
 _symmetry_equiv_pos_as_xyz
  1  'x, y, z'
loop_
 _atom_site_type_symbol
 _atom_site_label
 _atom_site_symmetry_multiplicity
 _atom_site_fract_x
 _atom_site_fract_y
 _atom_site_fract_z
 _atom_site_occupancy
  Li  Li0  1  0.78433300  0.63824000  0.18053800  1
  Li  Li1  1  0.21566700  0.36176000  0.81946200  1
  Li  Li2  1  0.28433300  0.36176000  0.31946200  1
  Li  Li3  1  0.71566700  0.63824000  0.68053800  1
  Cr  Cr0  1  0.52753700  0.13802100  0.61634500  1
  Cr  Cr1  1  0.97246300  0.13802100  0.11634500  1
  Cr  Cr2  1  0.46407000  0.63511400  0.11360500  1
  Cr  Cr3  1  0.96407000  0.36488600  0.38639500  1
  Cr  Cr4  1  0.53593000  0.36488600  0.88639500  1
  Cr  Cr5  1  0.02753700  0.86197900  0.88365500  1
  Cr  Cr6  1  0.03593000  0.63511400  0.61360500  1
  Cr  Cr7  1  0.47246300  0.86197900  0.38365500  1
  P  P0  1  0.39054300  0.74569500  0.64210900  1
  P  P1  1  0.10945700  0.74569500  0.14210900  1
  P  P2  1  0.25202500  0.47387800  0.49107800  1
  P  P3  1  0.61822000  0.96096300  0.14745000  1
  P  P4  1  0.60945700  0.25430500  0.35789100  1
  P  P5  1  0.75202500  0.52612200  0.00892200  1
  P  P6  1  0.24797500  0.47387800  0.99107800  1
  P  P7  1  0.74797500  0.52612200  0.50892200  1
  P  P8  1  0.89054300  0.25430500  0.85789100  1
  P  P9  1  0.11822000  0.03903700  0.35255000  1
  P  P10  1  0.88178000  0.96096300  0.64745000  1
  P  P11  1  0.38178000  0.03903700  0.85255000  1
  O  O0  1  0.63481400  0.67353000  0.41776000  1
  O  O1  1  0.11233300  0.95784800  0.10854400  1
  O  O2  1  0.92124000  0.75429900  0.67603700  1
  O  O3  1  0.38766700  0.95784800  0.60854400  1
  O  O4  1  0.42124000  0.24570100  0.82396300  1
  O  O5  1  0.97338500  0.99562400  0.72676400  1
  O  O6  1  0.77033700  0.35427900  0.31799400  1
  O  O7  1  0.55400800  0.26590600  0.45566800  1
  O  O8  1  0.02661500  0.00437600  0.27323600  1
  O  O9  1  0.22966300  0.64572100  0.68200600  1
  O  O10  1  0.87472700  0.49411500  0.44479000  1
  O  O11  1  0.32368900  0.38703100  0.93229800  1
  O  O12  1  0.47338500  0.00437600  0.77323600  1
  O  O13  1  0.13481400  0.32647000  0.08224000  1
  O  O14  1  0.20481700  0.04306100  0.83866900  1
  O  O15  1  0.62527300  0.49411500  0.94479000  1
  O  O16  1  0.88766700  0.04215200  0.89145600  1
  O  O17  1  0.07876000  0.24570100  0.32396300  1
  O  O18  1  0.82368900  0.61296900  0.56770200  1
  O  O19  1  0.42886500  0.88411300  0.97568800  1
  O  O20  1  0.12527300  0.50588500  0.55521000  1
  O  O21  1  0.00750300  0.37969000  0.75992300  1
  O  O22  1  0.67631100  0.61296900  0.06770200  1
  O  O23  1  0.27033700  0.64572100  0.18200600  1
  O  O24  1  0.79518300  0.95693900  0.16133100  1
  O  O25  1  0.52661500  0.99562400  0.22676400  1
  O  O26  1  0.17421100  0.67340500  0.89675900  1
  O  O27  1  0.07113500  0.88411300  0.47568800  1
  O  O28  1  0.61233300  0.04215200  0.39145600  1
  O  O29  1  0.50750300  0.62031000  0.74007700  1
  O  O30  1  0.67421100  0.32659500  0.60324100  1
  O  O31  1  0.57876000  0.75429900  0.17603700  1
  O  O32  1  0.49249700  0.37969000  0.25992300  1
  O  O33  1  0.37472700  0.50588500  0.05521000  1
  O  O34  1  0.82578900  0.32659500  0.10324100  1
  O  O35  1  0.86518600  0.67353000  0.91776000  1
  O  O36  1  0.29518300  0.04306100  0.33866900  1
  O  O37  1  0.17631100  0.38703100  0.43229800  1
  O  O38  1  0.44599200  0.73409400  0.54433200  1
  O  O39  1  0.36518600  0.32647000  0.58224000  1
  O  O40  1  0.92886500  0.11588700  0.52431200  1
  O  O41  1  0.99249700  0.62031000  0.24007700  1
  O  O42  1  0.32578900  0.67340500  0.39675900  1
  O  O43  1  0.57113500  0.11588700  0.02431200  1
  O  O44  1  0.05400800  0.73409400  0.04433200  1
  O  O45  1  0.94599200  0.26590600  0.95566800  1
  O  O46  1  0.72966300  0.35427900  0.81799400  1
  O  O47  1  0.70481700  0.95693900  0.66133100  1
loop_
_geom_bond_atom_site_label_1
_geom_bond_atom_site_label_2
_geom_bond_distance
_geom_bond_site_symmetry_2
Li0 O41 1.964271 1_555
Li0 O22 1.992343 1_555
Li0 O31 2.006731 1_555
Li0 O6 2.031618 1_555
Li0 O24 2.501907 1_555
Li1 O21 1.964271 1_555
Li1 O11 1.992343 1_555
Li1 O4 2.006731 1_555
Li1 O9 2.031618 1_555
Li1 O14 2.501907 1_555
Li2 O32 1.964271 1_555
Li2 O37 1.992343 1_555
Li2 O17 2.006731 1_555
Li2 O23 2.031618 1_555
Li2 O36 2.501907 1_555
Li3 O29 1.964271 1_555
Li3 O18 1.992343 1_555
Li3 O2 2.006731 1_555
Li3 O46 2.031618 1_555
Li3 O47 2.501907 1_555
Cr0 O12 1.920367 1_555
Cr0 O7 1.930173 1_555
Cr0 O30 1.939731 1_555
Cr0 O39 1.944527 1_555
Cr0 O47 1.978429 1_545
Cr0 O3 1.978895 1_545
Cr1 O8 1.920367 1_655
Cr1 O45 1.930173 1_554
Cr1 O34 1.939731 1_555
Cr1 O13 1.944527 1_655
Cr1 O24 1.978429 1_545
Cr1 O1 1.978895 1_645
Cr2 O33 1.873080 1_555
Cr2 O19 1.895645 1_554
Cr2 O31 1.952009 1_555
Cr2 O32 1.965640 1_555
Cr2 O23 1.973460 1_555
Cr2 O22 1.996712 1_555
Cr3 O10 1.873080 1_555
Cr3 O40 1.895645 1_555
Cr3 O17 1.952009 1_655
Cr3 O41 1.965640 1_555
Cr3 O6 1.973460 1_555
Cr3 O37 1.996712 1_655
Cr4 O15 1.873080 1_555
Cr4 O43 1.895645 1_556
Cr4 O4 1.952009 1_555
Cr4 O29 1.965640 1_555
Cr4 O46 1.973460 1_555
Cr4 O11 1.996712 1_555
Cr5 O5 1.920367 1_455
Cr5 O44 1.930173 1_556
Cr5 O26 1.939731 1_555
Cr5 O35 1.944527 1_455
Cr5 O14 1.978429 1_565
Cr5 O16 1.978895 1_465
Cr6 O20 1.873080 1_555
Cr6 O27 1.895645 1_555
Cr6 O2 1.952009 1_455
Cr6 O21 1.965640 1_555
Cr6 O9 1.973460 1_555
Cr6 O18 1.996712 1_455
Cr7 O25 1.920367 1_555
Cr7 O38 1.930173 1_555
Cr7 O42 1.939731 1_555
Cr7 O0 1.944527 1_555
Cr7 O36 1.978429 1_565
Cr7 O28 1.978895 1_565
O0 P7 1.527914 1_555
O1 P1 1.536615 1_555
O2 P10 1.556150 1_555
O3 P0 1.536615 1_555
O4 P11 1.556150 1_555
O5 P10 1.550693 1_555
O6 P4 1.551970 1_555
O7 P4 1.546470 1_555
O8 P9 1.550693 1_555
O9 P0 1.551970 1_555
O10 P7 1.554387 1_555
O11 P6 1.542190 1_555
O12 P11 1.550693 1_555
O13 P6 1.527914 1_554
O14 P11 1.542125 1_555
O15 P5 1.554387 1_556
O16 P8 1.536615 1_555
O17 P9 1.556150 1_555
O18 P7 1.542190 1_555
O19 P11 1.532351 1_565
O20 P2 1.554387 1_555
O21 P8 1.553415 1_455
O22 P5 1.542190 1_555
O23 P1 1.551970 1_555
O24 P3 1.542125 1_555
O25 P3 1.550693 1_555
O26 P6 1.552514 1_555
O27 P9 1.532351 1_565
O28 P4 1.536615 1_555
O29 P0 1.553415 1_555
O30 P7 1.552514 1_555
O31 P3 1.556150 1_555
O32 P4 1.553415 1_555
O33 P6 1.554387 1_554
O34 P5 1.552514 1_555
O35 P5 1.527914 1_556
O36 P9 1.542125 1_555
O37 P2 1.542190 1_555
O38 P0 1.546470 1_555
O39 P2 1.527914 1_555
O40 P10 1.532351 1_545
O41 P1 1.553415 1_655
O42 P2 1.552514 1_555
O43 P3 1.532351 1_545
O44 P1 1.546470 1_555
O45 P8 1.546470 1_555
O46 P8 1.551970 1_555
O47 P10 1.542125 1_555
