# generated using pymatgen
data_MgTi8(NiO3)8
_symmetry_space_group_name_H-M   'P 1'
_cell_length_a   5.70620237
_cell_length_b   10.88139467
_cell_length_c   11.41226704
_cell_angle_alpha   55.56531574
_cell_angle_beta   52.88556108
_cell_angle_gamma   55.18952154
_symmetry_Int_Tables_number   1
_chemical_formula_structural   MgTi8(NiO3)8
_chemical_formula_sum   'Mg1 Ti8 Ni8 O24'
_cell_volume   436.71285025
_cell_formula_units_Z   1
loop_
 _symmetry_equiv_pos_site_id
 _symmetry_equiv_pos_as_xyz
  1  'x, y, z'
loop_
 _atom_site_type_symbol
 _atom_site_label
 _atom_site_symmetry_multiplicity
 _atom_site_fract_x
 _atom_site_fract_y
 _atom_site_fract_z
 _atom_site_occupancy
  Mg  Mg0  1  0.83286800  0.35050300  0.17148900  1
  Ti  Ti0  1  0.40129700  0.15138700  0.19295300  1
  Ti  Ti1  1  0.13639300  0.07083000  0.58939500  1
  Ti  Ti2  1  0.16784400  0.58703300  0.04991600  1
  Ti  Ti3  1  0.15205700  0.58745100  0.55019500  1
  Ti  Ti4  1  0.85290200  0.42923000  0.41872400  1
  Ti  Ti5  1  0.86688400  0.43432300  0.88819700  1
  Ti  Ti6  1  0.88720400  0.91651400  0.42060600  1
  Ti  Ti7  1  0.82195300  0.92625300  0.93458300  1
  Ni  Ni0  1  0.14145200  0.07410400  0.07939700  1
  Ni  Ni1  1  0.35148300  0.67594900  0.17307600  1
  Ni  Ni2  1  0.33952100  0.15428300  0.71748500  1
  Ni  Ni3  1  0.53870600  0.27756000  0.44854200  1
  Ni  Ni4  1  0.35661800  0.67534200  0.66466600  1
  Ni  Ni5  1  0.62472900  0.33136400  0.81370200  1
  Ni  Ni6  1  0.67363000  0.81602500  0.32626500  1
  Ni  Ni7  1  0.64761800  0.82774700  0.81376500  1
  O  O0  1  0.10889200  0.37309900  0.19980000  1
  O  O1  1  0.44981000  0.03125900  0.37673600  1
  O  O2  1  0.73086800  0.22308700  0.03456600  1
  O  O3  1  0.20685800  0.28589400  0.44972400  1
  O  O4  1  0.55722200  0.50499600  0.07327900  1
  O  O5  1  0.04409200  0.38234300  0.71054400  1
  O  O6  1  0.05653300  0.87111800  0.23323200  1
  O  O7  1  0.98166800  0.12014200  0.27886200  1
  O  O8  1  0.46268900  0.00795800  0.89164900  1
  O  O9  1  0.46131000  0.51569700  0.37520800  1
  O  O10  1  0.77353600  0.20216800  0.55660800  1
  O  O11  1  0.77804600  0.71116100  0.03174000  1
  O  O12  1  0.18443900  0.30270200  0.96367100  1
  O  O13  1  0.25138500  0.78067000  0.46353100  1
  O  O14  1  0.56258100  0.47508000  0.60477000  1
  O  O15  1  0.57669000  0.97933700  0.11716800  1
  O  O16  1  0.05560400  0.88065300  0.71535900  1
  O  O17  1  0.94538100  0.11415800  0.78378300  1
  O  O18  1  0.96048500  0.61305700  0.27222800  1
  O  O19  1  0.43501600  0.52970800  0.86985500  1
  O  O20  1  0.76775100  0.71768300  0.52549100  1
  O  O21  1  0.21769100  0.79136000  0.95688600  1
  O  O22  1  0.55879600  0.98101500  0.60627200  1
  O  O23  1  0.94857100  0.62333300  0.76026600  1
loop_
_geom_bond_atom_site_label_1
_geom_bond_atom_site_label_2
_geom_bond_distance
_geom_bond_site_symmetry_2
Mg0 O4 1.879881 1_555
Mg0 O0 1.947242 1_655
Mg0 O7 1.964089 1_555
Mg0 O12 2.093277 1_654
Ni0 O8 1.991711 1_554
Ni0 O6 2.001376 1_545
Ni0 O7 2.127785 1_455
Ni0 O2 2.133320 1_455
Ni0 O12 2.140617 1_554
Ni0 O15 2.298363 1_545
Ni1 O6 1.996915 1_555
Ni1 O11 2.073868 1_555
Ni1 O4 2.103513 1_555
Ni1 O18 2.132453 1_455
Ni1 O9 2.168525 1_555
Ni1 O21 2.433420 1_554
Ni2 O8 1.951622 1_555
Ni2 O5 2.041813 1_555
Ni2 O17 2.124910 1_455
Ni2 O10 2.163294 1_555
Ni2 O22 2.197157 1_545
Ni3 O3 1.835373 1_555
Ni3 O10 1.893306 1_555
Ni3 O9 2.072913 1_555
Ni3 O7 2.444162 1_555
Ni4 O20 2.036761 1_555
Ni4 O16 2.038956 1_555
Ni4 O14 2.094789 1_555
Ni4 O19 2.110195 1_555
Ni4 O23 2.161601 1_455
Ni4 O13 2.201237 1_555
Ni5 O17 2.066847 1_555
Ni5 O19 2.073663 1_555
Ni5 O14 2.104022 1_555
Ni5 O12 2.107195 1_555
Ni5 O5 2.190247 1_655
Ni5 O2 2.403584 1_556
Ni6 O18 2.032745 1_555
Ni6 O13 2.056452 1_555
Ni6 O6 2.058307 1_655
Ni6 O20 2.160746 1_555
Ni6 O1 2.161210 1_565
Ni6 O15 2.198434 1_555
Ni7 O23 2.044206 1_555
Ni7 O8 2.055620 1_565
Ni7 O21 2.094021 1_555
Ni7 O16 2.157836 1_655
Ni7 O22 2.159305 1_555
Ni7 O11 2.436945 1_556
O0 Ti0 2.017519 1_555
O0 Ti2 2.038268 1_555
O0 Ti4 2.247608 1_455
O1 Ti0 1.836103 1_555
O1 Ti1 2.082882 1_555
O1 Ti6 2.298264 1_545
O2 Ti0 1.841353 1_555
O2 Ti5 2.192248 1_554
O3 Ti4 1.810750 1_455
O3 Ti1 2.064263 1_555
O4 Ti5 1.989092 1_554
O4 Ti2 1.996473 1_555
O5 Ti5 1.903326 1_455
O5 Ti3 2.073603 1_555
O6 Ti6 1.976461 1_455
O7 Ti6 2.018572 1_545
O7 Ti0 2.128325 1_655
O8 Ti7 1.967681 1_545
O9 Ti3 1.910257 1_555
O9 Ti4 2.129619 1_555
O10 Ti1 1.849677 1_655
O10 Ti4 2.192349 1_555
O11 Ti2 1.903841 1_655
O11 Ti7 2.041930 1_554
O12 Ti5 1.897888 1_455
O13 Ti6 1.909426 1_455
O13 Ti3 2.013021 1_555
O14 Ti4 1.873728 1_555
O14 Ti3 2.235992 1_555
O15 Ti7 1.884958 1_554
O15 Ti0 1.975326 1_565
O16 Ti1 1.867221 1_565
O16 Ti7 2.214984 1_455
O17 Ti7 1.959671 1_545
O17 Ti1 2.002429 1_655
O18 Ti4 1.885329 1_555
O18 Ti2 2.173514 1_655
O19 Ti2 1.875934 1_556
O19 Ti5 2.156510 1_555
O20 Ti3 1.908623 1_655
O20 Ti6 2.085343 1_555
O21 Ti7 1.950731 1_455
O21 Ti2 1.959449 1_556
O22 Ti6 1.970346 1_555
O22 Ti1 2.111811 1_565
O23 Ti5 1.859079 1_555
O23 Ti3 2.104694 1_655
