# generated using pymatgen
data_Na3InSiGe(PO6)2
_symmetry_space_group_name_H-M   'P 1'
_cell_length_a   15.45657156
_cell_length_b   8.97403141
_cell_length_c   9.03458870
_cell_angle_alpha   90.00000000
_cell_angle_beta   126.12657632
_cell_angle_gamma   90.00000000
_symmetry_Int_Tables_number   1
_chemical_formula_structural   Na3InSiGe(PO6)2
_chemical_formula_sum   'Na12 In4 Si4 Ge4 P8 O48'
_cell_volume   1012.20410879
_cell_formula_units_Z   4
loop_
 _symmetry_equiv_pos_site_id
 _symmetry_equiv_pos_as_xyz
  1  'x, y, z'
loop_
 _atom_site_type_symbol
 _atom_site_label
 _atom_site_symmetry_multiplicity
 _atom_site_fract_x
 _atom_site_fract_y
 _atom_site_fract_z
 _atom_site_occupancy
  Na  Na0  1  0.25165728  0.73018394  0.99622012  1
  Na  Na1  1  0.75165728  0.76981606  0.49622012  1
  Na  Na2  1  0.75165728  0.23018394  0.99622012  1
  Na  Na3  1  0.25165728  0.26981606  0.49622012  1
  Na  Na4  1  0.50621038  0.10223774  0.75586592  1
  Na  Na5  1  0.50621038  0.89776226  0.25586592  1
  Na  Na6  1  0.00621038  0.60223774  0.75586592  1
  Na  Na7  1  0.00621038  0.39776226  0.25586592  1
  Na  Na8  1  0.18593370  0.93143871  0.29079883  1
  Na  Na9  1  0.18593370  0.06856129  0.79079883  1
  Na  Na10  1  0.68593370  0.43143871  0.29079883  1
  Na  Na11  1  0.68593370  0.56856129  0.79079883  1
  In  In0  1  0.10304836  0.74644359  0.56110308  1
  In  In1  1  0.10304836  0.25355641  0.06110308  1
  In  In2  1  0.60304836  0.24644359  0.56110308  1
  In  In3  1  0.60304836  0.75355641  0.06110308  1
  Si  Si0  1  0.65006572  0.88776752  0.74797326  1
  Si  Si1  1  0.65006572  0.11223248  0.24797326  1
  Si  Si2  1  0.15006572  0.38776752  0.74797326  1
  Si  Si3  1  0.15006572  0.61223248  0.24797326  1
  Ge  Ge0  1  0.89818046  0.76131432  0.93365760  1
  Ge  Ge1  1  0.89818046  0.23868568  0.43365760  1
  Ge  Ge2  1  0.39818046  0.26131432  0.93365760  1
  Ge  Ge3  1  0.39818046  0.73868568  0.43365760  1
  P  P0  1  0.99191850  0.95930566  0.74962713  1
  P  P1  1  0.99191850  0.04069434  0.24962713  1
  P  P2  1  0.49191850  0.45930566  0.74962713  1
  P  P3  1  0.49191850  0.54069434  0.24962713  1
  P  P4  1  0.35355926  0.90870503  0.75430704  1
  P  P5  1  0.35355926  0.09129497  0.25430704  1
  P  P6  1  0.85355926  0.40870503  0.75430704  1
  P  P7  1  0.85355926  0.59129497  0.25430704  1
  O  O0  1  0.15615538  0.56741359  0.74660628  1
  O  O1  1  0.85386047  0.58559871  0.75611750  1
  O  O2  1  0.85386047  0.41440129  0.25611750  1
  O  O3  1  0.15615538  0.43258641  0.24660628  1
  O  O4  1  0.65615538  0.06741359  0.74660628  1
  O  O5  1  0.35386047  0.08559871  0.75611750  1
  O  O6  1  0.35386047  0.91440129  0.25611750  1
  O  O7  1  0.65615538  0.93258641  0.24660628  1
  O  O8  1  0.42648332  0.56289797  0.57747604  1
  O  O9  1  0.56282776  0.54356072  0.92938250  1
  O  O10  1  0.56282776  0.45643928  0.42938250  1
  O  O11  1  0.42648332  0.43710203  0.07747604  1
  O  O12  1  0.92648332  0.06289797  0.57747604  1
  O  O13  1  0.06282776  0.04356072  0.92938250  1
  O  O14  1  0.06282776  0.95643928  0.42938250  1
  O  O15  1  0.92648332  0.93710203  0.07747604  1
  O  O16  1  0.25541159  0.85892919  0.74577503  1
  O  O17  1  0.75135204  0.80122434  0.76471592  1
  O  O18  1  0.75135204  0.19877566  0.26471592  1
  O  O19  1  0.25541159  0.14107081  0.24577503  1
  O  O20  1  0.75541159  0.35892919  0.74577503  1
  O  O21  1  0.25135204  0.30122434  0.76471592  1
  O  O22  1  0.25135204  0.69877566  0.26471592  1
  O  O23  1  0.75541159  0.64107081  0.24577503  1
  O  O24  1  0.35412540  0.86846847  0.58597227  1
  O  O25  1  0.65090203  0.84502608  0.91900194  1
  O  O26  1  0.65090203  0.15497392  0.41900194  1
  O  O27  1  0.35412540  0.13153153  0.08597227  1
  O  O28  1  0.85412540  0.36846847  0.58597227  1
  O  O29  1  0.15090203  0.34502608  0.91900194  1
  O  O30  1  0.15090203  0.65497392  0.41900194  1
  O  O31  1  0.85412540  0.63153153  0.08597227  1
  O  O32  1  0.45096574  0.85130664  0.93647592  1
  O  O33  1  0.53897653  0.80987711  0.55666217  1
  O  O34  1  0.53897653  0.19012289  0.05666217  1
  O  O35  1  0.45096574  0.14869336  0.43647592  1
  O  O36  1  0.95096574  0.35130664  0.93647592  1
  O  O37  1  0.03897653  0.30987711  0.55666217  1
  O  O38  1  0.03897653  0.69012289  0.05666217  1
  O  O39  1  0.95096574  0.64869336  0.43647592  1
  O  O40  1  0.06886647  0.85523514  0.74108716  1
  O  O41  1  0.90949961  0.85942019  0.75117428  1
  O  O42  1  0.90949961  0.14057981  0.25117428  1
  O  O43  1  0.06886647  0.14476486  0.24108716  1
  O  O44  1  0.56886647  0.35523514  0.74108716  1
  O  O45  1  0.40949961  0.35942019  0.75117428  1
  O  O46  1  0.40949961  0.64057981  0.25117428  1
  O  O47  1  0.56886647  0.64476486  0.24108716  1
loop_
_geom_bond_atom_site_label_1
_geom_bond_atom_site_label_2
_geom_bond_distance
_geom_bond_site_symmetry_2
Na0 O46 2.297407 1_556
Na0 O0 2.339467 1_555
Na0 O22 2.444835 1_556
Na0 O6 2.523515 1_556
Na0 O16 2.571521 1_555
Na0 O40 2.622183 1_555
Na1 O41 2.297407 1_555
Na1 O7 2.339467 1_555
Na1 O17 2.444835 1_555
Na1 O1 2.523515 1_555
Na1 O23 2.571521 1_555
Na1 O47 2.622183 1_555
Na2 O42 2.297407 1_556
Na2 O4 2.339467 1_555
Na2 O18 2.444835 1_556
Na2 O2 2.523515 1_556
Na2 O20 2.571521 1_555
Na2 O44 2.622183 1_555
Na3 O45 2.297407 1_555
Na3 O3 2.339467 1_555
Na3 O21 2.444835 1_555
Na3 O5 2.523515 1_555
Na3 O19 2.571521 1_555
Na3 O43 2.622183 1_555
Na4 O5 2.360875 1_555
Na4 O4 2.388455 1_555
Na4 O44 2.502586 1_555
Na4 O35 2.514760 1_555
Na4 O34 2.576981 1_556
Na4 O45 2.736468 1_555
Na4 O24 2.833423 1_545
Na4 O25 2.935156 1_545
Na5 O6 2.360875 1_555
Na5 O7 2.388455 1_555
Na5 O47 2.502586 1_555
Na5 O32 2.514760 1_554
Na5 O33 2.576981 1_555
Na5 O46 2.736468 1_555
Na5 O27 2.833423 1_565
Na5 O26 2.935156 1_565
Na6 O1 2.360875 1_455
Na6 O0 2.388455 1_555
Na6 O40 2.502586 1_555
Na6 O39 2.514760 1_455
Na6 O38 2.576981 1_556
Na6 O41 2.736468 1_455
Na6 O28 2.833423 1_455
Na6 O29 2.935156 1_555
Na7 O2 2.360875 1_455
Na7 O3 2.388455 1_555
Na7 O43 2.502586 1_555
Na7 O36 2.514760 1_454
Na7 O37 2.576981 1_555
Na7 O42 2.736468 1_455
Na7 O31 2.833423 1_455
Na7 O30 2.935156 1_555
Na8 O19 2.317945 1_565
Na8 O22 2.391304 1_555
Na8 O24 2.452470 1_555
Na8 O43 2.486465 1_565
Na8 O6 2.795982 1_555
Na8 O13 2.822899 1_564
Na8 O14 2.836858 1_555
Na8 O30 2.920557 1_555
Na8 O38 2.942484 1_555
Na9 O16 2.317945 1_545
Na9 O21 2.391304 1_555
Na9 O27 2.452470 1_556
Na9 O40 2.486465 1_545
Na9 O5 2.795982 1_555
Na9 O14 2.822899 1_545
Na9 O13 2.836858 1_555
Na9 O29 2.920557 1_555
Na9 O37 2.942484 1_555
Na10 O23 2.317945 1_555
Na10 O18 2.391304 1_555
Na10 O28 2.452470 1_555
Na10 O47 2.486465 1_555
Na10 O2 2.795982 1_555
Na10 O9 2.822899 1_554
Na10 O10 2.836858 1_555
Na10 O26 2.920557 1_555
Na10 O34 2.942484 1_555
Na11 O20 2.317945 1_555
Na11 O17 2.391304 1_555
Na11 O31 2.452470 1_556
Na11 O44 2.486465 1_555
Na11 O1 2.795982 1_555
Na11 O10 2.822899 1_555
Na11 O9 2.836858 1_555
Na11 O25 2.920557 1_555
Na11 O33 2.942484 1_555
In0 O30 1.997195 1_555
In0 O0 2.107527 1_555
In0 O39 2.107618 1_455
In0 O14 2.117002 1_555
In0 O16 2.171562 1_555
In0 O40 2.211212 1_555
In1 O29 1.997195 1_554
In1 O3 2.107527 1_555
In1 O36 2.107618 1_454
In1 O13 2.117002 1_554
In1 O19 2.171562 1_555
In1 O43 2.211212 1_555
In2 O26 1.997195 1_555
In2 O4 2.107527 1_555
In2 O35 2.107618 1_555
In2 O10 2.117002 1_555
In2 O20 2.171562 1_555
In2 O44 2.211212 1_555
In3 O25 1.997195 1_554
In3 O7 2.107527 1_555
In3 O32 2.107618 1_554
In3 O9 2.117002 1_554
In3 O23 2.171562 1_555
In3 O47 2.211212 1_555
Ge0 O17 1.877213 1_555
Ge0 O38 1.878143 1_656
Ge0 O15 1.923019 1_556
Ge0 O41 1.965686 1_555
Ge0 O1 2.057425 1_555
Ge0 O31 2.195155 1_556
Ge1 O18 1.877213 1_555
Ge1 O37 1.878143 1_655
Ge1 O12 1.923019 1_555
Ge1 O42 1.965686 1_555
Ge1 O2 2.057425 1_555
Ge1 O28 2.195155 1_555
Ge2 O21 1.877213 1_555
Ge2 O34 1.878143 1_556
Ge2 O11 1.923019 1_556
Ge2 O45 1.965686 1_555
Ge2 O5 2.057425 1_555
Ge2 O27 2.195155 1_556
Ge3 O22 1.877213 1_555
Ge3 O33 1.878143 1_555
Ge3 O8 1.923019 1_555
Ge3 O46 1.965686 1_555
Ge3 O6 2.057425 1_555
Ge3 O24 2.195155 1_555
O0 Si2 1.615366 1_555
O1 P6 1.587512 1_555
O2 P7 1.587512 1_555
O3 Si3 1.615366 1_555
O4 Si0 1.615366 1_545
O5 P4 1.587512 1_545
O6 P5 1.587512 1_565
O7 Si1 1.615366 1_565
O8 P2 1.565670 1_555
O9 P2 1.520383 1_555
O10 P3 1.520383 1_555
O11 P3 1.565670 1_555
O12 P0 1.565670 1_545
O13 P0 1.520383 1_445
O14 P1 1.520383 1_465
O15 P1 1.565670 1_565
O16 P4 1.539142 1_555
O17 Si0 1.672643 1_555
O18 Si1 1.672643 1_555
O19 P5 1.539142 1_555
O20 P6 1.539142 1_555
O21 Si2 1.672643 1_555
O22 Si3 1.672643 1_555
O23 P7 1.539142 1_555
O24 P4 1.568149 1_555
O25 Si0 1.584708 1_555
O26 Si1 1.584708 1_555
O27 P5 1.568149 1_555
O28 P6 1.568149 1_555
O29 Si2 1.584708 1_555
O30 Si3 1.584708 1_555
O31 P7 1.568149 1_555
O32 P4 1.522825 1_555
O33 Si0 1.710220 1_555
O34 Si1 1.710220 1_555
O35 P5 1.522825 1_555
O36 P6 1.522825 1_555
O37 Si2 1.710220 1_555
O38 Si3 1.710220 1_555
O39 P7 1.522825 1_555
O40 P0 1.549498 1_455
O41 P0 1.564460 1_555
O42 P1 1.564460 1_555
O43 P1 1.549498 1_455
O44 P2 1.549498 1_555
O45 P2 1.564460 1_555
O46 P3 1.564460 1_555
O47 P3 1.549498 1_555
