# generated using pymatgen
data_MgV2CdO6
_symmetry_space_group_name_H-M   'P 1'
_cell_length_a   3.96465108
_cell_length_b   5.85767081
_cell_length_c   6.76362768
_cell_angle_alpha   101.39883120
_cell_angle_beta   90.00604812
_cell_angle_gamma   109.80054490
_symmetry_Int_Tables_number   1
_chemical_formula_structural   MgV2CdO6
_chemical_formula_sum   'Mg1 V2 Cd1 O6'
_cell_volume   144.49071857
_cell_formula_units_Z   1
loop_
 _symmetry_equiv_pos_site_id
 _symmetry_equiv_pos_as_xyz
  1  'x, y, z'
loop_
 _atom_site_type_symbol
 _atom_site_label
 _atom_site_symmetry_multiplicity
 _atom_site_fract_x
 _atom_site_fract_y
 _atom_site_fract_z
 _atom_site_occupancy
  Mg  Mg0  1  0.41932000  0.83858500  0.21569600  1
  V  V0  1  0.24804000  0.49611100  0.67040400  1
  V  V1  1  0.74906100  0.49823100  0.33691300  1
  Cd  Cd0  1  0.97507500  0.94968100  0.91254900  1
  O  O0  1  0.10054000  0.20138000  0.70719300  1
  O  O1  1  0.27870800  0.55750600  0.39043800  1
  O  O2  1  0.77289500  0.54577800  0.62614300  1
  O  O3  1  0.37786800  0.75548000  0.90068100  1
  O  O4  1  0.59930700  0.19893500  0.19261600  1
  O  O5  1  0.88990100  0.77974200  0.22329400  1
loop_
_geom_bond_atom_site_label_1
_geom_bond_atom_site_label_2
_geom_bond_distance
_geom_bond_site_symmetry_2
Mg0 O5 2.010960 1_455
Mg0 O5 2.011194 1_555
Mg0 O4 2.024573 1_565
Mg0 O3 2.083117 1_554
Mg0 O1 2.136814 1_555
Cd0 O0 2.159426 1_665
Cd0 O3 2.246191 1_655
Cd0 O3 2.246256 1_555
Cd0 O5 2.474219 1_556
Cd0 O2 2.626004 1_555
O0 V0 1.694200 1_555
O1 V0 1.992333 1_555
O1 V1 2.029100 1_455
O1 V1 2.029326 1_555
O2 V1 1.918374 1_555
O2 V0 2.031875 1_655
O2 V0 2.031915 1_555
O3 V0 1.879817 1_555
O4 V1 1.731183 1_555
O5 V1 1.870486 1_555
