# generated using pymatgen
data_Tm3SbO7
_symmetry_space_group_name_H-M   'P 1'
_cell_length_a   6.33181713
_cell_length_b   6.33181713
_cell_length_c   7.34878785
_cell_angle_alpha   90.00000000
_cell_angle_beta   90.00000000
_cell_angle_gamma   109.29189371
_symmetry_Int_Tables_number   1
_chemical_formula_structural   Tm3SbO7
_chemical_formula_sum   'Tm6 Sb2 O14'
_cell_volume   278.08294922
_cell_formula_units_Z   2
loop_
 _symmetry_equiv_pos_site_id
 _symmetry_equiv_pos_as_xyz
  1  'x, y, z'
loop_
 _atom_site_type_symbol
 _atom_site_label
 _atom_site_symmetry_multiplicity
 _atom_site_fract_x
 _atom_site_fract_y
 _atom_site_fract_z
 _atom_site_occupancy
  Tm  Tm0  1  0.99948466  0.46831172  0.74868505  1
  Tm  Tm1  1  0.00051534  0.53168828  0.24868505  1
  Tm  Tm2  1  0.53168828  0.00051534  0.75131495  1
  Tm  Tm3  1  0.46831172  0.99948466  0.25131495  1
  Tm  Tm4  1  0.50670619  0.50670619  0.50000000  1
  Tm  Tm5  1  0.49329381  0.49329381  0.00000000  1
  Sb  Sb0  1  -0.00002938  -0.00002938  0.50000000  1
  Sb  Sb1  1  0.00002938  0.00002938  0.00000000  1
  O  O0  1  0.63802197  0.36197803  0.75000000  1
  O  O1  1  0.36197803  0.63802197  0.25000000  1
  O  O2  1  0.92777157  0.07222843  0.75000000  1
  O  O3  1  0.07222843  0.92777157  0.25000000  1
  O  O4  1  0.92380340  0.67451784  0.53009345  1
  O  O5  1  0.07619660  0.32548216  0.03009345  1
  O  O6  1  0.32548216  0.07619660  0.96990655  1
  O  O7  1  0.67451784  0.92380340  0.46990655  1
  O  O8  1  0.36985582  0.63014418  0.75000000  1
  O  O9  1  0.63014418  0.36985582  0.25000000  1
  O  O10  1  0.93010077  0.67720639  0.96756572  1
  O  O11  1  0.06989923  0.32279361  0.46756572  1
  O  O12  1  0.32279361  0.06989923  0.53243428  1
  O  O13  1  0.67720639  0.93010077  0.03243428  1
loop_
_geom_bond_atom_site_label_1
_geom_bond_atom_site_label_2
_geom_bond_distance
_geom_bond_site_symmetry_2
O0 Tm0 2.161809 1_555
O0 Tm2 2.161809 1_555
O0 Tm5 2.325913 1_556
O0 Tm4 2.325913 1_555
O1 Tm3 2.161809 1_555
O1 Tm1 2.161809 1_555
O1 Tm5 2.325913 1_555
O1 Tm4 2.325913 1_555
O2 Sb1 1.982879 1_656
O2 Sb0 1.982879 1_655
O2 Tm2 2.396562 1_555
O2 Tm0 2.396562 1_555
O3 Sb1 1.982879 1_565
O3 Sb0 1.982879 1_565
O3 Tm3 2.396562 1_555
O3 Tm1 2.396562 1_555
O4 Sb0 1.967569 1_665
O4 Tm0 2.219970 1_555
O4 Tm1 2.370810 1_655
O4 Tm4 2.509681 1_555
O5 Sb1 1.967569 1_555
O5 Tm1 2.219970 1_555
O5 Tm0 2.370810 1_454
O5 Tm5 2.509681 1_555
O6 Sb1 1.967569 1_556
O6 Tm2 2.219970 1_555
O6 Tm3 2.370810 1_546
O6 Tm5 2.509681 1_556
O7 Sb0 1.967569 1_665
O7 Tm3 2.219970 1_555
O7 Tm2 2.370810 1_565
O7 Tm4 2.509681 1_555
O8 Tm2 2.227523 1_565
O8 Tm0 2.227523 1_455
O8 Tm5 2.276953 1_556
O8 Tm4 2.276953 1_555
O9 Tm1 2.227523 1_655
O9 Tm3 2.227523 1_545
O9 Tm5 2.276953 1_555
O9 Tm4 2.276953 1_555
O10 Sb1 1.957805 1_666
O10 Tm0 2.216699 1_555
O10 Tm1 2.363701 1_656
O10 Tm5 2.633300 1_556
O11 Sb0 1.957805 1_555
O11 Tm1 2.216699 1_555
O11 Tm0 2.363701 1_455
O11 Tm4 2.633300 1_555
O12 Sb0 1.957805 1_555
O12 Tm2 2.216699 1_555
O12 Tm3 2.363701 1_545
O12 Tm4 2.633300 1_555
O13 Sb1 1.957805 1_665
O13 Tm3 2.216699 1_555
O13 Tm2 2.363701 1_564
O13 Tm5 2.633300 1_555
