# generated using pymatgen
data_TbMnSi
_symmetry_space_group_name_H-M   'P 1'
_cell_length_a   4.11627500
_cell_length_b   7.03489600
_cell_length_c   7.58032900
_cell_angle_alpha   90.00000000
_cell_angle_beta   90.00000000
_cell_angle_gamma   90.00000000
_symmetry_Int_Tables_number   1
_chemical_formula_structural   TbMnSi
_chemical_formula_sum   'Tb4 Mn4 Si4'
_cell_volume   219.50788135
_cell_formula_units_Z   4
loop_
 _symmetry_equiv_pos_site_id
 _symmetry_equiv_pos_as_xyz
  1  'x, y, z'
loop_
 _atom_site_type_symbol
 _atom_site_label
 _atom_site_symmetry_multiplicity
 _atom_site_fract_x
 _atom_site_fract_y
 _atom_site_fract_z
 _atom_site_occupancy
  Tb  Tb0  1  0.25000000  0.50716700  0.18559700  1
  Tb  Tb1  1  0.75000000  0.49283300  0.81440300  1
  Tb  Tb2  1  0.25000000  0.00716700  0.31440300  1
  Tb  Tb3  1  0.75000000  0.99283300  0.68559700  1
  Mn  Mn0  1  0.75000000  0.86328800  0.05848600  1
  Mn  Mn1  1  0.25000000  0.13671200  0.94151400  1
  Mn  Mn2  1  0.75000000  0.36328800  0.44151400  1
  Mn  Mn3  1  0.25000000  0.63671200  0.55848600  1
  Si  Si0  1  0.25000000  0.78987200  0.89001800  1
  Si  Si1  1  0.75000000  0.21012800  0.10998200  1
  Si  Si2  1  0.25000000  0.28987200  0.60998200  1
  Si  Si3  1  0.75000000  0.71012800  0.39001800  1
loop_
_geom_bond_atom_site_label_1
_geom_bond_atom_site_label_2
_geom_bond_distance
_geom_bond_site_symmetry_2
Mn0 Si1 2.471011 1_565
Mn0 Si0 2.476593 1_654
Mn0 Si0 2.476593 1_554
Mn0 Si3 2.734357 1_555
Mn0 Tb3 2.969902 1_554
Mn0 Tb2 3.003960 1_665
Mn0 Tb2 3.003960 1_565
Mn0 Tb1 3.196118 1_554
Mn0 Tb0 3.382417 1_655
Mn0 Tb0 3.382417 1_555
Mn1 Si0 2.471011 1_545
Mn1 Si1 2.476593 1_456
Mn1 Si1 2.476593 1_556
Mn1 Si2 2.734357 1_555
Mn1 Tb2 2.969902 1_556
Mn1 Tb3 3.003960 1_545
Mn1 Tb3 3.003960 1_445
Mn1 Tb0 3.196118 1_556
Mn1 Tb1 3.382417 1_455
Mn1 Tb1 3.382417 1_555
Mn2 Si3 2.471011 1_555
Mn2 Si2 2.476593 1_655
Mn2 Si2 2.476593 1_555
Mn2 Si1 2.734357 1_555
Mn2 Tb1 2.969902 1_555
Mn2 Tb0 3.003960 1_555
Mn2 Tb0 3.003960 1_655
Mn2 Tb3 3.196118 1_545
Mn2 Tb2 3.382417 1_555
Mn2 Tb2 3.382417 1_655
Mn3 Si2 2.471011 1_555
Mn3 Si3 2.476593 1_455
Mn3 Si3 2.476593 1_555
Mn3 Si0 2.734357 1_555
Mn3 Tb0 2.969902 1_555
Mn3 Tb1 3.003960 1_555
Mn3 Tb1 3.003960 1_455
Mn3 Tb2 3.196118 1_565
Mn3 Tb3 3.382417 1_555
Mn3 Tb3 3.382417 1_455
Si0 Tb3 2.945465 1_455
Si0 Tb3 2.945465 1_555
Si0 Tb1 2.988488 1_555
Si0 Tb1 2.988488 1_455
Si0 Tb0 2.995923 1_556
Si1 Tb2 2.945465 1_555
Si1 Tb2 2.945465 1_655
Si1 Tb0 2.988488 1_655
Si1 Tb0 2.988488 1_555
Si1 Tb1 2.995923 1_554
Si2 Tb1 2.945465 1_455
Si2 Tb1 2.945465 1_555
Si2 Tb3 2.988488 1_445
Si2 Tb3 2.988488 1_545
Si2 Tb2 2.995923 1_555
Si3 Tb0 2.945465 1_655
Si3 Tb0 2.945465 1_555
Si3 Tb2 2.988488 1_665
Si3 Tb2 2.988488 1_565
Si3 Tb3 2.995923 1_555
