# generated using pymatgen
data_Na3Ta3AlSi3(PO8)3
_symmetry_space_group_name_H-M   'P 1'
_cell_length_a   8.76610331
_cell_length_b   8.79190047
_cell_length_c   22.45109009
_cell_angle_alpha   89.97260464
_cell_angle_beta   90.06555738
_cell_angle_gamma   119.90613835
_symmetry_Int_Tables_number   1
_chemical_formula_structural   Na3Ta3AlSi3(PO8)3
_chemical_formula_sum   'Na9 Ta9 Al3 Si9 P9 O72'
_cell_volume   1499.91659360
_cell_formula_units_Z   3
loop_
 _symmetry_equiv_pos_site_id
 _symmetry_equiv_pos_as_xyz
  1  'x, y, z'
loop_
 _atom_site_type_symbol
 _atom_site_label
 _atom_site_symmetry_multiplicity
 _atom_site_fract_x
 _atom_site_fract_y
 _atom_site_fract_z
 _atom_site_occupancy
  Na  Na0  1  0.63806019  0.00013067  0.24799992  1
  Na  Na1  1  0.37335236  0.36367415  0.24634858  1
  Na  Na2  1  0.70503614  0.67369128  0.41325508  1
  Na  Na3  1  0.00933313  0.00927441  0.49204449  1
  Na  Na4  1  0.00332479  0.00281422  0.99937017  1
  Na  Na5  1  0.66746915  0.33331199  0.82888074  1
  Na  Na6  1  0.67884010  0.33750158  0.33106770  1
  Na  Na7  1  0.32574790  0.66375763  0.16451913  1
  Na  Na8  1  0.33585197  0.66578569  0.66486088  1
  Ta  Ta0  1  0.00112250  0.00139370  0.85472662  1
  Ta  Ta1  1  0.99807619  0.99798225  0.64308427  1
  Ta  Ta2  1  0.99797751  0.99767322  0.14472295  1
  Ta  Ta3  1  0.66089701  0.33177181  0.97697583  1
  Ta  Ta4  1  0.66726269  0.33487016  0.47824585  1
  Ta  Ta5  1  0.33446903  0.66375204  0.02253768  1
  Ta  Ta6  1  0.33539974  0.66437353  0.52096833  1
  Ta  Ta7  1  0.33170186  0.66654738  0.31382566  1
  Ta  Ta8  1  0.33326134  0.66636995  0.81074664  1
  Al  Al0  1  0.99716888  0.99515928  0.35607021  1
  Al  Al1  1  0.66447136  0.33462214  0.68605551  1
  Al  Al2  1  0.67309523  0.34674486  0.18604675  1
  Si  Si0  1  0.71955285  0.70487236  0.25297391  1
  Si  Si1  1  0.66230724  0.61133233  0.58766090  1
  Si  Si2  1  0.38420036  0.33431107  0.08803806  1
  Si  Si3  1  0.62058182  0.66809272  0.91618064  1
  Si  Si4  1  0.04692203  0.38114022  0.91623512  1
  Si  Si5  1  0.33335257  0.95072489  0.91678160  1
  Si  Si6  1  0.62955997  0.96057672  0.41567738  1
  Si  Si7  1  0.31816459  0.36339675  0.41543381  1
  Si  Si8  1  0.04713902  0.67577428  0.41708898  1
  P  P0  1  0.28613442  0.00165473  0.25146383  1
  P  P1  1  0.99240143  0.28385532  0.25054241  1
  P  P2  1  0.29786434  0.28826562  0.74802122  1
  P  P3  1  0.99103468  0.70254062  0.74819959  1
  P  P4  1  0.71139275  0.01014360  0.74789769  1
  P  P5  1  0.94833043  0.33650180  0.58756568  1
  P  P6  1  0.38827547  0.05121787  0.58731763  1
  P  P7  1  0.94869384  0.61349885  0.08602239  1
  P  P8  1  0.66444667  0.05285331  0.08721966  1
  O  O0  1  0.19963987  0.03474377  0.30472559  1
  O  O1  1  0.83070378  0.80304477  0.31128540  1
  O  O2  1  0.96246857  0.16722010  0.30447277  1
  O  O3  1  0.20132009  0.17484820  0.80391155  1
  O  O4  1  0.97204471  0.79804175  0.80382272  1
  O  O5  1  0.82535774  0.02930694  0.80381122  1
  O  O6  1  0.80376609  0.97857692  0.69379207  1
  O  O7  1  0.17542013  0.19807788  0.69395874  1
  O  O8  1  0.02261661  0.82624936  0.69404982  1
  O  O9  1  0.80581739  0.83721471  0.19443121  1
  O  O10  1  0.03291535  0.20264552  0.19422355  1
  O  O11  1  0.17330933  0.97483929  0.19411248  1
  O  O12  1  0.86063279  0.35739145  0.64201049  1
  O  O13  1  0.49915130  0.13446748  0.64190252  1
  O  O14  1  0.63724851  0.49269777  0.64373068  1
  O  O15  1  0.86544651  0.50292120  0.14104359  1
  O  O16  1  0.64431554  0.13780232  0.14364170  1
  O  O17  1  0.49651170  0.35798558  0.14712130  1
  O  O18  1  0.47324944  0.30734508  0.02755740  1
  O  O19  1  0.84116698  0.53363288  0.02866644  1
  O  O20  1  0.69468930  0.16291076  0.03025895  1
  O  O21  1  0.46759000  0.16132818  0.52977462  1
  O  O22  1  0.69523791  0.53402293  0.52495502  1
  O  O23  1  0.83793939  0.30309165  0.52969023  1
  O  O24  1  0.53279080  0.70055196  0.97530429  1
  O  O25  1  0.16943064  0.46974734  0.97506073  1
  O  O26  1  0.30071295  0.83259335  0.97590896  1
  O  O27  1  0.52977296  0.82858155  0.47246383  1
  O  O28  1  0.29966715  0.46702772  0.47369659  1
  O  O29  1  0.16665273  0.69710293  0.47543063  1
  O  O30  1  0.13523077  0.63426321  0.35890298  1
  O  O31  1  0.50318850  0.87009794  0.35587214  1
  O  O32  1  0.36964586  0.49883235  0.35726900  1
  O  O33  1  0.13716806  0.50147854  0.85723244  1
  O  O34  1  0.36361904  0.86118319  0.85763363  1
  O  O35  1  0.49903503  0.63549915  0.85741435  1
  O  O36  1  0.02015509  0.84045278  0.40886959  1
  O  O37  1  0.81461233  0.97063185  0.40802677  1
  O  O38  1  0.15121349  0.17782982  0.40506130  1
  O  O39  1  0.02826931  0.18869068  0.90722540  1
  O  O40  1  0.16188921  0.97391864  0.90707387  1
  O  O41  1  0.81307108  0.84071106  0.90726109  1
  O  O42  1  0.97460122  0.17218662  0.59250716  1
  O  O43  1  0.20021248  0.03225783  0.59254526  1
  O  O44  1  0.83812836  0.81268088  0.59229581  1
  O  O45  1  0.96864632  0.80074814  0.09132489  1
  O  O46  1  0.82963304  0.02793986  0.09131850  1
  O  O47  1  0.18466664  0.16023193  0.09064262  1
  O  O48  1  0.69304074  0.17181530  0.74108023  1
  O  O49  1  0.47763696  0.30348908  0.74306643  1
  O  O50  1  0.83066475  0.52145291  0.74237905  1
  O  O51  1  0.68727373  0.50772089  0.24405507  1
  O  O52  1  0.82862700  0.30148752  0.24009613  1
  O  O53  1  0.47497736  0.15877921  0.24381741  1
  O  O54  1  0.64260120  0.49678961  0.92390845  1
  O  O55  1  0.85458827  0.35925952  0.92479410  1
  O  O56  1  0.50684271  0.14361319  0.92358060  1
  O  O57  1  0.63918818  0.14770139  0.42394184  1
  O  O58  1  0.50422173  0.36257326  0.42449901  1
  O  O59  1  0.85310941  0.49674086  0.42417738  1
  O  O60  1  0.35935907  0.50760134  0.07988770  1
  O  O61  1  0.13729892  0.64175870  0.07936724  1
  O  O62  1  0.50083774  0.86720252  0.08010045  1
  O  O63  1  0.35939519  0.86376283  0.57854577  1
  O  O64  1  0.49305459  0.64200295  0.57906814  1
  O  O65  1  0.13396008  0.49879514  0.57931199  1
  O  O66  1  0.30429499  0.83316485  0.25427209  1
  O  O67  1  0.51808572  0.68841464  0.25452660  1
  O  O68  1  0.16359124  0.46764242  0.25482410  1
  O  O69  1  0.31005062  0.47121185  0.75408942  1
  O  O70  1  0.16365174  0.69277896  0.75361391  1
  O  O71  1  0.52943544  0.83860727  0.75369853  1
loop_
_geom_bond_atom_site_label_1
_geom_bond_atom_site_label_2
_geom_bond_distance
_geom_bond_site_symmetry_2
Na0 O52 2.329963 1_555
Na0 O67 2.400872 1_545
Na0 O53 2.446641 1_555
Na0 O66 2.540297 1_545
Na0 O16 2.624672 1_555
Na0 O31 2.688171 1_545
Na0 O2 2.771373 1_555
Na0 O9 2.786882 1_545
Na1 O53 2.375376 1_555
Na1 O51 2.388383 1_555
Na1 O68 2.435135 1_555
Na1 O67 2.486527 1_555
Na1 O17 2.488065 1_555
Na1 O32 2.766973 1_555
Na1 O0 2.830107 1_555
Na1 O10 2.839102 1_555
Na2 O37 2.291602 1_555
Na2 O36 2.398310 1_655
Na2 O58 2.417321 1_555
Na2 O59 2.485528 1_555
Na2 O1 2.549896 1_555
Na2 O22 2.774275 1_555
Na2 O32 2.841419 1_555
Na2 O27 2.841585 1_555
Na3 O38 2.391980 1_555
Na3 O36 2.417139 1_545
Na3 O37 2.449926 1_445
Na3 O43 2.754346 1_555
Na3 O42 2.769653 1_455
Na3 O44 2.779046 1_445
Na4 O47 2.538301 1_556
Na4 O39 2.576751 1_555
Na4 O40 2.578691 1_545
Na4 O41 2.591111 1_445
Na4 O45 2.640079 1_446
Na4 O46 2.640384 1_456
Na5 O49 2.471413 1_555
Na5 O50 2.489561 1_555
Na5 O48 2.504600 1_555
Na5 O56 2.635594 1_555
Na5 O54 2.642241 1_555
Na5 O55 2.645534 1_555
Na6 O51 2.438978 1_555
Na6 O52 2.533203 1_555
Na6 O59 2.554689 1_555
Na6 O57 2.583233 1_555
Na6 O53 2.587406 1_555
Na6 O58 2.671333 1_555
Na7 O60 2.447263 1_555
Na7 O61 2.468950 1_555
Na7 O62 2.532411 1_555
Na7 O66 2.568498 1_555
Na7 O67 2.569322 1_555
Na7 O68 2.581347 1_555
Na8 O64 2.438557 1_555
Na8 O65 2.525986 1_555
Na8 O63 2.543046 1_555
Na8 O71 2.567190 1_555
Na8 O69 2.569558 1_555
Na8 O70 2.582637 1_555
Al0 O38 1.856964 1_665
Al0 O1 1.879837 1_555
Al0 O36 1.888660 1_655
Al0 O37 1.904754 1_555
Al0 O0 1.997121 1_665
Al0 O2 2.044314 1_565
Al1 O14 1.794530 1_555
Al1 O13 1.906548 1_555
Al1 O12 1.906643 1_555
Al1 O49 1.988233 1_555
Al1 O48 1.998190 1_555
Al1 O50 2.007768 1_555
Al2 O17 1.821817 1_555
Al2 O15 1.855606 1_555
Al2 O51 1.881643 1_555
Al2 O16 1.970683 1_555
Al2 O52 2.006593 1_555
Al2 O53 2.137906 1_555
O0 P0 1.520457 1_555
O1 Si0 1.602437 1_555
O2 P1 1.522382 1_555
O3 P2 1.563589 1_555
O3 Ta0 2.010283 1_555
O4 P3 1.559826 1_555
O4 Ta0 2.028384 1_665
O5 P4 1.559411 1_555
O5 Ta0 2.028213 1_655
O6 P4 1.560437 1_565
O6 Ta1 1.985198 1_555
O7 P2 1.550260 1_555
O7 Ta1 2.021630 1_445
O8 P3 1.561033 1_455
O8 Ta1 1.989193 1_455
O9 Si0 1.666318 1_555
O9 Ta2 1.925183 1_555
O10 P1 1.577787 1_455
O10 Ta2 2.006791 1_445
O11 P0 1.567340 1_565
O11 Ta2 1.983862 1_455
O12 P5 1.504000 1_555
O13 P6 1.506978 1_555
O14 Si1 1.578514 1_555
O15 P7 1.515616 1_555
O16 P8 1.525257 1_555
O17 Si2 1.601599 1_555
O18 Si2 1.642138 1_555
O18 Ta3 1.921806 1_554
O19 P7 1.542015 1_555
O19 Ta3 2.048147 1_554
O20 P8 1.544592 1_555
O20 Ta3 2.039335 1_554
O21 P6 1.555406 1_555
O21 Ta4 2.017413 1_555
O22 Si1 1.650685 1_555
O22 Ta4 1.949003 1_555
O23 P5 1.557280 1_555
O23 Ta4 2.015723 1_555
O24 Si3 1.630143 1_555
O24 Ta5 1.922144 1_556
O25 Si4 1.633382 1_555
O25 Ta5 1.917313 1_556
O26 Si5 1.620485 1_555
O26 Ta5 1.955213 1_556
O27 Si6 1.651125 1_555
O27 Ta6 1.929564 1_555
O28 Si7 1.648148 1_555
O28 Ta6 1.921958 1_555
O29 Si8 1.627769 1_555
O29 Ta6 1.933118 1_555
O30 Si8 1.649194 1_555
O30 Ta7 1.894016 1_555
O31 Si6 1.667843 1_555
O31 Ta7 1.915555 1_555
O32 Si7 1.670573 1_555
O32 Ta7 1.929546 1_555
O33 Si4 1.632918 1_555
O33 Ta8 1.914019 1_555
O34 Si5 1.632067 1_555
O34 Ta8 1.912879 1_555
O35 Si3 1.628129 1_555
O35 Ta8 1.916435 1_555
O36 Si8 1.589776 1_555
O37 Si6 1.589476 1_555
O38 Si7 1.573691 1_555
O39 Si4 1.629381 1_555
O39 Ta0 1.941115 1_555
O40 Si5 1.628843 1_555
O40 Ta0 1.939353 1_565
O41 Si3 1.624040 1_555
O41 Ta0 1.945504 1_665
O42 P5 1.576030 1_555
O42 Ta1 1.997392 1_545
O43 P6 1.576633 1_555
O43 Ta1 1.997466 1_445
O44 Si1 1.673086 1_555
O44 Ta1 1.908034 1_555
O45 P7 1.570989 1_555
O45 Ta2 2.014516 1_555
O46 P8 1.571374 1_555
O46 Ta2 2.018259 1_545
O47 Si2 1.654085 1_555
O47 Ta2 1.966124 1_445
O48 P4 1.515733 1_555
O49 P2 1.517837 1_555
O50 P3 1.515297 1_555
O51 Si0 1.623497 1_555
O52 P1 1.536648 1_555
O53 P0 1.548641 1_555
O54 Si3 1.620245 1_555
O54 Ta3 1.944227 1_555
O55 Si4 1.610550 1_655
O55 Ta3 1.977103 1_555
O56 Si5 1.624833 1_545
O56 Ta3 1.941117 1_555
O57 Si6 1.615539 1_545
O57 Ta4 1.962721 1_555
O58 Si7 1.647008 1_555
O58 Ta4 1.975092 1_555
O59 Si8 1.651260 1_655
O59 Ta4 1.960603 1_555
O60 Si2 1.653052 1_555
O60 Ta5 1.971434 1_555
O61 P7 1.551926 1_455
O61 Ta5 2.079479 1_555
O62 P8 1.553088 1_565
O62 Ta5 2.096006 1_555
O63 P6 1.550227 1_565
O63 Ta6 2.102892 1_555
O64 Si1 1.646054 1_555
O64 Ta6 1.979091 1_555
O65 P5 1.550286 1_455
O65 Ta6 2.096027 1_555
O66 P0 1.568040 1_565
O66 Ta7 2.083176 1_555
O67 Si0 1.698975 1_555
O67 Ta7 2.042157 1_555
O68 P1 1.566538 1_455
O68 Ta7 2.100600 1_555
O69 P2 1.563940 1_555
O69 Ta8 2.063203 1_555
O70 P3 1.562344 1_455
O70 Ta8 2.061411 1_555
O71 P4 1.561149 1_565
O71 Ta8 2.072992 1_555
