# generated using pymatgen
data_Ta2Si3Ge2(SO8)3
_symmetry_space_group_name_H-M   'P 1'
_cell_length_a   8.65176080
_cell_length_b   8.66871966
_cell_length_c   22.41673703
_cell_angle_alpha   88.92869185
_cell_angle_beta   90.87151507
_cell_angle_gamma   119.55120698
_symmetry_Int_Tables_number   1
_chemical_formula_structural   Ta2Si3Ge2(SO8)3
_chemical_formula_sum   'Ta6 Si9 Ge6 S9 O72'
_cell_volume   1462.25322902
_cell_formula_units_Z   3
loop_
 _symmetry_equiv_pos_site_id
 _symmetry_equiv_pos_as_xyz
  1  'x, y, z'
loop_
 _atom_site_type_symbol
 _atom_site_label
 _atom_site_symmetry_multiplicity
 _atom_site_fract_x
 _atom_site_fract_y
 _atom_site_fract_z
 _atom_site_occupancy
  Ta  Ta0  1  0.99110716  0.00971242  0.64125447  1
  Ta  Ta1  1  0.01271422  0.01494282  0.13868362  1
  Ta  Ta2  1  0.65676959  0.33456115  0.97405654  1
  Ta  Ta3  1  0.67559399  0.33362566  0.47792481  1
  Ta  Ta4  1  0.33145539  0.66783395  0.30872949  1
  Ta  Ta5  1  0.34492385  0.67730589  0.80521167  1
  Si  Si0  1  0.98177225  0.28152272  0.24885768  1
  Si  Si1  1  0.30047780  0.28457598  0.74830612  1
  Si  Si2  1  0.73183228  0.02035749  0.75211053  1
  Si  Si3  1  0.96673674  0.35838097  0.58558881  1
  Si  Si4  1  0.66886546  0.61225196  0.58576631  1
  Si  Si5  1  0.95615001  0.61750382  0.08208837  1
  Si  Si6  1  0.39875166  0.35719519  0.08390054  1
  Si  Si7  1  0.31577498  0.94096592  0.91656658  1
  Si  Si8  1  0.61483444  0.94329453  0.41953277  1
  Ge  Ge0  1  0.97638109  0.00877381  0.35715490  1
  Ge  Ge1  1  0.02704015  0.01933149  0.84882616  1
  Ge  Ge2  1  0.67574143  0.34174572  0.69077605  1
  Ge  Ge3  1  0.68754708  0.34989345  0.18162949  1
  Ge  Ge4  1  0.30693815  0.65672005  0.02261376  1
  Ge  Ge5  1  0.35773012  0.67764699  0.53207638  1
  S  S0  1  0.28747523  0.00978020  0.25158555  1
  S  S1  1  0.71778503  0.71069097  0.25099147  1
  S  S2  1  0.99303327  0.71192229  0.75069524  1
  S  S3  1  0.38166736  0.04330894  0.58330300  1
  S  S4  1  0.65669078  0.04243341  0.08324981  1
  S  S5  1  0.62438894  0.67910751  0.91703298  1
  S  S6  1  0.04862541  0.37432446  0.91693838  1
  S  S7  1  0.32236867  0.36949599  0.41615409  1
  S  S8  1  0.04794911  0.67899282  0.41477545  1
  O  O0  1  0.20405379  0.03113161  0.30516182  1
  O  O1  1  0.82775725  0.78778960  0.30583146  1
  O  O2  1  0.95740066  0.16096561  0.30895664  1
  O  O3  1  0.21685210  0.16511104  0.80883003  1
  O  O4  1  0.96375172  0.78988949  0.80470847  1
  O  O5  1  0.84739030  0.03397868  0.81257725  1
  O  O6  1  0.80592513  0.96799992  0.69339637  1
  O  O7  1  0.16788094  0.18914041  0.69192226  1
  O  O8  1  0.03217973  0.82289712  0.69697447  1
  O  O9  1  0.79248965  0.82407193  0.19805141  1
  O  O10  1  0.02175594  0.18952875  0.19312941  1
  O  O11  1  0.17121763  0.96939407  0.19759060  1
  O  O12  1  0.86853550  0.37788794  0.64256572  1
  O  O13  1  0.49335756  0.11492528  0.63614360  1
  O  O14  1  0.63091003  0.48424730  0.64261170  1
  O  O15  1  0.87747022  0.49778257  0.14235328  1
  O  O16  1  0.62659203  0.12051744  0.13737463  1
  O  O17  1  0.51114695  0.36982729  0.14521219  1
  O  O18  1  0.47605893  0.30498701  0.02662270  1
  O  O19  1  0.83059711  0.52436502  0.02457929  1
  O  O20  1  0.69885496  0.15860374  0.03009665  1
  O  O21  1  0.46089312  0.15602258  0.52810733  1
  O  O22  1  0.68824199  0.52075183  0.52426360  1
  O  O23  1  0.83648615  0.30752716  0.52523285  1
  O  O24  1  0.54149367  0.69938183  0.97071628  1
  O  O25  1  0.15915908  0.44941395  0.97235498  1
  O  O26  1  0.29853629  0.82188850  0.97656015  1
  O  O27  1  0.51047865  0.81469424  0.47578107  1
  O  O28  1  0.28618069  0.44299154  0.46844383  1
  O  O29  1  0.15374163  0.70652221  0.46815157  1
  O  O30  1  0.12802773  0.64208777  0.36116262  1
  O  O31  1  0.49491589  0.85097877  0.35940229  1
  O  O32  1  0.35111215  0.48521181  0.36166060  1
  O  O33  1  0.12679345  0.48894331  0.86454857  1
  O  O34  1  0.35213140  0.85014321  0.85990288  1
  O  O35  1  0.50718851  0.63775084  0.86353741  1
  O  O36  1  0.03121594  0.83948575  0.40244475  1
  O  O37  1  0.81050283  0.96083790  0.41034440  1
  O  O38  1  0.16846761  0.18817543  0.40562660  1
  O  O39  1  0.02735353  0.19614765  0.91098867  1
  O  O40  1  0.13999358  0.96271748  0.90616964  1
  O  O41  1  0.80068239  0.82888424  0.90851286  1
  O  O42  1  0.98431922  0.17924437  0.58999240  1
  O  O43  1  0.20425951  0.02371864  0.58882058  1
  O  O44  1  0.84650778  0.80403023  0.59290040  1
  O  O45  1  0.97002949  0.80932181  0.09620988  1
  O  O46  1  0.82109395  0.02609964  0.09211854  1
  O  O47  1  0.20174685  0.17899470  0.09371276  1
  O  O48  1  0.70420728  0.18646226  0.73901979  1
  O  O49  1  0.49414000  0.31049945  0.73839253  1
  O  O50  1  0.83803065  0.53452832  0.74536603  1
  O  O51  1  0.69221370  0.53113937  0.24482808  1
  O  O52  1  0.80313267  0.29703127  0.23827057  1
  O  O53  1  0.46400621  0.15940432  0.24238791  1
  O  O54  1  0.63847123  0.51059414  0.92235087  1
  O  O55  1  0.87038022  0.35852064  0.92579831  1
  O  O56  1  0.49435874  0.13582059  0.92796078  1
  O  O57  1  0.63435531  0.13824112  0.42639797  1
  O  O58  1  0.48527906  0.35601806  0.42112691  1
  O  O59  1  0.86811674  0.51759160  0.41995357  1
  O  O60  1  0.37457448  0.52580664  0.06822334  1
  O  O61  1  0.15161203  0.64173360  0.07555354  1
  O  O62  1  0.50656708  0.86570867  0.07540641  1
  O  O63  1  0.35998814  0.86461567  0.57394422  1
  O  O64  1  0.49578781  0.63693664  0.57812518  1
  O  O65  1  0.15369677  0.52834951  0.56607841  1
  O  O66  1  0.30129359  0.84209104  0.25843544  1
  O  O67  1  0.53581386  0.69305642  0.25944021  1
  O  O68  1  0.15701776  0.47597238  0.26190923  1
  O  O69  1  0.30615772  0.47344311  0.76252615  1
  O  O70  1  0.15342792  0.68933246  0.75890264  1
  O  O71  1  0.53451820  0.84189494  0.76086340  1
loop_
_geom_bond_atom_site_label_1
_geom_bond_atom_site_label_2
_geom_bond_distance
_geom_bond_site_symmetry_2
Ge0 O2 1.757814 1_555
Ge0 O37 1.760465 1_545
Ge0 O38 1.954475 1_655
Ge0 O36 2.006434 1_645
Ge0 O1 2.062633 1_545
Ge0 O0 2.227285 1_655
Ge1 O3 1.747297 1_555
Ge1 O5 1.801280 1_455
Ge1 O40 1.805418 1_545
Ge1 O4 2.053461 1_445
Ge1 O39 2.089697 1_555
Ge1 O41 2.271338 1_445
Ge2 O14 1.803375 1_555
Ge2 O49 1.817064 1_555
Ge2 O48 1.818435 1_555
Ge2 O12 1.890780 1_555
Ge2 O50 1.992847 1_555
Ge2 O13 2.196972 1_555
Ge3 O15 1.744312 1_555
Ge3 O52 1.792716 1_555
Ge3 O17 1.800683 1_555
Ge3 O16 2.059002 1_555
Ge3 O51 2.120420 1_555
Ge3 O53 2.273344 1_555
Ge4 O61 1.761159 1_555
Ge4 O26 1.779391 1_554
Ge4 O60 1.808071 1_555
Ge4 O25 1.974581 1_554
Ge4 O62 2.144111 1_555
Ge4 O24 2.218960 1_554
Ge5 O64 1.726693 1_555
Ge5 O65 1.767078 1_555
Ge5 O27 1.787850 1_555
Ge5 O63 1.879696 1_555
Ge5 O28 2.322775 1_555
Ge5 O29 2.361407 1_555
O0 S0 1.471066 1_555
O1 S1 1.493687 1_555
O2 Si0 1.640208 1_555
O3 Si1 1.635529 1_555
O4 S2 1.481841 1_555
O5 Si2 1.642896 1_555
O6 Si2 1.638368 1_565
O6 Ta0 1.879777 1_565
O7 Si1 1.629987 1_555
O7 Ta0 1.927472 1_455
O8 S2 1.462215 1_455
O8 Ta0 2.188047 1_465
O9 S1 1.464660 1_555
O9 Ta1 2.241475 1_665
O10 Si0 1.624425 1_455
O10 Ta1 1.932772 1_555
O11 S0 1.493577 1_565
O11 Ta1 2.059056 1_565
O12 Si3 1.601429 1_555
O13 S3 1.457116 1_555
O14 Si4 1.601051 1_555
O15 Si5 1.626099 1_555
O16 S4 1.487374 1_555
O17 Si6 1.645149 1_555
O18 Si6 1.627032 1_555
O18 Ta2 1.883629 1_554
O19 Si5 1.620183 1_555
O19 Ta2 1.956700 1_554
O20 S4 1.474084 1_555
O20 Ta2 2.121225 1_554
O21 S3 1.508448 1_555
O21 Ta3 2.064970 1_555
O22 Si4 1.654426 1_555
O22 Ta3 1.899162 1_555
O23 Si3 1.667542 1_555
O23 Ta3 1.835827 1_555
O24 S5 1.466946 1_555
O25 S6 1.503835 1_555
O26 Si7 1.642790 1_555
O27 Si8 1.623903 1_555
O28 S7 1.453877 1_555
O29 S8 1.445084 1_555
O30 S8 1.511646 1_555
O30 Ta4 2.048074 1_555
O31 Si8 1.646984 1_555
O31 Ta4 1.901247 1_555
O32 S7 1.509189 1_555
O32 Ta4 2.032782 1_555
O33 S6 1.463402 1_555
O33 Ta5 2.225437 1_555
O34 Si7 1.620520 1_555
O34 Ta5 1.930285 1_555
O35 S5 1.488382 1_555
O35 Ta5 2.049428 1_555
O36 S8 1.488647 1_555
O37 Si8 1.639167 1_555
O38 S7 1.496364 1_555
O39 S6 1.471020 1_555
O40 Si7 1.634993 1_555
O41 S5 1.447346 1_555
O42 Si3 1.634368 1_555
O42 Ta0 1.871810 1_555
O43 S3 1.465572 1_555
O43 Ta0 2.153347 1_455
O44 Si4 1.622847 1_555
O44 Ta0 1.936456 1_565
O45 Si5 1.643519 1_555
O45 Ta1 1.903569 1_665
O46 S4 1.507227 1_555
O46 Ta1 1.987251 1_655
O47 Si6 1.655700 1_555
O47 Ta1 1.848183 1_555
O48 Si2 1.593150 1_555
O49 Si1 1.595400 1_555
O50 S2 1.464665 1_555
O51 S1 1.469052 1_555
O52 Si0 1.629638 1_555
O53 S0 1.450184 1_555
O54 S5 1.526952 1_555
O54 Ta2 1.965631 1_555
O55 S6 1.495425 1_655
O55 Ta2 2.074296 1_555
O56 Si7 1.653918 1_545
O56 Ta2 1.909135 1_555
O57 Si8 1.623422 1_545
O57 Ta3 1.948008 1_555
O58 S7 1.473034 1_555
O58 Ta3 2.147602 1_555
O59 S8 1.497977 1_655
O59 Ta3 2.091549 1_555
O60 Si6 1.607422 1_555
O61 Si5 1.606668 1_455
O62 S4 1.450943 1_565
O63 S3 1.484280 1_565
O64 Si4 1.619973 1_555
O65 Si3 1.620239 1_455
O66 S0 1.521016 1_565
O66 Ta4 1.984253 1_555
O67 S1 1.519365 1_555
O67 Ta4 2.015869 1_555
O68 Si0 1.646126 1_455
O68 Ta4 1.920049 1_555
O69 Si1 1.650529 1_555
O69 Ta5 1.902629 1_555
O70 S2 1.502276 1_455
O70 Ta5 1.986816 1_555
O71 Si2 1.655249 1_565
O71 Ta5 1.844639 1_555
