# generated using pymatgen
data_Na2In4Si3Sn4(S3O16)3
_symmetry_space_group_name_H-M   'P 1'
_cell_length_a   17.70624940
_cell_length_b   8.86947788
_cell_length_c   23.25029477
_cell_angle_alpha   89.76888848
_cell_angle_beta   89.76650873
_cell_angle_gamma   120.12641072
_symmetry_Int_Tables_number   1
_chemical_formula_structural   Na2In4Si3Sn4(S3O16)3
_chemical_formula_sum   'Na6 In12 Si9 Sn12 S27 O144'
_cell_volume   3158.01929582
_cell_formula_units_Z   3
loop_
 _symmetry_equiv_pos_site_id
 _symmetry_equiv_pos_as_xyz
  1  'x, y, z'
loop_
 _atom_site_type_symbol
 _atom_site_label
 _atom_site_symmetry_multiplicity
 _atom_site_fract_x
 _atom_site_fract_y
 _atom_site_fract_z
 _atom_site_occupancy
  Na  Na0  1  0.99241898  0.01389190  0.50150721  1
  Na  Na1  1  0.49459225  0.97757930  0.00648494  1
  Na  Na2  1  0.32603501  0.31352202  0.84180265  1
  Na  Na3  1  0.82287022  0.32881759  0.83035856  1
  Na  Na4  1  0.32743201  0.32122946  0.32785684  1
  Na  Na5  1  0.81275033  0.31970585  0.33483540  1
  In  In0  1  0.00569210  0.00192884  0.34854961  1
  In  In1  1  0.50577800  0.00963776  0.84959924  1
  In  In2  1  0.99968995  0.01384981  0.64705690  1
  In  In3  1  0.50313012  0.97896038  0.14952655  1
  In  In4  1  0.32767306  0.32676673  0.98396334  1
  In  In5  1  0.83845665  0.33833918  0.98564273  1
  In  In6  1  0.33811531  0.33432657  0.48270093  1
  In  In7  1  0.82794601  0.32763575  0.48057978  1
  In  In8  1  0.16321653  0.67211600  0.30747283  1
  In  In9  1  0.66755775  0.66222496  0.31164221  1
  In  In10  1  0.16864250  0.68164082  0.81587683  1
  In  In11  1  0.66223762  0.65301506  0.80834673  1
  Si  Si0  1  0.15260046  0.01495055  0.25009602  1
  Si  Si1  1  0.65254910  0.00221114  0.24976130  1
  Si  Si2  1  0.65296507  0.29159241  0.74983380  1
  Si  Si3  1  0.48106134  0.33426239  0.58307336  1
  Si  Si4  1  0.97837180  0.33595107  0.58063901  1
  Si  Si5  1  0.47602110  0.62345581  0.07947485  1
  Si  Si6  1  0.97699722  0.62397692  0.08418567  1
  Si  Si7  1  0.17067210  0.96765781  0.91462932  1
  Si  Si8  1  0.66870587  0.37625120  0.41444259  1
  Sn  Sn0  1  0.51384877  0.02151466  0.35270395  1
  Sn  Sn1  1  0.00365520  0.99438107  0.85581279  1
  Sn  Sn2  1  0.50547138  0.01983603  0.64625116  1
  Sn  Sn3  1  0.00499893  0.99106911  0.14719925  1
  Sn  Sn4  1  0.33618015  0.33619020  0.68047678  1
  Sn  Sn5  1  0.83306935  0.33344614  0.68059028  1
  Sn  Sn6  1  0.33532218  0.33667814  0.18309937  1
  Sn  Sn7  1  0.83086769  0.32822526  0.18400506  1
  Sn  Sn8  1  0.15864170  0.67526092  0.02256942  1
  Sn  Sn9  1  0.66265174  0.66609636  0.02305622  1
  Sn  Sn10  1  0.16445223  0.66292659  0.52045308  1
  Sn  Sn11  1  0.65959690  0.64884713  0.51775986  1
  S  S0  1  0.35661892  0.70652798  0.25456064  1
  S  S1  1  0.85473544  0.70529233  0.24806942  1
  S  S2  1  0.99657638  0.28465934  0.24846007  1
  S  S3  1  0.49459176  0.28217838  0.24853207  1
  S  S4  1  0.15237374  0.29856630  0.75020139  1
  S  S5  1  0.99806750  0.70874339  0.74899631  1
  S  S6  1  0.49208427  0.70274795  0.74837028  1
  S  S7  1  0.35121843  0.00187725  0.74781235  1
  S  S8  1  0.85877424  0.00851925  0.75484716  1
  S  S9  1  0.18634639  0.03775414  0.58218375  1
  S  S10  1  0.68314265  0.02574209  0.58330627  1
  S  S11  1  0.33313439  0.63223404  0.58513399  1
  S  S12  1  0.83270537  0.63262819  0.58253767  1
  S  S13  1  0.33414884  0.03324183  0.08377348  1
  S  S14  1  0.83456260  0.03287636  0.08388309  1
  S  S15  1  0.18268677  0.33950376  0.08308564  1
  S  S16  1  0.68473679  0.33470060  0.07977283  1
  S  S17  1  0.31460957  0.67391816  0.91598133  1
  S  S18  1  0.81015388  0.66728798  0.91677711  1
  S  S19  1  0.01753740  0.36628123  0.91371455  1
  S  S20  1  0.52201642  0.37307983  0.91761753  1
  S  S21  1  0.66858030  0.95884814  0.91696589  1
  S  S22  1  0.31114459  0.95125488  0.41657942  1
  S  S23  1  0.81691519  0.95658240  0.41776494  1
  S  S24  1  0.16778912  0.37608403  0.41786114  1
  S  S25  1  0.02290396  0.67245875  0.41752131  1
  S  S26  1  0.51641672  0.66982433  0.41531886  1
  O  O0  1  0.11919333  0.06234523  0.30931185  1
  O  O1  1  0.61324324  0.04848304  0.30754370  1
  O  O2  1  0.41192769  0.79524646  0.30593588  1
  O  O3  1  0.90610984  0.78011555  0.30143779  1
  O  O4  1  0.47518064  0.16916403  0.30175601  1
  O  O5  1  0.97753039  0.17735381  0.30166876  1
  O  O6  1  0.11274788  0.18441713  0.80204560  1
  O  O7  1  0.61862122  0.17422578  0.80873690  1
  O  O8  1  0.47465400  0.77450282  0.80086114  1
  O  O9  1  0.98185899  0.78683606  0.80209402  1
  O  O10  1  0.40288797  0.03366163  0.80088072  1
  O  O11  1  0.91574315  0.03495917  0.80663015  1
  O  O12  1  0.39600798  0.98494878  0.69643987  1
  O  O13  1  0.89551816  0.97491429  0.70298506  1
  O  O14  1  0.10129464  0.22086926  0.69816090  1
  O  O15  1  0.59346907  0.19778184  0.69387439  1
  O  O16  1  0.01025084  0.81701532  0.69790997  1
  O  O17  1  0.49899891  0.80369819  0.69573605  1
  O  O18  1  0.39011753  0.80979702  0.20141322  1
  O  O19  1  0.89818221  0.81877123  0.19700853  1
  O  O20  1  0.00327201  0.19569511  0.19641964  1
  O  O21  1  0.50009198  0.19494533  0.19652244  1
  O  O22  1  0.09447187  0.99087860  0.19354411  1
  O  O23  1  0.60119742  0.98081175  0.19104434  1
  O  O24  1  0.44083970  0.37362939  0.64245631  1
  O  O25  1  0.93664875  0.36420943  0.64154017  1
  O  O26  1  0.23821538  0.11810117  0.63570842  1
  O  O27  1  0.73700109  0.10307507  0.63641785  1
  O  O28  1  0.30751283  0.51046137  0.63670057  1
  O  O29  1  0.81485659  0.52245331  0.63597073  1
  O  O30  1  0.43370251  0.50764996  0.13895044  1
  O  O31  1  0.93044211  0.49515013  0.13995232  1
  O  O32  1  0.31502482  0.11198739  0.13444737  1
  O  O33  1  0.81137670  0.10826563  0.13306377  1
  O  O34  1  0.23752313  0.36835027  0.13468540  1
  O  O35  1  0.73743354  0.35640468  0.13162179  1
  O  O36  1  0.21489076  0.29079656  0.03233014  1
  O  O37  1  0.72016913  0.29482568  0.02753750  1
  O  O38  1  0.42047956  0.53661241  0.02236953  1
  O  O39  1  0.92388184  0.55342613  0.02476639  1
  O  O40  1  0.34632344  0.13326158  0.03032399  1
  O  O41  1  0.84961096  0.13379894  0.02997459  1
  O  O42  1  0.22223306  0.15225966  0.53147044  1
  O  O43  1  0.71684856  0.14295755  0.53404325  1
  O  O44  1  0.34827711  0.55649386  0.53376778  1
  O  O45  1  0.84518832  0.55204895  0.53172211  1
  O  O46  1  0.41967248  0.29329809  0.52818830  1
  O  O47  1  0.91801313  0.30377441  0.52590291  1
  O  O48  1  0.26983853  0.68772134  0.96827339  1
  O  O49  1  0.76975470  0.68871712  0.97036796  1
  O  O50  1  0.07071623  0.44446425  0.96563398  1
  O  O51  1  0.57782132  0.45698727  0.96910448  1
  O  O52  1  0.15485629  0.84505256  0.97125117  1
  O  O53  1  0.66220341  0.85656546  0.97006995  1
  O  O54  1  0.27224885  0.84971915  0.47239463  1
  O  O55  1  0.77343830  0.85713737  0.47242512  1
  O  O56  1  0.16018910  0.46177234  0.47198568  1
  O  O57  1  0.65670086  0.46137038  0.47425232  1
  O  O58  1  0.07757652  0.70185564  0.47066630  1
  O  O59  1  0.56762473  0.69731117  0.46941753  1
  O  O60  1  0.06528709  0.65256915  0.36640345  1
  O  O61  1  0.55777117  0.64462629  0.36525753  1
  O  O62  1  0.25447881  0.86346794  0.36805269  1
  O  O63  1  0.76680367  0.87402949  0.36660035  1
  O  O64  1  0.17724043  0.47828002  0.36617975  1
  O  O65  1  0.68498350  0.48985947  0.35691776  1
  O  O66  1  0.05748379  0.46942907  0.86073132  1
  O  O67  1  0.56236730  0.47564551  0.86490729  1
  O  O68  1  0.18850023  0.89910003  0.85452025  1
  O  O69  1  0.67810186  0.87762008  0.86442782  1
  O  O70  1  0.26428584  0.65092869  0.86259778  1
  O  O71  1  0.75789542  0.64710549  0.86572327  1
  O  O72  1  0.01443004  0.83100051  0.41472035  1
  O  O73  1  0.50443974  0.82385481  0.41001760  1
  O  O74  1  0.39736894  0.96484803  0.41011723  1
  O  O75  1  0.90502130  0.96824080  0.41582265  1
  O  O76  1  0.08673126  0.20252255  0.41767894  1
  O  O77  1  0.57521984  0.18957140  0.41317816  1
  O  O78  1  0.00721916  0.18911030  0.90794071  1
  O  O79  1  0.51411795  0.19767525  0.91499848  1
  O  O80  1  0.07930695  0.97537716  0.91057756  1
  O  O81  1  0.58693589  0.96804084  0.91676531  1
  O  O82  1  0.40201534  0.83977200  0.91212921  1
  O  O83  1  0.89753088  0.82950387  0.91133036  1
  O  O84  1  0.48585763  0.15559348  0.58969956  1
  O  O85  1  0.99272958  0.16761034  0.58559754  1
  O  O86  1  0.09608952  0.00085863  0.58991920  1
  O  O87  1  0.59129339  0.98343998  0.59357432  1
  O  O88  1  0.41297369  0.79820735  0.59779306  1
  O  O89  1  0.91434660  0.80287295  0.58973756  1
  O  O90  1  0.48592029  0.81535338  0.08229227  1
  O  O91  1  0.98605410  0.81488806  0.09093783  1
  O  O92  1  0.41415006  0.02477313  0.09204915  1
  O  O93  1  0.91396490  0.02495506  0.09544678  1
  O  O94  1  0.09103228  0.19893673  0.09289825  1
  O  O95  1  0.59368287  0.19568801  0.08594196  1
  O  O96  1  0.33887817  0.15834512  0.74190197  1
  O  O97  1  0.85617482  0.17293656  0.74960276  1
  O  O98  1  0.24127392  0.31300675  0.74360785  1
  O  O99  1  0.75047893  0.30653409  0.74120284  1
  O  O100  1  0.41239155  0.52232320  0.74412709  1
  O  O101  1  0.91761739  0.53450267  0.74509023  1
  O  O102  1  0.35501339  0.53657176  0.24950334  1
  O  O103  1  0.85071308  0.53360818  0.24175902  1
  O  O104  1  0.41531598  0.30326881  0.24604489  1
  O  O105  1  0.92079999  0.31262899  0.24311126  1
  O  O106  1  0.24949197  0.19450543  0.24135787  1
  O  O107  1  0.75002218  0.18651438  0.24466841  1
  O  O108  1  0.32783434  0.52292852  0.91886103  1
  O  O109  1  0.82039087  0.51111922  0.92028657  1
  O  O110  1  0.43577792  0.35671389  0.92231687  1
  O  O111  1  0.92858853  0.34409859  0.91817158  1
  O  O112  1  0.25412080  0.16280727  0.92097326  1
  O  O113  1  0.74732063  0.13613928  0.92188667  1
  O  O114  1  0.31870059  0.12593199  0.42085131  1
  O  O115  1  0.82977476  0.13437398  0.42053738  1
  O  O116  1  0.24655932  0.35701797  0.42315703  1
  O  O117  1  0.75372599  0.34947012  0.41888769  1
  O  O118  1  0.42696202  0.51227643  0.41989694  1
  O  O119  1  0.93717236  0.51513688  0.42266161  1
  O  O120  1  0.18251982  0.50490602  0.07296112  1
  O  O121  1  0.68904800  0.50649451  0.07293503  1
  O  O122  1  0.07133479  0.62969902  0.08146248  1
  O  O123  1  0.57325033  0.63890635  0.07665522  1
  O  O124  1  0.25811818  0.85233368  0.07849950  1
  O  O125  1  0.75932646  0.85254843  0.07656941  1
  O  O126  1  0.18739031  0.87278581  0.57508355  1
  O  O127  1  0.68219138  0.86003517  0.57354202  1
  O  O128  1  0.25873841  0.66308708  0.57771250  1
  O  O129  1  0.75807814  0.66301037  0.57707829  1
  O  O130  1  0.07575155  0.51414985  0.57626005  1
  O  O131  1  0.57511442  0.51341801  0.57831898  1
  O  O132  1  0.16234579  0.84466820  0.25324940  1
  O  O133  1  0.66611215  0.83896726  0.25952427  1
  O  O134  1  0.26703793  0.66981182  0.26272168  1
  O  O135  1  0.76810252  0.68248139  0.25007690  1
  O  O136  1  0.07830154  0.45191282  0.25343270  1
  O  O137  1  0.57247652  0.45145759  0.25458728  1
  O  O138  1  0.16379387  0.47265543  0.75905773  1
  O  O139  1  0.66386964  0.48250674  0.75340273  1
  O  O140  1  0.07479916  0.68853576  0.75573722  1
  O  O141  1  0.57128610  0.69009270  0.75338504  1
  O  O142  1  0.26534818  0.84253789  0.75033931  1
  O  O143  1  0.77105433  0.86142930  0.76353031  1
loop_
_geom_bond_atom_site_label_1
_geom_bond_atom_site_label_2
_geom_bond_distance
_geom_bond_site_symmetry_2
Na0 O85 2.386519 1_555
Na0 O75 2.435189 1_545
Na0 O76 2.555210 1_655
Na0 O89 2.640238 1_545
Na0 O72 2.740343 1_645
Na0 O86 2.801821 1_655
Na1 O90 2.226209 1_555
Na1 O92 2.596866 1_565
Na1 O95 2.623301 1_565
Na1 O82 2.652056 1_554
Na1 O81 2.672917 1_554
Na1 O79 2.781706 1_564
Na2 O112 2.247005 1_555
Na2 O108 2.574592 1_555
Na2 O110 2.591338 1_555
Na2 O98 2.736038 1_555
Na2 O96 2.770688 1_555
Na2 O100 2.832020 1_555
Na3 O99 2.397828 1_555
Na3 O97 2.571962 1_555
Na3 O113 2.625119 1_555
Na3 O101 2.635227 1_555
Na3 O109 2.661917 1_555
Na3 O111 2.733029 1_555
Na4 O106 2.386680 1_555
Na4 O102 2.496718 1_555
Na4 O104 2.508415 1_555
Na4 O114 2.719835 1_555
Na4 O116 2.738049 1_555
Na4 O118 2.760219 1_555
Na5 O117 2.290295 1_555
Na5 O107 2.397073 1_555
Na5 O115 2.690584 1_555
Na5 O103 2.721988 1_555
Na5 O119 2.873958 1_555
Na5 O105 2.881060 1_555
In0 O0 2.014529 1_555
In0 O5 2.151091 1_455
In0 O3 2.174924 1_445
In0 O72 2.215368 1_545
In0 O75 2.269786 1_445
In0 O76 2.299324 1_555
In1 O7 2.017732 1_555
In1 O8 2.192636 1_545
In1 O79 2.211445 1_555
In1 O82 2.222834 1_545
In1 O10 2.247652 1_555
In1 O81 2.277196 1_545
In2 O85 2.017770 1_555
In2 O13 2.133010 1_545
In2 O14 2.176896 1_655
In2 O89 2.181554 1_545
In2 O16 2.189441 1_645
In2 O86 2.207194 1_655
In3 O23 1.983013 1_555
In3 O90 2.054392 1_555
In3 O18 2.159300 1_555
In3 O21 2.233042 1_565
In3 O92 2.255793 1_565
In3 O95 2.305492 1_565
In4 O38 1.979148 1_556
In4 O112 2.021717 1_555
In4 O36 2.166440 1_556
In4 O40 2.184828 1_556
In4 O110 2.291942 1_555
In4 O108 2.300425 1_555
In5 O39 1.970609 1_556
In5 O37 2.157153 1_556
In5 O41 2.176889 1_556
In5 O111 2.215290 1_555
In5 O113 2.270138 1_555
In5 O109 2.288463 1_555
In6 O46 1.968025 1_555
In6 O118 2.137375 1_555
In6 O42 2.178007 1_555
In6 O116 2.220061 1_555
In6 O44 2.233767 1_555
In6 O114 2.233861 1_555
In7 O47 2.012253 1_555
In7 O117 2.022497 1_555
In7 O43 2.197032 1_555
In7 O45 2.209291 1_555
In7 O115 2.227728 1_555
In7 O119 2.247555 1_555
In8 O132 1.984988 1_555
In8 O134 2.117689 1_555
In8 O60 2.142653 1_555
In8 O136 2.177445 1_555
In8 O62 2.181823 1_555
In8 O64 2.300619 1_555
In9 O133 1.987869 1_555
In9 O65 2.000921 1_555
In9 O135 2.215100 1_555
In9 O137 2.228821 1_555
In9 O63 2.230188 1_555
In9 O61 2.243030 1_555
In10 O68 1.996687 1_555
In10 O70 2.144239 1_555
In10 O66 2.180103 1_555
In10 O142 2.190581 1_555
In10 O140 2.200021 1_555
In10 O138 2.247067 1_555
In11 O139 1.994747 1_555
In11 O67 2.122043 1_555
In11 O143 2.146622 1_555
In11 O71 2.181304 1_555
In11 O141 2.208968 1_555
In11 O69 2.282513 1_555
O0 Si0 1.633943 1_555
O1 Si1 1.655662 1_555
O1 Sn0 1.953790 1_555
O2 S0 1.499537 1_555
O2 Sn0 2.205616 1_565
O3 S1 1.489093 1_555
O4 S3 1.514901 1_555
O4 Sn0 2.116852 1_555
O5 S2 1.488260 1_555
O6 S4 1.496825 1_555
O6 Sn1 2.197726 1_545
O7 Si2 1.635625 1_555
O8 S6 1.479898 1_555
O9 S5 1.513192 1_555
O9 Sn1 2.099244 1_655
O10 S7 1.480532 1_555
O11 S8 1.515502 1_555
O11 Sn1 2.105632 1_645
O12 S7 1.480334 1_565
O12 Sn2 2.142569 1_565
O13 S8 1.468759 1_565
O14 S4 1.465221 1_555
O15 Si2 1.623234 1_555
O15 Sn2 1.924663 1_555
O16 S5 1.469797 1_455
O17 S6 1.481276 1_555
O17 Sn2 2.184599 1_565
O18 S0 1.468755 1_555
O19 S1 1.489936 1_555
O19 Sn3 2.078498 1_655
O20 S2 1.483614 1_455
O20 Sn3 2.162566 1_545
O21 S3 1.467174 1_555
O22 Si0 1.620633 1_565
O22 Sn3 1.920273 1_555
O23 Si1 1.601705 1_565
O24 Si3 1.667589 1_555
O24 Sn4 1.921550 1_555
O25 Si4 1.671454 1_555
O25 Sn5 1.935058 1_555
O26 S9 1.503161 1_555
O26 Sn4 2.120553 1_555
O27 S10 1.504855 1_555
O27 Sn5 2.159962 1_555
O28 S11 1.517583 1_555
O28 Sn4 2.112309 1_555
O29 S12 1.508370 1_555
O29 Sn5 2.126474 1_555
O30 Si5 1.654144 1_555
O30 Sn6 1.925833 1_555
O31 Si6 1.643197 1_555
O31 Sn7 1.924136 1_555
O32 S13 1.493778 1_555
O32 Sn6 2.163992 1_555
O33 S14 1.483598 1_555
O33 Sn7 2.161975 1_555
O34 S15 1.486641 1_555
O34 Sn6 2.201419 1_555
O35 S16 1.480418 1_555
O35 Sn7 2.170664 1_555
O36 S15 1.466379 1_555
O37 S16 1.487832 1_555
O38 Si5 1.606788 1_555
O39 Si6 1.616000 1_555
O40 S13 1.474706 1_555
O41 S14 1.480556 1_555
O42 S9 1.470346 1_555
O43 S10 1.452898 1_555
O44 S11 1.460870 1_555
O45 S12 1.455604 1_555
O46 Si3 1.600165 1_555
O47 Si4 1.597203 1_555
O48 S17 1.487399 1_555
O48 Sn8 2.289659 1_556
O49 S18 1.493804 1_555
O49 Sn9 2.175861 1_556
O50 S19 1.478256 1_555
O50 Sn8 2.281679 1_556
O51 S20 1.497287 1_555
O51 Sn9 2.123006 1_556
O52 Si7 1.635182 1_555
O52 Sn8 1.945132 1_556
O53 S21 1.499067 1_555
O53 Sn9 2.090083 1_556
O54 S22 1.526468 1_555
O54 Sn10 2.104708 1_555
O55 S23 1.512308 1_555
O55 Sn11 2.194527 1_555
O56 S24 1.512720 1_555
O56 Sn10 2.083366 1_555
O57 Si8 1.648046 1_555
O57 Sn11 1.928539 1_555
O58 S25 1.513564 1_555
O58 Sn10 2.090404 1_555
O59 S26 1.501168 1_555
O59 Sn11 2.194024 1_555
O60 S25 1.460873 1_555
O61 S26 1.449240 1_555
O62 S22 1.455343 1_555
O63 S23 1.449828 1_555
O64 S24 1.459719 1_555
O65 Si8 1.606767 1_555
O66 S19 1.479535 1_555
O67 S20 1.473559 1_555
O68 Si7 1.618177 1_555
O69 S21 1.472054 1_555
O70 S17 1.484839 1_555
O71 S18 1.463432 1_555
O72 S25 1.488367 1_555
O73 S26 1.488713 1_555
O73 Sn0 2.136147 1_565
O74 S22 1.476878 1_555
O74 Sn0 2.284665 1_565
O75 S23 1.511251 1_555
O76 S24 1.487255 1_555
O77 Si8 1.652856 1_555
O77 Sn0 1.944999 1_555
O78 S19 1.494809 1_555
O78 Sn1 2.089028 1_545
O79 S20 1.491993 1_555
O80 Si7 1.656200 1_555
O80 Sn1 1.919060 1_555
O81 S21 1.488236 1_555
O82 S17 1.509841 1_555
O83 S18 1.497384 1_555
O83 Sn1 2.131243 1_655
O84 Si3 1.635681 1_555
O84 Sn2 1.926131 1_555
O85 Si4 1.639246 1_555
O86 S9 1.471600 1_555
O87 S10 1.492057 1_565
O87 Sn2 2.096141 1_565
O88 S11 1.473098 1_555
O88 Sn2 2.148716 1_565
O89 S12 1.486815 1_555
O90 Si5 1.622791 1_555
O91 Si6 1.627064 1_555
O91 Sn3 1.938904 1_655
O92 S13 1.469050 1_555
O93 S14 1.468300 1_555
O93 Sn3 2.153017 1_645
O94 S15 1.484510 1_555
O94 Sn3 2.111850 1_545
O95 S16 1.463327 1_555
O96 S7 1.515149 1_555
O96 Sn4 2.141985 1_555
O97 S8 1.486472 1_555
O97 Sn5 2.310909 1_555
O98 S4 1.520907 1_555
O98 Sn4 2.156670 1_555
O99 Si2 1.675191 1_555
O99 Sn5 1.952332 1_555
O100 S6 1.515718 1_555
O100 Sn4 2.129835 1_555
O101 S5 1.489318 1_555
O101 Sn5 2.242797 1_555
O102 S0 1.498465 1_555
O102 Sn6 2.248231 1_555
O103 S1 1.496123 1_555
O103 Sn7 2.150809 1_555
O104 S3 1.507579 1_555
O104 Sn6 2.161137 1_555
O105 S2 1.487427 1_555
O105 Sn7 2.163492 1_555
O106 Si0 1.665141 1_555
O106 Sn6 1.944271 1_555
O107 Si1 1.682140 1_555
O107 Sn7 1.944584 1_555
O108 S17 1.472060 1_555
O109 S18 1.486388 1_555
O110 S20 1.463090 1_555
O111 S19 1.489084 1_655
O112 Si7 1.624028 1_545
O113 S21 1.493854 1_545
O114 S22 1.490422 1_545
O115 S23 1.477560 1_545
O116 S24 1.492315 1_555
O117 Si8 1.641131 1_555
O118 S26 1.499467 1_555
O119 S25 1.461693 1_655
O120 S15 1.486330 1_555
O120 Sn8 2.113165 1_555
O121 S16 1.494664 1_555
O121 Sn9 2.054881 1_555
O122 Si6 1.646425 1_455
O122 Sn8 1.944008 1_555
O123 Si5 1.658026 1_555
O123 Sn9 1.927490 1_555
O124 S13 1.495510 1_565
O124 Sn8 2.125627 1_555
O125 S14 1.492283 1_565
O125 Sn9 2.098883 1_555
O126 S9 1.482420 1_565
O126 Sn10 2.123041 1_555
O127 S10 1.479802 1_565
O127 Sn11 2.149962 1_555
O128 S11 1.484315 1_555
O128 Sn10 2.138967 1_555
O129 S12 1.480969 1_555
O129 Sn11 2.181654 1_555
O130 Si4 1.656224 1_455
O130 Sn10 1.944402 1_555
O131 Si3 1.628267 1_555
O131 Sn11 1.956654 1_555
O132 Si0 1.605309 1_565
O133 Si1 1.597626 1_565
O134 S0 1.461659 1_555
O135 S1 1.443573 1_555
O136 S2 1.468286 1_455
O137 S3 1.449380 1_555
O138 S4 1.468658 1_555
O139 Si2 1.607650 1_555
O140 S5 1.465780 1_455
O141 S6 1.466992 1_555
O142 S7 1.467688 1_565
O143 S8 1.454799 1_565
