# generated using pymatgen
data_MgMn4(ZnS4)2
_symmetry_space_group_name_H-M   'P 1'
_cell_length_a   7.54079885
_cell_length_b   7.51914246
_cell_length_c   7.51914246
_cell_angle_alpha   60.13783825
_cell_angle_beta   59.90467902
_cell_angle_gamma   59.90467902
_symmetry_Int_Tables_number   1
_chemical_formula_structural   MgMn4(ZnS4)2
_chemical_formula_sum   'Mg1 Mn4 Zn2 S8'
_cell_volume   301.34279678
_cell_formula_units_Z   1
loop_
 _symmetry_equiv_pos_site_id
 _symmetry_equiv_pos_as_xyz
  1  'x, y, z'
loop_
 _atom_site_type_symbol
 _atom_site_label
 _atom_site_symmetry_multiplicity
 _atom_site_fract_x
 _atom_site_fract_y
 _atom_site_fract_z
 _atom_site_occupancy
  Mg  Mg0  1  0.87368100  0.87631900  0.87631900  1
  Mn  Mn0  1  0.01587200  0.01631800  0.45193700  1
  Mn  Mn1  1  0.01587200  0.45193700  0.01631800  1
  Mn  Mn2  1  0.45038900  0.01615300  0.01615300  1
  Mn  Mn3  1  0.01730500  0.01615300  0.01615300  1
  Zn  Zn0  1  0.37534600  0.37465400  0.37465400  1
  Zn  Zn1  1  0.62407300  0.62592700  0.62592700  1
  S  S0  1  0.24362000  0.24376100  0.76900100  1
  S  S1  1  0.24362000  0.76900100  0.24376100  1
  S  S2  1  0.76989600  0.24344200  0.24344200  1
  S  S3  1  0.24322100  0.24344200  0.24344200  1
  S  S4  1  0.75168200  0.75146400  0.24517200  1
  S  S5  1  0.75168200  0.24517200  0.75146400  1
  S  S6  1  0.24278300  0.75294400  0.75294400  1
  S  S7  1  0.75132800  0.75294400  0.75294400  1
loop_
_geom_bond_atom_site_label_1
_geom_bond_atom_site_label_2
_geom_bond_distance
_geom_bond_site_symmetry_2
Mg0 S5 2.265878 1_565
Mg0 S4 2.265878 1_556
Mg0 S6 2.268509 1_655
Mg0 S7 2.268515 1_555
Mg0 Mn2 2.601718 1_566
Mg0 Mn3 2.601718 1_666
Mg0 Mn1 2.606871 1_656
Mg0 Mn0 2.606871 1_665
Mn0 S1 2.420254 1_545
Mn0 S2 2.426520 1_455
Mn0 S3 2.426531 1_555
Mn0 S5 2.814947 1_455
Mn0 S6 2.827422 1_545
Mn0 S7 2.827422 1_445
Mn1 S0 2.420254 1_554
Mn1 S2 2.426520 1_455
Mn1 S3 2.426531 1_555
Mn1 S4 2.814947 1_455
Mn1 S6 2.827422 1_554
Mn1 S7 2.827422 1_454
Mn2 S3 2.415674 1_555
Mn2 S1 2.424090 1_545
Mn2 S0 2.424090 1_554
Mn2 S7 2.806375 1_544
Mn2 S5 2.839768 1_554
Mn2 S4 2.839768 1_545
Mn3 S2 2.415674 1_455
Mn3 S0 2.424100 1_554
Mn3 S1 2.424100 1_545
Mn3 S6 2.806376 1_544
Mn3 S4 2.839768 1_445
Mn3 S5 2.839768 1_454
S0 Zn0 2.422383 1_555
S1 Zn0 2.422383 1_555
S2 Zn0 2.424956 1_555
S3 Zn0 2.424949 1_555
S4 Zn1 2.338881 1_555
S5 Zn1 2.338881 1_555
S6 Zn1 2.343441 1_555
S7 Zn1 2.343435 1_555
