# generated using pymatgen
data_MgMn2V2(CuO4)2
_symmetry_space_group_name_H-M   'P 1'
_cell_length_a   5.56413976
_cell_length_b   5.68322694
_cell_length_c   6.22299821
_cell_angle_alpha   88.84581999
_cell_angle_beta   87.84184904
_cell_angle_gamma   113.73262959
_symmetry_Int_Tables_number   1
_chemical_formula_structural   MgMn2V2(CuO4)2
_chemical_formula_sum   'Mg1 Mn2 V2 Cu2 O8'
_cell_volume   179.88203682
_cell_formula_units_Z   1
loop_
 _symmetry_equiv_pos_site_id
 _symmetry_equiv_pos_as_xyz
  1  'x, y, z'
loop_
 _atom_site_type_symbol
 _atom_site_label
 _atom_site_symmetry_multiplicity
 _atom_site_fract_x
 _atom_site_fract_y
 _atom_site_fract_z
 _atom_site_occupancy
  Mg  Mg0  1  0.51457426  0.95355358  0.25636291  1
  Mn  Mn0  1  0.04820715  0.01346925  0.99343741  1
  Mn  Mn1  1  0.03796002  0.99157553  0.52309406  1
  V  V0  1  0.38536560  0.64689709  0.76246503  1
  V  V1  1  0.65935780  0.45310226  0.21384542  1
  Cu  Cu0  1  0.73050994  0.30536528  0.72357505  1
  Cu  Cu1  1  0.13667431  0.47460457  0.25688840  1
  O  O0  1  0.27103835  0.75283461  0.01799980  1
  O  O1  1  0.77879231  0.29177931  0.42631667  1
  O  O2  1  0.73609780  0.25420440  0.01835240  1
  O  O3  1  0.28165394  0.77297072  0.52237295  1
  O  O4  1  0.23858111  0.29307090  0.74549567  1
  O  O5  1  0.78547257  0.80169144  0.26078988  1
  O  O6  1  0.74367524  0.77813517  0.77576507  1
  O  O7  1  0.30203959  0.21674588  0.25323828  1
loop_
_geom_bond_atom_site_label_1
_geom_bond_atom_site_label_2
_geom_bond_distance
_geom_bond_site_symmetry_2
Mg0 O5 2.016673 1_555
Mg0 O3 2.042677 1_555
Mg0 O0 2.076791 1_555
Mg0 O2 2.167457 1_565
Mg0 O1 2.213391 1_565
Mg0 O7 2.249580 1_565
Mn0 O4 2.109741 1_555
Mn0 O5 2.161851 1_446
Mn0 O7 2.208414 1_556
Mn0 O6 2.217319 1_445
Mn0 O0 2.288705 1_546
Mn0 O2 2.610076 1_456
Mn1 O3 2.176669 1_555
Mn1 O6 2.180696 1_455
Mn1 O4 2.183988 1_565
Mn1 O5 2.196826 1_455
Mn1 O7 2.197905 1_565
Mn1 O1 2.712467 1_465
Cu0 O2 1.854889 1_556
Cu0 O1 1.866831 1_555
Cu1 O7 2.019870 1_555
Cu1 O0 2.034522 1_555
Cu1 O1 2.070952 1_455
Cu1 O3 2.316834 1_555
Cu1 O2 2.610958 1_455
O0 V0 1.888526 1_554
O1 V1 1.881017 1_555
O2 V1 1.828900 1_555
O3 V0 1.852924 1_555
O4 V0 1.847940 1_555
O5 V1 1.849945 1_555
O6 V0 1.831912 1_555
O7 V1 1.901999 1_555
