# generated using pymatgen
data_Na4ScNb3Si5SO24
_symmetry_space_group_name_H-M   'P 1'
_cell_length_a   9.02375882
_cell_length_b   9.01283038
_cell_length_c   22.86882961
_cell_angle_alpha   90.15828928
_cell_angle_beta   90.10832275
_cell_angle_gamma   119.91864916
_symmetry_Int_Tables_number   1
_chemical_formula_structural   Na4ScNb3Si5SO24
_chemical_formula_sum   'Na12 Sc3 Nb9 Si15 S3 O72'
_cell_volume   1612.03300541
_cell_formula_units_Z   3
loop_
 _symmetry_equiv_pos_site_id
 _symmetry_equiv_pos_as_xyz
  1  'x, y, z'
loop_
 _atom_site_type_symbol
 _atom_site_label
 _atom_site_symmetry_multiplicity
 _atom_site_fract_x
 _atom_site_fract_y
 _atom_site_fract_z
 _atom_site_occupancy
  Na  Na0  1  0.63472605  0.62723857  0.74706901  1
  Na  Na1  1  0.99302792  0.36397509  0.74941622  1
  Na  Na2  1  0.37429114  0.00705886  0.74744263  1
  Na  Na3  1  0.66217314  0.68974704  0.08391920  1
  Na  Na4  1  0.02692455  0.33956071  0.08350753  1
  Na  Na5  1  0.32602333  0.02904587  0.41680772  1
  Na  Na6  1  0.99221879  0.99647532  0.49628735  1
  Na  Na7  1  0.00592073  0.99714438  0.99563299  1
  Na  Na8  1  0.66698728  0.33304017  0.83399172  1
  Na  Na9  1  0.68297229  0.33765265  0.33026335  1
  Na  Na10  1  0.33112437  0.67152034  0.16763897  1
  Na  Na11  1  0.33869747  0.67053573  0.66299684  1
  Sc  Sc0  1  0.99066170  0.00676156  0.35682385  1
  Sc  Sc1  1  0.65599673  0.32994962  0.68474076  1
  Sc  Sc2  1  0.67545545  0.33283101  0.18359164  1
  Nb  Nb0  1  0.99907900  0.00112156  0.85600932  1
  Nb  Nb1  1  0.00186243  0.99046647  0.64558831  1
  Nb  Nb2  1  0.00789233  0.01322200  0.14420287  1
  Nb  Nb3  1  0.66660546  0.33439424  0.97803443  1
  Nb  Nb4  1  0.65998306  0.34092663  0.47735222  1
  Nb  Nb5  1  0.33247302  0.67062832  0.01850358  1
  Nb  Nb6  1  0.34542453  0.67840802  0.51874142  1
  Nb  Nb7  1  0.32233232  0.65440958  0.31650496  1
  Nb  Nb8  1  0.33463064  0.66668129  0.81525859  1
  Si  Si0  1  0.99677891  0.29475516  0.25220224  1
  Si  Si1  1  0.28563134  0.28675814  0.75026755  1
  Si  Si2  1  0.00027870  0.70947122  0.75151061  1
  Si  Si3  1  0.71303824  0.00031926  0.74980216  1
  Si  Si4  1  0.37594722  0.04291088  0.58381701  1
  Si  Si5  1  0.66449057  0.62466577  0.58511023  1
  Si  Si6  1  0.95746138  0.62415927  0.08370016  1
  Si  Si7  1  0.66000236  0.04339164  0.08358965  1
  Si  Si8  1  0.38355846  0.33501102  0.08391237  1
  Si  Si9  1  0.62500478  0.66636409  0.91730100  1
  Si  Si10  1  0.04176047  0.37663330  0.91697875  1
  Si  Si11  1  0.33393159  0.95957491  0.91633195  1
  Si  Si12  1  0.62575101  0.95827912  0.41503492  1
  Si  Si13  1  0.32875531  0.37708659  0.41840380  1
  Si  Si14  1  0.04043294  0.66369776  0.41841474  1
  S  S0  1  0.29038667  -0.00023139  0.25078669  1
  S  S1  1  0.70900148  0.71058054  0.25004670  1
  S  S2  1  0.95829742  0.33370072  0.58301355  1
  O  O0  1  0.20935960  0.01751409  0.30399658  1
  O  O1  1  0.81521966  0.79226624  0.30183932  1
  O  O2  1  0.98049546  0.17514659  0.30591095  1
  O  O3  1  0.19119044  0.16314777  0.80639062  1
  O  O4  1  0.96998384  0.80637775  0.80633392  1
  O  O5  1  0.83568783  0.02779206  0.80653795  1
  O  O6  1  0.80436102  0.96354010  0.69351276  1
  O  O7  1  0.15843810  0.19668719  0.69360342  1
  O  O8  1  0.03763144  0.83683573  0.69394040  1
  O  O9  1  0.79268954  0.81598325  0.19567914  1
  O  O10  1  0.02540574  0.19577739  0.19221253  1
  O  O11  1  0.17817140  0.97470975  0.19758835  1
  O  O12  1  0.88393366  0.35984622  0.63769299  1
  O  O13  1  0.48492306  0.11668412  0.64328740  1
  O  O14  1  0.63778997  0.51767263  0.64414103  1
  O  O15  1  0.88071899  0.50213373  0.13924926  1
  O  O16  1  0.62954535  0.12184475  0.14142770  1
  O  O17  1  0.50046832  0.37858775  0.14071899  1
  O  O18  1  0.47001298  0.30190503  0.02596567  1
  O  O19  1  0.83098916  0.53579267  0.02655855  1
  O  O20  1  0.70700947  0.17028909  0.02695157  1
  O  O21  1  0.47244395  0.16326629  0.52592494  1
  O  O22  1  0.69341130  0.52695788  0.52797127  1
  O  O23  1  0.84840959  0.30872436  0.53139005  1
  O  O24  1  0.53179135  0.69276297  0.97455039  1
  O  O25  1  0.16179793  0.46788731  0.97448063  1
  O  O26  1  0.30700141  0.83430697  0.97212300  1
  O  O27  1  0.52614031  0.83735044  0.47246471  1
  O  O28  1  0.30740150  0.47530187  0.47407947  1
  O  O29  1  0.16845193  0.69240875  0.47315358  1
  O  O30  1  0.13529708  0.63130765  0.36015089  1
  O  O31  1  0.49261767  0.86337734  0.35944304  1
  O  O32  1  0.36436716  0.50139873  0.36042800  1
  O  O33  1  0.13612645  0.49675441  0.85865571  1
  O  O34  1  0.36063644  0.86537239  0.85805462  1
  O  O35  1  0.50416736  0.63949279  0.85880819  1
  O  O36  1  0.03518382  0.83652582  0.40944933  1
  O  O37  1  0.80791010  0.97125530  0.41353890  1
  O  O38  1  0.17654742  0.18390661  0.41200836  1
  O  O39  1  0.02617167  0.18963918  0.90965139  1
  O  O40  1  0.16276961  0.97421511  0.90978339  1
  O  O41  1  0.81128118  0.83703842  0.90974594  1
  O  O42  1  0.97409878  0.17701642  0.58793838  1
  O  O43  1  0.18534703  0.02769560  0.58969243  1
  O  O44  1  0.83623808  0.81765078  0.58961040  1
  O  O45  1  0.97110484  0.81256988  0.09313892  1
  O  O46  1  0.83496928  0.01961481  0.09234234  1
  O  O47  1  0.18584148  0.16470397  0.09087708  1
  O  O48  1  0.69448428  0.16900399  0.74593320  1
  O  O49  1  0.47471981  0.30876389  0.74707195  1
  O  O50  1  0.83605645  0.52141641  0.74520169  1
  O  O51  1  0.68589921  0.53760662  0.24406744  1
  O  O52  1  0.83293952  0.31909536  0.24618303  1
  O  O53  1  0.45916207  0.15307802  0.24395951  1
  O  O54  1  0.64034381  0.49488689  0.92335755  1
  O  O55  1  0.85526489  0.36041381  0.92372943  1
  O  O56  1  0.50539259  0.14446615  0.92393186  1
  O  O57  1  0.63048063  0.14132983  0.42525025  1
  O  O58  1  0.50521406  0.36212686  0.42364246  1
  O  O59  1  0.85590356  0.48865431  0.42590376  1
  O  O60  1  0.34835453  0.49658105  0.07401092  1
  O  O61  1  0.14688358  0.64368180  0.07360665  1
  O  O62  1  0.50485443  0.84550799  0.07461897  1
  O  O63  1  0.34589991  0.84829253  0.57458769  1
  O  O64  1  0.49504951  0.64418286  0.57489110  1
  O  O65  1  0.13061217  0.48687908  0.57668832  1
  O  O66  1  0.30572455  0.84135473  0.25340460  1
  O  O67  1  0.53785227  0.70021340  0.25433557  1
  O  O68  1  0.17929167  0.48614934  0.25551474  1
  O  O69  1  0.30227803  0.47758001  0.75672114  1
  O  O70  1  0.17657692  0.69800661  0.75642587  1
  O  O71  1  0.52318618  0.82570251  0.75675131  1
loop_
_geom_bond_atom_site_label_1
_geom_bond_atom_site_label_2
_geom_bond_distance
_geom_bond_site_symmetry_2
Na0 O50 2.437341 1_555
Na0 O71 2.460935 1_555
Na0 O49 2.487869 1_555
Na0 O14 2.555608 1_555
Na0 O69 2.614451 1_555
Na0 O35 2.840703 1_555
Na0 O6 2.903387 1_555
Na0 O4 2.948892 1_555
Na1 O48 2.372315 1_555
Na1 O69 2.451682 1_655
Na1 O50 2.456518 1_555
Na1 O70 2.618157 1_655
Na1 O12 2.729807 1_555
Na1 O33 2.787514 1_655
Na1 O7 2.893412 1_655
Na1 O5 2.939466 1_555
Na2 O49 2.399465 1_555
Na2 O70 2.455843 1_545
Na2 O48 2.504732 1_555
Na2 O13 2.585417 1_555
Na2 O71 2.591109 1_545
Na2 O34 2.811881 1_545
Na2 O8 2.899327 1_545
Na2 O3 2.973713 1_555
Na3 O45 2.441187 1_555
Na3 O62 2.453532 1_555
Na3 O60 2.485749 1_555
Na3 O46 2.584325 1_565
Na3 O17 2.761606 1_555
Na3 O24 2.767997 1_554
Na3 O9 2.801720 1_555
Na3 O19 2.841257 1_555
Na4 O61 2.404299 1_555
Na4 O60 2.524337 1_555
Na4 O46 2.525548 1_455
Na4 O47 2.612169 1_555
Na4 O15 2.727077 1_455
Na4 O25 2.767454 1_554
Na4 O10 2.803519 1_555
Na4 O20 2.813493 1_455
Na5 O36 2.319690 1_545
Na5 O38 2.378601 1_555
Na5 O57 2.415117 1_555
Na5 O58 2.608695 1_555
Na5 O0 2.766559 1_555
Na5 O21 2.795087 1_555
Na5 O31 2.906227 1_545
Na5 O29 2.934740 1_545
Na6 O37 2.450999 1_555
Na6 O38 2.561694 1_665
Na6 O36 2.591696 1_655
Na6 O44 2.626964 1_555
Na6 O43 2.678158 1_665
Na6 O42 2.704689 1_565
Na7 O40 2.490076 1_555
Na7 O41 2.543233 1_455
Na7 O39 2.571698 1_565
Na7 O47 2.680192 1_566
Na7 O45 2.709257 1_456
Na7 O46 2.762985 1_466
Na8 O49 2.571975 1_555
Na8 O48 2.579548 1_555
Na8 O54 2.587954 1_555
Na8 O55 2.593217 1_555
Na8 O50 2.603851 1_555
Na8 O56 2.608424 1_555
Na9 O52 2.406322 1_555
Na9 O59 2.631200 1_555
Na9 O51 2.665787 1_555
Na9 O57 2.694979 1_555
Na9 O53 2.712361 1_555
Na9 O58 2.746846 1_555
Na10 O68 2.540192 1_555
Na10 O66 2.564675 1_555
Na10 O67 2.641908 1_555
Na10 O61 2.649274 1_555
Na10 O62 2.649653 1_555
Na10 O60 2.705898 1_555
Na11 O64 2.539510 1_555
Na11 O63 2.563821 1_555
Na11 O71 2.640403 1_555
Na11 O65 2.651219 1_555
Na11 O70 2.671481 1_555
Na11 O69 2.679467 1_555
Nb0 O5 1.964774 1_555
Nb0 O3 1.979049 1_655
Nb0 O4 1.992069 1_545
Nb0 O39 2.006113 1_655
Nb0 O41 2.021621 1_545
Nb0 O40 2.026088 1_645
Nb1 O8 1.922774 1_555
Nb1 O43 1.985991 1_565
Nb1 O44 1.989493 1_455
Nb1 O6 2.003428 1_455
Nb1 O7 2.004937 1_565
Nb1 O42 2.249226 1_465
Nb2 O10 1.915082 1_555
Nb2 O47 1.938901 1_555
Nb2 O46 1.981882 1_455
Nb2 O45 2.032823 1_445
Nb2 O11 2.121150 1_545
Nb2 O9 2.212155 1_445
Nb3 O18 1.981231 1_556
Nb3 O19 2.005824 1_556
Nb3 O54 2.015641 1_555
Nb3 O56 2.018595 1_555
Nb3 O55 2.026540 1_555
Nb3 O20 2.029161 1_556
Nb4 O22 1.930201 1_555
Nb4 O58 1.938214 1_555
Nb4 O59 1.987727 1_555
Nb4 O21 1.993875 1_555
Nb4 O57 2.058142 1_555
Nb4 O23 2.233557 1_555
Nb5 O26 1.923553 1_554
Nb5 O25 1.975129 1_554
Nb5 O24 1.983713 1_554
Nb5 O61 2.013841 1_555
Nb5 O62 2.021469 1_555
Nb5 O60 2.080178 1_555
Nb6 O27 1.875097 1_555
Nb6 O29 1.961769 1_555
Nb6 O28 1.968165 1_555
Nb6 O63 1.989501 1_555
Nb6 O64 1.994513 1_555
Nb6 O65 2.275486 1_555
Nb7 O30 1.882850 1_555
Nb7 O32 1.892793 1_555
Nb7 O68 1.984974 1_555
Nb7 O31 1.992413 1_555
Nb7 O67 2.277462 1_555
Nb7 O66 2.282149 1_555
Nb8 O35 1.939571 1_555
Nb8 O34 1.946795 1_555
Nb8 O33 1.953872 1_555
Nb8 O69 2.066795 1_555
Nb8 O70 2.078602 1_555
Nb8 O71 2.079904 1_555
O0 S0 1.469642 1_555
O0 Sc0 2.276485 1_455
O1 S1 1.466484 1_555
O1 Sc0 2.179634 1_565
O2 Si0 1.594459 1_555
O2 Sc0 1.953326 1_555
O3 Si1 1.636970 1_555
O4 Si2 1.625689 1_655
O5 Si3 1.639851 1_555
O6 Si3 1.649303 1_565
O7 Si1 1.647630 1_555
O8 Si2 1.669946 1_555
O9 S1 1.520869 1_555
O10 Si0 1.723098 1_455
O11 S0 1.523857 1_565
O12 S2 1.492898 1_555
O12 Sc1 2.217647 1_555
O13 Si4 1.611358 1_555
O13 Sc1 2.000202 1_555
O14 Si5 1.608418 1_555
O14 Sc1 2.009232 1_555
O15 Si6 1.598183 1_555
O15 Sc2 1.995937 1_555
O16 Si7 1.585897 1_555
O16 Sc2 1.979877 1_555
O17 Si8 1.591713 1_555
O17 Sc2 2.066565 1_555
O18 Si8 1.639411 1_555
O19 Si6 1.651154 1_555
O20 Si7 1.640723 1_555
O21 Si4 1.660643 1_555
O22 Si5 1.665911 1_555
O23 S2 1.482945 1_555
O24 Si9 1.637154 1_555
O25 Si10 1.636739 1_555
O26 Si11 1.642267 1_555
O27 Si12 1.660077 1_555
O28 Si13 1.614524 1_555
O29 Si14 1.631888 1_555
O30 Si14 1.686658 1_555
O31 Si12 1.659610 1_555
O32 Si13 1.663455 1_555
O33 Si10 1.663975 1_555
O34 Si11 1.659567 1_555
O35 Si9 1.663203 1_555
O36 Si14 1.595602 1_555
O36 Sc0 2.141763 1_465
O37 Si12 1.589107 1_555
O37 Sc0 1.997031 1_565
O38 Si13 1.597380 1_555
O38 Sc0 2.065120 1_455
O39 Si10 1.627918 1_555
O40 Si11 1.621088 1_555
O41 Si9 1.626287 1_555
O42 S2 1.492956 1_555
O43 Si4 1.661540 1_555
O44 Si5 1.657468 1_555
O45 Si6 1.653681 1_555
O46 Si7 1.707436 1_555
O47 Si8 1.683809 1_555
O48 Si3 1.613028 1_555
O48 Sc1 2.166803 1_555
O49 Si1 1.618353 1_555
O49 Sc1 2.107825 1_555
O50 Si2 1.606826 1_655
O50 Sc1 2.170494 1_555
O51 S1 1.472108 1_555
O51 Sc2 2.267105 1_555
O52 Si0 1.604933 1_555
O52 Sc2 2.062162 1_555
O53 S0 1.468327 1_555
O53 Sc2 2.282168 1_555
O54 Si9 1.625239 1_555
O55 Si10 1.622660 1_655
O56 Si11 1.620622 1_545
O57 Si12 1.644946 1_545
O58 Si13 1.667798 1_555
O59 Si14 1.634939 1_655
O60 Si8 1.654002 1_555
O61 Si6 1.645493 1_455
O62 Si7 1.639846 1_565
O63 Si4 1.648669 1_565
O64 Si5 1.640291 1_555
O65 S2 1.485007 1_455
O66 S0 1.502929 1_565
O67 S1 1.503404 1_555
O68 Si0 1.690746 1_455
O69 Si1 1.656205 1_555
O70 Si2 1.648500 1_555
O71 Si3 1.658287 1_565
