# generated using pymatgen
data_NaNbZnP2SO12
_symmetry_space_group_name_H-M   'P 1'
_cell_length_a   8.75425756
_cell_length_b   8.75425727
_cell_length_c   22.71304238
_cell_angle_alpha   89.90647654
_cell_angle_beta   90.09352345
_cell_angle_gamma   119.80871298
_symmetry_Int_Tables_number   1
_chemical_formula_structural   NaNbZnP2SO12
_chemical_formula_sum   'Na6 Nb6 Zn6 P12 S6 O72'
_cell_volume   1510.35031315
_cell_formula_units_Z   6
loop_
 _symmetry_equiv_pos_site_id
 _symmetry_equiv_pos_as_xyz
  1  'x, y, z'
loop_
 _atom_site_type_symbol
 _atom_site_label
 _atom_site_symmetry_multiplicity
 _atom_site_fract_x
 _atom_site_fract_y
 _atom_site_fract_z
 _atom_site_occupancy
  Na  Na0  1  0.99365892  0.98992987  0.49272733  1
  Na  Na1  1  0.01007013  0.00634108  0.99272733  1
  Na  Na2  1  0.66032592  0.32326287  0.82606033  1
  Na  Na3  1  0.67673713  0.33967408  0.32606033  1
  Na  Na4  1  0.32699192  0.65659687  0.15939433  1
  Na  Na5  1  0.34340313  0.67300808  0.65939433  1
  Nb  Nb0  1  0.99842119  0.00257205  0.64558486  1
  Nb  Nb1  1  0.99742795  0.00157881  0.14558486  1
  Nb  Nb2  1  0.66508819  0.33590505  0.97891786  1
  Nb  Nb3  1  0.66409495  0.33491181  0.47891786  1
  Nb  Nb4  1  0.33175419  0.66923905  0.31225186  1
  Nb  Nb5  1  0.33076095  0.66824581  0.81225186  1
  Zn  Zn0  1  0.98324479  0.99072515  0.35158936  1
  Zn  Zn1  1  0.00927485  0.01675521  0.85158936  1
  Zn  Zn2  1  0.64991179  0.32405815  0.68492236  1
  Zn  Zn3  1  0.67594185  0.35008821  0.18492236  1
  Zn  Zn4  1  0.31657779  0.65739215  0.01825636  1
  Zn  Zn5  1  0.34260785  0.68342221  0.51825636  1
  P  P0  1  0.71076729  0.70631058  0.25202697  1
  P  P1  1  0.99401125  0.28681817  0.25249424  1
  P  P2  1  0.29368942  0.28923271  0.75202697  1
  P  P3  1  0.71318183  0.00598875  0.75249424  1
  P  P4  1  0.37743429  0.03964358  0.58535997  1
  P  P5  1  0.66067825  0.62015117  0.58582724  1
  P  P6  1  0.96035642  0.62256571  0.08535997  1
  P  P7  1  0.37984883  0.33932175  0.08582724  1
  P  P8  1  0.04410029  0.37297758  0.91869397  1
  P  P9  1  0.32734425  0.95348517  0.91916124  1
  P  P10  1  0.62702242  0.95589971  0.41869397  1
  P  P11  1  0.04651483  0.67265575  0.41916124  1
  S  S0  1  0.29134850  0.00469533  0.25127038  1
  S  S1  1  0.99530467  0.70865150  0.75127038  1
  S  S2  1  0.95801550  0.33802833  0.58460338  1
  S  S3  1  0.66197167  0.04198450  0.08460338  1
  S  S4  1  0.62468150  0.67136233  0.91793738  1
  S  S5  1  0.32863767  0.37531850  0.41793738  1
  O  O0  1  0.21117599  0.02544491  0.30385305  1
  O  O1  1  0.81929277  0.78866704  0.30559389  1
  O  O2  1  0.97992301  0.18275666  0.30648054  1
  O  O3  1  0.21133296  0.18070723  0.80559389  1
  O  O4  1  0.97455509  0.78882401  0.80385305  1
  O  O5  1  0.81724334  0.02007699  0.80648054  1
  O  O6  1  0.80099506  0.97175502  0.69553295  1
  O  O7  1  0.17122997  0.19838795  0.69567285  1
  O  O8  1  0.02892647  0.82218246  0.69699011  1
  O  O9  1  0.80161205  0.82877003  0.19567285  1
  O  O10  1  0.02824498  0.19900494  0.19553295  1
  O  O11  1  0.17781754  0.97107353  0.19699011  1
  O  O12  1  0.87784299  0.35877791  0.63718605  1
  O  O13  1  0.48595977  0.12200004  0.63892689  1
  O  O14  1  0.64659001  0.51608966  0.63981354  1
  O  O15  1  0.87799996  0.51404023  0.13892689  1
  O  O16  1  0.64122209  0.12215701  0.13718605  1
  O  O17  1  0.48391034  0.35340999  0.13981354  1
  O  O18  1  0.46766206  0.30508802  0.02886595  1
  O  O19  1  0.83789697  0.53172095  0.02900585  1
  O  O20  1  0.69559347  0.15551546  0.03032311  1
  O  O21  1  0.46827905  0.16210303  0.52900585  1
  O  O22  1  0.69491198  0.53233794  0.52886595  1
  O  O23  1  0.84448454  0.30440653  0.53032311  1
  O  O24  1  0.54450899  0.69211191  0.97052005  1
  O  O25  1  0.15262577  0.45533404  0.97226089  1
  O  O26  1  0.31325601  0.84942366  0.97314754  1
  O  O27  1  0.54466596  0.84737423  0.47226089  1
  O  O28  1  0.30788809  0.45549101  0.47052005  1
  O  O29  1  0.15057634  0.68674399  0.47314754  1
  O  O30  1  0.13432806  0.63842202  0.36219995  1
  O  O31  1  0.50456297  0.86505495  0.36233985  1
  O  O32  1  0.36225947  0.48884946  0.36365711  1
  O  O33  1  0.13494505  0.49543703  0.86233985  1
  O  O34  1  0.36157798  0.86567194  0.86219995  1
  O  O35  1  0.51115054  0.63774053  0.86365711  1
  O  O36  1  0.02153781  0.82930138  0.40969674  1
  O  O37  1  0.81286931  0.99111826  0.41089353  1
  O  O38  1  0.18317813  0.19825270  0.40922793  1
  O  O39  1  0.00888174  0.18713069  0.91089353  1
  O  O40  1  0.17069862  0.97846219  0.90969674  1
  O  O41  1  0.80174730  0.81682187  0.90922793  1
  O  O42  1  0.96762407  0.16750405  0.58826146  1
  O  O43  1  0.19169515  0.03219618  0.59090604  1
  O  O44  1  0.83676517  0.80804710  0.59119777  1
  O  O45  1  0.96780382  0.80830485  0.09090604  1
  O  O46  1  0.83249595  0.03237593  0.08826146  1
  O  O47  1  0.19195290  0.16323483  0.09119777  1
  O  O48  1  0.68820481  0.16263438  0.74302974  1
  O  O49  1  0.47953631  0.32445126  0.74422653  1
  O  O50  1  0.84984513  0.53158570  0.74256093  1
  O  O51  1  0.67554874  0.52046369  0.24422653  1
  O  O52  1  0.83736562  0.31179519  0.24302974  1
  O  O53  1  0.46841430  0.15015487  0.24256093  1
  O  O54  1  0.63429107  0.50083705  0.92159446  1
  O  O55  1  0.85836215  0.36552918  0.92423904  1
  O  O56  1  0.50343217  0.14138010  0.92453077  1
  O  O57  1  0.63447082  0.14163785  0.42423904  1
  O  O58  1  0.49916295  0.36570893  0.42159446  1
  O  O59  1  0.85861990  0.49656783  0.42453077  1
  O  O60  1  0.35487081  0.49596838  0.07636374  1
  O  O61  1  0.14620231  0.65778526  0.07756053  1
  O  O62  1  0.51651113  0.86491970  0.07589493  1
  O  O63  1  0.34221474  0.85379769  0.57756053  1
  O  O64  1  0.50403162  0.64512919  0.57636374  1
  O  O65  1  0.13508030  0.48348887  0.57589493  1
  O  O66  1  0.30095707  0.83417105  0.25492846  1
  O  O67  1  0.52502815  0.69886318  0.25757304  1
  O  O68  1  0.17009817  0.47471410  0.25786477  1
  O  O69  1  0.30113682  0.47497185  0.75757304  1
  O  O70  1  0.16582895  0.69904293  0.75492846  1
  O  O71  1  0.52528590  0.82990183  0.75786477  1
loop_
_geom_bond_atom_site_label_1
_geom_bond_atom_site_label_2
_geom_bond_distance
_geom_bond_site_symmetry_2
Na0 O36 2.438199 1_655
Na0 O37 2.442628 1_555
Na0 O38 2.581883 1_665
Na0 O44 2.692223 1_555
Na0 O43 2.732658 1_665
Na0 O42 2.746220 1_565
Na1 O40 2.438199 1_545
Na1 O39 2.442628 1_555
Na1 O41 2.581883 1_445
Na1 O47 2.692223 1_556
Na1 O45 2.732658 1_446
Na1 O46 2.746220 1_456
Na2 O48 2.438199 1_555
Na2 O49 2.442628 1_555
Na2 O50 2.581883 1_555
Na2 O56 2.692223 1_555
Na2 O55 2.732658 1_555
Na2 O54 2.746220 1_555
Na3 O52 2.438199 1_555
Na3 O51 2.442628 1_555
Na3 O53 2.581883 1_555
Na3 O59 2.692223 1_555
Na3 O57 2.732658 1_555
Na3 O58 2.746220 1_555
Na4 O60 2.438199 1_555
Na4 O61 2.442628 1_555
Na4 O62 2.581883 1_555
Na4 O68 2.692223 1_555
Na4 O67 2.732658 1_555
Na4 O66 2.746220 1_555
Na5 O64 2.438199 1_555
Na5 O63 2.442628 1_555
Na5 O65 2.581883 1_555
Na5 O71 2.692223 1_555
Na5 O69 2.732658 1_555
Na5 O70 2.746220 1_555
Nb0 O6 1.971987 1_545
Nb0 O7 1.985918 1_655
Nb0 O44 2.008432 1_545
Nb0 O43 2.010459 1_655
Nb0 O42 2.057261 1_555
Nb0 O8 2.083405 1_645
Nb1 O10 1.971987 1_655
Nb1 O9 1.985918 1_545
Nb1 O47 2.008432 1_655
Nb1 O45 2.010459 1_545
Nb1 O46 2.057261 1_555
Nb1 O11 2.083405 1_645
Nb2 O18 1.971987 1_556
Nb2 O19 1.985918 1_556
Nb2 O56 2.008432 1_555
Nb2 O55 2.010459 1_555
Nb2 O54 2.057261 1_555
Nb2 O20 2.083405 1_556
Nb3 O22 1.971987 1_555
Nb3 O21 1.985918 1_555
Nb3 O59 2.008432 1_555
Nb3 O57 2.010459 1_555
Nb3 O58 2.057261 1_555
Nb3 O23 2.083405 1_555
Nb4 O30 1.971987 1_555
Nb4 O31 1.985918 1_555
Nb4 O68 2.008432 1_555
Nb4 O67 2.010459 1_555
Nb4 O66 2.057261 1_555
Nb4 O32 2.083405 1_555
Nb5 O34 1.971987 1_555
Nb5 O33 1.985918 1_555
Nb5 O71 2.008432 1_555
Nb5 O69 2.010459 1_555
Nb5 O70 2.057261 1_555
Nb5 O35 2.083405 1_555
O0 S0 1.442972 1_555
O0 Zn0 2.156957 1_445
O1 P0 1.490229 1_555
O1 Zn0 1.938382 1_555
O2 P1 1.494587 1_555
O2 Zn0 1.979779 1_545
O3 P2 1.490229 1_555
O3 Zn1 1.938382 1_555
O4 S1 1.442972 1_555
O4 Zn1 2.156956 1_665
O5 P3 1.494587 1_555
O5 Zn1 1.979779 1_655
O6 P3 1.608777 1_565
O7 P2 1.603521 1_555
O8 S1 1.516820 1_455
O9 P0 1.603521 1_555
O10 P1 1.608777 1_455
O11 S0 1.516820 1_565
O12 S2 1.442972 1_555
O12 Zn2 2.156957 1_555
O13 P4 1.490229 1_555
O13 Zn2 1.938382 1_555
O14 P5 1.494587 1_555
O14 Zn2 1.979779 1_555
O15 P6 1.490229 1_555
O15 Zn3 1.938382 1_555
O16 S3 1.442972 1_555
O16 Zn3 2.156956 1_555
O17 P7 1.494587 1_555
O17 Zn3 1.979779 1_555
O18 P7 1.608777 1_555
O19 P6 1.603521 1_555
O20 S3 1.516820 1_555
O21 P4 1.603521 1_555
O22 P5 1.608777 1_555
O23 S2 1.516820 1_555
O24 S4 1.442972 1_555
O24 Zn4 2.156957 1_556
O25 P8 1.490229 1_555
O25 Zn4 1.938382 1_556
O26 P9 1.494587 1_555
O26 Zn4 1.979779 1_556
O27 P10 1.490229 1_555
O27 Zn5 1.938382 1_555
O28 S5 1.442972 1_555
O28 Zn5 2.156956 1_555
O29 P11 1.494587 1_555
O29 Zn5 1.979779 1_555
O30 P11 1.608777 1_555
O31 P10 1.603521 1_555
O32 S5 1.516820 1_555
O33 P8 1.603521 1_555
O34 P9 1.608777 1_555
O35 S4 1.516820 1_555
O36 P11 1.507157 1_555
O36 Zn0 2.077177 1_455
O37 P10 1.508468 1_555
O37 Zn0 2.012621 1_555
O38 S5 1.449534 1_555
O38 Zn0 2.217380 1_445
O39 P8 1.508468 1_555
O39 Zn1 2.012621 1_555
O40 P9 1.507157 1_555
O40 Zn1 2.077177 1_565
O41 S4 1.449534 1_555
O41 Zn1 2.217380 1_665
O42 S2 1.538469 1_555
O43 P4 1.599771 1_555
O44 P5 1.604960 1_555
O45 P6 1.599771 1_555
O46 S3 1.538469 1_555
O47 P7 1.604960 1_555
O48 P3 1.507157 1_555
O48 Zn2 2.077177 1_555
O49 P2 1.508468 1_555
O49 Zn2 2.012621 1_555
O50 S1 1.449534 1_555
O50 Zn2 2.217380 1_555
O51 P0 1.508468 1_555
O51 Zn3 2.012621 1_555
O52 P1 1.507157 1_555
O52 Zn3 2.077177 1_555
O53 S0 1.449534 1_555
O53 Zn3 2.217380 1_555
O54 S4 1.538481 1_555
O55 P8 1.599756 1_655
O56 P9 1.604958 1_545
O57 P10 1.599756 1_545
O58 S5 1.538481 1_555
O59 P11 1.604958 1_655
O60 P7 1.507168 1_555
O60 Zn4 2.077177 1_555
O61 P6 1.508453 1_455
O61 Zn4 2.012621 1_555
O62 S3 1.449528 1_565
O62 Zn4 2.217380 1_555
O63 P4 1.508453 1_565
O63 Zn5 2.012621 1_555
O64 P5 1.507168 1_555
O64 Zn5 2.077177 1_555
O65 S2 1.449528 1_455
O65 Zn5 2.217380 1_555
O66 S0 1.538469 1_565
O67 P0 1.599771 1_555
O68 P1 1.604960 1_455
O69 P2 1.599771 1_555
O70 S1 1.538469 1_455
O71 P3 1.604960 1_565
