# generated using pymatgen
data_BaNdMg(CoO3)2
_symmetry_space_group_name_H-M   'P 1'
_cell_length_a   3.77843577
_cell_length_b   5.57040378
_cell_length_c   7.78573807
_cell_angle_alpha   90.00000000
_cell_angle_beta   90.00000000
_cell_angle_gamma   90.00000000
_symmetry_Int_Tables_number   1
_chemical_formula_structural   BaNdMg(CoO3)2
_chemical_formula_sum   'Ba1 Nd1 Mg1 Co2 O6'
_cell_volume   163.86964386
_cell_formula_units_Z   1
loop_
 _symmetry_equiv_pos_site_id
 _symmetry_equiv_pos_as_xyz
  1  'x, y, z'
loop_
 _atom_site_type_symbol
 _atom_site_label
 _atom_site_symmetry_multiplicity
 _atom_site_fract_x
 _atom_site_fract_y
 _atom_site_fract_z
 _atom_site_occupancy
  Ba  Ba0  1  -0.00000000  -0.00000000  0.50000000  1
  Nd  Nd0  1  -0.00000000  -0.00000000  -0.00000000  1
  Mg  Mg0  1  -0.00000000  0.50000000  -0.00000000  1
  Co  Co0  1  0.50000000  0.50000000  0.73371110  1
  Co  Co1  1  0.50000000  0.50000000  0.26628890  1
  O  O0  1  0.50000000  0.50000000  -0.00000000  1
  O  O1  1  0.50000000  0.50000000  0.50000000  1
  O  O2  1  -0.00000000  0.50000000  0.75777855  1
  O  O3  1  0.50000000  0.00000000  0.79958520  1
  O  O4  1  -0.00000000  0.50000000  0.24222145  1
  O  O5  1  0.50000000  -0.00000000  0.20041480  1
loop_
_geom_bond_atom_site_label_1
_geom_bond_atom_site_label_2
_geom_bond_distance
_geom_bond_site_symmetry_2
Ba0 O5 3.001610 1_455
Ba0 O5 3.001610 1_555
Ba0 O3 3.001610 1_455
Ba0 O3 3.001610 1_555
Ba0 O1 3.365486 1_545
Ba0 O1 3.365486 1_555
Ba0 O1 3.365486 1_445
Ba0 O1 3.365486 1_455
Ba0 O4 3.432985 1_555
Ba0 O4 3.432985 1_545
Ba0 O2 3.432985 1_545
Ba0 O2 3.432985 1_555
Nd0 O3 2.450290 1_554
Nd0 O5 2.450290 1_555
Nd0 O3 2.450290 1_454
Nd0 O5 2.450290 1_455
Mg0 O2 1.885873 1_554
Mg0 O4 1.885873 1_555
Mg0 O0 1.889218 1_455
Mg0 O0 1.889218 1_555
Co0 O1 1.819613 1_555
Co0 O2 1.898488 1_655
Co0 O2 1.898488 1_555
Co0 O0 2.073256 1_556
Co1 O1 1.819613 1_555
Co1 O4 1.898488 1_555
Co1 O4 1.898488 1_655
Co1 O0 2.073256 1_555
