# generated using pymatgen
data_PbS
_symmetry_space_group_name_H-M   'P 1'
_cell_length_a   4.23050716
_cell_length_b   5.98249480
_cell_length_c   8.43319393
_cell_angle_alpha   90.00000000
_cell_angle_beta   90.00000000
_cell_angle_gamma   90.00000000
_symmetry_Int_Tables_number   1
_chemical_formula_structural   PbS
_chemical_formula_sum   'Pb4 S4'
_cell_volume   213.43559627
_cell_formula_units_Z   4
loop_
 _symmetry_equiv_pos_site_id
 _symmetry_equiv_pos_as_xyz
  1  'x, y, z'
loop_
 _atom_site_type_symbol
 _atom_site_label
 _atom_site_symmetry_multiplicity
 _atom_site_fract_x
 _atom_site_fract_y
 _atom_site_fract_z
 _atom_site_occupancy
  Pb  Pb0  1  0.75000000  0.75008876  0.12376494  1
  Pb  Pb1  1  0.75000000  0.74991124  0.62376494  1
  Pb  Pb2  1  0.25000000  0.24991124  0.87623506  1
  Pb  Pb3  1  0.25000000  0.25008876  0.37623506  1
  S  S0  1  0.25000000  0.75094903  0.87475634  1
  S  S1  1  0.25000000  0.74905097  0.37475634  1
  S  S2  1  0.75000000  0.24905097  0.12524366  1
  S  S3  1  0.75000000  0.25094903  0.62524366  1
loop_
_geom_bond_atom_site_label_1
_geom_bond_atom_site_label_2
_geom_bond_distance
_geom_bond_site_symmetry_2
Pb0 S0 2.980615 1_654
Pb0 S0 2.980615 1_554
Pb0 S2 2.985065 1_565
Pb0 S1 2.992421 1_655
Pb0 S1 2.992421 1_555
Pb0 S2 2.997482 1_555
Pb1 S1 2.980615 1_555
Pb1 S1 2.980615 1_655
Pb1 S3 2.985065 1_555
Pb1 S0 2.992421 1_555
Pb1 S0 2.992421 1_655
Pb1 S3 2.997482 1_565
Pb2 S2 2.980615 1_456
Pb2 S2 2.980615 1_556
Pb2 S0 2.985065 1_545
Pb2 S3 2.992421 1_455
Pb2 S3 2.992421 1_555
Pb2 S0 2.997482 1_555
Pb3 S3 2.980615 1_455
Pb3 S3 2.980615 1_555
Pb3 S1 2.985065 1_555
Pb3 S2 2.992421 1_455
Pb3 S2 2.992421 1_555
Pb3 S1 2.997482 1_545
