# generated using pymatgen
data_Na7Sc2Al2SiP5O24
_symmetry_space_group_name_H-M   'P 1'
_cell_length_a   8.86853546
_cell_length_b   8.85904198
_cell_length_c   21.98362834
_cell_angle_alpha   90.14129907
_cell_angle_beta   89.76065568
_cell_angle_gamma   119.94354750
_symmetry_Int_Tables_number   1
_chemical_formula_structural   Na7Sc2Al2SiP5O24
_chemical_formula_sum   'Na21 Sc6 Al6 Si3 P15 O72'
_cell_volume   1496.62021990
_cell_formula_units_Z   3
loop_
 _symmetry_equiv_pos_site_id
 _symmetry_equiv_pos_as_xyz
  1  'x, y, z'
loop_
 _atom_site_type_symbol
 _atom_site_label
 _atom_site_symmetry_multiplicity
 _atom_site_fract_x
 _atom_site_fract_y
 _atom_site_fract_z
 _atom_site_occupancy
  Na  Na0  1  0.36826744  0.36881275  0.25122754  1
  Na  Na1  1  0.99803536  0.63101215  0.24963964  1
  Na  Na2  1  0.63787823  0.64129431  0.75014090  1
  Na  Na3  1  0.99510855  0.35839610  0.75244826  1
  Na  Na4  1  0.36596316  0.99952537  0.75011594  1
  Na  Na5  1  0.30392529  0.32807633  0.58092996  1
  Na  Na6  1  0.03238465  0.69890784  0.58149715  1
  Na  Na7  1  0.66307003  0.96956877  0.58422207  1
  Na  Na8  1  0.30343393  0.97010450  0.08350501  1
  Na  Na9  1  0.67109760  0.69533853  0.08300695  1
  Na  Na10  1  0.02871628  0.33773874  0.08419079  1
  Na  Na11  1  0.96304947  0.66558914  0.91831816  1
  Na  Na12  1  0.70357266  0.03571933  0.91535822  1
  Na  Na13  1  0.96528507  0.29791392  0.41503861  1
  Na  Na14  1  0.33538638  0.03554272  0.41698436  1
  Na  Na15  1  0.99455503  0.99031230  0.49772932  1
  Na  Na16  1  0.00933219  0.00582143  0.00092664  1
  Na  Na17  1  0.65727008  0.32950964  0.83424271  1
  Na  Na18  1  0.66662378  0.33323003  0.33288813  1
  Na  Na19  1  0.33916228  0.67594751  0.16789473  1
  Na  Na20  1  0.33797267  0.67298390  0.66644569  1
  Sc  Sc0  1  0.00384852  0.00731744  0.85433349  1
  Sc  Sc1  1  0.99836664  0.99917834  0.65084714  1
  Sc  Sc2  1  0.66311313  0.32448410  0.68220461  1
  Sc  Sc3  1  0.67141563  0.32982502  0.18575270  1
  Sc  Sc4  1  0.66353588  0.33800340  0.98209037  1
  Sc  Sc5  1  0.66254067  0.33699671  0.47815284  1
  Al  Al0  1  0.99248970  0.99324949  0.35141179  1
  Al  Al1  1  0.99673675  0.99416682  0.15113970  1
  Al  Al2  1  0.32968489  0.66522255  0.01804533  1
  Al  Al3  1  0.33748448  0.67203834  0.51497636  1
  Al  Al4  1  0.34092550  0.67363732  0.31495915  1
  Al  Al5  1  0.33681804  0.66841411  0.81621315  1
  Si  Si0  1  0.69486209  0.99343193  0.75270620  1
  Si  Si1  1  0.36653336  0.02669662  0.57999439  1
  Si  Si2  1  0.97154735  0.63862588  0.08372492  1
  P  P0  1  0.28229440  0.99402565  0.25269628  1
  P  P1  1  0.71020625  0.72098635  0.25170266  1
  P  P2  1  0.00344174  0.28423613  0.25237990  1
  P  P3  1  0.29624686  0.30330133  0.75145031  1
  P  P4  1  0.00543138  0.70286584  0.75271462  1
  P  P5  1  0.96962304  0.34027011  0.58002374  1
  P  P6  1  0.65995368  0.62848416  0.58170865  1
  P  P7  1  0.66773883  0.03228814  0.08241492  1
  P  P8  1  0.36510634  0.33330705  0.08504268  1
  P  P9  1  0.61074816  0.66235767  0.91700508  1
  P  P10  1  0.05516681  0.38595032  0.91735221  1
  P  P11  1  0.33400110  0.94865161  0.91722292  1
  P  P12  1  0.62367657  0.94527893  0.41446736  1
  P  P13  1  0.32906732  0.38200890  0.41372736  1
  P  P14  1  0.05182696  0.67337432  0.41351828  1
  O  O0  1  0.19424521  0.02465846  0.30923745  1
  O  O1  1  0.83311447  0.80752499  0.30611060  1
  O  O2  1  0.98119883  0.17396347  0.30969576  1
  O  O3  1  0.21168252  0.17682363  0.80465867  1
  O  O4  1  0.97221393  0.78762544  0.80848399  1
  O  O5  1  0.82324369  0.03334626  0.81067689  1
  O  O6  1  0.77801439  0.95650701  0.69171261  1
  O  O7  1  0.18664973  0.22698225  0.69295190  1
  O  O8  1  0.04174417  0.81709548  0.69513767  1
  O  O9  1  0.79283067  0.82520743  0.19240372  1
  O  O10  1  0.03067425  0.19852814  0.19445161  1
  O  O11  1  0.16913135  0.96540378  0.19492905  1
  O  O12  1  0.89282574  0.37692901  0.63812257  1
  O  O13  1  0.48677400  0.10929483  0.64090496  1
  O  O14  1  0.62790629  0.52053214  0.64057781  1
  O  O15  1  0.88546587  0.50835454  0.14230758  1
  O  O16  1  0.62318592  0.11467793  0.13657267  1
  O  O17  1  0.48181512  0.37161873  0.14181246  1
  O  O18  1  0.44660718  0.28913391  0.03046879  1
  O  O19  1  0.84296259  0.55427748  0.02475964  1
  O  O20  1  0.70597222  0.14806862  0.02520174  1
  O  O21  1  0.45562696  0.15686628  0.52232007  1
  O  O22  1  0.69995263  0.54228007  0.52835812  1
  O  O23  1  0.85083151  0.30627809  0.52481871  1
  O  O24  1  0.52461007  0.68802512  0.97455868  1
  O  O25  1  0.16014102  0.47415839  0.97526387  1
  O  O26  1  0.31156086  0.83809191  0.97471900  1
  O  O27  1  0.54127929  0.84124956  0.47382223  1
  O  O28  1  0.30154565  0.46707670  0.47186626  1
  O  O29  1  0.16448454  0.70180622  0.47145912  1
  O  O30  1  0.14025898  0.64285009  0.35714959  1
  O  O31  1  0.50017611  0.85852842  0.36029817  1
  O  O32  1  0.35124286  0.49305584  0.35672085  1
  O  O33  1  0.14017355  0.49673438  0.85946862  1
  O  O34  1  0.35652692  0.86094840  0.85927320  1
  O  O35  1  0.50676873  0.64534529  0.85871980  1
  O  O36  1  0.03481569  0.84015118  0.40761012  1
  O  O37  1  0.81150420  0.97341641  0.40772528  1
  O  O38  1  0.16231089  0.19443074  0.40995839  1
  O  O39  1  0.02837472  0.19992491  0.91556062  1
  O  O40  1  0.16776207  0.96301429  0.91440695  1
  O  O41  1  0.79712989  0.82749098  0.91525512  1
  O  O42  1  0.98536840  0.17508500  0.58689201  1
  O  O43  1  0.17453373  0.00860512  0.58640783  1
  O  O44  1  0.82227810  0.81214554  0.58656190  1
  O  O45  1  0.98841730  0.83115418  0.09360961  1
  O  O46  1  0.83409909  0.01907280  0.09296668  1
  O  O47  1  0.18059162  0.17137278  0.09388663  1
  O  O48  1  0.67956108  0.16990734  0.74806037  1
  O  O49  1  0.48089789  0.32796609  0.74547679  1
  O  O50  1  0.84008117  0.52282797  0.74582352  1
  O  O51  1  0.68959965  0.53426273  0.24725244  1
  O  O52  1  0.84380605  0.31125534  0.24863866  1
  O  O53  1  0.46264187  0.16111661  0.24733231  1
  O  O54  1  0.63780455  0.50277332  0.91918771  1
  O  O55  1  0.86893148  0.36560521  0.91950885  1
  O  O56  1  0.50065446  0.12983036  0.92047319  1
  O  O57  1  0.64520577  0.13216807  0.41833533  1
  O  O58  1  0.48829316  0.35498970  0.41681551  1
  O  O59  1  0.87176222  0.50661856  0.41818480  1
  O  O60  1  0.35046087  0.49909043  0.07470379  1
  O  O61  1  0.16431706  0.65619748  0.07471065  1
  O  O62  1  0.50630639  0.84730650  0.07423685  1
  O  O63  1  0.35085763  0.83521573  0.57218655  1
  O  O64  1  0.49344003  0.64172601  0.57246274  1
  O  O65  1  0.15330078  0.50240349  0.57191491  1
  O  O66  1  0.29896278  0.82713245  0.25878930  1
  O  O67  1  0.52238036  0.69286340  0.25868744  1
  O  O68  1  0.17016319  0.47187561  0.25643322  1
  O  O69  1  0.30918841  0.48295198  0.76033710  1
  O  O70  1  0.16742659  0.68087419  0.75985650  1
  O  O71  1  0.50214482  0.81927529  0.75969196  1
loop_
_geom_bond_atom_site_label_1
_geom_bond_atom_site_label_2
_geom_bond_distance
_geom_bond_site_symmetry_2
Na0 O68 2.352146 1_555
Na0 O53 2.372635 1_555
Na0 O51 2.470987 1_555
Na0 O67 2.493768 1_555
Na0 O17 2.599116 1_555
Na0 O32 2.600579 1_555
Na0 O10 2.882788 1_555
Na0 O0 2.934139 1_555
Na1 O66 2.356988 1_655
Na1 O51 2.424897 1_555
Na1 O52 2.455140 1_555
Na1 O68 2.547834 1_655
Na1 O15 2.582433 1_555
Na1 O30 2.660730 1_655
Na1 O11 2.835436 1_655
Na1 O1 2.895536 1_555
Na2 O49 2.407419 1_555
Na2 O71 2.422861 1_555
Na2 O50 2.490594 1_555
Na2 O69 2.535590 1_555
Na2 O14 2.616929 1_555
Na2 O35 2.658738 1_555
Na2 O6 2.744475 1_555
Na2 O4 2.881590 1_555
Na3 O69 2.437427 1_655
Na3 O48 2.442425 1_555
Na3 O50 2.456735 1_555
Na3 O70 2.482921 1_655
Na3 O33 2.670081 1_655
Na3 O12 2.708540 1_555
Na3 O5 2.806117 1_555
Na3 O7 2.810658 1_655
Na4 O48 2.413241 1_565
Na4 O71 2.445790 1_555
Na4 O70 2.480506 1_555
Na4 O49 2.560348 1_565
Na4 O13 2.609137 1_565
Na4 O34 2.680088 1_555
Na4 O8 2.778610 1_555
Na4 O3 2.810570 1_565
Na5 O64 2.432711 1_555
Na5 O42 2.451694 1_455
Na5 O43 2.469765 1_555
Na5 O65 2.504391 1_555
Na5 O7 2.647273 1_555
Na5 O28 2.703018 1_555
Na5 O21 2.789928 1_555
Na5 O14 2.830528 1_555
Na6 O43 2.382264 1_565
Na6 O63 2.463506 1_555
Na6 O65 2.466726 1_555
Na6 O44 2.520828 1_455
Na6 O29 2.677962 1_555
Na6 O8 2.691912 1_555
Na6 O12 2.774538 1_455
Na6 O22 2.814029 1_455
Na7 O63 2.422370 1_555
Na7 O44 2.430619 1_555
Na7 O42 2.508777 1_565
Na7 O64 2.530433 1_555
Na7 O6 2.603016 1_555
Na7 O27 2.670529 1_555
Na7 O13 2.727206 1_565
Na7 O23 2.901456 1_565
Na8 O61 2.422240 1_555
Na8 O45 2.435698 1_455
Na8 O47 2.520575 1_565
Na8 O62 2.532157 1_555
Na8 O26 2.676037 1_554
Na8 O11 2.710546 1_555
Na8 O18 2.716786 1_565
Na8 O16 2.727140 1_565
Na9 O62 2.439948 1_555
Na9 O45 2.458740 1_555
Na9 O60 2.491853 1_555
Na9 O46 2.494727 1_565
Na9 O9 2.653490 1_555
Na9 O24 2.704975 1_554
Na9 O19 2.720615 1_555
Na9 O17 2.812100 1_555
Na10 O47 2.453062 1_555
Na10 O61 2.462287 1_555
Na10 O46 2.474192 1_455
Na10 O60 2.480604 1_555
Na10 O25 2.671699 1_554
Na10 O15 2.724841 1_455
Na10 O10 2.726387 1_555
Na10 O20 2.813656 1_455
Na11 O40 2.338901 1_655
Na11 O55 2.354947 1_555
Na11 O54 2.499433 1_555
Na11 O41 2.516974 1_555
Na11 O19 2.554260 1_556
Na11 O4 2.632304 1_555
Na12 O56 2.332795 1_555
Na12 O41 2.370505 1_545
Na12 O39 2.496096 1_655
Na12 O55 2.533990 1_555
Na12 O5 2.534623 1_555
Na12 O20 2.605682 1_556
Na13 O38 2.345870 1_655
Na13 O59 2.375081 1_555
Na13 O57 2.461090 1_555
Na13 O37 2.497116 1_545
Na13 O2 2.593868 1_555
Na13 O23 2.629421 1_555
Na13 O28 2.874045 1_655
Na13 O30 2.938424 1_655
Na14 O36 2.353905 1_545
Na14 O57 2.436339 1_555
Na14 O58 2.452896 1_555
Na14 O21 2.553194 1_555
Na14 O38 2.553645 1_555
Na14 O0 2.662674 1_555
Na14 O29 2.828697 1_545
Na14 O31 2.900167 1_545
Na15 O43 2.478027 1_665
Na15 O44 2.494423 1_555
Na15 O36 2.505463 1_655
Na15 O37 2.521017 1_555
Na15 O38 2.552237 1_665
Na15 O42 2.577625 1_565
Na16 O39 2.496125 1_554
Na16 O40 2.498332 1_544
Na16 O45 2.511197 1_445
Na16 O47 2.534070 1_555
Na16 O41 2.575167 1_444
Na16 O46 2.584108 1_455
Na17 O48 2.427029 1_555
Na17 O54 2.474015 1_555
Na17 O56 2.488710 1_555
Na17 O49 2.501751 1_555
Na17 O50 2.560867 1_555
Na17 O55 2.562551 1_555
Na18 O52 2.493316 1_555
Na18 O58 2.494143 1_555
Na18 O53 2.528958 1_555
Na18 O51 2.531503 1_555
Na18 O59 2.531779 1_555
Na18 O57 2.532412 1_555
Na19 O66 2.524137 1_555
Na19 O61 2.526938 1_555
Na19 O67 2.535556 1_555
Na19 O62 2.546478 1_555
Na19 O68 2.567338 1_555
Na19 O60 2.607892 1_555
Na20 O71 2.475809 1_555
Na20 O63 2.494244 1_555
Na20 O70 2.566770 1_555
Na20 O64 2.569226 1_555
Na20 O69 2.596817 1_555
Na20 O65 2.612811 1_555
Al0 O1 1.838147 1_555
Al0 O2 1.892653 1_565
Al0 O0 1.904973 1_665
Al0 O37 1.960271 1_555
Al0 O36 2.006781 1_655
Al0 O38 2.103928 1_665
Al1 O45 1.891003 1_555
Al1 O9 1.903765 1_555
Al1 O10 1.929978 1_665
Al1 O11 1.931720 1_655
Al1 O46 2.024612 1_565
Al1 O47 2.035808 1_665
Al2 O25 1.863770 1_554
Al2 O26 1.879522 1_554
Al2 O61 1.891344 1_555
Al2 O24 1.892530 1_554
Al2 O60 2.008270 1_555
Al2 O62 2.016305 1_555
Al3 O63 1.872622 1_555
Al3 O27 1.902773 1_555
Al3 O28 1.926926 1_555
Al3 O29 1.938072 1_555
Al3 O64 1.992289 1_555
Al3 O65 2.008726 1_555
Al4 O31 1.834485 1_555
Al4 O32 1.888015 1_555
Al4 O30 1.898575 1_555
Al4 O67 1.964625 1_555
Al4 O66 2.007408 1_555
Al4 O68 2.108635 1_555
Al5 O35 1.872663 1_555
Al5 O71 1.875264 1_555
Al5 O34 1.879292 1_555
Al5 O33 1.898469 1_555
Al5 O69 1.964450 1_555
Al5 O70 1.996409 1_555
O0 P0 1.558902 1_545
O1 P1 1.542284 1_555
O2 P2 1.546774 1_655
O3 P3 1.531792 1_555
O3 Sc0 2.018169 1_555
O4 P4 1.538504 1_655
O4 Sc0 2.080906 1_665
O5 Si0 1.628941 1_545
O5 Sc0 1.980490 1_655
O6 Si0 1.636803 1_555
O6 Sc1 2.004597 1_555
O7 P3 1.551057 1_555
O7 Sc1 2.087439 1_445
O8 P4 1.551606 1_555
O8 Sc1 2.080482 1_455
O9 P1 1.552855 1_555
O10 P2 1.559587 1_555
O11 P0 1.561807 1_555
O12 P5 1.553106 1_555
O12 Sc2 2.084720 1_555
O13 Si1 1.641253 1_555
O13 Sc2 1.982763 1_555
O14 P6 1.549812 1_555
O14 Sc2 2.122019 1_555
O15 Si2 1.640995 1_555
O15 Sc3 2.003069 1_555
O16 P7 1.544682 1_555
O16 Sc3 2.040715 1_555
O17 P8 1.549845 1_555
O17 Sc3 2.129411 1_555
O18 P8 1.545230 1_555
O18 Sc4 2.042889 1_554
O19 Si2 1.641953 1_555
O19 Sc4 2.010711 1_554
O20 P7 1.550673 1_555
O20 Sc4 2.124655 1_554
O21 Si1 1.628161 1_555
O21 Sc5 1.981424 1_555
O22 P6 1.532040 1_555
O22 Sc5 2.006583 1_555
O23 P5 1.538042 1_555
O23 Sc5 2.093870 1_555
O24 P9 1.549199 1_555
O25 P10 1.541718 1_555
O26 P11 1.551120 1_555
O27 P12 1.552929 1_555
O28 P13 1.561197 1_555
O29 P14 1.562665 1_555
O30 P14 1.557473 1_555
O31 P12 1.540913 1_555
O32 P13 1.545281 1_555
O33 P10 1.552520 1_555
O34 P11 1.553854 1_555
O35 P9 1.544354 1_555
O36 P14 1.564039 1_555
O37 P12 1.562834 1_555
O38 P13 1.581899 1_555
O39 P10 1.543627 1_555
O39 Sc0 2.095505 1_555
O40 P11 1.543257 1_555
O40 Sc0 2.144631 1_565
O41 P9 1.568302 1_555
O41 Sc0 2.183336 1_665
O42 P5 1.545653 1_555
O42 Sc1 2.147096 1_545
O43 Si1 1.634199 1_555
O43 Sc1 2.075215 1_445
O44 P6 1.547012 1_555
O44 Sc1 2.145956 1_555
O45 Si2 1.649979 1_555
O46 P7 1.555527 1_555
O47 P8 1.558448 1_555
O48 Si0 1.638830 1_545
O48 Sc2 2.050237 1_555
O49 P3 1.545253 1_555
O49 Sc2 2.139596 1_555
O50 P4 1.543699 1_655
O50 Sc2 2.181719 1_555
O51 P1 1.573812 1_555
O51 Sc3 2.198229 1_555
O52 P2 1.551687 1_655
O52 Sc3 2.132020 1_555
O53 P0 1.548868 1_545
O53 Sc3 2.172797 1_555
O54 P9 1.548449 1_555
O54 Sc4 2.107167 1_555
O55 P10 1.569981 1_655
O55 Sc4 2.192412 1_555
O56 P11 1.548507 1_545
O56 Sc4 2.160368 1_555
O57 P12 1.571227 1_545
O57 Sc5 2.181061 1_555
O58 P13 1.547333 1_555
O58 Sc5 2.120383 1_555
O59 P14 1.545104 1_655
O59 Sc5 2.155165 1_555
O60 P8 1.554954 1_555
O61 Si2 1.648585 1_455
O62 P7 1.557586 1_565
O63 Si1 1.640027 1_565
O64 P6 1.552862 1_555
O65 P5 1.552883 1_455
O66 P0 1.563690 1_555
O67 P1 1.563360 1_555
O68 P2 1.582437 1_555
O69 P3 1.549393 1_555
O70 P4 1.551791 1_555
O71 Si0 1.640621 1_555
