# generated using pymatgen
data_Li3MoP2O9
_symmetry_space_group_name_H-M   'P 1'
_cell_length_a   7.17504600
_cell_length_b   7.21596776
_cell_length_c   8.01973949
_cell_angle_alpha   88.78279917
_cell_angle_beta   116.23311306
_cell_angle_gamma   93.06016259
_symmetry_Int_Tables_number   1
_chemical_formula_structural   Li3MoP2O9
_chemical_formula_sum   'Li6 Mo2 P4 O18'
_cell_volume   371.92230546
_cell_formula_units_Z   2
loop_
 _symmetry_equiv_pos_site_id
 _symmetry_equiv_pos_as_xyz
  1  'x, y, z'
loop_
 _atom_site_type_symbol
 _atom_site_label
 _atom_site_symmetry_multiplicity
 _atom_site_fract_x
 _atom_site_fract_y
 _atom_site_fract_z
 _atom_site_occupancy
  Li  Li0  1  0.91047900  0.74909200  0.81128600  1
  Li  Li1  1  0.99760600  0.49558500  0.50175100  1
  Li  Li2  1  0.41034100  0.32869700  0.74899600  1
  Li  Li3  1  0.58220000  0.66556300  0.24958900  1
  Li  Li4  1  0.15078700  0.25759000  0.19022000  1
  Li  Li5  1  0.76976600  0.99993800  0.00091300  1
  Mo  Mo0  1  0.49092000  0.00323600  0.49015800  1
  Mo  Mo1  1  0.00212200  0.99570200  0.50998900  1
  P  P0  1  0.87744400  0.29633200  0.75489600  1
  P  P1  1  0.61952800  0.24210900  0.19649100  1
  P  P2  1  0.09965600  0.70298400  0.24435400  1
  P  P3  1  0.39443800  0.75621100  0.80509800  1
  O  O0  1  0.23538100  0.10785800  0.46790400  1
  O  O1  1  0.99622000  0.22971200  0.63813000  1
  O  O2  1  0.10377700  0.49532200  0.24957400  1
  O  O3  1  0.69585200  0.42608400  0.29789200  1
  O  O4  1  0.95218300  0.19639200  0.93947000  1
  O  O5  1  0.33832300  0.78393500  0.33693500  1
  O  O6  1  0.50910100  0.75991800  0.01356500  1
  O  O7  1  0.19407200  0.88228500  0.74134900  1
  O  O8  1  0.81014900  0.10562700  0.26647800  1
  O  O9  1  0.54229400  0.87007000  0.73305600  1
  O  O10  1  0.52999800  0.23793400  0.98800000  1
  O  O11  1  0.63754900  0.22921200  0.63996300  1
  O  O12  1  0.31657500  0.57260700  0.70449700  1
  O  O13  1  0.98311000  0.80341500  0.06257500  1
  O  O14  1  0.89739200  0.50436000  0.74730900  1
  O  O15  1  0.45324800  0.14557400  0.25834300  1
  O  O16  1  0.00356500  0.75857300  0.38196400  1
  O  O17  1  0.75409900  0.89808300  0.52925200  1
loop_
_geom_bond_atom_site_label_1
_geom_bond_atom_site_label_2
_geom_bond_distance
_geom_bond_site_symmetry_2
Li0 O14 1.835469 1_555
Li0 O13 1.889408 1_556
Li0 O17 2.304916 1_555
Li0 O7 2.481116 1_655
Li0 O9 2.625310 1_555
Li1 O3 2.098018 1_555
Li1 O16 2.115705 1_655
Li1 O1 2.189868 1_555
Li1 O12 2.191641 1_655
Li1 O14 2.379327 1_555
Li1 O2 2.456155 1_655
Li2 O10 1.841705 1_555
Li2 O12 1.888183 1_555
Li2 O11 2.312884 1_555
Li2 O0 2.575734 1_555
Li3 O6 1.851285 1_555
Li3 O3 1.908932 1_555
Li3 O5 2.356016 1_555
Li3 O17 2.619182 1_555
Li4 O2 1.876589 1_555
Li4 O4 1.925294 1_454
Li4 O15 2.186744 1_555
Li4 O0 2.295205 1_555
Li5 O13 2.032619 1_555
Li5 O4 2.075545 1_564
Li5 O8 2.168258 1_565
Li5 O9 2.231426 1_554
Li5 O10 2.463752 1_564
Li5 O6 2.514447 1_555
Mo0 O0 1.953540 1_555
Mo0 O17 1.964508 1_545
Mo0 O5 1.980197 1_545
Mo0 O11 1.997960 1_555
Mo0 O15 2.022009 1_555
Mo0 O9 2.043861 1_545
Mo1 O17 1.947186 1_455
Mo1 O7 1.950903 1_555
Mo1 O0 1.978165 1_565
Mo1 O8 2.003262 1_465
Mo1 O1 2.007263 1_465
Mo1 O16 2.016958 1_555
O1 P0 1.613280 1_555
O2 P2 1.499682 1_555
O3 P1 1.515969 1_555
O4 P0 1.514245 1_555
O5 P2 1.616343 1_555
O6 P3 1.502079 1_554
O7 P3 1.620470 1_555
O8 P1 1.611608 1_555
O9 P3 1.600912 1_555
O10 P1 1.503269 1_556
O11 P0 1.604456 1_555
O12 P3 1.512036 1_555
O13 P2 1.513875 1_655
O14 P0 1.502810 1_555
O15 P1 1.604517 1_555
O16 P2 1.604735 1_555
