# generated using pymatgen
data_ZnSiPbO4
_symmetry_space_group_name_H-M   'P 1'
_cell_length_a   5.14558700
_cell_length_b   8.36671300
_cell_length_c   19.30335200
_cell_angle_alpha   90.00000000
_cell_angle_beta   90.00000000
_cell_angle_gamma   90.00000000
_symmetry_Int_Tables_number   1
_chemical_formula_structural   ZnSiPbO4
_chemical_formula_sum   'Zn8 Si8 Pb8 O32'
_cell_volume   831.04114729
_cell_formula_units_Z   8
loop_
 _symmetry_equiv_pos_site_id
 _symmetry_equiv_pos_as_xyz
  1  'x, y, z'
loop_
 _atom_site_type_symbol
 _atom_site_label
 _atom_site_symmetry_multiplicity
 _atom_site_fract_x
 _atom_site_fract_y
 _atom_site_fract_z
 _atom_site_occupancy
  Zn  Zn0  1  0.72112500  0.00032700  0.44228100  1
  Zn  Zn1  1  0.22112500  0.99967300  0.55771900  1
  Zn  Zn2  1  0.22112500  0.49967300  0.94228100  1
  Zn  Zn3  1  0.72112500  0.50032700  0.05771900  1
  Zn  Zn4  1  0.71992800  0.31978700  0.34447800  1
  Zn  Zn5  1  0.21992800  0.68021300  0.65552200  1
  Zn  Zn6  1  0.21992800  0.18021300  0.84447800  1
  Zn  Zn7  1  0.71992800  0.81978700  0.15552200  1
  Si  Si0  1  0.21069400  0.22961600  0.42745600  1
  Si  Si1  1  0.71069400  0.77038400  0.57254400  1
  Si  Si2  1  0.71069400  0.27038400  0.92745600  1
  Si  Si3  1  0.21069400  0.72961600  0.07254400  1
  Si  Si4  1  0.72615500  0.70132600  0.32224200  1
  Si  Si5  1  0.22615500  0.29867400  0.67775800  1
  Si  Si6  1  0.22615500  0.79867400  0.82224200  1
  Si  Si7  1  0.72615500  0.20132600  0.17775800  1
  Pb  Pb0  1  0.28659300  0.64727700  0.44050100  1
  Pb  Pb1  1  0.78659300  0.35272300  0.55949900  1
  Pb  Pb2  1  0.78659300  0.85272300  0.94050100  1
  Pb  Pb3  1  0.28659300  0.14727700  0.05949900  1
  Pb  Pb4  1  0.25331400  0.54108100  0.23176200  1
  Pb  Pb5  1  0.75331400  0.45891900  0.76823800  1
  Pb  Pb6  1  0.75331400  0.95891900  0.73176200  1
  Pb  Pb7  1  0.25331400  0.04108100  0.26823800  1
  O  O0  1  0.52805300  0.20162400  0.41985500  1
  O  O1  1  0.02805300  0.79837600  0.58014500  1
  O  O2  1  0.02805300  0.29837600  0.91985500  1
  O  O3  1  0.52805300  0.70162400  0.08014500  1
  O  O4  1  0.14791000  0.38880300  0.47388700  1
  O  O5  1  0.64791000  0.61119700  0.52611300  1
  O  O6  1  0.64791000  0.11119700  0.97388700  1
  O  O7  1  0.14791000  0.88880300  0.02611300  1
  O  O8  1  0.08178200  0.06992300  0.46548500  1
  O  O9  1  0.58178200  0.93007700  0.53451500  1
  O  O10  1  0.58178200  0.43007700  0.96548500  1
  O  O11  1  0.08178200  0.56992300  0.03451500  1
  O  O12  1  0.08386400  0.24584400  0.34901400  1
  O  O13  1  0.58386400  0.75415600  0.65098600  1
  O  O14  1  0.58386400  0.25415600  0.84901400  1
  O  O15  1  0.08386400  0.74584400  0.15098600  1
  O  O16  1  0.04048500  0.67606000  0.31930500  1
  O  O17  1  0.54048500  0.32394000  0.68069500  1
  O  O18  1  0.54048500  0.82394000  0.81930500  1
  O  O19  1  0.04048500  0.17606000  0.18069500  1
  O  O20  1  0.57796200  0.53738100  0.35316900  1
  O  O21  1  0.07796200  0.46261900  0.64683100  1
  O  O22  1  0.07796200  0.96261900  0.85316900  1
  O  O23  1  0.57796200  0.03738100  0.14683100  1
  O  O24  1  0.59867700  0.22280000  0.25640000  1
  O  O25  1  0.09867700  0.77720000  0.74360000  1
  O  O26  1  0.09867700  0.27720000  0.75640000  1
  O  O27  1  0.59867700  0.72280000  0.24360000  1
  O  O28  1  0.63445900  0.34942000  0.12872100  1
  O  O29  1  0.13445900  0.65058000  0.87127900  1
  O  O30  1  0.13445900  0.15058000  0.62872100  1
  O  O31  1  0.63445900  0.84942000  0.37127900  1
loop_
_geom_bond_atom_site_label_1
_geom_bond_atom_site_label_2
_geom_bond_distance
_geom_bond_site_symmetry_2
O0 Si0 1.656219 1_555
O0 Zn0 2.002721 1_555
O0 Zn4 2.017248 1_555
O1 Si1 1.656219 1_455
O1 Zn1 2.002721 1_555
O1 Zn5 2.017248 1_555
O2 Si2 1.656219 1_455
O2 Zn2 2.002721 1_555
O2 Zn6 2.017248 1_555
O3 Si3 1.656219 1_555
O3 Zn3 2.002721 1_555
O3 Zn7 2.017248 1_555
O4 Si0 1.637546 1_555
O4 Pb0 2.366708 1_555
O4 Pb1 2.505751 1_455
O5 Si1 1.637546 1_555
O5 Pb1 2.366708 1_555
O5 Pb0 2.505751 1_555
O6 Si2 1.637546 1_555
O6 Pb2 2.366708 1_545
O6 Pb3 2.505751 1_556
O7 Si3 1.637546 1_555
O7 Pb3 2.366708 1_565
O7 Pb2 2.505751 1_454
O8 Si0 1.662548 1_555
O8 Zn0 1.995909 1_455
O8 Zn1 2.007354 1_545
O9 Si1 1.662548 1_555
O9 Zn1 1.995909 1_555
O9 Zn0 2.007354 1_565
O10 Si2 1.662548 1_555
O10 Zn2 1.995909 1_555
O10 Zn3 2.007354 1_556
O11 Si3 1.662548 1_555
O11 Zn3 1.995909 1_455
O11 Zn2 2.007354 1_554
O12 Si0 1.654425 1_555
O12 Zn4 1.974153 1_455
O12 Pb7 2.475182 1_555
O13 Si1 1.654425 1_555
O13 Zn5 1.974153 1_555
O13 Pb6 2.475182 1_555
O14 Si2 1.654425 1_555
O14 Zn6 1.974153 1_555
O14 Pb5 2.475182 1_555
O15 Si3 1.654425 1_555
O15 Zn7 1.974153 1_455
O15 Pb4 2.475182 1_555
O16 Si4 1.632153 1_455
O16 Pb4 2.308759 1_555
O16 Pb0 2.671123 1_555
O17 Si5 1.632153 1_555
O17 Pb5 2.308759 1_555
O17 Pb1 2.671123 1_555
O18 Si6 1.632153 1_555
O18 Pb6 2.308759 1_555
O18 Pb2 2.671123 1_555
O19 Si7 1.632153 1_455
O19 Pb7 2.308759 1_555
O19 Pb3 2.671123 1_555
O20 Si4 1.679100 1_555
O20 Zn4 1.968797 1_555
O20 Pb0 2.436214 1_555
O21 Si5 1.679100 1_555
O21 Zn5 1.968797 1_555
O21 Pb1 2.436214 1_455
O22 Si6 1.679100 1_555
O22 Zn6 1.968797 1_565
O22 Pb2 2.436214 1_455
O23 Si7 1.679100 1_555
O23 Zn7 1.968797 1_545
O23 Pb3 2.436214 1_555
O24 Si7 1.663442 1_555
O24 Zn4 1.984544 1_555
O24 Pb7 2.349867 1_555
O25 Si6 1.663442 1_555
O25 Zn5 1.984544 1_555
O25 Pb6 2.349867 1_455
O26 Si5 1.663442 1_555
O26 Zn6 1.984544 1_555
O26 Pb5 2.349867 1_455
O27 Si4 1.663442 1_555
O27 Zn7 1.984544 1_555
O27 Pb4 2.349867 1_555
O28 Si7 1.629081 1_555
O28 Zn3 1.916115 1_555
O28 Pb3 2.801765 1_555
O29 Si6 1.629081 1_555
O29 Zn2 1.916115 1_555
O29 Pb2 2.801765 1_455
O30 Si5 1.629081 1_555
O30 Zn1 1.916115 1_545
O30 Pb1 2.801765 1_455
O31 Si4 1.629081 1_555
O31 Zn0 1.916115 1_565
O31 Pb0 2.801765 1_555
