# generated using pymatgen
data_NaBi(PO3)4
_symmetry_space_group_name_H-M   'P 1'
_cell_length_a   13.30596800
_cell_length_b   7.29915800
_cell_length_c   12.33407752
_cell_angle_alpha   54.04438912
_cell_angle_beta   90.00000000
_cell_angle_gamma   90.00000000
_symmetry_Int_Tables_number   1
_chemical_formula_structural   NaBi(PO3)4
_chemical_formula_sum   'Na4 Bi4 P16 O48'
_cell_volume   969.67860520
_cell_formula_units_Z   4
loop_
 _symmetry_equiv_pos_site_id
 _symmetry_equiv_pos_as_xyz
  1  'x, y, z'
loop_
 _atom_site_type_symbol
 _atom_site_label
 _atom_site_symmetry_multiplicity
 _atom_site_fract_x
 _atom_site_fract_y
 _atom_site_fract_z
 _atom_site_occupancy
  Na  Na0  1  0.77857200  0.93462400  0.56369800  1
  Na  Na1  1  0.27857200  0.06537600  0.93630200  1
  Na  Na2  1  0.22142800  0.06537600  0.43630200  1
  Na  Na3  1  0.72142800  0.93462400  0.06369800  1
  Bi  Bi0  1  0.78087500  0.53440500  0.47770300  1
  Bi  Bi1  1  0.28087500  0.46559500  0.02229700  1
  Bi  Bi2  1  0.21912500  0.46559500  0.52229700  1
  Bi  Bi3  1  0.71912500  0.53440500  0.97770300  1
  P  P0  1  0.61410300  0.11330100  0.76436800  1
  P  P1  1  0.87199900  0.34212400  0.80365900  1
  P  P2  1  0.62800100  0.34212400  0.30365900  1
  P  P3  1  0.12800100  0.65787600  0.19634100  1
  P  P4  1  0.60126200  0.00820700  0.24139400  1
  P  P5  1  0.10126200  0.99179300  0.25860600  1
  P  P6  1  0.39873800  0.99179300  0.75860600  1
  P  P7  1  0.89873800  0.00820700  0.74139400  1
  P  P8  1  0.37199900  0.65787600  0.69634100  1
  P  P9  1  0.11410300  0.88669900  0.73563200  1
  P  P10  1  0.91006500  0.56984300  0.20016500  1
  P  P11  1  0.88589700  0.11330100  0.26436800  1
  P  P12  1  0.58993500  0.56984300  0.70016500  1
  P  P13  1  0.08993500  0.43015700  0.79983500  1
  P  P14  1  0.41006500  0.43015700  0.29983500  1
  P  P15  1  0.38589700  0.88669900  0.23563200  1
  O  O0  1  0.47799200  0.64760800  0.63679100  1
  O  O1  1  0.97799200  0.35239200  0.86320900  1
  O  O2  1  0.52200800  0.35239200  0.36320900  1
  O  O3  1  0.02200800  0.64760800  0.13679100  1
  O  O4  1  0.66031400  0.66060100  0.58386800  1
  O  O5  1  0.16031400  0.33939900  0.91613200  1
  O  O6  1  0.33968600  0.33939900  0.41613200  1
  O  O7  1  0.83968600  0.66060100  0.08386800  1
  O  O8  1  0.29070500  0.68234800  0.60387200  1
  O  O9  1  0.79070500  0.31765200  0.89612800  1
  O  O10  1  0.70929500  0.31765200  0.39612800  1
  O  O11  1  0.20929500  0.68234800  0.10387200  1
  O  O12  1  0.66498600  0.80126800  0.29213500  1
  O  O13  1  0.16498600  0.19873200  0.20786500  1
  O  O14  1  0.33501400  0.19873200  0.70786500  1
  O  O15  1  0.83501400  0.80126800  0.79213500  1
  O  O16  1  0.36578100  0.47286200  0.84402400  1
  O  O17  1  0.64528300  0.90682100  0.89905600  1
  O  O18  1  0.86578100  0.52713800  0.65597600  1
  O  O19  1  0.13421900  0.47286200  0.34402400  1
  O  O20  1  0.60859300  0.63516200  0.79360700  1
  O  O21  1  0.10859300  0.36483800  0.70639300  1
  O  O22  1  0.39140700  0.36483800  0.20639300  1
  O  O23  1  0.89140700  0.63516200  0.29360700  1
  O  O24  1  0.81240300  0.21112000  0.15118700  1
  O  O25  1  0.31240300  0.78888000  0.34881300  1
  O  O26  1  0.18759700  0.78888000  0.84881300  1
  O  O27  1  0.68759700  0.21112000  0.65118700  1
  O  O28  1  0.12425300  0.90263200  0.16937000  1
  O  O29  1  0.62425300  0.09736800  0.33063000  1
  O  O30  1  0.87574700  0.09736800  0.83063000  1
  O  O31  1  0.37574700  0.90263200  0.66937000  1
  O  O32  1  0.98736900  0.07258900  0.21189800  1
  O  O33  1  0.48736900  0.92741100  0.28810200  1
  O  O34  1  0.01263100  0.92741100  0.78810200  1
  O  O35  1  0.51263100  0.07258900  0.71189800  1
  O  O36  1  0.89196100  0.19285800  0.59286300  1
  O  O37  1  0.39196100  0.80714200  0.90713700  1
  O  O38  1  0.10803900  0.80714200  0.40713700  1
  O  O39  1  0.60803900  0.19285800  0.09286300  1
  O  O40  1  0.91911400  0.29766000  0.28984300  1
  O  O41  1  0.41911400  0.70234000  0.21015700  1
  O  O42  1  0.08088600  0.70234000  0.71015700  1
  O  O43  1  0.58088600  0.29766000  0.78984300  1
  O  O44  1  0.85471700  0.90682100  0.39905600  1
  O  O45  1  0.35471700  0.09317900  0.10094400  1
  O  O46  1  0.14528300  0.09317900  0.60094400  1
  O  O47  1  0.63421900  0.52713800  0.15597600  1
loop_
_geom_bond_atom_site_label_1
_geom_bond_atom_site_label_2
_geom_bond_distance
_geom_bond_site_symmetry_2
Na0 O44 2.382318 1_555
Na0 O4 2.440108 1_555
Na0 O10 2.480364 1_565
Na0 O15 2.495896 1_555
Na0 O36 2.598995 1_565
Na0 O18 2.741000 1_555
Na1 O45 2.382318 1_556
Na1 O5 2.440108 1_555
Na1 O11 2.480364 1_546
Na1 O14 2.495896 1_555
Na1 O37 2.598995 1_545
Na1 O16 2.741000 1_555
Na2 O46 2.382318 1_555
Na2 O6 2.440108 1_555
Na2 O8 2.480364 1_545
Na2 O13 2.495896 1_555
Na2 O38 2.598995 1_545
Na2 O19 2.741000 1_555
Na3 O17 2.382318 1_554
Na3 O7 2.440108 1_555
Na3 O9 2.480364 1_564
Na3 O12 2.495896 1_555
Na3 O39 2.598995 1_565
Na3 O47 2.741000 1_555
Bi0 O27 2.399562 1_555
Bi0 O23 2.428740 1_555
Bi0 O18 2.444804 1_555
Bi0 O12 2.484996 1_555
Bi0 O44 2.489801 1_555
Bi0 O36 2.501816 1_555
Bi0 O10 2.508367 1_555
Bi0 O4 2.559871 1_555
Bi1 O26 2.399562 1_554
Bi1 O22 2.428740 1_555
Bi1 O16 2.444804 1_554
Bi1 O13 2.484996 1_555
Bi1 O45 2.489801 1_555
Bi1 O37 2.501816 1_554
Bi1 O11 2.508367 1_555
Bi1 O5 2.559871 1_554
Bi2 O25 2.399562 1_555
Bi2 O21 2.428740 1_555
Bi2 O19 2.444804 1_555
Bi2 O14 2.484996 1_555
Bi2 O46 2.489801 1_555
Bi2 O38 2.501816 1_555
Bi2 O8 2.508367 1_555
Bi2 O6 2.559871 1_555
Bi3 O24 2.399562 1_556
Bi3 O20 2.428740 1_555
Bi3 O47 2.444804 1_556
Bi3 O15 2.484996 1_555
Bi3 O17 2.489801 1_555
Bi3 O39 2.501816 1_556
Bi3 O9 2.508367 1_555
Bi3 O7 2.559871 1_556
O0 P8 1.612080 1_555
O0 P12 1.621973 1_555
O1 P1 1.612080 1_555
O1 P13 1.621973 1_655
O2 P2 1.612080 1_555
O2 P14 1.621973 1_555
O3 P3 1.612080 1_555
O3 P10 1.621973 1_455
O4 P12 1.502490 1_555
O5 P13 1.502490 1_555
O6 P14 1.502490 1_555
O7 P10 1.502490 1_555
O8 P8 1.504500 1_555
O9 P1 1.504500 1_555
O10 P2 1.504500 1_555
O11 P3 1.504500 1_555
O12 P4 1.510653 1_565
O13 P5 1.510653 1_545
O14 P6 1.510653 1_545
O15 P7 1.510653 1_565
O16 P8 1.503281 1_555
O17 P0 1.504381 1_565
O18 P1 1.503281 1_555
O19 P3 1.503281 1_555
O20 P12 1.504171 1_555
O21 P13 1.504171 1_555
O22 P14 1.504171 1_555
O23 P10 1.504171 1_555
O24 P11 1.498130 1_555
O25 P15 1.498130 1_555
O26 P9 1.498130 1_555
O27 P0 1.498130 1_555
O28 P5 1.603030 1_555
O28 P3 1.614582 1_555
O29 P4 1.603030 1_555
O29 P2 1.614582 1_555
O30 P7 1.603030 1_555
O30 P1 1.614582 1_555
O31 P6 1.603030 1_555
O31 P8 1.614582 1_555
O32 P11 1.598739 1_555
O32 P5 1.605404 1_645
O33 P15 1.598739 1_555
O33 P4 1.605404 1_565
O34 P9 1.598739 1_555
O34 P7 1.605404 1_465
O35 P0 1.598739 1_555
O35 P6 1.605404 1_545
O36 P7 1.510403 1_555
O37 P6 1.510403 1_555
O38 P5 1.510403 1_555
O39 P4 1.510403 1_555
O40 P11 1.612892 1_555
O40 P10 1.613816 1_555
O41 P15 1.612892 1_555
O41 P14 1.613816 1_555
O42 P9 1.612892 1_555
O42 P13 1.613816 1_555
O43 P0 1.612892 1_555
O43 P12 1.613816 1_555
O44 P11 1.504381 1_565
O45 P15 1.504381 1_545
O46 P9 1.504381 1_545
O47 P2 1.503281 1_555
