# generated using pymatgen
data_Na2YGe(PO4)3
_symmetry_space_group_name_H-M   'P 1'
_cell_length_a   8.98463127
_cell_length_b   8.98463097
_cell_length_c   22.34171192
_cell_angle_alpha   90.47321916
_cell_angle_beta   89.52678084
_cell_angle_gamma   120.61789160
_symmetry_Int_Tables_number   1
_chemical_formula_structural   Na2YGe(PO4)3
_chemical_formula_sum   'Na12 Y6 Ge6 P18 O72'
_cell_volume   1551.99421381
_cell_formula_units_Z   6
loop_
 _symmetry_equiv_pos_site_id
 _symmetry_equiv_pos_as_xyz
  1  'x, y, z'
loop_
 _atom_site_type_symbol
 _atom_site_label
 _atom_site_symmetry_multiplicity
 _atom_site_fract_x
 _atom_site_fract_y
 _atom_site_fract_z
 _atom_site_occupancy
  Na  Na0  1  0.35672213  0.34544417  0.25114364  1
  Na  Na1  1  0.65455583  0.64327787  0.75114364  1
  Na  Na2  1  0.02338913  0.67877717  0.58447664  1
  Na  Na3  1  0.32122283  0.97661087  0.08447664  1
  Na  Na4  1  0.69005513  0.01211117  0.91781064  1
  Na  Na5  1  0.98788883  0.30994487  0.41781064  1
  Na  Na6  1  0.99827838  0.99843590  0.50313892  1
  Na  Na7  1  0.00156410  0.00172162  0.00313892  1
  Na  Na8  1  0.66494538  0.33176890  0.83647192  1
  Na  Na9  1  0.66823110  0.33505462  0.33647192  1
  Na  Na10  1  0.33161138  0.66510290  0.16980592  1
  Na  Na11  1  0.33489710  0.66838862  0.66980592  1
  Y  Y0  1  0.99550634  0.98669036  0.35622736  1
  Y  Y1  1  0.01330964  0.00449366  0.85622736  1
  Y  Y2  1  0.66217334  0.32002336  0.68956036  1
  Y  Y3  1  0.67997664  0.33782666  0.18956036  1
  Y  Y4  1  0.32883934  0.65335736  0.02289436  1
  Y  Y5  1  0.34664264  0.67116066  0.52289436  1
  Ge  Ge0  1  0.00467102  0.01102880  0.64789558  1
  Ge  Ge1  1  0.98897120  0.99532898  0.14789558  1
  Ge  Ge2  1  0.67133802  0.34436180  0.98122858  1
  Ge  Ge3  1  0.65563820  0.32866198  0.48122858  1
  Ge  Ge4  1  0.33800402  0.67769580  0.31456258  1
  Ge  Ge5  1  0.32230420  0.66199598  0.81456258  1
  P  P0  1  0.27989370  0.97453417  0.24747448  1
  P  P1  1  0.69093720  0.71927826  0.24838054  1
  P  P2  1  0.02200662  0.30257874  0.25341944  1
  P  P3  1  0.28072174  0.30906280  0.74838054  1
  P  P4  1  0.02546583  0.72010630  0.74747448  1
  P  P5  1  0.69742126  0.97799338  0.75341944  1
  P  P6  1  0.94656070  0.30786717  0.58080748  1
  P  P7  1  0.35760420  0.05261126  0.58171354  1
  P  P8  1  0.68867362  0.63591174  0.58675244  1
  P  P9  1  0.94738874  0.64239580  0.08171354  1
  P  P10  1  0.69213283  0.05343930  0.08080748  1
  P  P11  1  0.36408826  0.31132638  0.08675244  1
  P  P12  1  0.61322670  0.64120117  0.91414148  1
  P  P13  1  0.02427020  0.38594526  0.91504754  1
  P  P14  1  0.35533962  0.96924574  0.92008644  1
  P  P15  1  0.61405474  0.97572980  0.41504754  1
  P  P16  1  0.35879883  0.38677330  0.41414148  1
  P  P17  1  0.03075426  0.64466038  0.42008644  1
  O  O0  1  0.19958232  0.01122825  0.30068714  1
  O  O1  1  0.79332273  0.79152184  0.30479945  1
  O  O2  1  0.00621166  0.20966625  0.31141105  1
  O  O3  1  0.20847816  0.20667727  0.80479945  1
  O  O4  1  0.98877175  0.80041768  0.80068714  1
  O  O5  1  0.79033375  0.99378834  0.81141105  1
  O  O6  1  0.79560919  0.95122894  0.69802019  1
  O  O7  1  0.16830273  0.21448550  0.69102088  1
  O  O8  1  0.04874289  0.82726753  0.68812582  1
  O  O9  1  0.78551450  0.83169727  0.19102088  1
  O  O10  1  0.04877106  0.20439081  0.19802019  1
  O  O11  1  0.17273247  0.95125711  0.18812582  1
  O  O12  1  0.86624932  0.34456125  0.63402014  1
  O  O13  1  0.45998973  0.12485484  0.63813245  1
  O  O14  1  0.67287866  0.54299925  0.64474405  1
  O  O15  1  0.87514516  0.54001027  0.13813245  1
  O  O16  1  0.65543875  0.13375068  0.13402014  1
  O  O17  1  0.45700075  0.32712134  0.14474405  1
  O  O18  1  0.46227619  0.28456194  0.03135319  1
  O  O19  1  0.83496973  0.54781850  0.02435388  1
  O  O20  1  0.71540989  0.16060053  0.02145882  1
  O  O21  1  0.45218150  0.16503027  0.52435388  1
  O  O22  1  0.71543806  0.53772381  0.53135319  1
  O  O23  1  0.83939947  0.28459011  0.52145882  1
  O  O24  1  0.53291532  0.67789525  0.96735414  1
  O  O25  1  0.12665573  0.45818884  0.97146645  1
  O  O26  1  0.33954466  0.87633325  0.97807805  1
  O  O27  1  0.54181116  0.87334427  0.47146645  1
  O  O28  1  0.32210475  0.46708468  0.46735414  1
  O  O29  1  0.12366675  0.66045534  0.47807805  1
  O  O30  1  0.12894219  0.61789594  0.36468719  1
  O  O31  1  0.50163573  0.88115250  0.35768788  1
  O  O32  1  0.38207589  0.49393453  0.35479282  1
  O  O33  1  0.11884750  0.49836427  0.85768788  1
  O  O34  1  0.38210406  0.87105781  0.86468719  1
  O  O35  1  0.50606547  0.61792411  0.85479282  1
  O  O36  1  0.00093525  0.79542615  0.41460449  1
  O  O37  1  0.80142953  0.01699110  0.40882524  1
  O  O38  1  0.20161597  0.20262707  0.40966056  1
  O  O39  1  0.98300890  0.19857047  0.90882524  1
  O  O40  1  0.20457385  0.99906475  0.91460449  1
  O  O41  1  0.79737293  0.79838403  0.90966056  1
  O  O42  1  0.95246588  0.13736726  0.58941157  1
  O  O43  1  0.17978337  0.04681643  0.58700422  1
  O  O44  1  0.86399727  0.81739745  0.58874943  1
  O  O45  1  0.95318357  0.82021663  0.08700422  1
  O  O46  1  0.86263274  0.04753412  0.08941157  1
  O  O47  1  0.18260255  0.13600273  0.08874943  1
  O  O48  1  0.66760225  0.12875915  0.74793749  1
  O  O49  1  0.46809653  0.35032410  0.74215824  1
  O  O50  1  0.86828297  0.53596007  0.74299356  1
  O  O51  1  0.64967590  0.53190347  0.24215824  1
  O  O52  1  0.87124085  0.33239775  0.24793749  1
  O  O53  1  0.46403993  0.13171703  0.24299356  1
  O  O54  1  0.61913288  0.47070026  0.92274457  1
  O  O55  1  0.84645037  0.38014943  0.92033722  1
  O  O56  1  0.53066427  0.15073045  0.92208243  1
  O  O57  1  0.61985057  0.15354963  0.42033722  1
  O  O58  1  0.52929974  0.38086712  0.42274457  1
  O  O59  1  0.84926955  0.46933573  0.42208243  1
  O  O60  1  0.33426825  0.46209315  0.08127149  1
  O  O61  1  0.13476253  0.68365810  0.07549224  1
  O  O62  1  0.53494897  0.86929407  0.07632756  1
  O  O63  1  0.31634190  0.86523747  0.57549224  1
  O  O64  1  0.53790685  0.66573175  0.58127149  1
  O  O65  1  0.13070593  0.46505103  0.57632756  1
  O  O66  1  0.28579888  0.80403426  0.25607857  1
  O  O67  1  0.51311637  0.71348343  0.25367122  1
  O  O68  1  0.19733027  0.48406445  0.25541643  1
  O  O69  1  0.28651657  0.48688363  0.75367122  1
  O  O70  1  0.19596574  0.71420112  0.75607857  1
  O  O71  1  0.51593555  0.80266973  0.75541643  1
loop_
_geom_bond_atom_site_label_1
_geom_bond_atom_site_label_2
_geom_bond_distance
_geom_bond_site_symmetry_2
Na0 O51 2.297816 1_555
Na0 O68 2.328880 1_555
Na0 O53 2.554915 1_555
Na0 O17 2.568836 1_555
Na0 O32 2.615794 1_555
Na0 O10 2.669783 1_555
Na0 O0 2.818866 1_555
Na0 O67 2.859578 1_555
Na1 O49 2.297816 1_555
Na1 O71 2.328880 1_555
Na1 O50 2.554915 1_555
Na1 O14 2.568836 1_555
Na1 O35 2.615794 1_555
Na1 O6 2.669783 1_555
Na1 O4 2.818866 1_555
Na1 O69 2.859578 1_555
Na2 O63 2.297808 1_555
Na2 O44 2.328880 1_455
Na2 O65 2.554898 1_555
Na2 O29 2.568810 1_555
Na2 O8 2.615794 1_555
Na2 O22 2.669783 1_455
Na2 O12 2.818866 1_455
Na2 O43 2.859578 1_565
Na3 O61 2.297808 1_555
Na3 O47 2.328880 1_565
Na3 O62 2.554898 1_555
Na3 O26 2.568810 1_554
Na3 O11 2.615794 1_555
Na3 O18 2.669783 1_565
Na3 O16 2.818866 1_565
Na3 O45 2.859578 1_455
Na4 O39 2.297816 1_555
Na4 O56 2.328863 1_555
Na4 O41 2.554915 1_545
Na4 O5 2.568836 1_545
Na4 O20 2.615769 1_556
Na4 O34 2.669783 1_545
Na4 O24 2.818866 1_545
Na4 O55 2.859569 1_555
Na5 O37 2.297816 1_555
Na5 O59 2.328863 1_555
Na5 O38 2.554915 1_655
Na5 O2 2.568836 1_655
Na5 O23 2.615769 1_555
Na5 O30 2.669783 1_655
Na5 O28 2.818866 1_655
Na5 O57 2.859569 1_555
Na6 O43 2.382016 1_665
Na6 O44 2.402909 1_555
Na6 O42 2.431712 1_565
Na6 O36 2.687737 1_655
Na6 O38 2.766086 1_665
Na6 O37 2.821964 1_565
Na7 O45 2.382016 1_445
Na7 O47 2.402909 1_555
Na7 O46 2.431712 1_455
Na7 O40 2.687737 1_544
Na7 O41 2.766086 1_444
Na7 O39 2.821964 1_454
Na8 O55 2.382016 1_555
Na8 O56 2.402909 1_555
Na8 O54 2.431712 1_555
Na8 O48 2.687737 1_555
Na8 O50 2.766086 1_555
Na8 O49 2.821964 1_555
Na9 O57 2.382016 1_555
Na9 O59 2.402909 1_555
Na9 O58 2.431712 1_555
Na9 O52 2.687737 1_555
Na9 O53 2.766086 1_555
Na9 O51 2.821964 1_555
Na10 O67 2.382016 1_555
Na10 O68 2.402909 1_555
Na10 O66 2.431712 1_555
Na10 O60 2.687737 1_555
Na10 O62 2.766086 1_555
Na10 O61 2.821964 1_555
Na11 O69 2.382016 1_555
Na11 O71 2.402909 1_555
Na11 O70 2.431712 1_555
Na11 O64 2.687737 1_555
Na11 O65 2.766086 1_555
Na11 O63 2.821964 1_555
Ge0 O7 1.920432 1_555
Ge0 O42 1.947487 1_455
Ge0 O43 1.971300 1_555
Ge0 O6 2.004534 1_445
Ge0 O44 2.029790 1_445
Ge0 O8 2.094485 1_545
Ge1 O9 1.920432 1_555
Ge1 O46 1.947487 1_565
Ge1 O45 1.971300 1_555
Ge1 O10 2.004534 1_665
Ge1 O47 2.029790 1_665
Ge1 O11 2.094485 1_655
Ge2 O19 1.920432 1_556
Ge2 O54 1.947487 1_555
Ge2 O55 1.971300 1_555
Ge2 O18 2.004534 1_556
Ge2 O56 2.029790 1_555
Ge2 O20 2.094485 1_556
Ge3 O21 1.920432 1_555
Ge3 O58 1.947487 1_555
Ge3 O57 1.971300 1_555
Ge3 O22 2.004534 1_555
Ge3 O59 2.029790 1_555
Ge3 O23 2.094485 1_555
Ge4 O31 1.920432 1_555
Ge4 O66 1.947487 1_555
Ge4 O67 1.971300 1_555
Ge4 O30 2.004534 1_555
Ge4 O68 2.029790 1_555
Ge4 O32 2.094485 1_555
Ge5 O33 1.920432 1_555
Ge5 O70 1.947487 1_555
Ge5 O69 1.971300 1_555
Ge5 O34 2.004534 1_555
Ge5 O71 2.029790 1_555
Ge5 O35 2.094485 1_555
O0 P0 1.504798 1_545
O0 Y0 2.122598 1_445
O1 P1 1.501265 1_555
O1 Y0 2.109827 1_555
O2 P2 1.513216 1_555
O2 Y0 2.204654 1_445
O3 P3 1.501265 1_555
O3 Y1 2.109827 1_555
O4 P4 1.504798 1_655
O4 Y1 2.122598 1_665
O5 P5 1.513216 1_555
O5 Y1 2.204654 1_665
O6 P5 1.600357 1_555
O7 P3 1.585453 1_555
O8 P4 1.593824 1_555
O9 P1 1.585453 1_555
O10 P2 1.600357 1_555
O11 P0 1.593824 1_555
O12 P6 1.504798 1_555
O12 Y2 2.122598 1_555
O13 P7 1.501265 1_555
O13 Y2 2.109827 1_555
O14 P8 1.513216 1_555
O14 Y2 2.204654 1_555
O15 P9 1.501265 1_555
O15 Y3 2.109827 1_555
O16 P10 1.504798 1_555
O16 Y3 2.122598 1_555
O17 P11 1.513216 1_555
O17 Y3 2.204654 1_555
O18 P11 1.600357 1_555
O19 P9 1.585453 1_555
O20 P10 1.593824 1_555
O21 P7 1.585453 1_555
O22 P8 1.600357 1_555
O23 P6 1.593824 1_555
O24 P12 1.504798 1_555
O24 Y4 2.122598 1_556
O25 P13 1.501265 1_555
O25 Y4 2.109827 1_556
O26 P14 1.513216 1_555
O26 Y4 2.204654 1_556
O27 P15 1.501265 1_555
O27 Y5 2.109827 1_555
O28 P16 1.504798 1_555
O28 Y5 2.122598 1_555
O29 P17 1.513216 1_555
O29 Y5 2.204654 1_555
O30 P17 1.600357 1_555
O31 P15 1.585453 1_555
O32 P16 1.593824 1_555
O33 P13 1.585453 1_555
O34 P14 1.600357 1_555
O35 P12 1.593824 1_555
O36 P17 1.514793 1_555
O36 Y0 2.186302 1_455
O37 P15 1.533679 1_545
O37 Y0 2.222605 1_545
O38 P16 1.536658 1_555
O38 Y0 2.226438 1_445
O39 P13 1.533679 1_655
O39 Y1 2.222605 1_655
O40 P14 1.514793 1_555
O40 Y1 2.186302 1_565
O41 P12 1.536658 1_555
O41 Y1 2.226438 1_665
O42 P6 1.572972 1_555
O43 P7 1.575257 1_555
O44 P8 1.589249 1_555
O45 P9 1.575257 1_555
O46 P10 1.572972 1_555
O47 P11 1.589249 1_555
O48 P5 1.514793 1_545
O48 Y2 2.186302 1_555
O49 P3 1.533679 1_555
O49 Y2 2.222605 1_555
O50 P4 1.536658 1_655
O50 Y2 2.226438 1_555
O51 P1 1.533679 1_555
O51 Y3 2.222605 1_555
O52 P2 1.514793 1_655
O52 Y3 2.186302 1_555
O53 P0 1.536658 1_545
O53 Y3 2.226438 1_555
O54 P12 1.572983 1_555
O55 P13 1.575242 1_655
O56 P14 1.589247 1_545
O57 P15 1.575242 1_545
O58 P16 1.572983 1_555
O59 P17 1.589247 1_655
O60 P11 1.514806 1_555
O60 Y4 2.186302 1_555
O61 P9 1.533665 1_455
O61 Y4 2.222605 1_555
O62 P10 1.536654 1_565
O62 Y4 2.226438 1_555
O63 P7 1.533665 1_565
O63 Y5 2.222605 1_555
O64 P8 1.514806 1_555
O64 Y5 2.186302 1_555
O65 P6 1.536654 1_455
O65 Y5 2.226438 1_555
O66 P0 1.572972 1_555
O67 P1 1.575257 1_555
O68 P2 1.589249 1_555
O69 P3 1.575257 1_555
O70 P4 1.572972 1_555
O71 P5 1.589249 1_555
