# generated using pymatgen
data_Na2Nd2MgTi2O8
_symmetry_space_group_name_H-M   'P 1'
_cell_length_a   3.91824900
_cell_length_b   3.91824900
_cell_length_c   12.17512700
_cell_angle_alpha   90.00000000
_cell_angle_beta   90.00000000
_cell_angle_gamma   90.00000000
_symmetry_Int_Tables_number   1
_chemical_formula_structural   Na2Nd2MgTi2O8
_chemical_formula_sum   'Na2 Nd2 Mg1 Ti2 O8'
_cell_volume   186.92077067
_cell_formula_units_Z   1
loop_
 _symmetry_equiv_pos_site_id
 _symmetry_equiv_pos_as_xyz
  1  'x, y, z'
loop_
 _atom_site_type_symbol
 _atom_site_label
 _atom_site_symmetry_multiplicity
 _atom_site_fract_x
 _atom_site_fract_y
 _atom_site_fract_z
 _atom_site_occupancy
  Na  Na0  1  0.25000000  0.25000000  0.63579900  1
  Na  Na1  1  0.75000000  0.75000000  0.36420100  1
  Nd  Nd0  1  0.75000000  0.75000000  0.11047200  1
  Nd  Nd1  1  0.25000000  0.25000000  0.88952800  1
  Mg  Mg0  1  0.25000000  0.75000000  0.50000000  1
  Ti  Ti0  1  0.25000000  0.25000000  0.26190900  1
  Ti  Ti1  1  0.75000000  0.75000000  0.73809100  1
  O  O0  1  0.75000000  0.75000000  0.92267100  1
  O  O1  1  0.25000000  0.25000000  0.07732900  1
  O  O2  1  0.75000000  0.75000000  0.56819700  1
  O  O3  1  0.25000000  0.25000000  0.43180300  1
  O  O4  1  0.75000000  0.25000000  0.23819800  1
  O  O5  1  0.25000000  0.75000000  0.25444700  1
  O  O6  1  0.75000000  0.25000000  0.76180200  1
  O  O7  1  0.25000000  0.75000000  0.74555300  1
loop_
_geom_bond_atom_site_label_1
_geom_bond_atom_site_label_2
_geom_bond_distance
_geom_bond_site_symmetry_2
Na0 O7 2.371452 1_555
Na0 O7 2.371452 1_545
Na0 O3 2.483677 1_555
Na0 O6 2.488300 1_455
Na0 O6 2.488300 1_555
Na1 O5 2.371452 1_555
Na1 O5 2.371452 1_655
Na1 O2 2.483677 1_555
Na1 O4 2.488300 1_555
Na1 O4 2.488300 1_565
Nd0 O0 2.286501 1_554
Nd0 O4 2.501288 1_555
Nd0 O4 2.501288 1_565
Nd0 O5 2.628854 1_555
Nd0 O5 2.628854 1_655
Nd0 O1 2.799851 1_565
Nd0 O1 2.799851 1_665
Nd0 O1 2.799851 1_555
Nd0 O1 2.799851 1_655
Nd1 O1 2.286501 1_556
Nd1 O6 2.501288 1_555
Nd1 O6 2.501288 1_455
Nd1 O7 2.628854 1_555
Nd1 O7 2.628854 1_545
Nd1 O0 2.799851 1_445
Nd1 O0 2.799851 1_545
Nd1 O0 2.799851 1_455
Nd1 O0 2.799851 1_555
Mg0 O2 2.127811 1_455
Mg0 O2 2.127811 1_555
Mg0 O3 2.127811 1_555
Mg0 O3 2.127811 1_565
O0 Ti1 2.247285 1_555
O1 Ti0 2.247285 1_555
O2 Ti1 2.068481 1_555
O3 Ti0 2.068481 1_555
O4 Ti0 1.980280 1_655
O4 Ti0 1.980280 1_555
O5 Ti0 1.961230 1_565
O5 Ti0 1.961230 1_555
O6 Ti1 1.980280 1_545
O6 Ti1 1.980280 1_555
O7 Ti1 1.961230 1_555
O7 Ti1 1.961230 1_455
