# generated using pymatgen
data_Ba2ErMg(CuO2)4
_symmetry_space_group_name_H-M   'P 1'
_cell_length_a   3.74001000
_cell_length_b   3.97908276
_cell_length_c   15.04416073
_cell_angle_alpha   96.74316889
_cell_angle_beta   90.00000000
_cell_angle_gamma   90.00000000
_symmetry_Int_Tables_number   1
_chemical_formula_structural   Ba2ErMg(CuO2)4
_chemical_formula_sum   'Ba2 Er1 Mg1 Cu4 O8'
_cell_volume   222.33560323
_cell_formula_units_Z   1
loop_
 _symmetry_equiv_pos_site_id
 _symmetry_equiv_pos_as_xyz
  1  'x, y, z'
loop_
 _atom_site_type_symbol
 _atom_site_label
 _atom_site_symmetry_multiplicity
 _atom_site_fract_x
 _atom_site_fract_y
 _atom_site_fract_z
 _atom_site_occupancy
  Ba  Ba0  1  0.50000000  0.38772700  0.75352300  1
  Ba  Ba1  1  0.50000000  0.61227200  0.24647700  1
  Er  Er0  1  0.50000000  0.50000000  0.00000000  1
  Mg  Mg0  1  0.50000000  0.50000000  0.50000000  1
  Cu  Cu0  1  0.00000000  0.95059600  0.89398200  1
  Cu  Cu1  1  0.00000000  0.04940400  0.10601800  1
  Cu  Cu2  1  0.00000000  0.83890000  0.59143200  1
  Cu  Cu3  1  0.00000000  0.16110000  0.40856800  1
  O  O0  1  0.00000000  0.29560100  0.55274000  1
  O  O1  1  0.00000000  0.70439900  0.44726000  1
  O  O2  1  0.00000000  0.45485700  0.90289200  1
  O  O3  1  0.00000000  0.54514300  0.09710800  1
  O  O4  1  0.50000000  0.95642400  0.90604100  1
  O  O5  1  0.50000000  0.04357600  0.09395900  1
  O  O6  1  0.00000000  0.87122800  0.71632400  1
  O  O7  1  0.00000000  0.12877200  0.28367600  1
loop_
_geom_bond_atom_site_label_1
_geom_bond_atom_site_label_2
_geom_bond_distance
_geom_bond_site_symmetry_2
Ba0 O6 2.786363 1_545
Ba0 O6 2.786363 1_645
Ba0 O6 2.786449 1_655
Ba0 O6 2.786449 1_555
Ba0 O2 2.911513 1_555
Ba0 O2 2.911513 1_655
Ba0 O4 3.022385 1_545
Ba0 O4 3.027558 1_555
Ba1 O7 2.786366 1_665
Ba1 O7 2.786366 1_565
Ba1 O7 2.786446 1_555
Ba1 O7 2.786446 1_655
Ba1 O3 2.911513 1_555
Ba1 O3 2.911513 1_655
Ba1 O5 3.022388 1_565
Ba1 O5 3.027555 1_555
Er0 O3 2.366815 1_555
Er0 O3 2.366815 1_655
Er0 O2 2.366815 1_654
Er0 O2 2.366815 1_554
Er0 O4 2.428858 1_554
Er0 O5 2.428858 1_555
Er0 O5 2.440978 1_565
Er0 O4 2.440978 1_544
Mg0 O1 2.222495 1_555
Mg0 O1 2.222495 1_655
Mg0 O0 2.222495 1_555
Mg0 O0 2.222495 1_655
Cu0 O4 1.878665 1_555
Cu0 O4 1.878665 1_455
Cu0 O2 1.992777 1_555
Cu0 O2 1.995203 1_565
Cu0 O6 2.654228 1_555
Cu1 O5 1.878665 1_555
Cu1 O5 1.878665 1_455
Cu1 O3 1.992777 1_555
Cu1 O3 1.995203 1_545
Cu1 O7 2.654228 1_555
Cu2 O6 1.868164 1_555
Cu2 O0 1.972217 1_565
Cu2 O0 2.171826 1_555
Cu2 O1 2.172132 1_555
Cu3 O7 1.868164 1_555
Cu3 O1 1.972217 1_545
Cu3 O1 2.171826 1_555
Cu3 O0 2.172132 1_555
