# generated using pymatgen
data_Na10Mg3Zr5(PO4)12
_symmetry_space_group_name_H-M   'P 1'
_cell_length_a   18.01526974
_cell_length_b   9.01362962
_cell_length_c   22.85534573
_cell_angle_alpha   89.97962901
_cell_angle_beta   89.99038011
_cell_angle_gamma   120.02646946
_symmetry_Int_Tables_number   1
_chemical_formula_structural   Na10Mg3Zr5(PO4)12
_chemical_formula_sum   'Na30 Mg9 Zr15 P36 O144'
_cell_volume   3213.23836649
_cell_formula_units_Z   3
loop_
 _symmetry_equiv_pos_site_id
 _symmetry_equiv_pos_as_xyz
  1  'x, y, z'
loop_
 _atom_site_type_symbol
 _atom_site_label
 _atom_site_symmetry_multiplicity
 _atom_site_fract_x
 _atom_site_fract_y
 _atom_site_fract_z
 _atom_site_occupancy
  Na  Na0  1  0.32095114  0.00947315  0.24910227  1
  Na  Na1  1  0.68492332  0.35850743  0.24896356  1
  Na  Na2  1  0.31800734  0.62693928  0.74881368  1
  Na  Na3  1  0.81792404  0.62665545  0.74875347  1
  Na  Na4  1  0.15389599  0.34569361  0.57934557  1
  Na  Na5  1  0.65385340  0.34470983  0.57865109  1
  Na  Na6  1  0.01832834  0.69189708  0.57961513  1
  Na  Na7  1  0.51844857  0.69267058  0.57975653  1
  Na  Na8  1  0.32761567  0.96286996  0.57975789  1
  Na  Na9  1  0.82744042  0.96421406  0.57947695  1
  Na  Na10  1  0.15388160  0.96285472  0.07946584  1
  Na  Na11  1  0.65425138  0.96371216  0.08000827  1
  Na  Na12  1  0.32755993  0.69103327  0.08013364  1
  Na  Na13  1  0.82766523  0.69204328  0.07954764  1
  Na  Na14  1  0.01795498  0.34511986  0.07972121  1
  Na  Na15  1  0.51802441  0.34428931  0.08032694  1
  Na  Na16  1  0.66097043  0.02894619  0.41227954  1
  Na  Na17  1  0.35258533  0.67698057  0.41154566  1
  Na  Na18  1  0.00012908  0.99932548  0.49418496  1
  Na  Na19  1  0.49965301  0.01273517  0.48977184  1
  Na  Na20  1  0.99994583  0.99963825  0.99566543  1
  Na  Na21  1  0.49993270  0.99952768  0.99604163  1
  Na  Na22  1  0.33363801  0.32168369  0.82922390  1
  Na  Na23  1  0.83356844  0.32178395  0.82919267  1
  Na  Na24  1  0.33495229  0.33803760  0.32495146  1
  Na  Na25  1  0.84244475  0.33998247  0.32539667  1
  Na  Na26  1  0.16281210  0.65583147  0.16510994  1
  Na  Na27  1  0.66568778  0.67650089  0.16514475  1
  Na  Na28  1  0.16204310  0.66725252  0.66595420  1
  Na  Na29  1  0.66220802  0.66772871  0.66598186  1
  Mg  Mg0  1  0.49926923  0.00576433  0.34999968  1
  Mg  Mg1  1  0.33362577  0.32673582  0.68594218  1
  Mg  Mg2  1  0.83358142  0.32632559  0.68575722  1
  Mg  Mg3  1  0.33436954  0.34300266  0.18553236  1
  Mg  Mg4  1  0.83589390  0.33021278  0.18553477  1
  Mg  Mg5  1  0.16674910  0.66685182  0.01458113  1
  Mg  Mg6  1  0.66668297  0.66675663  0.01455136  1
  Mg  Mg7  1  0.16602098  0.66717480  0.51435539  1
  Mg  Mg8  1  0.66652059  0.66367116  0.51394810  1
  Zr  Zr0  1  0.00008006  0.99941401  0.35193351  1
  Zr  Zr1  1  0.00076174  0.00233695  0.85399178  1
  Zr  Zr2  1  0.50078761  0.00255404  0.85394218  1
  Zr  Zr3  1  0.00135239  0.00322671  0.65074974  1
  Zr  Zr4  1  0.50151922  0.00227803  0.65020476  1
  Zr  Zr5  1  0.99989715  0.00007292  0.15067030  1
  Zr  Zr6  1  0.49999981  0.99704108  0.15160504  1
  Zr  Zr7  1  0.33318074  0.33429044  0.97877503  1
  Zr  Zr8  1  0.83342934  0.33444427  0.97881166  1
  Zr  Zr9  1  0.33281888  0.32430843  0.47913644  1
  Zr  Zr10  1  0.83599018  0.34036278  0.47893150  1
  Zr  Zr11  1  0.16410927  0.66105693  0.31429336  1
  Zr  Zr12  1  0.66465823  0.66792150  0.31531727  1
  Zr  Zr13  1  0.16394761  0.66767198  0.81642624  1
  Zr  Zr14  1  0.66385285  0.66739871  0.81647489  1
  P  P0  1  0.15018611  0.00452927  0.24965033  1
  P  P1  1  0.64916869  0.00422817  0.25250253  1
  P  P2  1  0.35344015  0.70137491  0.25340757  1
  P  P3  1  0.85185436  0.69963012  0.24987411  1
  P  P4  1  0.99707392  0.29376149  0.24983094  1
  P  P5  1  0.49782838  0.29252998  0.25096440  1
  P  P6  1  0.15023880  0.29682873  0.75006324  1
  P  P7  1  0.65013429  0.29659843  0.74995270  1
  P  P8  1  0.99835598  0.70163262  0.74944413  1
  P  P9  1  0.49835052  0.70160435  0.74948292  1
  P  P10  1  0.35250430  0.00377873  0.75008827  1
  P  P11  1  0.85232326  0.00368553  0.75021612  1
  P  P12  1  0.48025323  0.33751046  0.58539738  1
  P  P13  1  0.97998412  0.33745224  0.58499263  1
  P  P14  1  0.18822495  0.03950369  0.58520903  1
  P  P15  1  0.68857030  0.04010073  0.58381821  1
  P  P16  1  0.33179946  0.62410491  0.58488687  1
  P  P17  1  0.83177771  0.62522329  0.58647802  1
  P  P18  1  0.47993285  0.62266525  0.08462614  1
  P  P19  1  0.97974311  0.62279314  0.08496651  1
  P  P20  1  0.33168556  0.03952059  0.08593566  1
  P  P21  1  0.83159184  0.04040986  0.08460556  1
  P  P22  1  0.18840100  0.33650748  0.08473449  1
  P  P23  1  0.68799738  0.33659710  0.08592664  1
  P  P24  1  0.31231810  0.66745993  0.91828764  1
  P  P25  1  0.81228646  0.66730554  0.91829736  1
  P  P26  1  0.02103210  0.37487272  0.92000013  1
  P  P27  1  0.52103801  0.37483896  0.92006656  1
  P  P28  1  0.16629124  0.95806599  0.91990775  1
  P  P29  1  0.66626896  0.95815934  0.91989717  1
  P  P30  1  0.31404944  0.95577000  0.41772575  1
  P  P31  1  0.81284203  0.95697471  0.42008826  1
  P  P32  1  0.16553992  0.37413843  0.42023289  1
  P  P33  1  0.66379627  0.36948869  0.41843334  1
  P  P34  1  0.02218738  0.67012659  0.41953337  1
  P  P35  1  0.52025613  0.67038696  0.41966644  1
  O  O0  1  0.10111392  0.02091374  0.30237739  1
  O  O1  1  0.60514065  0.02690004  0.30607807  1
  O  O2  1  0.40575698  0.79059105  0.30763846  1
  O  O3  1  0.90935463  0.79789281  0.30255984  1
  O  O4  1  0.48569385  0.17643352  0.30234970  1
  O  O5  1  0.98991946  0.17966099  0.30277366  1
  O  O6  1  0.10106735  0.18137275  0.80225158  1
  O  O7  1  0.60104861  0.18144155  0.80225868  1
  O  O8  1  0.48761447  0.79888645  0.80157661  1
  O  O9  1  0.98767746  0.79904267  0.80155065  1
  O  O10  1  0.40984910  0.01934242  0.80266625  1
  O  O11  1  0.90987512  0.01949199  0.80266189  1
  O  O12  1  0.39419767  0.97123522  0.69396244  1
  O  O13  1  0.89399201  0.97116871  0.69405057  1
  O  O14  1  0.09485337  0.21403612  0.69345720  1
  O  O15  1  0.59468536  0.21370821  0.69341487  1
  O  O16  1  0.01241873  0.81348522  0.69289319  1
  O  O17  1  0.51243717  0.81328044  0.69290414  1
  O  O18  1  0.39515522  0.81921470  0.19683688  1
  O  O19  1  0.89369768  0.81100635  0.19373171  1
  O  O20  1  0.01141188  0.21056675  0.19347155  1
  O  O21  1  0.51528338  0.21337802  0.19360306  1
  O  O22  1  0.09458277  0.97702333  0.19353497  1
  O  O23  1  0.59262626  0.97542725  0.19556654  1
  O  O24  1  0.43767931  0.36564432  0.63792382  1
  O  O25  1  0.93755153  0.36531968  0.63774648  1
  O  O26  1  0.24465677  0.12516532  0.63776876  1
  O  O27  1  0.74575642  0.12830169  0.63594452  1
  O  O28  1  0.31917055  0.51579819  0.63929044  1
  O  O29  1  0.81893268  0.51840052  0.64120004  1
  O  O30  1  0.43767672  0.51026189  0.13742427  1
  O  O31  1  0.93713233  0.51041391  0.13779576  1
  O  O32  1  0.31856568  0.11937660  0.14098720  1
  O  O33  1  0.81740932  0.12424902  0.13751220  1
  O  O34  1  0.24447832  0.36344711  0.13751181  1
  O  O35  1  0.74122262  0.36298698  0.14090360  1
  O  O36  1  0.22848504  0.30138653  0.02943985  1
  O  O37  1  0.73087818  0.30346030  0.03183689  1
  O  O38  1  0.42195586  0.54254638  0.02943952  1
  O  O39  1  0.92201202  0.54285273  0.02966517  1
  O  O40  1  0.34841092  0.15864227  0.03188432  1
  O  O41  1  0.84956374  0.15667968  0.02950985  1
  O  O42  1  0.22838459  0.15494091  0.52974874  1
  O  O43  1  0.72683415  0.15134235  0.52716835  1
  O  O44  1  0.34819325  0.54198914  0.52948871  1
  O  O45  1  0.84872366  0.53979290  0.53228148  1
  O  O46  1  0.42207143  0.30117517  0.53004408  1
  O  O47  1  0.92202966  0.30180944  0.52971420  1
  O  O48  1  0.27247302  0.69113426  0.97353020  1
  O  O49  1  0.77249773  0.69100545  0.97355381  1
  O  O50  1  0.07161743  0.45163192  0.97574640  1
  O  O51  1  0.57167769  0.45168350  0.97577905  1
  O  O52  1  0.15384571  0.85660345  0.97566174  1
  O  O53  1  0.65385953  0.85667404  0.97562452  1
  O  O54  1  0.27205084  0.84903912  0.47287290  1
  O  O55  1  0.77428931  0.85712205  0.47623696  1
  O  O56  1  0.15386963  0.45125350  0.47621808  1
  O  O57  1  0.65507119  0.45329055  0.47404916  1
  O  O58  1  0.07138701  0.69309279  0.47596024  1
  O  O59  1  0.57350594  0.69519533  0.47472983  1
  O  O60  1  0.06631495  0.64538431  0.36517957  1
  O  O61  1  0.56458725  0.64351060  0.36534914  1
  O  O62  1  0.25795743  0.87064284  0.36213348  1
  O  O63  1  0.75432743  0.86922722  0.36611411  1
  O  O64  1  0.18037014  0.49056008  0.36607749  1
  O  O65  1  0.67734751  0.48159724  0.36279073  1
  O  O66  1  0.06583032  0.48697942  0.86512532  1
  O  O67  1  0.56569111  0.48710125  0.86518653  1
  O  O68  1  0.17762224  0.86871370  0.86500072  1
  O  O69  1  0.67773713  0.86892711  0.86497887  1
  O  O70  1  0.25863625  0.64518657  0.86186313  1
  O  O71  1  0.75861653  0.64497745  0.86188034  1
  O  O72  1  0.01072602  0.82853770  0.41058620  1
  O  O73  1  0.50982748  0.82895509  0.41189118  1
  O  O74  1  0.40238269  0.97123213  0.41096683  1
  O  O75  1  0.90342002  0.98135370  0.41081348  1
  O  O76  1  0.08752063  0.19285334  0.41097954  1
  O  O77  1  0.58767623  0.18661943  0.41154426  1
  O  O78  1  0.01053685  0.19402794  0.91081792  1
  O  O79  1  0.51051311  0.19404029  0.91085130  1
  O  O80  1  0.08650727  0.97946731  0.91049710  1
  O  O81  1  0.58646579  0.97945571  0.91046254  1
  O  O82  1  0.40332877  0.82740534  0.91015063  1
  O  O83  1  0.90335526  0.82717654  0.91015720  1
  O  O84  1  0.48840196  0.17071983  0.58971951  1
  O  O85  1  0.98832545  0.17046472  0.58955225  1
  O  O86  1  0.09651753  0.02318302  0.58930600  1
  O  O87  1  0.59689339  0.02402823  0.58905842  1
  O  O88  1  0.41515063  0.80808015  0.58910500  1
  O  O89  1  0.91526972  0.80869658  0.58940987  1
  O  O90  1  0.48808398  0.80627223  0.08929805  1
  O  O91  1  0.98831068  0.80686408  0.08943109  1
  O  O92  1  0.41502930  0.02212222  0.08942364  1
  O  O93  1  0.91508284  0.02306990  0.08932365  1
  O  O94  1  0.09626437  0.16957830  0.08930936  1
  O  O95  1  0.59629621  0.16921062  0.08917456  1
  O  O96  1  0.34310321  0.16026239  0.74487973  1
  O  O97  1  0.84299781  0.16020611  0.74478889  1
  O  O98  1  0.23985233  0.32091705  0.74509235  1
  O  O99  1  0.73976061  0.32053885  0.74514080  1
  O  O100  1  0.41627741  0.52910061  0.74432820  1
  O  O101  1  0.91634611  0.52905916  0.74437755  1
  O  O102  1  0.34154707  0.52437050  0.24481973  1
  O  O103  1  0.84010794  0.52090624  0.24544239  1
  O  O104  1  0.41819561  0.30880701  0.24303795  1
  O  O105  1  0.91809645  0.31057121  0.24559512  1
  O  O106  1  0.23999234  0.15879303  0.24545011  1
  O  O107  1  0.73624249  0.16651166  0.24420214  1
  O  O108  1  0.32195118  0.50514704  0.92161537  1
  O  O109  1  0.82187259  0.50500489  0.92168772  1
  O  O110  1  0.43028457  0.35522642  0.92230926  1
  O  O111  1  0.93036292  0.35573617  0.92212411  1
  O  O112  1  0.24763122  0.13894875  0.92224115  1
  O  O113  1  0.74741889  0.13938785  0.92235751  1
  O  O114  1  0.32219109  0.13711658  0.42207185  1
  O  O115  1  0.81834644  0.13631416  0.42282190  1
  O  O116  1  0.25006462  0.36417041  0.42320416  1
  O  O117  1  0.74693365  0.35106853  0.42229989  1
  O  O118  1  0.42811705  0.50891978  0.42315940  1
  O  O119  1  0.93102260  0.50681919  0.42205786  1
  O  O120  1  0.17520525  0.49219843  0.07719846  1
  O  O121  1  0.67549277  0.49270072  0.07741148  1
  O  O122  1  0.07086619  0.64943148  0.07742681  1
  O  O123  1  0.57117862  0.65006593  0.07709354  1
  O  O124  1  0.25370202  0.85788879  0.07747243  1
  O  O125  1  0.75391873  0.85800654  0.07700295  1
  O  O126  1  0.17517206  0.85794718  0.57746855  1
  O  O127  1  0.67484430  0.85747871  0.57731660  1
  O  O128  1  0.25369777  0.64989229  0.57751476  1
  O  O129  1  0.75356754  0.64926859  0.57789125  1
  O  O130  1  0.07105445  0.49263736  0.57736490  1
  O  O131  1  0.57108954  0.49262076  0.57723991  1
  O  O132  1  0.15787542  0.83976825  0.25531490  1
  O  O133  1  0.65699024  0.83950060  0.25619774  1
  O  O134  1  0.26438110  0.69709636  0.25597900  1
  O  O135  1  0.76149244  0.68281794  0.25596113  1
  O  O136  1  0.08069991  0.47074426  0.25575496  1
  O  O137  1  0.58301762  0.47017037  0.25573575  1
  O  O138  1  0.15849963  0.47730917  0.75544885  1
  O  O139  1  0.65851947  0.47726947  0.75547551  1
  O  O140  1  0.08020701  0.68787556  0.75514699  1
  O  O141  1  0.58016865  0.68772282  0.75519216  1
  O  O142  1  0.26519487  0.83200730  0.75558350  1
  O  O143  1  0.76510945  0.83190503  0.75561973  1
loop_
_geom_bond_atom_site_label_1
_geom_bond_atom_site_label_2
_geom_bond_distance
_geom_bond_site_symmetry_2
Na0 O104 2.374260 1_555
Na0 O106 2.431090 1_555
Na0 O134 2.473668 1_545
Na0 O132 2.548175 1_545
Na0 O32 2.670201 1_555
Na0 O4 2.843712 1_555
Na0 O62 2.846586 1_545
Na0 O18 2.906923 1_545
Na1 O107 2.337274 1_555
Na1 O103 2.422667 1_555
Na1 O137 2.501323 1_555
Na1 O135 2.537401 1_555
Na1 O35 2.662346 1_555
Na1 O65 2.858527 1_555
Na1 O1 2.898440 1_555
Na1 O21 2.941672 1_555
Na2 O100 2.341988 1_555
Na2 O98 2.389900 1_555
Na2 O142 2.471025 1_555
Na2 O138 2.494080 1_555
Na2 O28 2.700510 1_555
Na2 O70 2.832392 1_555
Na2 O8 2.907858 1_555
Na2 O12 2.969858 1_555
Na3 O101 2.342818 1_555
Na3 O99 2.390544 1_555
Na3 O143 2.472733 1_555
Na3 O139 2.492642 1_555
Na3 O29 2.648489 1_555
Na3 O71 2.833707 1_555
Na3 O9 2.910280 1_555
Na3 O13 2.970160 1_555
Na4 O128 2.412192 1_555
Na4 O130 2.441699 1_555
Na4 O56 2.541591 1_555
Na4 O86 2.561846 1_555
Na4 O85 2.594363 1_455
Na4 O14 2.841698 1_555
Na4 O42 2.889979 1_555
Na4 O28 2.920143 1_555
Na5 O129 2.414108 1_555
Na5 O131 2.447660 1_555
Na5 O87 2.548636 1_555
Na5 O57 2.578893 1_555
Na5 O84 2.594034 1_555
Na5 O15 2.854408 1_555
Na5 O43 2.906083 1_555
Na5 O29 2.946598 1_555
Na6 O130 2.416228 1_555
Na6 O126 2.448245 1_555
Na6 O58 2.552488 1_555
Na6 O89 2.561596 1_455
Na6 O86 2.596332 1_565
Na6 O16 2.834450 1_555
Na6 O45 2.862808 1_455
Na6 O25 2.873574 1_455
Na7 O131 2.421889 1_555
Na7 O127 2.441172 1_555
Na7 O88 2.555058 1_555
Na7 O59 2.592861 1_555
Na7 O87 2.596005 1_565
Na7 O17 2.828579 1_555
Na7 O24 2.877073 1_555
Na7 O44 2.899214 1_555
Na8 O126 2.416631 1_555
Na8 O128 2.444335 1_555
Na8 O84 2.553733 1_565
Na8 O88 2.584756 1_555
Na8 O54 2.645223 1_555
Na8 O12 2.858007 1_555
Na8 O46 2.879062 1_565
Na8 O26 2.884487 1_565
Na9 O127 2.416303 1_555
Na9 O129 2.459740 1_555
Na9 O55 2.548262 1_555
Na9 O85 2.552984 1_565
Na9 O89 2.596102 1_555
Na9 O27 2.863136 1_565
Na9 O13 2.867842 1_555
Na9 O47 2.874774 1_565
Na10 O124 2.415337 1_555
Na10 O122 2.447777 1_555
Na10 O94 2.556545 1_565
Na10 O52 2.558683 1_554
Na10 O91 2.593876 1_455
Na10 O22 2.844345 1_555
Na10 O36 2.883972 1_565
Na10 O32 2.929740 1_565
Na11 O125 2.418391 1_555
Na11 O123 2.449989 1_555
Na11 O95 2.549635 1_565
Na11 O53 2.572433 1_554
Na11 O90 2.601595 1_555
Na11 O33 2.864758 1_565
Na11 O37 2.874392 1_565
Na11 O23 2.887171 1_555
Na12 O120 2.413934 1_555
Na12 O124 2.457389 1_555
Na12 O90 2.545565 1_555
Na12 O92 2.593930 1_565
Na12 O48 2.631143 1_554
Na12 O34 2.872671 1_555
Na12 O38 2.881666 1_555
Na12 O18 2.920181 1_555
Na13 O121 2.411777 1_555
Na13 O125 2.448523 1_555
Na13 O91 2.549620 1_555
Na13 O93 2.594363 1_565
Na13 O49 2.616867 1_554
Na13 O19 2.846397 1_555
Na13 O39 2.878362 1_555
Na13 O35 2.926165 1_555
Na14 O122 2.412121 1_555
Na14 O120 2.455089 1_555
Na14 O93 2.554332 1_455
Na14 O50 2.563635 1_554
Na14 O94 2.603017 1_555
Na14 O20 2.845763 1_555
Na14 O41 2.872376 1_455
Na14 O31 2.876364 1_455
Na15 O123 2.424313 1_555
Na15 O121 2.458356 1_555
Na15 O92 2.554536 1_555
Na15 O51 2.577227 1_554
Na15 O95 2.597407 1_555
Na15 O21 2.834963 1_555
Na15 O30 2.864296 1_555
Na15 O40 2.871941 1_555
Na16 O77 2.375223 1_555
Na16 O73 2.398206 1_545
Na16 O115 2.507436 1_555
Na16 O117 2.526169 1_555
Na16 O1 2.624097 1_555
Na16 O43 2.865832 1_555
Na16 O63 2.904858 1_545
Na16 O59 2.970219 1_545
Na17 O74 2.336284 1_555
Na17 O73 2.453066 1_555
Na17 O116 2.493925 1_555
Na17 O118 2.505897 1_555
Na17 O2 2.573299 1_555
Na17 O64 2.883379 1_555
Na17 O44 2.941842 1_555
Na17 O54 2.954244 1_555
Na18 O72 2.520523 1_555
Na18 O76 2.527072 1_565
Na18 O75 2.532073 1_455
Na18 O89 2.719109 1_455
Na18 O86 2.723200 1_565
Na18 O85 2.739744 1_465
Na19 O77 2.382744 1_555
Na19 O74 2.408354 1_545
Na19 O73 2.500380 1_545
Na19 O84 2.752840 1_555
Na19 O87 2.837542 1_555
Na19 O88 2.839011 1_545
Na20 O78 2.555369 1_665
Na20 O80 2.556740 1_655
Na20 O83 2.561241 1_555
Na20 O94 2.698428 1_666
Na20 O93 2.699339 1_566
Na20 O91 2.699725 1_556
Na21 O79 2.562086 1_565
Na21 O81 2.563230 1_555
Na21 O82 2.567202 1_555
Na21 O95 2.688891 1_566
Na21 O92 2.692051 1_566
Na21 O90 2.692188 1_556
Na22 O96 2.472316 1_555
Na22 O98 2.557635 1_555
Na22 O100 2.586012 1_555
Na22 O112 2.660002 1_555
Na22 O110 2.669083 1_555
Na22 O108 2.754769 1_555
Na23 O97 2.474024 1_555
Na23 O99 2.555119 1_555
Na23 O101 2.584611 1_555
Na23 O113 2.662403 1_555
Na23 O111 2.667084 1_555
Na23 O109 2.755251 1_555
Na24 O102 2.446868 1_555
Na24 O106 2.464851 1_555
Na24 O104 2.493632 1_555
Na24 O118 2.764783 1_555
Na24 O116 2.792242 1_555
Na24 O114 2.800021 1_555
Na25 O105 2.369688 1_555
Na25 O103 2.463160 1_555
Na25 O107 2.560944 1_555
Na25 O119 2.700085 1_555
Na25 O115 2.777748 1_555
Na25 O117 2.836679 1_555
Na26 O120 2.567850 1_555
Na26 O122 2.582399 1_555
Na26 O136 2.605800 1_555
Na26 O124 2.649874 1_555
Na26 O134 2.668419 1_555
Na26 O132 2.675270 1_555
Na27 O123 2.569250 1_555
Na27 O125 2.579804 1_555
Na27 O133 2.597378 1_555
Na27 O121 2.663028 1_555
Na27 O137 2.681045 1_555
Na27 O135 2.682042 1_555
Na28 O140 2.576288 1_555
Na28 O130 2.585553 1_555
Na28 O126 2.586671 1_555
Na28 O138 2.647105 1_555
Na28 O128 2.663511 1_555
Na28 O142 2.663946 1_555
Na29 O141 2.576803 1_555
Na29 O127 2.586773 1_555
Na29 O131 2.590354 1_555
Na29 O139 2.649256 1_555
Na29 O129 2.657689 1_555
Na29 O143 2.661123 1_555
Mg0 O4 1.996947 1_555
Mg0 O2 2.066144 1_545
Mg0 O1 2.077828 1_555
Mg0 O74 2.130780 1_545
Mg0 O77 2.139303 1_555
Mg0 O73 2.208814 1_545
Mg1 O26 2.042024 1_555
Mg1 O24 2.045113 1_555
Mg1 O96 2.085736 1_555
Mg1 O28 2.133474 1_555
Mg1 O98 2.143549 1_555
Mg1 O100 2.146899 1_555
Mg2 O27 2.039881 1_555
Mg2 O25 2.043550 1_555
Mg2 O97 2.084218 1_555
Mg2 O29 2.135459 1_555
Mg2 O99 2.147685 1_555
Mg2 O101 2.152450 1_555
Mg3 O30 2.033626 1_555
Mg3 O34 2.039642 1_555
Mg3 O102 2.077361 1_555
Mg3 O104 2.137565 1_555
Mg3 O32 2.146570 1_555
Mg3 O106 2.166877 1_555
Mg4 O33 2.035912 1_555
Mg4 O31 2.046560 1_555
Mg4 O105 2.090842 1_555
Mg4 O35 2.131017 1_555
Mg4 O107 2.131842 1_555
Mg4 O103 2.169337 1_555
Mg5 O48 2.034184 1_554
Mg5 O50 2.040259 1_554
Mg5 O52 2.041437 1_554
Mg5 O124 2.188157 1_555
Mg5 O120 2.188185 1_555
Mg5 O122 2.190686 1_555
Mg6 O49 2.035176 1_554
Mg6 O51 2.038107 1_554
Mg6 O53 2.042081 1_554
Mg6 O123 2.183140 1_555
Mg6 O125 2.184040 1_555
Mg6 O121 2.190504 1_555
Mg7 O54 2.024671 1_555
Mg7 O58 2.032273 1_555
Mg7 O56 2.042153 1_555
Mg7 O130 2.186272 1_555
Mg7 O126 2.186984 1_555
Mg7 O128 2.202223 1_555
Mg8 O57 2.019872 1_555
Mg8 O55 2.040345 1_555
Mg8 O59 2.041798 1_555
Mg8 O131 2.184062 1_555
Mg8 O129 2.194588 1_555
Mg8 O127 2.216187 1_555
O0 P0 1.544681 1_555
O0 Zr0 2.068691 1_545
O1 P1 1.527198 1_555
O2 P2 1.521128 1_555
O3 P3 1.546111 1_555
O3 Zr0 2.067630 1_655
O4 P5 1.514010 1_555
O5 P4 1.550774 1_555
O5 Zr0 2.057155 1_645
O6 P6 1.538376 1_555
O6 Zr1 2.085058 1_555
O7 P7 1.539051 1_555
O7 Zr2 2.083484 1_555
O8 P9 1.547344 1_555
O8 Zr2 2.103444 1_565
O9 P8 1.547872 1_555
O9 Zr1 2.102201 1_665
O10 P10 1.544826 1_555
O10 Zr2 2.080604 1_555
O11 P11 1.544274 1_555
O11 Zr1 2.082072 1_655
O12 P10 1.586249 1_565
O12 Zr4 2.067451 1_565
O13 P11 1.586630 1_565
O13 Zr3 2.059996 1_665
O14 P6 1.575495 1_555
O14 Zr3 2.049223 1_555
O15 P7 1.574807 1_555
O15 Zr4 2.055475 1_555
O16 P8 1.579404 1_455
O16 Zr3 2.057334 1_565
O17 P9 1.578970 1_555
O17 Zr4 2.056065 1_565
O18 P2 1.601403 1_555
O18 Zr6 2.042968 1_555
O19 P3 1.569695 1_555
O19 Zr5 2.065994 1_565
O20 P4 1.575663 1_455
O20 Zr5 2.051163 1_455
O21 P5 1.597404 1_555
O21 Zr6 2.064871 1_545
O22 P0 1.569043 1_565
O22 Zr5 2.065855 1_465
O23 P1 1.591977 1_565
O23 Zr6 2.039066 1_555
O24 P12 1.512730 1_555
O25 P13 1.514352 1_555
O26 P14 1.512695 1_555
O27 P15 1.514643 1_555
O28 P16 1.525658 1_555
O29 P17 1.523461 1_555
O30 P18 1.512980 1_555
O31 P19 1.514543 1_555
O32 P20 1.525745 1_555
O33 P21 1.514035 1_555
O34 P22 1.513175 1_555
O35 P23 1.525514 1_555
O36 P22 1.564473 1_555
O36 Zr7 2.103681 1_554
O37 P23 1.563692 1_555
O37 Zr8 2.107739 1_554
O38 P18 1.565103 1_555
O38 Zr7 2.102366 1_554
O39 P19 1.565084 1_555
O39 Zr8 2.104371 1_554
O40 P20 1.563627 1_555
O40 Zr7 2.118672 1_554
O41 P21 1.564660 1_555
O41 Zr8 2.111731 1_554
O42 P14 1.567854 1_555
O42 Zr9 2.081319 1_555
O43 P15 1.569710 1_555
O43 Zr10 2.151771 1_555
O44 P16 1.567641 1_555
O44 Zr9 2.169963 1_555
O45 P17 1.567262 1_555
O45 Zr10 2.087985 1_555
O46 P12 1.569589 1_555
O46 Zr9 2.078125 1_555
O47 P13 1.566691 1_555
O47 Zr10 2.099964 1_555
O48 P24 1.519248 1_555
O49 P25 1.519049 1_555
O50 P26 1.517402 1_555
O51 P27 1.517238 1_555
O52 P28 1.517994 1_555
O53 P29 1.517692 1_555
O54 P30 1.535235 1_555
O55 P31 1.520714 1_555
O56 P32 1.520336 1_555
O57 P33 1.526584 1_555
O58 P34 1.519413 1_555
O59 P35 1.529706 1_555
O60 P34 1.549923 1_555
O60 Zr11 2.055869 1_555
O61 P35 1.559228 1_555
O61 Zr12 2.051400 1_555
O62 P30 1.565056 1_555
O62 Zr11 2.104374 1_555
O63 P31 1.557330 1_555
O63 Zr12 2.078088 1_555
O64 P32 1.556586 1_555
O64 Zr11 2.073092 1_555
O65 P33 1.565283 1_555
O65 Zr12 2.105500 1_555
O66 P26 1.558199 1_555
O66 Zr13 2.032926 1_555
O67 P27 1.558339 1_555
O67 Zr14 2.032159 1_555
O68 P28 1.558946 1_555
O68 Zr13 2.032662 1_555
O69 P29 1.559486 1_555
O69 Zr14 2.034204 1_555
O70 P24 1.563630 1_555
O70 Zr13 2.091855 1_555
O71 P25 1.563280 1_555
O71 Zr14 2.092375 1_555
O72 P34 1.555023 1_555
O72 Zr0 2.121394 1_555
O73 P35 1.542165 1_555
O74 P30 1.534149 1_555
O75 P31 1.548205 1_555
O75 Zr0 2.141296 1_655
O76 P32 1.546657 1_555
O76 Zr0 2.143907 1_545
O77 P33 1.536339 1_555
O78 P26 1.558435 1_555
O78 Zr1 2.097713 1_555
O79 P27 1.557913 1_555
O79 Zr2 2.097740 1_555
O80 P28 1.557868 1_555
O80 Zr1 2.101353 1_565
O81 P29 1.557730 1_555
O81 Zr2 2.101573 1_565
O82 P24 1.560554 1_555
O82 Zr2 2.109294 1_565
O83 P25 1.560913 1_555
O83 Zr1 2.108299 1_665
O84 P12 1.585012 1_555
O84 Zr4 2.151684 1_555
O85 P13 1.589093 1_555
O85 Zr3 2.153228 1_655
O86 P14 1.586397 1_555
O86 Zr3 2.152695 1_555
O87 P15 1.588561 1_555
O87 Zr4 2.146057 1_555
O88 P16 1.588108 1_555
O88 Zr4 2.170664 1_565
O89 P17 1.585078 1_555
O89 Zr3 2.173940 1_665
O90 P18 1.590217 1_555
O90 Zr6 2.159437 1_555
O91 P19 1.590862 1_555
O91 Zr5 2.161820 1_565
O92 P20 1.587770 1_555
O92 Zr6 2.181959 1_545
O93 P21 1.591769 1_555
O93 Zr5 2.158930 1_555
O94 P22 1.590710 1_555
O94 Zr5 2.158281 1_455
O95 P23 1.586324 1_555
O95 Zr6 2.181069 1_545
O96 P10 1.507079 1_555
O97 P11 1.507020 1_555
O98 P6 1.521673 1_555
O99 P7 1.522153 1_555
O100 P9 1.522189 1_555
O101 P8 1.521846 1_555
O102 P2 1.512622 1_555
O103 P3 1.519589 1_555
O104 P5 1.524190 1_555
O105 P4 1.507474 1_555
O106 P0 1.519412 1_555
O107 P1 1.529590 1_555
O108 P24 1.558967 1_555
O108 Zr7 2.104708 1_555
O109 P25 1.558437 1_555
O109 Zr8 2.104854 1_555
O110 P27 1.554876 1_555
O110 Zr7 2.104765 1_555
O111 P26 1.555054 1_655
O111 Zr8 2.104426 1_555
O112 P28 1.554800 1_545
O112 Zr7 2.105109 1_555
O113 P29 1.555282 1_545
O113 Zr8 2.105409 1_555
O114 P30 1.569536 1_545
O114 Zr9 2.064685 1_555
O115 P31 1.570495 1_545
O115 Zr10 2.131914 1_555
O116 P32 1.571102 1_555
O116 Zr9 2.126567 1_555
O117 P33 1.589816 1_555
O117 Zr10 2.100998 1_555
O118 P35 1.569069 1_555
O118 Zr9 2.119404 1_555
O119 P34 1.564566 1_655
O119 Zr10 2.073393 1_555
O120 P22 1.545724 1_555
O121 P23 1.544503 1_555
O122 P19 1.545192 1_455
O123 P18 1.544776 1_555
O124 P20 1.545923 1_565
O125 P21 1.545699 1_565
O126 P14 1.542648 1_565
O127 P15 1.544555 1_565
O128 P16 1.545797 1_555
O129 P17 1.541554 1_555
O130 P13 1.543279 1_455
O131 P12 1.541870 1_555
O132 P0 1.564357 1_565
O132 Zr11 2.145693 1_555
O133 P1 1.562338 1_565
O133 Zr12 2.109271 1_555
O134 P2 1.586555 1_555
O134 Zr11 2.134629 1_555
O135 P3 1.563771 1_555
O135 Zr12 2.160167 1_555
O136 P4 1.558149 1_455
O136 Zr11 2.100756 1_555
O137 P5 1.572220 1_555
O137 Zr12 2.138556 1_555
O138 P6 1.562555 1_555
O138 Zr13 2.174695 1_555
O139 P7 1.563561 1_555
O139 Zr14 2.174126 1_555
O140 P8 1.545886 1_455
O140 Zr13 2.132160 1_555
O141 P9 1.545935 1_555
O141 Zr14 2.131927 1_555
O142 P10 1.565097 1_565
O142 Zr13 2.179110 1_555
O143 P11 1.564093 1_565
O143 Zr14 2.179777 1_555
