# generated using pymatgen
data_Na14Hf4Ga4Si9(SO16)3
_symmetry_space_group_name_H-M   'P 1'
_cell_length_a   18.08985985
_cell_length_b   9.04905611
_cell_length_c   22.33526152
_cell_angle_alpha   90.23627661
_cell_angle_beta   90.37390325
_cell_angle_gamma   120.04231714
_symmetry_Int_Tables_number   1
_chemical_formula_structural   Na14Hf4Ga4Si9(SO16)3
_chemical_formula_sum   'Na42 Hf12 Ga12 Si27 S9 O144'
_cell_volume   3164.82522354
_cell_formula_units_Z   3
loop_
 _symmetry_equiv_pos_site_id
 _symmetry_equiv_pos_as_xyz
  1  'x, y, z'
loop_
 _atom_site_type_symbol
 _atom_site_label
 _atom_site_symmetry_multiplicity
 _atom_site_fract_x
 _atom_site_fract_y
 _atom_site_fract_z
 _atom_site_occupancy
  Na  Na0  1  0.81777203  0.00690874  0.25407768  1
  Na  Na1  1  0.17501071  0.35627056  0.25358214  1
  Na  Na2  1  0.69100393  0.37023898  0.25374352  1
  Na  Na3  1  0.99577163  0.62888115  0.24632631  1
  Na  Na4  1  0.50490701  0.64709481  0.25246466  1
  Na  Na5  1  0.31740269  0.62764704  0.75102812  1
  Na  Na6  1  0.00256546  0.35939314  0.74643521  1
  Na  Na7  1  0.49709549  0.36422270  0.74349944  1
  Na  Na8  1  0.18969294  0.01192729  0.75010576  1
  Na  Na9  1  0.67965695  0.99747282  0.74952460  1
  Na  Na10  1  0.14855651  0.32570921  0.58236602  1
  Na  Na11  1  0.65058144  0.33261792  0.58211295  1
  Na  Na12  1  0.33472623  0.98327014  0.58596307  1
  Na  Na13  1  0.83291276  0.96955842  0.58188011  1
  Na  Na14  1  0.14349989  0.96403400  0.08085773  1
  Na  Na15  1  0.65184375  0.97465616  0.08036199  1
  Na  Na16  1  0.33304109  0.68768923  0.08214952  1
  Na  Na17  1  0.83475431  0.68638909  0.08605724  1
  Na  Na18  1  0.48229232  0.67950680  0.91448461  1
  Na  Na19  1  0.98264632  0.67441240  0.92064789  1
  Na  Na20  1  0.34828629  0.02801848  0.90942034  1
  Na  Na21  1  0.84687782  0.02671091  0.91168640  1
  Na  Na22  1  0.16956456  0.29627602  0.90995209  1
  Na  Na23  1  0.66795463  0.29434875  0.91106178  1
  Na  Na24  1  0.48497777  0.29556658  0.42407745  1
  Na  Na25  1  0.97945076  0.28442608  0.41914190  1
  Na  Na26  1  0.16717947  0.04139663  0.41412497  1
  Na  Na27  1  0.67410761  0.04852663  0.41579533  1
  Na  Na28  1  0.34733168  0.66659852  0.41506929  1
  Na  Na29  1  0.84721976  0.66511791  0.41815051  1
  Na  Na30  1  0.99833491  0.99587072  0.49868812  1
  Na  Na31  1  0.50519050  0.01162579  0.49952873  1
  Na  Na32  1  0.00273118  0.99652216  0.99819823  1
  Na  Na33  1  0.50418276  0.00097603  0.99472325  1
  Na  Na34  1  0.33004584  0.33505814  0.82828587  1
  Na  Na35  1  0.82543085  0.33024616  0.83307952  1
  Na  Na36  1  0.32583942  0.31865105  0.33783711  1
  Na  Na37  1  0.82935661  0.32462151  0.33324254  1
  Na  Na38  1  0.15802308  0.65354665  0.16916462  1
  Na  Na39  1  0.66443017  0.65880546  0.17038884  1
  Na  Na40  1  0.16236602  0.66777103  0.66892893  1
  Na  Na41  1  0.66402638  0.66353732  0.66493010  1
  Hf  Hf0  1  0.99857804  0.00551753  0.64374776  1
  Hf  Hf1  1  0.50259768  0.00465239  0.64905733  1
  Hf  Hf2  1  0.00183932  0.00034154  0.14948195  1
  Hf  Hf3  1  0.50379308  0.99047993  0.14749314  1
  Hf  Hf4  1  0.82929561  0.32782518  0.68428797  1
  Hf  Hf5  1  0.33114077  0.34195982  0.18774576  1
  Hf  Hf6  1  0.16316511  0.66486115  0.01839499  1
  Hf  Hf7  1  0.66759497  0.66707672  0.01922346  1
  Hf  Hf8  1  0.16667815  0.66779118  0.51936574  1
  Hf  Hf9  1  0.66789563  0.65987530  0.52089255  1
  Hf  Hf10  1  0.17446118  0.67261655  0.31179620  1
  Hf  Hf11  1  0.67547060  0.67821202  0.81062102  1
  Ga  Ga0  1  0.99768222  0.01623210  0.34648230  1
  Ga  Ga1  1  0.50357412  0.00372028  0.35128123  1
  Ga  Ga2  1  0.00306974  0.99926322  0.84851226  1
  Ga  Ga3  1  0.49851957  0.98144295  0.84469257  1
  Ga  Ga4  1  0.33590574  0.31776281  0.68988517  1
  Ga  Ga5  1  0.83586825  0.35360443  0.19014474  1
  Ga  Ga6  1  0.32269212  0.34794351  0.98010233  1
  Ga  Ga7  1  0.82194317  0.34697870  0.98303490  1
  Ga  Ga8  1  0.32287438  0.29868979  0.48327015  1
  Ga  Ga9  1  0.82536937  0.31942148  0.48632559  1
  Ga  Ga10  1  0.68753622  0.69092659  0.31731955  1
  Ga  Ga11  1  0.18587649  0.68319082  0.81511451  1
  Si  Si0  1  0.14536992  0.99944767  0.25341226  1
  Si  Si1  1  0.64858521  0.99524510  0.25397846  1
  Si  Si2  1  0.35846661  0.71770397  0.25176795  1
  Si  Si3  1  0.85466711  0.71099142  0.25230380  1
  Si  Si4  1  0.99570398  0.29311757  0.24992611  1
  Si  Si5  1  0.14668100  0.29824473  0.75302420  1
  Si  Si6  1  0.64567486  0.28996589  0.75455654  1
  Si  Si7  1  0.49587026  0.69886193  0.75021401  1
  Si  Si8  1  0.35454762  0.99857402  0.75248875  1
  Si  Si9  1  0.85923187  0.00641830  0.75273710  1
  Si  Si10  1  0.47421513  0.33557730  0.58338262  1
  Si  Si11  1  0.97890303  0.34160980  0.58201948  1
  Si  Si12  1  0.18991226  0.04502741  0.58547695  1
  Si  Si13  1  0.68297064  0.03566378  0.58068225  1
  Si  Si14  1  0.83672383  0.62006114  0.57886012  1
  Si  Si15  1  0.47831863  0.61598605  0.08120325  1
  Si  Si16  1  0.97480372  0.61319047  0.08338930  1
  Si  Si17  1  0.18336816  0.33120284  0.08116719  1
  Si  Si18  1  0.68824885  0.33402749  0.08565758  1
  Si  Si19  1  0.31698921  0.67228027  0.91696215  1
  Si  Si20  1  0.81842380  0.67129734  0.91695281  1
  Si  Si21  1  0.16804513  0.96331575  0.91402121  1
  Si  Si22  1  0.66851393  0.97089987  0.91830353  1
  Si  Si23  1  0.31855282  0.96556499  0.41696540  1
  Si  Si24  1  0.81761984  0.96902736  0.41705824  1
  Si  Si25  1  0.16817634  0.36571159  0.41738990  1
  Si  Si26  1  0.66605872  0.37121836  0.41195493  1
  S  S0  1  0.49894807  0.28910724  0.25110274  1
  S  S1  1  0.00010080  0.70843599  0.75220228  1
  S  S2  1  0.33437975  0.62121004  0.58198190  1
  S  S3  1  0.33507271  0.04765362  0.08130817  1
  S  S4  1  0.83483027  0.04791561  0.08199272  1
  S  S5  1  0.01950289  0.37345967  0.91447673  1
  S  S6  1  0.51875613  0.37319528  0.91682845  1
  S  S7  1  0.02037770  0.66631564  0.41527724  1
  S  S8  1  0.52063251  0.66632587  0.41458732  1
  O  O0  1  0.10247944  0.03856413  0.31065122  1
  O  O1  1  0.60311994  0.03608862  0.30948831  1
  O  O2  1  0.41943938  0.80378155  0.30989513  1
  O  O3  1  0.91707350  0.80049541  0.31012235  1
  O  O4  1  0.48559181  0.18959214  0.30594454  1
  O  O5  1  0.97782328  0.17974548  0.31026435  1
  O  O6  1  0.10461736  0.17224811  0.81132817  1
  O  O7  1  0.60111083  0.16783510  0.81246416  1
  O  O8  1  0.47671641  0.77377566  0.81166452  1
  O  O9  1  0.98725763  0.78253522  0.80804449  1
  O  O10  1  0.41502299  0.03137931  0.81162806  1
  O  O11  1  0.91801871  0.03489937  0.81236842  1
  O  O12  1  0.39489396  0.96220237  0.69253272  1
  O  O13  1  0.90006704  0.97679783  0.69277097  1
  O  O14  1  0.08529756  0.20935785  0.69404396  1
  O  O15  1  0.58807513  0.20720549  0.69334508  1
  O  O16  1  0.01232120  0.81784089  0.70000562  1
  O  O17  1  0.51744395  0.83321540  0.69574482  1
  O  O18  1  0.39790744  0.82402810  0.19039615  1
  O  O19  1  0.89475375  0.82654102  0.19158007  1
  O  O20  1  0.01838599  0.20407228  0.19451394  1
  O  O21  1  0.50997024  0.20187243  0.19804020  1
  O  O22  1  0.08903654  0.96928589  0.19148599  1
  O  O23  1  0.58656715  0.95938029  0.19342706  1
  O  O24  1  0.43305453  0.35991332  0.64426090  1
  O  O25  1  0.93732769  0.36351690  0.64378833  1
  O  O26  1  0.25028675  0.13096073  0.64423923  1
  O  O27  1  0.74335752  0.12124507  0.64104106  1
  O  O28  1  0.31987742  0.51987342  0.63613567  1
  O  O29  1  0.81779285  0.49884266  0.63730082  1
  O  O30  1  0.43574247  0.50804640  0.14210350  1
  O  O31  1  0.93394597  0.50669153  0.14387124  1
  O  O32  1  0.32269799  0.12866151  0.13483025  1
  O  O33  1  0.82016543  0.12070991  0.13618084  1
  O  O34  1  0.24513387  0.36297898  0.14035779  1
  O  O35  1  0.74832395  0.36526089  0.14403621  1
  O  O36  1  0.22498289  0.29066066  0.02322774  1
  O  O37  1  0.72254907  0.28699471  0.02471186  1
  O  O38  1  0.41725787  0.52604209  0.02278508  1
  O  O39  1  0.91786932  0.52567405  0.02220903  1
  O  O40  1  0.34569745  0.14394197  0.02664464  1
  O  O41  1  0.84483509  0.14426560  0.02720114  1
  O  O42  1  0.22402915  0.15830796  0.52418831  1
  O  O43  1  0.72351204  0.15589047  0.52223854  1
  O  O44  1  0.34460935  0.54414667  0.52700058  1
  O  O45  1  0.84862702  0.53488686  0.51838484  1
  O  O46  1  0.41639731  0.30533520  0.52229364  1
  O  O47  1  0.91923020  0.30582882  0.52312949  1
  O  O48  1  0.26987721  0.69865783  0.97595923  1
  O  O49  1  0.77424787  0.70276345  0.97670843  1
  O  O50  1  0.07570997  0.46066940  0.96833880  1
  O  O51  1  0.57576737  0.46244777  0.96992890  1
  O  O52  1  0.14964284  0.84209113  0.97379719  1
  O  O53  1  0.65159738  0.84457734  0.97612753  1
  O  O54  1  0.27387728  0.84493653  0.47585864  1
  O  O55  1  0.76895313  0.84040135  0.47315808  1
  O  O56  1  0.15200107  0.46050266  0.47477321  1
  O  O57  1  0.64530205  0.45355858  0.47082081  1
  O  O58  1  0.07661597  0.69082649  0.46857976  1
  O  O59  1  0.57559941  0.69161371  0.46736536  1
  O  O60  1  0.06205988  0.64297469  0.36167032  1
  O  O61  1  0.55782022  0.63776736  0.35986185  1
  O  O62  1  0.25084548  0.87244551  0.36191918  1
  O  O63  1  0.75544220  0.89287996  0.35736943  1
  O  O64  1  0.18417418  0.48959489  0.35917770  1
  O  O65  1  0.67841973  0.49377327  0.35360514  1
  O  O66  1  0.05798310  0.47901591  0.86132434  1
  O  O67  1  0.55778388  0.47935719  0.86335180  1
  O  O68  1  0.18203401  0.86601179  0.85663634  1
  O  O69  1  0.68383790  0.87671530  0.86076109  1
  O  O70  1  0.25271088  0.62248174  0.85948375  1
  O  O71  1  0.74968230  0.62813108  0.86299842  1
  O  O72  1  0.01427590  0.82220788  0.41313684  1
  O  O73  1  0.51367707  0.82434096  0.41243996  1
  O  O74  1  0.41153806  0.97796527  0.40911926  1
  O  O75  1  0.90983983  0.97446978  0.41129034  1
  O  O76  1  0.08272548  0.17641213  0.41201433  1
  O  O77  1  0.57952318  0.17839242  0.40795660  1
  O  O78  1  0.01438774  0.20451294  0.91344055  1
  O  O79  1  0.51278330  0.20527927  0.91462309  1
  O  O80  1  0.08230214  0.98354770  0.90941664  1
  O  O81  1  0.58309203  0.98930902  0.91294713  1
  O  O82  1  0.40982983  0.84757788  0.91257145  1
  O  O83  1  0.91219600  0.84402773  0.90964851  1
  O  O84  1  0.48173288  0.15846904  0.58672272  1
  O  O85  1  0.98834589  0.16774064  0.58623192  1
  O  O86  1  0.09591868  0.02554622  0.59193272  1
  O  O87  1  0.59049972  0.02519680  0.58659747  1
  O  O88  1  0.40809923  0.79836130  0.58662657  1
  O  O89  1  0.91637710  0.81475250  0.58628932  1
  O  O90  1  0.48418594  0.80712140  0.08563747  1
  O  O91  1  0.98341593  0.80617647  0.08578330  1
  O  O92  1  0.40890742  0.02019984  0.08820862  1
  O  O93  1  0.90831829  0.01739705  0.08646471  1
  O  O94  1  0.09071949  0.15886819  0.08610144  1
  O  O95  1  0.59221554  0.16487745  0.09128392  1
  O  O96  1  0.34448934  0.16868220  0.74985161  1
  O  O97  1  0.85075048  0.17938611  0.74937664  1
  O  O98  1  0.24168087  0.32068276  0.74469642  1
  O  O99  1  0.73919233  0.30395356  0.74855743  1
  O  O100  1  0.41024136  0.51246716  0.74242591  1
  O  O101  1  0.92392860  0.53537967  0.74661135  1
  O  O102  1  0.35100588  0.52620317  0.24721505  1
  O  O103  1  0.84416305  0.52030286  0.24880512  1
  O  O104  1  0.42198801  0.30852085  0.24409731  1
  O  O105  1  0.91022255  0.30796704  0.24177267  1
  O  O106  1  0.24035443  0.17100854  0.24507161  1
  O  O107  1  0.74192879  0.16310893  0.24375504  1
  O  O108  1  0.32690570  0.50037787  0.92037810  1
  O  O109  1  0.82747263  0.49926059  0.92053756  1
  O  O110  1  0.43353067  0.35481012  0.92374666  1
  O  O111  1  0.93380894  0.35181504  0.92234165  1
  O  O112  1  0.25736815  0.15065204  0.92237132  1
  O  O113  1  0.75885080  0.15615844  0.92515548  1
  O  O114  1  0.32750796  0.15558940  0.42002903  1
  O  O115  1  0.82811732  0.16038565  0.42305752  1
  O  O116  1  0.25845339  0.36091001  0.42420456  1
  O  O117  1  0.75325989  0.35890357  0.41777025  1
  O  O118  1  0.43382908  0.51606967  0.42095077  1
  O  O119  1  0.93643512  0.51206301  0.41956307  1
  O  O120  1  0.18241917  0.51066534  0.07708811  1
  O  O121  1  0.68362403  0.51033618  0.07818286  1
  O  O122  1  0.07517962  0.65449365  0.07815947  1
  O  O123  1  0.57746643  0.65762459  0.07840281  1
  O  O124  1  0.25572043  0.87341809  0.07847847  1
  O  O125  1  0.75544428  0.87028048  0.07764266  1
  O  O126  1  0.18516592  0.85910562  0.57781018  1
  O  O127  1  0.67867687  0.85239091  0.57607086  1
  O  O128  1  0.25523244  0.64002364  0.57742614  1
  O  O129  1  0.74947169  0.63774281  0.57657732  1
  O  O130  1  0.07820292  0.50203305  0.57863580  1
  O  O131  1  0.57246852  0.49427582  0.57750888  1
  O  O132  1  0.14895350  0.82357820  0.25678440  1
  O  O133  1  0.65110650  0.81491996  0.25902012  1
  O  O134  1  0.26005116  0.67844298  0.25373981  1
  O  O135  1  0.75811916  0.68895602  0.25412431  1
  O  O136  1  0.08112339  0.48270538  0.25664543  1
  O  O137  1  0.57498405  0.46108172  0.25379148  1
  O  O138  1  0.15051533  0.48603353  0.75984010  1
  O  O139  1  0.64841673  0.47241477  0.75854256  1
  O  O140  1  0.07721646  0.69064576  0.75622899  1
  O  O141  1  0.58103843  0.67997991  0.75775593  1
  O  O142  1  0.25777606  0.82760081  0.75412243  1
  O  O143  1  0.76101678  0.84324296  0.75474425  1
loop_
_geom_bond_atom_site_label_1
_geom_bond_atom_site_label_2
_geom_bond_distance
_geom_bond_site_symmetry_2
Na0 O105 2.396765 1_555
Na0 O107 2.423573 1_555
Na0 O135 2.516720 1_545
Na0 O63 2.558745 1_545
Na0 O133 2.623301 1_545
Na0 O5 2.793942 1_555
Na0 O33 2.824110 1_555
Na0 O19 2.972237 1_545
Na1 O136 2.478872 1_555
Na1 O106 2.495669 1_555
Na1 O134 2.524898 1_555
Na1 O64 2.610891 1_555
Na1 O102 2.761648 1_555
Na1 O20 2.773829 1_555
Na1 O0 2.808321 1_555
Na1 O34 2.823857 1_555
Na2 O103 2.402209 1_555
Na2 O107 2.477834 1_555
Na2 O135 2.507127 1_555
Na2 O65 2.552873 1_555
Na2 O137 2.609245 1_555
Na2 O35 2.675894 1_555
Na2 O1 2.909347 1_555
Na3 O103 2.407173 1_555
Na3 O132 2.436611 1_655
Na3 O136 2.495907 1_655
Na3 O105 2.516749 1_555
Na3 O31 2.533286 1_555
Na3 O60 2.809815 1_655
Na3 O22 2.947836 1_655
Na3 O3 2.947986 1_555
Na4 O133 2.300845 1_555
Na4 O102 2.430346 1_555
Na4 O137 2.564698 1_555
Na4 O61 2.594208 1_555
Na4 O104 2.657390 1_555
Na4 O30 2.753627 1_555
Na4 O23 2.789793 1_555
Na4 O2 2.872629 1_555
Na5 O100 2.387254 1_555
Na5 O98 2.407612 1_555
Na5 O142 2.529082 1_555
Na5 O138 2.632726 1_555
Na5 O70 2.687530 1_555
Na5 O28 2.750060 1_555
Na5 O8 2.829662 1_555
Na5 O12 2.940152 1_555
Na6 O138 2.341300 1_555
Na6 O97 2.392468 1_455
Na6 O25 2.580666 1_455
Na6 O140 2.606583 1_555
Na6 O101 2.613047 1_455
Na6 O14 2.738012 1_555
Na6 O66 2.760156 1_555
Na6 O11 2.949304 1_455
Na7 O139 2.422089 1_555
Na7 O96 2.426578 1_555
Na7 O24 2.485381 1_555
Na7 O141 2.492639 1_555
Na7 O100 2.525646 1_555
Na7 O67 2.872296 1_555
Na7 O15 2.887002 1_555
Na8 O96 2.424168 1_555
Na8 O98 2.465464 1_555
Na8 O142 2.522659 1_545
Na8 O140 2.587455 1_545
Na8 O26 2.612566 1_555
Na8 O68 2.696512 1_545
Na8 O6 2.930824 1_555
Na8 O16 2.987718 1_545
Na9 O99 2.421158 1_565
Na9 O143 2.486635 1_555
Na9 O141 2.519380 1_555
Na9 O97 2.681033 1_565
Na9 O27 2.686973 1_565
Na9 O69 2.734084 1_555
Na9 O17 2.799103 1_555
Na9 O7 2.927997 1_565
Na10 O86 2.397458 1_555
Na10 O130 2.491076 1_555
Na10 O85 2.511264 1_455
Na10 O128 2.517046 1_555
Na10 O56 2.686385 1_555
Na10 O14 2.737225 1_555
Na10 O42 2.815123 1_555
Na10 O28 2.935307 1_555
Na11 O129 2.428818 1_555
Na11 O87 2.430318 1_555
Na11 O131 2.493250 1_555
Na11 O84 2.647544 1_555
Na11 O57 2.740387 1_555
Na11 O15 2.741123 1_555
Na11 O43 2.864332 1_555
Na11 O29 2.883034 1_555
Na12 O84 2.315924 1_565
Na12 O126 2.358725 1_555
Na12 O88 2.604887 1_555
Na12 O12 2.657885 1_555
Na12 O128 2.696497 1_555
Na12 O54 2.717712 1_555
Na12 O26 2.805215 1_565
Na12 O46 2.906721 1_565
Na13 O127 2.440860 1_555
Na13 O85 2.465288 1_565
Na13 O89 2.523634 1_555
Na13 O129 2.600926 1_555
Na13 O55 2.680934 1_555
Na13 O13 2.737551 1_555
Na13 O27 2.914478 1_565
Na13 O47 2.953246 1_565
Na14 O94 2.391445 1_565
Na14 O122 2.430708 1_555
Na14 O91 2.510440 1_455
Na14 O124 2.542464 1_555
Na14 O52 2.655642 1_554
Na14 O22 2.675077 1_555
Na14 O36 2.873913 1_565
Na15 O95 2.458671 1_565
Na15 O123 2.485106 1_555
Na15 O125 2.486258 1_555
Na15 O53 2.603390 1_554
Na15 O90 2.629264 1_555
Na15 O37 2.756685 1_565
Na15 O23 2.769331 1_555
Na15 O33 2.912045 1_565
Na16 O120 2.372166 1_555
Na16 O90 2.384880 1_555
Na16 O92 2.610522 1_565
Na16 O48 2.649708 1_554
Na16 O124 2.672308 1_555
Na16 O18 2.689463 1_555
Na16 O34 2.869272 1_555
Na16 O38 2.908669 1_555
Na17 O91 2.342787 1_555
Na17 O121 2.381949 1_555
Na17 O93 2.598339 1_565
Na17 O19 2.627746 1_555
Na17 O125 2.693005 1_555
Na17 O49 2.704715 1_554
Na17 O35 2.841489 1_555
Na17 O39 2.934219 1_555
Na18 O108 2.447547 1_555
Na18 O82 2.455442 1_555
Na18 O81 2.463429 1_555
Na18 O8 2.472068 1_555
Na18 O110 2.620346 1_555
Na18 O38 2.755494 1_556
Na18 O53 2.975617 1_555
Na18 O67 2.988214 1_555
Na19 O109 2.436563 1_555
Na19 O83 2.449069 1_555
Na19 O80 2.469909 1_655
Na19 O111 2.592821 1_555
Na19 O39 2.609785 1_556
Na19 O9 2.689036 1_555
Na19 O52 2.861173 1_655
Na20 O82 2.393867 1_545
Na20 O112 2.418929 1_555
Na20 O10 2.495475 1_555
Na20 O110 2.577774 1_555
Na20 O79 2.579935 1_555
Na20 O40 2.825931 1_556
Na20 O68 2.847607 1_545
Na20 O48 2.989076 1_545
Na21 O113 2.422681 1_555
Na21 O83 2.467166 1_545
Na21 O11 2.554532 1_555
Na21 O111 2.557618 1_555
Na21 O78 2.624644 1_655
Na21 O69 2.787466 1_545
Na21 O41 2.794205 1_556
Na21 O49 2.938058 1_545
Na22 O80 2.454976 1_545
Na22 O6 2.473421 1_555
Na22 O78 2.499000 1_555
Na22 O108 2.508163 1_555
Na22 O112 2.535609 1_555
Na22 O36 2.725377 1_556
Na22 O70 2.801857 1_555
Na23 O81 2.395143 1_545
Na23 O7 2.486131 1_555
Na23 O79 2.504687 1_555
Na23 O113 2.534136 1_555
Na23 O109 2.537968 1_555
Na23 O37 2.730892 1_556
Na23 O71 2.835023 1_555
Na24 O77 2.449442 1_555
Na24 O114 2.471847 1_555
Na24 O74 2.509913 1_545
Na24 O46 2.550080 1_555
Na24 O118 2.586757 1_555
Na24 O57 2.709582 1_555
Na24 O4 2.805666 1_555
Na25 O115 2.385201 1_555
Na25 O75 2.437215 1_545
Na25 O76 2.510368 1_655
Na25 O119 2.540409 1_555
Na25 O5 2.600770 1_555
Na25 O47 2.619018 1_555
Na26 O76 2.386936 1_555
Na26 O72 2.467982 1_545
Na26 O116 2.519180 1_555
Na26 O114 2.547562 1_555
Na26 O0 2.577972 1_555
Na26 O42 2.660118 1_555
Na26 O62 2.883213 1_545
Na27 O117 2.431454 1_555
Na27 O115 2.445783 1_555
Na27 O77 2.519986 1_555
Na27 O43 2.545320 1_555
Na27 O73 2.577698 1_545
Na27 O1 2.666976 1_555
Na27 O63 2.817150 1_545
Na28 O116 2.415416 1_555
Na28 O74 2.456376 1_555
Na28 O118 2.540465 1_555
Na28 O73 2.607338 1_555
Na28 O2 2.683926 1_555
Na28 O44 2.729495 1_555
Na28 O64 2.834982 1_555
Na28 O54 2.892411 1_555
Na29 O117 2.418893 1_555
Na29 O75 2.444113 1_555
Na29 O45 2.540184 1_555
Na29 O119 2.600323 1_555
Na29 O72 2.621116 1_655
Na29 O3 2.726441 1_555
Na29 O55 2.878395 1_555
Na29 O65 2.998358 1_555
Na30 O75 2.460987 1_555
Na30 O76 2.512897 1_665
Na30 O89 2.518695 1_555
Na30 O85 2.556495 1_565
Na30 O72 2.576838 1_655
Na30 O86 2.645462 1_665
Na31 O87 2.438774 1_555
Na31 O84 2.508495 1_555
Na31 O77 2.509622 1_555
Na31 O74 2.544443 1_545
Na31 O73 2.629939 1_545
Na31 O88 2.697263 1_545
Na32 O94 2.478004 1_566
Na32 O83 2.484035 1_455
Na32 O80 2.494477 1_555
Na32 O91 2.519896 1_456
Na32 O78 2.609181 1_565
Na32 O93 2.683878 1_466
Na33 O81 2.359700 1_545
Na33 O82 2.402651 1_545
Na33 O79 2.527000 1_555
Na33 O90 2.595183 1_546
Na33 O95 2.636482 1_556
Na33 O92 2.775748 1_556
Na34 O96 2.404580 1_555
Na34 O98 2.410115 1_555
Na34 O100 2.467632 1_555
Na34 O108 2.556031 1_555
Na34 O112 2.607171 1_555
Na34 O110 2.773480 1_555
Na35 O99 2.374959 1_555
Na35 O109 2.464572 1_555
Na35 O97 2.486911 1_555
Na35 O113 2.514143 1_555
Na35 O101 2.667055 1_555
Na35 O111 2.723834 1_555
Na36 O114 2.369486 1_555
Na36 O116 2.417592 1_555
Na36 O106 2.517133 1_555
Na36 O118 2.623876 1_555
Na36 O102 2.649302 1_555
Na36 O104 2.760942 1_555
Na37 O117 2.451986 1_555
Na37 O115 2.495045 1_555
Na37 O107 2.500502 1_555
Na37 O103 2.514600 1_555
Na37 O105 2.567825 1_555
Na37 O119 2.642119 1_555
Na38 O136 2.459664 1_555
Na38 O122 2.520071 1_555
Na38 O132 2.540924 1_555
Na38 O134 2.561302 1_555
Na38 O120 2.580139 1_555
Na38 O124 2.782779 1_555
Na39 O135 2.436417 1_555
Na39 O133 2.509322 1_555
Na39 O137 2.541177 1_555
Na39 O121 2.573028 1_555
Na39 O123 2.576210 1_555
Na39 O125 2.754348 1_555
Na40 O142 2.475163 1_555
Na40 O130 2.506619 1_555
Na40 O138 2.560031 1_555
Na40 O140 2.563712 1_555
Na40 O126 2.575796 1_555
Na40 O128 2.743181 1_555
Na41 O131 2.508943 1_555
Na41 O127 2.551685 1_555
Na41 O129 2.595217 1_555
Na41 O143 2.610995 1_555
Na41 O141 2.614598 1_555
Na41 O139 2.644062 1_555
Hf0 O13 2.001560 1_545
Hf0 O85 2.030758 1_555
Hf0 O86 2.044912 1_655
Hf0 O14 2.046438 1_655
Hf0 O89 2.055405 1_545
Hf0 O16 2.227370 1_645
Hf1 O15 1.963743 1_555
Hf1 O17 1.998258 1_545
Hf1 O12 2.040809 1_545
Hf1 O87 2.060188 1_555
Hf1 O84 2.133864 1_555
Hf1 O88 2.259108 1_545
Hf2 O22 1.968247 1_545
Hf2 O20 1.981976 1_555
Hf2 O19 2.023767 1_445
Hf2 O94 2.093796 1_555
Hf2 O91 2.146901 1_445
Hf2 O93 2.258135 1_455
Hf3 O23 1.943746 1_555
Hf3 O18 2.000750 1_555
Hf3 O95 2.034756 1_565
Hf3 O90 2.042785 1_555
Hf3 O21 2.170898 1_565
Hf3 O92 2.281975 1_565
Hf4 O29 1.967883 1_555
Hf4 O27 1.974840 1_555
Hf4 O25 2.033538 1_555
Hf4 O99 2.108212 1_555
Hf4 O97 2.144552 1_555
Hf4 O101 2.263581 1_555
Hf5 O34 1.963056 1_555
Hf5 O102 2.012133 1_555
Hf5 O30 2.017141 1_555
Hf5 O106 2.056597 1_555
Hf5 O32 2.197568 1_555
Hf5 O104 2.202402 1_555
Hf6 O52 2.006719 1_554
Hf6 O48 2.038013 1_554
Hf6 O50 2.049370 1_554
Hf6 O122 2.050177 1_555
Hf6 O120 2.069426 1_555
Hf6 O124 2.225271 1_555
Hf7 O53 2.016117 1_554
Hf7 O49 2.032470 1_554
Hf7 O121 2.062082 1_555
Hf7 O51 2.068781 1_554
Hf7 O123 2.074152 1_555
Hf7 O125 2.153239 1_555
Hf8 O56 2.015801 1_555
Hf8 O54 2.049233 1_555
Hf8 O130 2.050423 1_555
Hf8 O126 2.051557 1_555
Hf8 O58 2.074206 1_555
Hf8 O128 2.165552 1_555
Hf9 O129 2.009652 1_555
Hf9 O57 2.028830 1_555
Hf9 O55 2.048638 1_555
Hf9 O127 2.056871 1_555
Hf9 O131 2.068473 1_555
Hf9 O59 2.180911 1_555
Hf10 O62 1.973254 1_555
Hf10 O134 2.006619 1_555
Hf10 O64 2.048692 1_555
Hf10 O132 2.055807 1_555
Hf10 O136 2.090836 1_555
Hf10 O60 2.221074 1_555
Hf11 O143 1.977154 1_555
Hf11 O71 1.992298 1_555
Hf11 O139 2.030446 1_555
Hf11 O69 2.052463 1_555
Hf11 O141 2.076969 1_555
Hf11 O67 2.317733 1_555
Ga0 O5 1.873790 1_555
Ga0 O3 1.928242 1_545
Ga0 O0 1.978077 1_655
Ga0 O75 2.048519 1_545
Ga0 O76 2.080967 1_655
Ga0 O72 2.435675 1_645
Ga1 O2 1.911797 1_545
Ga1 O1 1.922491 1_555
Ga1 O77 1.942878 1_555
Ga1 O74 2.033993 1_545
Ga1 O4 2.125508 1_555
Ga1 O73 2.201417 1_545
Ga2 O11 1.898837 1_465
Ga2 O6 1.914685 1_565
Ga2 O80 2.026149 1_555
Ga2 O9 2.040915 1_455
Ga2 O83 2.067164 1_455
Ga2 O78 2.277663 1_565
Ga3 O8 1.863801 1_555
Ga3 O7 1.923657 1_565
Ga3 O10 1.924218 1_565
Ga3 O82 2.107343 1_555
Ga3 O81 2.128227 1_555
Ga3 O79 2.460525 1_565
Ga4 O24 1.904677 1_555
Ga4 O26 1.907720 1_555
Ga4 O96 1.964649 1_555
Ga4 O100 1.969703 1_555
Ga4 O98 2.115858 1_555
Ga4 O28 2.326960 1_555
Ga5 O31 1.926096 1_555
Ga5 O35 1.930432 1_555
Ga5 O103 1.941413 1_555
Ga5 O105 1.961962 1_555
Ga5 O107 2.098464 1_555
Ga5 O33 2.313017 1_555
Ga6 O36 1.851931 1_556
Ga6 O108 1.897152 1_555
Ga6 O38 1.907392 1_556
Ga6 O112 2.023636 1_555
Ga6 O40 2.332601 1_556
Ga6 O110 2.348896 1_555
Ga7 O37 1.855488 1_556
Ga7 O39 1.884272 1_556
Ga7 O109 1.933159 1_555
Ga7 O113 1.986080 1_555
Ga7 O41 2.297755 1_556
Ga7 O111 2.425342 1_555
Ga8 O42 1.844666 1_555
Ga8 O46 1.871898 1_555
Ga8 O114 1.942722 1_555
Ga8 O116 2.014581 1_555
Ga8 O44 2.268210 1_555
Ga8 O118 2.437474 1_555
Ga9 O43 1.878102 1_555
Ga9 O45 1.911671 1_555
Ga9 O47 1.940502 1_555
Ga9 O115 2.031305 1_555
Ga9 O117 2.149163 1_555
Ga9 O119 2.419248 1_555
Ga10 O63 1.836648 1_555
Ga10 O65 1.893657 1_555
Ga10 O135 1.915469 1_555
Ga10 O133 2.032239 1_555
Ga10 O61 2.354396 1_555
Ga10 O137 2.486468 1_555
Ga11 O70 1.843775 1_555
Ga11 O142 1.895026 1_555
Ga11 O68 1.924872 1_555
Ga11 O138 1.986238 1_555
Ga11 O66 2.366083 1_555
Ga11 O140 2.387024 1_555
O0 Si0 1.626627 1_545
O1 Si1 1.632210 1_545
O2 Si2 1.619129 1_555
O3 Si3 1.629409 1_555
O4 S0 1.471329 1_555
O5 Si4 1.630387 1_555
O6 Si5 1.652654 1_555
O7 Si6 1.636289 1_555
O8 Si7 1.642289 1_555
O9 S1 1.487309 1_655
O10 Si8 1.637812 1_545
O11 Si9 1.635696 1_555
O12 Si8 1.638275 1_555
O13 Si9 1.618522 1_565
O14 Si5 1.641112 1_555
O15 Si6 1.645404 1_555
O16 S1 1.477122 1_555
O17 Si7 1.629049 1_555
O18 Si2 1.627890 1_555
O19 Si3 1.650451 1_555
O20 Si4 1.636718 1_455
O21 S0 1.490128 1_555
O22 Si0 1.651077 1_555
O23 Si1 1.674832 1_555
O24 Si10 1.620712 1_555
O25 Si11 1.633669 1_555
O26 Si12 1.625606 1_555
O27 Si13 1.653971 1_555
O28 S2 1.464619 1_555
O29 Si14 1.632724 1_555
O30 Si15 1.633656 1_555
O31 Si16 1.615696 1_555
O32 S3 1.475497 1_555
O33 S4 1.463460 1_555
O34 Si17 1.653720 1_555
O35 Si18 1.622341 1_555
O36 Si17 1.631354 1_555
O37 Si18 1.640053 1_555
O38 Si15 1.630111 1_555
O39 Si16 1.646576 1_555
O40 S3 1.459777 1_555
O41 S4 1.464331 1_555
O42 Si12 1.641558 1_555
O43 Si13 1.628105 1_555
O44 S2 1.467547 1_555
O45 Si14 1.620579 1_555
O46 Si10 1.649917 1_555
O47 Si11 1.621162 1_555
O48 Si19 1.653912 1_555
O49 Si20 1.655182 1_555
O50 S5 1.508860 1_555
O51 S6 1.504884 1_555
O52 Si21 1.657987 1_555
O53 Si22 1.653908 1_555
O54 Si23 1.648439 1_555
O55 Si24 1.643245 1_555
O56 Si25 1.646575 1_555
O57 Si26 1.644178 1_555
O58 S7 1.502535 1_555
O59 S8 1.478285 1_555
O60 S7 1.488594 1_555
O61 S8 1.481746 1_555
O62 Si23 1.631019 1_555
O63 Si24 1.647450 1_555
O64 Si25 1.650160 1_555
O65 Si26 1.657046 1_555
O66 S5 1.469931 1_555
O67 S6 1.479634 1_555
O68 Si21 1.643208 1_555
O69 Si22 1.639271 1_555
O70 Si19 1.629220 1_555
O71 Si20 1.625227 1_555
O72 S7 1.469993 1_555
O73 S8 1.497778 1_555
O74 Si23 1.639435 1_555
O75 Si24 1.650049 1_555
O76 Si25 1.637919 1_555
O77 Si26 1.662849 1_555
O78 S5 1.484718 1_555
O79 S6 1.468963 1_555
O80 Si21 1.652982 1_555
O81 Si22 1.638726 1_555
O82 Si19 1.637816 1_555
O83 Si20 1.642602 1_555
O84 Si10 1.676805 1_555
O85 Si11 1.668407 1_555
O86 Si12 1.626737 1_555
O87 Si13 1.633703 1_555
O88 S2 1.488374 1_555
O89 Si14 1.631034 1_555
O90 Si15 1.681431 1_555
O91 Si16 1.674378 1_555
O92 S3 1.483014 1_555
O93 S4 1.489835 1_555
O94 Si17 1.624770 1_555
O95 Si18 1.648814 1_555
O96 Si8 1.639246 1_545
O97 Si9 1.649327 1_555
O98 Si5 1.638379 1_555
O99 Si6 1.638469 1_555
O100 Si7 1.628697 1_555
O101 S1 1.483979 1_655
O102 Si2 1.672033 1_555
O103 Si3 1.640162 1_555
O104 S0 1.495268 1_555
O105 Si4 1.626957 1_555
O106 Si0 1.653141 1_545
O107 Si1 1.628024 1_545
O108 Si19 1.654677 1_555
O109 Si20 1.647044 1_555
O110 S6 1.474770 1_555
O111 S5 1.473818 1_655
O112 Si21 1.664404 1_545
O113 Si22 1.660087 1_545
O114 Si23 1.645514 1_545
O115 Si24 1.649545 1_545
O116 Si25 1.661303 1_555
O117 Si26 1.640462 1_555
O118 S8 1.483702 1_555
O119 S7 1.464273 1_655
O120 Si17 1.635535 1_555
O121 Si18 1.648005 1_555
O122 Si16 1.665538 1_455
O123 Si15 1.639442 1_555
O124 S3 1.510725 1_565
O125 S4 1.530078 1_565
O126 Si12 1.649247 1_565
O127 Si13 1.623758 1_565
O128 S2 1.526954 1_555
O129 Si14 1.664742 1_555
O130 Si11 1.652729 1_455
O131 Si10 1.639360 1_555
O132 Si0 1.626906 1_555
O133 Si1 1.659340 1_555
O134 Si2 1.632650 1_555
O135 Si3 1.656533 1_555
O136 Si4 1.641335 1_455
O137 S0 1.473843 1_555
O138 Si5 1.671932 1_555
O139 Si6 1.628770 1_555
O140 S1 1.484388 1_555
O141 Si7 1.640640 1_555
O142 Si8 1.658000 1_555
O143 Si9 1.647346 1_565
