# generated using pymatgen
data_Na4GeO4
_symmetry_space_group_name_H-M   'P 1'
_cell_length_a   5.65762612
_cell_length_b   5.66367283
_cell_length_c   8.54586791
_cell_angle_alpha   81.35224744
_cell_angle_beta   71.36182385
_cell_angle_gamma   68.10850334
_symmetry_Int_Tables_number   1
_chemical_formula_structural   Na4GeO4
_chemical_formula_sum   'Na8 Ge2 O8'
_cell_volume   240.61181471
_cell_formula_units_Z   2
loop_
 _symmetry_equiv_pos_site_id
 _symmetry_equiv_pos_as_xyz
  1  'x, y, z'
loop_
 _atom_site_type_symbol
 _atom_site_label
 _atom_site_symmetry_multiplicity
 _atom_site_fract_x
 _atom_site_fract_y
 _atom_site_fract_z
 _atom_site_occupancy
  Na  Na0  1  0.98158414  0.23449921  0.06377550  1
  Na  Na1  1  0.44738641  0.73995079  0.10373573  1
  Na  Na2  1  0.89229748  0.77289489  0.31984841  1
  Na  Na3  1  0.25886679  0.74294376  0.51294926  1
  Na  Na4  1  0.74113321  0.25705624  0.48705074  1
  Na  Na5  1  0.55261359  0.26004921  0.89626427  1
  Na  Na6  1  0.01841586  0.76550079  0.93622450  1
  Na  Na7  1  0.10770252  0.22710511  0.68015159  1
  Ge  Ge0  1  0.34286471  0.22094959  0.25519501  1
  Ge  Ge1  1  0.65713529  0.77905041  0.74480499  1
  O  O0  1  0.33663113  0.97060283  0.86229289  1
  O  O1  1  0.79650336  0.52485821  0.87601255  1
  O  O2  1  0.20349664  0.47514179  0.12398745  1
  O  O3  1  0.86077285  0.97000296  0.69542574  1
  O  O4  1  0.13922715  0.02999704  0.30457426  1
  O  O5  1  0.64796739  0.65470359  0.57137332  1
  O  O6  1  0.66336887  0.02939717  0.13770711  1
  O  O7  1  0.35203261  0.34529641  0.42862668  1
loop_
_geom_bond_atom_site_label_1
_geom_bond_atom_site_label_2
_geom_bond_distance
_geom_bond_site_symmetry_2
Na0 O1 2.317738 1_554
Na0 O0 2.357534 1_644
Na0 O2 2.366101 1_655
Na0 O6 2.366760 1_555
Na0 O4 2.461240 1_655
Na1 O4 2.341690 1_565
Na1 O2 2.344309 1_555
Na1 O1 2.373676 1_554
Na1 O0 2.400409 1_554
Na1 O6 2.475576 1_565
Na2 O5 2.310277 1_555
Na2 O6 2.327309 1_565
Na2 O4 2.330739 1_665
Na2 O2 2.344454 1_655
Na3 O5 2.269856 1_555
Na3 O7 2.286767 1_555
Na3 O4 2.313349 1_565
Na3 O3 2.314419 1_455
Na4 O7 2.269856 1_555
Na4 O5 2.286767 1_555
Na4 O3 2.313349 1_545
Na4 O4 2.314419 1_655
Na5 O3 2.341690 1_545
Na5 O1 2.344309 1_555
Na5 O2 2.373676 1_556
Na5 O6 2.400409 1_556
Na5 O0 2.475576 1_545
Na6 O2 2.317738 1_556
Na6 O6 2.357534 1_466
Na6 O1 2.366101 1_455
Na6 O0 2.366760 1_555
Na6 O3 2.461240 1_455
Na7 O7 2.310277 1_555
Na7 O0 2.327309 1_545
Na7 O3 2.330739 1_445
Na7 O1 2.344454 1_455
Ge0 O7 1.756597 1_555
Ge0 O4 1.776567 1_555
Ge0 O6 1.780452 1_555
Ge0 O2 1.784602 1_555
Ge1 O5 1.756597 1_555
Ge1 O3 1.776567 1_555
Ge1 O0 1.780452 1_555
Ge1 O1 1.784602 1_555
