# generated using pymatgen
data_Ho10Te7S10
_symmetry_space_group_name_H-M   'P 1'
_cell_length_a   7.60739062
_cell_length_b   9.60155123
_cell_length_c   11.36171880
_cell_angle_alpha   90.93877504
_cell_angle_beta   102.80974396
_cell_angle_gamma   111.48162325
_symmetry_Int_Tables_number   1
_chemical_formula_structural   Ho10Te7S10
_chemical_formula_sum   'Ho10 Te7 S10'
_cell_volume   748.65630814
_cell_formula_units_Z   1
loop_
 _symmetry_equiv_pos_site_id
 _symmetry_equiv_pos_as_xyz
  1  'x, y, z'
loop_
 _atom_site_type_symbol
 _atom_site_label
 _atom_site_symmetry_multiplicity
 _atom_site_fract_x
 _atom_site_fract_y
 _atom_site_fract_z
 _atom_site_occupancy
  Ho  Ho0  1  0.98550178  0.28971665  0.07296334  1
  Ho  Ho1  1  0.36601258  0.68588632  0.26735594  1
  Ho  Ho2  1  0.41118336  0.10633442  0.13477786  1
  Ho  Ho3  1  0.76007991  0.10054230  0.46745972  1
  Ho  Ho4  1  0.81471074  0.49532780  0.32944555  1
  Ho  Ho5  1  0.16108678  0.50094204  0.67152230  1
  Ho  Ho6  1  0.23434492  0.89511480  0.53622790  1
  Ho  Ho7  1  0.58167116  0.90078096  0.87830915  1
  Ho  Ho8  1  0.63541343  0.29554664  0.74039404  1
  Ho  Ho9  1  0.03024495  0.71030281  0.94044303  1
  Te  Te0  1  0.45412749  0.45364469  0.09513332  1
  Te  Te1  1  0.94246924  0.94245993  0.11230911  1
  Te  Te2  1  0.35002822  0.35031285  0.31133086  1
  Te  Te3  1  0.19680319  0.19766334  0.60518053  1
  Te  Te4  1  0.58358587  0.58338959  0.82929575  1
  Te  Te5  1  0.81211396  0.81270310  0.37918093  1
  Te  Te6  1  0.04671778  0.04554681  0.89606546  1
  S  S0  1  0.99639888  0.56232671  0.14367334  1
  S  S1  1  0.40003222  0.83362493  0.06411806  1
  S  S2  1  0.38891295  0.96390519  0.34494412  1
  S  S3  1  0.78996918  0.22242998  0.25854982  1
  S  S4  1  0.78619168  0.37698785  0.54693015  1
  S  S5  1  0.19808552  0.61843034  0.46055511  1
  S  S6  1  0.19829614  0.77772423  0.74728911  1
  S  S7  1  0.60920650  0.01923669  0.66081642  1
  S  S8  1  0.60683550  0.17363708  0.94944443  1
  S  S9  1  0.00669507  0.43220395  0.86283967  1
loop_
_geom_bond_atom_site_label_1
_geom_bond_atom_site_label_2
_geom_bond_distance
_geom_bond_site_symmetry_2
Ho0 S0 2.691866 1_555
Ho0 S8 2.704541 1_554
Ho0 S9 2.777294 1_654
Ho0 S3 2.794235 1_555
Ho0 Te0 3.275561 1_655
Ho0 Te1 3.276924 1_545
Ho0 Te2 3.286285 1_655
Ho0 Te6 3.288304 1_654
Ho1 S0 2.653012 1_455
Ho1 S2 2.728994 1_555
Ho1 S1 2.741298 1_555
Ho1 S5 2.748429 1_555
Ho1 Te5 3.102374 1_555
Ho1 Te2 3.230883 1_555
Ho1 Te0 3.283894 1_555
Ho2 S1 2.691866 1_545
Ho2 S3 2.706065 1_555
Ho2 S2 2.778021 1_545
Ho2 S8 2.792282 1_554
Ho2 Te1 3.275539 1_445
Ho2 Te0 3.278189 1_555
Ho2 Te2 3.284196 1_555
Ho2 Te6 3.288229 1_554
Ho3 S2 2.667538 1_545
Ho3 S3 2.681536 1_555
Ho3 S7 2.696484 1_555
Ho3 S4 2.712164 1_555
Ho3 Te5 3.112430 1_545
Ho3 Te3 3.119897 1_655
Ho4 S3 2.655622 1_555
Ho4 S0 2.732427 1_555
Ho4 S4 2.755565 1_555
Ho4 S5 2.759169 1_655
Ho4 Te5 3.098117 1_555
Ho4 Te2 3.246610 1_555
Ho4 Te0 3.270295 1_555
Ho5 S6 2.673894 1_555
Ho5 S9 2.674208 1_555
Ho5 S4 2.687504 1_455
Ho5 S5 2.693019 1_555
Ho5 Te4 3.115396 1_555
Ho5 Te3 3.117656 1_555
Ho6 S2 2.674619 1_555
Ho6 S5 2.675091 1_555
Ho6 S7 2.687367 1_565
Ho6 S6 2.692566 1_555
Ho6 Te5 3.110968 1_455
Ho6 Te3 3.125097 1_565
Ho7 S8 2.654830 1_565
Ho7 S1 2.732672 1_556
Ho7 S7 2.755157 1_565
Ho7 S6 2.758852 1_555
Ho7 Te4 3.094797 1_555
Ho7 Te6 3.249840 1_665
Ho7 Te1 3.269087 1_556
Ho8 S9 2.668000 1_655
Ho8 S8 2.681887 1_555
Ho8 S4 2.697427 1_555
Ho8 S7 2.711039 1_555
Ho8 Te4 3.114025 1_555
Ho8 Te3 3.124054 1_555
Ho9 S1 2.653902 1_556
Ho9 S9 2.727969 1_555
Ho9 S0 2.742237 1_456
Ho9 S6 2.748462 1_555
Ho9 Te4 3.104783 1_455
Ho9 Te6 3.227502 1_565
Ho9 Te1 3.279230 1_456
Te0 Te2 2.830595 1_555
Te1 Te6 2.830860 1_664
