# generated using pymatgen
data_Na6ZnSi4Ge3(SO12)2
_symmetry_space_group_name_H-M   'P 1'
_cell_length_a   8.82427750
_cell_length_b   8.81050824
_cell_length_c   21.87895015
_cell_angle_alpha   91.20093171
_cell_angle_beta   89.76060215
_cell_angle_gamma   120.27125781
_symmetry_Int_Tables_number   1
_chemical_formula_structural   Na6ZnSi4Ge3(SO12)2
_chemical_formula_sum   'Na18 Zn3 Si12 Ge9 S6 O72'
_cell_volume   1468.71101210
_cell_formula_units_Z   3
loop_
 _symmetry_equiv_pos_site_id
 _symmetry_equiv_pos_as_xyz
  1  'x, y, z'
loop_
 _atom_site_type_symbol
 _atom_site_label
 _atom_site_symmetry_multiplicity
 _atom_site_fract_x
 _atom_site_fract_y
 _atom_site_fract_z
 _atom_site_occupancy
  Na  Na0  1  0.99143841  0.36018314  0.75238586  1
  Na  Na1  1  0.38648213  0.01275836  0.75059157  1
  Na  Na2  1  0.31142099  0.33533553  0.58516778  1
  Na  Na3  1  0.02925431  0.69873655  0.57879057  1
  Na  Na4  1  0.66010084  0.96643229  0.58783923  1
  Na  Na5  1  0.31084193  0.97302007  0.08460899  1
  Na  Na6  1  0.66004071  0.68732640  0.08514901  1
  Na  Na7  1  0.02700941  0.33675378  0.08476298  1
  Na  Na8  1  0.33601323  0.30009405  0.92095044  1
  Na  Na9  1  0.96465292  0.29075452  0.41364555  1
  Na  Na10  1  0.32384218  0.03450019  0.41407063  1
  Na  Na11  1  0.71239862  0.67816090  0.41435691  1
  Na  Na12  1  0.00026265  0.99717685  0.49471279  1
  Na  Na13  1  0.99519970  0.99425953  0.99777829  1
  Na  Na14  1  0.66710103  0.32886443  0.83355621  1
  Na  Na15  1  0.66732155  0.33382957  0.32654667  1
  Na  Na16  1  0.33391049  0.66727846  0.16751991  1
  Na  Na17  1  0.35478637  0.67117503  0.66879634  1
  Zn  Zn0  1  0.00130113  0.99895134  0.35514026  1
  Zn  Zn1  1  0.63925892  0.32317981  0.68630338  1
  Zn  Zn2  1  0.66416669  0.33310408  0.17479711  1
  Si  Si0  1  0.29017753  0.29507029  0.75187178  1
  Si  Si1  1  0.71262666  0.99142362  0.75320883  1
  Si  Si2  1  0.37324408  0.03789231  0.58305507  1
  Si  Si3  1  0.66493619  0.62505887  0.58365745  1
  Si  Si4  1  0.95109768  0.61673822  0.08383441  1
  Si  Si5  1  0.66198843  0.03569838  0.08448268  1
  Si  Si6  1  0.37979004  0.33956650  0.08223520  1
  Si  Si7  1  0.03959441  0.38640466  0.91580055  1
  Si  Si8  1  0.33060576  0.95245863  0.91598702  1
  Si  Si9  1  0.62057906  0.96017619  0.41690974  1
  Si  Si10  1  0.33486266  0.38602967  0.41723814  1
  Si  Si11  1  0.04379848  0.65867149  0.41849080  1
  Ge  Ge0  1  0.01485400  0.02673478  0.85573758  1
  Ge  Ge1  1  0.99553664  0.99390997  0.65043488  1
  Ge  Ge2  1  0.00262758  0.00169698  0.14244144  1
  Ge  Ge3  1  0.67209425  0.31349923  0.98376764  1
  Ge  Ge4  1  0.65226209  0.33943912  0.47614199  1
  Ge  Ge5  1  0.31697694  0.66548048  0.02050186  1
  Ge  Ge6  1  0.34851930  0.68066994  0.51516797  1
  Ge  Ge7  1  0.33133064  0.66460588  0.32066191  1
  Ge  Ge8  1  0.34338206  0.66824953  0.81611224  1
  S  S0  1  0.29181653  0.99491480  0.25111201  1
  S  S1  1  0.70212313  0.70764055  0.25101412  1
  S  S2  1  0.00568989  0.29725607  0.25163856  1
  S  S3  1  0.99894997  0.71304206  0.75111692  1
  S  S4  1  0.95860583  0.33357969  0.58375104  1
  S  S5  1  0.62871410  0.67145294  0.91590016  1
  O  O0  1  0.20800602  0.01513865  0.30625806  1
  O  O1  1  0.80578665  0.79381941  0.30634857  1
  O  O2  1  0.98795014  0.19543439  0.30579455  1
  O  O3  1  0.20130575  0.16630400  0.81056101  1
  O  O4  1  0.97514588  0.79948385  0.80510393  1
  O  O5  1  0.84413360  0.02218981  0.81050627  1
  O  O6  1  0.79583813  0.95915180  0.68820445  1
  O  O7  1  0.15841680  0.20313962  0.68994463  1
  O  O8  1  0.03426977  0.82243344  0.69320322  1
  O  O9  1  0.78547787  0.81690071  0.19417618  1
  O  O10  1  0.03249155  0.21259221  0.19341798  1
  O  O11  1  0.18056335  0.96732580  0.19335988  1
  O  O12  1  0.88445974  0.36351184  0.63936185  1
  O  O13  1  0.49421631  0.09849163  0.64278068  1
  O  O14  1  0.62168702  0.50240251  0.64036255  1
  O  O15  1  0.89167246  0.50016259  0.14284370  1
  O  O16  1  0.60256039  0.10049027  0.14292092  1
  O  O17  1  0.49817248  0.39395904  0.14176283  1
  O  O18  1  0.46046520  0.28891463  0.02117356  1
  O  O19  1  0.81718354  0.53262429  0.02410741  1
  O  O20  1  0.72125253  0.16732052  0.02545615  1
  O  O21  1  0.45818643  0.16963031  0.52326467  1
  O  O22  1  0.71329273  0.54415836  0.52139249  1
  O  O23  1  0.84848246  0.30192385  0.52820816  1
  O  O24  1  0.55131921  0.70142706  0.97164643  1
  O  O25  1  0.17422252  0.46827327  0.97456137  1
  O  O26  1  0.30057185  0.83540923  0.97630744  1
  O  O27  1  0.54357593  0.83905181  0.47767362  1
  O  O28  1  0.29707895  0.47117858  0.47895993  1
  O  O29  1  0.16840570  0.69535097  0.47882288  1
  O  O30  1  0.12766903  0.61203052  0.35814701  1
  O  O31  1  0.48342968  0.87316406  0.35834735  1
  O  O32  1  0.38505475  0.51718958  0.35862657  1
  O  O33  1  0.13478666  0.50254737  0.85456246  1
  O  O34  1  0.36567098  0.86554610  0.85407591  1
  O  O35  1  0.50980161  0.63361405  0.86076627  1
  O  O36  1  0.02272682  0.82849607  0.41440943  1
  O  O37  1  0.81121729  0.98242729  0.41215976  1
  O  O38  1  0.16789982  0.19252930  0.41385248  1
  O  O39  1  0.02821129  0.19031182  0.91254283  1
  O  O40  1  0.15295897  0.97530758  0.90873527  1
  O  O41  1  0.80369426  0.82877939  0.90925088  1
  O  O42  1  0.97630249  0.17194853  0.58552485  1
  O  O43  1  0.17603533  0.02115472  0.59133748  1
  O  O44  1  0.84539728  0.82585852  0.58866923  1
  O  O45  1  0.97695965  0.81915646  0.09138625  1
  O  O46  1  0.84048718  0.01665110  0.09279629  1
  O  O47  1  0.17932316  0.15881845  0.09054145  1
  O  O48  1  0.70187751  0.16857695  0.74982263  1
  O  O49  1  0.47664753  0.30867077  0.75127020  1
  O  O50  1  0.84952123  0.53694490  0.74451252  1
  O  O51  1  0.68329831  0.53330566  0.24620297  1
  O  O52  1  0.85129608  0.31606193  0.24652741  1
  O  O53  1  0.46572756  0.15117833  0.24678468  1
  O  O54  1  0.63830175  0.50976852  0.91839450  1
  O  O55  1  0.84589874  0.36533662  0.92320005  1
  O  O56  1  0.50354244  0.15478457  0.92270840  1
  O  O57  1  0.63448034  0.15341179  0.42568601  1
  O  O58  1  0.51425809  0.37104699  0.42068775  1
  O  O59  1  0.85003144  0.47793476  0.42445664  1
  O  O60  1  0.34874386  0.50674664  0.07107241  1
  O  O61  1  0.15260730  0.65216150  0.07477605  1
  O  O62  1  0.49586023  0.83677795  0.07017547  1
  O  O63  1  0.34215508  0.83569769  0.57414309  1
  O  O64  1  0.49010247  0.64792458  0.57493702  1
  O  O65  1  0.13785810  0.49057052  0.57894440  1
  O  O66  1  0.30039427  0.82744151  0.25262854  1
  O  O67  1  0.52449635  0.69762929  0.25344022  1
  O  O68  1  0.17515630  0.47571590  0.25351106  1
  O  O69  1  0.29321757  0.48489905  0.75781473  1
  O  O70  1  0.16420612  0.70346864  0.75283652  1
  O  O71  1  0.51154992  0.81764983  0.75817309  1
loop_
_geom_bond_atom_site_label_1
_geom_bond_atom_site_label_2
_geom_bond_distance
_geom_bond_site_symmetry_2
Na0 O48 2.242826 1_555
Na0 O69 2.315182 1_655
Na0 O50 2.450035 1_555
Na0 O33 2.545068 1_655
Na0 O70 2.611925 1_655
Na0 O12 2.656585 1_555
Na0 O7 2.812698 1_655
Na0 O5 2.901182 1_555
Na1 O49 2.310320 1_555
Na1 O48 2.404019 1_555
Na1 O70 2.427216 1_545
Na1 O71 2.475211 1_545
Na1 O13 2.523925 1_555
Na1 O34 2.592630 1_545
Na1 O3 2.891036 1_555
Na1 O8 2.956033 1_545
Na2 O64 2.401247 1_555
Na2 O43 2.405840 1_555
Na2 O65 2.521163 1_555
Na2 O42 2.554542 1_455
Na2 O7 2.633484 1_555
Na2 O14 2.647829 1_555
Na2 O28 2.668307 1_555
Na2 O21 2.729794 1_555
Na3 O63 2.394563 1_555
Na3 O44 2.398384 1_455
Na3 O65 2.460593 1_555
Na3 O43 2.466416 1_565
Na3 O29 2.510816 1_555
Na3 O8 2.700702 1_555
Na3 O22 2.708289 1_455
Na3 O12 2.908136 1_455
Na4 O64 2.435383 1_555
Na4 O42 2.444521 1_565
Na4 O63 2.454098 1_555
Na4 O44 2.500150 1_555
Na4 O6 2.523105 1_555
Na4 O13 2.566169 1_565
Na4 O27 2.621124 1_555
Na4 O23 2.896936 1_565
Na5 O47 2.438983 1_565
Na5 O61 2.446407 1_555
Na5 O62 2.482292 1_555
Na5 O45 2.553086 1_455
Na5 O16 2.562847 1_565
Na5 O26 2.619813 1_554
Na5 O11 2.628585 1_555
Na5 O18 2.803119 1_565
Na6 O60 2.398393 1_555
Na6 O62 2.425989 1_555
Na6 O45 2.431109 1_555
Na6 O46 2.511211 1_565
Na6 O17 2.579245 1_555
Na6 O9 2.617738 1_555
Na6 O24 2.693646 1_554
Na6 O19 2.716249 1_555
Na7 O61 2.432430 1_555
Na7 O46 2.456068 1_455
Na7 O60 2.473453 1_555
Na7 O47 2.532633 1_555
Na7 O15 2.599596 1_455
Na7 O10 2.648337 1_555
Na7 O20 2.660672 1_455
Na7 O25 2.723408 1_554
Na8 O54 2.359284 1_555
Na8 O39 2.386380 1_555
Na8 O56 2.395125 1_555
Na8 O18 2.482386 1_556
Na8 O40 2.486055 1_545
Na8 O3 2.669771 1_555
Na8 O25 2.766877 1_555
Na8 O35 2.884862 1_555
Na9 O59 2.337100 1_555
Na9 O37 2.345684 1_545
Na9 O38 2.351744 1_655
Na9 O2 2.530322 1_555
Na9 O57 2.544573 1_555
Na9 O23 2.722690 1_555
Na9 O30 2.753237 1_655
Na9 O28 2.900434 1_655
Na10 O36 2.343677 1_545
Na10 O38 2.400858 1_555
Na10 O57 2.403217 1_555
Na10 O0 2.542730 1_555
Na10 O58 2.568534 1_555
Na10 O21 2.647995 1_555
Na10 O31 2.724189 1_545
Na11 O36 2.365687 1_655
Na11 O37 2.365876 1_555
Na11 O58 2.375229 1_555
Na11 O1 2.557307 1_555
Na11 O59 2.610465 1_555
Na11 O22 2.646420 1_555
Na11 O32 2.769244 1_555
Na11 O27 2.859591 1_555
Na12 O36 2.349365 1_555
Na12 O38 2.412330 1_565
Na12 O37 2.420493 1_455
Na12 O44 2.529541 1_455
Na12 O42 2.561233 1_465
Na12 O43 2.568649 1_565
Na13 O40 2.441161 1_655
Na13 O41 2.481519 1_555
Na13 O39 2.483827 1_665
Na13 O47 2.527900 1_666
Na13 O46 2.540707 1_566
Na13 O45 2.545545 1_556
Na14 O48 2.401778 1_555
Na14 O49 2.409920 1_555
Na14 O55 2.434672 1_555
Na14 O56 2.471885 1_555
Na14 O54 2.516099 1_555
Na14 O50 2.625993 1_555
Na15 O53 2.412821 1_555
Na15 O52 2.438469 1_555
Na15 O51 2.465003 1_555
Na15 O58 2.563045 1_555
Na15 O59 2.579030 1_555
Na15 O57 2.643938 1_555
Na16 O66 2.419114 1_555
Na16 O67 2.446562 1_555
Na16 O68 2.465367 1_555
Na16 O61 2.548665 1_555
Na16 O60 2.555312 1_555
Na16 O62 2.600911 1_555
Na17 O71 2.349443 1_555
Na17 O64 2.427608 1_555
Na17 O69 2.451145 1_555
Na17 O63 2.587062 1_555
Na17 O70 2.593198 1_555
Na17 O65 2.624941 1_555
Ge0 O3 1.787090 1_555
Ge0 O5 1.788969 1_455
Ge0 O39 1.841323 1_555
Ge0 O40 1.904081 1_545
Ge0 O4 2.135831 1_445
Ge0 O41 2.162312 1_445
Ge1 O6 1.826568 1_555
Ge1 O7 1.866444 1_665
Ge1 O44 1.930572 1_555
Ge1 O8 1.964038 1_655
Ge1 O43 1.968933 1_665
Ge1 O42 2.206812 1_565
Ge2 O45 1.856116 1_445
Ge2 O46 1.858306 1_455
Ge2 O47 1.873994 1_555
Ge2 O10 2.046412 1_555
Ge2 O11 2.075167 1_545
Ge2 O9 2.125462 1_445
Ge3 O20 1.815105 1_556
Ge3 O19 1.895098 1_556
Ge3 O55 1.902379 1_555
Ge3 O18 1.947050 1_556
Ge3 O56 1.947740 1_555
Ge3 O54 2.398337 1_555
Ge4 O58 1.844186 1_555
Ge4 O22 1.863798 1_555
Ge4 O57 1.896285 1_555
Ge4 O21 1.923778 1_555
Ge4 O59 1.925547 1_555
Ge4 O23 2.239260 1_555
Ge5 O25 1.829414 1_554
Ge5 O61 1.829610 1_555
Ge5 O26 1.864872 1_554
Ge5 O62 1.869318 1_555
Ge5 O60 1.929078 1_555
Ge5 O24 2.203296 1_554
Ge6 O27 1.788148 1_555
Ge6 O28 1.826843 1_555
Ge6 O29 1.843178 1_555
Ge6 O63 1.880566 1_555
Ge6 O64 1.935733 1_555
Ge6 O65 2.268299 1_555
Ge7 O32 1.808561 1_555
Ge7 O30 1.811439 1_555
Ge7 O31 1.821254 1_555
Ge7 O68 2.104642 1_555
Ge7 O67 2.156431 1_555
Ge7 O66 2.199132 1_555
Ge8 O34 1.829309 1_555
Ge8 O33 1.885872 1_555
Ge8 O71 1.904362 1_555
Ge8 O69 1.905199 1_555
Ge8 O35 1.918461 1_555
Ge8 O70 2.245811 1_555
O0 S0 1.466571 1_545
O0 Zn0 2.054027 1_545
O1 S1 1.466104 1_555
O1 Zn0 2.042893 1_655
O2 S2 1.461044 1_655
O2 Zn0 2.112172 1_645
O3 Si0 1.645163 1_555
O4 S3 1.463161 1_555
O5 Si1 1.634760 1_545
O6 Si1 1.681534 1_555
O7 Si0 1.691556 1_555
O8 S3 1.541622 1_455
O9 S1 1.530621 1_555
O10 S2 1.539625 1_555
O11 S0 1.541543 1_555
O12 S4 1.460092 1_555
O12 Zn1 2.254842 1_555
O13 Si2 1.593723 1_555
O13 Zn1 1.959714 1_555
O14 Si3 1.577699 1_555
O14 Zn1 1.960205 1_555
O15 Si4 1.582296 1_555
O15 Zn2 1.933346 1_555
O16 Si5 1.581525 1_555
O16 Zn2 1.949909 1_555
O17 Si6 1.580402 1_555
O17 Zn2 1.942242 1_555
O18 Si6 1.666769 1_555
O19 Si4 1.656094 1_555
O20 Si5 1.652821 1_555
O21 Si2 1.672902 1_555
O22 Si3 1.675425 1_555
O23 S4 1.490395 1_555
O24 S5 1.478221 1_555
O25 Si7 1.641467 1_555
O26 Si8 1.629127 1_555
O27 Si9 1.639770 1_555
O28 Si10 1.644239 1_555
O29 Si11 1.640698 1_555
O30 Si11 1.653905 1_555
O31 Si9 1.652415 1_555
O32 Si10 1.648439 1_555
O33 Si7 1.652060 1_555
O34 Si8 1.645847 1_555
O35 S5 1.519320 1_555
O36 Si11 1.602347 1_555
O36 Zn0 2.083900 1_555
O37 Si9 1.595644 1_555
O37 Zn0 2.033460 1_655
O38 Si10 1.595592 1_555
O38 Zn0 2.028851 1_545
O39 Si7 1.679278 1_555
O40 Si8 1.686612 1_555
O41 S5 1.474938 1_555
O42 S4 1.510095 1_555
O43 Si2 1.680096 1_555
O44 Si3 1.682488 1_555
O45 Si4 1.684505 1_555
O46 Si5 1.677029 1_555
O47 Si6 1.693403 1_555
O48 Si1 1.613934 1_545
O48 Zn1 2.221864 1_555
O49 Si0 1.588452 1_555
O49 Zn1 1.975195 1_555
O50 S3 1.447889 1_555
O50 Zn1 2.237802 1_555
O51 S1 1.460834 1_555
O51 Zn2 2.273098 1_555
O52 S2 1.458000 1_655
O52 Zn2 2.343874 1_555
O53 S0 1.460708 1_545
O53 Zn2 2.317145 1_555
O54 S5 1.471123 1_555
O55 Si7 1.631317 1_655
O56 Si8 1.666244 1_545
O57 Si9 1.651174 1_545
O58 Si10 1.655662 1_555
O59 Si11 1.654729 1_655
O60 Si6 1.651282 1_555
O61 Si4 1.654912 1_455
O62 Si5 1.645956 1_565
O63 Si2 1.667324 1_565
O64 Si3 1.665708 1_555
O65 S4 1.491694 1_455
O66 S0 1.516139 1_555
O67 S1 1.525629 1_555
O68 S2 1.528865 1_555
O69 Si0 1.661482 1_555
O70 S3 1.503219 1_455
O71 Si1 1.664548 1_555
