# generated using pymatgen
data_YMgCu(WO4)2
_symmetry_space_group_name_H-M   'P 1'
_cell_length_a   5.36745171
_cell_length_b   6.17491175
_cell_length_c   6.12716703
_cell_angle_alpha   107.13622331
_cell_angle_beta   115.58374018
_cell_angle_gamma   91.67547587
_symmetry_Int_Tables_number   1
_chemical_formula_structural   YMgCu(WO4)2
_chemical_formula_sum   'Y1 Mg1 Cu1 W2 O8'
_cell_volume   172.12562077
_cell_formula_units_Z   1
loop_
 _symmetry_equiv_pos_site_id
 _symmetry_equiv_pos_as_xyz
  1  'x, y, z'
loop_
 _atom_site_type_symbol
 _atom_site_label
 _atom_site_symmetry_multiplicity
 _atom_site_fract_x
 _atom_site_fract_y
 _atom_site_fract_z
 _atom_site_occupancy
  Y  Y0  1  0.59708700  0.70922100  0.04905000  1
  Mg  Mg0  1  0.89315500  0.85650300  0.66392600  1
  Cu  Cu0  1  0.15439300  0.26423400  0.12781400  1
  W  W0  1  0.86130500  0.36312500  0.58202200  1
  W  W1  1  0.36007400  0.06842800  0.59191300  1
  O  O0  1  0.12713700  0.65165900  0.84253600  1
  O  O1  1  0.66419100  0.52307200  0.36482900  1
  O  O2  1  0.15039200  0.18112000  0.80666300  1
  O  O3  1  0.61497600  0.02391800  0.40993800  1
  O  O4  1  0.62517500  0.91579100  0.81884500  1
  O  O5  1  0.06825200  0.82063200  0.37553600  1
  O  O6  1  0.65443800  0.37814200  0.79584700  1
  O  O7  1  0.11292400  0.27682100  0.41301300  1
loop_
_geom_bond_atom_site_label_1
_geom_bond_atom_site_label_2
_geom_bond_distance
_geom_bond_site_symmetry_2
Mg0 O0 2.023973 1_655
Mg0 O4 2.027098 1_555
Mg0 O2 2.109829 1_665
Mg0 O3 2.179770 1_565
Mg0 O1 2.188907 1_555
Mg0 O5 2.295749 1_655
Cu0 O7 1.834695 1_555
Cu0 O2 1.871797 1_554
Cu0 O1 2.663728 1_555
O0 W0 1.991620 1_455
O0 Y0 2.239656 1_556
O1 W0 1.866934 1_555
O1 Y0 2.434637 1_555
O2 W1 2.065780 1_555
O2 W0 2.175832 1_455
O3 W1 2.085560 1_555
O3 W0 2.140021 1_555
O3 Y0 2.438944 1_545
O4 W1 1.997084 1_565
O4 Y0 2.207244 1_556
O5 W1 1.850216 1_565
O5 Y0 2.364033 1_455
O6 W0 2.036848 1_555
O6 W1 2.103614 1_555
O6 Y0 2.293768 1_556
O7 W0 2.026108 1_455
O7 W1 2.071804 1_555
