# generated using pymatgen
data_Li4FeP2O9
_symmetry_space_group_name_H-M   'P 1'
_cell_length_a   7.97283979
_cell_length_b   7.97283979
_cell_length_c   7.10971111
_cell_angle_alpha   89.31581031
_cell_angle_beta   89.31581031
_cell_angle_gamma   50.39102421
_symmetry_Int_Tables_number   1
_chemical_formula_structural   Li4FeP2O9
_chemical_formula_sum   'Li8 Fe2 P4 O18'
_cell_volume   348.14809506
_cell_formula_units_Z   2
loop_
 _symmetry_equiv_pos_site_id
 _symmetry_equiv_pos_as_xyz
  1  'x, y, z'
loop_
 _atom_site_type_symbol
 _atom_site_label
 _atom_site_symmetry_multiplicity
 _atom_site_fract_x
 _atom_site_fract_y
 _atom_site_fract_z
 _atom_site_occupancy
  Li  Li0  1  0.75406900  0.24593100  0.00000000  1
  Li  Li1  1  0.89609000  0.89609000  0.23563500  1
  Li  Li2  1  0.62923900  0.62923900  0.29599100  1
  Li  Li3  1  0.24593100  0.75406900  0.00000000  1
  Li  Li4  1  0.10391000  0.10391000  0.76436500  1
  Li  Li5  1  0.37076100  0.37076100  0.70400900  1
  Li  Li6  1  0.00000000  0.50000000  0.50000000  1
  Li  Li7  1  0.50000000  0.00000000  0.50000000  1
  Fe  Fe0  1  0.50000000  0.00000000  0.00000000  1
  Fe  Fe1  1  0.00000000  0.50000000  0.00000000  1
  P  P0  1  0.87637800  0.87637800  0.70621300  1
  P  P1  1  0.39824800  0.39824800  0.24582500  1
  P  P2  1  0.12362200  0.12362200  0.29378700  1
  P  P3  1  0.60175200  0.60175200  0.75417500  1
  O  O0  1  0.23657700  0.23657700  0.89715700  1
  O  O1  1  0.98833200  0.37143500  0.23669700  1
  O  O2  1  0.03092800  0.03092800  0.19083200  1
  O  O3  1  0.01166800  0.62856500  0.76330300  1
  O  O4  1  0.87294200  0.87294200  0.49228300  1
  O  O5  1  0.49597200  0.49597200  0.76172100  1
  O  O6  1  0.96907200  0.96907200  0.80916800  1
  O  O7  1  0.76342300  0.76342300  0.10284300  1
  O  O8  1  0.56083700  0.18107400  0.12954800  1
  O  O9  1  0.43916300  0.81892600  0.87045200  1
  O  O10  1  0.34711200  0.34711200  0.43632300  1
  O  O11  1  0.65288800  0.65288800  0.56367700  1
  O  O12  1  0.12705800  0.12705800  0.50771700  1
  O  O13  1  0.37143500  0.98833200  0.23669700  1
  O  O14  1  0.62856400  0.01166800  0.76330300  1
  O  O15  1  0.81892600  0.43916300  0.87045200  1
  O  O16  1  0.50402800  0.50402800  0.23827900  1
  O  O17  1  0.18107400  0.56083700  0.12954800  1
loop_
_geom_bond_atom_site_label_1
_geom_bond_atom_site_label_2
_geom_bond_distance
_geom_bond_site_symmetry_2
Li0 O8 2.111804 1_555
Li0 O15 2.111804 1_554
Li0 O6 2.200663 1_544
Li0 O2 2.200663 1_655
Li0 O5 2.418767 1_554
Li0 O16 2.418767 1_555
Li1 O4 1.850668 1_555
Li1 O2 1.967277 1_665
Li1 O7 2.145510 1_555
Li1 O17 2.266999 1_655
Li1 O8 2.266999 1_565
Li2 O16 1.857903 1_555
Li2 O11 1.937945 1_555
Li2 O13 2.255572 1_555
Li2 O1 2.255572 1_555
Li2 O7 2.358818 1_555
Li3 O17 2.111804 1_555
Li3 O9 2.111804 1_554
Li3 O6 2.200663 1_454
Li3 O2 2.200663 1_565
Li3 O5 2.418767 1_554
Li3 O16 2.418767 1_555
Li4 O12 1.850668 1_555
Li4 O6 1.967277 1_445
Li4 O0 2.145510 1_555
Li4 O9 2.266999 1_545
Li4 O15 2.266999 1_455
Li5 O5 1.857903 1_555
Li5 O10 1.937945 1_555
Li5 O14 2.255571 1_555
Li5 O3 2.255572 1_555
Li5 O0 2.358818 1_555
Li6 O3 2.176080 1_555
Li6 O1 2.176080 1_455
Li6 O10 2.243110 1_555
Li6 O11 2.243110 1_455
Li6 O12 2.455013 1_555
Li6 O4 2.455013 1_455
Li7 O14 2.176076 1_555
Li7 O13 2.176080 1_545
Li7 O10 2.243110 1_555
Li7 O11 2.243110 1_545
Li7 O12 2.455013 1_555
Li7 O4 2.455013 1_545
Fe0 O7 1.858996 1_545
Fe0 O0 1.858996 1_554
Fe0 O14 1.991971 1_554
Fe0 O13 1.991975 1_545
Fe0 O9 2.025609 1_544
Fe0 O8 2.025609 1_555
Fe1 O0 1.858996 1_554
Fe1 O7 1.858996 1_455
Fe1 O1 1.991975 1_455
Fe1 O3 1.991975 1_554
Fe1 O15 2.025609 1_454
Fe1 O17 2.025609 1_555
O1 P2 1.582969 1_655
O2 P2 1.533100 1_555
O3 P0 1.582969 1_455
O4 P0 1.522442 1_555
O5 P3 1.526494 1_555
O6 P0 1.533100 1_555
O8 P1 1.583824 1_555
O9 P3 1.583824 1_555
O10 P1 1.533743 1_555
O11 P3 1.533743 1_555
O12 P2 1.522442 1_555
O13 P2 1.582969 1_565
O14 P0 1.582976 1_545
O15 P3 1.583824 1_555
O16 P1 1.526494 1_555
O17 P1 1.583824 1_555
