# generated using pymatgen
data_Na14Ca6Hf2Si5S7O48
_symmetry_space_group_name_H-M   'P 1'
_cell_length_a   18.90383254
_cell_length_b   9.44822060
_cell_length_c   23.10967205
_cell_angle_alpha   89.92362875
_cell_angle_beta   90.22007168
_cell_angle_gamma   120.10217300
_symmetry_Int_Tables_number   1
_chemical_formula_structural   Na14Ca6Hf2Si5S7O48
_chemical_formula_sum   'Na42 Ca18 Hf6 Si15 S21 O144'
_cell_volume   3570.86095694
_cell_formula_units_Z   3
loop_
 _symmetry_equiv_pos_site_id
 _symmetry_equiv_pos_as_xyz
  1  'x, y, z'
loop_
 _atom_site_type_symbol
 _atom_site_label
 _atom_site_symmetry_multiplicity
 _atom_site_fract_x
 _atom_site_fract_y
 _atom_site_fract_z
 _atom_site_occupancy
  Na  Na0  1  0.80863866  0.00428943  0.24799281  1
  Na  Na1  1  0.68751271  0.34255403  0.23899890  1
  Na  Na2  1  0.50381863  0.65255570  0.24245856  1
  Na  Na3  1  0.30485661  0.61030999  0.74751411  1
  Na  Na4  1  0.00703520  0.37526691  0.74106796  1
  Na  Na5  1  0.17272454  0.00781839  0.73634502  1
  Na  Na6  1  0.15163944  0.31662004  0.57327409  1
  Na  Na7  1  0.67763440  0.37024612  0.58703694  1
  Na  Na8  1  0.01261978  0.69551627  0.57134973  1
  Na  Na9  1  0.51812206  0.66359592  0.59418120  1
  Na  Na10  1  0.32313818  0.00064388  0.58702715  1
  Na  Na11  1  0.82335445  0.96698180  0.59527289  1
  Na  Na12  1  0.17306651  0.98082284  0.07981279  1
  Na  Na13  1  0.65881473  0.99795132  0.06512543  1
  Na  Na14  1  0.31661942  0.67547180  0.08885564  1
  Na  Na15  1  0.82752675  0.65014063  0.07920604  1
  Na  Na16  1  0.01882279  0.37278101  0.08811299  1
  Na  Na17  1  0.51002746  0.32048788  0.06334449  1
  Na  Na18  1  0.49318949  0.66930449  0.91796469  1
  Na  Na19  1  0.97834528  0.66233192  0.91052599  1
  Na  Na20  1  0.35937275  0.05682357  0.92613608  1
  Na  Na21  1  0.84413849  0.04042302  0.90722775  1
  Na  Na22  1  0.16731297  0.29541530  0.91294676  1
  Na  Na23  1  0.65985619  0.28261050  0.92623777  1
  Na  Na24  1  0.48079921  0.29886798  0.42893801  1
  Na  Na25  1  0.99418351  0.31843307  0.42555355  1
  Na  Na26  1  0.15353080  0.02831751  0.43318389  1
  Na  Na27  1  0.67016240  0.04150305  0.42297556  1
  Na  Na28  1  0.34068656  0.65039080  0.41785857  1
  Na  Na29  1  0.86133124  0.66779266  0.42728353  1
  Na  Na30  1  0.00365424  0.97730528  0.50233994  1
  Na  Na31  1  0.51680832  0.02997614  0.51096340  1
  Na  Na32  1  0.01503814  0.00186329  0.00159225  1
  Na  Na33  1  0.50546791  0.02716971  0.99077808  1
  Na  Na34  1  0.33747877  0.33117862  0.83088128  1
  Na  Na35  1  0.82886509  0.33784338  0.82374092  1
  Na  Na36  1  0.30940049  0.31451223  0.33290859  1
  Na  Na37  1  0.84226462  0.34483163  0.33395617  1
  Na  Na38  1  0.16810995  0.67657179  0.15195878  1
  Na  Na39  1  0.66637378  0.65845035  0.16248826  1
  Na  Na40  1  0.15698730  0.67366144  0.66795792  1
  Na  Na41  1  0.67188531  0.66520678  0.65376811  1
  Ca  Ca0  1  0.00405439  0.00218131  0.35212942  1
  Ca  Ca1  1  0.50485969  0.00264897  0.34448269  1
  Ca  Ca2  1  0.00350197  0.99432972  0.84003823  1
  Ca  Ca3  1  0.50420507  0.00662996  0.85094720  1
  Ca  Ca4  1  0.33544538  0.32715461  0.68133122  1
  Ca  Ca5  1  0.82981077  0.33929118  0.68172631  1
  Ca  Ca6  1  0.32498526  0.32046833  0.18046101  1
  Ca  Ca7  1  0.83681171  0.34382709  0.18060516  1
  Ca  Ca8  1  0.33166503  0.32253387  0.99024790  1
  Ca  Ca9  1  0.82971999  0.33858466  0.98769461  1
  Ca  Ca10  1  0.32757878  0.32071782  0.49046307  1
  Ca  Ca11  1  0.83206556  0.34348081  0.49325922  1
  Ca  Ca12  1  0.16627213  0.66778121  0.01528892  1
  Ca  Ca13  1  0.66296520  0.66119750  0.01366098  1
  Ca  Ca14  1  0.16379576  0.66634383  0.51485691  1
  Ca  Ca15  1  0.66712818  0.66819266  0.51738285  1
  Ca  Ca16  1  0.66508665  0.67200108  0.31419836  1
  Ca  Ca17  1  0.16139390  0.65974458  0.81200881  1
  Hf  Hf0  1  0.00175585  0.98362356  0.65551530  1
  Hf  Hf1  1  0.50778340  0.01787429  0.65085967  1
  Hf  Hf2  1  0.00784503  0.99906547  0.14956392  1
  Hf  Hf3  1  0.50223934  0.00751635  0.15027487  1
  Hf  Hf4  1  0.16064489  0.65066856  0.31838017  1
  Hf  Hf5  1  0.66206978  0.67234562  0.81898292  1
  Si  Si0  1  0.65192402  0.99779391  0.25237047  1
  Si  Si1  1  0.15282841  0.30287355  0.75286540  1
  Si  Si2  1  0.99823162  0.68606469  0.75626327  1
  Si  Si3  1  0.48468224  0.32604249  0.57847784  1
  Si  Si4  1  0.17588741  0.01767350  0.58651120  1
  Si  Si5  1  0.67939279  0.02946395  0.57938645  1
  Si  Si6  1  0.83827958  0.65271632  0.58029662  1
  Si  Si7  1  0.98460598  0.64263400  0.07818944  1
  Si  Si8  1  0.33754077  0.02731268  0.08139689  1
  Si  Si9  1  0.17981074  0.33148671  0.07955996  1
  Si  Si10  1  0.67763303  0.33666734  0.08804496  1
  Si  Si11  1  0.51357185  0.36847522  0.91589620  1
  Si  Si12  1  0.67003861  0.97347706  0.92013200  1
  Si  Si13  1  0.16986627  0.36793253  0.42025772  1
  Si  Si14  1  0.01355894  0.65829248  0.41633865  1
  S  S0  1  0.14820004  0.98599756  0.25197962  1
  S  S1  1  0.34716756  0.69911360  0.25224195  1
  S  S2  1  0.85125286  0.71150066  0.24988289  1
  S  S3  1  0.00437412  0.30101555  0.25147127  1
  S  S4  1  0.50125668  0.30114086  0.24983750  1
  S  S5  1  0.64635566  0.31038863  0.75239510  1
  S  S6  1  0.50467957  0.70803398  0.75201402  1
  S  S7  1  0.35380666  0.99322495  0.75040604  1
  S  S8  1  0.84368002  0.98834466  0.75229559  1
  S  S9  1  0.98674761  0.32340417  0.58670981  1
  S  S10  1  0.34037076  0.65276828  0.58708694  1
  S  S11  1  0.48658065  0.64726980  0.08971682  1
  S  S12  1  0.83942469  0.02689406  0.08872901  1
  S  S13  1  0.31779000  0.66360565  0.91582784  1
  S  S14  1  0.81307138  0.67059183  0.91331431  1
  S  S15  1  0.01199828  0.35537991  0.91786528  1
  S  S16  1  0.16720209  0.97280219  0.91597496  1
  S  S17  1  0.31282329  0.95790523  0.41122997  1
  S  S18  1  0.81692611  0.97399546  0.41383200  1
  S  S19  1  0.66511960  0.36357878  0.41319344  1
  S  S20  1  0.51149623  0.66284198  0.41433813  1
  O  O0  1  0.10789450  -0.00598627  0.30465326  1
  O  O1  1  0.61317079  0.01047925  0.31367549  1
  O  O2  1  0.39171840  0.77963416  0.30650382  1
  O  O3  1  0.89058724  0.79121194  0.30468009  1
  O  O4  1  0.49128602  0.21553013  0.30559335  1
  O  O5  1  0.99729822  0.21052287  0.30475358  1
  O  O6  1  0.11441937  0.21529326  0.81460547  1
  O  O7  1  0.60846127  0.22353118  0.80454253  1
  O  O8  1  0.49705554  0.78180862  0.80504189  1
  O  O9  1  0.99176668  0.75915237  0.81827632  1
  O  O10  1  0.39386068  -0.00210605  0.80506270  1
  O  O11  1  0.88909363  0.00352345  0.80656817  1
  O  O12  1  0.40378787  0.98938648  0.70090235  1
  O  O13  1  0.88949130  0.97587215  0.70103094  1
  O  O14  1  0.08763332  0.18109529  0.70044323  1
  O  O15  1  0.59530991  0.21730784  0.70012932  1
  O  O16  1  -0.00241762  0.81295083  0.70370442  1
  O  O17  1  0.51356100  0.81352254  0.70052782  1
  O  O18  1  0.39285486  0.80203789  0.20122518  1
  O  O19  1  0.90081557  0.81521777  0.20027700  1
  O  O20  1  0.01243675  0.21284906  0.20011971  1
  O  O21  1  0.49869356  0.19265737  0.20135532  1
  O  O22  1  0.09768157  0.97911519  0.19985358  1
  O  O23  1  0.58546821  0.99029311  0.20078172  1
  O  O24  1  0.43905981  0.38056266  0.62516397  1
  O  O25  1  0.94591537  0.34381824  0.63746408  1
  O  O26  1  0.23618118  0.10874489  0.64084353  1
  O  O27  1  0.75080395  0.12455490  0.62722416  1
  O  O28  1  0.32608491  0.54734349  0.63765333  1
  O  O29  1  0.81795911  0.51127299  0.62762679  1
  O  O30  1  0.44899435  0.55277609  0.14255159  1
  O  O31  1  0.93996576  0.50044260  0.12646249  1
  O  O32  1  0.32198466  0.12898230  0.13107973  1
  O  O33  1  0.82523960  0.10044003  0.14060938  1
  O  O34  1  0.24859846  0.37993775  0.12945297  1
  O  O35  1  0.73417731  0.36376548  0.14438199  1
  O  O36  1  0.20388097  0.27249563  0.01971975  1
  O  O37  1  0.71324356  0.29433059  0.02972002  1
  O  O38  1  0.43796366  0.56976784  0.03739685  1
  O  O39  1  0.93024640  0.59406282  0.01800065  1
  O  O40  1  0.36498402  0.13450735  0.02103689  1
  O  O41  1  0.85364389  0.12856466  0.03644799  1
  O  O42  1  0.21083834  0.12491449  0.52631256  1
  O  O43  1  0.70108937  0.13171693  0.51815984  1
  O  O44  1  0.35596849  0.58366439  0.53363247  1
  O  O45  1  0.86267866  0.59747718  0.51905337  1
  O  O46  1  0.43093807  0.26924291  0.51784797  1
  O  O47  1  0.94003046  0.30689608  0.53219371  1
  O  O48  1  0.27792250  0.68083122  0.96803201  1
  O  O49  1  0.77611567  0.67764976  0.96920767  1
  O  O50  1  0.06021207  0.43565283  0.97042912  1
  O  O51  1  0.56094858  0.44635935  0.97663376  1
  O  O52  1  0.16585660  0.88547273  0.96941669  1
  O  O53  1  0.66598634  0.88283809  0.98092245  1
  O  O54  1  0.27786273  0.87252684  0.46582844  1
  O  O55  1  0.77437097  0.87072290  0.46440614  1
  O  O56  1  0.16760138  0.45238944  0.48080048  1
  O  O57  1  0.66289936  0.45408741  0.46441588  1
  O  O58  1  0.06274017  0.67909540  0.47640443  1
  O  O59  1  0.56347652  0.68078699  0.46484806  1
  O  O60  1  0.07593962  0.65663808  0.36175190  1
  O  O61  1  0.55057261  0.65243180  0.36021134  1
  O  O62  1  0.26083049  0.85938900  0.36110137  1
  O  O63  1  0.77176453  0.89389186  0.35947903  1
  O  O64  1  0.17328588  0.49575492  0.36500266  1
  O  O65  1  0.66645385  0.44934268  0.35921315  1
  O  O66  1  0.05488467  0.45077109  0.86548696  1
  O  O67  1  0.57713809  0.49453057  0.86245094  1
  O  O68  1  0.16948208  0.88327525  0.86425259  1
  O  O69  1  0.67241712  0.85018450  0.86598687  1
  O  O70  1  0.27056509  0.65352956  0.86277354  1
  O  O71  1  0.76052628  0.66603324  0.86406659  1
  O  O72  1  0.00240002  0.81888877  0.41143156  1
  O  O73  1  0.49830380  0.80709326  0.41406414  1
  O  O74  1  0.39662619  0.98002786  0.40616456  1
  O  O75  1  0.90112412  0.99719350  0.41247512  1
  O  O76  1  0.08660176  0.19051320  0.41495937  1
  O  O77  1  0.58825419  0.19744068  0.41568499  1
  O  O78  1  -0.00121909  0.18548991  0.91586346  1
  O  O79  1  0.50257537  0.18548291  0.91179454  1
  O  O80  1  0.09185227  0.98841532  0.91704166  1
  O  O81  1  0.58637214  0.98365509  0.91519697  1
  O  O82  1  0.40205578  0.80894116  0.91353860  1
  O  O83  1  0.89510063  0.82051184  0.91009724  1
  O  O84  1  0.48545948  0.15151426  0.59803635  1
  O  O85  1  0.99163750  0.17051625  0.59198099  1
  O  O86  1  0.08369086  0.00273271  0.59445178  1
  O  O87  1  0.58869740  0.01885689  0.59902295  1
  O  O88  1  0.41818630  0.81599139  0.59695298  1
  O  O89  1  0.91785068  0.83795103  0.59484379  1
  O  O90  1  0.49174836  0.81385952  0.09424442  1
  O  O91  1  0.98739640  0.82092026  0.09831317  1
  O  O92  1  0.41618151  0.99697204  0.09748696  1
  O  O93  1  0.91634462  0.01681752  0.09770610  1
  O  O94  1  0.08796312  0.16160635  0.09847054  1
  O  O95  1  0.58338562  0.16634312  0.09553580  1
  O  O96  1  0.34150853  0.13644504  0.74651504  1
  O  O97  1  0.83498864  0.13325511  0.74653150  1
  O  O98  1  0.24474559  0.32389774  0.74794220  1
  O  O99  1  0.72948268  0.32814142  0.74670958  1
  O  O100  1  0.43109830  0.54527217  0.74470184  1
  O  O101  1  0.92597161  0.49531073  0.74990886  1
  O  O102  1  0.34420278  0.53913959  0.24885601  1
  O  O103  1  0.84030166  0.54495721  0.24768069  1
  O  O104  1  0.43705481  0.34515780  0.24361370  1
  O  O105  1  0.93033365  0.31509964  0.24533875  1
  O  O106  1  0.23041235  0.13339225  0.24859448  1
  O  O107  1  0.74378232  0.15860409  0.24708303  1
  O  O108  1  0.32401326  0.51247455  0.91898287  1
  O  O109  1  0.81917074  0.51968631  0.91019272  1
  O  O110  1  0.42698280  0.36815534  0.90995929  1
  O  O111  1  0.93042265  0.34524962  0.92002313  1
  O  O112  1  0.24174622  0.13909914  0.91464487  1
  O  O113  1  0.75359256  0.15187630  0.91258236  1
  O  O114  1  0.31842383  0.12154643  0.40910230  1
  O  O115  1  0.82223114  0.13613977  0.41818909  1
  O  O116  1  0.25395882  0.35866033  0.41311475  1
  O  O117  1  0.73877805  0.34444503  0.41399563  1
  O  O118  1  0.43013130  0.51048863  0.41883457  1
  O  O119  1  0.92702017  0.48515250  0.41132408  1
  O  O120  1  0.15911078  0.47933699  0.07736145  1
  O  O121  1  0.66397146  0.49427083  0.08456029  1
  O  O122  1  0.07953622  0.69027475  0.07559325  1
  O  O123  1  0.57175967  0.67919470  0.08562217  1
  O  O124  1  0.25781410  0.84457031  0.07828394  1
  O  O125  1  0.77038652  0.85791103  0.08203776  1
  O  O126  1  0.16357827  0.83310187  0.58483480  1
  O  O127  1  0.65623705  0.83868307  0.57805880  1
  O  O128  1  0.27262085  0.68508275  0.58023906  1
  O  O129  1  0.75960386  0.68039454  0.57858953  1
  O  O130  1  0.07115085  0.46549903  0.58371091  1
  O  O131  1  0.58036055  0.46599430  0.57599552  1
  O  O132  1  0.15516737  0.83356995  0.25097314  1
  O  O133  1  0.65353935  0.82485259  0.24430916  1
  O  O134  1  0.26356422  0.67946010  0.25324496  1
  O  O135  1  0.76873355  0.69900756  0.24497545  1
  O  O136  1  0.07995191  0.46924770  0.25385717  1
  O  O137  1  0.58339449  0.45324456  0.24656146  1
  O  O138  1  0.15808411  0.48166879  0.74458103  1
  O  O139  1  0.65387353  0.47747238  0.75119456  1
  O  O140  1  0.08872794  0.70285074  0.74591090  1
  O  O141  1  0.58057569  0.69157061  0.75439431  1
  O  O142  1  0.27263043  0.83791306  0.74576612  1
  O  O143  1  0.76135661  0.83433227  0.75426761  1
loop_
_geom_bond_atom_site_label_1
_geom_bond_atom_site_label_2
_geom_bond_distance
_geom_bond_site_symmetry_2
Na0 O107 2.328552 1_555
Na0 O133 2.547611 1_545
Na0 O135 2.590574 1_545
Na0 O33 2.606931 1_555
Na0 O105 2.672788 1_555
Na0 O63 2.736616 1_545
Na1 O35 2.331463 1_555
Na1 O107 2.457452 1_555
Na1 O103 2.548662 1_555
Na1 O137 2.658226 1_555
Na2 O133 2.457652 1_555
Na2 O30 2.510151 1_555
Na2 O104 2.520333 1_555
Na2 O102 2.652214 1_555
Na2 O61 2.858110 1_555
Na2 O23 2.924946 1_555
Na2 O137 2.942453 1_555
Na3 O98 2.351545 1_555
Na3 O138 2.407517 1_555
Na3 O142 2.512137 1_555
Na3 O28 2.685525 1_555
Na3 O100 2.747591 1_555
Na3 O70 2.821960 1_555
Na4 O101 2.328711 1_455
Na4 O138 2.507903 1_555
Na4 O25 2.606138 1_455
Na4 O140 2.679932 1_555
Na4 O97 2.892196 1_455
Na4 O66 2.988740 1_555
Na5 O26 2.467079 1_555
Na5 O140 2.506842 1_545
Na5 O98 2.600930 1_555
Na5 O96 2.796060 1_555
Na6 O56 2.431640 1_555
Na6 O130 2.550000 1_555
Na6 O86 2.620018 1_555
Na6 O85 2.657299 1_455
Na6 O42 2.785440 1_555
Na7 O131 2.435014 1_555
Na7 O29 2.476032 1_555
Na7 O129 2.544057 1_555
Na7 O87 2.885808 1_555
Na7 O43 2.970955 1_555
Na7 O57 2.990722 1_555
Na7 O15 3.017600 1_555
Na8 O58 2.429076 1_555
Na8 O126 2.490722 1_555
Na8 O86 2.569486 1_565
Na8 O45 2.774132 1_455
Na8 O89 2.782641 1_455
Na8 O130 2.904626 1_555
Na9 O127 2.316375 1_555
Na9 O24 2.427261 1_555
Na9 O131 2.693655 1_555
Na9 O17 2.861366 1_555
Na10 O126 2.610745 1_545
Na10 O128 2.640064 1_545
Na10 O26 2.644858 1_555
Na10 O84 2.668291 1_555
Na10 O46 2.824117 1_555
Na11 O129 2.378823 1_555
Na11 O27 2.588728 1_565
Na11 O89 2.619539 1_555
Na11 O13 2.723085 1_555
Na11 O85 2.772884 1_565
Na11 O127 2.785364 1_555
Na12 O122 2.408791 1_555
Na12 O124 2.508864 1_555
Na12 O52 2.686853 1_554
Na12 O32 2.704449 1_565
Na12 O36 2.871940 1_565
Na12 O94 2.907806 1_565
Na13 O53 2.267906 1_554
Na13 O37 2.584532 1_565
Na13 O123 2.652071 1_555
Na13 O95 2.710104 1_565
Na13 O90 2.820533 1_555
Na14 O124 2.372011 1_555
Na14 O34 2.594445 1_555
Na14 O120 2.613566 1_555
Na14 O92 2.659538 1_555
Na14 O90 2.887986 1_555
Na14 O48 2.890523 1_554
Na14 O18 2.915688 1_555
Na15 O91 2.651813 1_555
Na15 O39 2.665901 1_555
Na15 O125 2.674420 1_555
Na15 O121 2.679289 1_555
Na15 O49 2.776079 1_554
Na15 O35 2.814918 1_555
Na16 O120 2.331211 1_555
Na16 O31 2.505807 1_455
Na16 O122 2.635567 1_555
Na16 O50 2.811990 1_554
Na16 O94 2.891138 1_555
Na16 O93 2.929016 1_455
Na16 O20 2.967646 1_555
Na16 O41 3.041599 1_455
Na17 O51 2.283973 1_554
Na17 O121 2.569706 1_555
Na17 O95 2.571511 1_555
Na17 O40 2.590877 1_555
Na17 O92 2.770893 1_545
Na18 O110 2.474678 1_555
Na18 O81 2.584697 1_555
Na18 O82 2.645225 1_555
Na18 O108 2.769647 1_555
Na18 O8 2.803825 1_555
Na18 O38 2.936413 1_556
Na19 O9 2.283017 1_555
Na19 O109 2.608172 1_555
Na19 O39 2.614643 1_556
Na19 O83 2.658755 1_555
Na19 O111 2.668603 1_555
Na19 O80 2.736121 1_655
Na20 O40 2.298735 1_556
Na20 O79 2.370809 1_555
Na20 O110 2.579819 1_555
Na20 O112 2.710709 1_555
Na20 O82 2.849592 1_545
Na20 O10 2.990977 1_555
Na21 O113 2.421565 1_555
Na21 O111 2.515771 1_555
Na21 O78 2.537993 1_655
Na21 O11 2.563112 1_555
Na21 O83 2.693812 1_545
Na22 O6 2.442454 1_555
Na22 O112 2.499323 1_555
Na22 O80 2.511410 1_545
Na22 O36 2.597862 1_556
Na22 O108 2.627544 1_555
Na22 O78 2.813463 1_555
Na23 O81 2.456926 1_545
Na23 O37 2.572908 1_556
Na23 O113 2.639331 1_555
Na23 O79 2.655153 1_555
Na23 O109 2.732125 1_555
Na23 O7 2.933250 1_555
Na24 O46 2.221979 1_555
Na24 O118 2.624449 1_555
Na24 O74 2.659592 1_545
Na24 O77 2.663939 1_555
Na24 O114 2.696612 1_555
Na25 O119 2.490567 1_555
Na25 O76 2.587474 1_655
Na25 O47 2.653288 1_555
Na25 O75 2.653426 1_545
Na25 O115 2.818197 1_555
Na25 O5 2.984180 1_555
Na26 O42 2.373599 1_555
Na26 O76 2.462854 1_555
Na26 O72 2.579005 1_545
Na26 O116 2.760450 1_555
Na26 O114 2.838983 1_555
Na27 O43 2.324255 1_555
Na27 O117 2.488868 1_555
Na27 O115 2.549389 1_555
Na27 O77 2.623400 1_555
Na27 O1 2.700192 1_555
Na27 O73 2.877631 1_545
Na28 O116 2.400794 1_555
Na28 O73 2.579573 1_555
Na28 O118 2.616914 1_555
Na28 O74 2.754558 1_555
Na28 O44 2.794898 1_555
Na28 O2 2.805898 1_555
Na29 O45 2.225419 1_555
Na29 O72 2.339031 1_655
Na29 O119 2.609687 1_555
Na29 O117 2.773510 1_555
Na29 O75 2.831933 1_555
Na29 O3 3.008272 1_555
Na30 O86 2.547577 1_565
Na30 O72 2.574269 1_555
Na30 O89 2.609851 1_455
Na30 O76 2.727529 1_565
Na30 O85 2.846952 1_465
Na30 O75 2.904862 1_455
Na31 O87 2.473983 1_555
Na31 O84 2.533143 1_555
Na31 O77 2.654383 1_555
Na31 O88 2.783719 1_545
Na31 O73 2.973063 1_545
Na32 O80 2.479935 1_544
Na32 O94 2.662508 1_555
Na32 O91 2.700836 1_445
Na32 O78 2.747815 1_554
Na32 O83 2.936529 1_444
Na32 O93 2.954892 1_455
Na33 O79 2.376131 1_555
Na33 O81 2.492402 1_545
Na33 O82 2.683073 1_545
Na33 O95 2.792445 1_556
Na33 O92 2.925490 1_546
Na34 O110 2.389448 1_555
Na34 O98 2.570035 1_555
Na34 O112 2.653081 1_555
Na34 O96 2.709892 1_555
Na34 O108 2.755874 1_555
Na34 O100 2.759636 1_555
Na35 O101 2.402549 1_555
Na35 O99 2.551264 1_555
Na35 O113 2.613835 1_555
Na35 O97 2.677457 1_555
Na35 O109 2.702723 1_555
Na35 O111 2.911069 1_555
Na36 O116 2.272339 1_555
Na36 O106 2.525464 1_555
Na36 O114 2.598968 1_555
Na36 O102 2.703401 1_555
Na36 O118 2.883819 1_555
Na37 O119 2.318425 1_555
Na37 O115 2.658367 1_555
Na37 O117 2.696116 1_555
Na37 O107 2.699484 1_555
Na37 O105 2.746167 1_555
Na37 O103 2.758915 1_555
Na38 O124 2.368317 1_555
Na38 O122 2.475665 1_555
Na38 O120 2.482308 1_555
Na38 O132 2.805958 1_555
Na38 O134 2.941760 1_555
Na38 O136 2.983781 1_555
Na39 O121 2.363823 1_555
Na39 O133 2.549529 1_555
Na39 O123 2.592126 1_555
Na39 O135 2.598976 1_555
Na39 O137 2.637652 1_555
Na39 O125 2.678809 1_555
Na40 O140 2.315713 1_555
Na40 O126 2.404318 1_555
Na40 O138 2.540742 1_555
Na40 O142 2.644771 1_555
Na40 O130 2.660142 1_555
Na40 O128 2.948911 1_555
Na41 O129 2.360392 1_555
Na41 O127 2.511941 1_555
Na41 O131 2.546567 1_555
Na41 O139 2.778632 1_555
Na41 O143 2.841975 1_555
Na41 O141 2.985431 1_555
Ca0 O72 2.194968 1_545
Ca0 O76 2.216704 1_555
Ca0 O0 2.287292 1_555
Ca0 O5 2.309799 1_455
Ca0 O3 2.339976 1_445
Ca0 O75 2.379450 1_445
Ca1 O1 2.136278 1_555
Ca1 O2 2.292288 1_545
Ca1 O4 2.330271 1_555
Ca1 O77 2.378615 1_555
Ca1 O73 2.403910 1_545
Ca1 O74 2.418007 1_545
Ca2 O6 2.171554 1_565
Ca2 O9 2.178788 1_455
Ca2 O11 2.336397 1_465
Ca2 O80 2.455561 1_555
Ca2 O83 2.481982 1_455
Ca2 O78 2.551845 1_565
Ca3 O79 2.211944 1_555
Ca3 O81 2.232491 1_545
Ca3 O7 2.278818 1_555
Ca3 O10 2.300622 1_555
Ca3 O8 2.317904 1_545
Ca3 O82 2.388753 1_545
Ca4 O26 2.182299 1_555
Ca4 O24 2.191425 1_555
Ca4 O98 2.297294 1_555
Ca4 O96 2.393246 1_555
Ca4 O28 2.395931 1_555
Ca4 O100 2.431274 1_555
Ca5 O29 2.147377 1_555
Ca5 O27 2.210475 1_555
Ca5 O101 2.292694 1_555
Ca5 O99 2.384200 1_555
Ca5 O25 2.405895 1_555
Ca5 O97 2.494843 1_555
Ca6 O32 2.116790 1_555
Ca6 O34 2.142287 1_555
Ca6 O106 2.375716 1_555
Ca6 O30 2.435150 1_555
Ca6 O102 2.479964 1_555
Ca6 O104 2.480733 1_555
Ca7 O31 2.162661 1_555
Ca7 O35 2.203242 1_555
Ca7 O107 2.332797 1_555
Ca7 O33 2.385313 1_555
Ca7 O105 2.428393 1_555
Ca7 O103 2.428925 1_555
Ca8 O40 2.274772 1_556
Ca8 O36 2.321374 1_556
Ca8 O38 2.441966 1_556
Ca8 O112 2.444553 1_555
Ca8 O110 2.473798 1_555
Ca8 O108 2.490886 1_555
Ca9 O37 2.249011 1_556
Ca9 O39 2.306804 1_556
Ca9 O113 2.374546 1_555
Ca9 O111 2.444575 1_555
Ca9 O41 2.510328 1_556
Ca9 O109 2.550842 1_555
Ca10 O42 2.212171 1_555
Ca10 O46 2.323272 1_555
Ca10 O116 2.395852 1_555
Ca10 O44 2.473963 1_555
Ca10 O118 2.498648 1_555
Ca10 O114 2.605122 1_555
Ca11 O45 2.248872 1_555
Ca11 O43 2.345924 1_555
Ca11 O47 2.405671 1_555
Ca11 O119 2.491648 1_555
Ca11 O117 2.540978 1_555
Ca11 O115 2.554058 1_555
Ca12 O124 2.234207 1_555
Ca12 O120 2.235844 1_555
Ca12 O122 2.245803 1_555
Ca12 O52 2.316161 1_554
Ca12 O48 2.327851 1_554
Ca12 O50 2.341781 1_554
Ca13 O51 2.153344 1_554
Ca13 O53 2.199342 1_554
Ca13 O121 2.279323 1_555
Ca13 O49 2.310340 1_554
Ca13 O123 2.466572 1_555
Ca13 O125 2.504448 1_555
Ca14 O58 2.161273 1_555
Ca14 O56 2.204895 1_555
Ca14 O126 2.260751 1_555
Ca14 O54 2.351096 1_555
Ca14 O130 2.424828 1_555
Ca14 O128 2.481521 1_555
Ca15 O129 2.202112 1_555
Ca15 O127 2.223565 1_555
Ca15 O131 2.245385 1_555
Ca15 O55 2.322062 1_555
Ca15 O57 2.332489 1_555
Ca15 O59 2.354278 1_555
Ca16 O133 2.247039 1_555
Ca16 O63 2.303422 1_555
Ca16 O61 2.338102 1_555
Ca16 O65 2.357330 1_555
Ca16 O137 2.426584 1_555
Ca16 O135 2.446356 1_555
Ca17 O140 2.220248 1_555
Ca17 O138 2.272324 1_555
Ca17 O66 2.346187 1_555
Ca17 O68 2.371268 1_555
Ca17 O70 2.396164 1_555
Ca17 O142 2.462952 1_555
Hf0 O16 1.927436 1_555
Hf0 O14 2.036785 1_565
Hf0 O86 2.039267 1_565
Hf0 O89 2.043104 1_455
Hf0 O13 2.340225 1_455
Hf0 O85 2.374901 1_465
Hf1 O87 1.942821 1_555
Hf1 O84 1.946538 1_555
Hf1 O15 2.109155 1_555
Hf1 O12 2.181867 1_545
Hf1 O88 2.192814 1_545
Hf1 O17 2.293883 1_545
Hf2 O94 1.929315 1_565
Hf2 O91 1.932451 1_455
Hf2 O22 2.139068 1_555
Hf2 O93 2.175035 1_465
Hf2 O19 2.229764 1_455
Hf2 O20 2.298273 1_565
Hf3 O95 1.976363 1_555
Hf3 O92 1.991775 1_545
Hf3 O23 2.026437 1_545
Hf3 O21 2.140461 1_555
Hf3 O90 2.168907 1_545
Hf3 O18 2.327440 1_545
Hf4 O60 1.916999 1_555
Hf4 O64 1.924815 1_555
Hf4 O62 2.166780 1_555
Hf4 O136 2.203401 1_555
Hf4 O132 2.365312 1_555
Hf4 O134 2.369715 1_555
Hf5 O67 1.926539 1_555
Hf5 O69 1.927439 1_555
Hf5 O71 2.156251 1_555
Hf5 O141 2.212807 1_555
Hf5 O143 2.288195 1_555
Hf5 O139 2.363862 1_555
O0 S0 1.460574 1_545
O1 Si0 1.629323 1_545
O2 S1 1.487361 1_555
O3 S2 1.468777 1_555
O4 S4 1.481953 1_555
O5 S3 1.465892 1_655
O6 Si1 1.627817 1_555
O7 S5 1.432906 1_555
O8 S6 1.453541 1_555
O9 Si2 1.623025 1_555
O10 S7 1.459442 1_545
O11 S8 1.483022 1_545
O12 S7 1.498528 1_555
O13 S8 1.509310 1_555
O14 Si1 1.697124 1_555
O15 S5 1.518582 1_555
O16 Si2 1.709809 1_455
O17 S6 1.505912 1_555
O18 S1 1.497957 1_555
O19 S2 1.495521 1_555
O20 S3 1.502274 1_555
O21 S4 1.503683 1_555
O22 S0 1.515394 1_555
O23 Si0 1.704109 1_555
O24 Si3 1.620936 1_555
O25 S9 1.471609 1_555
O26 Si4 1.619925 1_555
O27 Si5 1.620587 1_555
O28 S10 1.469747 1_555
O29 Si6 1.616864 1_555
O30 S11 1.469764 1_555
O31 Si7 1.620966 1_555
O32 Si8 1.617520 1_555
O33 S12 1.477774 1_555
O34 Si9 1.619472 1_555
O35 Si10 1.618274 1_555
O36 Si9 1.640535 1_555
O37 Si10 1.645733 1_555
O38 S11 1.470215 1_555
O39 Si7 1.648933 1_555
O40 Si8 1.647844 1_555
O41 S12 1.481605 1_555
O42 Si4 1.652369 1_555
O43 Si5 1.645281 1_555
O44 S10 1.495758 1_555
O45 Si6 1.654294 1_555
O46 Si3 1.651526 1_555
O47 S9 1.498425 1_555
O48 S13 1.476641 1_555
O49 S14 1.488226 1_555
O50 S15 1.477179 1_555
O51 Si11 1.626587 1_555
O52 S16 1.477566 1_555
O53 Si12 1.626241 1_555
O54 S17 1.465756 1_555
O55 S18 1.477166 1_555
O56 Si13 1.622910 1_555
O57 S19 1.474226 1_555
O58 Si14 1.623988 1_555
O59 S20 1.476962 1_555
O60 Si14 1.735553 1_555
O61 S20 1.483334 1_555
O62 S17 1.500295 1_555
O63 S18 1.491830 1_555
O64 Si13 1.735355 1_555
O65 S19 1.480023 1_555
O66 S15 1.485407 1_555
O67 Si11 1.720410 1_555
O68 S16 1.478420 1_555
O69 Si12 1.726717 1_555
O70 S13 1.488599 1_555
O71 S14 1.494091 1_555
O72 Si14 1.637111 1_555
O73 S20 1.503559 1_555
O74 S17 1.495419 1_555
O75 S18 1.494272 1_555
O76 Si13 1.629385 1_555
O77 S19 1.513655 1_555
O78 S15 1.496299 1_555
O79 Si11 1.637449 1_555
O80 S16 1.504106 1_555
O81 Si12 1.635517 1_555
O82 S13 1.494048 1_555
O83 S14 1.487899 1_555
O84 Si3 1.716367 1_555
O85 S9 1.497799 1_555
O86 Si4 1.687243 1_555
O87 Si5 1.728859 1_555
O88 S10 1.522154 1_555
O89 Si6 1.672010 1_555
O90 S11 1.531018 1_555
O91 Si7 1.723173 1_555
O92 Si8 1.689200 1_565
O93 S12 1.517547 1_555
O94 Si9 1.729274 1_555
O95 Si10 1.708677 1_555
O96 S7 1.486032 1_545
O97 S8 1.464340 1_545
O98 Si1 1.651317 1_555
O99 S5 1.500631 1_555
O100 S6 1.476972 1_555
O101 Si2 1.632602 1_555
O102 S1 1.486309 1_555
O103 S2 1.481501 1_555
O104 S4 1.473573 1_555
O105 S3 1.477180 1_655
O106 S0 1.480025 1_545
O107 Si0 1.641159 1_545
O108 S13 1.492070 1_555
O109 S14 1.488829 1_555
O110 Si11 1.640571 1_555
O111 S15 1.497404 1_655
O112 S16 1.494882 1_545
O113 Si12 1.642291 1_545
O114 S17 1.496579 1_545
O115 S18 1.487739 1_545
O116 Si13 1.644302 1_555
O117 S19 1.491365 1_555
O118 S20 1.492843 1_555
O119 Si14 1.637178 1_655
O120 Si9 1.629438 1_555
O121 Si10 1.635784 1_555
O122 Si7 1.617746 1_455
O123 S11 1.485468 1_555
O124 Si8 1.626964 1_565
O125 S12 1.478258 1_565
O126 Si4 1.640066 1_565
O127 Si5 1.627968 1_565
O128 S10 1.465976 1_555
O129 Si6 1.634498 1_555
O130 S9 1.484887 1_455
O131 Si3 1.620092 1_555
O132 S0 1.510748 1_555
O133 Si0 1.660259 1_555
O134 S1 1.496212 1_555
O135 S2 1.508031 1_555
O136 S3 1.514079 1_555
O137 S4 1.498082 1_555
O138 Si1 1.652627 1_555
O139 S5 1.512598 1_555
O140 Si2 1.655253 1_455
O141 S6 1.519505 1_555
O142 S7 1.503338 1_555
O143 S8 1.506720 1_555
