# generated using pymatgen
data_MgMn6(O5F)2
_symmetry_space_group_name_H-M   'P 1'
_cell_length_a   12.02478040
_cell_length_b   6.40155315
_cell_length_c   2.95671806
_cell_angle_alpha   89.99780478
_cell_angle_beta   90.02729995
_cell_angle_gamma   104.11976074
_symmetry_Int_Tables_number   1
_chemical_formula_structural   MgMn6(O5F)2
_chemical_formula_sum   'Mg1 Mn6 O10 F2'
_cell_volume   220.72379343
_cell_formula_units_Z   1
loop_
 _symmetry_equiv_pos_site_id
 _symmetry_equiv_pos_as_xyz
  1  'x, y, z'
loop_
 _atom_site_type_symbol
 _atom_site_label
 _atom_site_symmetry_multiplicity
 _atom_site_fract_x
 _atom_site_fract_y
 _atom_site_fract_z
 _atom_site_occupancy
  Mg  Mg0  1  0.16679000  0.83354500  0.93470200  1
  Mn  Mn0  1  0.97732900  0.96994600  0.99425200  1
  Mn  Mn1  1  0.38579100  0.21785800  0.48548000  1
  Mn  Mn2  1  0.94769500  0.44868700  0.48574800  1
  Mn  Mn3  1  0.66676400  0.33360000  0.00424400  1
  Mn  Mn4  1  0.35612300  0.69648800  0.99367700  1
  Mn  Mn5  1  0.66680600  0.83320200  0.50945900  1
  O  O0  1  0.09573400  0.99845200  0.43561400  1
  O  O1  1  0.96726300  0.26690900  0.99148400  1
  O  O2  1  0.36618500  0.39974000  0.99097200  1
  O  O3  1  0.98952900  0.65988900  0.98154600  1
  O  O4  1  0.67639900  0.03308300  0.00816800  1
  O  O5  1  0.55870800  0.27250800  0.50176100  1
  O  O6  1  0.23800500  0.66821900  0.43604200  1
  O  O7  1  0.77488000  0.39418200  0.50154800  1
  O  O8  1  0.65713600  0.63352700  0.00828600  1
  O  O9  1  0.34406200  0.00691700  0.98112700  1
  F  F0  1  0.47519300  0.76408400  0.53373800  1
  F  F1  1  0.85835700  0.90249600  0.53465200  1
loop_
_geom_bond_atom_site_label_1
_geom_bond_atom_site_label_2
_geom_bond_distance
_geom_bond_site_symmetry_2
Mg0 O0 2.112064 1_555
Mg0 O6 2.114420 1_555
Mg0 O0 2.116461 1_556
Mg0 O6 2.119327 1_556
Mg0 O9 2.154071 1_565
Mg0 O3 2.154659 1_455
Mn0 O0 1.906555 1_656
Mn0 O1 1.934135 1_565
Mn0 O3 2.025988 1_555
Mn0 O0 2.159669 1_655
Mn1 O2 1.918986 1_554
Mn1 O2 1.944083 1_555
Mn1 O9 1.973029 1_555
Mn1 O9 1.991945 1_554
Mn1 O5 2.023152 1_555
Mn2 O1 1.918127 1_554
Mn2 O1 1.943856 1_555
Mn2 O3 1.974233 1_555
Mn2 O3 1.993032 1_554
Mn2 O7 2.022028 1_555
Mn3 O7 1.937745 1_555
Mn3 O5 1.938814 1_555
Mn3 O5 1.949061 1_554
Mn3 O7 1.950787 1_554
Mn3 O8 1.951512 1_555
Mn3 O4 1.955304 1_555
Mn4 O6 1.907144 1_556
Mn4 O2 1.932747 1_555
Mn4 O9 2.027829 1_565
Mn4 O6 2.154286 1_555
Mn5 O8 1.936543 1_556
Mn5 O4 1.937213 1_566
Mn5 O8 1.941821 1_555
Mn5 O4 1.943039 1_565
F0 Mn4 1.945804 1_555
F0 Mn4 2.117228 1_554
F0 Mn5 2.238878 1_555
F1 Mn0 1.943329 1_555
F1 Mn0 2.118214 1_554
F1 Mn5 2.238105 1_555
