# generated using pymatgen
data_MgTi2(PS3)4
_symmetry_space_group_name_H-M   'P 1'
_cell_length_a   6.80892925
_cell_length_b   6.95189607
_cell_length_c   11.59267380
_cell_angle_alpha   101.53468971
_cell_angle_beta   100.95027448
_cell_angle_gamma   111.23073622
_symmetry_Int_Tables_number   1
_chemical_formula_structural   MgTi2(PS3)4
_chemical_formula_sum   'Mg1 Ti2 P4 S12'
_cell_volume   480.04071128
_cell_formula_units_Z   1
loop_
 _symmetry_equiv_pos_site_id
 _symmetry_equiv_pos_as_xyz
  1  'x, y, z'
loop_
 _atom_site_type_symbol
 _atom_site_label
 _atom_site_symmetry_multiplicity
 _atom_site_fract_x
 _atom_site_fract_y
 _atom_site_fract_z
 _atom_site_occupancy
  Mg  Mg0  1  0.24187200  0.15016300  0.40913000  1
  Ti  Ti0  1  0.85415200  0.85069500  0.71155200  1
  Ti  Ti1  1  0.59681700  0.09817300  0.18597100  1
  P  P0  1  0.73118100  0.86459500  0.38145600  1
  P  P1  1  0.61590500  0.98698400  0.87887400  1
  P  P2  1  0.26479300  0.89166600  0.87806700  1
  P  P3  1  0.64731200  0.51726100  0.37834300  1
  S  S0  1  0.67054400  0.71603500  0.85930400  1
  S  S1  1  0.18941400  0.14203100  0.85861400  1
  S  S2  1  0.97589900  0.03610700  0.54371400  1
  S  S3  1  0.56055700  0.51039700  0.53928800  1
  S  S4  1  0.26749200  0.81888300  0.04221200  1
  S  S5  1  0.78242300  0.22712800  0.04427700  1
  S  S6  1  0.37269100  0.31215100  0.23615200  1
  S  S7  1  0.86299200  0.92061000  0.24037700  1
  S  S8  1  0.66403900  0.09277000  0.73145200  1
  S  S9  1  0.06742900  0.63445300  0.72991300  1
  S  S10  1  0.43999000  0.89283000  0.34137400  1
  S  S11  1  0.89949800  0.44947600  0.35326300  1
loop_
_geom_bond_atom_site_label_1
_geom_bond_atom_site_label_2
_geom_bond_distance
_geom_bond_site_symmetry_2
Mg0 S3 2.562429 1_555
Mg0 S2 2.621216 1_455
Mg0 S7 2.623254 1_445
Mg0 S6 2.633993 1_555
Mg0 S10 2.688015 1_545
P0 S10 2.038102 1_555
P0 S7 2.047234 1_555
P0 S2 2.051754 1_565
P1 S0 2.026464 1_555
P1 S8 2.027276 1_565
P1 S5 2.066938 1_566
P2 S1 2.025746 1_565
P2 S9 2.026744 1_555
P2 S4 2.062960 1_556
P3 S11 1.993990 1_555
P3 S6 2.050550 1_555
P3 S3 2.065494 1_555
S0 Ti0 2.445463 1_555
S1 Ti0 2.451863 1_445
S2 Ti0 2.641251 1_545
S3 Ti0 2.598022 1_555
S4 Ti1 2.389213 1_565
S5 Ti1 2.378240 1_555
S6 Ti1 2.552526 1_555
S7 Ti1 2.589127 1_565
S8 Ti0 2.469183 1_545
S9 Ti0 2.450645 1_455
S10 Ti1 2.660628 1_565
S11 Ti1 2.629646 1_555
