# generated using pymatgen
data_K9Co2S7
_symmetry_space_group_name_H-M   'P 1'
_cell_length_a   12.82423100
_cell_length_b   12.82423100
_cell_length_c   12.82423100
_cell_angle_alpha   90.00000000
_cell_angle_beta   90.00000000
_cell_angle_gamma   90.00000000
_symmetry_Int_Tables_number   1
_chemical_formula_structural   K9Co2S7
_chemical_formula_sum   'K36 Co8 S28'
_cell_volume   2109.08458158
_cell_formula_units_Z   4
loop_
 _symmetry_equiv_pos_site_id
 _symmetry_equiv_pos_as_xyz
  1  'x, y, z'
loop_
 _atom_site_type_symbol
 _atom_site_label
 _atom_site_symmetry_multiplicity
 _atom_site_fract_x
 _atom_site_fract_y
 _atom_site_fract_z
 _atom_site_occupancy
  K  K0  1  0.93567500  0.55620700  0.78078800  1
  K  K1  1  0.21921200  0.43567500  0.94379300  1
  K  K2  1  0.17047000  0.32953000  0.67047000  1
  K  K3  1  0.00000000  0.00000000  0.00000000  1
  K  K4  1  0.94379300  0.21921200  0.43567500  1
  K  K5  1  0.43567500  0.94379300  0.21921200  1
  K  K6  1  0.00000000  0.50000000  0.50000000  1
  K  K7  1  0.05620700  0.78078800  0.56432500  1
  K  K8  1  0.06432500  0.05620700  0.71921200  1
  K  K9  1  0.82953000  0.67047000  0.32953000  1
  K  K10  1  0.94379300  0.28078800  0.93567500  1
  K  K11  1  0.50000000  0.50000000  0.00000000  1
  K  K12  1  0.78078800  0.93567500  0.55620700  1
  K  K13  1  0.82953000  0.82953000  0.82953000  1
  K  K14  1  0.67047000  0.32953000  0.82953000  1
  K  K15  1  0.93567500  0.94379300  0.28078800  1
  K  K16  1  0.44379300  0.28078800  0.56432500  1
  K  K17  1  0.21921200  0.06432500  0.44379300  1
  K  K18  1  0.44379300  0.21921200  0.06432500  1
  K  K19  1  0.28078800  0.56432500  0.44379300  1
  K  K20  1  0.55620700  0.71921200  0.43567500  1
  K  K21  1  0.50000000  0.00000000  0.50000000  1
  K  K22  1  0.05620700  0.71921200  0.06432500  1
  K  K23  1  0.56432500  0.05620700  0.78078800  1
  K  K24  1  0.43567500  0.55620700  0.71921200  1
  K  K25  1  0.28078800  0.93567500  0.94379300  1
  K  K26  1  0.56432500  0.44379300  0.28078800  1
  K  K27  1  0.78078800  0.56432500  0.05620700  1
  K  K28  1  0.71921200  0.06432500  0.05620700  1
  K  K29  1  0.06432500  0.44379300  0.21921200  1
  K  K30  1  0.32953000  0.82953000  0.67047000  1
  K  K31  1  0.55620700  0.78078800  0.93567500  1
  K  K32  1  0.17047000  0.17047000  0.17047000  1
  K  K33  1  0.71921200  0.43567500  0.55620700  1
  K  K34  1  0.32953000  0.67047000  0.17047000  1
  K  K35  1  0.67047000  0.17047000  0.32953000  1
  Co  Co0  1  0.81425800  0.18574200  0.68574200  1
  Co  Co1  1  0.18574200  0.68574200  0.81425800  1
  Co  Co2  1  0.31425800  0.31425800  0.31425800  1
  Co  Co3  1  0.81425800  0.31425800  0.18574200  1
  Co  Co4  1  0.18574200  0.81425800  0.31425800  1
  Co  Co5  1  0.68574200  0.68574200  0.68574200  1
  Co  Co6  1  0.68574200  0.81425800  0.18574200  1
  Co  Co7  1  0.31425800  0.18574200  0.81425800  1
  S  S0  1  0.81981200  0.82540900  0.08101500  1
  S  S1  1  0.17459100  0.58101500  0.68018800  1
  S  S2  1  0.41898500  0.31981200  0.82540900  1
  S  S3  1  0.50000000  0.50000000  0.50000000  1
  S  S4  1  0.32540900  0.41898500  0.18018800  1
  S  S5  1  0.81981200  0.67459100  0.58101500  1
  S  S6  1  0.18018800  0.32540900  0.41898500  1
  S  S7  1  0.58101500  0.81981200  0.67459100  1
  S  S8  1  0.31981200  0.67459100  0.91898500  1
  S  S9  1  0.50000000  0.00000000  0.00000000  1
  S  S10  1  0.82540900  0.08101500  0.81981200  1
  S  S11  1  0.58101500  0.68018800  0.17459100  1
  S  S12  1  0.18018800  0.17459100  0.91898500  1
  S  S13  1  0.00000000  0.00000000  0.50000000  1
  S  S14  1  0.67459100  0.91898500  0.31981200  1
  S  S15  1  0.00000000  0.50000000  0.00000000  1
  S  S16  1  0.17459100  0.91898500  0.18018800  1
  S  S17  1  0.08101500  0.81981200  0.82540900  1
  S  S18  1  0.32540900  0.08101500  0.68018800  1
  S  S19  1  0.41898500  0.18018800  0.32540900  1
  S  S20  1  0.91898500  0.31981200  0.67459100  1
  S  S21  1  0.68018800  0.17459100  0.58101500  1
  S  S22  1  0.08101500  0.68018800  0.32540900  1
  S  S23  1  0.91898500  0.18018800  0.17459100  1
  S  S24  1  0.82540900  0.41898500  0.31981200  1
  S  S25  1  0.31981200  0.82540900  0.41898500  1
  S  S26  1  0.68018800  0.32540900  0.08101500  1
  S  S27  1  0.67459100  0.58101500  0.81981200  1
loop_
_geom_bond_atom_site_label_1
_geom_bond_atom_site_label_2
_geom_bond_distance
_geom_bond_site_symmetry_2
K0 S15 3.017126 1_656
K0 S5 3.328086 1_555
K0 S20 3.330326 1_555
K0 S1 3.339639 1_655
K0 S27 3.400312 1_555
K1 S15 3.017126 1_556
K1 S2 3.328086 1_555
K1 S4 3.330326 1_556
K1 S8 3.339639 1_555
K1 S12 3.400312 1_555
K2 S1 3.227941 1_555
K2 S6 3.227941 1_555
K2 S20 3.227941 1_455
K3 S10 3.381153 1_454
K3 S17 3.381153 1_544
K3 S0 3.381153 1_445
K3 S16 3.381153 1_545
K3 S12 3.381153 1_554
K3 S23 3.381153 1_455
K4 S13 3.017126 1_655
K4 S24 3.328086 1_555
K4 S6 3.330326 1_655
K4 S20 3.339639 1_555
K4 S23 3.400312 1_555
K5 S9 3.017126 1_565
K5 S25 3.328086 1_555
K5 S19 3.330326 1_565
K5 S14 3.339639 1_555
K5 S16 3.400312 1_555
K6 S5 3.381153 1_455
K6 S20 3.381153 1_455
K6 S22 3.381153 1_555
K6 S6 3.381153 1_555
K6 S1 3.381153 1_555
K6 S24 3.381153 1_455
K7 S13 3.017126 1_565
K7 S1 3.328086 1_555
K7 S5 3.330326 1_455
K7 S22 3.339639 1_555
K7 S17 3.400312 1_555
K8 S13 3.017126 1_555
K8 S12 3.328086 1_555
K8 S17 3.330326 1_545
K8 S10 3.339639 1_455
K8 S18 3.400312 1_555
K9 S22 3.227941 1_655
K9 S5 3.227941 1_555
K9 S24 3.227941 1_555
K10 S15 3.017126 1_656
K10 S10 3.328086 1_555
K10 S12 3.330326 1_655
K10 S23 3.339639 1_556
K10 S20 3.400312 1_555
K11 S27 3.381153 1_554
K11 S8 3.381153 1_554
K11 S26 3.381153 1_555
K11 S4 3.381153 1_555
K11 S11 3.381153 1_555
K11 S2 3.381153 1_554
K12 S13 3.017126 1_665
K12 S7 3.328086 1_555
K12 S14 3.330326 1_555
K12 S21 3.339639 1_565
K12 S5 3.400312 1_555
K13 S17 3.227941 1_655
K13 S10 3.227941 1_565
K13 S0 3.227941 1_556
K14 S26 3.227941 1_556
K14 S27 3.227941 1_555
K14 S2 3.227941 1_555
K15 S13 3.017126 1_665
K15 S0 3.328086 1_555
K15 S23 3.330326 1_565
K15 S16 3.339639 1_655
K15 S14 3.400312 1_555
K16 S3 3.017126 1_555
K16 S18 3.328086 1_555
K16 S21 3.330326 1_555
K16 S19 3.339639 1_555
K16 S2 3.400312 1_555
K17 S13 3.017126 1_555
K17 S19 3.328086 1_555
K17 S18 3.330326 1_555
K17 S25 3.339639 1_545
K17 S6 3.400312 1_555
K18 S9 3.017126 1_555
K18 S4 3.328086 1_555
K18 S26 3.330326 1_555
K18 S2 3.339639 1_554
K18 S19 3.400312 1_555
K19 S3 3.017126 1_555
K19 S22 3.328086 1_555
K19 S1 3.330326 1_555
K19 S6 3.339639 1_555
K19 S25 3.400312 1_555
K20 S3 3.017126 1_555
K20 S14 3.328086 1_555
K20 S25 3.330326 1_555
K20 S7 3.339639 1_555
K20 S11 3.400312 1_555
K21 S7 3.381153 1_545
K21 S14 3.381153 1_545
K21 S18 3.381153 1_555
K21 S21 3.381153 1_555
K21 S19 3.381153 1_555
K21 S25 3.381153 1_545
K22 S15 3.017126 1_555
K22 S16 3.328086 1_555
K22 S0 3.330326 1_455
K22 S17 3.339639 1_554
K22 S22 3.400312 1_555
K23 S9 3.017126 1_556
K23 S21 3.328086 1_555
K23 S7 3.330326 1_545
K23 S18 3.339639 1_555
K23 S10 3.400312 1_555
K24 S3 3.017126 1_555
K24 S8 3.328086 1_555
K24 S2 3.330326 1_555
K24 S27 3.339639 1_555
K24 S1 3.400312 1_555
K25 S9 3.017126 1_566
K25 S17 3.328086 1_555
K25 S16 3.330326 1_556
K25 S12 3.339639 1_565
K25 S8 3.400312 1_555
K26 S3 3.017126 1_555
K26 S26 3.328086 1_555
K26 S11 3.330326 1_555
K26 S4 3.339639 1_555
K26 S24 3.400312 1_555
K27 S15 3.017126 1_655
K27 S11 3.328086 1_555
K27 S27 3.330326 1_554
K27 S26 3.339639 1_555
K27 S0 3.400312 1_555
K28 S9 3.017126 1_555
K28 S23 3.328086 1_555
K28 S10 3.330326 1_554
K28 S0 3.339639 1_545
K28 S26 3.400312 1_555
K29 S15 3.017126 1_555
K29 S6 3.328086 1_555
K29 S22 3.330326 1_555
K29 S24 3.339639 1_455
K29 S4 3.400312 1_555
K30 S18 3.227941 1_565
K30 S7 3.227941 1_555
K30 S25 3.227941 1_555
K31 S9 3.017126 1_566
K31 S27 3.328086 1_555
K31 S8 3.330326 1_555
K31 S11 3.339639 1_556
K31 S7 3.400312 1_555
K32 S12 3.227941 1_554
K32 S16 3.227941 1_545
K32 S23 3.227941 1_455
K33 S3 3.017126 1_555
K33 S20 3.328086 1_555
K33 S24 3.330326 1_555
K33 S5 3.339639 1_555
K33 S21 3.400312 1_555
K34 S11 3.227941 1_555
K34 S4 3.227941 1_555
K34 S8 3.227941 1_554
K35 S21 3.227941 1_555
K35 S19 3.227941 1_555
K35 S14 3.227941 1_545
Co0 S21 2.186404 1_555
Co0 S20 2.186404 1_555
Co0 S10 2.186404 1_555
Co0 K14 3.193851 1_555
Co1 S1 2.186404 1_555
Co1 S8 2.186404 1_555
Co1 S17 2.186404 1_555
Co1 K30 3.193851 1_555
Co2 S19 2.186404 1_555
Co2 S4 2.186404 1_555
Co2 S6 2.186404 1_555
Co2 K32 3.193851 1_555
Co3 S26 2.186404 1_555
Co3 S23 2.186404 1_555
Co3 S24 2.186404 1_555
Co3 K35 3.193851 1_555
Co4 S22 2.186404 1_555
Co4 S16 2.186404 1_555
Co4 S25 2.186404 1_555
Co4 K34 3.193851 1_555
Co5 S7 2.186404 1_555
Co5 S5 2.186404 1_555
Co5 S27 2.186404 1_555
Co5 K13 3.193851 1_555
Co6 S11 2.186404 1_555
Co6 S14 2.186404 1_555
Co6 S0 2.186404 1_555
Co6 K9 3.193851 1_555
Co7 S18 2.186404 1_555
Co7 S12 2.186404 1_555
Co7 S2 2.186404 1_555
Co7 K2 3.193851 1_555
