# generated using pymatgen
data_SrMgMoO3
_symmetry_space_group_name_H-M   'P 1'
_cell_length_a   4.50693695
_cell_length_b   4.50693695
_cell_length_c   4.51862622
_cell_angle_alpha   99.48041733
_cell_angle_beta   99.48041733
_cell_angle_gamma   80.63063000
_symmetry_Int_Tables_number   1
_chemical_formula_structural   SrMgMoO3
_chemical_formula_sum   'Sr1 Mg1 Mo1 O3'
_cell_volume   88.42192119
_cell_formula_units_Z   1
loop_
 _symmetry_equiv_pos_site_id
 _symmetry_equiv_pos_as_xyz
  1  'x, y, z'
loop_
 _atom_site_type_symbol
 _atom_site_label
 _atom_site_symmetry_multiplicity
 _atom_site_fract_x
 _atom_site_fract_y
 _atom_site_fract_z
 _atom_site_occupancy
  Sr  Sr0  1  0.60874599  0.60874599  0.38740563  1
  Mg  Mg0  1  0.26386937  0.26386937  0.73675132  1
  Mo  Mo0  1  0.96487878  0.96487878  0.03419843  1
  O  O0  1  0.97982031  0.47077250  0.02379026  1
  O  O1  1  0.47077250  0.97982031  0.02379026  1
  O  O2  1  0.97858005  0.97858005  0.52739709  1
loop_
_geom_bond_atom_site_label_1
_geom_bond_atom_site_label_2
_geom_bond_distance
_geom_bond_site_symmetry_2
Mg0 O2 1.984510 1_445
Mg0 O0 1.987606 1_456
Mg0 O1 1.987606 1_546
Mo0 O0 2.209880 1_555
Mo0 O1 2.209880 1_555
Mo0 O2 2.210152 1_555
Mo0 O0 2.300358 1_565
Mo0 O1 2.300358 1_655
Mo0 O2 2.312217 1_554
O0 Sr0 2.472495 1_555
O1 Sr0 2.472495 1_555
O2 Sr0 2.483273 1_555
