# generated using pymatgen
data_Pb3O4
_symmetry_space_group_name_H-M   'P 1'
_cell_length_a   6.65011153
_cell_length_b   8.58897156
_cell_length_c   9.18554587
_cell_angle_alpha   90.00000202
_cell_angle_beta   89.99999789
_cell_angle_gamma   89.99999444
_symmetry_Int_Tables_number   1
_chemical_formula_structural   Pb3O4
_chemical_formula_sum   'Pb12 O16'
_cell_volume   524.65650749
_cell_formula_units_Z   4
loop_
 _symmetry_equiv_pos_site_id
 _symmetry_equiv_pos_as_xyz
  1  'x, y, z'
loop_
 _atom_site_type_symbol
 _atom_site_label
 _atom_site_symmetry_multiplicity
 _atom_site_fract_x
 _atom_site_fract_y
 _atom_site_fract_z
 _atom_site_occupancy
  Pb  Pb0  1  0.50000000  0.36779687  0.32875658  1
  Pb  Pb1  1  0.49999991  0.63220301  0.67124339  1
  Pb  Pb2  1  0.49999997  0.86779699  0.17124339  1
  Pb  Pb3  1  0.50000003  0.13220290  0.82875651  1
  Pb  Pb4  1  -0.00000007  0.65519920  0.34461377  1
  Pb  Pb5  1  0.00000008  0.34480080  0.65538614  1
  Pb  Pb6  1  -0.00000009  0.15519922  0.15538628  1
  Pb  Pb7  1  0.00000004  0.84480083  0.84461381  1
  Pb  Pb8  1  0.75083920  -0.00000018  0.49999972  1
  Pb  Pb9  1  0.24916142  0.50000009  0.00000031  1
  Pb  Pb10  1  0.24916073  -0.00000012  0.49999979  1
  Pb  Pb11  1  0.75083850  0.49999995  0.00000037  1
  O  O0  1  0.49999993  0.09831919  0.37056234  1
  O  O1  1  0.49999998  0.90168060  0.62943793  1
  O  O2  1  0.50000004  0.59831938  0.12943770  1
  O  O3  1  0.49999992  0.40168064  0.87056217  1
  O  O4  1  -0.00000000  0.14049978  0.40879508  1
  O  O5  1  0.00000000  0.85950000  0.59120514  1
  O  O6  1  -0.00000012  0.64050008  0.09120490  1
  O  O7  1  -0.00000010  0.35950008  0.90879492  1
  O  O8  1  0.75080168  0.32832461  0.17136124  1
  O  O9  1  0.75080190  0.67167551  0.82863841  1
  O  O10  1  0.24919830  0.82832463  0.32863878  1
  O  O11  1  0.24919822  0.17167548  0.67136131  1
  O  O12  1  0.75080160  0.82832462  0.32863881  1
  O  O13  1  0.75080161  0.17167564  0.67136123  1
  O  O14  1  0.24919815  0.32832462  0.17136130  1
  O  O15  1  0.24919818  0.67167555  0.82863868  1
loop_
_geom_bond_atom_site_label_1
_geom_bond_atom_site_label_2
_geom_bond_distance
_geom_bond_site_symmetry_2
O0 Pb10 2.215697 1_555
O0 Pb8 2.215697 1_555
O0 Pb0 2.346176 1_555
O0 Pb2 2.696705 1_545
O1 Pb10 2.215700 1_565
O1 Pb8 2.215701 1_565
O1 Pb1 2.346174 1_555
O1 Pb3 2.696704 1_565
O2 Pb11 2.215693 1_555
O2 Pb9 2.215694 1_555
O2 Pb2 2.346175 1_555
O2 Pb0 2.696707 1_555
O3 Pb9 2.215697 1_556
O3 Pb11 2.215698 1_556
O3 Pb3 2.346176 1_555
O3 Pb1 2.696706 1_555
O4 Pb10 2.214400 1_555
O4 Pb8 2.214400 1_455
O4 Pb6 2.331120 1_555
O5 Pb10 2.214402 1_565
O5 Pb8 2.214402 1_465
O5 Pb7 2.331118 1_555
O6 Pb11 2.214404 1_455
O6 Pb9 2.214404 1_555
O6 Pb4 2.331120 1_555
O7 Pb11 2.214406 1_456
O7 Pb9 2.214407 1_556
O7 Pb5 2.331119 1_555
O8 Pb11 2.156804 1_555
O8 Pb6 2.231347 1_655
O8 Pb0 2.233141 1_555
O9 Pb11 2.156813 1_556
O9 Pb7 2.231346 1_655
O9 Pb1 2.233141 1_555
O10 Pb10 2.156805 1_565
O10 Pb4 2.231348 1_555
O10 Pb2 2.233142 1_555
O11 Pb10 2.156810 1_555
O11 Pb5 2.231346 1_555
O11 Pb3 2.233142 1_555
O12 Pb8 2.156804 1_565
O12 Pb4 2.231347 1_655
O12 Pb2 2.233142 1_555
O13 Pb8 2.156811 1_555
O13 Pb5 2.231347 1_655
O13 Pb3 2.233141 1_555
O14 Pb9 2.156806 1_555
O14 Pb6 2.231347 1_555
O14 Pb0 2.233142 1_555
O15 Pb9 2.156810 1_556
O15 Pb7 2.231346 1_555
O15 Pb1 2.233142 1_555
