# generated using pymatgen
data_Na10Y4In4Si5S7O48
_symmetry_space_group_name_H-M   'P 1'
_cell_length_a   18.49512341
_cell_length_b   9.27594967
_cell_length_c   23.21861938
_cell_angle_alpha   90.10929869
_cell_angle_beta   89.24654458
_cell_angle_gamma   120.00760536
_symmetry_Int_Tables_number   1
_chemical_formula_structural   Na10Y4In4Si5S7O48
_chemical_formula_sum   'Na30 Y12 In12 Si15 S21 O144'
_cell_volume   3449.09762577
_cell_formula_units_Z   3
loop_
 _symmetry_equiv_pos_site_id
 _symmetry_equiv_pos_as_xyz
  1  'x, y, z'
loop_
 _atom_site_type_symbol
 _atom_site_label
 _atom_site_symmetry_multiplicity
 _atom_site_fract_x
 _atom_site_fract_y
 _atom_site_fract_z
 _atom_site_occupancy
  Na  Na0  1  0.33666176  0.00130686  0.24748737  1
  Na  Na1  1  0.83030099  0.99900148  0.24673762  1
  Na  Na2  1  0.17655800  0.37023639  0.23325314  1
  Na  Na3  1  0.68619773  0.37612873  0.23389243  1
  Na  Na4  1  0.99322920  0.62877957  0.26196843  1
  Na  Na5  1  0.49297240  0.63276558  0.26241979  1
  Na  Na6  1  0.83126646  0.66023513  0.74952167  1
  Na  Na7  1  0.99330593  0.36238645  0.76820725  1
  Na  Na8  1  0.49411357  0.34621345  0.76470415  1
  Na  Na9  1  0.17889259  0.98185111  0.74179697  1
  Na  Na10  1  0.01938915  0.70306814  0.58552027  1
  Na  Na11  1  0.32575612  0.96786916  0.59618148  1
  Na  Na12  1  0.01940617  0.33194425  0.08439834  1
  Na  Na13  1  0.52451987  0.33111342  0.08507241  1
  Na  Na14  1  0.15918835  0.29798521  0.93186473  1
  Na  Na15  1  0.66203652  0.30574767  0.93266961  1
  Na  Na16  1  0.15763288  0.01832476  0.43368435  1
  Na  Na17  1  0.65848266  0.00624388  0.43347436  1
  Na  Na18  1  0.00187142  0.99705009  0.49873745  1
  Na  Na19  1  0.51079946  0.97733730  0.50474390  1
  Na  Na20  1  0.00292254  0.00211853  0.99957322  1
  Na  Na21  1  0.50492015  0.00527680  0.99909714  1
  Na  Na22  1  0.34844624  0.32704548  0.83939813  1
  Na  Na23  1  0.84948133  0.31756241  0.83660552  1
  Na  Na24  1  0.35860248  0.38396103  0.33242457  1
  Na  Na25  1  0.85673952  0.38675487  0.33604592  1
  Na  Na26  1  0.18185595  0.65066057  0.16196775  1
  Na  Na27  1  0.68464281  0.65109927  0.16656853  1
  Na  Na28  1  0.17287873  0.67845173  0.67275110  1
  Na  Na29  1  0.68909226  0.75433729  0.66989681  1
  Y  Y0  1  0.49247246  0.98939814  0.35086773  1
  Y  Y1  1  0.99835898  0.99286121  0.65158714  1
  Y  Y2  1  0.50307113  0.00395551  0.14719444  1
  Y  Y3  1  0.33038718  0.32878238  0.68179567  1
  Y  Y4  1  0.82685653  0.31501596  0.68654802  1
  Y  Y5  1  0.33004461  0.33651071  0.18013118  1
  Y  Y6  1  0.33735002  0.34443916  0.48263218  1
  Y  Y7  1  0.82982772  0.32927827  0.48466190  1
  Y  Y8  1  0.66957134  0.66240394  0.01729319  1
  Y  Y9  1  0.66194671  0.67456300  0.51966926  1
  Y  Y10  1  0.15850380  0.65177162  0.31829389  1
  Y  Y11  1  0.66198011  0.65337913  0.31785366  1
  In  In0  1  0.98780945  0.98197188  0.34749629  1
  In  In1  1  0.99168183  0.99799431  0.85055351  1
  In  In2  1  0.49364312  0.00598675  0.85154612  1
  In  In3  1  0.49812353  0.99178319  0.65147515  1
  In  In4  1  0.00465260  0.01070801  0.14791621  1
  In  In5  1  0.83539779  0.34282678  0.18006485  1
  In  In6  1  0.33213112  0.33076185  0.98227648  1
  In  In7  1  0.83893820  0.33966381  0.98167513  1
  In  In8  1  0.16633517  0.65279853  0.01399521  1
  In  In9  1  0.15881995  0.67170646  0.51385525  1
  In  In10  1  0.16339401  0.67004957  0.81766736  1
  In  In11  1  0.66201751  0.67139267  0.82153208  1
  Si  Si0  1  0.34776326  0.69719150  0.24827265  1
  Si  Si1  1  0.85561641  0.70561315  0.24531625  1
  Si  Si2  1  0.99692342  0.29074111  0.24540247  1
  Si  Si3  1  0.50111880  0.30398452  0.24432821  1
  Si  Si4  1  0.00117809  0.70191637  0.75211951  1
  Si  Si5  1  0.35142153  0.99689816  0.74761113  1
  Si  Si6  1  0.84530449  0.98944423  0.75527442  1
  Si  Si7  1  0.18006700  0.02543916  0.57924541  1
  Si  Si8  1  0.67358837  0.02801049  0.58180853  1
  Si  Si9  1  0.17909359  0.32705751  0.07923737  1
  Si  Si10  1  0.68663493  0.32998212  0.07956679  1
  Si  Si11  1  0.01581614  0.35803286  0.91649452  1
  Si  Si12  1  0.51351187  0.36398598  0.91689924  1
  Si  Si13  1  0.01041063  0.67905822  0.41570279  1
  Si  Si14  1  0.51415685  0.67204542  0.41207208  1
  S  S0  1  0.14757521  0.99953271  0.25197665  1
  S  S1  1  0.65368568  0.00513500  0.25158476  1
  S  S2  1  0.14934392  0.30011132  0.75464307  1
  S  S3  1  0.64456214  0.29882604  0.75415746  1
  S  S4  1  0.50033136  0.70473779  0.75352748  1
  S  S5  1  0.48429328  0.32771123  0.58598467  1
  S  S6  1  0.98638820  0.33694404  0.58356765  1
  S  S7  1  0.32934095  0.63851038  0.58233078  1
  S  S8  1  0.83228114  0.63471210  0.58759797  1
  S  S9  1  0.48269152  0.63186095  0.07982214  1
  S  S10  1  0.98757337  0.63857908  0.08237202  1
  S  S11  1  0.33019731  0.02522564  0.08057858  1
  S  S12  1  0.83466465  0.03969995  0.08525165  1
  S  S13  1  0.31519914  0.66679486  0.91456423  1
  S  S14  1  0.81874560  0.66181083  0.91311092  1
  S  S15  1  0.16795322  0.96554174  0.91733106  1
  S  S16  1  0.66455419  0.97244074  0.91529812  1
  S  S17  1  0.31447588  0.96470591  0.41861775  1
  S  S18  1  0.81860903  0.96925030  0.41432182  1
  S  S19  1  0.16355594  0.36442471  0.41912251  1
  S  S20  1  0.66746034  0.36125692  0.41674432  1
  O  O0  1  0.11276556  0.03076064  0.30531445  1
  O  O1  1  0.61401572  0.02153371  0.30503547  1
  O  O2  1  0.40757093  0.77664324  0.30415651  1
  O  O3  1  0.91607654  0.76851653  0.30166572  1
  O  O4  1  0.48972036  0.17762138  0.29683693  1
  O  O5  1  0.97945190  0.16084399  0.29868423  1
  O  O6  1  0.11540587  0.20821402  0.80974793  1
  O  O7  1  0.61365976  0.20136786  0.80897087  1
  O  O8  1  0.49634955  0.79160921  0.80596009  1
  O  O9  1  0.99316937  0.80797574  0.80580230  1
  O  O10  1  0.42076686  0.04933492  0.79814419  1
  O  O11  1  0.90685857  0.04220496  0.81073460  1
  O  O12  1  0.38936070  0.97166043  0.68583935  1
  O  O13  1  0.88857187  0.95173398  0.69968322  1
  O  O14  1  0.09465822  0.20933495  0.70570016  1
  O  O15  1  0.59112030  0.20505987  0.70515380  1
  O  O16  1  0.01732942  0.80658533  0.69147997  1
  O  O17  1  0.50658400  0.79661099  0.70013040  1
  O  O18  1  0.39628571  0.81309218  0.19222653  1
  O  O19  1  0.89990512  0.82847354  0.18973078  1
  O  O20  1  0.02261566  0.23155195  0.18524284  1
  O  O21  1  0.51333428  0.22738026  0.18310319  1
  O  O22  1  0.09376391  0.96979035  0.20153713  1
  O  O23  1  0.59899001  0.97823815  0.20161923  1
  O  O24  1  0.44866420  0.35312391  0.64081951  1
  O  O25  1  0.94713081  0.35584833  0.63739568  1
  O  O26  1  0.23756867  0.11958942  0.63650265  1
  O  O27  1  0.73508277  0.14223369  0.63276174  1
  O  O28  1  0.32653008  0.54752290  0.63546227  1
  O  O29  1  0.83092431  0.55688125  0.64369590  1
  O  O30  1  0.44263312  0.53759743  0.13388547  1
  O  O31  1  0.95142634  0.53724244  0.13636132  1
  O  O32  1  0.32208306  0.09510698  0.13659130  1
  O  O33  1  0.82901417  0.11235887  0.14148771  1
  O  O34  1  0.22631169  0.33566346  0.13887843  1
  O  O35  1  0.73273489  0.33022234  0.13981036  1
  O  O36  1  0.22825834  0.32016169  0.02012837  1
  O  O37  1  0.73674520  0.33137808  0.01997275  1
  O  O38  1  0.43255559  0.54051560  0.02938691  1
  O  O39  1  0.93562421  0.55057624  0.03213109  1
  O  O40  1  0.34182970  0.14069579  0.03247415  1
  O  O41  1  0.84400223  0.15141998  0.03655222  1
  O  O42  1  0.22950306  0.12732735  0.52132741  1
  O  O43  1  0.71350105  0.11733009  0.51899714  1
  O  O44  1  0.33885101  0.55441690  0.53112699  1
  O  O45  1  0.83906363  0.53433711  0.53994253  1
  O  O46  1  0.43221090  0.32608949  0.53731791  1
  O  O47  1  0.93591604  0.32596003  0.53305179  1
  O  O48  1  0.28041249  0.69506719  0.96877674  1
  O  O49  1  0.77310685  0.67575225  0.96371947  1
  O  O50  1  0.07487213  0.44750132  0.97270946  1
  O  O51  1  0.57504004  0.46075232  0.97065365  1
  O  O52  1  0.16861080  0.86780655  0.96750785  1
  O  O53  1  0.66191826  0.87676151  0.96686071  1
  O  O54  1  0.27468748  0.86711937  0.47245840  1
  O  O55  1  0.77284567  0.86500469  0.46457878  1
  O  O56  1  0.16351863  0.46353182  0.46983214  1
  O  O57  1  0.67064278  0.46127145  0.46651541  1
  O  O58  1  0.07195455  0.70905845  0.47201516  1
  O  O59  1  0.57894800  0.67937643  0.46109904  1
  O  O60  1  0.05450757  0.66201629  0.35650913  1
  O  O61  1  0.55477395  0.66716014  0.34892675  1
  O  O62  1  0.26721022  0.87172311  0.36718977  1
  O  O63  1  0.77691906  0.88635624  0.35979115  1
  O  O64  1  0.17164658  0.45488642  0.36463415  1
  O  O65  1  0.67169913  0.44837815  0.36171071  1
  O  O66  1  0.05978480  0.46502786  0.85708633  1
  O  O67  1  0.55518720  0.47089950  0.85619862  1
  O  O68  1  0.17605490  0.89364186  0.86188987  1
  O  O69  1  0.67430346  0.89520260  0.86173546  1
  O  O70  1  0.26574537  0.65968880  0.86389982  1
  O  O71  1  0.77356776  0.65524668  0.85932568  1
  O  O72  1  0.01146808  0.85997448  0.41540936  1
  O  O73  1  0.51377727  0.84821609  0.41977248  1
  O  O74  1  0.40080197  0.99785617  0.41700665  1
  O  O75  1  0.90541356  0.00133215  0.41577886  1
  O  O76  1  0.08631567  0.19994694  0.41921108  1
  O  O77  1  0.59035835  0.19554712  0.41826369  1
  O  O78  1  0.01416272  0.17612363  0.91567905  1
  O  O79  1  0.51259196  0.18299394  0.91546320  1
  O  O80  1  0.09101044  0.97839434  0.91889446  1
  O  O81  1  0.58611411  0.98208333  0.91350407  1
  O  O82  1  0.40314079  0.80452571  0.90994665  1
  O  O83  1  0.90449298  0.80416197  0.91484205  1
  O  O84  1  0.47815933  0.16189127  0.58646909  1
  O  O85  1  0.99643215  0.18941245  0.58569367  1
  O  O86  1  0.08564851  0.99747583  0.58122540  1
  O  O87  1  0.57948583  0.00810497  0.58871107  1
  O  O88  1  0.40164164  0.81186479  0.58330316  1
  O  O89  1  0.91002942  0.80165042  0.58328877  1
  O  O90  1  0.49248777  0.79887717  0.08059597  1
  O  O91  1  0.99486515  0.80402017  0.08610386  1
  O  O92  1  0.40691592  0.01111820  0.08067683  1
  O  O93  1  0.91077194  0.02396375  0.08338537  1
  O  O94  1  0.08393045  0.15971388  0.07852520  1
  O  O95  1  0.59119467  0.16824033  0.07618011  1
  O  O96  1  0.34077157  0.16550892  0.74475837  1
  O  O97  1  0.83531347  0.15361693  0.74780855  1
  O  O98  1  0.23276917  0.31511874  0.74597359  1
  O  O99  1  0.73286311  0.34209324  0.74608605  1
  O  O100  1  0.42443886  0.53366547  0.75182180  1
  O  O101  1  0.91594017  0.51815464  0.75059536  1
  O  O102  1  0.33057415  0.50532727  0.24458591  1
  O  O103  1  0.83857093  0.51327648  0.24035931  1
  O  O104  1  0.41623602  0.31993757  0.24405663  1
  O  O105  1  0.91123789  0.30492991  0.24092164  1
  O  O106  1  0.23216474  0.14666750  0.24334416  1
  O  O107  1  0.73580910  0.15932620  0.24535124  1
  O  O108  1  0.31323936  0.50345230  0.91679038  1
  O  O109  1  0.81882564  0.50084819  0.91518996  1
  O  O110  1  0.41950362  0.34123013  0.92287896  1
  O  O111  1  0.92145976  0.33589043  0.92223269  1
  O  O112  1  0.24125492  0.14010658  0.91884151  1
  O  O113  1  0.73628743  0.14686184  0.91743041  1
  O  O114  1  0.31391470  0.12468251  0.41901835  1
  O  O115  1  0.81846285  0.13012686  0.41706669  1
  O  O116  1  0.23621418  0.33725913  0.42193193  1
  O  O117  1  0.74028275  0.33277745  0.41604150  1
  O  O118  1  0.42152312  0.50664113  0.41706250  1
  O  O119  1  0.91871464  0.51415696  0.42338226  1
  O  O120  1  0.16813656  0.49513471  0.07871063  1
  O  O121  1  0.67441966  0.49643333  0.08125619  1
  O  O122  1  0.07212307  0.65568951  0.07661238  1
  O  O123  1  0.56574462  0.64334976  0.07715214  1
  O  O124  1  0.25446084  0.85988125  0.07346050  1
  O  O125  1  0.75860991  0.87498077  0.07978933  1
  O  O126  1  0.17489897  0.83878288  0.58182590  1
  O  O127  1  0.66430822  0.84220833  0.58388117  1
  O  O128  1  0.25141224  0.64844158  0.57888929  1
  O  O129  1  0.75809510  0.65101924  0.58187723  1
  O  O130  1  0.07001180  0.49223430  0.57947889  1
  O  O131  1  0.57093518  0.46059388  0.57990833  1
  O  O132  1  0.15848282  0.85181775  0.25705176  1
  O  O133  1  0.66822548  0.86142062  0.25405165  1
  O  O134  1  0.25737417  0.69166500  0.25260608  1
  O  O135  1  0.76403258  0.69365731  0.25309985  1
  O  O136  1  0.07688727  0.47851797  0.25456566  1
  O  O137  1  0.58510102  0.48998035  0.24891615  1
  O  O138  1  0.15726293  0.46702261  0.75554819  1
  O  O139  1  0.64351269  0.45828851  0.75733156  1
  O  O140  1  0.08428308  0.67801344  0.75463426  1
  O  O141  1  0.57459918  0.68045451  0.75453652  1
  O  O142  1  0.25745505  0.83621195  0.75709104  1
  O  O143  1  0.75397621  0.81131403  0.76097635  1
loop_
_geom_bond_atom_site_label_1
_geom_bond_atom_site_label_2
_geom_bond_distance
_geom_bond_site_symmetry_2
Na0 O134 2.489586 1_545
Na0 O104 2.560251 1_555
Na0 O4 2.729226 1_555
Na0 O32 2.778685 1_555
Na0 O18 2.791123 1_545
Na0 O106 2.859114 1_555
Na0 O132 2.871115 1_545
Na0 O62 3.032153 1_545
Na1 O105 2.461550 1_565
Na1 O135 2.463909 1_555
Na1 O133 2.608484 1_555
Na1 O33 2.667307 1_565
Na1 O5 2.693793 1_565
Na1 O63 2.804881 1_555
Na1 O107 2.805035 1_565
Na1 O19 2.809860 1_555
Na2 O34 2.447582 1_555
Na2 O102 2.490350 1_555
Na2 O136 2.545197 1_555
Na2 O134 2.623111 1_555
Na2 O20 2.723681 1_555
Na2 O106 2.748603 1_555
Na3 O103 2.450997 1_555
Na3 O35 2.451040 1_555
Na3 O137 2.586442 1_555
Na3 O135 2.591781 1_555
Na3 O107 2.609827 1_555
Na4 O60 2.431331 1_655
Na4 O3 2.525220 1_555
Na4 O136 2.552549 1_655
Na4 O103 2.559685 1_555
Na4 O105 2.649514 1_555
Na4 O132 2.702180 1_655
Na5 O61 2.266239 1_555
Na5 O104 2.551131 1_555
Na5 O137 2.645295 1_555
Na5 O102 2.658906 1_555
Na5 O2 2.697855 1_555
Na5 O133 2.855024 1_555
Na6 O143 2.463826 1_555
Na6 O101 2.501131 1_555
Na6 O99 2.580367 1_555
Na6 O13 2.624277 1_555
Na6 O29 2.634765 1_555
Na6 O71 2.742331 1_555
Na7 O66 2.359073 1_655
Na7 O101 2.527449 1_555
Na7 O140 2.562101 1_655
Na7 O97 2.624114 1_555
Na7 O138 2.694004 1_655
Na7 O11 2.751758 1_555
Na8 O139 2.420764 1_555
Na8 O67 2.423545 1_555
Na8 O10 2.504105 1_555
Na8 O96 2.518754 1_555
Na8 O100 2.650811 1_555
Na8 O141 2.694697 1_555
Na9 O142 2.457889 1_555
Na9 O140 2.480057 1_555
Na9 O96 2.602712 1_565
Na9 O26 2.709683 1_565
Na9 O98 2.734812 1_565
Na9 O16 2.856990 1_555
Na9 O68 2.899875 1_555
Na10 O86 2.370654 1_555
Na10 O126 2.497367 1_555
Na10 O130 2.558897 1_555
Na10 O89 2.604386 1_455
Na10 O16 2.646007 1_555
Na10 O58 2.787994 1_555
Na11 O12 2.396132 1_555
Na11 O126 2.451718 1_555
Na11 O84 2.479070 1_565
Na11 O88 2.484373 1_555
Na11 O128 2.601171 1_555
Na11 O26 2.787144 1_565
Na12 O120 2.387877 1_555
Na12 O94 2.428367 1_555
Na12 O20 2.533864 1_555
Na12 O93 2.541373 1_455
Na12 O122 2.659017 1_555
Na12 O50 2.786956 1_554
Na13 O95 2.387768 1_555
Na13 O121 2.405689 1_555
Na13 O21 2.438513 1_555
Na13 O123 2.606375 1_555
Na13 O92 2.664391 1_555
Na13 O51 2.863551 1_554
Na14 O78 2.367648 1_555
Na14 O36 2.382958 1_556
Na14 O108 2.533309 1_555
Na14 O80 2.595500 1_545
Na14 O112 2.597981 1_555
Na14 O50 2.715532 1_555
Na14 O6 2.960650 1_555
Na15 O37 2.412044 1_556
Na15 O79 2.444414 1_555
Na15 O113 2.488552 1_555
Na15 O109 2.563516 1_555
Na15 O81 2.641613 1_545
Na15 O51 2.775946 1_555
Na16 O42 2.376810 1_555
Na16 O72 2.387818 1_545
Na16 O114 2.562634 1_555
Na16 O116 2.575067 1_555
Na16 O76 2.632019 1_555
Na16 O58 2.637899 1_545
Na17 O43 2.244300 1_555
Na17 O73 2.347198 1_545
Na17 O115 2.606066 1_555
Na17 O77 2.650039 1_555
Na17 O117 2.651806 1_555
Na17 O59 2.699964 1_545
Na18 O72 2.366190 1_555
Na18 O86 2.478098 1_555
Na18 O76 2.527499 1_565
Na18 O89 2.621249 1_455
Na18 O75 2.656306 1_465
Na18 O85 2.725956 1_465
Na19 O87 2.279603 1_565
Na19 O73 2.320364 1_555
Na19 O88 2.563841 1_555
Na19 O77 2.693098 1_565
Na19 O84 2.808368 1_565
Na19 O74 2.970318 1_555
Na20 O94 2.369284 1_556
Na20 O78 2.471534 1_555
Na20 O80 2.547263 1_545
Na20 O93 2.643758 1_456
Na20 O91 2.677253 1_446
Na20 O83 2.700579 1_445
Na21 O95 2.384658 1_556
Na21 O79 2.505896 1_555
Na21 O81 2.548326 1_545
Na21 O90 2.619388 1_546
Na21 O92 2.623714 1_556
Na21 O82 2.806678 1_545
Na22 O110 2.322624 1_555
Na22 O112 2.610969 1_555
Na22 O96 2.622376 1_555
Na22 O100 2.651188 1_555
Na22 O108 2.711896 1_555
Na23 O111 2.365542 1_555
Na23 O97 2.497157 1_555
Na23 O101 2.573549 1_555
Na23 O113 2.646542 1_555
Na23 O109 2.732463 1_555
Na24 O118 2.288707 1_555
Na24 O104 2.503945 1_555
Na24 O102 2.513154 1_555
Na24 O114 2.914852 1_555
Na24 O116 2.920523 1_555
Na25 O119 2.349388 1_555
Na25 O103 2.617310 1_555
Na25 O117 2.675713 1_555
Na25 O105 2.677776 1_555
Na25 O115 2.828982 1_555
Na26 O120 2.349186 1_555
Na26 O134 2.463185 1_555
Na26 O124 2.669957 1_555
Na26 O136 2.782781 1_555
Na26 O122 2.872218 1_555
Na27 O121 2.396962 1_555
Na27 O135 2.417278 1_555
Na27 O137 2.538697 1_555
Na27 O125 2.710323 1_555
Na28 O142 2.490609 1_555
Na28 O140 2.492195 1_555
Na28 O126 2.573818 1_555
Na28 O138 2.656825 1_555
Na28 O128 2.693622 1_555
Na28 O130 2.846122 1_555
Na29 O127 2.295026 1_555
Na29 O143 2.370578 1_555
Na29 O141 2.694431 1_555
Na29 O129 2.805565 1_555
In0 O3 2.052930 1_555
In0 O5 2.080783 1_565
In0 O72 2.116310 1_655
In0 O75 2.253281 1_565
In0 O0 2.324036 1_665
In0 O76 2.561727 1_665
In1 O11 2.041383 1_565
In1 O9 2.056195 1_555
In1 O78 2.123533 1_665
In1 O83 2.260119 1_555
In1 O6 2.328788 1_665
In1 O80 2.517478 1_655
In2 O10 2.025769 1_555
In2 O79 2.109495 1_555
In2 O82 2.225740 1_545
In2 O7 2.261475 1_555
In2 O8 2.273170 1_545
In2 O81 2.342838 1_545
In3 O87 2.031344 1_565
In3 O12 2.073819 1_555
In3 O17 2.207738 1_555
In3 O15 2.251452 1_565
In3 O84 2.347509 1_565
In3 O88 2.358049 1_555
In4 O19 2.057778 1_445
In4 O20 2.092382 1_555
In4 O94 2.139026 1_555
In4 O22 2.256516 1_545
In4 O91 2.327555 1_445
In4 O93 2.357457 1_455
In5 O35 2.077680 1_555
In5 O103 2.089029 1_555
In5 O105 2.152876 1_555
In5 O31 2.228424 1_555
In5 O33 2.264834 1_555
In5 O107 2.321259 1_555
In6 O36 2.059087 1_556
In6 O110 2.075503 1_555
In6 O40 2.197406 1_556
In6 O38 2.205123 1_556
In6 O112 2.281225 1_555
In6 O108 2.362852 1_555
In7 O37 2.044443 1_556
In7 O111 2.057517 1_555
In7 O41 2.203746 1_556
In7 O39 2.223688 1_556
In7 O109 2.310196 1_555
In7 O113 2.386656 1_555
In8 O50 2.054384 1_554
In8 O120 2.110975 1_555
In8 O48 2.196244 1_554
In8 O52 2.251115 1_554
In8 O122 2.265092 1_555
In8 O124 2.273809 1_555
In9 O58 2.060102 1_555
In9 O126 2.126731 1_555
In9 O54 2.206588 1_555
In9 O56 2.222423 1_555
In9 O130 2.236018 1_555
In9 O128 2.387101 1_555
In10 O66 2.107575 1_555
In10 O140 2.110239 1_555
In10 O142 2.154592 1_555
In10 O68 2.218817 1_555
In10 O70 2.231770 1_555
In10 O138 2.328129 1_555
In11 O143 2.071287 1_555
In11 O67 2.073400 1_555
In11 O69 2.181585 1_555
In11 O141 2.289857 1_555
In11 O71 2.325118 1_555
In11 O139 2.360542 1_555
O0 S0 1.481993 1_545
O1 S1 1.479401 1_555
O1 Y0 2.354286 1_545
O2 Si0 1.633719 1_555
O2 Y0 2.115119 1_555
O3 Si1 1.638785 1_555
O4 Si3 1.629810 1_555
O4 Y0 2.173402 1_545
O5 Si2 1.640873 1_555
O6 S2 1.485095 1_555
O7 S3 1.494024 1_555
O8 S4 1.479903 1_555
O9 Si4 1.636961 1_655
O10 Si5 1.634501 1_545
O11 Si6 1.634821 1_545
O12 Si5 1.655542 1_555
O13 Si6 1.637031 1_555
O13 Y1 2.163984 1_555
O14 S2 1.482599 1_555
O14 Y1 2.292357 1_445
O15 S3 1.481201 1_555
O16 Si4 1.648732 1_555
O16 Y1 2.141888 1_455
O17 S4 1.475955 1_555
O18 Si0 1.632237 1_555
O18 Y2 2.140952 1_565
O19 Si1 1.636929 1_555
O20 Si2 1.648916 1_455
O21 Si3 1.650779 1_555
O21 Y2 2.151841 1_555
O22 S0 1.480868 1_555
O23 S1 1.486205 1_565
O23 Y2 2.298774 1_565
O24 S5 1.497656 1_555
O24 Y3 2.278941 1_555
O25 S6 1.490841 1_555
O25 Y4 2.342306 1_555
O26 Si7 1.662796 1_555
O26 Y3 2.127470 1_555
O27 Si8 1.625138 1_555
O27 Y4 2.082416 1_555
O28 S7 1.481653 1_555
O28 Y3 2.331202 1_555
O29 S8 1.484252 1_555
O29 Y4 2.422141 1_555
O30 S9 1.490281 1_555
O30 Y5 2.243245 1_555
O31 S10 1.501941 1_555
O32 S11 1.490992 1_555
O32 Y5 2.392359 1_555
O33 S12 1.494520 1_555
O34 Si9 1.627363 1_555
O34 Y5 2.152108 1_555
O35 Si10 1.647116 1_555
O36 Si9 1.655149 1_555
O37 Si10 1.651683 1_555
O38 S9 1.479189 1_555
O39 S10 1.480418 1_555
O40 S11 1.486200 1_555
O41 S12 1.484131 1_555
O42 Si7 1.626598 1_555
O42 Y6 2.187117 1_555
O43 Si8 1.650102 1_555
O43 Y7 2.204471 1_555
O44 S7 1.476836 1_555
O44 Y6 2.236220 1_555
O45 S8 1.488692 1_555
O45 Y7 2.228487 1_555
O46 S5 1.489640 1_555
O46 Y6 2.253316 1_555
O47 S6 1.480103 1_555
O47 Y7 2.287296 1_555
O48 S13 1.487734 1_555
O49 S14 1.480711 1_555
O49 Y8 2.220422 1_556
O50 Si11 1.646837 1_555
O51 Si12 1.633961 1_555
O51 Y8 2.121145 1_556
O52 S15 1.481481 1_555
O53 S16 1.477369 1_555
O53 Y8 2.374779 1_556
O54 S17 1.495840 1_555
O55 S18 1.474035 1_555
O55 Y9 2.297658 1_555
O56 S19 1.492618 1_555
O57 S20 1.463788 1_555
O57 Y9 2.401490 1_555
O58 Si13 1.674380 1_555
O59 Si14 1.640269 1_555
O59 Y9 2.081228 1_555
O60 Si13 1.636388 1_555
O60 Y10 2.152560 1_555
O61 Si14 1.649485 1_555
O61 Y11 2.164226 1_555
O62 S17 1.484357 1_555
O62 Y10 2.332820 1_555
O63 S18 1.489225 1_555
O63 Y11 2.364065 1_555
O64 S19 1.483435 1_555
O64 Y10 2.238424 1_555
O65 S20 1.493299 1_555
O65 Y11 2.244849 1_555
O66 Si11 1.648468 1_555
O67 Si12 1.666186 1_555
O68 S15 1.488600 1_555
O69 S16 1.487418 1_555
O70 S13 1.480693 1_555
O71 S14 1.495894 1_555
O72 Si13 1.668501 1_555
O73 Si14 1.647055 1_555
O73 Y0 2.229489 1_555
O74 S17 1.467149 1_555
O74 Y0 2.302842 1_555
O75 S18 1.480108 1_545
O76 S19 1.479331 1_555
O77 S20 1.484558 1_555
O77 Y0 2.446080 1_545
O78 Si11 1.672372 1_555
O79 Si12 1.670702 1_555
O80 S15 1.486261 1_555
O81 S16 1.498610 1_555
O82 S13 1.485486 1_555
O83 S14 1.472135 1_555
O84 S5 1.484708 1_555
O85 S6 1.471224 1_555
O85 Y1 2.396488 1_545
O86 Si7 1.632104 1_565
O86 Y1 2.266932 1_455
O87 Si8 1.661399 1_555
O88 S7 1.491403 1_555
O89 S8 1.498409 1_555
O89 Y1 2.342786 1_555
O90 S9 1.467139 1_555
O90 Y2 2.381693 1_565
O91 S10 1.474298 1_555
O92 S11 1.488715 1_555
O92 Y2 2.396510 1_555
O93 S12 1.486084 1_555
O94 Si9 1.666003 1_555
O95 Si10 1.651437 1_555
O95 Y2 2.269806 1_555
O96 Si5 1.672794 1_545
O96 Y3 2.185085 1_555
O97 Si6 1.632975 1_545
O97 Y4 2.130079 1_555
O98 S2 1.489201 1_555
O98 Y3 2.279756 1_555
O99 S3 1.483230 1_555
O99 Y4 2.316981 1_555
O100 S4 1.504402 1_555
O100 Y3 2.457076 1_555
O101 Si4 1.644840 1_655
O101 Y4 2.329184 1_555
O102 Si0 1.646212 1_555
O102 Y5 2.160558 1_555
O103 Si1 1.653255 1_555
O104 Si3 1.649003 1_555
O104 Y5 2.253021 1_555
O105 Si2 1.659108 1_555
O106 S0 1.485798 1_545
O106 Y5 2.298646 1_555
O107 S1 1.481797 1_555
O108 S13 1.498334 1_555
O109 S14 1.494695 1_555
O110 Si12 1.647289 1_555
O111 Si11 1.655565 1_655
O112 S15 1.505480 1_545
O113 S16 1.494892 1_545
O114 S17 1.489163 1_545
O114 Y6 2.376207 1_555
O115 S18 1.494873 1_545
O115 Y7 2.351430 1_555
O116 S19 1.488181 1_555
O116 Y6 2.331092 1_555
O117 S20 1.496455 1_555
O117 Y7 2.325026 1_555
O118 Si14 1.633695 1_555
O118 Y6 2.146794 1_555
O119 Si13 1.626673 1_655
O119 Y7 2.189957 1_555
O120 Si9 1.669759 1_555
O121 Si10 1.668812 1_555
O121 Y8 2.175807 1_555
O122 S10 1.494906 1_455
O123 S9 1.486108 1_555
O123 Y8 2.289470 1_555
O124 S11 1.482565 1_565
O125 S12 1.477667 1_565
O125 Y8 2.347270 1_555
O126 Si7 1.686782 1_565
O127 Si8 1.645118 1_565
O127 Y9 2.137264 1_555
O128 S7 1.492676 1_555
O129 S8 1.461366 1_555
O129 Y9 2.398626 1_555
O130 S6 1.498097 1_455
O131 S5 1.458134 1_555
O131 Y9 2.309973 1_555
O132 S0 1.486522 1_555
O132 Y10 2.340103 1_555
O133 S1 1.487274 1_565
O133 Y11 2.390686 1_555
O134 Si0 1.648454 1_555
O134 Y10 2.249207 1_555
O135 Si1 1.648707 1_555
O135 Y11 2.277014 1_555
O136 Si2 1.642153 1_455
O136 Y10 2.161946 1_555
O137 Si3 1.650393 1_555
O137 Y11 2.185419 1_555
O138 S2 1.480590 1_555
O139 S3 1.490638 1_555
O140 Si4 1.660824 1_555
O141 S4 1.499461 1_555
O142 Si5 1.640322 1_555
O143 Si6 1.674570 1_555
