# generated using pymatgen
data_NaY3TaP3(SO8)3
_symmetry_space_group_name_H-M   'P 1'
_cell_length_a   9.07565660
_cell_length_b   9.06697656
_cell_length_c   23.80278702
_cell_angle_alpha   90.15147359
_cell_angle_beta   90.07758989
_cell_angle_gamma   120.12103664
_symmetry_Int_Tables_number   1
_chemical_formula_structural   NaY3TaP3(SO8)3
_chemical_formula_sum   'Na3 Y9 Ta3 P9 S9 O72'
_cell_volume   1694.19894980
_cell_formula_units_Z   3
loop_
 _symmetry_equiv_pos_site_id
 _symmetry_equiv_pos_as_xyz
  1  'x, y, z'
loop_
 _atom_site_type_symbol
 _atom_site_label
 _atom_site_symmetry_multiplicity
 _atom_site_fract_x
 _atom_site_fract_y
 _atom_site_fract_z
 _atom_site_occupancy
  Na  Na0  1  0.00267462  0.02397837  0.99909310  1
  Na  Na1  1  0.68880190  0.34572862  0.83452009  1
  Na  Na2  1  0.66247700  0.34424140  0.33560687  1
  Y  Y0  1  0.99812294  0.99689116  0.35797139  1
  Y  Y1  1  0.99895099  0.00191908  0.85386761  1
  Y  Y2  1  0.99445796  0.00169488  0.14829544  1
  Y  Y3  1  0.67073047  0.33684052  0.67833479  1
  Y  Y4  1  0.66842275  0.32873318  0.97875687  1
  Y  Y5  1  0.66269177  0.33360787  0.48858661  1
  Y  Y6  1  0.33419991  0.66037473  0.02625833  1
  Y  Y7  1  0.34177973  0.66258176  0.30958678  1
  Y  Y8  1  0.31841217  0.66122033  0.80729426  1
  Ta  Ta0  1  0.00124541  0.99316951  0.64475989  1
  Ta  Ta1  1  0.65952204  0.33235492  0.18225850  1
  Ta  Ta2  1  0.33091599  0.65685387  0.52211153  1
  P  P0  1  0.71411776  0.69623914  0.24936560  1
  P  P1  1  0.99369372  0.71256791  0.74785774  1
  P  P2  1  0.96915693  0.32796730  0.58348401  1
  P  P3  1  0.36277994  0.02524627  0.58300479  1
  P  P4  1  0.66616197  0.63793638  0.58337496  1
  P  P5  1  0.66662625  0.04718013  0.08442590  1
  P  P6  1  0.37661601  0.32852576  0.08316009  1
  P  P7  1  0.04179384  0.37587147  0.91678947  1
  P  P8  1  0.33686921  0.38200355  0.41802843  1
  S  S0  1  0.30551740  0.01413031  0.24877041  1
  S  S1  1  0.98279079  0.29200867  0.24959738  1
  S  S2  1  0.28707321  0.28098525  0.74626489  1
  S  S3  1  0.71694705  0.00296123  0.74653052  1
  S  S4  1  0.95016977  0.61839838  0.08600785  1
  S  S5  1  0.62363684  0.66700058  0.91586754  1
  S  S6  1  0.33212256  0.95673678  0.91655656  1
  S  S7  1  0.61371662  0.95178006  0.41917465  1
  S  S8  1  0.05029861  0.66233602  0.41876310  1
  O  O0  1  0.23468530  0.05147418  0.29932132  1
  O  O1  1  0.82558268  0.77118261  0.30240591  1
  O  O2  1  0.95162400  0.18449686  0.29989773  1
  O  O3  1  0.20991433  0.18351115  0.79770700  1
  O  O4  1  0.97225721  0.79634039  0.80026332  1
  O  O5  1  0.81797039  0.03041680  0.79802606  1
  O  O6  1  0.81304260  0.99217323  0.69648211  1
  O  O7  1  0.17765823  0.18621910  0.69608883  1
  O  O8  1  0.00320210  0.82818361  0.69513781  1
  O  O9  1  0.79723217  0.80474419  0.19815372  1
  O  O10  1  0.01395355  0.21678832  0.19986522  1
  O  O11  1  0.20252415  0.98946796  0.19890968  1
  O  O12  1  0.90106326  0.37807430  0.63366784  1
  O  O13  1  0.47813289  0.09571736  0.63384137  1
  O  O14  1  0.61817959  0.52135802  0.63367256  1
  O  O15  1  0.85376620  0.51056058  0.13679846  1
  O  O16  1  0.65947764  0.15426330  0.13788404  1
  O  O17  1  0.49395039  0.34209131  0.13748961  1
  O  O18  1  0.46211987  0.30781015  0.03154982  1
  O  O19  1  0.84934741  0.54384573  0.03498718  1
  O  O20  1  0.69625438  0.15607165  0.03246251  1
  O  O21  1  0.43235399  0.14336536  0.53270912  1
  O  O22  1  0.71364528  0.56988093  0.53253353  1
  O  O23  1  0.85460718  0.28418935  0.53238255  1
  O  O24  1  0.54250027  0.68358695  0.96727175  1
  O  O25  1  0.14278862  0.46606561  0.97012336  1
  O  O26  1  0.32071855  0.86159964  0.96771762  1
  O  O27  1  0.52099715  0.84597300  0.46943165  1
  O  O28  1  0.32572236  0.48645955  0.47108209  1
  O  O29  1  0.15618985  0.67615012  0.46963721  1
  O  O30  1  0.12899546  0.64328526  0.36761695  1
  O  O31  1  0.51331394  0.87687769  0.36771829  1
  O  O32  1  0.35954198  0.48951316  0.36621120  1
  O  O33  1  0.13196396  0.47606718  0.86311893  1
  O  O34  1  0.34818143  0.87378986  0.86530760  1
  O  O35  1  0.52699198  0.65544566  0.86467330  1
  O  O36  1  0.04019065  0.81961066  0.41593556  1
  O  O37  1  0.77927995  0.95878370  0.41489040  1
  O  O38  1  0.17130545  0.21064568  0.41365514  1
  O  O39  1  0.02132540  0.19541129  0.91523092  1
  O  O40  1  0.17739625  0.97354917  0.91377993  1
  O  O41  1  0.79782978  0.81975028  0.91409322  1
  O  O42  1  0.00029011  0.17910704  0.60036611  1
  O  O43  1  0.18059206  0.99752255  0.59904814  1
  O  O44  1  0.81772847  0.82023126  0.59901546  1
  O  O45  1  0.97168245  0.78870361  0.09287885  1
  O  O46  1  0.82285805  0.02695224  0.09172957  1
  O  O47  1  0.20398884  0.16983975  0.09171826  1
  O  O48  1  0.69484199  0.15272630  0.74010280  1
  O  O49  1  0.45581374  0.29717311  0.73971802  1
  O  O50  1  0.83667284  0.53535842  0.74010259  1
  O  O51  1  0.69209546  0.51205428  0.23706948  1
  O  O52  1  0.82666410  0.30803441  0.24036589  1
  O  O53  1  0.48226098  0.17055884  0.23973239  1
  O  O54  1  0.64079596  0.51250835  0.91832131  1
  O  O55  1  0.86229950  0.35750404  0.91693689  1
  O  O56  1  0.48399634  0.13138981  0.91781443  1
  O  O57  1  0.63784553  0.12472747  0.42549067  1
  O  O58  1  0.49472714  0.36337755  0.42585091  1
  O  O59  1  0.87909316  0.51033970  0.42500062  1
  O  O60  1  0.37146437  0.49271263  0.08359968  1
  O  O61  1  0.11303778  0.62337252  0.08490346  1
  O  O62  1  0.50022333  0.87981795  0.08277592  1
  O  O63  1  0.33222951  0.84465460  0.56556775  1
  O  O64  1  0.51420044  0.66801406  0.56733090  1
  O  O65  1  0.15197385  0.48339919  0.56731779  1
  O  O66  1  0.33098650  0.86878367  0.25712297  1
  O  O67  1  0.53446624  0.66587297  0.25730750  1
  O  O68  1  0.12732535  0.46519251  0.25758628  1
  O  O69  1  0.29889295  0.44809109  0.74863632  1
  O  O70  1  0.15997651  0.70937033  0.74901779  1
  O  O71  1  0.55303854  0.84441951  0.75017892  1
loop_
_geom_bond_atom_site_label_1
_geom_bond_atom_site_label_2
_geom_bond_distance
_geom_bond_site_symmetry_2
Na0 O39 2.486488 1_555
Na0 O41 2.737426 1_445
Na0 O47 2.737989 1_556
Na0 O40 2.752958 1_545
Na0 O46 2.753116 1_456
Na0 O45 3.006309 1_446
Na1 O55 2.482143 1_555
Na1 O54 2.665150 1_555
Na1 O50 2.742406 1_555
Na1 O56 2.750901 1_555
Na1 O48 2.862153 1_555
Na1 O49 2.967246 1_555
Na2 O58 2.689627 1_555
Na2 O51 2.738370 1_555
Na2 O59 2.767809 1_555
Na2 O53 2.783653 1_555
Na2 O52 2.821997 1_555
Na2 O57 2.857626 1_555
O0 S0 1.481256 1_555
O0 Y0 2.397629 1_445
O1 P0 1.543086 1_555
O1 Y0 2.270079 1_555
O2 S1 1.481251 1_555
O2 Y0 2.390327 1_545
O3 S2 1.468902 1_555
O3 Y1 2.240166 1_455
O4 P1 1.521431 1_555
O4 Y1 2.166672 1_565
O5 S3 1.473530 1_555
O5 Y1 2.225584 1_555
O6 S3 1.509030 1_565
O6 Ta0 2.103217 1_655
O7 S2 1.511886 1_555
O7 Ta0 2.071383 1_545
O8 P1 1.611686 1_455
O8 Ta0 1.926685 1_555
O9 P0 1.512223 1_555
O9 Y2 2.147116 1_565
O10 S1 1.461736 1_455
O10 Y2 2.232031 1_455
O11 S0 1.455365 1_565
O11 Y2 2.287839 1_465
O12 P2 1.515293 1_555
O12 Y3 2.205392 1_555
O13 P3 1.513145 1_555
O13 Y3 2.259198 1_555
O14 P4 1.512077 1_555
O14 Y3 2.228332 1_555
O15 S4 1.527616 1_555
O15 Ta1 2.011214 1_555
O16 P5 1.619551 1_555
O16 Ta1 1.927015 1_555
O17 P6 1.638729 1_555
O17 Ta1 1.879008 1_555
O18 P6 1.514677 1_555
O18 Y4 2.184457 1_554
O19 S4 1.463188 1_555
O19 Y4 2.248928 1_554
O20 P5 1.522451 1_555
O20 Y4 2.134338 1_554
O21 P3 1.519554 1_555
O21 Y5 2.201104 1_555
O22 P4 1.515034 1_555
O22 Y5 2.211337 1_555
O23 P2 1.515828 1_555
O23 Y5 2.258778 1_555
O24 S5 1.474644 1_555
O24 Y6 2.280111 1_556
O25 P7 1.536092 1_555
O25 Y6 2.194673 1_556
O26 S6 1.467675 1_555
O26 Y6 2.349991 1_556
O27 S7 1.502680 1_555
O27 Ta2 2.130016 1_555
O28 P8 1.610014 1_555
O28 Ta2 1.944561 1_555
O29 S8 1.510263 1_555
O29 Ta2 2.092741 1_555
O30 S8 1.465310 1_555
O30 Y7 2.310260 1_555
O31 S7 1.470772 1_555
O31 Y7 2.248894 1_555
O32 P8 1.523004 1_555
O32 Y7 2.137639 1_555
O33 P7 1.545914 1_555
O33 Y8 2.148038 1_555
O34 S6 1.476680 1_555
O34 Y8 2.270867 1_555
O35 S5 1.472892 1_555
O35 Y8 2.354654 1_555
O36 S8 1.475880 1_555
O36 Y0 2.293322 1_455
O37 S7 1.475435 1_555
O37 Y0 2.284890 1_555
O38 P8 1.529123 1_555
O38 Y0 2.215136 1_445
O39 P7 1.551684 1_555
O39 Y1 2.209211 1_455
O40 S6 1.488001 1_555
O40 Y1 2.266378 1_465
O41 S5 1.490702 1_555
O41 Y1 2.260230 1_565
O42 P2 1.564723 1_455
O42 Ta0 1.995739 1_545
O43 P3 1.589987 1_565
O43 Ta0 1.943029 1_555
O44 P4 1.573582 1_555
O44 Ta0 1.945047 1_655
O45 S4 1.464674 1_555
O45 Y2 2.257721 1_565
O46 P5 1.528013 1_555
O46 Y2 2.155145 1_555
O47 P6 1.518620 1_555
O47 Y2 2.205020 1_455
O48 S3 1.477168 1_555
O48 Y3 2.318411 1_555
O49 S2 1.471828 1_555
O49 Y3 2.318414 1_555
O50 P1 1.531720 1_555
O50 Y3 2.220115 1_555
O51 P0 1.605231 1_555
O51 Ta1 1.987087 1_555
O52 S1 1.510999 1_555
O52 Ta1 2.143445 1_555
O53 S0 1.533005 1_555
O53 Ta1 2.063885 1_555
O54 S5 1.486334 1_555
O54 Y4 2.310794 1_555
O55 P7 1.552165 1_655
O55 Y4 2.208559 1_555
O56 S6 1.489092 1_545
O56 Y4 2.254165 1_555
O57 S7 1.477681 1_545
O57 Y5 2.334256 1_555
O58 P8 1.535577 1_555
O58 Y5 2.243982 1_555
O59 S8 1.479237 1_655
O59 Y5 2.361775 1_555
O60 P6 1.512691 1_555
O60 Y6 2.194080 1_555
O61 S4 1.456300 1_455
O61 Y6 2.328982 1_555
O62 P5 1.511438 1_565
O62 Y6 2.238386 1_555
O63 P3 1.571853 1_565
O63 Ta2 1.984903 1_555
O64 P4 1.580786 1_555
O64 Ta2 1.939430 1_555
O65 P2 1.595257 1_455
O65 Ta2 1.928453 1_555
O66 S0 1.461743 1_565
O66 Y7 2.293554 1_555
O67 P0 1.523313 1_555
O67 Y7 2.135712 1_555
O68 S1 1.467302 1_455
O68 Y7 2.238069 1_555
O69 S2 1.465183 1_555
O69 Y8 2.314437 1_555
O70 P1 1.524096 1_455
O70 Y8 2.193215 1_555
O71 S3 1.463429 1_565
O71 Y8 2.368855 1_555
