# generated using pymatgen
data_NaFe(SiO3)2
_symmetry_space_group_name_H-M   'P 1'
_cell_length_a   5.36311508
_cell_length_b   9.64697654
_cell_length_c   8.90723400
_cell_angle_alpha   89.99992698
_cell_angle_beta   89.99999981
_cell_angle_gamma   104.12173751
_symmetry_Int_Tables_number   1
_chemical_formula_structural   NaFe(SiO3)2
_chemical_formula_sum   'Na4 Fe4 Si8 O24'
_cell_volume   446.91425633
_cell_formula_units_Z   4
loop_
 _symmetry_equiv_pos_site_id
 _symmetry_equiv_pos_as_xyz
  1  'x, y, z'
loop_
 _atom_site_type_symbol
 _atom_site_label
 _atom_site_symmetry_multiplicity
 _atom_site_fract_x
 _atom_site_fract_y
 _atom_site_fract_z
 _atom_site_occupancy
  Na  Na0  1  0.75000000  0.50000000  0.20070700  1
  Na  Na1  1  0.25000000  0.00000000  0.70070800  1
  Na  Na2  1  0.25000000  0.50000000  0.79929300  1
  Na  Na3  1  0.75000000  0.00000000  0.29929400  1
  Fe  Fe0  1  0.25000300  0.00000100  0.10205800  1
  Fe  Fe1  1  0.24999600  0.50000100  0.39793000  1
  Fe  Fe2  1  0.74999800  0.50000000  0.60206300  1
  Fe  Fe3  1  0.75000100  0.00000000  0.89792600  1
  Si  Si0  1  0.94395500  0.70995400  0.91096000  1
  Si  Si1  1  0.44395500  0.20995400  0.41096200  1
  Si  Si2  1  0.55604500  0.29004600  0.91096000  1
  Si  Si3  1  0.05604500  0.79004600  0.41096200  1
  Si  Si4  1  0.05604500  0.29004600  0.08903900  1
  Si  Si5  1  0.55604500  0.79004500  0.58904200  1
  Si  Si6  1  0.44395400  0.70995400  0.08903900  1
  Si  Si7  1  0.94395500  0.20995400  0.58904100  1
  O  O0  1  0.02232300  0.88584600  0.92198700  1
  O  O1  1  0.52232000  0.38584600  0.42198400  1
  O  O2  1  0.47767800  0.11415500  0.92198700  1
  O  O3  1  0.97767900  0.61415500  0.42198400  1
  O  O4  1  0.97768000  0.11415400  0.07801800  1
  O  O5  1  0.47767800  0.61415400  0.57801500  1
  O  O6  1  0.52232100  0.88584600  0.07801800  1
  O  O7  1  0.02232200  0.38584600  0.57801400  1
  O  O8  1  0.94156500  0.64012100  0.74589800  1
  O  O9  1  0.44156500  0.14012200  0.24590000  1
  O  O10  1  0.55843500  0.35987900  0.74589800  1
  O  O11  1  0.05843600  0.85987800  0.24589900  1
  O  O12  1  0.05843400  0.35987700  0.25410100  1
  O  O13  1  0.55843500  0.85988000  0.75410400  1
  O  O14  1  0.44156400  0.64012200  0.25410100  1
  O  O15  1  0.94156500  0.14012100  0.75410400  1
  O  O16  1  0.66056100  0.64920900  0.99215900  1
  O  O17  1  0.16055800  0.14920900  0.49215600  1
  O  O18  1  0.83944000  0.35079100  0.99215900  1
  O  O19  1  0.33944100  0.85079100  0.49215700  1
  O  O20  1  0.33944200  0.35079100  0.00784500  1
  O  O21  1  0.83944000  0.85079100  0.50784300  1
  O  O22  1  0.16055800  0.64920900  0.00784500  1
  O  O23  1  0.66056000  0.14920800  0.50784300  1
loop_
_geom_bond_atom_site_label_1
_geom_bond_atom_site_label_2
_geom_bond_distance
_geom_bond_site_symmetry_2
Na0 O12 2.425043 1_655
Na0 O14 2.425045 1_555
Na0 O1 2.435629 1_555
Na0 O3 2.435632 1_555
Na0 O16 2.467698 1_554
Na0 O18 2.467703 1_554
Na0 O22 2.885246 1_655
Na0 O20 2.885249 1_555
Na1 O13 2.425030 1_545
Na1 O15 2.425037 1_455
Na1 O0 2.435637 1_545
Na1 O2 2.435645 1_555
Na1 O19 2.467725 1_545
Na1 O17 2.467731 1_555
Na1 O23 2.885266 1_555
Na1 O21 2.885271 1_445
Na2 O8 2.425035 1_455
Na2 O10 2.425036 1_555
Na2 O5 2.435632 1_555
Na2 O7 2.435642 1_555
Na2 O20 2.467731 1_556
Na2 O22 2.467733 1_556
Na2 O18 2.885274 1_455
Na2 O16 2.885280 1_555
Na3 O9 2.425040 1_555
Na3 O11 2.425047 1_645
Na3 O4 2.435622 1_555
Na3 O6 2.435622 1_545
Na3 O23 2.467704 1_555
Na3 O21 2.467707 1_545
Na3 O17 2.885249 1_655
Na3 O19 2.885255 1_545
Fe0 O9 1.961277 1_555
Fe0 O11 1.961289 1_545
Fe0 O6 2.043625 1_545
Fe0 O4 2.043634 1_455
Fe0 O2 2.149451 1_554
Fe0 O0 2.149468 1_544
Fe1 O14 1.961210 1_555
Fe1 O12 1.961218 1_555
Fe1 O3 2.043627 1_455
Fe1 O1 2.043665 1_555
Fe1 O7 2.149538 1_555
Fe1 O5 2.149559 1_555
Fe2 O10 1.961236 1_555
Fe2 O8 1.961246 1_555
Fe2 O5 2.043635 1_555
Fe2 O7 2.043654 1_655
Fe2 O1 2.149513 1_555
Fe2 O3 2.149522 1_555
Fe3 O15 1.961162 1_555
Fe3 O13 1.961163 1_545
Fe3 O0 2.043656 1_645
Fe3 O2 2.043668 1_555
Fe3 O4 2.149602 1_556
Fe3 O6 2.149602 1_546
O0 Si0 1.648488 1_455
O1 Si1 1.648485 1_555
O2 Si2 1.648478 1_555
O3 Si3 1.648476 1_655
O4 Si4 1.648485 1_655
O5 Si5 1.648479 1_555
O6 Si6 1.648485 1_555
O7 Si7 1.648488 1_455
O8 Si0 1.615988 1_555
O9 Si1 1.615984 1_555
O10 Si2 1.615986 1_555
O11 Si3 1.615990 1_555
O12 Si4 1.615980 1_555
O13 Si5 1.615996 1_555
O14 Si6 1.615982 1_555
O15 Si7 1.615995 1_555
O16 Si0 1.655873 1_555
O16 Si6 1.664260 1_556
O17 Si1 1.655866 1_555
O17 Si7 1.664267 1_455
O18 Si2 1.655878 1_555
O18 Si4 1.664251 1_656
O19 Si3 1.655867 1_555
O19 Si5 1.664275 1_555
O20 Si4 1.655866 1_555
O20 Si2 1.664267 1_554
O21 Si5 1.655878 1_555
O21 Si3 1.664256 1_655
O22 Si6 1.655863 1_555
O22 Si0 1.664266 1_454
O23 Si7 1.655875 1_555
O23 Si1 1.664261 1_555
