# generated using pymatgen
data_Pd2Cl2O
_symmetry_space_group_name_H-M   'P 1'
_cell_length_a   6.79923486
_cell_length_b   6.79923486
_cell_length_c   6.79923486
_cell_angle_alpha   123.09464851
_cell_angle_beta   123.09464851
_cell_angle_gamma   84.71859480
_symmetry_Int_Tables_number   1
_chemical_formula_structural   Pd2Cl2O
_chemical_formula_sum   'Pd4 Cl4 O2'
_cell_volume   210.88662843
_cell_formula_units_Z   2
loop_
 _symmetry_equiv_pos_site_id
 _symmetry_equiv_pos_as_xyz
  1  'x, y, z'
loop_
 _atom_site_type_symbol
 _atom_site_label
 _atom_site_symmetry_multiplicity
 _atom_site_fract_x
 _atom_site_fract_y
 _atom_site_fract_z
 _atom_site_occupancy
  Pd  Pd0  1  0.37500000  0.12500000  0.25000000  1
  Pd  Pd1  1  0.87500000  0.12500000  0.25000000  1
  Pd  Pd2  1  0.87500000  0.62500000  0.75000000  1
  Pd  Pd3  1  0.87500000  0.12500000  0.75000000  1
  Cl  Cl0  1  0.70524500  0.70524500  0.00000000  1
  Cl  Cl1  1  0.45524500  0.95524500  0.50000000  1
  Cl  Cl2  1  0.29475500  0.29475500  0.00000000  1
  Cl  Cl3  1  0.04475500  0.54475500  0.50000000  1
  O  O0  1  0.00000000  0.00000000  0.00000000  1
  O  O1  1  0.75000000  0.25000000  0.50000000  1
loop_
_geom_bond_atom_site_label_1
_geom_bond_atom_site_label_2
_geom_bond_distance
_geom_bond_site_symmetry_2
Cl0 Pd2 2.352236 1_554
Cl0 Pd1 2.352236 1_565
Cl1 Pd0 2.352236 1_565
Cl1 Pd3 2.352236 1_565
Cl2 Pd0 2.352236 1_555
Cl2 Pd3 2.352236 1_454
Cl3 Pd1 2.352236 1_455
Cl3 Pd2 2.352236 1_455
O0 Pd3 2.049645 1_454
O0 Pd1 2.049645 1_455
O0 Pd0 2.049645 1_555
O0 Pd2 2.049645 1_444
O1 Pd3 2.049645 1_555
O1 Pd1 2.049645 1_555
O1 Pd2 2.049645 1_555
O1 Pd0 2.049645 1_555
