# generated using pymatgen
data_La2Br5
_symmetry_space_group_name_H-M   'P 1'
_cell_length_a   4.29180382
_cell_length_b   7.91869721
_cell_length_c   13.61694414
_cell_angle_alpha   90.96330841
_cell_angle_beta   90.00000000
_cell_angle_gamma   90.00000000
_symmetry_Int_Tables_number   1
_chemical_formula_structural   La2Br5
_chemical_formula_sum   'La4 Br10'
_cell_volume   462.71317989
_cell_formula_units_Z   2
loop_
 _symmetry_equiv_pos_site_id
 _symmetry_equiv_pos_as_xyz
  1  'x, y, z'
loop_
 _atom_site_type_symbol
 _atom_site_label
 _atom_site_symmetry_multiplicity
 _atom_site_fract_x
 _atom_site_fract_y
 _atom_site_fract_z
 _atom_site_occupancy
  La  La0  1  0.25000000  0.93073786  0.16239221  1
  La  La1  1  0.75000000  0.06926214  0.83760779  1
  La  La2  1  0.25000000  0.42588347  0.65930664  1
  La  La3  1  0.75000000  0.57411653  0.34069336  1
  Br  Br0  1  0.25000000  0.33020050  0.27032440  1
  Br  Br1  1  0.75000000  0.66979950  0.72967560  1
  Br  Br2  1  0.25000000  0.85044733  0.93179528  1
  Br  Br3  1  0.75000000  0.14955267  0.06820472  1
  Br  Br4  1  0.75000000  0.30990943  0.51218682  1
  Br  Br5  1  0.25000000  0.69009057  0.48781318  1
  Br  Br6  1  0.75000000  0.95610263  0.32284143  1
  Br  Br7  1  0.25000000  0.04389737  0.67715857  1
  Br  Br8  1  0.75000000  0.65758354  0.12200743  1
  Br  Br9  1  0.25000000  0.34241646  0.87799257  1
loop_
_geom_bond_atom_site_label_1
_geom_bond_atom_site_label_2
_geom_bond_distance
_geom_bond_site_symmetry_2
Br0 La3 3.031751 1_455
Br0 La3 3.031751 1_555
Br0 La0 3.465502 1_545
Br1 La2 3.031751 1_655
Br1 La2 3.031751 1_555
Br1 La1 3.465502 1_565
Br2 La1 3.053996 1_465
Br2 La1 3.053996 1_565
Br2 La0 3.193254 1_556
Br3 La0 3.053996 1_545
Br3 La0 3.053996 1_645
Br3 La1 3.193254 1_554
Br4 La2 3.065897 1_555
Br4 La2 3.065897 1_655
Br4 La3 3.161442 1_555
Br5 La3 3.065897 1_555
Br5 La3 3.065897 1_455
Br5 La2 3.161442 1_555
Br6 La3 3.038655 1_555
Br6 La0 3.066587 1_555
Br6 La0 3.066587 1_655
Br7 La2 3.038655 1_555
Br7 La1 3.066587 1_555
Br7 La1 3.066587 1_455
Br8 La3 3.061132 1_555
Br8 La0 3.089659 1_555
Br8 La0 3.089659 1_655
Br9 La2 3.061132 1_555
Br9 La1 3.089659 1_555
Br9 La1 3.089659 1_455
