# generated using pymatgen
data_Na8HfMg3Si3(SO8)3
_symmetry_space_group_name_H-M   'P 1'
_cell_length_a   9.12509454
_cell_length_b   9.12784462
_cell_length_c   22.21827609
_cell_angle_alpha   89.26872307
_cell_angle_beta   90.36597008
_cell_angle_gamma   119.44579313
_symmetry_Int_Tables_number   1
_chemical_formula_structural   Na8HfMg3Si3(SO8)3
_chemical_formula_sum   'Na24 Hf3 Mg9 Si9 S9 O72'
_cell_volume   1611.42307000
_cell_formula_units_Z   3
loop_
 _symmetry_equiv_pos_site_id
 _symmetry_equiv_pos_as_xyz
  1  'x, y, z'
loop_
 _atom_site_type_symbol
 _atom_site_label
 _atom_site_symmetry_multiplicity
 _atom_site_fract_x
 _atom_site_fract_y
 _atom_site_fract_z
 _atom_site_occupancy
  Na  Na0  1  0.62908322  0.99484288  0.26046540  1
  Na  Na1  1  0.37116768  0.36838022  0.24275419  1
  Na  Na2  1  0.00192504  0.62559767  0.25232782  1
  Na  Na3  1  0.64711647  0.65179371  0.73106181  1
  Na  Na4  1  0.98023162  0.34165902  0.75163643  1
  Na  Na5  1  0.38963205  0.01545341  0.73813049  1
  Na  Na6  1  0.31726730  0.33338846  0.58390258  1
  Na  Na7  1  0.04125721  0.71778654  0.57213159  1
  Na  Na8  1  0.65112286  0.94517014  0.58362867  1
  Na  Na9  1  0.28129575  0.95760572  0.07494282  1
  Na  Na10  1  0.66395909  0.68143028  0.08605179  1
  Na  Na11  1  0.05450963  0.35234864  0.07960773  1
  Na  Na12  1  0.99386230  0.67663274  0.92236203  1
  Na  Na13  1  0.71070115  0.04339632  0.90490267  1
  Na  Na14  1  0.30617212  0.28233598  0.92359465  1
  Na  Na15  1  0.96497284  0.30267310  0.41324352  1
  Na  Na16  1  0.32565240  0.99948361  0.42436766  1
  Na  Na17  1  0.71512294  0.69430205  0.42723430  1
  Na  Na18  1  0.98860025  0.97578564  0.50123213  1
  Na  Na19  1  0.02317523  0.01261977  0.00082906  1
  Na  Na20  1  0.66889338  0.31063414  0.83029970  1
  Na  Na21  1  0.68085063  0.33341853  0.33842290  1
  Na  Na22  1  0.31971663  0.65196551  0.15870232  1
  Na  Na23  1  0.35752235  0.68703468  0.65567948  1
  Hf  Hf0  1  0.66608363  0.33523403  0.98362422  1
  Hf  Hf1  1  0.66133491  0.33140745  0.48376873  1
  Hf  Hf2  1  0.33335270  0.67799342  0.81716506  1
  Mg  Mg0  1  0.99587184  0.99231752  0.35389589  1
  Mg  Mg1  1  0.00148801  0.01157301  0.85232332  1
  Mg  Mg2  1  0.98198873  0.98391019  0.64406347  1
  Mg  Mg3  1  0.00856519  0.00111264  0.14409692  1
  Mg  Mg4  1  0.65881606  0.32049603  0.67867295  1
  Mg  Mg5  1  0.66863016  0.34224050  0.17695325  1
  Mg  Mg6  1  0.31053616  0.65628604  0.01873136  1
  Mg  Mg7  1  0.34702251  0.69171023  0.51636482  1
  Mg  Mg8  1  0.33180257  0.68135935  0.32942816  1
  Si  Si0  1  0.70674977  0.00174785  0.75030986  1
  Si  Si1  1  0.36063701  0.03238715  0.58712997  1
  Si  Si2  1  0.66155656  0.62703947  0.58633949  1
  Si  Si3  1  0.96504753  0.63327555  0.08757941  1
  Si  Si4  1  0.36779365  0.33818503  0.08658802  1
  Si  Si5  1  0.03605200  0.36656380  0.91829650  1
  Si  Si6  1  0.33202876  0.96649039  0.91966095  1
  Si  Si7  1  0.63739545  0.96815106  0.41461308  1
  Si  Si8  1  0.03454960  0.66299076  0.41503020  1
  S  S0  1  0.29614705  0.00057776  0.24924692  1
  S  S1  1  0.70410312  0.70470607  0.24963604  1
  S  S2  1  0.99966997  0.28910425  0.24860570  1
  S  S3  1  0.29547213  0.29668567  0.75146131  1
  S  S4  1  0.00124319  0.70805057  0.75173662  1
  S  S5  1  0.96304286  0.33432701  0.58546216  1
  S  S6  1  0.66811066  0.03995109  0.08669811  1
  S  S7  1  0.62521367  0.66572551  0.91819462  1
  S  S8  1  0.33274580  0.37391482  0.41453614  1
  O  O0  1  0.21592642  0.02443652  0.30335713  1
  O  O1  1  0.80671733  0.79028162  0.30338379  1
  O  O2  1  0.98754806  0.18978078  0.30364383  1
  O  O3  1  0.21454889  0.19414450  0.80599538  1
  O  O4  1  0.98400791  0.78710651  0.80656977  1
  O  O5  1  0.81162258  0.01958856  0.81173651  1
  O  O6  1  0.79096946  0.96796510  0.69198415  1
  O  O7  1  0.19472547  0.22223505  0.69720051  1
  O  O8  1  0.02827327  0.81206886  0.69766080  1
  O  O9  1  0.78331147  0.80706598  0.19472584  1
  O  O10  1  0.01238712  0.20310217  0.19446615  1
  O  O11  1  0.19457426  0.98523148  0.19498663  1
  O  O12  1  0.88448359  0.36072702  0.63941928  1
  O  O13  1  0.48072264  0.11629946  0.64496669  1
  O  O14  1  0.64609082  0.51646537  0.64653840  1
  O  O15  1  0.88135694  0.51229606  0.14593866  1
  O  O16  1  0.64020143  0.11923013  0.13992389  1
  O  O17  1  0.47808471  0.35837136  0.14678825  1
  O  O18  1  0.46485357  0.30685709  0.02755563  1
  O  O19  1  0.84275241  0.53229198  0.02728498  1
  O  O20  1  0.69284351  0.14910553  0.03143791  1
  O  O21  1  0.46072865  0.15354188  0.52682681  1
  O  O22  1  0.68592632  0.52853305  0.52751461  1
  O  O23  1  0.85255850  0.31007745  0.53102755  1
  O  O24  1  0.54901022  0.69151680  0.97147545  1
  O  O25  1  0.15397101  0.45310667  0.97555175  1
  O  O26  1  0.31314316  0.85365570  0.97803498  1
  O  O27  1  0.55217760  0.84477770  0.47189866  1
  O  O28  1  0.30619515  0.44802248  0.46832122  1
  O  O29  1  0.15081855  0.68295178  0.47302604  1
  O  O30  1  0.10379151  0.61779040  0.35367844  1
  O  O31  1  0.52300321  0.89306000  0.35368700  1
  O  O32  1  0.36016394  0.47938791  0.35943866  1
  O  O33  1  0.12862873  0.48817500  0.85729478  1
  O  O34  1  0.36588207  0.87524015  0.85983884  1
  O  O35  1  0.51783833  0.64162575  0.86341210  1
  O  O36  1  0.01999802  0.83567047  0.41024981  1
  O  O37  1  0.83237080  0.00626453  0.40919260  1
  O  O38  1  0.18809984  0.20203453  0.40672333  1
  O  O39  1  0.00668138  0.17647441  0.91332690  1
  O  O40  1  0.16226471  0.98041412  0.91021295  1
  O  O41  1  0.79712137  0.80763897  0.90966081  1
  O  O42  1  0.97615696  0.17980250  0.58945681  1
  O  O43  1  0.17975026  0.02989005  0.58903336  1
  O  O44  1  0.82899600  0.81383319  0.58384692  1
  O  O45  1  0.96730358  0.81436863  0.08742529  1
  O  O46  1  0.82358397  0.02876310  0.09112531  1
  O  O47  1  0.17897603  0.17276425  0.08668209  1
  O  O48  1  0.68464144  0.17129349  0.74663542  1
  O  O49  1  0.46852416  0.32030615  0.74878795  1
  O  O50  1  0.85463500  0.53584896  0.74751910  1
  O  O51  1  0.69139550  0.53421195  0.24769689  1
  O  O52  1  0.84279032  0.30472339  0.24739899  1
  O  O53  1  0.47025830  0.15011147  0.24512523  1
  O  O54  1  0.63467937  0.50585419  0.92088505  1
  O  O55  1  0.84861736  0.35787185  0.92066006  1
  O  O56  1  0.50270584  0.15595862  0.92047485  1
  O  O57  1  0.64745624  0.15576255  0.42212798  1
  O  O58  1  0.48988791  0.35749467  0.41944109  1
  O  O59  1  0.83928685  0.49837558  0.42218686  1
  O  O60  1  0.36449014  0.51465118  0.07868938  1
  O  O61  1  0.15471617  0.66135615  0.08181414  1
  O  O62  1  0.52144289  0.87223261  0.07904363  1
  O  O63  1  0.33576954  0.84409844  0.58009938  1
  O  O64  1  0.48627076  0.63351081  0.57903830  1
  O  O65  1  0.13010822  0.48191235  0.57723231  1
  O  O66  1  0.31005510  0.84381543  0.25287950  1
  O  O67  1  0.53004587  0.68171110  0.25386705  1
  O  O68  1  0.15304884  0.45937338  0.24992553  1
  O  O69  1  0.31193451  0.47042369  0.75714069  1
  O  O70  1  0.15856813  0.68824476  0.75547343  1
  O  O71  1  0.51066846  0.82557165  0.75460492  1
loop_
_geom_bond_atom_site_label_1
_geom_bond_atom_site_label_2
_geom_bond_distance
_geom_bond_site_symmetry_2
Na0 O31 2.276489 1_555
Na0 O53 2.495225 1_565
Na0 O52 2.539846 1_565
Na0 O66 2.541176 1_555
Na0 O67 2.544991 1_555
Na0 O16 2.878347 1_565
Na1 O17 2.371844 1_555
Na1 O67 2.505857 1_555
Na1 O68 2.511879 1_555
Na1 O51 2.548200 1_555
Na1 O53 2.560792 1_555
Na1 O32 2.815740 1_555
Na2 O30 2.444215 1_555
Na2 O68 2.503367 1_555
Na2 O66 2.523317 1_555
Na2 O51 2.531849 1_455
Na2 O52 2.554125 1_455
Na2 O15 2.603449 1_455
Na3 O14 2.258388 1_555
Na3 O71 2.512231 1_555
Na3 O50 2.606004 1_555
Na3 O6 2.651726 1_555
Na3 O49 2.663799 1_555
Na3 O69 2.729655 1_555
Na4 O48 2.362738 1_555
Na4 O50 2.540790 1_555
Na4 O69 2.656912 1_655
Na4 O12 2.668459 1_555
Na4 O33 2.718860 1_655
Na4 O70 2.758102 1_655
Na4 O5 2.876054 1_555
Na4 O7 2.940014 1_655
Na5 O13 2.245875 1_555
Na5 O48 2.354009 1_555
Na5 O71 2.493714 1_545
Na5 O49 2.522405 1_555
Na5 O70 2.702589 1_545
Na5 O34 2.940039 1_545
Na5 O8 3.018946 1_545
Na6 O64 2.394887 1_555
Na6 O43 2.416196 1_555
Na6 O65 2.654185 1_555
Na6 O42 2.716502 1_455
Na6 O7 2.733460 1_555
Na6 O28 2.780618 1_555
Na6 O21 2.864270 1_555
Na6 O14 2.967931 1_555
Na7 O63 2.352812 1_555
Na7 O44 2.503951 1_455
Na7 O29 2.511526 1_555
Na7 O43 2.517031 1_565
Na7 O65 2.648507 1_555
Na7 O8 2.949433 1_555
Na7 O22 2.995955 1_455
Na8 O44 2.446337 1_555
Na8 O64 2.482745 1_555
Na8 O63 2.554758 1_555
Na8 O27 2.652063 1_555
Na8 O42 2.675307 1_565
Na8 O6 2.679582 1_555
Na9 O61 2.364425 1_555
Na9 O26 2.439662 1_554
Na9 O45 2.512663 1_455
Na9 O47 2.572135 1_565
Na9 O62 2.663131 1_555
Na9 O11 2.836179 1_555
Na9 O18 2.960360 1_565
Na10 O60 2.392131 1_555
Na10 O45 2.415138 1_555
Na10 O62 2.639329 1_555
Na10 O9 2.672155 1_555
Na10 O24 2.764796 1_554
Na10 O46 2.766303 1_565
Na10 O17 2.898895 1_555
Na10 O19 2.911371 1_555
Na11 O47 2.413161 1_555
Na11 O60 2.464961 1_555
Na11 O25 2.483245 1_554
Na11 O61 2.502263 1_555
Na11 O46 2.664213 1_455
Na11 O10 2.815144 1_555
Na12 O40 2.433068 1_655
Na12 O55 2.536625 1_555
Na12 O41 2.613095 1_555
Na12 O19 2.692247 1_556
Na12 O4 2.768342 1_555
Na12 O26 2.829429 1_655
Na12 O54 2.854842 1_555
Na12 O33 2.954238 1_655
Na13 O5 2.326538 1_555
Na13 O39 2.361958 1_655
Na13 O55 2.532643 1_555
Na13 O56 2.590841 1_555
Na13 O41 2.631655 1_545
Na13 O34 2.917097 1_545
Na13 O20 3.015163 1_556
Na14 O39 2.419850 1_555
Na14 O40 2.421888 1_545
Na14 O56 2.566978 1_555
Na14 O18 2.670937 1_556
Na14 O54 2.671730 1_555
Na14 O3 2.745559 1_555
Na14 O25 2.808244 1_555
Na15 O37 2.361863 1_555
Na15 O57 2.532282 1_555
Na15 O59 2.563625 1_555
Na15 O38 2.618482 1_655
Na15 O2 2.704303 1_555
Na15 O30 2.823355 1_655
Na15 O23 2.830593 1_555
Na15 O28 2.980591 1_655
Na16 O36 2.452306 1_555
Na16 O57 2.557710 1_565
Na16 O21 2.649664 1_565
Na16 O38 2.721083 1_565
Na16 O29 2.733513 1_555
Na16 O58 2.848640 1_565
Na16 O31 2.906529 1_555
Na16 O0 2.908163 1_565
Na17 O36 2.453268 1_655
Na17 O37 2.528799 1_565
Na17 O59 2.548247 1_555
Na17 O22 2.617231 1_555
Na17 O27 2.672787 1_555
Na17 O58 2.739022 1_555
Na17 O1 2.878560 1_555
Na18 O44 2.350272 1_555
Na18 O43 2.495218 1_665
Na18 O36 2.497560 1_655
Na18 O37 2.574841 1_565
Na18 O42 2.761723 1_565
Na18 O38 2.868793 1_665
Na19 O47 2.406207 1_555
Na19 O40 2.483022 1_544
Na19 O39 2.486496 1_554
Na19 O45 2.500602 1_445
Na19 O46 2.771614 1_455
Na19 O41 2.847371 1_444
Na20 O48 2.310241 1_555
Na20 O56 2.483692 1_555
Na20 O55 2.488163 1_555
Na20 O49 2.596734 1_555
Na20 O50 2.645585 1_555
Na20 O54 2.823136 1_555
Na21 O57 2.371855 1_555
Na21 O59 2.391202 1_555
Na21 O58 2.598418 1_555
Na21 O52 2.602801 1_555
Na21 O51 2.677047 1_555
Na21 O53 2.768703 1_555
Na22 O61 2.298472 1_555
Na22 O60 2.338360 1_555
Na22 O68 2.613649 1_555
Na22 O62 2.622070 1_555
Na22 O67 2.771004 1_555
Na22 O66 2.774967 1_555
Na23 O63 2.264676 1_555
Na23 O64 2.264887 1_555
Na23 O71 2.584033 1_555
Na23 O65 2.658352 1_555
Na23 O69 2.872926 1_555
Na23 O70 2.878200 1_555
Hf0 O18 1.985050 1_556
Hf0 O19 1.987176 1_556
Hf0 O20 2.105501 1_556
Hf0 O55 2.111425 1_555
Hf0 O56 2.121855 1_555
Hf0 O54 2.197497 1_555
Hf1 O22 1.969143 1_555
Hf1 O21 1.990652 1_555
Hf1 O57 2.077583 1_555
Hf1 O59 2.091312 1_555
Hf1 O23 2.119108 1_555
Hf1 O58 2.208176 1_555
Hf2 O34 1.934729 1_555
Hf2 O33 2.021468 1_555
Hf2 O71 2.050025 1_555
Hf2 O35 2.125713 1_555
Hf2 O70 2.132333 1_555
Hf2 O69 2.259122 1_555
Mg0 O36 1.980136 1_655
Mg0 O37 1.991423 1_565
Mg0 O1 2.130294 1_555
Mg0 O2 2.140846 1_565
Mg0 O0 2.195574 1_665
Mg0 O38 2.201949 1_665
Mg1 O5 1.980713 1_455
Mg1 O39 2.021404 1_555
Mg1 O40 2.065048 1_545
Mg1 O3 2.100674 1_555
Mg1 O4 2.233067 1_445
Mg1 O41 2.263289 1_445
Mg2 O6 1.990832 1_555
Mg2 O44 2.011798 1_555
Mg2 O43 2.048917 1_665
Mg2 O8 2.157323 1_655
Mg2 O42 2.170118 1_565
Mg2 O7 2.403927 1_665
Mg3 O45 2.012582 1_445
Mg3 O47 2.019681 1_555
Mg3 O11 2.096108 1_545
Mg3 O10 2.154513 1_555
Mg3 O46 2.164264 1_455
Mg3 O9 2.242029 1_445
Mg4 O13 1.928169 1_555
Mg4 O14 1.973203 1_555
Mg4 O12 2.099340 1_555
Mg4 O48 2.109251 1_555
Mg4 O49 2.339567 1_555
Mg4 O50 2.446445 1_555
Mg5 O15 1.918239 1_555
Mg5 O17 1.930909 1_555
Mg5 O16 2.099688 1_555
Mg5 O51 2.300534 1_555
Mg5 O53 2.343602 1_555
Mg5 O52 2.362699 1_555
Mg6 O25 1.955462 1_554
Mg6 O26 1.995075 1_554
Mg6 O61 2.019933 1_555
Mg6 O60 2.064439 1_555
Mg6 O24 2.296462 1_554
Mg6 O62 2.385287 1_555
Mg7 O27 1.962018 1_555
Mg7 O29 1.994559 1_555
Mg7 O63 2.035482 1_555
Mg7 O64 2.111400 1_555
Mg7 O28 2.338099 1_555
Mg7 O65 2.378088 1_555
Mg8 O31 1.941234 1_555
Mg8 O30 1.943021 1_555
Mg8 O32 2.084663 1_555
Mg8 O66 2.313350 1_555
Mg8 O67 2.474651 1_555
Mg8 O68 2.586796 1_555
O0 S0 1.484358 1_555
O1 S1 1.484385 1_555
O2 S2 1.484713 1_555
O3 S3 1.480668 1_555
O4 S4 1.471794 1_655
O5 Si0 1.625038 1_555
O6 Si0 1.618941 1_565
O7 S3 1.467278 1_555
O8 S4 1.466378 1_555
O9 S1 1.483915 1_555
O10 S2 1.480576 1_455
O11 S0 1.481377 1_565
O12 S5 1.482349 1_555
O13 Si1 1.618844 1_555
O14 Si2 1.629560 1_555
O15 Si3 1.621998 1_555
O16 S6 1.481189 1_555
O17 Si4 1.625614 1_555
O18 Si4 1.691129 1_555
O19 Si3 1.700203 1_555
O20 S6 1.517342 1_555
O21 Si1 1.684355 1_555
O22 Si2 1.672256 1_555
O23 S5 1.516583 1_555
O24 S7 1.455656 1_555
O25 Si5 1.603919 1_555
O26 Si6 1.602139 1_555
O27 Si7 1.614906 1_555
O28 S8 1.459381 1_555
O29 Si8 1.617936 1_555
O30 Si8 1.645975 1_555
O31 Si7 1.641346 1_555
O32 S8 1.491666 1_555
O33 Si5 1.684360 1_555
O34 Si6 1.685908 1_555
O35 S7 1.506523 1_555
O36 Si8 1.647611 1_555
O37 Si7 1.641365 1_545
O38 S8 1.483827 1_555
O39 Si5 1.625397 1_555
O40 Si6 1.627486 1_555
O41 S7 1.474558 1_555
O42 S5 1.474537 1_555
O43 Si1 1.640333 1_555
O44 Si2 1.637676 1_555
O45 Si3 1.642927 1_555
O46 S6 1.474194 1_555
O47 Si4 1.640320 1_555
O48 Si0 1.657081 1_555
O49 S3 1.486522 1_555
O50 S4 1.484535 1_655
O51 S1 1.503801 1_555
O52 S2 1.506796 1_555
O53 S0 1.504048 1_555
O54 S7 1.504051 1_555
O55 Si5 1.673918 1_655
O56 Si6 1.664061 1_545
O57 Si7 1.679718 1_545
O58 S8 1.516381 1_555
O59 Si8 1.680187 1_655
O60 Si4 1.633003 1_555
O61 Si3 1.625857 1_455
O62 S6 1.467332 1_565
O63 Si1 1.628703 1_565
O64 Si2 1.636318 1_555
O65 S5 1.466409 1_455
O66 S0 1.498523 1_565
O67 S1 1.499729 1_555
O68 S2 1.495721 1_455
O69 S3 1.524487 1_555
O70 S4 1.534212 1_555
O71 Si0 1.722165 1_565
