# generated using pymatgen
data_MgMn4FeO8
_symmetry_space_group_name_H-M   'P 1'
_cell_length_a   6.26669727
_cell_length_b   6.15034589
_cell_length_c   6.04127568
_cell_angle_alpha   84.14518231
_cell_angle_beta   59.04961728
_cell_angle_gamma   56.34399195
_symmetry_Int_Tables_number   1
_chemical_formula_structural   MgMn4FeO8
_chemical_formula_sum   'Mg1 Mn4 Fe1 O8'
_cell_volume   160.66312921
_cell_formula_units_Z   1
loop_
 _symmetry_equiv_pos_site_id
 _symmetry_equiv_pos_as_xyz
  1  'x, y, z'
loop_
 _atom_site_type_symbol
 _atom_site_label
 _atom_site_symmetry_multiplicity
 _atom_site_fract_x
 _atom_site_fract_y
 _atom_site_fract_z
 _atom_site_occupancy
  Mg  Mg0  1  0.89574000  0.54890300  0.53962800  1
  Mn  Mn0  1  0.44549100  0.49920100  0.52362400  1
  Mn  Mn1  1  0.95835000  0.00481300  0.01702800  1
  Mn  Mn2  1  0.44419300  0.01688000  0.04424200  1
  Mn  Mn3  1  0.95041000  0.50417200  0.02234900  1
  Fe  Fe0  1  0.44918200  0.50595900  0.02599300  1
  O  O0  1  0.39475300  0.28098100  0.82012700  1
  O  O1  1  0.93766800  0.28854500  0.82306400  1
  O  O2  1  0.41413500  0.75842800  0.78202700  1
  O  O3  1  0.92644800  0.73575800  0.77982600  1
  O  O4  1  0.96706100  0.28132900  0.27283800  1
  O  O5  1  0.50663600  0.23814200  0.25123500  1
  O  O6  1  0.96591800  0.72561600  0.21860200  1
  O  O7  1  0.50443300  0.72585700  0.23358400  1
loop_
_geom_bond_atom_site_label_1
_geom_bond_atom_site_label_2
_geom_bond_distance
_geom_bond_site_symmetry_2
Mg0 O3 2.082313 1_555
Mg0 O6 2.087678 1_555
Mg0 O2 2.107592 1_555
Mg0 O4 2.119115 1_555
Mg0 O1 2.236565 1_555
Mg0 O5 2.655733 1_655
Mn0 O0 2.123136 1_555
Mn0 O7 2.134626 1_555
Mn0 O5 2.154355 1_555
Mn0 O2 2.205109 1_555
Mn0 O3 2.264505 1_455
Mn0 O4 2.289150 1_555
Mn1 O5 1.966294 1_555
Mn1 O1 1.980766 1_554
Mn1 O2 1.985082 1_644
Mn1 O6 1.994079 1_545
Mn1 O3 2.444773 1_544
Mn1 O4 2.451419 1_555
Mn2 O7 1.982970 1_545
Mn2 O0 1.998131 1_554
Mn2 O4 2.076877 1_455
Mn2 O3 2.116743 1_544
Mn2 O5 2.238193 1_555
Mn2 O2 2.494825 1_544
Mn3 O0 1.933098 1_654
Mn3 O1 1.938193 1_554
Mn3 O4 1.939095 1_555
Mn3 O7 1.939386 1_555
Mn3 O3 1.939437 1_554
Mn3 O6 1.965891 1_555
Fe0 O5 2.020827 1_555
Fe0 O2 2.029695 1_554
Fe0 O6 2.124105 1_455
Fe0 O1 2.144542 1_554
Fe0 O7 2.198527 1_555
Fe0 O0 2.210945 1_554
