# generated using pymatgen
data_Fe2P3O10
_symmetry_space_group_name_H-M   'P 1'
_cell_length_a   8.51319100
_cell_length_b   4.74310100
_cell_length_c   8.98009329
_cell_angle_alpha   82.27249728
_cell_angle_beta   90.00000000
_cell_angle_gamma   90.00000000
_symmetry_Int_Tables_number   1
_chemical_formula_structural   Fe2P3O10
_chemical_formula_sum   'Fe4 P6 O20'
_cell_volume   359.31359814
_cell_formula_units_Z   2
loop_
 _symmetry_equiv_pos_site_id
 _symmetry_equiv_pos_as_xyz
  1  'x, y, z'
loop_
 _atom_site_type_symbol
 _atom_site_label
 _atom_site_symmetry_multiplicity
 _atom_site_fract_x
 _atom_site_fract_y
 _atom_site_fract_z
 _atom_site_occupancy
  Fe  Fe0  1  0.42766600  0.03916000  0.67370500  1
  Fe  Fe1  1  0.92766600  0.96084000  0.32629500  1
  Fe  Fe2  1  0.57233400  0.96084000  0.32629500  1
  Fe  Fe3  1  0.07233400  0.03916000  0.67370500  1
  P  P0  1  0.75000000  0.66880800  0.81492500  1
  P  P1  1  0.25000000  0.61183000  0.46201300  1
  P  P2  1  0.75000000  0.53863200  0.14610700  1
  P  P3  1  0.25000000  0.46136800  0.85389300  1
  P  P4  1  0.75000000  0.38817000  0.53798700  1
  P  P5  1  0.25000000  0.33119200  0.18507500  1
  O  O0  1  0.25000000  0.58701100  0.28648800  1
  O  O1  1  0.75000000  0.47560600  0.97407600  1
  O  O2  1  0.25000000  0.30960100  0.54859800  1
  O  O3  1  0.59950000  0.83153200  0.79198200  1
  O  O4  1  0.40039200  0.30284500  0.82660000  1
  O  O5  1  0.25000000  0.52439400  0.02592400  1
  O  O6  1  0.90050000  0.83153200  0.79198200  1
  O  O7  1  0.90062900  0.21936100  0.51131000  1
  O  O8  1  0.75000000  0.41298900  0.71351200  1
  O  O9  1  0.09950000  0.16846800  0.20801800  1
  O  O10  1  0.90039200  0.69715500  0.17340000  1
  O  O11  1  0.75000000  0.23133600  0.23380100  1
  O  O12  1  0.09937100  0.78063900  0.48869000  1
  O  O13  1  0.40050000  0.16846800  0.20801800  1
  O  O14  1  0.59960800  0.69715500  0.17340000  1
  O  O15  1  0.09960800  0.30284500  0.82660000  1
  O  O16  1  0.75000000  0.69039900  0.45140200  1
  O  O17  1  0.59937100  0.21936100  0.51131000  1
  O  O18  1  0.40062900  0.78063900  0.48869000  1
  O  O19  1  0.25000000  0.76866400  0.76619900  1
loop_
_geom_bond_atom_site_label_1
_geom_bond_atom_site_label_2
_geom_bond_distance
_geom_bond_site_symmetry_2
Fe0 O3 1.989127 1_545
Fe0 O4 1.991251 1_555
Fe0 O19 2.082560 1_545
Fe0 O17 2.158419 1_555
Fe0 O2 2.192648 1_555
Fe0 O18 2.205632 1_545
Fe1 O9 1.989127 1_665
Fe1 O10 1.991251 1_555
Fe1 O11 2.082560 1_565
Fe1 O12 2.158419 1_655
Fe1 O16 2.192648 1_555
Fe1 O7 2.205632 1_565
Fe2 O13 1.989127 1_565
Fe2 O14 1.991251 1_555
Fe2 O11 2.082560 1_565
Fe2 O18 2.158419 1_555
Fe2 O16 2.192648 1_555
Fe2 O17 2.205632 1_565
Fe3 O6 1.989127 1_445
Fe3 O15 1.991251 1_555
Fe3 O19 2.082560 1_545
Fe3 O7 2.158419 1_455
Fe3 O2 2.192648 1_555
Fe3 O12 2.205632 1_545
O0 P1 1.596327 1_555
O0 P5 1.612085 1_555
O1 P0 1.590638 1_555
O1 P2 1.612493 1_556
O2 P1 1.536150 1_555
O3 P0 1.495643 1_555
O4 P3 1.521242 1_555
O5 P5 1.590638 1_555
O5 P3 1.612493 1_554
O6 P0 1.495643 1_555
O7 P4 1.547397 1_555
O8 P4 1.596327 1_555
O8 P0 1.612085 1_555
O9 P5 1.495643 1_555
O10 P2 1.521242 1_555
O11 P2 1.560735 1_555
O12 P1 1.547397 1_555
O13 P5 1.495643 1_555
O14 P2 1.521242 1_555
O15 P3 1.521242 1_555
O16 P4 1.536150 1_555
O17 P4 1.547397 1_555
O18 P1 1.547397 1_555
O19 P3 1.560735 1_555
