# generated using pymatgen
data_MgMnV4O12
_symmetry_space_group_name_H-M   'P 1'
_cell_length_a   5.37314428
_cell_length_b   10.87448789
_cell_length_c   9.69040262
_cell_angle_alpha   27.66663561
_cell_angle_beta   51.09210868
_cell_angle_gamma   55.93833662
_symmetry_Int_Tables_number   1
_chemical_formula_structural   MgMnV4O12
_chemical_formula_sum   'Mg1 Mn1 V4 O12'
_cell_volume   204.57152999
_cell_formula_units_Z   1
loop_
 _symmetry_equiv_pos_site_id
 _symmetry_equiv_pos_as_xyz
  1  'x, y, z'
loop_
 _atom_site_type_symbol
 _atom_site_label
 _atom_site_symmetry_multiplicity
 _atom_site_fract_x
 _atom_site_fract_y
 _atom_site_fract_z
 _atom_site_occupancy
  Mg  Mg0  1  0.28308800  0.50034200  0.28289300  1
  Mn  Mn0  1  0.28376500  0.01068700  0.28627600  1
  V  V0  1  0.00430600  0.00438600  0.99586700  1
  V  V1  1  0.96868500  0.49757200  0.02018700  1
  V  V2  1  0.48914900  0.99429800  0.51523200  1
  V  V3  1  0.50157600  0.51033300  0.49679900  1
  O  O0  1  0.32317200  0.27943900  0.14630800  1
  O  O1  1  0.24365100  0.11823300  0.60977200  1
  O  O2  1  0.14006700  0.30381300  0.71417100  1
  O  O3  1  0.87680200  0.18030300  0.23082100  1
  O  O4  1  0.31826700  0.79161400  0.13893500  1
  O  O5  1  0.72424100  0.40214100  0.33232800  1
  O  O6  1  0.24707900  0.64854600  0.57208900  1
  O  O7  1  0.60211400  0.20331700  0.84083300  1
  O  O8  1  0.14971900  0.78070000  0.74468500  1
  O  O9  1  0.85184600  0.68852700  0.22907500  1
  O  O10  1  0.71613800  0.90815100  0.31540300  1
  O  O11  1  0.62313700  0.67164500  0.87234800  1
loop_
_geom_bond_atom_site_label_1
_geom_bond_atom_site_label_2
_geom_bond_distance
_geom_bond_site_symmetry_2
Mg0 O9 2.035868 1_455
Mg0 O1 2.042871 1_555
Mg0 O11 2.047025 1_554
Mg0 O4 2.127688 1_555
Mg0 O2 2.146765 1_555
Mg0 O5 2.161782 1_555
Mn0 O3 1.916979 1_455
Mn0 O0 1.933048 1_555
Mn0 O6 2.020412 1_545
Mn0 O10 2.021068 1_545
Mn0 O7 2.160739 1_554
Mn0 O8 2.196873 1_545
O0 V1 1.864464 1_455
O0 V2 2.112450 1_545
O1 V2 1.753088 1_545
O1 V0 2.172436 1_555
O2 V0 1.732355 1_555
O2 V3 2.149693 1_555
O3 V2 1.912980 1_545
O3 V1 2.116978 1_555
O4 V0 1.733479 1_564
O4 V3 2.116319 1_555
O5 V1 1.710993 1_555
O5 V3 2.169166 1_555
O6 V3 1.745889 1_555
O6 V1 2.398385 1_456
O7 V3 1.754716 1_555
O7 V0 2.166009 1_655
O8 V1 1.756679 1_456
O8 V2 2.041706 1_555
O9 V3 1.753477 1_555
O9 V0 2.157071 1_664
O10 V0 1.770105 1_664
O10 V2 2.254239 1_555
O11 V2 1.896620 1_555
O11 V1 1.919262 1_556
