# generated using pymatgen
data_NaInSiSn(SO6)2
_symmetry_space_group_name_H-M   'P 1'
_cell_length_a   8.85525401
_cell_length_b   8.86821155
_cell_length_c   23.34462128
_cell_angle_alpha   90.13846458
_cell_angle_beta   90.00000000
_cell_angle_gamma   119.95167828
_symmetry_Int_Tables_number   1
_chemical_formula_structural   NaInSiSn(SO6)2
_chemical_formula_sum   'Na6 In6 Si6 Sn6 S12 O72'
_cell_volume   1588.41545618
_cell_formula_units_Z   6
loop_
 _symmetry_equiv_pos_site_id
 _symmetry_equiv_pos_as_xyz
  1  'x, y, z'
loop_
 _atom_site_type_symbol
 _atom_site_label
 _atom_site_symmetry_multiplicity
 _atom_site_fract_x
 _atom_site_fract_y
 _atom_site_fract_z
 _atom_site_occupancy
  Na  Na0  1  0.02751664  0.01568380  0.50242809  1
  Na  Na1  1  0.98816715  0.01568380  0.00242809  1
  Na  Na2  1  0.68842178  0.32730895  0.83496509  1
  Na  Na3  1  0.63888817  0.32730895  0.33496509  1
  Na  Na4  1  0.34008830  0.69188565  0.16875292  1
  Na  Na5  1  0.35179635  0.69188565  0.66875292  1
  In  In0  1  0.99720018  0.99872551  0.64854381  1
  In  In1  1  0.00152532  0.99872551  0.14854381  1
  In  In2  1  0.68382289  0.32408811  0.98079655  1
  In  In3  1  0.64026622  0.32408811  0.48079655  1
  In  In4  1  0.33384499  0.67188539  0.31463935  1
  In  In5  1  0.33803940  0.67188539  0.81463935  1
  Si  Si0  1  0.29307251  0.99724999  0.24859938  1
  Si  Si1  1  0.70417748  0.99724999  0.74859938  1
  Si  Si2  1  0.36338197  0.02977553  0.58241630  1
  Si  Si3  1  0.66639456  0.02977553  0.08241630  1
  Si  Si4  1  0.04822734  0.38076106  0.91530186  1
  Si  Si5  1  0.33253273  0.38076106  0.41530186  1
  Sn  Sn0  1  0.02030150  0.01650146  0.35241324  1
  Sn  Sn1  1  0.99619996  0.01650146  0.85241324  1
  Sn  Sn2  1  0.65938937  0.30996230  0.68429689  1
  Sn  Sn3  1  0.65057393  0.30996230  0.18429689  1
  Sn  Sn4  1  0.33375157  0.66762764  0.01773201  1
  Sn  Sn5  1  0.33387506  0.66762764  0.51773201  1
  S  S0  1  0.71094308  0.70336438  0.24998344  1
  S  S1  1  0.99436165  0.29354351  0.24951086  1
  S  S2  1  0.29918186  0.29354351  0.74951086  1
  S  S3  1  0.99242130  0.70336438  0.74998344  1
  S  S4  1  0.95944901  0.33905778  0.58159886  1
  S  S5  1  0.66431617  0.62121243  0.58454255  1
  S  S6  1  0.95689726  0.62121243  0.08454255  1
  S  S7  1  0.37960977  0.33905778  0.08159886  1
  S  S8  1  0.63273277  0.66687006  0.91729263  1
  S  S9  1  0.32522869  0.96245704  0.91533184  1
  S  S10  1  0.63722734  0.96245704  0.41533184  1
  S  S11  1  0.03413629  0.66687006  0.41729263  1
  O  O0  1  0.21201536  0.03225049  0.30757548  1
  O  O1  1  0.81557417  0.78686841  0.30303746  1
  O  O2  1  0.95923864  0.18334665  0.30196817  1
  O  O3  1  0.22410801  0.18334665  0.80196817  1
  O  O4  1  0.97129424  0.78686841  0.80303746  1
  O  O5  1  0.82023513  0.03225049  0.80757548  1
  O  O6  1  0.78807946  0.97065838  0.69117223  1
  O  O7  1  0.19729832  0.21279329  0.69789206  1
  O  O8  1  0.02217396  0.80862083  0.69856132  1
  O  O9  1  0.78644687  0.80862083  0.19856132  1
  O  O10  1  0.01549496  0.21279329  0.19789206  1
  O  O11  1  0.18257891  0.97065838  0.19117223  1
  O  O12  1  0.88381141  0.37049806  0.63501185  1
  O  O13  1  0.48291715  0.10964024  0.64086441  1
  O  O14  1  0.64338781  0.51569454  0.63705951  1
  O  O15  1  0.87230773  0.51569454  0.13705951  1
  O  O16  1  0.62672409  0.10964024  0.14086441  1
  O  O17  1  0.48668765  0.37049806  0.13501185  1
  O  O18  1  0.46535603  0.32195924  0.03018901  1
  O  O19  1  0.85219443  0.54568060  0.03254856  1
  O  O20  1  0.69496940  0.13917787  0.02522274  1
  O  O21  1  0.44420947  0.13917787  0.52522274  1
  O  O22  1  0.69348718  0.54568060  0.53254856  1
  O  O23  1  0.85660421  0.32195924  0.53018901  1
  O  O24  1  0.55710095  0.70500159  0.96904167  1
  O  O25  1  0.16364478  0.46511113  0.97503046  1
  O  O26  1  0.29940706  0.85788261  0.96825949  1
  O  O27  1  0.55847455  0.85788261  0.46825949  1
  O  O28  1  0.30146536  0.46511113  0.47503046  1
  O  O29  1  0.14789964  0.70500159  0.46904167  1
  O  O30  1  0.11148211  0.64440317  0.36502113  1
  O  O31  1  0.52811305  0.88932692  0.36449932  1
  O  O32  1  0.35268736  0.49049146  0.35873909  1
  O  O33  1  0.13780310  0.49049146  0.85873909  1
  O  O34  1  0.36121287  0.88932692  0.86449932  1
  O  O35  1  0.53292007  0.64440317  0.86502113  1
  O  O36  1  0.00843153  0.82185742  0.41246043  1
  O  O37  1  0.80700956  0.96536217  0.40845602  1
  O  O38  1  0.15074008  0.18577281  0.41464147  1
  O  O39  1  0.03503273  0.18577281  0.91464147  1
  O  O40  1  0.15835260  0.96536217  0.90845602  1
  O  O41  1  0.81342589  0.82185742  0.91246043  1
  O  O42  1  0.97514918  0.18188105  0.58668632  1
  O  O43  1  0.16963524  0.00628676  0.58895595  1
  O  O44  1  0.81500948  0.79819402  0.58875079  1
  O  O45  1  0.98318454  0.79819402  0.08875079  1
  O  O46  1  0.83665152  0.00628676  0.08895595  1
  O  O47  1  0.20673187  0.18188105  0.08668632  1
  O  O48  1  0.69549384  0.18094512  0.74673020  1
  O  O49  1  0.47895531  0.31784816  0.74487079  1
  O  O50  1  0.82753576  0.53035630  0.74398013  1
  O  O51  1  0.70282154  0.53035630  0.24398013  1
  O  O52  1  0.83889385  0.31784816  0.24487079  1
  O  O53  1  0.48545228  0.18094512  0.24673020  1
  O  O54  1  0.64356672  0.50763173  0.92550800  1
  O  O55  1  0.85500699  0.36014851  0.91683293  1
  O  O56  1  0.47153802  0.14303956  0.92194549  1
  O  O57  1  0.67150254  0.14303956  0.42194549  1
  O  O58  1  0.50514253  0.36014851  0.41683293  1
  O  O59  1  0.86406602  0.50763173  0.42550800  1
  O  O60  1  0.35948910  0.49655413  0.07871518  1
  O  O61  1  0.13075511  0.63124745  0.08030879  1
  O  O62  1  0.48361289  0.83573532  0.07619270  1
  O  O63  1  0.35212142  0.83573532  0.57619270  1
  O  O64  1  0.50049134  0.63124745  0.58030879  1
  O  O65  1  0.13706403  0.49655413  0.57871518  1
  O  O66  1  0.31885494  0.82788412  0.25404662  1
  O  O67  1  0.53266358  0.67625501  0.25477510  1
  O  O68  1  0.15182338  0.46563428  0.25530348  1
  O  O69  1  0.31380990  0.46563428  0.75530348  1
  O  O70  1  0.14359042  0.67625501  0.75477510  1
  O  O71  1  0.50902818  0.82788412  0.75404662  1
loop_
_geom_bond_atom_site_label_1
_geom_bond_atom_site_label_2
_geom_bond_distance
_geom_bond_site_symmetry_2
Na0 O43 2.403442 1_555
Na0 O38 2.457059 1_555
Na0 O42 2.631502 1_455
Na0 O36 2.662091 1_545
Na0 O44 2.777900 1_445
Na0 O37 2.819509 1_445
Na1 O46 2.403442 1_555
Na1 O39 2.457059 1_654
Na1 O47 2.631502 1_655
Na1 O41 2.662091 1_544
Na1 O45 2.777900 1_545
Na1 O40 2.819509 1_644
Na2 O55 2.341327 1_555
Na2 O48 2.449439 1_555
Na2 O50 2.659863 1_555
Na2 O56 2.713698 1_555
Na2 O49 2.777569 1_555
Na2 O54 2.792960 1_555
Na3 O58 2.341327 1_555
Na3 O53 2.449439 1_555
Na3 O51 2.659863 1_555
Na3 O57 2.713698 1_555
Na3 O52 2.777569 1_555
Na3 O59 2.792960 1_555
Na4 O66 2.381061 1_555
Na4 O62 2.511181 1_555
Na4 O61 2.643407 1_555
Na4 O67 2.682786 1_555
Na4 O68 2.750819 1_555
Na4 O60 2.779876 1_555
Na5 O71 2.381061 1_555
Na5 O63 2.511181 1_555
Na5 O64 2.643407 1_555
Na5 O70 2.682786 1_555
Na5 O69 2.750819 1_555
Na5 O65 2.779876 1_555
In0 O6 2.005601 1_555
In0 O43 2.041896 1_665
In0 O8 2.153210 1_655
In0 O7 2.168246 1_665
In0 O44 2.199297 1_555
In0 O42 2.256024 1_565
In1 O11 2.005601 1_555
In1 O46 2.041896 1_465
In1 O9 2.153210 1_455
In1 O10 2.168246 1_565
In1 O45 2.199297 1_455
In1 O47 2.256024 1_565
In2 O20 1.986003 1_556
In2 O55 2.036682 1_555
In2 O19 2.146431 1_556
In2 O56 2.230396 1_555
In2 O54 2.243195 1_555
In2 O18 2.244128 1_556
In3 O21 1.986003 1_555
In3 O58 2.036682 1_555
In3 O22 2.146431 1_555
In3 O57 2.230396 1_555
In3 O59 2.243195 1_555
In3 O23 2.244128 1_555
In4 O32 1.987822 1_555
In4 O66 2.031053 1_555
In4 O31 2.170104 1_555
In4 O30 2.200494 1_555
In4 O68 2.214984 1_555
In4 O67 2.233012 1_555
In5 O33 1.987822 1_555
In5 O71 2.031053 1_555
In5 O34 2.170104 1_555
In5 O35 2.200494 1_555
In5 O69 2.214984 1_555
In5 O70 2.233012 1_555
O0 Si0 1.651504 1_545
O0 Sn0 1.939375 1_555
O1 S0 1.500414 1_555
O1 Sn0 2.250447 1_665
O2 S1 1.501222 1_555
O2 Sn0 2.162353 1_655
O3 S2 1.501222 1_555
O3 Sn1 2.162353 1_455
O4 S3 1.500414 1_555
O4 Sn1 2.250447 1_565
O5 Si1 1.651504 1_545
O5 Sn1 1.939375 1_555
O6 Si1 1.605706 1_555
O7 S2 1.459301 1_555
O8 S3 1.463419 1_455
O9 S0 1.463419 1_555
O10 S1 1.459301 1_455
O11 Si0 1.605706 1_555
O12 S4 1.505301 1_555
O12 Sn2 2.121092 1_555
O13 Si2 1.652430 1_555
O13 Sn2 1.960925 1_555
O14 S5 1.498469 1_555
O14 Sn2 2.198340 1_555
O15 S6 1.498469 1_555
O15 Sn3 2.198340 1_555
O16 Si3 1.652430 1_555
O16 Sn3 1.960925 1_555
O17 S7 1.505301 1_555
O17 Sn3 2.121092 1_555
O18 S7 1.467641 1_555
O19 S6 1.468847 1_555
O20 Si3 1.596591 1_555
O21 Si2 1.596591 1_555
O22 S5 1.468847 1_555
O23 S4 1.467641 1_555
O24 S8 1.498829 1_555
O24 Sn4 2.158900 1_556
O25 Si4 1.667297 1_555
O25 Sn4 1.943763 1_556
O26 S9 1.494247 1_555
O26 Sn4 2.189714 1_556
O27 S10 1.494247 1_555
O27 Sn5 2.189714 1_555
O28 Si5 1.667297 1_555
O28 Sn5 1.943763 1_555
O29 S11 1.498829 1_555
O29 Sn5 2.158900 1_555
O30 S11 1.460455 1_555
O31 S10 1.460459 1_555
O32 Si5 1.598481 1_555
O33 Si4 1.598481 1_555
O34 S9 1.460459 1_555
O35 S8 1.460455 1_555
O36 S11 1.505599 1_555
O36 Sn0 2.187723 1_565
O37 S10 1.499392 1_555
O37 Sn0 2.152267 1_665
O38 Si5 1.673954 1_555
O38 Sn0 1.988966 1_555
O39 Si4 1.673958 1_555
O39 Sn1 1.988966 1_455
O40 S9 1.499383 1_555
O40 Sn1 2.152267 1_465
O41 S8 1.505605 1_555
O41 Sn1 2.187723 1_565
O42 S4 1.473306 1_555
O43 Si2 1.628968 1_555
O44 S5 1.470247 1_555
O45 S6 1.470251 1_555
O46 Si3 1.628960 1_555
O47 S7 1.473312 1_555
O48 Si1 1.669443 1_545
O48 Sn2 1.977089 1_555
O49 S2 1.499984 1_555
O49 Sn2 2.160677 1_555
O50 S3 1.505846 1_555
O50 Sn2 2.249277 1_555
O51 S0 1.505850 1_555
O51 Sn3 2.249277 1_555
O52 S1 1.499975 1_555
O52 Sn3 2.160677 1_555
O53 Si0 1.669448 1_545
O53 Sn3 1.977089 1_555
O54 S8 1.475388 1_555
O55 Si4 1.627878 1_655
O56 S9 1.481233 1_545
O57 S10 1.481227 1_545
O58 Si5 1.627895 1_555
O59 S11 1.475378 1_655
O60 S7 1.495335 1_555
O60 Sn4 2.176237 1_555
O61 S6 1.500384 1_455
O61 Sn4 2.211923 1_555
O62 Si3 1.679181 1_565
O62 Sn4 1.964891 1_555
O63 Si2 1.679173 1_565
O63 Sn5 1.964891 1_555
O64 S5 1.500402 1_555
O64 Sn5 2.211923 1_555
O65 S4 1.495325 1_455
O65 Sn5 2.176237 1_555
O66 Si0 1.633265 1_555
O67 S0 1.477762 1_555
O68 S1 1.471650 1_455
O69 S2 1.471653 1_555
O70 S3 1.477753 1_455
O71 Si1 1.633270 1_555
