# generated using pymatgen
data_MgMn6O7F5
_symmetry_space_group_name_H-M   'P 1'
_cell_length_a   4.96058973
_cell_length_b   7.87665004
_cell_length_c   5.67657454
_cell_angle_alpha   92.97802119
_cell_angle_beta   88.46171347
_cell_angle_gamma   88.47123613
_symmetry_Int_Tables_number   1
_chemical_formula_structural   MgMn6O7F5
_chemical_formula_sum   'Mg1 Mn6 O7 F5'
_cell_volume   221.33289980
_cell_formula_units_Z   1
loop_
 _symmetry_equiv_pos_site_id
 _symmetry_equiv_pos_as_xyz
  1  'x, y, z'
loop_
 _atom_site_type_symbol
 _atom_site_label
 _atom_site_symmetry_multiplicity
 _atom_site_fract_x
 _atom_site_fract_y
 _atom_site_fract_z
 _atom_site_occupancy
  Mg  Mg0  1  0.00990100  0.49151100  0.00439200  1
  Mn  Mn0  1  0.45814800  0.00097700  0.47127500  1
  Mn  Mn1  1  0.52323000  0.67267300  0.14188900  1
  Mn  Mn2  1  0.52964500  0.31750500  0.83419900  1
  Mn  Mn3  1  0.99512000  0.68583400  0.62978300  1
  Mn  Mn4  1  0.94294900  0.28503200  0.40641800  1
  Mn  Mn5  1  0.01613900  0.97560600  0.99719700  1
  O  O0  1  0.85875000  0.45021900  0.66754500  1
  O  O1  1  0.84813300  0.73295500  0.95754500  1
  O  O2  1  0.80670600  0.07407900  0.28486900  1
  O  O3  1  0.67734300  0.43344100  0.16228100  1
  O  O4  1  0.30348700  0.22041400  0.53614300  1
  O  O5  1  0.32194900  0.89444100  0.16576600  1
  O  O6  1  0.18420400  0.89730700  0.68355800  1
  F  F0  1  0.72091800  0.08108000  0.79539600  1
  F  F1  1  0.65350000  0.77147900  0.46902300  1
  F  F2  1  0.33187900  0.56425000  0.83415900  1
  F  F3  1  0.17523500  0.58220600  0.31673300  1
  F  F4  1  0.17054100  0.26066300  0.03468400  1
loop_
_geom_bond_atom_site_label_1
_geom_bond_atom_site_label_2
_geom_bond_distance
_geom_bond_site_symmetry_2
Mg0 O3 1.933246 1_455
Mg0 O1 2.077011 1_454
Mg0 O0 2.085573 1_454
Mn0 O4 1.886694 1_555
Mn0 O6 2.009756 1_545
Mn0 O5 2.027361 1_545
Mn0 O2 2.111645 1_555
Mn1 O1 1.979903 1_554
Mn1 O5 1.985362 1_555
Mn1 O3 2.024638 1_555
Mn2 O4 2.172406 1_555
Mn2 O0 2.182620 1_555
Mn2 O3 2.184360 1_556
Mn3 O6 1.947671 1_655
Mn3 O1 1.993008 1_555
Mn3 O0 2.012042 1_555
Mn4 O2 1.913008 1_555
Mn4 O0 1.949863 1_555
Mn4 O4 2.015212 1_655
Mn4 O3 2.281940 1_555
Mn5 O5 1.927537 1_556
Mn5 O6 2.005993 1_555
Mn5 O2 2.020376 1_466
Mn5 O1 2.109165 1_455
F0 Mn2 2.066058 1_555
F0 Mn5 2.066681 1_645
F0 Mn0 2.352538 1_555
F1 Mn0 2.027412 1_565
F1 Mn3 2.060497 1_555
F1 Mn1 2.100674 1_555
F2 Mg0 1.958727 1_556
F2 Mn2 2.153611 1_555
F2 Mn1 2.158495 1_556
F2 Mn3 2.277693 1_455
F3 Mg0 2.074689 1_555
F3 Mn3 2.085087 1_455
F3 Mn1 2.126020 1_555
F4 Mg0 1.983267 1_555
F4 Mn2 2.157679 1_554
F4 Mn4 2.362784 1_455
F4 Mn5 2.392517 1_544
