# generated using pymatgen
data_Na5Ti2Si3Ge2(PO8)3
_symmetry_space_group_name_H-M   'P 1'
_cell_length_a   8.69735995
_cell_length_b   8.69664467
_cell_length_c   21.94281281
_cell_angle_alpha   89.93916832
_cell_angle_beta   90.20370614
_cell_angle_gamma   120.02264415
_symmetry_Int_Tables_number   1
_chemical_formula_structural   Na5Ti2Si3Ge2(PO8)3
_chemical_formula_sum   'Na15 Ti6 Si9 Ge6 P9 O72'
_cell_volume   1437.01090769
_cell_formula_units_Z   3
loop_
 _symmetry_equiv_pos_site_id
 _symmetry_equiv_pos_as_xyz
  1  'x, y, z'
loop_
 _atom_site_type_symbol
 _atom_site_label
 _atom_site_symmetry_multiplicity
 _atom_site_fract_x
 _atom_site_fract_y
 _atom_site_fract_z
 _atom_site_occupancy
  Na  Na0  1  0.00055393  0.63511756  0.24981936  1
  Na  Na1  1  0.36796080  0.00066384  0.75068484  1
  Na  Na2  1  0.03206252  0.70014777  0.58264921  1
  Na  Na3  1  0.66369042  0.96618984  0.58428235  1
  Na  Na4  1  0.29751159  0.96776983  0.08207257  1
  Na  Na5  1  0.03530088  0.33558045  0.08373714  1
  Na  Na6  1  0.96750447  0.66697248  0.91751344  1
  Na  Na7  1  0.96561385  0.30024717  0.41577719  1
  Na  Na8  1  0.33572026  0.03346613  0.41658605  1
  Na  Na9  1  0.00012577  0.99765799  0.50006502  1
  Na  Na10  1  0.99555666  0.00020290  0.99885384  1
  Na  Na11  1  0.66686491  0.33083852  0.83373173  1
  Na  Na12  1  0.66210862  0.33296597  0.33224243  1
  Na  Na13  1  0.34547669  0.66593483  0.16743501  1
  Na  Na14  1  0.33398251  0.65387331  0.66784345  1
  Ti  Ti0  1  0.98814645  0.99414841  0.35229828  1
  Ti  Ti1  1  0.99762975  0.00108481  0.64834555  1
  Ti  Ti2  1  0.00156853  0.00236894  0.14616114  1
  Ti  Ti3  1  0.66601044  0.33239681  0.68800551  1
  Ti  Ti4  1  0.66642027  0.34050055  0.47937506  1
  Ti  Ti5  1  0.34062470  0.67372966  0.51972874  1
  Si  Si0  1  0.99968844  0.29349816  0.24954002  1
  Si  Si1  1  0.71217449  0.99613963  0.75341335  1
  Si  Si2  1  0.37480581  0.04857773  0.58330920  1
  Si  Si3  1  0.66120491  0.61864390  0.58456130  1
  Si  Si4  1  0.94789266  0.61729388  0.08124685  1
  Si  Si5  1  0.38883151  0.34335587  0.08290610  1
  Si  Si6  1  0.33888694  0.96019648  0.91640538  1
  Si  Si7  1  0.62005493  0.95005411  0.41423691  1
  Si  Si8  1  0.04403293  0.66748821  0.41525717  1
  Ge  Ge0  1  0.00401843  0.00758615  0.85369114  1
  Ge  Ge1  1  0.66723819  0.33318939  0.18509971  1
  Ge  Ge2  1  0.65481482  0.32743613  0.98050508  1
  Ge  Ge3  1  0.33181581  0.66479744  0.01866360  1
  Ge  Ge4  1  0.33116179  0.66305553  0.31387523  1
  Ge  Ge5  1  0.34183996  0.67174974  0.81500105  1
  P  P0  1  0.29830099  0.00569883  0.25003013  1
  P  P1  1  0.70258631  0.70799499  0.24920334  1
  P  P2  1  0.28551294  0.29356817  0.75281245  1
  P  P3  1  -0.00166819  0.70803905  0.75286413  1
  P  P4  1  0.95742694  0.33433734  0.58360914  1
  P  P5  1  0.66435217  0.04585342  0.08203075  1
  P  P6  1  0.61772571  0.66696486  0.91686476  1
  P  P7  1  0.04709482  0.37676650  0.91592246  1
  P  P8  1  0.33665748  0.38444135  0.41514116  1
  O  O0  1  0.21056941  0.03156195  0.30702486  1
  O  O1  1  0.82730755  0.79275997  0.30547151  1
  O  O2  1  0.96857409  0.16990490  0.30936995  1
  O  O3  1  0.20616636  0.16686880  0.80822624  1
  O  O4  1  0.96990342  0.79545904  0.80987744  1
  O  O5  1  0.84228801  0.03345168  0.81113466  1
  O  O6  1  0.79909844  0.96658464  0.69117674  1
  O  O7  1  0.17080687  0.20532077  0.69541344  1
  O  O8  1  0.03802935  0.82856689  0.69540951  1
  O  O9  1  0.79511744  0.82584905  0.19364409  1
  O  O10  1  0.03000325  0.19991222  0.18991253  1
  O  O11  1  0.17489179  0.96629899  0.19332915  1
  O  O12  1  0.87017128  0.36736275  0.63896730  1
  O  O13  1  0.50244019  0.13142180  0.64316753  1
  O  O14  1  0.63766089  0.49559070  0.64311788  1
  O  O15  1  0.87092928  0.49282693  0.14244371  1
  O  O16  1  0.62310503  0.12365354  0.13927373  1
  O  O17  1  0.50694764  0.37043997  0.14372642  1
  O  O18  1  0.46336433  0.28675263  0.02460547  1
  O  O19  1  0.82948347  0.52758312  0.02003395  1
  O  O20  1  0.70793868  0.16837787  0.02615800  1
  O  O21  1  0.46722796  0.16487617  0.52255710  1
  O  O22  1  0.70628593  0.53295496  0.52570655  1
  O  O23  1  0.84031652  0.29617493  0.52562777  1
  O  O24  1  0.53513198  0.70072061  0.97375880  1
  O  O25  1  0.15925744  0.45626014  0.97508664  1
  O  O26  1  0.29230921  0.82895483  0.97638544  1
  O  O27  1  0.53672639  0.83432549  0.47643263  1
  O  O28  1  0.29796275  0.46399301  0.47153548  1
  O  O29  1  0.16715837  0.70189297  0.47574941  1
  O  O30  1  0.12902140  0.62441622  0.35549677  1
  O  O31  1  0.48731056  0.85998710  0.35671595  1
  O  O32  1  0.36880532  0.49774897  0.35794694  1
  O  O33  1  0.13289577  0.50251243  0.86051008  1
  O  O34  1  0.36685370  0.86828371  0.85574771  1
  O  O35  1  0.50141199  0.62970340  0.85963551  1
  O  O36  1  0.03392699  0.84772118  0.40860024  1
  O  O37  1  0.81996354  0.97896339  0.40992380  1
  O  O38  1  0.17052620  0.19586584  0.40959839  1
  O  O39  1  0.02899077  0.19148574  0.91006418  1
  O  O40  1  0.15316657  0.97155180  0.90853768  1
  O  O41  1  0.80863019  0.83173387  0.91073079  1
  O  O42  1  0.97132300  0.16504997  0.59003558  1
  O  O43  1  0.17766393  0.01984525  0.59063614  1
  O  O44  1  0.83874605  0.81562240  0.59039701  1
  O  O45  1  0.97848235  0.81659883  0.08983002  1
  O  O46  1  0.83086606  0.02835009  0.08951696  1
  O  O47  1  0.18792095  0.16597119  0.09074048  1
  O  O48  1  0.68531790  0.16828219  0.74536329  1
  O  O49  1  0.46866514  0.30746768  0.74565418  1
  O  O50  1  0.83557101  0.52636729  0.74559954  1
  O  O51  1  0.69350687  0.52494151  0.24398915  1
  O  O52  1  0.82272802  0.31565363  0.24237532  1
  O  O53  1  0.48133315  0.17194110  0.24249099  1
  O  O54  1  0.64441850  0.50224344  0.92247238  1
  O  O55  1  0.86292200  0.36387888  0.92210749  1
  O  O56  1  0.51654194  0.15557339  0.92377100  1
  O  O57  1  0.64120453  0.14578854  0.42119687  1
  O  O58  1  0.49817340  0.35837586  0.42109108  1
  O  O59  1  0.85217332  0.48901954  0.42190034  1
  O  O60  1  0.35678839  0.51275825  0.07435559  1
  O  O61  1  0.15022683  0.64157740  0.07537449  1
  O  O62  1  0.49544710  0.86051212  0.07507320  1
  O  O63  1  0.35459471  0.85094183  0.57825939  1
  O  O64  1  0.49054225  0.64317679  0.57831334  1
  O  O65  1  0.13880093  0.50021122  0.57740732  1
  O  O66  1  0.30787014  0.83176021  0.25512749  1
  O  O67  1  0.52068568  0.69217767  0.25707183  1
  O  O68  1  0.17676497  0.49233588  0.25632844  1
  O  O69  1  0.30103372  0.47699680  0.75983490  1
  O  O70  1  0.17056548  0.69402720  0.75805934  1
  O  O71  1  0.51022752  0.82002723  0.75772955  1
loop_
_geom_bond_atom_site_label_1
_geom_bond_atom_site_label_2
_geom_bond_distance
_geom_bond_site_symmetry_2
Na0 O51 2.345914 1_455
Na0 O66 2.346564 1_555
Na0 O68 2.411108 1_555
Na0 O52 2.415941 1_455
Na0 O30 2.592174 1_555
Na0 O15 2.635313 1_455
Na0 O1 2.779384 1_455
Na0 O11 2.786865 1_555
Na1 O70 2.346201 1_545
Na1 O49 2.357952 1_555
Na1 O48 2.394314 1_555
Na1 O71 2.442537 1_545
Na1 O34 2.573651 1_545
Na1 O13 2.628703 1_555
Na1 O8 2.761662 1_545
Na1 O3 2.777681 1_555
Na2 O65 2.348375 1_555
Na2 O44 2.357190 1_455
Na2 O43 2.416737 1_565
Na2 O63 2.432796 1_555
Na2 O29 2.623872 1_555
Na2 O8 2.705361 1_555
Na2 O22 2.749466 1_455
Na2 O12 2.795099 1_455
Na3 O42 2.352295 1_565
Na3 O63 2.355960 1_555
Na3 O64 2.437688 1_555
Na3 O44 2.458427 1_555
Na3 O27 2.618186 1_555
Na3 O6 2.620108 1_555
Na3 O13 2.781142 1_565
Na3 O23 2.801179 1_565
Na4 O62 2.338028 1_555
Na4 O47 2.358348 1_565
Na4 O45 2.410169 1_455
Na4 O61 2.464352 1_555
Na4 O26 2.605394 1_554
Na4 O11 2.664990 1_555
Na4 O18 2.714328 1_565
Na4 O16 2.751197 1_565
Na5 O61 2.335160 1_555
Na5 O46 2.358677 1_455
Na5 O47 2.432829 1_555
Na5 O60 2.434511 1_555
Na5 O10 2.600504 1_555
Na5 O25 2.613120 1_554
Na5 O15 2.747081 1_455
Na5 O20 2.766329 1_455
Na6 O40 2.320238 1_655
Na6 O55 2.320847 1_555
Na6 O54 2.435928 1_555
Na6 O41 2.442124 1_555
Na6 O19 2.555068 1_556
Na6 O4 2.607434 1_555
Na6 O26 2.762106 1_655
Na6 O33 2.784728 1_655
Na7 O59 2.304103 1_555
Na7 O38 2.374775 1_655
Na7 O37 2.426079 1_545
Na7 O57 2.447206 1_555
Na7 O2 2.602396 1_555
Na7 O23 2.641756 1_555
Na7 O30 2.777279 1_655
Na7 O28 2.782017 1_655
Na8 O36 2.298721 1_545
Na8 O57 2.329112 1_555
Na8 O58 2.448419 1_555
Na8 O38 2.472041 1_555
Na8 O21 2.588436 1_555
Na8 O0 2.632131 1_555
Na8 O31 2.783388 1_545
Na8 O29 2.815116 1_545
Na9 O43 2.460094 1_565
Na9 O37 2.473405 1_455
Na9 O44 2.488915 1_455
Na9 O36 2.491602 1_555
Na9 O42 2.540472 1_465
Na9 O38 2.562336 1_565
Na10 O41 2.475651 1_545
Na10 O39 2.482094 1_655
Na10 O40 2.496157 1_645
Na10 O45 2.512926 1_546
Na10 O46 2.538012 1_556
Na10 O47 2.551724 1_656
Na11 O56 2.440050 1_555
Na11 O48 2.453424 1_555
Na11 O55 2.497622 1_555
Na11 O50 2.510129 1_555
Na11 O54 2.520294 1_555
Na11 O49 2.524797 1_555
Na12 O53 2.468234 1_555
Na12 O52 2.468482 1_555
Na12 O51 2.480471 1_555
Na12 O59 2.486457 1_555
Na12 O57 2.488456 1_555
Na12 O58 2.493716 1_555
Na13 O67 2.423732 1_555
Na13 O68 2.456502 1_555
Na13 O60 2.468619 1_555
Na13 O66 2.524223 1_555
Na13 O62 2.544604 1_555
Na13 O61 2.574070 1_555
Na14 O64 2.422468 1_555
Na14 O69 2.465611 1_555
Na14 O71 2.468989 1_555
Na14 O65 2.513378 1_555
Na14 O63 2.553693 1_555
Na14 O70 2.564945 1_555
Ge0 O5 1.791101 1_455
Ge0 O3 1.891466 1_555
Ge0 O40 1.903731 1_545
Ge0 O39 1.946737 1_555
Ge0 O4 1.967124 1_445
Ge0 O41 2.050268 1_445
Ge1 O17 1.820706 1_555
Ge1 O15 1.868105 1_555
Ge1 O52 1.904078 1_555
Ge1 O16 1.944300 1_555
Ge1 O53 1.976993 1_555
Ge1 O51 2.030786 1_555
Ge2 O18 1.804272 1_556
Ge2 O56 1.850566 1_555
Ge2 O19 1.854093 1_556
Ge2 O20 1.940041 1_556
Ge2 O54 2.018284 1_555
Ge2 O55 2.111892 1_555
Ge3 O26 1.871518 1_554
Ge3 O60 1.889685 1_555
Ge3 O24 1.911633 1_554
Ge3 O25 1.930176 1_554
Ge3 O61 1.943689 1_555
Ge3 O62 2.005615 1_555
Ge4 O31 1.824297 1_555
Ge4 O30 1.859431 1_555
Ge4 O32 1.890744 1_555
Ge4 O68 1.897075 1_555
Ge4 O67 1.982672 1_555
Ge4 O66 2.036395 1_555
Ge5 O34 1.843318 1_555
Ge5 O71 1.872646 1_555
Ge5 O35 1.875232 1_555
Ge5 O33 1.949137 1_555
Ge5 O69 1.964603 1_555
Ge5 O70 2.023055 1_555
O0 P0 1.541426 1_555
O0 Ti0 2.053812 1_445
O1 P1 1.561010 1_555
O1 Ti0 1.903148 1_555
O2 Si0 1.631113 1_555
O2 Ti0 1.873163 1_545
O3 P2 1.552752 1_555
O4 P3 1.548075 1_655
O5 Si1 1.616579 1_545
O6 Si1 1.644731 1_555
O6 Ti1 1.856695 1_565
O7 P2 1.548403 1_555
O7 Ti1 1.950848 1_455
O8 P3 1.563793 1_555
O8 Ti1 1.990629 1_465
O9 P1 1.537316 1_555
O9 Ti2 1.979363 1_665
O10 Si0 1.631952 1_455
O10 Ti2 1.873733 1_555
O11 P0 1.562312 1_565
O11 Ti2 1.975716 1_565
O12 P4 1.536016 1_555
O12 Ti3 1.968720 1_555
O13 Si2 1.633355 1_555
O13 Ti3 1.884735 1_555
O14 Si3 1.617954 1_555
O14 Ti3 1.841375 1_555
O15 Si4 1.643531 1_555
O16 P5 1.553093 1_555
O17 Si5 1.625016 1_555
O18 Si5 1.620383 1_555
O19 Si4 1.631497 1_555
O20 P5 1.542243 1_555
O21 Si2 1.623997 1_555
O21 Ti4 1.895447 1_555
O22 Si3 1.635514 1_555
O22 Ti4 1.837246 1_555
O23 P4 1.555534 1_555
O23 Ti4 2.009426 1_555
O24 P6 1.542375 1_555
O25 P7 1.559809 1_555
O26 Si6 1.654368 1_555
O27 Si7 1.635522 1_555
O27 Ti5 1.840421 1_555
O28 P8 1.536537 1_555
O28 Ti5 1.976618 1_555
O29 Si8 1.633492 1_555
O29 Ti5 1.904301 1_555
O30 Si8 1.640499 1_555
O31 Si7 1.620598 1_555
O32 P8 1.532441 1_555
O33 P7 1.555054 1_555
O34 Si6 1.633640 1_555
O35 P6 1.539201 1_555
O36 Si8 1.619617 1_555
O36 Ti0 1.951146 1_455
O37 Si7 1.630600 1_555
O37 Ti0 1.890883 1_555
O38 P8 1.555635 1_555
O38 Ti0 2.092930 1_445
O39 P7 1.544047 1_555
O40 Si6 1.675195 1_555
O41 P6 1.564797 1_555
O42 P4 1.542547 1_555
O42 Ti1 2.010790 1_555
O43 Si2 1.612863 1_555
O43 Ti1 1.959584 1_455
O44 Si3 1.639320 1_555
O44 Ti1 1.972150 1_565
O45 Si4 1.627701 1_555
O45 Ti2 1.963701 1_665
O46 P5 1.538306 1_555
O46 Ti2 2.030301 1_655
O47 Si5 1.663375 1_555
O47 Ti2 1.957765 1_555
O48 Si1 1.635857 1_545
O48 Ti3 1.970735 1_555
O49 P2 1.544603 1_555
O49 Ti3 2.058063 1_555
O50 P3 1.512071 1_655
O50 Ti3 2.029636 1_555
O51 P1 1.558255 1_555
O52 Si0 1.650940 1_555
O53 P0 1.532971 1_555
O54 P6 1.566327 1_555
O55 P7 1.555204 1_655
O56 Si6 1.634690 1_545
O57 Si7 1.625354 1_545
O57 Ti4 2.043568 1_555
O58 P8 1.535927 1_555
O58 Ti4 2.003734 1_555
O59 Si8 1.619947 1_655
O59 Ti4 1.947240 1_555
O60 Si5 1.641092 1_555
O61 Si4 1.669631 1_455
O62 P5 1.552051 1_565
O63 Si2 1.641729 1_565
O63 Ti5 1.963445 1_555
O64 Si3 1.607139 1_555
O64 Ti5 1.938377 1_555
O65 P4 1.520479 1_455
O65 Ti5 2.078765 1_555
O66 P0 1.559872 1_565
O67 P1 1.528316 1_555
O68 Si0 1.648702 1_455
O69 P2 1.539988 1_555
O70 P3 1.566270 1_555
O71 Si1 1.657901 1_555
