# generated using pymatgen
data_Sr2MgCu(IO)2
_symmetry_space_group_name_H-M   'P 1'
_cell_length_a   4.04902822
_cell_length_b   4.04902883
_cell_length_c   13.72492793
_cell_angle_alpha   98.48244705
_cell_angle_beta   98.48245300
_cell_angle_gamma   90.00000034
_symmetry_Int_Tables_number   1
_chemical_formula_structural   Sr2MgCu(IO)2
_chemical_formula_sum   'Sr2 Mg1 Cu1 I2 O2'
_cell_volume   220.06477321
_cell_formula_units_Z   1
loop_
 _symmetry_equiv_pos_site_id
 _symmetry_equiv_pos_as_xyz
  1  'x, y, z'
loop_
 _atom_site_type_symbol
 _atom_site_label
 _atom_site_symmetry_multiplicity
 _atom_site_fract_x
 _atom_site_fract_y
 _atom_site_fract_z
 _atom_site_occupancy
  Sr  Sr0  1  0.44432600  0.44432600  0.88865400  1
  Sr  Sr1  1  0.56574700  0.56574700  0.13149300  1
  Mg  Mg0  1  0.26360700  0.26360700  0.52721300  1
  Cu  Cu0  1  0.00520100  0.00520100  0.01040200  1
  I  I0  1  0.13689500  0.13689500  0.27378900  1
  I  I1  1  0.87362300  0.87362300  0.74724600  1
  O  O0  1  0.50530100  0.00530100  0.01060100  1
  O  O1  1  0.00530100  0.50530100  0.01060100  1
loop_
_geom_bond_atom_site_label_1
_geom_bond_atom_site_label_2
_geom_bond_distance
_geom_bond_site_symmetry_2
Cu0 O0 2.024514 1_455
Cu0 O1 2.024514 1_545
Cu0 O0 2.024518 1_555
Cu0 O1 2.024518 1_555
I0 Mg0 3.401705 1_555
I0 Sr1 3.441737 1_445
I0 Sr1 3.441737 1_455
I0 Sr1 3.441737 1_545
I0 Sr1 3.441737 1_555
I1 Sr0 3.435131 1_665
I1 Sr0 3.435136 1_655
I1 Sr0 3.435137 1_565
I1 Sr0 3.435141 1_555
O0 Sr1 2.594593 1_555
O0 Sr1 2.594593 1_545
O0 Sr0 2.603469 1_554
O0 Sr0 2.603478 1_544
O1 Sr1 2.594593 1_555
O1 Sr1 2.594593 1_455
O1 Sr0 2.603469 1_554
O1 Sr0 2.603478 1_454
