# generated using pymatgen
data_Na8TiZn3(PO4)6
_symmetry_space_group_name_H-M   'P 1'
_cell_length_a   9.02399876
_cell_length_b   9.02399845
_cell_length_c   21.90389096
_cell_angle_alpha   90.00000000
_cell_angle_beta   90.00000000
_cell_angle_gamma   120.00000114
_symmetry_Int_Tables_number   1
_chemical_formula_structural   Na8TiZn3(PO4)6
_chemical_formula_sum   'Na24 Ti3 Zn9 P18 O72'
_cell_volume   1544.72058657
_cell_formula_units_Z   3
loop_
 _symmetry_equiv_pos_site_id
 _symmetry_equiv_pos_as_xyz
  1  'x, y, z'
loop_
 _atom_site_type_symbol
 _atom_site_label
 _atom_site_symmetry_multiplicity
 _atom_site_fract_x
 _atom_site_fract_y
 _atom_site_fract_z
 _atom_site_occupancy
  Na  Na0  1  0.63209196  0.99932819  0.25226425  1
  Na  Na1  1  0.36723623  0.36790804  0.25226425  1
  Na  Na2  1  0.00067181  0.63276377  0.25226425  1
  Na  Na3  1  0.64509723  0.63304825  0.74267817  1
  Na  Na4  1  0.98795101  0.35490277  0.74267817  1
  Na  Na5  1  0.36695175  0.01204899  0.74267817  1
  Na  Na6  1  0.29353852  0.33583087  0.58060723  1
  Na  Na7  1  0.04229335  0.70646148  0.58060723  1
  Na  Na8  1  0.66416913  0.95770665  0.58060723  1
  Na  Na9  1  0.29205532  0.95868884  0.09088118  1
  Na  Na10  1  0.66663451  0.70794468  0.09088118  1
  Na  Na11  1  0.04131116  0.33336549  0.09088118  1
  Na  Na12  1  0.97057706  0.67847532  0.91363944  1
  Na  Na13  1  0.70789726  0.02942294  0.91363944  1
  Na  Na14  1  0.32152468  0.29210274  0.91363944  1
  Na  Na15  1  0.97870440  0.29935038  0.40875104  1
  Na  Na16  1  0.32064498  0.02129560  0.40875104  1
  Na  Na17  1  0.70064962  0.67935502  0.40875104  1
  Na  Na18  1  0.00000000  0.00000000  0.49692949  1
  Na  Na19  1  0.00000000  0.00000000  0.00348505  1
  Na  Na20  1  0.66666700  0.33333300  0.82807307  1
  Na  Na21  1  0.66666700  0.33333300  0.32590397  1
  Na  Na22  1  0.33333300  0.66666700  0.17275517  1
  Na  Na23  1  0.33333300  0.66666700  0.65718312  1
  Ti  Ti0  1  0.66666700  0.33333300  0.98306317  1
  Ti  Ti1  1  0.66666700  0.33333300  0.48280468  1
  Ti  Ti2  1  0.33333300  0.66666700  0.81595933  1
  Zn  Zn0  1  0.00000000  0.00000000  0.34294048  1
  Zn  Zn1  1  0.00000000  0.00000000  0.84481961  1
  Zn  Zn2  1  0.00000000  0.00000000  0.65102686  1
  Zn  Zn3  1  0.00000000  0.00000000  0.15951987  1
  Zn  Zn4  1  0.66666700  0.33333300  0.67809312  1
  Zn  Zn5  1  0.66666700  0.33333300  0.18292462  1
  Zn  Zn6  1  0.33333300  0.66666700  0.01580527  1
  Zn  Zn7  1  0.33333300  0.66666700  0.51075839  1
  Zn  Zn8  1  0.33333300  0.66666700  0.31988277  1
  P  P0  1  0.29933482  0.99841377  0.24950643  1
  P  P1  1  0.69907895  0.70066518  0.24950643  1
  P  P2  1  0.00158623  0.30092105  0.24950643  1
  P  P3  1  0.29705693  0.30208088  0.75211930  1
  P  P4  1  0.00502395  0.70294307  0.75211930  1
  P  P5  1  0.69791912  0.99497605  0.75211930  1
  P  P6  1  0.96110209  0.33392551  0.58491324  1
  P  P7  1  0.37282442  0.03889791  0.58491324  1
  P  P8  1  0.66607449  0.62717558  0.58491324  1
  P  P9  1  0.96017236  0.62459670  0.08282173  1
  P  P10  1  0.66442534  0.03982764  0.08282173  1
  P  P11  1  0.37540330  0.33557466  0.08282173  1
  P  P12  1  0.62668469  0.66461480  0.91787145  1
  P  P13  1  0.03792911  0.37331531  0.91787145  1
  P  P14  1  0.33538520  0.96207089  0.91787145  1
  P  P15  1  0.63198397  0.96911300  0.41923710  1
  P  P16  1  0.33712803  0.36801603  0.41923710  1
  P  P17  1  0.03088700  0.66287197  0.41923710  1
  O  O0  1  0.21438276  0.02336529  0.30689030  1
  O  O1  1  0.80898253  0.78561724  0.30689030  1
  O  O2  1  0.97663471  0.19101747  0.30689030  1
  O  O3  1  0.21764210  0.19427886  0.80986761  1
  O  O4  1  0.97663676  0.78235790  0.80986761  1
  O  O5  1  0.80572114  0.02336324  0.80986761  1
  O  O6  1  0.77269417  0.95701424  0.69480459  1
  O  O7  1  0.18432008  0.22730583  0.69480459  1
  O  O8  1  0.04298576  0.81567992  0.69480459  1
  O  O9  1  0.77963605  0.80748712  0.19049240  1
  O  O10  1  0.02785108  0.22036395  0.19049240  1
  O  O11  1  0.19251288  0.97214892  0.19049240  1
  O  O12  1  0.88479080  0.35844705  0.64428814  1
  O  O13  1  0.47365725  0.11520920  0.64428814  1
  O  O14  1  0.64155295  0.52634275  0.64428814  1
  O  O15  1  0.87868461  0.51961092  0.14015584  1
  O  O16  1  0.64092731  0.12131539  0.14015584  1
  O  O17  1  0.48038908  0.35907269  0.14015584  1
  O  O18  1  0.47966816  0.32148532  0.02475709  1
  O  O19  1  0.84181816  0.52033184  0.02475709  1
  O  O20  1  0.67851468  0.15818184  0.02475709  1
  O  O21  1  0.47706924  0.15694459  0.52971148  1
  O  O22  1  0.67987634  0.52293076  0.52971148  1
  O  O23  1  0.84305541  0.32012366  0.52971148  1
  O  O24  1  0.54859282  0.69239937  0.97514078  1
  O  O25  1  0.14380555  0.45140718  0.97514078  1
  O  O26  1  0.30760063  0.85619445  0.97514078  1
  O  O27  1  0.55299674  0.86056640  0.47697476  1
  O  O28  1  0.30756865  0.44700326  0.47697476  1
  O  O29  1  0.13943360  0.69243135  0.47697476  1
  O  O30  1  0.10547517  0.62406550  0.36223472  1
  O  O31  1  0.51858933  0.89452483  0.36223472  1
  O  O32  1  0.37593450  0.48141067  0.36223472  1
  O  O33  1  0.13414990  0.49232871  0.86138009  1
  O  O34  1  0.35817782  0.86585010  0.86138009  1
  O  O35  1  0.50767129  0.64182218  0.86138009  1
  O  O36  1  0.00419819  0.81851597  0.41396564  1
  O  O37  1  0.81431778  0.99580181  0.41396564  1
  O  O38  1  0.18148403  0.18568222  0.41396564  1
  O  O39  1  0.01160281  0.19201076  0.91077378  1
  O  O40  1  0.18040795  0.98839719  0.91077378  1
  O  O41  1  0.80798924  0.81959205  0.91077378  1
  O  O42  1  0.96859759  0.16605130  0.58358559  1
  O  O43  1  0.19745372  0.03140241  0.58358559  1
  O  O44  1  0.83394870  0.80254628  0.58358559  1
  O  O45  1  0.96744630  0.79837444  0.07952007  1
  O  O46  1  0.83092814  0.03255370  0.07952007  1
  O  O47  1  0.20162556  0.16907186  0.07952007  1
  O  O48  1  0.67118361  0.15076286  0.74761251  1
  O  O49  1  0.47958026  0.32881639  0.74761251  1
  O  O50  1  0.84923714  0.52041974  0.74761251  1
  O  O51  1  0.68166316  0.52069198  0.24728826  1
  O  O52  1  0.83902983  0.31833684  0.24728826  1
  O  O53  1  0.47930802  0.16097017  0.24728826  1
  O  O54  1  0.63630860  0.49503956  0.91862737  1
  O  O55  1  0.85873196  0.36369140  0.91862737  1
  O  O56  1  0.50496044  0.14126804  0.91862737  1
  O  O57  1  0.65063126  0.15325984  0.42660146  1
  O  O58  1  0.50262958  0.34936874  0.42660146  1
  O  O59  1  0.84674016  0.49737042  0.42660146  1
  O  O60  1  0.35614131  0.49511191  0.07701856  1
  O  O61  1  0.13896959  0.64385869  0.07701856  1
  O  O62  1  0.50488809  0.86103041  0.07701856  1
  O  O63  1  0.35206696  0.85908352  0.57930068  1
  O  O64  1  0.50701556  0.64793304  0.57930068  1
  O  O65  1  0.14091648  0.49298444  0.57930068  1
  O  O66  1  0.31614795  0.83565888  0.25350763  1
  O  O67  1  0.51950993  0.68385205  0.25350763  1
  O  O68  1  0.16434112  0.48049007  0.25350763  1
  O  O69  1  0.31485862  0.48587716  0.75956742  1
  O  O70  1  0.17101754  0.68514138  0.75956742  1
  O  O71  1  0.51412284  0.82898246  0.75956742  1
loop_
_geom_bond_atom_site_label_1
_geom_bond_atom_site_label_2
_geom_bond_distance
_geom_bond_site_symmetry_2
Na0 O53 2.459983 1_565
Na0 O66 2.469792 1_555
Na0 O67 2.499046 1_555
Na0 O52 2.531882 1_565
Na0 O31 2.603280 1_555
Na0 O16 2.675892 1_565
Na1 O51 2.459991 1_555
Na1 O67 2.469792 1_555
Na1 O68 2.499055 1_555
Na1 O53 2.531889 1_555
Na1 O32 2.603282 1_555
Na1 O17 2.675896 1_555
Na2 O52 2.459991 1_455
Na2 O68 2.469784 1_555
Na2 O66 2.499048 1_555
Na2 O51 2.531881 1_455
Na2 O30 2.603278 1_555
Na2 O15 2.675894 1_455
Na3 O14 2.354142 1_555
Na3 O49 2.383101 1_555
Na3 O50 2.512073 1_555
Na3 O71 2.598026 1_555
Na3 O69 2.612224 1_555
Na3 O6 2.757877 1_555
Na3 O35 2.898717 1_555
Na3 O4 2.983488 1_555
Na4 O12 2.354138 1_555
Na4 O50 2.383094 1_555
Na4 O48 2.512066 1_555
Na4 O69 2.598018 1_655
Na4 O70 2.612223 1_655
Na4 O7 2.757877 1_655
Na4 O33 2.898715 1_655
Na4 O5 2.983488 1_555
Na5 O13 2.354140 1_555
Na5 O48 2.383102 1_555
Na5 O49 2.512064 1_555
Na5 O70 2.598019 1_545
Na5 O71 2.612216 1_545
Na5 O8 2.757877 1_545
Na5 O34 2.898713 1_545
Na5 O3 2.983488 1_555
Na6 O65 2.421156 1_555
Na6 O43 2.433307 1_555
Na6 O28 2.459300 1_555
Na6 O64 2.493689 1_555
Na6 O42 2.541111 1_455
Na6 O7 2.687394 1_555
Na7 O63 2.421140 1_555
Na7 O44 2.433316 1_455
Na7 O29 2.459293 1_555
Na7 O65 2.493676 1_555
Na7 O43 2.541111 1_565
Na7 O8 2.687396 1_555
Na8 O64 2.421140 1_555
Na8 O42 2.433309 1_565
Na8 O27 2.459297 1_555
Na8 O63 2.493693 1_555
Na8 O44 2.541104 1_555
Na8 O6 2.687393 1_555
Na9 O11 2.385649 1_555
Na9 O47 2.425155 1_565
Na9 O61 2.479375 1_555
Na9 O62 2.500024 1_555
Na9 O45 2.549063 1_455
Na9 O26 2.726159 1_554
Na9 O16 2.934234 1_565
Na10 O9 2.385647 1_555
Na10 O45 2.425147 1_555
Na10 O62 2.479391 1_555
Na10 O60 2.500037 1_555
Na10 O46 2.549063 1_565
Na10 O24 2.726166 1_554
Na10 O17 2.934234 1_555
Na11 O10 2.385646 1_555
Na11 O46 2.425149 1_455
Na11 O60 2.479376 1_555
Na11 O61 2.500041 1_555
Na11 O47 2.549055 1_555
Na11 O25 2.726163 1_554
Na11 O15 2.934234 1_455
Na12 O41 2.376260 1_555
Na12 O4 2.448893 1_555
Na12 O40 2.472934 1_655
Na12 O55 2.496531 1_555
Na12 O54 2.618731 1_555
Na12 O19 2.766295 1_556
Na12 O26 2.959521 1_655
Na12 O33 2.964844 1_655
Na13 O39 2.376268 1_655
Na13 O5 2.448896 1_555
Na13 O41 2.472941 1_545
Na13 O56 2.496514 1_555
Na13 O55 2.618730 1_555
Na13 O20 2.766289 1_556
Na13 O24 2.959521 1_545
Na13 O34 2.964844 1_545
Na14 O40 2.376268 1_545
Na14 O3 2.448894 1_555
Na14 O39 2.472932 1_555
Na14 O54 2.496528 1_555
Na14 O56 2.618746 1_555
Na14 O18 2.766298 1_556
Na14 O25 2.959521 1_555
Na14 O35 2.964844 1_555
Na15 O37 2.377709 1_545
Na15 O2 2.432242 1_555
Na15 O38 2.508117 1_655
Na15 O57 2.598589 1_555
Na15 O59 2.625276 1_555
Na15 O30 2.753351 1_655
Na15 O23 2.963594 1_555
Na15 O28 2.976803 1_655
Na16 O38 2.377702 1_555
Na16 O0 2.432238 1_555
Na16 O36 2.508110 1_545
Na16 O58 2.598590 1_555
Na16 O57 2.625293 1_555
Na16 O31 2.753351 1_545
Na16 O21 2.963599 1_555
Na16 O29 2.976803 1_545
Na17 O36 2.377710 1_655
Na17 O1 2.432240 1_555
Na17 O37 2.508108 1_555
Na17 O59 2.598605 1_555
Na17 O58 2.625291 1_555
Na17 O32 2.753351 1_555
Na17 O22 2.963602 1_555
Na17 O27 2.976803 1_555
Na18 O38 2.459249 1_555
Na18 O36 2.459249 1_545
Na18 O37 2.459249 1_445
Na18 O42 2.520530 1_455
Na18 O44 2.520530 1_445
Na18 O43 2.520530 1_555
Na19 O45 2.374033 1_445
Na19 O47 2.374033 1_555
Na19 O46 2.374034 1_455
Na19 O39 2.637367 1_554
Na19 O41 2.637367 1_444
Na19 O40 2.637367 1_544
Na20 O50 2.426759 1_555
Na20 O49 2.426759 1_555
Na20 O48 2.426759 1_555
Na20 O56 2.557036 1_555
Na20 O54 2.557036 1_555
Na20 O55 2.557036 1_555
Na21 O51 2.369245 1_555
Na21 O53 2.369245 1_555
Na21 O52 2.369245 1_555
Na21 O57 2.700245 1_555
Na21 O59 2.700245 1_555
Na21 O58 2.700245 1_555
Na22 O68 2.390552 1_555
Na22 O66 2.390552 1_555
Na22 O67 2.390552 1_555
Na22 O60 2.674898 1_555
Na22 O62 2.674898 1_555
Na22 O61 2.674898 1_555
Na23 O63 2.379117 1_555
Na23 O65 2.379117 1_555
Na23 O64 2.379117 1_555
Na23 O69 2.728873 1_555
Na23 O71 2.728873 1_555
Na23 O70 2.728873 1_555
O0 P0 1.546244 1_545
O0 Zn0 2.000680 1_555
O1 P1 1.546244 1_555
O1 Zn0 2.000680 1_665
O2 P2 1.546244 1_655
O2 Zn0 2.000680 1_655
O3 P3 1.537132 1_555
O3 Zn1 2.018366 1_555
O4 P4 1.537132 1_655
O4 Zn1 2.018366 1_665
O5 P5 1.537132 1_545
O5 Zn1 2.018366 1_655
O6 P5 1.542689 1_555
O6 Zn2 2.117013 1_665
O7 P3 1.542689 1_555
O7 Zn2 2.117013 1_555
O8 P4 1.542689 1_555
O8 Zn2 2.117013 1_565
O9 P1 1.558151 1_555
O9 Zn3 1.994498 1_665
O10 P2 1.558151 1_555
O10 Zn3 1.994498 1_555
O11 P0 1.558151 1_555
O11 Zn3 1.994498 1_565
O12 P6 1.538496 1_555
O12 Zn4 2.006977 1_555
O13 P7 1.538496 1_555
O13 Zn4 2.006976 1_555
O14 P8 1.538496 1_555
O14 Zn4 2.006976 1_555
O15 P9 1.522747 1_555
O15 Zn5 2.036582 1_555
O16 P10 1.522747 1_555
O16 Zn5 2.036581 1_555
O17 P11 1.522747 1_555
O17 Zn5 2.036582 1_555
O18 P11 1.624389 1_555
O18 Ti0 1.874203 1_554
O19 P9 1.624389 1_555
O19 Ti0 1.874203 1_554
O20 P10 1.624389 1_555
O20 Ti0 1.874203 1_554
O21 P7 1.574676 1_555
O21 Ti1 1.947609 1_555
O22 P8 1.574676 1_555
O22 Ti1 1.947609 1_555
O23 P6 1.574676 1_555
O23 Ti1 1.947609 1_555
O24 P12 1.519779 1_555
O24 Zn6 2.041946 1_556
O25 P13 1.519779 1_555
O25 Zn6 2.041946 1_556
O26 P14 1.519779 1_555
O26 Zn6 2.041946 1_556
O27 P15 1.539075 1_555
O27 Zn7 2.017442 1_555
O28 P16 1.539075 1_555
O28 Zn7 2.017442 1_555
O29 P17 1.539075 1_555
O29 Zn7 2.017443 1_555
O30 P17 1.539584 1_555
O30 Zn8 2.108508 1_555
O31 P15 1.539584 1_555
O31 Zn8 2.108508 1_555
O32 P16 1.539584 1_555
O32 Zn8 2.108508 1_555
O33 P13 1.583018 1_555
O33 Ti2 1.966682 1_555
O34 P14 1.583018 1_555
O34 Ti2 1.966682 1_555
O35 P12 1.583018 1_555
O35 Ti2 1.966682 1_555
O36 P17 1.543474 1_555
O36 Zn0 2.272854 1_565
O37 P15 1.543483 1_555
O37 Zn0 2.272854 1_665
O38 P16 1.543479 1_555
O38 Zn0 2.272854 1_555
O39 P13 1.539065 1_555
O39 Zn1 2.217844 1_555
O40 P14 1.539056 1_555
O40 Zn1 2.217844 1_565
O41 P12 1.539062 1_555
O41 Zn1 2.217844 1_665
O42 P6 1.550097 1_555
O42 Zn2 2.220915 1_655
O43 P7 1.550105 1_555
O43 Zn2 2.220915 1_555
O44 P8 1.550101 1_555
O44 Zn2 2.220915 1_665
O45 P9 1.538103 1_555
O45 Zn3 2.435744 1_665
O46 P10 1.538094 1_555
O46 Zn3 2.435744 1_655
O47 P11 1.538099 1_555
O47 Zn3 2.435744 1_555
O48 P5 1.543843 1_545
O48 Zn4 2.258730 1_555
O49 P3 1.543852 1_555
O49 Zn4 2.258730 1_555
O50 P4 1.543849 1_655
O50 Zn4 2.258730 1_555
O51 P1 1.552240 1_555
O51 Zn5 2.153056 1_555
O52 P2 1.552231 1_655
O52 Zn5 2.153056 1_555
O53 P0 1.552236 1_545
O53 Zn5 2.153056 1_555
O54 P12 1.575553 1_555
O54 Ti0 2.143882 1_555
O55 P13 1.575535 1_655
O55 Ti0 2.143882 1_555
O56 P14 1.575543 1_545
O56 Ti0 2.143882 1_555
O57 P15 1.592511 1_545
O57 Ti1 1.985418 1_555
O58 P16 1.592529 1_555
O58 Ti1 1.985418 1_555
O59 P17 1.592519 1_655
O59 Ti1 1.985418 1_555
O60 P11 1.539235 1_555
O60 Zn6 2.134343 1_555
O61 P9 1.539217 1_455
O61 Zn6 2.134343 1_555
O62 P10 1.539225 1_565
O62 Zn6 2.134343 1_555
O63 P7 1.542475 1_565
O63 Zn7 2.236970 1_555
O64 P8 1.542493 1_555
O64 Zn7 2.236970 1_555
O65 P6 1.542483 1_455
O65 Zn7 2.236970 1_555
O66 P0 1.552615 1_555
O66 Zn8 2.167916 1_555
O67 P1 1.552624 1_555
O67 Zn8 2.167916 1_555
O68 P2 1.552620 1_555
O68 Zn8 2.167916 1_555
O69 P3 1.592753 1_555
O69 Ti2 1.985738 1_555
O70 P4 1.592744 1_555
O70 Ti2 1.985738 1_555
O71 P5 1.592749 1_555
O71 Ti2 1.985738 1_555
