# generated using pymatgen
data_Na2La2In2SiS5O24
_symmetry_space_group_name_H-M   'P 1'
_cell_length_a   9.14237502
_cell_length_b   9.16068111
_cell_length_c   24.48177143
_cell_angle_alpha   89.46895514
_cell_angle_beta   90.56786880
_cell_angle_gamma   119.79348374
_symmetry_Int_Tables_number   1
_chemical_formula_structural   Na2La2In2SiS5O24
_chemical_formula_sum   'Na6 La6 In6 Si3 S15 O72'
_cell_volume   1779.23578289
_cell_formula_units_Z   3
loop_
 _symmetry_equiv_pos_site_id
 _symmetry_equiv_pos_as_xyz
  1  'x, y, z'
loop_
 _atom_site_type_symbol
 _atom_site_label
 _atom_site_symmetry_multiplicity
 _atom_site_fract_x
 _atom_site_fract_y
 _atom_site_fract_z
 _atom_site_occupancy
  Na  Na0  1  0.98397393  0.97979991  0.50750605  1
  Na  Na1  1  0.99947873  0.00090109  0.99707493  1
  Na  Na2  1  0.67216813  0.31878960  0.82766504  1
  Na  Na3  1  0.63647930  0.30563157  0.32692937  1
  Na  Na4  1  0.32750502  0.68293061  0.17601888  1
  Na  Na5  1  0.38610825  0.68962618  0.66697491  1
  La  La0  1  0.01282995  0.99869635  0.34273046  1
  La  La1  1  0.97435394  0.98469381  0.64997185  1
  La  La2  1  0.66809251  0.33022722  0.68609729  1
  La  La3  1  0.66269666  0.34349055  0.48075526  1
  La  La4  1  0.35402774  0.67055674  0.52023576  1
  La  La5  1  0.35143611  0.67819340  0.81880824  1
  In  In0  1  0.98989262  0.00090116  0.84872426  1
  In  In1  1  0.00775357  0.99651010  0.15471910  1
  In  In2  1  0.65753583  0.32520191  0.18064539  1
  In  In3  1  0.66743445  0.32903841  0.98962397  1
  In  In4  1  0.33189772  0.66731057  0.01637421  1
  In  In5  1  0.33338587  0.67969431  0.31099661  1
  Si  Si0  1  0.31210350  0.00014616  0.24394959  1
  Si  Si1  1  0.70004680  0.00757800  0.75719234  1
  Si  Si2  1  0.66906780  0.63828004  0.58440093  1
  S  S0  1  0.69216217  0.69228427  0.24267341  1
  S  S1  1  0.00094945  0.30812658  0.24250066  1
  S  S2  1  0.29483903  0.28949340  0.75769444  1
  S  S3  1  0.99637922  0.70115060  0.75970021  1
  S  S4  1  0.97439805  0.33533393  0.58131956  1
  S  S5  1  0.35623169  0.02764190  0.58220049  1
  S  S6  1  0.95914803  0.62603236  0.08315411  1
  S  S7  1  0.66993425  0.03297245  0.08292293  1
  S  S8  1  0.36918109  0.33564076  0.08107910  1
  S  S9  1  0.64336657  0.66301464  0.92645059  1
  S  S10  1  0.02606593  0.36089421  0.92467438  1
  S  S11  1  0.33125624  0.97711304  0.92426918  1
  S  S12  1  0.63235179  0.96813014  0.40828786  1
  S  S13  1  0.33528874  0.38204079  0.40579824  1
  S  S14  1  0.03762809  0.65894567  0.41081220  1
  O  O0  1  0.22957214  0.02758257  0.29865576  1
  O  O1  1  0.79136381  0.76603687  0.29279510  1
  O  O2  1  0.96663222  0.20543649  0.29240520  1
  O  O3  1  0.21029264  0.19381894  0.80938534  1
  O  O4  1  0.00460330  0.79866727  0.81016459  1
  O  O5  1  0.79271920  0.00797129  0.81622151  1
  O  O6  1  0.79320377  0.00173995  0.70217897  1
  O  O7  1  0.20608064  0.19916871  0.70810646  1
  O  O8  1  0.01137421  0.79501473  0.70938336  1
  O  O9  1  0.77052505  0.80736370  0.19418716  1
  O  O10  1  0.01955737  0.22019344  0.19357741  1
  O  O11  1  0.19324474  0.96853949  0.18887630  1
  O  O12  1  0.88059207  0.32430031  0.63134034  1
  O  O13  1  0.45063978  0.11527989  0.63202237  1
  O  O14  1  0.68175452  0.54539908  0.63970858  1
  O  O15  1  0.87834402  0.51829073  0.13168544  1
  O  O16  1  0.64023364  0.11184315  0.13070237  1
  O  O17  1  0.47583062  0.36492363  0.13025476  1
  O  O18  1  0.44777244  0.30777145  0.03182267  1
  O  O19  1  0.85737130  0.54841062  0.03256486  1
  O  O20  1  0.69933558  0.13725647  0.03231118  1
  O  O21  1  0.45403222  0.11343242  0.53196876  1
  O  O22  1  0.65209337  0.53262687  0.52772918  1
  O  O23  1  0.87685127  0.33111181  0.53150865  1
  O  O24  1  0.55468064  0.68849232  0.97419727  1
  O  O25  1  0.13462193  0.44795735  0.97433485  1
  O  O26  1  0.30436138  0.86553810  0.97371955  1
  O  O27  1  0.55008200  0.88271088  0.45988237  1
  O  O28  1  0.33769075  0.46562061  0.45718610  1
  O  O29  1  0.12513295  0.65950024  0.46171492  1
  O  O30  1  0.13338538  0.66297489  0.36124934  1
  O  O31  1  0.53484512  0.86873895  0.35967870  1
  O  O32  1  0.33247379  0.47926539  0.35683172  1
  O  O33  1  0.09756661  0.45967364  0.87509800  1
  O  O34  1  0.36234058  0.90684438  0.87526890  1
  O  O35  1  0.54645404  0.63543419  0.87594197  1
  O  O36  1  0.01690371  0.81062467  0.41117352  1
  O  O37  1  0.80270925  0.98622943  0.40795995  1
  O  O38  1  0.18106131  0.21426493  0.40635675  1
  O  O39  1  0.01160675  0.19111099  0.92195687  1
  O  O40  1  0.17793448  0.99516828  0.91847388  1
  O  O41  1  0.81486445  0.81446055  0.92291556  1
  O  O42  1  0.00570243  0.19214492  0.57793159  1
  O  O43  1  0.19368719  0.02366522  0.57900497  1
  O  O44  1  0.83288696  0.82476240  0.57763399  1
  O  O45  1  0.97425193  0.79531495  0.08838860  1
  O  O46  1  0.82236756  0.01383297  0.09064037  1
  O  O47  1  0.19772346  0.18558887  0.08701099  1
  O  O48  1  0.67916954  0.17295800  0.75810145  1
  O  O49  1  0.46834707  0.31751045  0.75968931  1
  O  O50  1  0.83705430  0.53906122  0.76155872  1
  O  O51  1  0.68539045  0.52828096  0.23404732  1
  O  O52  1  0.85770232  0.34013273  0.23385175  1
  O  O53  1  0.50013125  0.16809682  0.23828959  1
  O  O54  1  0.65934793  0.50959611  0.93508168  1
  O  O55  1  0.85340499  0.34021884  0.93235747  1
  O  O56  1  0.48267195  0.14718372  0.93353321  1
  O  O57  1  0.64377521  0.13546086  0.40499610  1
  O  O58  1  0.48741112  0.36323552  0.40201793  1
  O  O59  1  0.86890900  0.50525151  0.40717552  1
  O  O60  1  0.35405690  0.49126803  0.07357292  1
  O  O61  1  0.13187137  0.64415052  0.07732382  1
  O  O62  1  0.51536524  0.86253746  0.07523977  1
  O  O63  1  0.32912869  0.85377439  0.58480061  1
  O  O64  1  0.50058890  0.65924427  0.58900220  1
  O  O65  1  0.13677702  0.49526266  0.58315455  1
  O  O66  1  0.33170611  0.83106712  0.24959974  1
  O  O67  1  0.51825567  0.66431541  0.24835737  1
  O  O68  1  0.15959469  0.47289355  0.24803527  1
  O  O69  1  0.29990802  0.45446537  0.75819512  1
  O  O70  1  0.14047106  0.66945654  0.76140953  1
  O  O71  1  0.51215786  0.83546652  0.75557026  1
loop_
_geom_bond_atom_site_label_1
_geom_bond_atom_site_label_2
_geom_bond_distance
_geom_bond_site_symmetry_2
Na0 O44 2.219226 1_555
Na0 O43 2.466231 1_665
Na0 O42 2.543109 1_665
Na0 O36 2.932554 1_655
Na0 O37 2.950138 1_555
Na1 O39 2.486582 1_655
Na1 O41 2.488783 1_545
Na1 O40 2.552790 1_645
Na1 O47 2.817433 1_656
Na1 O45 2.845722 1_546
Na1 O46 2.855195 1_556
Na2 O48 2.195092 1_555
Na2 O50 2.434818 1_555
Na2 O49 2.481748 1_555
Na3 O57 2.476462 1_555
Na3 O53 2.507339 1_555
Na3 O58 2.509470 1_555
Na3 O59 2.800227 1_555
Na3 O51 2.925499 1_555
Na3 O52 2.970806 1_555
Na4 O66 2.253921 1_555
Na4 O68 2.494529 1_555
Na4 O67 2.536804 1_555
Na4 O61 2.908975 1_555
Na4 O62 2.990780 1_555
Na5 O64 2.270627 1_555
Na5 O71 2.508292 1_555
Na5 O63 2.698392 1_555
Na5 O69 2.916801 1_555
Na5 O65 2.918726 1_555
La0 O0 2.162598 1_565
La0 O38 2.383875 1_565
La0 O36 2.405478 1_555
La0 O1 2.418145 1_455
La0 O2 2.454475 1_465
La0 O37 2.468380 1_455
La1 O6 2.168743 1_565
La1 O44 2.252816 1_555
La1 O8 2.403570 1_655
La1 O42 2.492152 1_665
La1 O7 2.495936 1_665
La1 O43 2.552075 1_665
La2 O14 2.215251 1_555
La2 O48 2.299489 1_555
La2 O13 2.384978 1_555
La2 O12 2.394178 1_555
La2 O49 2.538562 1_555
La2 O50 2.555625 1_555
La3 O22 2.130710 1_555
La3 O23 2.357933 1_555
La3 O21 2.378217 1_555
La3 O59 2.497324 1_555
La3 O58 2.556739 1_555
La3 O57 2.614026 1_555
La4 O64 2.174951 1_555
La4 O28 2.387439 1_555
La4 O27 2.389671 1_555
La4 O65 2.396159 1_555
La4 O63 2.409008 1_555
La4 O29 2.484885 1_555
La5 O71 2.128762 1_555
La5 O70 2.344351 1_555
La5 O69 2.389026 1_555
La5 O35 2.433751 1_555
La5 O34 2.480190 1_555
La5 O33 2.586186 1_555
In0 O5 1.993362 1_555
In0 O3 2.139874 1_655
In0 O4 2.150326 1_645
In0 O40 2.429810 1_645
In0 O39 2.448880 1_655
In0 O41 2.461878 1_545
In1 O11 2.010099 1_555
In1 O9 2.217157 1_455
In1 O10 2.220312 1_565
In1 O46 2.359816 1_465
In1 O45 2.369056 1_455
In1 O47 2.403873 1_565
In2 O53 2.019454 1_555
In2 O52 2.184409 1_555
In2 O51 2.191494 1_555
In2 O17 2.228386 1_555
In2 O16 2.252408 1_555
In2 O15 2.258511 1_555
In3 O54 2.145440 1_555
In3 O19 2.166602 1_556
In3 O56 2.171230 1_555
In3 O20 2.175512 1_556
In3 O55 2.176767 1_555
In3 O18 2.187885 1_556
In4 O25 2.179439 1_554
In4 O26 2.205738 1_554
In4 O60 2.209036 1_555
In4 O24 2.213027 1_554
In4 O62 2.259992 1_555
In4 O61 2.297477 1_555
In5 O66 2.040711 1_555
In5 O32 2.139427 1_555
In5 O31 2.153334 1_555
In5 O30 2.154802 1_555
In5 O68 2.345996 1_555
In5 O67 2.349497 1_555
O0 Si0 1.625100 1_555
O1 S0 1.472783 1_555
O2 S1 1.472768 1_655
O3 S2 1.514159 1_555
O4 S3 1.510595 1_455
O5 Si1 1.667051 1_555
O6 Si1 1.616009 1_555
O7 S2 1.465871 1_555
O8 S3 1.463614 1_455
O9 S0 1.508898 1_555
O10 S1 1.506808 1_555
O11 Si0 1.657730 1_565
O12 S4 1.475714 1_555
O13 S5 1.478484 1_555
O14 Si2 1.626161 1_555
O15 S6 1.484126 1_555
O16 S7 1.476797 1_555
O17 S8 1.481498 1_555
O18 S8 1.496920 1_555
O19 S6 1.497101 1_555
O20 S7 1.499879 1_555
O21 S5 1.494990 1_555
O22 Si2 1.660463 1_555
O23 S4 1.492964 1_555
O24 S9 1.513323 1_555
O25 S10 1.518765 1_555
O26 S11 1.517893 1_555
O27 S12 1.479576 1_555
O28 S13 1.473101 1_555
O29 S14 1.472865 1_555
O30 S14 1.492714 1_555
O31 S12 1.494100 1_555
O32 S13 1.494448 1_555
O33 S10 1.458351 1_555
O34 S11 1.461867 1_555
O35 S9 1.462703 1_555
O36 S14 1.492823 1_555
O37 S12 1.482187 1_555
O38 S13 1.482205 1_555
O39 S10 1.496122 1_555
O40 S11 1.496107 1_555
O41 S9 1.493106 1_555
O42 S4 1.478146 1_455
O43 S5 1.469599 1_555
O44 Si2 1.626649 1_555
O45 S6 1.493597 1_555
O46 S7 1.498515 1_555
O47 S8 1.492411 1_555
O48 Si1 1.618702 1_555
O49 S2 1.476022 1_555
O50 S3 1.476242 1_555
O51 S0 1.489555 1_555
O52 S1 1.490246 1_655
O53 Si0 1.647379 1_555
O54 S9 1.496375 1_555
O55 S10 1.507027 1_655
O56 S11 1.500696 1_545
O57 S12 1.485214 1_545
O58 S13 1.487746 1_555
O59 S14 1.486925 1_655
O60 S8 1.508611 1_555
O61 S6 1.511641 1_455
O62 S7 1.509177 1_565
O63 S5 1.486111 1_565
O64 Si2 1.649208 1_555
O65 S4 1.480137 1_455
O66 Si0 1.649746 1_565
O67 S0 1.487199 1_555
O68 S1 1.491512 1_555
O69 S2 1.488934 1_555
O70 S3 1.483309 1_455
O71 Si1 1.657264 1_565
