# generated using pymatgen
data_MgMnVP2(O4F)2
_symmetry_space_group_name_H-M   'P 1'
_cell_length_a   5.32550726
_cell_length_b   5.35054121
_cell_length_c   7.47041880
_cell_angle_alpha   107.98880420
_cell_angle_beta   106.75411871
_cell_angle_gamma   96.06169709
_symmetry_Int_Tables_number   1
_chemical_formula_structural   MgMnVP2(O4F)2
_chemical_formula_sum   'Mg1 Mn1 V1 P2 O8 F2'
_cell_volume   189.38658770
_cell_formula_units_Z   1
loop_
 _symmetry_equiv_pos_site_id
 _symmetry_equiv_pos_as_xyz
  1  'x, y, z'
loop_
 _atom_site_type_symbol
 _atom_site_label
 _atom_site_symmetry_multiplicity
 _atom_site_fract_x
 _atom_site_fract_y
 _atom_site_fract_z
 _atom_site_occupancy
  Mg  Mg0  1  0.97748200  0.31626200  0.70883500  1
  Mn  Mn0  1  0.47694200  0.49419000  0.48199600  1
  V  V0  1  0.00325800  0.00124700  0.01267500  1
  P  P0  1  0.41633300  0.09180400  0.73773400  1
  P  P1  1  0.58592100  0.89762200  0.26153500  1
  O  O0  1  0.24598400  0.14568100  0.87963000  1
  O  O1  1  0.32834000  0.79479600  0.60321100  1
  O  O2  1  0.31552600  0.28525100  0.62247900  1
  O  O3  1  0.28529700  0.83672500  0.14779200  1
  O  O4  1  0.72498000  0.17657800  0.84127000  1
  O  O5  1  0.66274300  0.69102000  0.36359000  1
  O  O6  1  0.68293500  0.18771200  0.43181200  1
  O  O7  1  0.74215100  0.88361500  0.11613800  1
  F  F0  1  0.13735500  0.33718600  0.22911400  1
  F  F1  1  0.87725300  0.66031200  0.76754600  1
loop_
_geom_bond_atom_site_label_1
_geom_bond_atom_site_label_2
_geom_bond_distance
_geom_bond_site_symmetry_2
Mg0 O6 2.058587 1_555
Mg0 O2 2.085944 1_655
Mg0 O4 2.087359 1_555
Mg0 O0 2.109190 1_655
Mn0 O5 1.931455 1_555
Mn0 O1 1.953359 1_555
Mn0 O2 2.032715 1_555
Mn0 O6 2.066479 1_555
O0 P0 1.565458 1_555
O0 V0 2.064006 1_556
O1 P0 1.529615 1_565
O2 P0 1.581824 1_555
O3 P1 1.525065 1_555
O3 V0 2.000935 1_565
O4 P0 1.548746 1_555
O4 V0 2.158110 1_656
O5 P1 1.551400 1_555
O6 P1 1.589462 1_545
O7 P1 1.536726 1_555
O7 V0 1.913729 1_665
F0 V0 1.903486 1_555
F0 Mn0 2.067447 1_555
F1 Mg0 1.926089 1_555
F1 V0 2.025101 1_666
F1 Mn0 2.385821 1_555
