# generated using pymatgen
data_CsMgMnP3HO10
_symmetry_space_group_name_H-M   'P 1'
_cell_length_a   6.90237336
_cell_length_b   6.94046829
_cell_length_c   6.71510043
_cell_angle_alpha   70.67242388
_cell_angle_beta   70.46741069
_cell_angle_gamma   84.56835442
_symmetry_Int_Tables_number   1
_chemical_formula_structural   CsMgMnP3HO10
_chemical_formula_sum   'Cs1 Mg1 Mn1 P3 H1 O10'
_cell_volume   286.04581659
_cell_formula_units_Z   1
loop_
 _symmetry_equiv_pos_site_id
 _symmetry_equiv_pos_as_xyz
  1  'x, y, z'
loop_
 _atom_site_type_symbol
 _atom_site_label
 _atom_site_symmetry_multiplicity
 _atom_site_fract_x
 _atom_site_fract_y
 _atom_site_fract_z
 _atom_site_occupancy
  Cs  Cs0  1  0.99439494  0.99689579  0.50476126  1
  Mg  Mg0  1  0.32378829  0.66998207  0.00512933  1
  Mn  Mn0  1  0.68813217  0.30920065  -0.00010251  1
  P  P0  1  0.59921173  0.40302318  0.49868526  1
  P  P1  1  0.20937947  0.42039869  0.85593214  1
  P  P2  1  0.57751276  0.78892330  0.14629243  1
  H  H0  1  0.07750464  0.94369195  0.99279528  1
  O  O0  1  0.71975041  0.35551566  0.65813644  1
  O  O1  1  0.64435441  0.28257119  0.33955130  1
  O  O2  1  0.18621435  0.65496110  0.79563018  1
  O  O3  1  0.34020901  0.80415184  0.21697386  1
  O  O4  1  0.69695175  0.98409728  0.07430008  1
  O  O5  1  0.01600587  0.29719429  0.92603938  1
  O  O6  1  0.63125814  0.67264501  0.97175451  1
  O  O7  1  0.35586174  0.37141861  0.63068767  1
  O  O8  1  0.63608499  0.64428882  0.36579187  1
  O  O9  1  0.32851734  0.36549358  0.02806052  1
loop_
_geom_bond_atom_site_label_1
_geom_bond_atom_site_label_2
_geom_bond_distance
_geom_bond_site_symmetry_2
Cs0 O3 3.040371 1_655
Cs0 O2 3.044039 1_655
Cs0 O0 3.216758 1_565
Cs0 O1 3.229393 1_565
Cs0 H0 3.409022 1_655
Cs0 H0 3.430169 1_654
Cs0 O6 3.510199 1_555
Cs0 O9 3.587478 1_665
Cs0 O4 3.661829 1_556
Cs0 O5 3.711919 1_664
Mg0 O2 1.975045 1_554
Mg0 O3 1.976944 1_555
Mg0 O6 2.059427 1_554
Mg0 O9 2.065352 1_555
Mn0 O4 2.143045 1_545
Mn0 O1 2.144351 1_555
Mn0 O0 2.146590 1_554
Mn0 O5 2.148414 1_654
Mn0 O9 2.429222 1_555
Mn0 O6 2.469674 1_554
O0 P0 1.502492 1_555
O1 P0 1.502416 1_555
O2 P1 1.548382 1_555
O3 P2 1.549172 1_555
O4 P2 1.503243 1_555
O5 P1 1.504582 1_555
O6 P2 1.562457 1_556
O7 P0 1.612653 1_555
O7 P1 1.636545 1_555
O8 P0 1.613924 1_555
O8 P2 1.638877 1_555
O9 P1 1.562742 1_554
