# generated using pymatgen
data_Sr8MgMn6O20
_symmetry_space_group_name_H-M   'P 1'
_cell_length_a   5.58749301
_cell_length_b   6.77474634
_cell_length_c   13.59833657
_cell_angle_alpha   90.60165944
_cell_angle_beta   89.99527949
_cell_angle_gamma   114.34764693
_symmetry_Int_Tables_number   1
_chemical_formula_structural   Sr8MgMn6O20
_chemical_formula_sum   'Sr8 Mg1 Mn6 O20'
_cell_volume   468.93698879
_cell_formula_units_Z   1
loop_
 _symmetry_equiv_pos_site_id
 _symmetry_equiv_pos_as_xyz
  1  'x, y, z'
loop_
 _atom_site_type_symbol
 _atom_site_label
 _atom_site_symmetry_multiplicity
 _atom_site_fract_x
 _atom_site_fract_y
 _atom_site_fract_z
 _atom_site_occupancy
  Sr  Sr0  1  0.22934800  0.45861800  0.14251300  1
  Sr  Sr1  1  0.77614400  0.55248400  0.82208000  1
  Sr  Sr2  1  0.73477100  0.46946200  0.38765200  1
  Sr  Sr3  1  0.26285300  0.52585400  0.61198500  1
  Sr  Sr4  1  0.97884400  0.95767900  0.63436100  1
  Sr  Sr5  1  0.02663600  0.05329700  0.36581900  1
  Sr  Sr6  1  0.50971000  0.01936500  0.15283000  1
  Sr  Sr7  1  0.48560000  0.97119200  0.85802400  1
  Mg  Mg0  1  0.72035900  0.44034900  0.02496900  1
  Mn  Mn0  1  0.62683000  0.25373500  0.64605500  1
  Mn  Mn1  1  0.36654700  0.73317400  0.35059500  1
  Mn  Mn2  1  0.86785800  0.73581900  0.16188200  1
  Mn  Mn3  1  0.14045500  0.28078300  0.84704000  1
  Mn  Mn4  1  0.49856000  0.99712500  0.49697000  1
  Mn  Mn5  1  0.00131300  0.00243600  0.00304400  1
  O  O0  1  0.37328600  0.23442200  0.74233600  1
  O  O1  1  0.13336700  0.76917200  0.25744400  1
  O  O2  1  0.63579200  0.76909200  0.25747200  1
  O  O3  1  0.86088100  0.23434200  0.74237500  1
  O  O4  1  0.15922800  0.77185600  0.45983600  1
  O  O5  1  0.37555400  0.21535300  0.53233900  1
  O  O6  1  0.37429900  0.24662100  0.96733400  1
  O  O7  1  0.08870800  0.72794800  0.05361800  1
  O  O8  1  0.83971700  0.21527700  0.53236700  1
  O  O9  1  0.61262200  0.77182000  0.45982800  1
  O  O10  1  0.63905000  0.72769900  0.05369300  1
  O  O11  1  0.87317300  0.24663700  0.96741300  1
  O  O12  1  0.78057800  0.56103300  0.64706500  1
  O  O13  1  0.21846400  0.43720400  0.33969200  1
  O  O14  1  0.02780800  0.05586900  0.14428700  1
  O  O15  1  0.97283800  0.94539800  0.86337200  1
  O  O16  1  0.46382700  0.92778600  0.63444000  1
  O  O17  1  0.71170500  0.42319300  0.17002400  1
  O  O18  1  0.28986300  0.57981000  0.82516900  1
  O  O19  1  0.53389100  0.06772600  0.35969900  1
loop_
_geom_bond_atom_site_label_1
_geom_bond_atom_site_label_2
_geom_bond_distance
_geom_bond_site_symmetry_2
Mg0 O17 1.976561 1_555
Mg0 O6 1.990419 1_554
Mg0 O11 1.991517 1_554
Mg0 O7 2.204930 1_655
Mg0 O10 2.204982 1_555
Mn0 O3 1.894364 1_555
Mn0 O0 1.894389 1_555
Mn0 O12 1.896598 1_555
Mn0 O16 2.016205 1_545
Mn0 O8 2.029679 1_555
Mn0 O5 2.030005 1_555
Mn1 O13 1.831096 1_555
Mn1 O1 1.905330 1_555
Mn1 O2 1.905340 1_555
Mn1 O4 1.964458 1_555
Mn1 O9 1.964876 1_555
Mn1 O19 2.067211 1_565
Mn2 O2 1.912167 1_555
Mn2 O1 1.912676 1_655
Mn2 O17 1.934035 1_555
Mn2 O10 1.934558 1_555
Mn2 O7 1.935279 1_655
Mn2 O14 1.992578 1_665
Mn3 O18 1.872835 1_555
Mn3 O0 2.036055 1_555
Mn3 O3 2.037305 1_455
Mn3 O15 2.084480 1_445
Mn3 O11 2.164695 1_455
Mn3 O6 2.166622 1_555
Mn4 O19 1.921715 1_565
Mn4 O16 1.922515 1_555
Mn4 O8 1.926621 1_565
Mn4 O5 1.926741 1_565
Mn4 O9 1.943448 1_555
Mn4 O4 1.943463 1_555
Mn5 O15 1.927678 1_444
Mn5 O14 1.945042 1_555
Mn5 O11 2.116131 1_454
Mn5 O6 2.118903 1_554
Mn5 O7 2.223767 1_545
Mn5 O10 2.226228 1_445
O0 Sr1 2.614929 1_555
O0 Sr7 2.651554 1_545
O0 Sr4 2.657809 1_445
O0 Sr3 2.915317 1_555
O1 Sr6 2.535708 1_565
O1 Sr5 2.668225 1_565
O1 Sr0 2.831577 1_555
O1 Sr2 2.926463 1_455
O2 Sr6 2.536075 1_565
O2 Sr5 2.668523 1_665
O2 Sr0 2.831657 1_555
O2 Sr2 2.925992 1_555
O3 Sr1 2.614699 1_555
O3 Sr7 2.650347 1_545
O3 Sr4 2.658117 1_545
O3 Sr3 2.916194 1_655
O4 Sr2 2.595599 1_455
O4 Sr5 2.652344 1_565
O4 Sr3 2.874322 1_555
O4 Sr4 3.035800 1_455
O5 Sr4 2.597159 1_445
O5 Sr3 2.653075 1_555
O5 Sr2 2.843357 1_555
O5 Sr5 2.883980 1_555
O6 Sr7 2.641302 1_545
O6 Sr0 3.046352 1_556
O7 Sr0 2.576208 1_555
O7 Sr6 2.714161 1_565
O8 Sr4 2.596755 1_545
O8 Sr3 2.653280 1_655
O8 Sr2 2.843553 1_555
O8 Sr5 2.883862 1_655
O9 Sr2 2.595277 1_555
O9 Sr5 2.652426 1_665
O9 Sr3 2.874679 1_555
O9 Sr4 3.036287 1_555
O10 Sr0 2.574352 1_555
O10 Sr6 2.713931 1_565
O11 Sr7 2.644756 1_545
O11 Sr0 3.043829 1_656
O12 Sr1 2.381104 1_555
O12 Sr4 2.456247 1_555
O12 Sr3 2.841259 1_655
O12 Sr3 2.842874 1_555
O13 Sr5 2.400073 1_555
O13 Sr0 2.686078 1_555
O13 Sr2 2.874200 1_455
O13 Sr2 2.876282 1_555
O14 Sr0 2.486244 1_555
O14 Sr6 2.804490 1_455
O14 Sr6 2.806172 1_555
O14 Sr5 3.012691 1_555
O15 Sr1 2.483009 1_555
O15 Sr7 2.798531 1_655
O15 Sr7 2.800012 1_555
O15 Sr4 3.115962 1_555
O16 Sr3 2.496044 1_555
O16 Sr4 2.799419 1_455
O16 Sr4 2.800248 1_555
O16 Sr7 3.049084 1_555
O17 Sr6 2.500776 1_555
O17 Sr0 2.827094 1_655
O17 Sr0 2.827872 1_555
O17 Sr2 2.969859 1_555
O18 Sr7 2.451605 1_555
O18 Sr1 2.798784 1_555
O18 Sr1 2.799454 1_455
O18 Sr3 2.914211 1_555
O19 Sr2 2.504243 1_555
O19 Sr5 2.796205 1_655
O19 Sr5 2.796664 1_555
O19 Sr6 2.825454 1_555
