# generated using pymatgen
data_MgCu2GeS4
_symmetry_space_group_name_H-M   'P 1'
_cell_length_a   5.46443145
_cell_length_b   5.46443083
_cell_length_c   6.52555748
_cell_angle_alpha   114.70489781
_cell_angle_beta   114.70489394
_cell_angle_gamma   89.99886258
_symmetry_Int_Tables_number   1
_chemical_formula_structural   MgCu2GeS4
_chemical_formula_sum   'Mg1 Cu2 Ge1 S4'
_cell_volume   157.17436481
_cell_formula_units_Z   1
loop_
 _symmetry_equiv_pos_site_id
 _symmetry_equiv_pos_as_xyz
  1  'x, y, z'
loop_
 _atom_site_type_symbol
 _atom_site_label
 _atom_site_symmetry_multiplicity
 _atom_site_fract_x
 _atom_site_fract_y
 _atom_site_fract_z
 _atom_site_occupancy
  Mg  Mg0  1  0.01565700  0.01565700  0.97060700  1
  Cu  Cu0  1  0.76018200  0.25524000  0.47134200  1
  Cu  Cu1  1  0.25524000  0.76018200  0.47134200  1
  Ge  Ge0  1  0.51228000  0.51228000  0.97194600  1
  S  S0  1  0.87642700  0.87642700  0.22876000  1
  S  S1  1  0.61224800  0.14436900  0.71038400  1
  S  S2  1  0.41109900  0.41109800  0.23606600  1
  S  S3  1  0.14436900  0.61224800  0.71038400  1
loop_
_geom_bond_atom_site_label_1
_geom_bond_atom_site_label_2
_geom_bond_distance
_geom_bond_site_symmetry_2
Mg0 S2 2.466131 1_556
Mg0 S3 2.471215 1_545
Mg0 S1 2.471215 1_455
Mg0 S0 2.477538 1_446
Cu0 S0 2.301231 1_545
Cu0 S1 2.301687 1_555
Cu0 S3 2.316354 1_655
Cu0 S2 2.316489 1_555
Cu1 S0 2.301231 1_455
Cu1 S3 2.301687 1_555
Cu1 S1 2.316354 1_565
Cu1 S2 2.316496 1_555
Ge0 S0 2.269979 1_556
Ge0 S1 2.272557 1_555
Ge0 S3 2.272557 1_555
Ge0 S2 2.274877 1_556
