# generated using pymatgen
data_Na10Ca3Zr5Si6(SO8)6
_symmetry_space_group_name_H-M   'P 1'
_cell_length_a   18.52504285
_cell_length_b   9.25835528
_cell_length_c   23.30636321
_cell_angle_alpha   89.81841020
_cell_angle_beta   89.92835537
_cell_angle_gamma   120.00250291
_symmetry_Int_Tables_number   1
_chemical_formula_structural   Na10Ca3Zr5Si6(SO8)6
_chemical_formula_sum   'Na30 Ca9 Zr15 Si18 S18 O144'
_cell_volume   3461.64671472
_cell_formula_units_Z   3
loop_
 _symmetry_equiv_pos_site_id
 _symmetry_equiv_pos_as_xyz
  1  'x, y, z'
loop_
 _atom_site_type_symbol
 _atom_site_label
 _atom_site_symmetry_multiplicity
 _atom_site_fract_x
 _atom_site_fract_y
 _atom_site_fract_z
 _atom_site_occupancy
  Na  Na0  1  0.31686938  0.99953402  0.24514172  1
  Na  Na1  1  0.19326208  0.36324554  0.24198497  1
  Na  Na2  1  0.69228293  0.37314239  0.24042179  1
  Na  Na3  1  0.99723841  0.64308297  0.25244481  1
  Na  Na4  1  0.31772704  0.61379037  0.75631164  1
  Na  Na5  1  0.81869380  0.62543968  0.75017443  1
  Na  Na6  1  0.99179257  0.35858004  0.75208135  1
  Na  Na7  1  0.49622022  0.37448063  0.74046921  1
  Na  Na8  1  0.18112442  0.01130661  0.74960988  1
  Na  Na9  1  0.68763230  0.01393738  0.75139046  1
  Na  Na10  1  0.64786363  0.34392843  0.57301253  1
  Na  Na11  1  0.32073548  0.67747443  0.07641330  1
  Na  Na12  1  0.82333286  0.68205512  0.08881048  1
  Na  Na13  1  0.16189970  0.32349152  0.92437434  1
  Na  Na14  1  -0.00003233  0.31272759  0.42087231  1
  Na  Na15  1  0.16252133  0.02548701  0.41944265  1
  Na  Na16  1  0.66287190  0.02342959  0.41339582  1
  Na  Na17  1  0.84165864  0.67598107  0.41899031  1
  Na  Na18  1  0.00236257  0.00505413  0.50027956  1
  Na  Na19  1  0.49383174  0.02022973  0.49574690  1
  Na  Na20  1  0.00657214  0.03324048  0.00071242  1
  Na  Na21  1  0.50244934  0.03349727  0.99540191  1
  Na  Na22  1  0.34618875  0.36179553  0.83518828  1
  Na  Na23  1  0.83909125  0.33516176  0.82828085  1
  Na  Na24  1  0.33571171  0.37028157  0.32662841  1
  Na  Na25  1  0.83290752  0.33857127  0.33043828  1
  Na  Na26  1  0.16908696  0.65621497  0.15848856  1
  Na  Na27  1  0.66293868  0.65917136  0.15859971  1
  Na  Na28  1  0.15992971  0.65808972  0.66286245  1
  Na  Na29  1  0.65444410  0.65912339  0.66070199  1
  Ca  Ca0  1  0.49641675  0.99697020  0.35183344  1
  Ca  Ca1  1  0.33653317  0.33991707  0.68209378  1
  Ca  Ca2  1  0.83556483  0.33559438  0.68676460  1
  Ca  Ca3  1  0.33232473  0.33822752  0.18413280  1
  Ca  Ca4  1  0.83192643  0.32876490  0.18264996  1
  Ca  Ca5  1  0.16451947  0.65617371  0.01445392  1
  Ca  Ca6  1  0.65883847  0.64731880  0.01463581  1
  Ca  Ca7  1  0.16210558  0.65662466  0.51552332  1
  Ca  Ca8  1  0.66675231  0.66503227  0.51713262  1
  Zr  Zr0  1  0.00010829  0.99196229  0.35193531  1
  Zr  Zr1  1  0.99756969  0.00279006  0.84967822  1
  Zr  Zr2  1  0.50158669  0.99766192  0.85552897  1
  Zr  Zr3  1  0.00075228  0.00112445  0.65337161  1
  Zr  Zr4  1  0.50301271  0.00894138  0.64770024  1
  Zr  Zr5  1  0.00673802  0.99784185  0.14835867  1
  Zr  Zr6  1  0.49995640  -0.00000319  0.14666092  1
  Zr  Zr7  1  0.33273316  0.34156047  0.97870053  1
  Zr  Zr8  1  0.82849102  0.32617238  0.98205046  1
  Zr  Zr9  1  0.33821608  0.33906061  0.48562545  1
  Zr  Zr10  1  0.83578163  0.33824513  0.47661170  1
  Zr  Zr11  1  0.17192100  0.66323771  0.31661446  1
  Zr  Zr12  1  0.67520850  0.67000636  0.31790975  1
  Zr  Zr13  1  0.15699905  0.64281268  0.82003105  1
  Zr  Zr14  1  0.65730985  0.65343069  0.81271580  1
  Si  Si0  1  0.14825067  0.99158009  0.25282701  1
  Si  Si1  1  0.35096315  0.70671583  0.25014016  1
  Si  Si2  1  0.85173790  0.70752810  0.24890529  1
  Si  Si3  1  0.14600725  0.29577933  0.75198074  1
  Si  Si4  1  0.64392554  0.29172086  0.75044548  1
  Si  Si5  1  0.00645291  0.71443683  0.75210265  1
  Si  Si6  1  0.50035862  0.71327948  0.75011701  1
  Si  Si7  1  0.85073978  0.99038485  0.75059147  1
  Si  Si8  1  0.48427660  0.32991998  0.58864177  1
  Si  Si9  1  0.18160450  0.32964405  0.08550737  1
  Si  Si10  1  0.68343464  0.33290460  0.08811330  1
  Si  Si11  1  0.31642594  0.66942428  0.91880855  1
  Si  Si12  1  0.01074689  0.35578554  0.91796458  1
  Si  Si13  1  0.51331705  0.36319290  0.91620547  1
  Si  Si14  1  0.81586805  0.96490550  0.41750034  1
  Si  Si15  1  0.16954515  0.36670439  0.41629902  1
  Si  Si16  1  0.66522790  0.36349190  0.42099682  1
  Si  Si17  1  0.02226796  0.66949174  0.41492936  1
  S  S0  1  0.64492881  0.98957328  0.25105901  1
  S  S1  1  0.00305520  0.29259202  0.25121629  1
  S  S2  1  0.50524882  0.29919431  0.24946294  1
  S  S3  1  0.35359321  0.99108328  0.75130078  1
  S  S4  1  0.98088382  0.32391861  0.58358999  1
  S  S5  1  0.18212433  0.03725529  0.58406107  1
  S  S6  1  0.68481034  0.04269199  0.58367659  1
  S  S7  1  0.33551158  0.63628895  0.58445731  1
  S  S8  1  0.83909989  0.63702386  0.58346439  1
  S  S9  1  0.48005824  0.63396493  0.08346323  1
  S  S10  1  0.97926429  0.63157328  0.08373859  1
  S  S11  1  0.33658733  0.03963212  0.08548009  1
  S  S12  1  0.83635823  0.03779467  0.08220905  1
  S  S13  1  0.81607882  0.66406321  0.91707327  1
  S  S14  1  0.16669919  0.96587746  0.91558076  1
  S  S15  1  0.66937183  0.96682275  0.91597792  1
  S  S16  1  0.31277469  0.96699705  0.41876122  1
  S  S17  1  0.51752793  0.65837947  0.41616033  1
  O  O0  1  0.09932123  0.01644485  0.30713419  1
  O  O1  1  0.61027688  0.01480661  0.30455158  1
  O  O2  1  0.40049289  0.80576366  0.30523979  1
  O  O3  1  0.90766280  0.81289069  0.30392234  1
  O  O4  1  0.49642128  0.20579227  0.30221093  1
  O  O5  1  0.99434853  0.19951524  0.30453447  1
  O  O6  1  0.09892594  0.18515933  0.80899625  1
  O  O7  1  0.59292378  0.16755345  0.80255313  1
  O  O8  1  0.48892763  0.81030039  0.80357633  1
  O  O9  1  0.99402860  0.80921350  0.80650587  1
  O  O10  1  0.40557075  0.01524091  0.80177244  1
  O  O11  1  0.91257075  0.01952363  0.80456237  1
  O  O12  1  0.39434023  0.97025740  0.69870694  1
  O  O13  1  0.89768797  0.96139517  0.69430145  1
  O  O14  1  0.08316743  0.20346612  0.69662329  1
  O  O15  1  0.58711915  0.20760163  0.69123289  1
  O  O16  1  0.01998451  0.83557845  0.69514401  1
  O  O17  1  0.51214320  0.82935954  0.69244952  1
  O  O18  1  0.39922521  0.82802636  0.19159466  1
  O  O19  1  0.89668131  0.81494320  0.18980308  1
  O  O20  1  0.01022172  0.20303737  0.20054345  1
  O  O21  1  0.51835754  0.21184129  0.19882070  1
  O  O22  1  0.08598950  0.97157842  0.19719986  1
  O  O23  1  0.59147437  0.97891338  0.20071257  1
  O  O24  1  0.44312529  0.33348437  0.64868475  1
  O  O25  1  0.93923341  0.33237157  0.63615400  1
  O  O26  1  0.22646105  0.11763981  0.63731520  1
  O  O27  1  0.73052944  0.12083872  0.63656214  1
  O  O28  1  0.32498224  0.54557082  0.63852827  1
  O  O29  1  0.83170773  0.54046518  0.63562023  1
  O  O30  1  0.44470043  0.53692542  0.13543031  1
  O  O31  1  0.94574245  0.54271046  0.13840843  1
  O  O32  1  0.33299805  0.11337918  0.14024175  1
  O  O33  1  0.83007963  0.11581811  0.13488368  1
  O  O34  1  0.23081562  0.34283427  0.14367530  1
  O  O35  1  0.73296483  0.35326520  0.14740742  1
  O  O36  1  0.23341938  0.31305893  0.02779212  1
  O  O37  1  0.73888438  0.31414887  0.03309281  1
  O  O38  1  0.42601957  0.54692449  0.03238866  1
  O  O39  1  0.92313442  0.53459926  0.03490014  1
  O  O40  1  0.34556956  0.14777128  0.03566994  1
  O  O41  1  0.84489081  0.14577616  0.03101292  1
  O  O42  1  0.22940853  0.14430047  0.53227756  1
  O  O43  1  0.73011730  0.15063052  0.53231855  1
  O  O44  1  0.34163709  0.53679413  0.53465825  1
  O  O45  1  0.84468217  0.54434373  0.53143553  1
  O  O46  1  0.42093669  0.32018173  0.53359595  1
  O  O47  1  0.93039596  0.31583296  0.53136353  1
  O  O48  1  0.28376454  0.69857991  0.97814753  1
  O  O49  1  0.78163475  0.69177318  0.96948705  1
  O  O50  1  0.07631294  0.43932706  0.96800686  1
  O  O51  1  0.56878683  0.43679008  0.97138068  1
  O  O52  1  0.15557625  0.86779138  0.96633732  1
  O  O53  1  0.66029992  0.87049611  0.96684446  1
  O  O54  1  0.27393223  0.86640908  0.46869083  1
  O  O55  1  0.78229122  0.84331667  0.47097902  1
  O  O56  1  0.14140489  0.43902520  0.46814239  1
  O  O57  1  0.65723504  0.44108621  0.47953874  1
  O  O58  1  0.08468008  0.73045455  0.46734482  1
  O  O59  1  0.56780207  0.68337882  0.46738796  1
  O  O60  1  0.06188432  0.62900186  0.35730374  1
  O  O61  1  0.55805762  0.63456553  0.36406684  1
  O  O62  1  0.26101946  0.88628291  0.36511798  1
  O  O63  1  0.75038745  0.87459814  0.36205070  1
  O  O64  1  0.18304024  0.48277293  0.35722900  1
  O  O65  1  0.67963723  0.49174401  0.36424495  1
  O  O66  1  0.05373443  0.46858171  0.85683488  1
  O  O67  1  0.56063277  0.48641978  0.85848292  1
  O  O68  1  0.17549349  0.88415354  0.86218196  1
  O  O69  1  0.68013154  0.88857898  0.86266085  1
  O  O70  1  0.25149379  0.63941565  0.86321855  1
  O  O71  1  0.76349999  0.64349022  0.86547002  1
  O  O72  1  0.99610983  0.81488324  0.40600503  1
  O  O73  1  0.50843439  0.80662581  0.40963819  1
  O  O74  1  0.39884894  0.00004424  0.41236366  1
  O  O75  1  0.91160740  0.00963106  0.40409258  1
  O  O76  1  0.08787781  0.17729422  0.40588625  1
  O  O77  1  0.59505502  0.17063728  0.41370264  1
  O  O78  1  0.00303363  0.17031268  0.91066267  1
  O  O79  1  0.50019106  0.17677888  0.90416316  1
  O  O80  1  0.09409730  0.99472583  0.90987040  1
  O  O81  1  0.59581390  0.99025560  0.90999736  1
  O  O82  1  0.41030655  0.81983440  0.90549415  1
  O  O83  1  0.90181590  0.80705673  0.90887505  1
  O  O84  1  0.49010685  0.15319963  0.58445762  1
  O  O85  1  0.98617673  0.16719151  0.58334824  1
  O  O86  1  0.09845431  0.02770719  0.58341577  1
  O  O87  1  0.60214693  0.03938921  0.58471767  1
  O  O88  1  0.41533867  0.79960015  0.58458724  1
  O  O89  1  0.91687940  0.80336658  0.58412211  1
  O  O90  1  0.47873812  0.79769814  0.08732485  1
  O  O91  1  0.97590228  0.79330192  0.08488930  1
  O  O92  1  0.41490800  0.02162971  0.08607768  1
  O  O93  1  0.91322020  0.02085304  0.08352500  1
  O  O94  1  0.08659728  0.15500868  0.08813455  1
  O  O95  1  0.59011401  0.15889954  0.09087301  1
  O  O96  1  0.34096876  0.13640616  0.74663046  1
  O  O97  1  0.84042973  0.15298949  0.74741131  1
  O  O98  1  0.23634660  0.31032333  0.74857776  1
  O  O99  1  0.73673227  0.31808026  0.74757406  1
  O  O100  1  0.42131826  0.52526863  0.74994583  1
  O  O101  1  0.92644600  0.52938908  0.74807105  1
  O  O102  1  0.33414769  0.51898916  0.24783871  1
  O  O103  1  0.84557439  0.52453579  0.25222064  1
  O  O104  1  0.43045168  0.31182046  0.24127990  1
  O  O105  1  0.93249505  0.32348465  0.24681898  1
  O  O106  1  0.24206930  0.14603649  0.25111438  1
  O  O107  1  0.72962064  0.13652405  0.24459767  1
  O  O108  1  0.31582438  0.48613446  0.92081514  1
  O  O109  1  0.82243408  0.50760097  0.92221325  1
  O  O110  1  0.41988000  0.34604309  0.92332303  1
  O  O111  1  0.91915168  0.34286074  0.92576155  1
  O  O112  1  0.24341381  0.13623985  0.91886412  1
  O  O113  1  0.74583866  0.13854505  0.92004544  1
  O  O114  1  0.31430065  0.13232224  0.42298139  1
  O  O115  1  0.81952757  0.14741750  0.42526671  1
  O  O116  1  0.25105927  0.34038800  0.42625921  1
  O  O117  1  0.75871339  0.36766012  0.42263466  1
  O  O118  1  0.43216340  0.50487553  0.42213494  1
  O  O119  1  0.93100235  0.49496946  0.42580107  1
  O  O120  1  0.17562593  0.49857656  0.08251105  1
  O  O121  1  0.68075522  0.50481702  0.08204706  1
  O  O122  1  0.06470160  0.66895162  0.07592456  1
  O  O123  1  0.56634116  0.67317213  0.07608509  1
  O  O124  1  0.26387150  0.87087328  0.08055811  1
  O  O125  1  0.76322495  0.86979952  0.07592968  1
  O  O126  1  0.17336442  0.87156533  0.57978220  1
  O  O127  1  0.67166897  0.87445882  0.57816448  1
  O  O128  1  0.26426416  0.66176249  0.57692593  1
  O  O129  1  0.76399555  0.65222902  0.57997164  1
  O  O130  1  0.06447149  0.47249198  0.58121503  1
  O  O131  1  0.57853098  0.48639880  0.58458180  1
  O  O132  1  0.14633875  0.81220558  0.25744224  1
  O  O133  1  0.64834246  0.83212462  0.25285458  1
  O  O134  1  0.25620789  0.69725291  0.25185382  1
  O  O135  1  0.75530437  0.67919616  0.25585005  1
  O  O136  1  0.08288931  0.45835853  0.25293538  1
  O  O137  1  0.58276906  0.46770879  0.25205365  1
  O  O138  1  0.15442767  0.48354958  0.75575959  1
  O  O139  1  0.64989973  0.47626599  0.75651705  1
  O  O140  1  0.09512499  0.71079621  0.75681503  1
  O  O141  1  0.58935509  0.70878766  0.75625656  1
  O  O142  1  0.27038837  0.83580483  0.75600314  1
  O  O143  1  0.76105192  0.81872403  0.75943737  1
loop_
_geom_bond_atom_site_label_1
_geom_bond_atom_site_label_2
_geom_bond_distance
_geom_bond_site_symmetry_2
Na0 O106 2.378984 1_565
Na0 O134 2.443600 1_555
Na0 O104 2.590107 1_565
Na0 O32 2.616170 1_565
Na0 O132 2.754123 1_555
Na0 O18 2.972700 1_555
Na0 O62 2.979581 1_555
Na1 O102 2.268911 1_555
Na1 O34 2.428930 1_555
Na1 O106 2.592884 1_555
Na1 O136 2.611890 1_555
Na1 O134 2.715567 1_555
Na1 O64 2.949878 1_555
Na2 O35 2.332048 1_555
Na2 O103 2.475500 1_555
Na2 O135 2.494089 1_555
Na2 O137 2.594679 1_555
Na2 O107 2.607920 1_555
Na3 O132 2.402330 1_655
Na3 O103 2.452464 1_555
Na3 O105 2.581626 1_555
Na3 O60 2.754116 1_655
Na3 O31 2.823615 1_555
Na3 O136 2.855939 1_655
Na3 O22 2.929131 1_655
Na4 O100 2.439125 1_555
Na4 O98 2.442751 1_555
Na4 O142 2.607058 1_555
Na4 O138 2.637751 1_555
Na4 O28 2.836817 1_555
Na4 O70 2.838503 1_555
Na4 O8 2.972008 1_555
Na5 O99 2.467196 1_555
Na5 O143 2.510380 1_555
Na5 O101 2.559869 1_555
Na5 O139 2.717635 1_555
Na5 O29 2.829575 1_555
Na5 O71 2.908754 1_555
Na5 O13 2.988190 1_555
Na6 O101 2.426703 1_555
Na6 O97 2.482292 1_555
Na6 O138 2.634058 1_655
Na6 O66 2.677407 1_655
Na6 O140 2.840834 1_655
Na6 O25 2.842766 1_555
Na6 O11 2.977882 1_555
Na6 O14 3.005947 1_655
Na7 O24 2.307503 1_555
Na7 O100 2.421054 1_555
Na7 O139 2.540620 1_555
Na7 O96 2.609177 1_555
Na7 O141 2.712982 1_555
Na7 O67 2.975319 1_555
Na7 O15 3.024521 1_555
Na8 O140 2.422944 1_545
Na8 O98 2.424540 1_555
Na8 O96 2.585272 1_555
Na8 O26 2.770465 1_555
Na8 O142 2.843062 1_545
Na8 O68 2.852577 1_545
Na8 O16 2.887016 1_545
Na9 O97 2.456095 1_555
Na9 O141 2.482466 1_545
Na9 O99 2.490200 1_555
Na9 O143 2.758340 1_545
Na9 O69 2.812528 1_545
Na9 O27 2.822162 1_555
Na10 O131 2.271104 1_555
Na10 O57 2.327176 1_555
Na10 O87 2.519509 1_555
Na10 O84 2.562060 1_555
Na10 O129 2.581586 1_555
Na11 O120 2.352562 1_555
Na11 O48 2.426371 1_554
Na11 O124 2.492440 1_555
Na11 O90 2.572237 1_555
Na11 O92 2.773662 1_565
Na12 O121 2.315594 1_555
Na12 O91 2.478902 1_555
Na12 O125 2.506897 1_555
Na12 O19 2.693457 1_555
Na12 O93 2.720369 1_565
Na12 O49 2.900347 1_554
Na13 O108 2.471782 1_555
Na13 O50 2.530106 1_555
Na13 O78 2.570178 1_555
Na13 O80 2.672251 1_545
Na13 O36 2.776455 1_556
Na13 O112 2.814477 1_555
Na13 O70 2.907608 1_555
Na13 O6 2.961019 1_555
Na14 O75 2.474221 1_455
Na14 O76 2.527823 1_555
Na14 O56 2.529329 1_555
Na14 O119 2.578548 1_455
Na14 O47 2.884874 1_455
Na14 O5 2.893239 1_455
Na14 O115 2.899676 1_455
Na14 O60 2.948595 1_555
Na15 O76 2.434989 1_555
Na15 O114 2.471979 1_555
Na15 O116 2.537066 1_555
Na15 O58 2.612364 1_545
Na15 O72 2.720000 1_445
Na15 O0 2.853085 1_555
Na15 O42 2.885210 1_555
Na15 O62 2.991639 1_545
Na16 O77 2.268978 1_555
Na16 O73 2.545675 1_545
Na16 O115 2.547277 1_555
Na16 O1 2.705647 1_555
Na16 O117 2.775269 1_555
Na16 O63 2.863358 1_545
Na16 O59 3.003543 1_545
Na16 O43 3.030343 1_555
Na17 O117 2.475537 1_555
Na17 O72 2.499500 1_555
Na17 O55 2.605837 1_555
Na17 O75 2.707557 1_565
Na17 O119 2.888942 1_555
Na17 O45 2.899117 1_555
Na17 O65 2.906805 1_555
Na17 O3 2.951976 1_555
Na18 O85 2.560976 1_455
Na18 O86 2.569998 1_555
Na18 O89 2.612429 1_445
Na18 O76 2.708326 1_555
Na18 O72 2.786081 1_445
Na18 O75 2.816731 1_455
Na19 O84 2.428109 1_555
Na19 O77 2.544493 1_555
Na19 O74 2.567026 1_555
Na19 O88 2.751225 1_545
Na19 O87 2.830939 1_555
Na19 O73 2.927550 1_545
Na20 O94 2.443512 1_555
Na20 O78 2.467013 1_554
Na20 O93 2.553592 1_455
Na20 O80 2.795183 1_544
Na20 O91 2.795323 1_445
Na20 O83 2.950789 1_444
Na21 O79 2.514179 1_555
Na21 O92 2.630570 1_556
Na21 O95 2.660094 1_556
Na21 O81 2.793319 1_545
Na21 O82 2.806412 1_545
Na21 O90 2.925362 1_546
Na22 O100 2.458062 1_555
Na22 O108 2.506705 1_555
Na22 O110 2.511655 1_555
Na22 O98 2.736583 1_555
Na22 O112 2.788849 1_555
Na22 O96 2.906844 1_555
Na23 O101 2.531389 1_555
Na23 O97 2.541559 1_555
Na23 O99 2.620992 1_555
Na23 O111 2.696310 1_555
Na23 O113 2.773655 1_555
Na23 O109 2.819553 1_555
Na24 O102 2.300519 1_555
Na24 O106 2.616501 1_555
Na24 O116 2.735035 1_555
Na24 O118 2.738772 1_555
Na24 O104 2.877163 1_555
Na24 O114 3.024304 1_555
Na25 O103 2.432614 1_555
Na25 O117 2.635392 1_555
Na25 O105 2.733410 1_555
Na25 O115 2.759208 1_555
Na25 O107 2.759824 1_555
Na25 O119 2.781672 1_555
Na26 O120 2.339439 1_555
Na26 O124 2.609779 1_555
Na26 O134 2.623903 1_555
Na26 O122 2.773442 1_555
Na26 O136 2.791250 1_555
Na26 O132 2.865219 1_555
Na27 O121 2.412633 1_555
Na27 O123 2.675144 1_555
Na27 O125 2.703820 1_555
Na27 O137 2.725159 1_555
Na27 O135 2.791868 1_555
Na27 O133 2.813651 1_555
Na28 O130 2.586716 1_555
Na28 O140 2.657097 1_555
Na28 O138 2.668686 1_555
Na28 O126 2.683298 1_555
Na28 O128 2.769930 1_555
Na28 O142 2.876328 1_555
Na29 O131 2.336127 1_555
Na29 O127 2.667366 1_555
Na29 O141 2.679408 1_555
Na29 O139 2.773620 1_555
Na29 O129 2.789918 1_555
Na29 O143 2.914368 1_555
Ca0 O2 2.083698 1_555
Ca0 O4 2.249676 1_565
Ca0 O77 2.255314 1_565
Ca0 O74 2.302865 1_565
Ca0 O1 2.309825 1_565
Ca0 O73 2.312626 1_555
Ca1 O24 2.150123 1_555
Ca1 O28 2.257820 1_555
Ca1 O100 2.289200 1_555
Ca1 O26 2.303132 1_555
Ca1 O98 2.324258 1_555
Ca1 O96 2.440577 1_555
Ca2 O97 2.236453 1_555
Ca2 O99 2.254362 1_555
Ca2 O101 2.257553 1_555
Ca2 O25 2.265453 1_555
Ca2 O29 2.268279 1_555
Ca2 O27 2.293406 1_555
Ca3 O34 2.124013 1_555
Ca3 O102 2.228402 1_555
Ca3 O30 2.270958 1_555
Ca3 O106 2.323635 1_555
Ca3 O32 2.327999 1_555
Ca3 O104 2.363594 1_555
Ca4 O35 2.122603 1_555
Ca4 O33 2.252560 1_555
Ca4 O31 2.288485 1_555
Ca4 O107 2.334008 1_555
Ca4 O103 2.353628 1_555
Ca4 O105 2.409886 1_555
Ca5 O50 2.147072 1_554
Ca5 O48 2.208118 1_554
Ca5 O120 2.230150 1_555
Ca5 O52 2.331262 1_554
Ca5 O122 2.387259 1_555
Ca5 O124 2.465764 1_555
Ca6 O51 2.088837 1_554
Ca6 O121 2.213149 1_555
Ca6 O53 2.332419 1_554
Ca6 O123 2.334679 1_555
Ca6 O49 2.346555 1_554
Ca6 O125 2.462731 1_555
Ca7 O56 2.160483 1_555
Ca7 O58 2.182878 1_555
Ca7 O54 2.283038 1_555
Ca7 O130 2.326914 1_555
Ca7 O128 2.355617 1_555
Ca7 O126 2.418906 1_555
Ca8 O57 2.178064 1_555
Ca8 O55 2.216431 1_555
Ca8 O59 2.246894 1_555
Ca8 O131 2.269656 1_555
Ca8 O129 2.371323 1_555
Ca8 O127 2.373248 1_555
O0 Si0 1.638369 1_545
O0 Zr0 2.024022 1_545
O1 S0 1.473356 1_545
O2 Si1 1.581407 1_555
O3 Si2 1.633894 1_555
O3 Zr0 2.027502 1_655
O4 S2 1.461918 1_555
O5 S1 1.471905 1_655
O5 Zr0 2.261917 1_645
O6 Si3 1.634176 1_555
O6 Zr1 2.022425 1_455
O7 Si4 1.609701 1_555
O7 Zr2 2.045063 1_545
O8 Si6 1.612680 1_555
O8 Zr2 2.034045 1_555
O9 Si5 1.624473 1_655
O9 Zr1 2.030450 1_565
O10 S3 1.466290 1_545
O10 Zr2 2.248051 1_545
O11 Si7 1.632090 1_545
O11 Zr1 1.963694 1_555
O12 S3 1.501404 1_555
O12 Zr4 2.205570 1_565
O13 Si7 1.668051 1_555
O13 Zr3 1.995362 1_665
O14 Si3 1.663105 1_555
O14 Zr3 2.003000 1_555
O15 Si4 1.676084 1_555
O15 Zr4 1.997433 1_555
O16 Si5 1.670801 1_555
O16 Zr3 1.990324 1_565
O17 Si6 1.662685 1_555
O17 Zr4 2.037493 1_565
O18 Si1 1.704581 1_555
O18 Zr6 2.031528 1_565
O19 Si2 1.655288 1_555
O19 Zr5 2.118769 1_655
O20 S1 1.488536 1_555
O20 Zr5 2.232659 1_545
O21 S2 1.519164 1_555
O21 Zr6 2.188231 1_555
O22 Si0 1.684365 1_555
O22 Zr5 1.967166 1_555
O23 S0 1.507673 1_555
O23 Zr6 2.198659 1_565
O24 Si8 1.601029 1_555
O25 S4 1.469999 1_555
O26 S5 1.471750 1_555
O27 S6 1.468148 1_555
O28 S7 1.469834 1_555
O29 S8 1.471666 1_555
O30 S9 1.451110 1_555
O31 S10 1.471873 1_555
O32 S11 1.466372 1_555
O33 S12 1.460058 1_555
O34 Si9 1.605203 1_555
O35 Si10 1.618335 1_555
O36 Si9 1.702879 1_555
O36 Zr7 2.066602 1_554
O37 Si10 1.704752 1_555
O37 Zr8 1.998119 1_554
O38 S9 1.506912 1_555
O38 Zr7 2.213975 1_554
O39 S10 1.502895 1_555
O39 Zr8 2.225259 1_554
O40 S11 1.484347 1_555
O40 Zr7 2.334711 1_554
O41 S12 1.510660 1_555
O41 Zr8 2.163377 1_554
O42 S5 1.525663 1_555
O42 Zr9 2.200850 1_555
O43 S6 1.512262 1_555
O43 Zr10 2.261283 1_555
O44 S7 1.522980 1_555
O44 Zr9 2.135131 1_555
O45 S8 1.520658 1_555
O45 Zr10 2.236544 1_555
O46 Si8 1.711582 1_555
O46 Zr9 1.974762 1_555
O47 S4 1.515049 1_555
O47 Zr10 2.260777 1_555
O48 Si11 1.585934 1_555
O49 S13 1.459093 1_555
O50 Si12 1.582253 1_555
O51 Si13 1.575583 1_555
O52 S14 1.439428 1_555
O53 S15 1.439428 1_555
O54 S16 1.435293 1_555
O55 Si14 1.580042 1_555
O56 Si15 1.591430 1_555
O57 Si16 1.584831 1_555
O58 Si17 1.582074 1_555
O59 S17 1.461291 1_555
O60 Si17 1.660951 1_555
O60 Zr11 2.121812 1_555
O61 S17 1.500454 1_555
O61 Zr12 2.292282 1_555
O62 S16 1.527460 1_555
O62 Zr11 2.208470 1_555
O63 Si14 1.684369 1_555
O63 Zr12 1.990880 1_555
O64 Si15 1.683356 1_555
O64 Zr11 2.016106 1_555
O65 Si16 1.703773 1_555
O65 Zr12 2.005278 1_555
O66 Si12 1.706044 1_555
O66 Zr13 1.974437 1_555
O67 Si13 1.693215 1_555
O67 Zr14 1.987827 1_555
O68 S14 1.508849 1_555
O68 Zr13 2.307434 1_555
O69 S15 1.502701 1_555
O69 Zr14 2.317377 1_555
O70 Si11 1.695473 1_555
O70 Zr13 2.034134 1_555
O71 S13 1.500099 1_555
O71 Zr14 2.361427 1_555
O72 Si17 1.655549 1_655
O72 Zr0 2.036312 1_655
O73 S17 1.471482 1_555
O74 S16 1.472950 1_545
O75 Si14 1.636463 1_545
O75 Zr0 2.111120 1_645
O76 Si15 1.665326 1_555
O76 Zr0 2.097048 1_545
O77 Si16 1.608746 1_555
O78 Si12 1.659697 1_555
O78 Zr1 2.072027 1_455
O79 Si13 1.643207 1_555
O79 Zr2 2.022432 1_545
O80 S14 1.502471 1_555
O80 Zr1 2.304409 1_465
O81 S15 1.489726 1_555
O81 Zr2 2.188130 1_555
O82 Si11 1.622957 1_555
O82 Zr2 2.030953 1_555
O83 S13 1.485462 1_555
O83 Zr1 2.257705 1_565
O84 Si8 1.695830 1_555
O84 Zr4 2.078764 1_555
O85 S4 1.502493 1_555
O85 Zr3 2.345337 1_655
O86 S5 1.507829 1_555
O86 Zr3 2.353569 1_555
O87 S6 1.516446 1_555
O87 Zr4 2.253817 1_555
O88 S7 1.495633 1_555
O88 Zr4 2.331079 1_565
O89 S8 1.493029 1_555
O89 Zr3 2.356105 1_665
O90 S9 1.531204 1_555
O90 Zr6 2.203727 1_565
O91 S10 1.529753 1_555
O91 Zr5 2.244685 1_655
O92 S11 1.541086 1_555
O92 Zr6 2.198958 1_555
O93 S12 1.508769 1_555
O93 Zr5 2.388205 1_645
O94 Si9 1.693750 1_555
O94 Zr5 2.026098 1_545
O95 Si10 1.673890 1_555
O95 Zr6 2.041944 1_555
O96 S3 1.480067 1_545
O97 Si7 1.610974 1_545
O98 Si3 1.612264 1_555
O99 Si4 1.612407 1_555
O100 Si6 1.620197 1_555
O101 Si5 1.613276 1_655
O102 Si1 1.606200 1_555
O103 Si2 1.641657 1_555
O104 S2 1.460304 1_555
O105 S1 1.474765 1_655
O106 Si0 1.606573 1_545
O107 S0 1.482770 1_545
O108 Si11 1.691915 1_555
O108 Zr7 2.029464 1_555
O109 S13 1.515287 1_555
O109 Zr8 2.225531 1_555
O110 Si13 1.665260 1_555
O110 Zr7 2.049689 1_555
O111 Si12 1.650006 1_655
O111 Zr8 2.073479 1_555
O112 S14 1.507525 1_545
O112 Zr7 2.274463 1_555
O113 S15 1.514025 1_545
O113 Zr8 2.193580 1_555
O114 S16 1.520204 1_545
O114 Zr9 2.272176 1_555
O115 Si14 1.667351 1_545
O115 Zr10 2.031344 1_555
O116 Si15 1.661919 1_555
O116 Zr9 2.132307 1_555
O117 Si16 1.713328 1_555
O117 Zr10 2.021439 1_555
O118 S17 1.513448 1_555
O118 Zr9 2.209629 1_555
O119 Si17 1.672649 1_655
O119 Zr10 2.010851 1_555
O120 Si9 1.623551 1_555
O121 Si10 1.622753 1_555
O122 S10 1.452265 1_455
O123 S9 1.461118 1_555
O124 S11 1.471597 1_565
O125 S12 1.473302 1_565
O126 S5 1.463400 1_565
O127 S6 1.457363 1_565
O128 S7 1.462904 1_555
O129 S8 1.469108 1_555
O130 S4 1.470405 1_455
O131 Si8 1.620332 1_555
O132 Si0 1.646459 1_555
O132 Zr11 2.161461 1_555
O133 S0 1.490804 1_555
O133 Zr12 2.352433 1_555
O134 Si1 1.713625 1_555
O134 Zr11 2.077167 1_555
O135 Si2 1.678312 1_555
O135 Zr12 2.041684 1_555
O136 S1 1.508256 1_555
O136 Zr11 2.327258 1_555
O137 S2 1.503394 1_555
O137 Zr12 2.369269 1_555
O138 Si3 1.668557 1_555
O138 Zr13 2.089068 1_555
O139 Si4 1.662527 1_555
O139 Zr14 2.052732 1_555
O140 Si5 1.663523 1_555
O140 Zr13 2.144889 1_555
O141 Si6 1.676131 1_555
O141 Zr14 2.055238 1_555
O142 S3 1.495694 1_555
O142 Zr13 2.460381 1_555
O143 Si7 1.638643 1_555
O143 Zr14 2.148945 1_555
