# generated using pymatgen
data_Na2ZnO2
_symmetry_space_group_name_H-M   'P 1'
_cell_length_a   5.94898646
_cell_length_b   5.67258095
_cell_length_c   7.67638684
_cell_angle_alpha   84.92702467
_cell_angle_beta   90.00000000
_cell_angle_gamma   90.00000000
_symmetry_Int_Tables_number   1
_chemical_formula_structural   Na2ZnO2
_chemical_formula_sum   'Na8 Zn4 O8'
_cell_volume   258.03345168
_cell_formula_units_Z   4
loop_
 _symmetry_equiv_pos_site_id
 _symmetry_equiv_pos_as_xyz
  1  'x, y, z'
loop_
 _atom_site_type_symbol
 _atom_site_label
 _atom_site_symmetry_multiplicity
 _atom_site_fract_x
 _atom_site_fract_y
 _atom_site_fract_z
 _atom_site_occupancy
  Na  Na0  1  0.74232176  0.00901892  0.97221356  1
  Na  Na1  1  0.24232176  0.49098108  0.02778644  1
  Na  Na2  1  0.25767824  0.99098108  0.02778644  1
  Na  Na3  1  0.75767824  0.50901892  0.97221356  1
  Na  Na4  1  0.35406604  0.43133131  0.67530081  1
  Na  Na5  1  0.85406604  0.06866869  0.32469919  1
  Na  Na6  1  0.64593396  0.56866869  0.32469919  1
  Na  Na7  1  0.14593396  0.93133131  0.67530081  1
  Zn  Zn0  1  0.60671025  0.85681515  0.63549926  1
  Zn  Zn1  1  0.10671025  0.64318485  0.36450074  1
  Zn  Zn2  1  0.39328975  0.14318485  0.36450074  1
  Zn  Zn3  1  0.89328975  0.35681515  0.63549926  1
  O  O0  1  0.03608807  0.25199093  0.85205467  1
  O  O1  1  0.53608807  0.24800907  0.14794533  1
  O  O2  1  0.96391193  0.74800907  0.14794533  1
  O  O3  1  0.46391193  0.75199093  0.85205467  1
  O  O4  1  0.87845413  0.70202611  0.56084912  1
  O  O5  1  0.37845413  0.79797389  0.43915088  1
  O  O6  1  0.12154587  0.29797389  0.43915088  1
  O  O7  1  0.62154587  0.20202611  0.56084912  1
loop_
_geom_bond_atom_site_label_1
_geom_bond_atom_site_label_2
_geom_bond_distance
_geom_bond_site_symmetry_2
Na0 O2 2.323029 1_546
Na0 O1 2.342289 1_556
Na0 O0 2.362153 1_655
Na0 O3 2.440823 1_545
Na1 O3 2.323029 1_554
Na1 O0 2.342289 1_554
Na1 O1 2.362153 1_555
Na1 O2 2.440823 1_455
Na2 O0 2.323029 1_564
Na2 O3 2.342289 1_554
Na2 O2 2.362153 1_455
Na2 O1 2.440823 1_565
Na3 O1 2.323029 1_556
Na3 O2 2.342289 1_556
Na3 O3 2.362153 1_555
Na3 O0 2.440823 1_655
Na4 O7 2.279908 1_555
Na4 O3 2.452168 1_555
Na4 O6 2.452418 1_555
Na4 O0 2.492018 1_555
Na4 O5 2.639330 1_555
Na5 O6 2.279908 1_655
Na5 O2 2.452168 1_545
Na5 O7 2.452418 1_555
Na5 O1 2.492018 1_555
Na5 O4 2.639330 1_545
Na6 O5 2.279908 1_555
Na6 O1 2.452168 1_555
Na6 O4 2.452418 1_555
Na6 O2 2.492018 1_555
Na6 O7 2.639330 1_555
Na7 O4 2.279908 1_455
Na7 O0 2.452168 1_565
Na7 O5 2.452418 1_555
Na7 O3 2.492018 1_555
Na7 O6 2.639330 1_565
O0 Zn3 1.914125 1_455
O1 Zn2 1.914125 1_555
O2 Zn1 1.914125 1_655
O3 Zn0 1.914125 1_555
O4 Zn0 1.949805 1_555
O4 Zn3 1.993090 1_555
O4 Zn1 2.077509 1_655
O5 Zn1 1.949805 1_555
O5 Zn2 1.993090 1_565
O5 Zn0 2.077509 1_555
O6 Zn2 1.949805 1_555
O6 Zn1 1.993090 1_555
O6 Zn3 2.077509 1_455
O7 Zn3 1.949805 1_555
O7 Zn0 1.993090 1_545
O7 Zn2 2.077509 1_555
