# generated using pymatgen
data_MgFe12(OF)12
_symmetry_space_group_name_H-M   'P 1'
_cell_length_a   9.70505041
_cell_length_b   14.55324239
_cell_length_c   3.13226000
_cell_angle_alpha   90.00000000
_cell_angle_beta   90.00000000
_cell_angle_gamma   94.34762173
_symmetry_Int_Tables_number   1
_chemical_formula_structural   MgFe12(OF)12
_chemical_formula_sum   'Mg1 Fe12 O12 F12'
_cell_volume   441.12722909
_cell_formula_units_Z   1
loop_
 _symmetry_equiv_pos_site_id
 _symmetry_equiv_pos_as_xyz
  1  'x, y, z'
loop_
 _atom_site_type_symbol
 _atom_site_label
 _atom_site_symmetry_multiplicity
 _atom_site_fract_x
 _atom_site_fract_y
 _atom_site_fract_z
 _atom_site_occupancy
  Mg  Mg0  1  0.74579900  0.31365400  0.00000000  1
  Fe  Fe0  1  0.03868900  0.99548200  0.00000000  1
  Fe  Fe1  1  0.05248800  0.31018200  0.00000000  1
  Fe  Fe2  1  0.98745500  0.67496900  0.00000000  1
  Fe  Fe3  1  0.26071200  0.16098500  0.50000000  1
  Fe  Fe4  1  0.21453000  0.49851500  0.50000000  1
  Fe  Fe5  1  0.26174200  0.85231100  0.50000000  1
  Fe  Fe6  1  0.46016200  0.37467500  0.00000000  1
  Fe  Fe7  1  0.51594600  0.99551700  0.00000000  1
  Fe  Fe8  1  0.49590900  0.67645100  0.00000000  1
  Fe  Fe9  1  0.75710400  0.08032300  0.50000000  1
  Fe  Fe10  1  0.69716900  0.51965600  0.50000000  1
  Fe  Fe11  1  0.73058200  0.83491200  0.50000000  1
  O  O0  1  0.13933300  0.26499300  0.50000000  1
  O  O1  1  0.11452600  0.92992500  0.50000000  1
  O  O2  1  0.18725100  0.10077800  0.00000000  1
  O  O3  1  0.12738300  0.43763200  0.00000000  1
  O  O4  1  0.36588300  0.90149900  0.00000000  1
  O  O5  1  0.37473400  0.41811200  0.50000000  1
  O  O6  1  0.63072800  0.95502400  0.50000000  1
  O  O7  1  0.56205800  0.61616200  0.50000000  1
  O  O8  1  0.65692500  0.10545000  0.00000000  1
  O  O9  1  0.64233300  0.42889900  0.00000000  1
  O  O10  1  0.63493900  0.78192900  0.00000000  1
  O  O11  1  0.93641500  0.04894400  0.50000000  1
  F  F0  1  0.08533800  0.60275000  0.50000000  1
  F  F1  1  0.15558500  0.77090500  0.00000000  1
  F  F2  1  0.38129200  0.24124600  0.00000000  1
  F  F3  1  0.31438500  0.57667200  0.00000000  1
  F  F4  1  0.42075900  0.06909300  0.50000000  1
  F  F5  1  0.38122000  0.73724700  0.50000000  1
  F  F6  1  0.62924200  0.27671000  0.50000000  1
  F  F7  1  0.88538200  0.22273300  0.00000000  1
  F  F8  1  0.85322800  0.89337100  0.00000000  1
  F  F9  1  0.83111100  0.57443300  0.00000000  1
  F  F10  1  0.88859600  0.36368000  0.50000000  1
  F  F11  1  0.88306900  0.74139900  0.50000000  1
loop_
_geom_bond_atom_site_label_1
_geom_bond_atom_site_label_2
_geom_bond_distance
_geom_bond_site_symmetry_2
Mg0 O9 2.019060 1_555
Fe0 O1 2.002790 1_555
Fe0 O1 2.002790 1_554
Fe0 O2 2.022883 1_565
Fe0 O11 2.039708 1_464
Fe0 O11 2.039708 1_465
Fe1 O0 1.918247 1_554
Fe1 O0 1.918247 1_555
Fe1 O3 1.940166 1_555
Fe3 O2 1.906326 1_555
Fe3 O2 1.906326 1_556
Fe3 O0 1.987246 1_555
Fe4 O3 1.959475 1_556
Fe4 O3 1.959475 1_555
Fe4 O5 2.015537 1_555
Fe5 O1 1.887279 1_555
Fe5 O4 1.969011 1_555
Fe5 O4 1.969011 1_556
Fe6 O9 1.880679 1_555
Fe6 O5 1.902424 1_554
Fe6 O5 1.902424 1_555
Fe7 O4 1.921208 1_555
Fe7 O8 2.024780 1_565
Fe7 O6 2.034820 1_555
Fe7 O6 2.034820 1_554
Fe8 O7 1.928765 1_554
Fe8 O7 1.928765 1_555
Fe8 O10 1.965434 1_555
Fe9 O11 1.832323 1_555
Fe9 O8 1.893579 1_555
Fe9 O8 1.893579 1_556
Fe9 O6 2.119046 1_545
Fe10 O7 1.992779 1_555
Fe10 O9 2.091399 1_556
Fe10 O9 2.091399 1_555
Fe11 O10 1.949461 1_556
Fe11 O10 1.949461 1_555
Fe11 O6 2.061925 1_555
F0 Fe4 2.039995 1_555
F0 Fe2 2.147372 1_456
F0 Fe2 2.147372 1_455
F1 Fe2 2.065525 1_455
F1 Fe5 2.175478 1_554
F1 Fe5 2.175478 1_555
F2 Fe6 2.032541 1_555
F2 Fe3 2.231441 1_555
F2 Fe3 2.231441 1_554
F3 Fe4 2.125689 1_554
F3 Fe4 2.125689 1_555
F3 Fe8 2.196439 1_555
F4 Fe3 2.125091 1_555
F4 Fe7 2.145386 1_545
F4 Fe7 2.145386 1_546
F5 Fe5 2.107856 1_555
F5 Fe8 2.150306 1_556
F5 Fe8 2.150306 1_555
F6 Mg0 1.982226 1_555
F6 Mg0 1.982226 1_556
F7 Mg0 1.964107 1_555
F7 Fe1 1.984161 1_655
F8 Fe11 2.107087 1_555
F8 Fe11 2.107087 1_554
F8 Fe0 2.245545 1_655
F9 Fe2 2.026431 1_555
F9 Fe10 2.149634 1_554
F9 Fe10 2.149634 1_555
F10 Mg0 2.179546 1_555
F10 Mg0 2.179546 1_556
F10 Fe1 2.403463 1_655
F10 Fe1 2.403463 1_656
F11 Fe11 2.085075 1_555
F11 Fe2 2.135935 1_556
F11 Fe2 2.135935 1_555
