# generated using pymatgen
data_MgMn6(OF)6
_symmetry_space_group_name_H-M   'P 1'
_cell_length_a   5.35805659
_cell_length_b   14.51301844
_cell_length_c   3.06999610
_cell_angle_alpha   90.02888029
_cell_angle_beta   89.98324004
_cell_angle_gamma   99.59291944
_symmetry_Int_Tables_number   1
_chemical_formula_structural   MgMn6(OF)6
_chemical_formula_sum   'Mg1 Mn6 O6 F6'
_cell_volume   235.38947761
_cell_formula_units_Z   1
loop_
 _symmetry_equiv_pos_site_id
 _symmetry_equiv_pos_as_xyz
  1  'x, y, z'
loop_
 _atom_site_type_symbol
 _atom_site_label
 _atom_site_symmetry_multiplicity
 _atom_site_fract_x
 _atom_site_fract_y
 _atom_site_fract_z
 _atom_site_occupancy
  Mg  Mg0  1  0.51170700  0.33392200  0.97406500  1
  Mn  Mn0  1  0.06818300  0.98693900  0.99191800  1
  Mn  Mn1  1  0.01142200  0.33278400  0.03957500  1
  Mn  Mn2  1  0.95279400  0.67769000  0.99181100  1
  Mn  Mn3  1  0.57777900  0.13859100  0.48643300  1
  Mn  Mn4  1  0.44024000  0.52924500  0.48722800  1
  Mn  Mn5  1  0.44709300  0.83246200  0.49421500  1
  O  O0  1  0.18469600  0.92645000  0.49317700  1
  O  O1  1  0.38205800  0.08227500  0.98705800  1
  O  O2  1  0.27729400  0.76488400  0.99396100  1
  O  O3  1  0.30525700  0.43690800  0.98627300  1
  O  O4  1  0.71515200  0.22945300  0.98562800  1
  O  O5  1  0.63660500  0.58597400  0.98809000  1
  F  F0  1  0.27595200  0.27639500  0.48450000  1
  F  F1  1  0.10848100  0.60087300  0.49044000  1
  F  F2  1  0.68008600  0.90167100  0.99404200  1
  F  F3  1  0.89730100  0.06181300  0.48826600  1
  F  F4  1  0.74705300  0.38965000  0.48375700  1
  F  F5  1  0.79473600  0.74535300  0.49289500  1
loop_
_geom_bond_atom_site_label_1
_geom_bond_atom_site_label_2
_geom_bond_distance
_geom_bond_site_symmetry_2
Mg0 O3 2.002479 1_555
Mg0 O4 2.009770 1_555
Mn0 O0 1.919769 1_555
Mn0 O0 1.926936 1_556
Mn0 O1 1.991830 1_565
Mn1 O3 1.999049 1_554
Mn1 O4 2.000693 1_454
Mn2 O5 1.972427 1_555
Mn2 O2 1.972593 1_655
Mn3 O1 1.957571 1_554
Mn3 O1 1.960743 1_555
Mn3 O4 2.074718 1_555
Mn3 O4 2.079035 1_554
Mn4 O5 1.960751 1_554
Mn4 O5 1.964723 1_555
Mn4 O3 2.084356 1_555
Mn4 O3 2.087987 1_554
Mn5 O2 1.961312 1_555
Mn5 O2 1.962175 1_554
Mn5 O0 2.115772 1_555
F0 Mg0 2.049373 1_555
F0 Mg0 2.096889 1_554
F0 Mn1 2.221094 1_555
F0 Mn1 2.442607 1_556
F1 Mn2 2.143474 1_454
F1 Mn2 2.148342 1_455
F1 Mn4 2.203725 1_555
F2 Mn5 2.122167 1_555
F2 Mn5 2.123139 1_556
F2 Mn0 2.235591 1_655
F3 Mn0 2.161056 1_644
F3 Mn0 2.178075 1_645
F3 Mn3 2.192825 1_555
F4 Mg0 2.042107 1_555
F4 Mg0 2.086301 1_554
F4 Mn1 2.221367 1_655
F4 Mn1 2.447800 1_656
F5 Mn2 2.075329 1_555
F5 Mn2 2.079150 1_554
F5 Mn5 2.419239 1_555
