# generated using pymatgen
data_Na2Sc8SiS11O48
_symmetry_space_group_name_H-M   'P 1'
_cell_length_a   17.74415753
_cell_length_b   8.86978077
_cell_length_c   23.07671146
_cell_angle_alpha   90.00015592
_cell_angle_beta   89.97706575
_cell_angle_gamma   120.02023229
_symmetry_Int_Tables_number   1
_chemical_formula_structural   Na2Sc8SiS11O48
_chemical_formula_sum   'Na6 Sc24 Si3 S33 O144'
_cell_volume   3144.73604353
_cell_formula_units_Z   3
loop_
 _symmetry_equiv_pos_site_id
 _symmetry_equiv_pos_as_xyz
  1  'x, y, z'
loop_
 _atom_site_type_symbol
 _atom_site_label
 _atom_site_symmetry_multiplicity
 _atom_site_fract_x
 _atom_site_fract_y
 _atom_site_fract_z
 _atom_site_occupancy
  Na  Na0  1  0.00066258  0.99547712  0.50010397  1
  Na  Na1  1  0.50060572  0.00650507  0.99642995  1
  Na  Na2  1  0.33593762  0.33374006  0.83478907  1
  Na  Na3  1  0.83660187  0.34034873  0.83029864  1
  Na  Na4  1  0.33209194  0.33175957  0.33400038  1
  Na  Na5  1  0.83791041  0.34036613  0.33609310  1
  Sc  Sc0  1  0.00144412  0.99147549  0.35500769  1
  Sc  Sc1  1  0.49885401  0.99908036  0.35626457  1
  Sc  Sc2  1  0.99768938  0.98617068  0.85182083  1
  Sc  Sc3  1  0.50056593  0.01131988  0.85420411  1
  Sc  Sc4  1  0.00024056  0.99164025  0.65184248  1
  Sc  Sc5  1  0.50129405  0.99884826  0.64528339  1
  Sc  Sc6  1  0.00002581  0.00271304  0.14423943  1
  Sc  Sc7  1  0.49975956  0.99852923  0.14789117  1
  Sc  Sc8  1  0.33257155  0.33467283  0.68593106  1
  Sc  Sc9  1  0.83849774  0.34108682  0.68840494  1
  Sc  Sc10  1  0.33166935  0.33423578  0.18380583  1
  Sc  Sc11  1  0.83487048  0.33236765  0.18416074  1
  Sc  Sc12  1  0.33742810  0.33352887  0.97715321  1
  Sc  Sc13  1  0.83454953  0.33416768  0.98006161  1
  Sc  Sc14  1  0.33300694  0.33381430  0.48327906  1
  Sc  Sc15  1  0.83911710  0.34268759  0.48032308  1
  Sc  Sc16  1  0.16541345  0.66482407  0.01940063  1
  Sc  Sc17  1  0.66276553  0.65409076  0.01782871  1
  Sc  Sc18  1  0.16067907  0.66899695  0.52040495  1
  Sc  Sc19  1  0.66688022  0.66879397  0.52417578  1
  Sc  Sc20  1  0.15910868  0.66301557  0.31441662  1
  Sc  Sc21  1  0.66741411  0.66609734  0.31227314  1
  Sc  Sc22  1  0.16170451  0.66750029  0.80817274  1
  Sc  Sc23  1  0.66075032  0.65588542  0.81320247  1
  Si  Si0  1  0.99884915  0.70726719  0.75025305  1
  Si  Si1  1  0.52139517  0.37552405  0.91643166  1
  Si  Si2  1  0.02027542  0.66531033  0.41702741  1
  S  S0  1  0.14561501  0.00094190  0.24933655  1
  S  S1  1  0.64508167  0.00058480  0.25071493  1
  S  S2  1  0.35452592  0.70986216  0.25050214  1
  S  S3  1  0.85482499  0.70916866  0.24972795  1
  S  S4  1  0.99972892  0.28865139  0.24994317  1
  S  S5  1  0.49964002  0.28976306  0.25046474  1
  S  S6  1  0.14590584  0.29068441  0.75048862  1
  S  S7  1  0.64495265  0.28917151  0.74944564  1
  S  S8  1  0.49988714  0.71048504  0.75000880  1
  S  S9  1  0.35541743  0.00070401  0.74936387  1
  S  S10  1  0.85349395  0.99821486  0.75074913  1
  S  S11  1  0.47805210  0.33245631  0.58350382  1
  S  S12  1  0.97903359  0.33090529  0.58322643  1
  S  S13  1  0.18819303  0.04350217  0.58332788  1
  S  S14  1  0.68880101  0.04501789  0.58326507  1
  S  S15  1  0.33264099  0.62405985  0.58343697  1
  S  S16  1  0.83336563  0.62486923  0.58297835  1
  S  S17  1  0.47896761  0.62478538  0.08344969  1
  S  S18  1  0.97855904  0.62402230  0.08320878  1
  S  S19  1  0.33317410  0.04192718  0.08322310  1
  S  S20  1  0.83251176  0.04187150  0.08319693  1
  S  S21  1  0.18838550  0.33379485  0.08258371  1
  S  S22  1  0.68842850  0.33353246  0.08361613  1
  S  S23  1  0.31065564  0.66584651  0.91635685  1
  S  S24  1  0.81182838  0.66700277  0.91688352  1
  S  S25  1  0.02172073  0.37527619  0.91660891  1
  S  S26  1  0.16614701  0.95584606  0.91668614  1
  S  S27  1  0.66734487  0.95717831  0.91668264  1
  S  S28  1  0.31151844  0.95712708  0.41659416  1
  S  S29  1  0.81044431  0.95534441  0.41673701  1
  S  S30  1  0.16767774  0.37802909  0.41689162  1
  S  S31  1  0.66614289  0.37746611  0.41654019  1
  S  S32  1  0.52208957  0.66573746  0.41644117  1
  O  O0  1  0.10678059  0.03289989  0.30135342  1
  O  O1  1  0.60429990  0.02954112  0.30227871  1
  O  O2  1  0.41121218  0.79143224  0.30202145  1
  O  O3  1  0.90880524  0.78802431  0.30176774  1
  O  O4  1  0.48522248  0.17967858  0.30214913  1
  O  O5  1  0.98429466  0.18032937  0.30185732  1
  O  O6  1  0.10692302  0.18212424  0.80226732  1
  O  O7  1  0.60468144  0.17944066  0.80164787  1
  O  O8  1  0.48435400  0.78833841  0.80199294  1
  O  O9  1  0.98293612  0.79748559  0.80686221  1
  O  O10  1  0.41024037  0.03218942  0.80158749  1
  O  O11  1  0.90956312  0.03280690  0.80241271  1
  O  O12  1  0.39709990  0.97664238  0.69736266  1
  O  O13  1  0.89454804  0.97480780  0.69809060  1
  O  O14  1  0.09331997  0.21352805  0.69773880  1
  O  O15  1  0.58982830  0.20626117  0.69763467  1
  O  O16  1  0.01456234  0.82783592  0.69319387  1
  O  O17  1  0.51124602  0.81718860  0.69758360  1
  O  O18  1  0.39719355  0.81773300  0.19810292  1
  O  O19  1  0.89500174  0.81643165  0.19774106  1
  O  O20  1  0.01115203  0.20488660  0.19756562  1
  O  O21  1  0.51312815  0.20912731  0.19821085  1
  O  O22  1  0.09153338  0.97597069  0.19756667  1
  O  O23  1  0.59143054  0.97393840  0.19830458  1
  O  O24  1  0.43749059  0.36245240  0.63489139  1
  O  O25  1  0.93830688  0.35894092  0.63466103  1
  O  O26  1  0.24247753  0.12825834  0.63506799  1
  O  O27  1  0.74251034  0.12182597  0.63488191  1
  O  O28  1  0.31987212  0.51234502  0.63498249  1
  O  O29  1  0.81867279  0.51738407  0.63453094  1
  O  O30  1  0.43710528  0.51639215  0.13593663  1
  O  O31  1  0.93757518  0.51334872  0.13529917  1
  O  O32  1  0.32060459  0.12396828  0.13581805  1
  O  O33  1  0.81989355  0.12731759  0.13549602  1
  O  O34  1  0.24328253  0.36208239  0.13548662  1
  O  O35  1  0.74202223  0.35594067  0.13594410  1
  O  O36  1  0.22835583  0.30330629  0.03201144  1
  O  O37  1  0.72813079  0.30256355  0.03177095  1
  O  O38  1  0.42335936  0.54618162  0.03225497  1
  O  O39  1  0.92297779  0.54241142  0.03189408  1
  O  O40  1  0.34889364  0.15189948  0.03199505  1
  O  O41  1  0.84836477  0.15572162  0.03205258  1
  O  O42  1  0.23037361  0.15409375  0.53089579  1
  O  O43  1  0.72777311  0.15202372  0.53081774  1
  O  O44  1  0.34848152  0.54141468  0.53153795  1
  O  O45  1  0.84721837  0.54406818  0.53065273  1
  O  O46  1  0.42324856  0.30450923  0.53123835  1
  O  O47  1  0.92377359  0.30324761  0.53101188  1
  O  O48  1  0.27084060  0.69358414  0.96949081  1
  O  O49  1  0.77187325  0.69250103  0.96948822  1
  O  O50  1  0.07508170  0.45989976  0.96949810  1
  O  O51  1  0.58038138  0.46374036  0.97407411  1
  O  O52  1  0.15419015  0.84799340  0.96938311  1
  O  O53  1  0.65452968  0.85312630  0.96954674  1
  O  O54  1  0.27440312  0.85233029  0.46848165  1
  O  O55  1  0.77012343  0.84667479  0.46846432  1
  O  O56  1  0.15508146  0.45634289  0.46894365  1
  O  O57  1  0.65247067  0.45801607  0.46808690  1
  O  O58  1  0.08119923  0.69761829  0.47328143  1
  O  O59  1  0.57526310  0.69258462  0.46820006  1
  O  O60  1  0.06501176  0.63571960  0.35959991  1
  O  O61  1  0.56231941  0.63747223  0.36403113  1
  O  O62  1  0.25859640  0.87950333  0.36392315  1
  O  O63  1  0.75691859  0.87298729  0.36407921  1
  O  O64  1  0.18316054  0.48383283  0.36404077  1
  O  O65  1  0.68006473  0.48700309  0.36404114  1
  O  O66  1  0.06088692  0.48621886  0.86551017  1
  O  O67  1  0.56597919  0.49616496  0.85985772  1
  O  O68  1  0.18250147  0.87751289  0.86552980  1
  O  O69  1  0.68287366  0.88248761  0.86462687  1
  O  O70  1  0.25836264  0.64005713  0.86487069  1
  O  O71  1  0.75797827  0.63611110  0.86490439  1
  O  O72  1  0.01021546  0.83888533  0.40943687  1
  O  O73  1  0.51240850  0.82037606  0.40724348  1
  O  O74  1  0.39963584  0.97881267  0.40697312  1
  O  O75  1  0.89813261  0.97646622  0.40950720  1
  O  O76  1  0.08926846  0.20290081  0.40954521  1
  O  O77  1  0.58815699  0.20399083  0.40682780  1
  O  O78  1  0.01170554  0.20318756  0.90942790  1
  O  O79  1  0.51038426  0.18099055  0.91019616  1
  O  O80  1  0.08950950  0.97556749  0.90991504  1
  O  O81  1  0.58885192  0.97549413  0.91011173  1
  O  O82  1  0.39944709  0.82092906  0.91086955  1
  O  O83  1  0.89824087  0.82148678  0.91014718  1
  O  O84  1  0.48737253  0.17828077  0.59201405  1
  O  O85  1  0.98783223  0.17434098  0.58935769  1
  O  O86  1  0.10157941  0.02886615  0.58819635  1
  O  O87  1  0.60062774  0.02229805  0.59224090  1
  O  O88  1  0.41166151  0.79611816  0.59234352  1
  O  O89  1  0.91067610  0.80150877  0.58863104  1
  O  O90  1  0.48743661  0.80074913  0.09175083  1
  O  O91  1  0.98737284  0.79645700  0.09286858  1
  O  O92  1  0.41193672  0.02330309  0.09160186  1
  O  O93  1  0.91127246  0.02719434  0.09295067  1
  O  O94  1  0.10167235  0.17932791  0.09339692  1
  O  O95  1  0.60020356  0.17517216  0.09127248  1
  O  O96  1  0.34615992  0.15859257  0.74197132  1
  O  O97  1  0.84361402  0.15448665  0.74298186  1
  O  O98  1  0.23441401  0.30842985  0.74235278  1
  O  O99  1  0.73137524  0.30479112  0.74243995  1
  O  O100  1  0.42121231  0.53302024  0.74205058  1
  O  O101  1  0.91237398  0.51392180  0.74305226  1
  O  O102  1  0.34695994  0.53438919  0.24281249  1
  O  O103  1  0.84436273  0.53229637  0.24220212  1
  O  O104  1  0.42136389  0.30908949  0.24283734  1
  O  O105  1  0.92114957  0.30939107  0.24209472  1
  O  O106  1  0.23418387  0.15987018  0.24203280  1
  O  O107  1  0.73289561  0.15695913  0.24295675  1
  O  O108  1  0.31958796  0.50919165  0.92453364  1
  O  O109  1  0.82123282  0.50838483  0.92491982  1
  O  O110  1  0.42448008  0.35432325  0.92389644  1
  O  O111  1  0.93349237  0.35853404  0.92523679  1
  O  O112  1  0.24422339  0.13164997  0.92475506  1
  O  O113  1  0.74539778  0.13554531  0.92452866  1
  O  O114  1  0.32265291  0.13569379  0.42368867  1
  O  O115  1  0.81815632  0.12852137  0.42286359  1
  O  O116  1  0.24596306  0.35553740  0.42364351  1
  O  O117  1  0.74304868  0.35570285  0.42286792  1
  O  O118  1  0.43360435  0.50936947  0.42315682  1
  O  O119  1  0.92316932  0.49286940  0.42325273  1
  O  O120  1  0.17900992  0.48888750  0.07494165  1
  O  O121  1  0.68034836  0.48795212  0.07716021  1
  O  O122  1  0.06486361  0.64177202  0.07465477  1
  O  O123  1  0.56535214  0.64593203  0.07666206  1
  O  O124  1  0.25620866  0.86863413  0.07524193  1
  O  O125  1  0.75621536  0.87137063  0.07522844  1
  O  O126  1  0.18174701  0.87425410  0.57629824  1
  O  O127  1  0.67779529  0.86877717  0.57339702  1
  O  O128  1  0.25665730  0.64112986  0.57429779  1
  O  O129  1  0.75531834  0.64232866  0.57360285  1
  O  O130  1  0.06530378  0.48557694  0.57509803  1
  O  O131  1  0.56432050  0.48743307  0.57394195  1
  O  O132  1  0.15642736  0.84922281  0.25693260  1
  O  O133  1  0.65415917  0.84566918  0.25912836  1
  O  O134  1  0.26936433  0.69129795  0.25825325  1
  O  O135  1  0.76784282  0.69002506  0.25869470  1
  O  O136  1  0.07752949  0.46098885  0.25630706  1
  O  O137  1  0.57697965  0.46303057  0.25895576  1
  O  O138  1  0.15761019  0.46457969  0.75872152  1
  O  O139  1  0.65467730  0.46193841  0.75692634  1
  O  O140  1  0.08388370  0.68847064  0.75996905  1
  O  O141  1  0.57744511  0.69405034  0.75641930  1
  O  O142  1  0.27019173  0.84739948  0.75773327  1
  O  O143  1  0.76780670  0.84385140  0.75927293  1
loop_
_geom_bond_atom_site_label_1
_geom_bond_atom_site_label_2
_geom_bond_distance
_geom_bond_site_symmetry_2
Na0 O72 2.563370 1_555
Na0 O86 2.626621 1_565
Na0 O89 2.632801 1_455
Na0 O85 2.678071 1_465
Na0 O76 2.706857 1_565
Na0 O75 2.721271 1_455
Na1 O79 2.473142 1_555
Na1 O82 2.622256 1_545
Na1 O81 2.631322 1_545
Na1 O95 2.740285 1_556
Na1 O92 2.748269 1_556
Na1 O90 2.792276 1_546
Na2 O110 2.538836 1_555
Na2 O108 2.691897 1_555
Na2 O112 2.692611 1_555
Na2 O100 2.704648 1_555
Na2 O96 2.704776 1_555
Na2 O98 2.728416 1_555
Na3 O101 2.481571 1_555
Na3 O97 2.645450 1_555
Na3 O99 2.666505 1_555
Na3 O109 2.733108 1_555
Na3 O111 2.739928 1_555
Na3 O113 2.775436 1_555
Na4 O116 2.641876 1_555
Na4 O114 2.654125 1_555
Na4 O118 2.668878 1_555
Na4 O106 2.683181 1_555
Na4 O102 2.693157 1_555
Na4 O104 2.700267 1_555
Na5 O119 2.473615 1_555
Na5 O115 2.646414 1_555
Na5 O117 2.662356 1_555
Na5 O105 2.714006 1_555
Na5 O103 2.722235 1_555
Na5 O107 2.776341 1_555
O0 S0 1.480162 1_555
O0 Sc0 2.114849 1_545
O1 S1 1.480139 1_555
O1 Sc1 2.148996 1_545
O2 S2 1.490449 1_555
O2 Sc1 2.124402 1_555
O3 S3 1.476278 1_555
O3 Sc0 2.121662 1_655
O4 S5 1.480275 1_555
O4 Sc1 2.138212 1_545
O5 S4 1.473025 1_555
O5 Sc0 2.216592 1_645
O6 S6 1.471829 1_555
O6 Sc2 2.170884 1_445
O7 S7 1.487451 1_555
O7 Sc3 2.085494 1_555
O8 S8 1.477189 1_555
O8 Sc3 2.208415 1_565
O9 Si0 1.628627 1_555
O9 Sc2 1.872878 1_555
O10 S9 1.485191 1_555
O10 Sc3 2.091847 1_555
O11 S10 1.483533 1_545
O11 Sc2 2.136590 1_545
O12 S9 1.479819 1_565
O12 Sc5 2.129604 1_555
O13 S10 1.483602 1_555
O13 Sc4 2.096847 1_655
O14 S6 1.477414 1_555
O14 Sc4 2.114679 1_545
O15 S7 1.486020 1_555
O15 Sc5 2.102754 1_545
O16 Si0 1.629894 1_455
O16 Sc4 1.858972 1_555
O17 S8 1.486244 1_555
O17 Sc5 2.090203 1_555
O18 S2 1.491731 1_555
O18 Sc7 2.074724 1_555
O19 S3 1.474208 1_555
O19 Sc6 2.155084 1_665
O20 S4 1.484771 1_455
O20 Sc6 2.101182 1_555
O21 S5 1.481195 1_555
O21 Sc7 2.109689 1_545
O22 S0 1.478326 1_565
O22 Sc6 2.143396 1_565
O23 S1 1.483484 1_565
O23 Sc7 2.098440 1_555
O24 S11 1.478504 1_555
O24 Sc8 2.110252 1_555
O25 S12 1.473781 1_555
O25 Sc9 2.101763 1_555
O26 S13 1.481531 1_555
O26 Sc8 2.087628 1_555
O27 S14 1.463714 1_555
O27 Sc9 2.212684 1_555
O28 S15 1.491056 1_555
O28 Sc8 2.066922 1_555
O29 S16 1.463980 1_555
O29 Sc9 2.159947 1_555
O30 S17 1.492604 1_555
O30 Sc10 2.074765 1_555
O31 S18 1.490794 1_555
O31 Sc11 2.059265 1_555
O32 S19 1.488141 1_555
O32 Sc10 2.092122 1_555
O33 S20 1.500228 1_555
O33 Sc11 2.038687 1_555
O34 S21 1.502876 1_555
O34 Sc10 2.037908 1_555
O35 S22 1.487899 1_555
O35 Sc11 2.083803 1_555
O36 S21 1.459242 1_555
O36 Sc12 2.213401 1_554
O37 S22 1.481930 1_555
O37 Sc13 2.129967 1_554
O38 S17 1.472410 1_555
O38 Sc12 2.150183 1_554
O39 S18 1.478348 1_555
O39 Sc13 2.099030 1_554
O40 S19 1.467754 1_555
O40 Sc12 2.136958 1_554
O41 S20 1.485717 1_555
O41 Sc13 2.096005 1_554
O42 S13 1.500352 1_555
O42 Sc14 2.039285 1_555
O43 S14 1.478676 1_555
O43 Sc15 2.185432 1_555
O44 S15 1.502211 1_555
O44 Sc14 2.049533 1_555
O45 S16 1.485987 1_555
O45 Sc15 2.074447 1_555
O46 S11 1.490484 1_555
O46 Sc14 2.067455 1_555
O47 S12 1.494583 1_555
O47 Sc15 2.067449 1_555
O48 S23 1.495438 1_555
O48 Sc16 2.100468 1_556
O49 S24 1.478918 1_555
O49 Sc17 2.108785 1_556
O50 S25 1.496441 1_555
O50 Sc16 2.070115 1_556
O51 Si1 1.630585 1_555
O51 Sc17 1.881120 1_556
O52 S26 1.495226 1_555
O52 Sc16 2.082170 1_556
O53 S27 1.476992 1_555
O53 Sc17 2.153534 1_556
O54 S28 1.455447 1_555
O54 Sc18 2.206068 1_555
O55 S29 1.474834 1_555
O55 Sc19 2.145750 1_555
O56 S30 1.459606 1_555
O56 Sc18 2.188724 1_555
O57 S31 1.468839 1_555
O57 Sc19 2.181257 1_555
O58 Si2 1.620842 1_555
O58 Sc18 1.896164 1_555
O59 S32 1.466175 1_555
O59 Sc19 2.168143 1_555
O60 Si2 1.631841 1_555
O60 Sc20 1.878222 1_555
O61 S32 1.487811 1_555
O61 Sc21 2.119685 1_555
O62 S28 1.478923 1_555
O62 Sc20 2.172206 1_555
O63 S29 1.489634 1_555
O63 Sc21 2.098655 1_555
O64 S30 1.478316 1_555
O64 Sc20 2.167614 1_555
O65 S31 1.494098 1_555
O65 Sc21 2.087579 1_555
O66 S25 1.468625 1_555
O66 Sc22 2.157852 1_555
O67 Si1 1.620939 1_555
O67 Sc23 1.899690 1_555
O68 S26 1.470394 1_555
O68 Sc22 2.161151 1_555
O69 S27 1.462966 1_555
O69 Sc23 2.193852 1_555
O70 S23 1.453778 1_555
O70 Sc22 2.265465 1_555
O71 S24 1.471687 1_555
O71 Sc23 2.176032 1_555
O72 Si2 1.645553 1_555
O72 Sc0 1.909090 1_555
O73 S32 1.480429 1_555
O73 Sc1 2.082298 1_555
O74 S28 1.493262 1_555
O74 Sc1 2.045197 1_555
O75 S29 1.480555 1_555
O75 Sc0 2.171162 1_655
O76 S30 1.488304 1_555
O76 Sc0 2.146289 1_545
O77 S31 1.484048 1_555
O77 Sc1 2.072556 1_545
O78 S25 1.455165 1_555
O78 Sc2 2.248454 1_445
O79 Si1 1.642808 1_555
O79 Sc3 1.924208 1_555
O80 S26 1.463710 1_555
O80 Sc2 2.148421 1_455
O81 S27 1.488566 1_555
O81 Sc3 2.172403 1_565
O82 S23 1.490557 1_555
O82 Sc3 2.178853 1_565
O83 S24 1.466389 1_555
O83 Sc2 2.116170 1_555
O84 S11 1.470480 1_555
O84 Sc5 2.121027 1_545
O85 S12 1.479803 1_555
O85 Sc4 2.260759 1_645
O86 S13 1.480445 1_555
O86 Sc4 2.214373 1_545
O87 S14 1.488496 1_555
O87 Sc5 2.068749 1_545
O88 S15 1.482020 1_555
O88 Sc5 2.096508 1_555
O89 S16 1.484296 1_555
O89 Sc4 2.194910 1_655
O90 S17 1.503524 1_555
O90 Sc7 2.102395 1_555
O91 S18 1.474474 1_555
O91 Sc6 2.095669 1_665
O92 S19 1.499706 1_555
O92 Sc7 2.123277 1_545
O93 S20 1.484262 1_555
O93 Sc6 2.066843 1_655
O94 S21 1.482287 1_555
O94 Sc6 2.062726 1_555
O95 S22 1.501476 1_555
O95 Sc7 2.131311 1_545
O96 S9 1.499173 1_555
O96 Sc8 2.132329 1_555
O97 S10 1.492414 1_545
O97 Sc9 2.117614 1_555
O98 S6 1.509610 1_555
O98 Sc8 2.091787 1_555
O99 S7 1.477890 1_555
O99 Sc9 2.158092 1_555
O100 S8 1.503904 1_555
O100 Sc8 2.116359 1_555
O101 Si0 1.640191 1_555
O101 Sc9 1.910322 1_555
O102 S2 1.504279 1_555
O102 Sc10 2.144259 1_555
O103 S3 1.494798 1_555
O103 Sc11 2.160637 1_555
O104 S5 1.492638 1_555
O104 Sc10 2.189855 1_555
O105 S4 1.505868 1_555
O105 Sc11 2.118147 1_555
O106 S0 1.506138 1_555
O106 Sc10 2.123877 1_555
O107 S1 1.490309 1_555
O107 Sc11 2.171825 1_555
O108 S23 1.487216 1_555
O108 Sc12 2.120423 1_555
O109 S24 1.508831 1_555
O109 Sc13 2.104408 1_555
O110 Si1 1.642714 1_555
O110 Sc12 1.908882 1_555
O111 S25 1.509878 1_655
O111 Sc13 2.085249 1_555
O112 S26 1.491350 1_545
O112 Sc12 2.107604 1_555
O113 S27 1.503874 1_545
O113 Sc13 2.112217 1_555
O114 S28 1.503769 1_545
O114 Sc14 2.165637 1_555
O115 S29 1.479131 1_545
O115 Sc15 2.190543 1_555
O116 S30 1.507037 1_555
O116 Sc14 2.148501 1_555
O117 S31 1.478018 1_555
O117 Sc15 2.208130 1_555
O118 S32 1.494549 1_555
O118 Sc14 2.180072 1_555
O119 Si2 1.640654 1_655
O119 Sc15 1.934892 1_555
O120 S21 1.476541 1_555
O120 Sc16 2.124421 1_555
O121 S22 1.454393 1_555
O121 Sc17 2.145672 1_555
O122 S18 1.472228 1_455
O122 Sc16 2.117562 1_555
O123 S17 1.456497 1_555
O123 Sc17 2.170085 1_555
O124 S19 1.470159 1_565
O124 Sc16 2.147455 1_555
O125 S20 1.450952 1_565
O125 Sc17 2.241078 1_555
O126 S13 1.456428 1_565
O126 Sc18 2.106494 1_555
O127 S14 1.492719 1_565
O127 Sc19 2.032363 1_555
O128 S15 1.445585 1_555
O128 Sc18 2.220609 1_555
O129 S16 1.484429 1_555
O129 Sc19 2.046634 1_555
O130 S12 1.469359 1_455
O130 Sc18 2.084988 1_555
O131 S11 1.475030 1_555
O131 Sc19 2.070631 1_555
O132 S0 1.461798 1_565
O132 Sc20 2.137407 1_555
O133 S1 1.474174 1_565
O133 Sc21 2.114561 1_555
O134 S2 1.446860 1_555
O134 Sc20 2.253239 1_555
O135 S3 1.480311 1_555
O135 Sc21 2.090256 1_555
O136 S4 1.467175 1_455
O136 Sc20 2.123839 1_555
O137 S5 1.474258 1_555
O137 Sc21 2.107736 1_555
O138 S6 1.462110 1_555
O138 Sc22 2.101491 1_555
O139 S7 1.463993 1_555
O139 Sc23 2.114729 1_555
O140 Si0 1.614537 1_455
O140 Sc22 1.853918 1_555
O141 S8 1.462176 1_555
O141 Sc23 2.125776 1_555
O142 S9 1.454441 1_565
O142 Sc22 2.128692 1_555
O143 S10 1.463495 1_555
O143 Sc23 2.183141 1_555
