# generated using pymatgen
data_LaTiO3
_symmetry_space_group_name_H-M   'P 1'
_cell_length_a   5.56856000
_cell_length_b   5.67329700
_cell_length_c   7.93828800
_cell_angle_alpha   90.00000000
_cell_angle_beta   90.00000000
_cell_angle_gamma   90.00000000
_symmetry_Int_Tables_number   1
_chemical_formula_structural   LaTiO3
_chemical_formula_sum   'La4 Ti4 O12'
_cell_volume   250.78714659
_cell_formula_units_Z   4
loop_
 _symmetry_equiv_pos_site_id
 _symmetry_equiv_pos_as_xyz
  1  'x, y, z'
loop_
 _atom_site_type_symbol
 _atom_site_label
 _atom_site_symmetry_multiplicity
 _atom_site_fract_x
 _atom_site_fract_y
 _atom_site_fract_z
 _atom_site_occupancy
  La  La0  1  0.00755800  0.95263100  0.75000000  1
  La  La1  1  0.49244200  0.45263100  0.75000000  1
  La  La2  1  0.50755800  0.54736900  0.25000000  1
  La  La3  1  0.99244200  0.04736900  0.25000000  1
  Ti  Ti0  1  0.00000000  0.50000000  0.50000000  1
  Ti  Ti1  1  0.50000000  0.00000000  0.00000000  1
  Ti  Ti2  1  0.50000000  0.00000000  0.50000000  1
  Ti  Ti3  1  0.00000000  0.50000000  0.00000000  1
  O  O0  1  0.70851700  0.28921800  0.46315600  1
  O  O1  1  0.79148300  0.78921800  0.03684400  1
  O  O2  1  0.20851700  0.21078200  0.53684400  1
  O  O3  1  0.29148300  0.71078200  0.96315600  1
  O  O4  1  0.29148300  0.71078200  0.53684400  1
  O  O5  1  0.20851700  0.21078200  0.96315600  1
  O  O6  1  0.79148300  0.78921800  0.46315600  1
  O  O7  1  0.70851700  0.28921800  0.03684400  1
  O  O8  1  0.06855700  0.48673100  0.25000000  1
  O  O9  1  0.43144300  0.98673100  0.25000000  1
  O  O10  1  0.56855700  0.01326900  0.75000000  1
  O  O11  1  0.93144300  0.51326900  0.75000000  1
loop_
_geom_bond_atom_site_label_1
_geom_bond_atom_site_label_2
_geom_bond_distance
_geom_bond_site_symmetry_2
La0 O10 2.468691 1_465
La0 O5 2.502082 1_565
La0 O2 2.502082 1_565
La0 O11 2.528410 1_455
La0 O3 2.691750 1_555
La0 O4 2.691750 1_555
La0 O6 2.737190 1_455
La0 O1 2.737190 1_456
La1 O11 2.468691 1_555
La1 O3 2.502082 1_555
La1 O4 2.502082 1_555
La1 O10 2.528410 1_555
La1 O2 2.691750 1_555
La1 O5 2.691750 1_555
La1 O0 2.737190 1_555
La1 O7 2.737190 1_556
La2 O8 2.468691 1_555
La2 O0 2.502082 1_555
La2 O7 2.502082 1_555
La2 O9 2.528410 1_555
La2 O6 2.691750 1_555
La2 O1 2.691750 1_555
La2 O3 2.737190 1_554
La2 O4 2.737190 1_555
La3 O9 2.468691 1_645
La3 O1 2.502082 1_545
La3 O6 2.502082 1_545
La3 O8 2.528410 1_655
La3 O0 2.691750 1_555
La3 O7 2.691750 1_555
La3 O2 2.737190 1_655
La3 O5 2.737190 1_654
O0 Ti2 2.031275 1_555
O0 Ti0 2.037188 1_655
O1 Ti3 2.031275 1_655
O1 Ti1 2.037188 1_565
O2 Ti0 2.031275 1_555
O2 Ti2 2.037188 1_555
O3 Ti1 2.031275 1_566
O3 Ti3 2.037188 1_556
O4 Ti2 2.031275 1_565
O4 Ti0 2.037188 1_555
O5 Ti3 2.031275 1_556
O5 Ti1 2.037188 1_556
O6 Ti0 2.031275 1_655
O6 Ti2 2.037188 1_565
O7 Ti1 2.031275 1_555
O7 Ti3 2.037188 1_655
O8 Ti3 2.022359 1_555
O8 Ti0 2.022359 1_555
O9 Ti1 2.022359 1_565
O9 Ti2 2.022359 1_565
O10 Ti2 2.022359 1_555
O10 Ti1 2.022359 1_556
O11 Ti3 2.022359 1_656
O11 Ti0 2.022359 1_655
