# generated using pymatgen
data_TbCoSi
_symmetry_space_group_name_H-M   'P 1'
_cell_length_a   4.17203856
_cell_length_b   6.97581079
_cell_length_c   6.58388366
_cell_angle_alpha   90.00130531
_cell_angle_beta   90.00000000
_cell_angle_gamma   90.00000000
_symmetry_Int_Tables_number   1
_chemical_formula_structural   TbCoSi
_chemical_formula_sum   'Tb4 Co4 Si4'
_cell_volume   191.61308105
_cell_formula_units_Z   4
loop_
 _symmetry_equiv_pos_site_id
 _symmetry_equiv_pos_as_xyz
  1  'x, y, z'
loop_
 _atom_site_type_symbol
 _atom_site_label
 _atom_site_symmetry_multiplicity
 _atom_site_fract_x
 _atom_site_fract_y
 _atom_site_fract_z
 _atom_site_occupancy
  Tb  Tb0  1  0.25000000  0.52331785  0.32135517  1
  Tb  Tb1  1  0.75000000  0.47668215  0.67864483  1
  Tb  Tb2  1  0.25000000  0.02331580  0.17867781  1
  Tb  Tb3  1  0.75000000  0.97668420  0.82132219  1
  Co  Co0  1  0.75000000  0.13519576  0.43252869  1
  Co  Co1  1  0.25000000  0.86480424  0.56747131  1
  Co  Co2  1  0.75000000  0.63519882  0.06751294  1
  Co  Co3  1  0.25000000  0.36480118  0.93248706  1
  Si  Si0  1  0.25000000  0.19066642  0.61352749  1
  Si  Si1  1  0.75000000  0.80933358  0.38647251  1
  Si  Si2  1  0.25000000  0.69065879  0.88646761  1
  Si  Si3  1  0.75000000  0.30934121  0.11353239  1
loop_
_geom_bond_atom_site_label_1
_geom_bond_atom_site_label_2
_geom_bond_distance
_geom_bond_site_symmetry_2
Co0 Si1 2.293282 1_545
Co0 Si3 2.426284 1_555
Co0 Si0 2.433367 1_655
Co0 Si0 2.433367 1_555
Co0 Tb2 2.784574 1_655
Co0 Tb2 2.784574 1_555
Co0 Tb3 2.788410 1_545
Co0 Tb1 2.880995 1_555
Co1 Si0 2.293282 1_565
Co1 Si2 2.426284 1_555
Co1 Si1 2.433367 1_555
Co1 Si1 2.433367 1_455
Co1 Tb3 2.784574 1_555
Co1 Tb3 2.784574 1_455
Co1 Tb2 2.788410 1_565
Co1 Tb0 2.880995 1_555
Co2 Si3 2.293232 1_555
Co2 Si1 2.425989 1_555
Co2 Si2 2.433514 1_554
Co2 Si2 2.433514 1_654
Co2 Tb0 2.784563 1_555
Co2 Tb0 2.784563 1_655
Co2 Tb1 2.788829 1_554
Co2 Tb3 2.881327 1_554
Co3 Si2 2.293232 1_555
Co3 Si0 2.425989 1_555
Co3 Si3 2.433514 1_556
Co3 Si3 2.433514 1_456
Co3 Tb1 2.784563 1_455
Co3 Tb1 2.784563 1_555
Co3 Tb0 2.788829 1_556
Co3 Tb2 2.881327 1_556
Si0 Tb3 2.907131 1_545
Si0 Tb3 2.907131 1_445
Si0 Tb1 2.918224 1_555
Si0 Tb1 2.918224 1_455
Si0 Tb0 3.014189 1_555
Si0 Tb2 3.091836 1_555
Si1 Tb2 2.907131 1_665
Si1 Tb2 2.907131 1_565
Si1 Tb0 2.918224 1_555
Si1 Tb0 2.918224 1_655
Si1 Tb1 3.014189 1_555
Si1 Tb3 3.091836 1_555
Si2 Tb1 2.907166 1_455
Si2 Tb1 2.907166 1_555
Si2 Tb3 2.918311 1_455
Si2 Tb3 2.918311 1_555
Si2 Tb2 3.014310 1_566
Si2 Tb0 3.092091 1_556
Si3 Tb0 2.907166 1_655
Si3 Tb0 2.907166 1_555
Si3 Tb2 2.918311 1_555
Si3 Tb2 2.918311 1_655
Si3 Tb3 3.014310 1_544
Si3 Tb1 3.092091 1_554
