# generated using pymatgen
data_Mg(Cr2S5)2
_symmetry_space_group_name_H-M   'P 1'
_cell_length_a   4.24663604
_cell_length_b   6.25517180
_cell_length_c   13.85311953
_cell_angle_alpha   93.33374790
_cell_angle_beta   89.99159223
_cell_angle_gamma   89.99678738
_symmetry_Int_Tables_number   1
_chemical_formula_structural   Mg(Cr2S5)2
_chemical_formula_sum   'Mg1 Cr4 S10'
_cell_volume   367.36374773
_cell_formula_units_Z   1
loop_
 _symmetry_equiv_pos_site_id
 _symmetry_equiv_pos_as_xyz
  1  'x, y, z'
loop_
 _atom_site_type_symbol
 _atom_site_label
 _atom_site_symmetry_multiplicity
 _atom_site_fract_x
 _atom_site_fract_y
 _atom_site_fract_z
 _atom_site_occupancy
  Mg  Mg0  1  0.51807400  0.50770800  0.79028100  1
  Cr  Cr0  1  0.01853400  0.10085600  0.14435800  1
  Cr  Cr1  1  0.51845300  0.87990300  0.33729000  1
  Cr  Cr2  1  0.51844700  0.88555600  0.63599300  1
  Cr  Cr3  1  0.01818000  0.05024500  0.84313100  1
  S  S0  1  0.51848200  0.99485500  0.18196400  1
  S  S1  1  0.01835600  0.01187500  0.30901600  1
  S  S2  1  0.01842100  0.01931600  0.67187600  1
  S  S3  1  0.51822300  0.92146700  0.81323600  1
  S  S4  1  0.01806200  0.40955800  0.86687500  1
  S  S5  1  0.51838600  0.54843200  0.61616000  1
  S  S6  1  0.51850300  0.56144900  0.32743000  1
  S  S7  1  0.51852800  0.97522800  0.48778500  1
  S  S8  1  0.01845300  0.96378100  0.00069900  1
  S  S9  1  0.01851500  0.41977000  0.14057000  1
loop_
_geom_bond_atom_site_label_1
_geom_bond_atom_site_label_2
_geom_bond_distance
_geom_bond_site_symmetry_2
Mg0 S5 2.440220 1_555
Mg0 S4 2.467131 1_555
Mg0 S4 2.467252 1_655
Mg0 S3 2.589177 1_555
Cr0 S9 1.998600 1_555
Cr0 S8 2.120689 1_545
Cr0 S0 2.293234 1_545
Cr0 S0 2.293571 1_445
Cr0 S1 2.379188 1_555
Cr1 S6 1.988722 1_555
Cr1 S7 2.134821 1_555
Cr1 S0 2.308029 1_555
Cr1 S1 2.319303 1_665
Cr1 S1 2.320078 1_565
Cr2 S5 2.110689 1_555
Cr2 S7 2.159621 1_555
Cr2 S2 2.325343 1_565
Cr2 S2 2.325360 1_665
Cr2 S3 2.452579 1_555
Cr3 S4 2.252500 1_555
Cr3 S8 2.279139 1_546
Cr3 S3 2.299944 1_445
Cr3 S3 2.300085 1_545
Cr3 S2 2.369052 1_555
