# generated using pymatgen
data_Na10Mg4Al4Si3(S3O16)3
_symmetry_space_group_name_H-M   'P 1'
_cell_length_a   17.50149846
_cell_length_b   8.75628654
_cell_length_c   21.92169258
_cell_angle_alpha   89.84491047
_cell_angle_beta   88.46758803
_cell_angle_gamma   120.11460538
_symmetry_Int_Tables_number   1
_chemical_formula_structural   Na10Mg4Al4Si3(S3O16)3
_chemical_formula_sum   'Na30 Mg12 Al12 Si9 S27 O144'
_cell_volume   2904.46632794
_cell_formula_units_Z   3
loop_
 _symmetry_equiv_pos_site_id
 _symmetry_equiv_pos_as_xyz
  1  'x, y, z'
loop_
 _atom_site_type_symbol
 _atom_site_label
 _atom_site_symmetry_multiplicity
 _atom_site_fract_x
 _atom_site_fract_y
 _atom_site_fract_z
 _atom_site_occupancy
  Na  Na0  1  0.18853176  0.37126976  0.24462948  1
  Na  Na1  1  0.68862004  0.37417426  0.24436079  1
  Na  Na2  1  0.98941922  0.64176059  0.25549914  1
  Na  Na3  1  0.49208628  0.63570791  0.26253866  1
  Na  Na4  1  0.32640182  0.65698735  0.74461523  1
  Na  Na5  1  0.82229423  0.64848409  0.74484260  1
  Na  Na6  1  0.99164548  0.34528739  0.75301120  1
  Na  Na7  1  0.18781143  0.00135582  0.74064442  1
  Na  Na8  1  0.68766152  0.00455145  0.74090335  1
  Na  Na9  1  0.52013234  0.70432484  0.57300124  1
  Na  Na10  1  0.32320175  0.97356527  0.59092328  1
  Na  Na11  1  0.82337839  0.96760751  0.58902288  1
  Na  Na12  1  0.15421223  0.98063379  0.08012040  1
  Na  Na13  1  0.65400629  0.98063982  0.07981561  1
  Na  Na14  1  0.32620713  0.68106327  0.09357470  1
  Na  Na15  1  0.82580099  0.68076955  0.09404874  1
  Na  Na16  1  0.65898112  0.00732058  0.42682646  1
  Na  Na17  1  0.35596760  0.67096004  0.40862637  1
  Na  Na18  1  0.01846000  0.00384938  0.49974658  1
  Na  Na19  1  0.51060307  0.01399439  0.49877371  1
  Na  Na20  1  0.00924550  0.03081259  0.99884305  1
  Na  Na21  1  0.50971674  0.03303668  0.99846036  1
  Na  Na22  1  0.34771387  0.31768209  0.83248353  1
  Na  Na23  1  0.83363943  0.31579086  0.83468160  1
  Na  Na24  1  0.33723778  0.32955853  0.33418667  1
  Na  Na25  1  0.83925605  0.35211101  0.33245121  1
  Na  Na26  1  0.17062648  0.65145693  0.16573591  1
  Na  Na27  1  0.67136593  0.65291574  0.16702233  1
  Na  Na28  1  0.16365628  0.68154821  0.66003528  1
  Na  Na29  1  0.66180404  0.65922707  0.66323852  1
  Mg  Mg0  1  0.99681865  0.99038493  0.35277112  1
  Mg  Mg1  1  0.49786551  0.99325695  0.35250826  1
  Mg  Mg2  1  0.99756720  0.00333148  0.85384625  1
  Mg  Mg3  1  0.49747003  0.00281805  0.85424405  1
  Mg  Mg4  1  0.33186052  0.31621628  0.68363289  1
  Mg  Mg5  1  0.83094535  0.32346336  0.68242397  1
  Mg  Mg6  1  0.33128991  0.33923399  0.18483479  1
  Mg  Mg7  1  0.83043319  0.34012226  0.18401848  1
  Mg  Mg8  1  0.16356764  0.65237922  0.01797455  1
  Mg  Mg9  1  0.66286461  0.65105196  0.01769888  1
  Mg  Mg10  1  0.16156225  0.67024199  0.51963185  1
  Mg  Mg11  1  0.66627082  0.67074220  0.51729908  1
  Al  Al0  1  0.99807410  0.99650240  0.64563567  1
  Al  Al1  1  0.50261005  0.01461602  0.64960776  1
  Al  Al2  1  0.99439171  0.01414729  0.15026341  1
  Al  Al3  1  0.49622206  0.01124352  0.14981293  1
  Al  Al4  1  0.32669352  0.32687961  0.98229542  1
  Al  Al5  1  0.82611489  0.32680433  0.98247338  1
  Al  Al6  1  0.33105739  0.32478610  0.48080120  1
  Al  Al7  1  0.83097646  0.33306415  0.48457292  1
  Al  Al8  1  0.17362272  0.67900050  0.31627571  1
  Al  Al9  1  0.67367857  0.67778677  0.32019148  1
  Al  Al10  1  0.17619157  0.67586234  0.81986565  1
  Al  Al11  1  0.66746017  0.66820517  0.81712315  1
  Si  Si0  1  0.35268475  0.71303900  0.25053850  1
  Si  Si1  1  0.85251881  0.71595054  0.25104810  1
  Si  Si2  1  0.35488017  0.00043878  0.75234780  1
  Si  Si3  1  0.85392333  0.99705138  0.75055730  1
  Si  Si4  1  0.18244090  0.04328421  0.58451248  1
  Si  Si5  1  0.68185355  0.04061470  0.58587998  1
  Si  Si6  1  0.18065187  0.32523952  0.08671711  1
  Si  Si7  1  0.67995708  0.32541075  0.08615838  1
  Si  Si8  1  0.51733383  0.65415234  0.41844137  1
  S  S0  1  0.14609200  0.99207883  0.25098772  1
  S  S1  1  0.64695701  0.99452478  0.24915598  1
  S  S2  1  -0.00013989  0.29272322  0.25165421  1
  S  S3  1  0.49984667  0.28952332  0.25001751  1
  S  S4  1  0.14457972  0.29630025  0.75151357  1
  S  S5  1  0.64286808  0.29756715  0.75184501  1
  S  S6  1  0.00217842  0.71238639  0.75149325  1
  S  S7  1  0.50343985  0.71010434  0.75187841  1
  S  S8  1  0.48041080  0.32843101  0.58201448  1
  S  S9  1  0.97809708  0.33046016  0.58266090  1
  S  S10  1  0.33352653  0.62286317  0.58279251  1
  S  S11  1  0.83664743  0.62537347  0.58238424  1
  S  S12  1  0.47747198  0.62220791  0.08036464  1
  S  S13  1  0.97745495  0.62186468  0.08019382  1
  S  S14  1  0.33798408  0.05310592  0.08039579  1
  S  S15  1  0.83815014  0.05425698  0.08033450  1
  S  S16  1  0.31391151  0.65570294  0.91834024  1
  S  S17  1  0.81258674  0.65551034  0.91706853  1
  S  S18  1  0.01766273  0.38191197  0.91651145  1
  S  S19  1  0.51767993  0.38170546  0.91744696  1
  S  S20  1  0.17062244  0.96414112  0.91775158  1
  S  S21  1  0.67037983  0.96265869  0.91723131  1
  S  S22  1  0.30925647  0.96238055  0.41706159  1
  S  S23  1  0.81684875  0.97084069  0.41867400  1
  S  S24  1  0.16436609  0.37719370  0.41566241  1
  S  S25  1  0.67398166  0.38207578  0.41644146  1
  S  S26  1  0.01750856  0.65444228  0.41689035  1
  O  O0  1  0.10868078  0.03649575  0.30432262  1
  O  O1  1  0.60902462  0.03025049  0.30468811  1
  O  O2  1  0.41056689  0.79601129  0.30994701  1
  O  O3  1  0.92029302  0.80158691  0.30491177  1
  O  O4  1  0.49207605  0.19106638  0.30570097  1
  O  O5  1  0.99094898  0.19257012  0.30694140  1
  O  O6  1  0.11017439  0.18003841  0.80575753  1
  O  O7  1  0.60706125  0.18120406  0.80558221  1
  O  O8  1  0.49173297  0.79106691  0.80676759  1
  O  O9  1  0.98965065  0.78958566  0.80703029  1
  O  O10  1  0.40895270  0.00962146  0.81006879  1
  O  O11  1  0.91907003  0.03662202  0.80546013  1
  O  O12  1  0.40089840  0.96110747  0.68924660  1
  O  O13  1  0.89865927  0.95579740  0.68814510  1
  O  O14  1  0.08800368  0.21505577  0.69803107  1
  O  O15  1  0.59069248  0.21559011  0.69670871  1
  O  O16  1  0.01999558  0.82866668  0.69667858  1
  O  O17  1  0.52246114  0.82564772  0.69588074  1
  O  O18  1  0.40154217  0.83283722  0.18686442  1
  O  O19  1  0.89884993  0.83385190  0.18589686  1
  O  O20  1  0.01914720  0.21260689  0.19657318  1
  O  O21  1  0.51493389  0.20472988  0.19485929  1
  O  O22  1  0.09184918  0.96167252  0.19548766  1
  O  O23  1  0.59159851  0.97141416  0.19479831  1
  O  O24  1  0.44330649  0.36879481  0.63664555  1
  O  O25  1  0.94358556  0.36060433  0.64105588  1
  O  O26  1  0.23935114  0.11721308  0.64591474  1
  O  O27  1  0.74107119  0.12383588  0.64493970  1
  O  O28  1  0.32740654  0.52891574  0.64029744  1
  O  O29  1  0.82887368  0.53200286  0.64049388  1
  O  O30  1  0.44264613  0.52308704  0.13818234  1
  O  O31  1  0.94294981  0.52366990  0.13824630  1
  O  O32  1  0.32620075  0.13408223  0.13521391  1
  O  O33  1  0.82663914  0.13511081  0.13513784  1
  O  O34  1  0.23873998  0.35870794  0.14653234  1
  O  O35  1  0.73848773  0.35937011  0.14568507  1
  O  O36  1  0.23047448  0.28150848  0.02837661  1
  O  O37  1  0.73008308  0.28174324  0.02794226  1
  O  O38  1  0.42051149  0.52467814  0.02828261  1
  O  O39  1  0.92042700  0.52336825  0.02822285  1
  O  O40  1  0.35189355  0.16130657  0.02401721  1
  O  O41  1  0.85207500  0.16223205  0.02384684  1
  O  O42  1  0.23835840  0.17442653  0.52576390  1
  O  O43  1  0.73178015  0.16116637  0.52303147  1
  O  O44  1  0.34819406  0.53673543  0.52837280  1
  O  O45  1  0.84901189  0.53441199  0.52896879  1
  O  O46  1  0.42505377  0.30072921  0.52803405  1
  O  O47  1  0.91941046  0.31077836  0.53110952  1
  O  O48  1  0.27044225  0.67858189  0.97251549  1
  O  O49  1  0.77010211  0.67777194  0.97193130  1
  O  O50  1  0.06836576  0.46877917  0.96945248  1
  O  O51  1  0.56673832  0.46413272  0.97164421  1
  O  O52  1  0.15988679  0.86116707  0.97351032  1
  O  O53  1  0.65988079  0.86018384  0.97305162  1
  O  O54  1  0.27084097  0.85060068  0.47234335  1
  O  O55  1  0.77815785  0.87158737  0.47615509  1
  O  O56  1  0.15511268  0.46157430  0.47017357  1
  O  O57  1  0.66441316  0.46594228  0.47079180  1
  O  O58  1  0.06952654  0.67033943  0.46906911  1
  O  O59  1  0.57622640  0.69120146  0.47757533  1
  O  O60  1  0.06050337  0.63371669  0.35863297  1
  O  O61  1  0.57104978  0.63844561  0.35655506  1
  O  O62  1  0.25363630  0.87165624  0.36310949  1
  O  O63  1  0.75791922  0.87915983  0.36629239  1
  O  O64  1  0.17556628  0.48879493  0.35879125  1
  O  O65  1  0.68452880  0.48703938  0.35936921  1
  O  O66  1  0.06424381  0.49203142  0.85902840  1
  O  O67  1  0.56499336  0.49540266  0.86165030  1
  O  O68  1  0.17827316  0.86898774  0.86203629  1
  O  O69  1  0.67884225  0.86997818  0.86138534  1
  O  O70  1  0.25955309  0.63435154  0.86251839  1
  O  O71  1  0.75894963  0.63410933  0.86136417  1
  O  O72  1  0.00878872  0.81325524  0.41263731  1
  O  O73  1  0.50660120  0.83131192  0.41371558  1
  O  O74  1  0.39946359  0.99159360  0.40858030  1
  O  O75  1  0.90565222  0.99727118  0.41058668  1
  O  O76  1  0.08741134  0.19837268  0.41025462  1
  O  O77  1  0.59644865  0.20100446  0.41163456  1
  O  O78  1  0.00886722  0.20550185  0.91240202  1
  O  O79  1  0.50865063  0.20550847  0.91203940  1
  O  O80  1  0.09368685  0.98900653  0.91192198  1
  O  O81  1  0.59397124  0.98905712  0.91172347  1
  O  O82  1  0.40381057  0.80796215  0.91224059  1
  O  O83  1  0.90243883  0.80952092  0.91073871  1
  O  O84  1  0.48055655  0.15787713  0.58983420  1
  O  O85  1  0.97651317  0.15727476  0.58617954  1
  O  O86  1  0.08474417  0.03096665  0.59266117  1
  O  O87  1  0.58143619  0.01868814  0.59339547  1
  O  O88  1  0.41429786  0.80424505  0.58340267  1
  O  O89  1  0.91638498  0.80676742  0.58273084  1
  O  O90  1  0.47958170  0.79575212  0.08211371  1
  O  O91  1  0.97955406  0.79512529  0.08159181  1
  O  O92  1  0.41600565  0.02698352  0.08367196  1
  O  O93  1  0.91692613  0.02986959  0.08359314  1
  O  O94  1  0.08253110  0.13714024  0.09444670  1
  O  O95  1  0.58217278  0.13702707  0.09319147  1
  O  O96  1  0.33722608  0.16433510  0.74806968  1
  O  O97  1  0.83926697  0.16689054  0.74647502  1
  O  O98  1  0.23746624  0.34134469  0.74180699  1
  O  O99  1  0.73616974  0.33808633  0.74288311  1
  O  O100  1  0.42286895  0.53659674  0.74430036  1
  O  O101  1  0.92150060  0.53551237  0.74457014  1
  O  O102  1  0.34061582  0.51332047  0.24721141  1
  O  O103  1  0.83931088  0.51613247  0.24576250  1
  O  O104  1  0.42141982  0.30893956  0.24387689  1
  O  O105  1  0.92154361  0.31077485  0.24373824  1
  O  O106  1  0.23787813  0.13560048  0.24255988  1
  O  O107  1  0.73766358  0.14344017  0.24177052  1
  O  O108  1  0.31813962  0.48862186  0.92261284  1
  O  O109  1  0.81865261  0.48969106  0.92196534  1
  O  O110  1  0.42808196  0.36615424  0.92143495  1
  O  O111  1  0.92809769  0.36612194  0.92034735  1
  O  O112  1  0.25488707  0.13902713  0.91864030  1
  O  O113  1  0.75483935  0.13813119  0.91885202  1
  O  O114  1  0.31222335  0.13433576  0.42075599  1
  O  O115  1  0.82083224  0.14775744  0.42113716  1
  O  O116  1  0.24807372  0.36924573  0.41668715  1
  O  O117  1  0.75582738  0.36432281  0.41930394  1
  O  O118  1  0.41551375  0.47757583  0.42530871  1
  O  O119  1  0.92723100  0.49051321  0.42318256  1
  O  O120  1  0.17351791  0.50151172  0.07764691  1
  O  O121  1  0.67370431  0.50285919  0.07767202  1
  O  O122  1  0.06995514  0.66202073  0.07263227  1
  O  O123  1  0.57005037  0.66324220  0.07271826  1
  O  O124  1  0.25688190  0.87464713  0.07538527  1
  O  O125  1  0.75748213  0.87575377  0.07523064  1
  O  O126  1  0.17160391  0.84666072  0.57664353  1
  O  O127  1  0.67086018  0.84178065  0.58136433  1
  O  O128  1  0.25459297  0.64165014  0.57815304  1
  O  O129  1  0.75715774  0.64254721  0.57695182  1
  O  O130  1  0.06849543  0.47447980  0.57382247  1
  O  O131  1  0.57204173  0.47337889  0.57459360  1
  O  O132  1  0.14485782  0.81996454  0.26053259  1
  O  O133  1  0.64837121  0.82549783  0.25478986  1
  O  O134  1  0.25083438  0.68727692  0.25674293  1
  O  O135  1  0.75194527  0.69155065  0.26069568  1
  O  O136  1  0.07994340  0.47572727  0.25400875  1
  O  O137  1  0.58081241  0.46954903  0.25058157  1
  O  O138  1  0.14562804  0.46935695  0.76087236  1
  O  O139  1  0.64677925  0.47177174  0.75945355  1
  O  O140  1  0.08050976  0.68581947  0.75548269  1
  O  O141  1  0.58377595  0.68934156  0.75704461  1
  O  O142  1  0.25331650  0.81436403  0.75840172  1
  O  O143  1  0.75396630  0.81384153  0.75966026  1
loop_
_geom_bond_atom_site_label_1
_geom_bond_atom_site_label_2
_geom_bond_distance
_geom_bond_site_symmetry_2
Na0 O102 2.306779 1_555
Na0 O34 2.325061 1_555
Na0 O134 2.430614 1_555
Na0 O136 2.492997 1_555
Na0 O106 2.606355 1_555
Na0 O64 2.755268 1_555
Na0 O20 2.805400 1_555
Na0 O0 2.833546 1_555
Na1 O103 2.283950 1_555
Na1 O35 2.339178 1_555
Na1 O137 2.417449 1_555
Na1 O135 2.452664 1_555
Na1 O107 2.561260 1_555
Na1 O65 2.722684 1_555
Na1 O21 2.877246 1_555
Na1 O1 2.903249 1_555
Na2 O103 2.299724 1_555
Na2 O132 2.367490 1_655
Na2 O3 2.496525 1_555
Na2 O105 2.538284 1_555
Na2 O60 2.627113 1_655
Na2 O136 2.633159 1_655
Na2 O22 2.757921 1_655
Na2 O31 2.760405 1_555
Na3 O102 2.342598 1_555
Na3 O133 2.384196 1_555
Na3 O61 2.505498 1_555
Na3 O104 2.523147 1_555
Na3 O137 2.616152 1_555
Na3 O2 2.650284 1_555
Na3 O30 2.904700 1_555
Na3 O23 2.929174 1_555
Na4 O142 2.318783 1_555
Na4 O100 2.397314 1_555
Na4 O98 2.398875 1_555
Na4 O28 2.553232 1_555
Na4 O12 2.584256 1_555
Na4 O138 2.748916 1_555
Na4 O70 2.773305 1_555
Na4 O8 2.901370 1_555
Na5 O143 2.313279 1_555
Na5 O99 2.356719 1_555
Na5 O101 2.390843 1_555
Na5 O29 2.530336 1_555
Na5 O13 2.618452 1_555
Na5 O139 2.666048 1_555
Na5 O71 2.734296 1_555
Na5 O9 2.924942 1_555
Na6 O97 2.326826 1_555
Na6 O138 2.358080 1_655
Na6 O101 2.525506 1_555
Na6 O140 2.581615 1_655
Na6 O11 2.588520 1_555
Na6 O25 2.640198 1_555
Na6 O66 2.683766 1_655
Na6 O14 2.724978 1_655
Na7 O26 2.263931 1_555
Na7 O96 2.276070 1_555
Na7 O140 2.454000 1_545
Na7 O142 2.459841 1_545
Na7 O98 2.650307 1_555
Na7 O16 2.746696 1_545
Na7 O68 2.866739 1_545
Na7 O6 2.893662 1_555
Na8 O27 2.300744 1_555
Na8 O97 2.304173 1_555
Na8 O141 2.444088 1_545
Na8 O143 2.504119 1_545
Na8 O99 2.601297 1_555
Na8 O17 2.720948 1_545
Na8 O69 2.857792 1_545
Na8 O7 2.913299 1_555
Na9 O127 2.298288 1_555
Na9 O59 2.314670 1_555
Na9 O88 2.419312 1_555
Na9 O87 2.448849 1_565
Na9 O131 2.600162 1_555
Na9 O44 2.810660 1_555
Na9 O24 2.880921 1_555
Na9 O17 2.892110 1_555
Na10 O126 2.336672 1_555
Na10 O84 2.392853 1_565
Na10 O128 2.547059 1_555
Na10 O12 2.609812 1_555
Na10 O26 2.637195 1_565
Na10 O88 2.669531 1_555
Na10 O54 2.812258 1_555
Na10 O46 2.829811 1_565
Na11 O127 2.332609 1_555
Na11 O85 2.338590 1_565
Na11 O129 2.495003 1_555
Na11 O13 2.599387 1_555
Na11 O55 2.627446 1_555
Na11 O89 2.634681 1_555
Na11 O27 2.709429 1_565
Na11 O47 2.874608 1_565
Na12 O94 2.292802 1_565
Na12 O124 2.400981 1_555
Na12 O122 2.423220 1_555
Na12 O36 2.526511 1_565
Na12 O52 2.582855 1_554
Na12 O91 2.644887 1_455
Na12 O22 2.698730 1_555
Na12 O32 2.910196 1_565
Na13 O95 2.291654 1_565
Na13 O125 2.406863 1_555
Na13 O123 2.413309 1_555
Na13 O37 2.529320 1_565
Na13 O53 2.590380 1_554
Na13 O90 2.640933 1_555
Na13 O23 2.704830 1_555
Na13 O33 2.921098 1_565
Na14 O90 2.352565 1_555
Na14 O120 2.360470 1_555
Na14 O18 2.467286 1_555
Na14 O124 2.567164 1_555
Na14 O92 2.625476 1_565
Na14 O34 2.685092 1_555
Na14 O48 2.848390 1_554
Na15 O121 2.352552 1_555
Na15 O91 2.360852 1_555
Na15 O19 2.432682 1_555
Na15 O125 2.566302 1_555
Na15 O93 2.650440 1_565
Na15 O35 2.666716 1_555
Na15 O49 2.869089 1_554
Na16 O73 2.342883 1_545
Na16 O115 2.456922 1_555
Na16 O77 2.462485 1_555
Na16 O43 2.514482 1_555
Na16 O59 2.621365 1_545
Na16 O117 2.708780 1_555
Na16 O63 2.802447 1_545
Na16 O1 2.876123 1_555
Na17 O73 2.288276 1_555
Na17 O116 2.355883 1_555
Na17 O2 2.370291 1_555
Na17 O118 2.423841 1_555
Na17 O74 2.513402 1_555
Na17 O44 2.845077 1_555
Na17 O64 2.974326 1_555
Na17 O54 2.982806 1_555
Na18 O86 2.324537 1_555
Na18 O76 2.449268 1_555
Na18 O89 2.488864 1_445
Na18 O72 2.492279 1_545
Na18 O85 2.619720 1_455
Na18 O75 2.795406 1_445
Na19 O87 2.434742 1_555
Na19 O77 2.438964 1_555
Na19 O73 2.439508 1_545
Na19 O88 2.522666 1_545
Na19 O84 2.543800 1_555
Na19 O74 2.748845 1_545
Na20 O94 2.420807 1_556
Na20 O93 2.426579 1_456
Na20 O78 2.434281 1_555
Na20 O80 2.518896 1_545
Na20 O91 2.583183 1_446
Na20 O83 2.749159 1_445
Na21 O95 2.396275 1_556
Na21 O79 2.425876 1_555
Na21 O92 2.435245 1_556
Na21 O81 2.522283 1_545
Na21 O90 2.605009 1_546
Na21 O82 2.726538 1_545
Na22 O96 2.246174 1_555
Na22 O110 2.347987 1_555
Na22 O112 2.433800 1_555
Na22 O100 2.540742 1_555
Na22 O108 2.674092 1_555
Na22 O98 2.884659 1_555
Na23 O113 2.328542 1_555
Na23 O97 2.362394 1_555
Na23 O111 2.427603 1_555
Na23 O109 2.537383 1_555
Na23 O101 2.610851 1_555
Na23 O99 2.741061 1_555
Na24 O114 2.429461 1_555
Na24 O118 2.434226 1_555
Na24 O102 2.471802 1_555
Na24 O116 2.494678 1_555
Na24 O104 2.497094 1_555
Na24 O106 2.680406 1_555
Na25 O103 2.378624 1_555
Na25 O117 2.403653 1_555
Na25 O119 2.469785 1_555
Na25 O105 2.522727 1_555
Na25 O115 2.540515 1_555
Na25 O107 2.720346 1_555
Na26 O120 2.351722 1_555
Na26 O134 2.400086 1_555
Na26 O136 2.449529 1_555
Na26 O124 2.622947 1_555
Na26 O132 2.707993 1_555
Na26 O122 2.762849 1_555
Na27 O121 2.372395 1_555
Na27 O137 2.391733 1_555
Na27 O135 2.449481 1_555
Na27 O133 2.594617 1_555
Na27 O125 2.644513 1_555
Na27 O123 2.789625 1_555
Na28 O126 2.285127 1_555
Na28 O128 2.507104 1_555
Na28 O140 2.527680 1_555
Na28 O130 2.605728 1_555
Na28 O142 2.613055 1_555
Na28 O138 2.791117 1_555
Na29 O127 2.348765 1_555
Na29 O141 2.525319 1_555
Na29 O129 2.541956 1_555
Na29 O131 2.550969 1_555
Na29 O139 2.594334 1_555
Na29 O143 2.628498 1_555
Mg0 O3 1.868215 1_555
Mg0 O75 2.035817 1_555
Mg0 O0 2.053557 1_665
Mg0 O5 2.081485 1_565
Mg0 O72 2.121681 1_655
Mg0 O76 2.154137 1_665
Mg1 O2 1.903912 1_555
Mg1 O73 2.013149 1_555
Mg1 O4 2.057978 1_565
Mg1 O1 2.060426 1_565
Mg1 O74 2.082918 1_555
Mg1 O77 2.224607 1_565
Mg2 O11 1.890917 1_555
Mg2 O6 2.051720 1_655
Mg2 O83 2.061458 1_545
Mg2 O9 2.081636 1_545
Mg2 O78 2.120198 1_655
Mg2 O80 2.189043 1_645
Mg3 O10 1.874527 1_555
Mg3 O7 2.032684 1_555
Mg3 O82 2.069978 1_545
Mg3 O8 2.088152 1_545
Mg3 O79 2.114336 1_555
Mg3 O81 2.184464 1_545
Mg4 O26 1.894676 1_555
Mg4 O96 1.973593 1_555
Mg4 O24 2.016475 1_555
Mg4 O28 2.125409 1_555
Mg4 O98 2.158142 1_555
Mg4 O100 2.252202 1_555
Mg5 O27 1.876894 1_555
Mg5 O97 2.018227 1_555
Mg5 O25 2.018393 1_555
Mg5 O29 2.059060 1_555
Mg5 O99 2.149602 1_555
Mg5 O101 2.234191 1_555
Mg6 O34 1.925318 1_555
Mg6 O102 1.998407 1_555
Mg6 O30 2.042537 1_555
Mg6 O32 2.067203 1_555
Mg6 O106 2.098900 1_555
Mg6 O104 2.181977 1_555
Mg7 O35 1.915136 1_555
Mg7 O103 2.003430 1_555
Mg7 O31 2.043871 1_555
Mg7 O33 2.066338 1_555
Mg7 O107 2.068162 1_555
Mg7 O105 2.200817 1_555
Mg8 O120 1.928814 1_555
Mg8 O50 1.976932 1_554
Mg8 O48 2.003197 1_554
Mg8 O122 2.039940 1_555
Mg8 O52 2.099638 1_554
Mg8 O124 2.229939 1_555
Mg9 O121 1.923383 1_555
Mg9 O51 1.966002 1_554
Mg9 O49 2.010269 1_554
Mg9 O123 2.043196 1_555
Mg9 O53 2.098337 1_554
Mg9 O125 2.249384 1_555
Mg10 O126 1.931053 1_555
Mg10 O58 1.979904 1_555
Mg10 O54 2.020089 1_555
Mg10 O130 2.021472 1_555
Mg10 O56 2.082560 1_555
Mg10 O128 2.208721 1_555
Mg11 O59 1.905192 1_555
Mg11 O127 2.029420 1_555
Mg11 O55 2.045026 1_555
Mg11 O57 2.051711 1_555
Mg11 O131 2.073975 1_555
Mg11 O129 2.191977 1_555
Al0 O86 1.784676 1_665
Al0 O13 1.819864 1_555
Al0 O16 2.034418 1_655
Al0 O85 2.091036 1_565
Al0 O89 2.107161 1_555
Al0 O14 2.131879 1_665
Al1 O12 1.794857 1_545
Al1 O87 1.811757 1_555
Al1 O15 1.977918 1_555
Al1 O84 1.985841 1_555
Al1 O17 2.115230 1_545
Al1 O88 2.272869 1_545
Al2 O19 1.781305 1_545
Al2 O94 1.805944 1_655
Al2 O20 1.875027 1_655
Al2 O93 2.070093 1_555
Al2 O22 2.231063 1_645
Al2 O91 2.355521 1_545
Al3 O18 1.780306 1_545
Al3 O95 1.801879 1_555
Al3 O21 1.849967 1_555
Al3 O92 2.096229 1_555
Al3 O23 2.133265 1_545
Al3 O90 2.309669 1_545
Al4 O36 1.802660 1_556
Al4 O40 1.946534 1_556
Al4 O108 1.988259 1_555
Al4 O38 1.989064 1_556
Al4 O112 2.064976 1_555
Al4 O110 2.074966 1_555
Al5 O37 1.793539 1_556
Al5 O41 1.943602 1_556
Al5 O39 1.984897 1_556
Al5 O109 1.999180 1_555
Al5 O113 2.065945 1_555
Al5 O111 2.099966 1_555
Al6 O42 1.760987 1_555
Al6 O118 1.834450 1_555
Al6 O44 2.022493 1_555
Al6 O114 2.026274 1_555
Al6 O46 2.064077 1_555
Al6 O116 2.215809 1_555
Al7 O43 1.811911 1_555
Al7 O45 1.903282 1_555
Al7 O47 1.964869 1_555
Al7 O119 2.021851 1_555
Al7 O117 2.076463 1_555
Al7 O115 2.081950 1_555
Al8 O134 1.827947 1_555
Al8 O62 1.891196 1_555
Al8 O64 1.921931 1_555
Al8 O132 1.979524 1_555
Al8 O60 2.012665 1_555
Al8 O136 2.218986 1_555
Al9 O61 1.811449 1_555
Al9 O135 1.824784 1_555
Al9 O63 1.945463 1_555
Al9 O65 1.970430 1_555
Al9 O133 2.126822 1_555
Al9 O137 2.338550 1_555
Al10 O142 1.832880 1_555
Al10 O68 1.914176 1_555
Al10 O70 1.933437 1_555
Al10 O66 1.976018 1_555
Al10 O138 2.075408 1_555
Al10 O140 2.253011 1_555
Al11 O143 1.859330 1_555
Al11 O67 1.906250 1_555
Al11 O69 1.941427 1_555
Al11 O139 2.024666 1_555
Al11 O71 2.038322 1_555
Al11 O141 2.070677 1_555
O0 S0 1.471062 1_545
O1 S1 1.479115 1_545
O2 Si0 1.608504 1_555
O3 Si1 1.597081 1_555
O4 S3 1.455872 1_555
O5 S2 1.452311 1_655
O6 S4 1.467305 1_555
O7 S5 1.460098 1_555
O8 S7 1.459313 1_555
O9 S6 1.458131 1_655
O10 Si2 1.578409 1_555
O11 Si3 1.596190 1_545
O12 Si2 1.703544 1_565
O13 Si3 1.686594 1_555
O14 S4 1.490257 1_555
O15 S5 1.488623 1_555
O16 S6 1.494185 1_555
O17 S7 1.508238 1_555
O18 Si0 1.675732 1_555
O19 Si1 1.689140 1_555
O20 S2 1.511444 1_555
O21 S3 1.505847 1_555
O22 S0 1.504082 1_555
O23 S1 1.505287 1_555
O24 S8 1.473729 1_555
O25 S9 1.481095 1_555
O26 Si4 1.628605 1_555
O27 Si5 1.612570 1_555
O28 S10 1.475150 1_555
O29 S11 1.477547 1_555
O30 S12 1.467360 1_555
O31 S13 1.468144 1_555
O32 S14 1.458585 1_555
O33 S15 1.455995 1_555
O34 Si6 1.616543 1_555
O35 Si7 1.615095 1_555
O36 Si6 1.679483 1_555
O37 Si7 1.680435 1_555
O38 S12 1.496165 1_555
O39 S13 1.496775 1_555
O40 S14 1.493489 1_555
O41 S15 1.494322 1_555
O42 Si4 1.652840 1_555
O43 Si5 1.666774 1_555
O44 S10 1.496861 1_555
O45 S11 1.488894 1_555
O46 S8 1.491585 1_555
O47 S9 1.499089 1_555
O48 S16 1.461247 1_555
O49 S17 1.461570 1_555
O50 S18 1.447567 1_555
O51 S19 1.451568 1_555
O52 S20 1.467699 1_555
O53 S21 1.467267 1_555
O54 S22 1.472522 1_555
O55 S23 1.469541 1_555
O56 S24 1.454171 1_555
O57 S25 1.450639 1_555
O58 S26 1.444289 1_555
O59 Si8 1.608181 1_555
O60 S26 1.522177 1_555
O61 Si8 1.675042 1_555
O62 S22 1.506045 1_555
O63 S23 1.504740 1_555
O64 S24 1.528325 1_555
O65 S25 1.501760 1_555
O66 S18 1.527074 1_555
O67 S19 1.511601 1_555
O68 S20 1.520723 1_555
O69 S21 1.515116 1_555
O70 S16 1.523981 1_555
O71 S17 1.514439 1_555
O72 S26 1.476076 1_555
O73 Si8 1.656800 1_555
O74 S22 1.473528 1_555
O75 S23 1.457606 1_555
O76 S24 1.474150 1_555
O77 S25 1.488590 1_555
O78 S18 1.476750 1_555
O79 S19 1.475362 1_555
O80 S20 1.476484 1_555
O81 S21 1.474772 1_555
O82 S16 1.467556 1_555
O83 S17 1.473116 1_555
O84 S8 1.504045 1_555
O85 S9 1.504474 1_555
O86 Si4 1.663008 1_555
O87 Si5 1.672843 1_555
O88 S10 1.506378 1_555
O89 S11 1.498919 1_555
O90 S12 1.502037 1_555
O91 S13 1.499441 1_555
O92 S14 1.496872 1_555
O93 S15 1.500709 1_555
O94 Si6 1.683802 1_555
O95 Si7 1.680865 1_555
O96 Si2 1.615428 1_555
O97 Si3 1.633630 1_545
O98 S4 1.476897 1_555
O99 S5 1.493990 1_555
O100 S7 1.479307 1_555
O101 S6 1.494565 1_655
O102 Si0 1.655010 1_555
O103 Si1 1.650716 1_555
O104 S3 1.474770 1_555
O105 S2 1.470977 1_655
O106 S0 1.466653 1_545
O107 S1 1.467847 1_545
O108 S16 1.504297 1_555
O109 S17 1.511763 1_555
O110 S19 1.504478 1_555
O111 S18 1.502904 1_655
O112 S20 1.501943 1_545
O113 S21 1.507014 1_545
O114 S22 1.482831 1_545
O115 S23 1.516532 1_545
O116 S24 1.501886 1_555
O117 S25 1.519254 1_555
O118 Si8 1.675826 1_555
O119 S26 1.512378 1_655
O120 Si6 1.621891 1_555
O121 Si7 1.622034 1_555
O122 S13 1.478531 1_455
O123 S12 1.477634 1_555
O124 S14 1.500729 1_565
O125 S15 1.497944 1_565
O126 Si4 1.644882 1_565
O127 Si5 1.656466 1_565
O128 S10 1.476919 1_555
O129 S11 1.480167 1_555
O130 S9 1.452974 1_455
O131 S8 1.466838 1_555
O132 S0 1.510275 1_555
O133 S1 1.497445 1_555
O134 Si0 1.682315 1_555
O135 Si1 1.670662 1_555
O136 S2 1.511783 1_555
O137 S3 1.500860 1_555
O138 S4 1.520740 1_555
O139 S5 1.502171 1_555
O140 S6 1.505820 1_555
O141 S7 1.512491 1_555
O142 Si2 1.706431 1_565
O143 Si3 1.684405 1_555
