# generated using pymatgen
data_BaYFe2O5
_symmetry_space_group_name_H-M   'P 1'
_cell_length_a   3.98325400
_cell_length_b   3.98379300
_cell_length_c   7.61113200
_cell_angle_alpha   90.00000000
_cell_angle_beta   90.00000000
_cell_angle_gamma   90.00000000
_symmetry_Int_Tables_number   1
_chemical_formula_structural   BaYFe2O5
_chemical_formula_sum   'Ba1 Y1 Fe2 O5'
_cell_volume   120.77693915
_cell_formula_units_Z   1
loop_
 _symmetry_equiv_pos_site_id
 _symmetry_equiv_pos_as_xyz
  1  'x, y, z'
loop_
 _atom_site_type_symbol
 _atom_site_label
 _atom_site_symmetry_multiplicity
 _atom_site_fract_x
 _atom_site_fract_y
 _atom_site_fract_z
 _atom_site_occupancy
  Ba  Ba0  1  0.00000000  0.00000000  0.00000000  1
  Y  Y0  1  0.00000000  0.00000000  0.50000000  1
  Fe  Fe0  1  0.49999900  0.50000100  0.26820500  1
  Fe  Fe1  1  0.49999900  0.50000100  0.73179500  1
  O  O0  1  0.49999900  0.00000000  0.31355300  1
  O  O1  1  0.49999900  0.00000000  0.68644700  1
  O  O2  1  0.00000000  0.50000100  0.31364900  1
  O  O3  1  0.00000000  0.50000100  0.68635100  1
  O  O4  1  0.49999900  0.50000100  0.00000000  1
loop_
_geom_bond_atom_site_label_1
_geom_bond_atom_site_label_2
_geom_bond_distance
_geom_bond_site_symmetry_2
Ba0 O4 2.816771 1_545
Ba0 O4 2.816776 1_445
Ba0 O4 2.816776 1_555
Ba0 O4 2.816782 1_455
Ba0 O0 3.108362 1_555
Ba0 O1 3.108362 1_554
Ba0 O0 3.108367 1_455
Ba0 O1 3.108367 1_454
Ba0 O2 3.109095 1_545
Ba0 O3 3.109095 1_544
Ba0 O2 3.109100 1_555
Ba0 O3 3.109100 1_554
Fe0 O2 2.021434 1_555
Fe0 O2 2.021442 1_655
Fe0 O0 2.021575 1_565
Fe0 O0 2.021582 1_555
Fe0 O4 2.041344 1_555
Fe1 O3 2.021434 1_555
Fe1 O3 2.021442 1_655
Fe1 O1 2.021575 1_565
Fe1 O1 2.021582 1_555
Fe1 O4 2.041344 1_556
O0 Y0 2.445471 1_555
O0 Y0 2.445478 1_655
O1 Y0 2.445471 1_555
O1 Y0 2.445478 1_655
O2 Y0 2.445267 1_565
O2 Y0 2.445273 1_555
O3 Y0 2.445267 1_565
O3 Y0 2.445273 1_555
