# generated using pymatgen
data_Ta5B6
_symmetry_space_group_name_H-M   'P 1'
_cell_length_a   3.14929914
_cell_length_b   3.28700842
_cell_length_c   11.44303366
_cell_angle_alpha   90.00000000
_cell_angle_beta   97.90945079
_cell_angle_gamma   90.00000000
_symmetry_Int_Tables_number   1
_chemical_formula_structural   Ta5B6
_chemical_formula_sum   'Ta5 B6'
_cell_volume   117.32878927
_cell_formula_units_Z   1
loop_
 _symmetry_equiv_pos_site_id
 _symmetry_equiv_pos_as_xyz
  1  'x, y, z'
loop_
 _atom_site_type_symbol
 _atom_site_label
 _atom_site_symmetry_multiplicity
 _atom_site_fract_x
 _atom_site_fract_y
 _atom_site_fract_z
 _atom_site_occupancy
  Ta  Ta0  1  0.19434955  0.50000000  0.38869910  1
  Ta  Ta1  1  0.80565045  0.50000000  0.61130090  1
  Ta  Ta2  1  0.38561586  -0.00000000  0.77122871  1
  Ta  Ta3  1  0.61438414  0.00000000  0.22877129  1
  Ta  Ta4  1  -0.00000000  -0.00000000  0.00000000  1
  B  B0  1  0.46038993  0.50000000  0.92077785  1
  B  B1  1  0.53961007  0.50000000  0.07922215  1
  B  B2  1  0.27328549  -0.00000000  0.54657198  1
  B  B3  1  0.72671451  -0.00000000  0.45342802  1
  B  B4  1  0.08246733  0.50000000  0.16493566  1
  B  B5  1  0.91753267  0.50000000  0.83506434  1
loop_
_geom_bond_atom_site_label_1
_geom_bond_atom_site_label_2
_geom_bond_distance
_geom_bond_site_symmetry_2
B0 B1 1.795835 1_556
B0 B5 1.850220 1_555
B0 B5 1.850222 1_455
B0 Ta2 2.360971 1_555
B0 Ta2 2.360971 1_565
B0 Ta4 2.446809 1_656
B0 Ta4 2.446809 1_666
B0 Ta4 2.446813 1_556
B0 Ta4 2.446813 1_566
B1 B4 1.850220 1_555
B1 B4 1.850222 1_655
B1 Ta3 2.360971 1_555
B1 Ta3 2.360971 1_565
B1 Ta4 2.446809 1_565
B1 Ta4 2.446809 1_555
B1 Ta4 2.446813 1_655
B1 Ta4 2.446813 1_665
B2 B3 1.895794 1_455
B2 B3 1.895799 1_555
B2 Ta1 2.391415 1_445
B2 Ta1 2.391415 1_455
B2 Ta1 2.391416 1_555
B2 Ta1 2.391416 1_545
B2 Ta0 2.429591 1_545
B2 Ta0 2.429591 1_555
B2 Ta2 2.546298 1_555
B3 Ta0 2.391415 1_655
B3 Ta0 2.391415 1_645
B3 Ta0 2.391416 1_545
B3 Ta0 2.391416 1_555
B3 Ta1 2.429591 1_555
B3 Ta1 2.429591 1_545
B3 Ta3 2.546298 1_555
B4 Ta3 2.388327 1_555
B4 Ta3 2.388327 1_565
B4 Ta3 2.388331 1_455
B4 Ta3 2.388331 1_465
B4 Ta4 2.489136 1_565
B4 Ta4 2.489136 1_555
B4 Ta0 2.536174 1_555
B5 Ta2 2.388327 1_565
B5 Ta2 2.388327 1_555
B5 Ta2 2.388331 1_655
B5 Ta2 2.388331 1_665
B5 Ta4 2.489136 1_666
B5 Ta4 2.489136 1_656
B5 Ta1 2.536174 1_555
