# generated using pymatgen
data_MgFe(Mo3S4)2
_symmetry_space_group_name_H-M   'P 1'
_cell_length_a   6.66235550
_cell_length_b   6.58588693
_cell_length_c   6.65056221
_cell_angle_alpha   96.13735867
_cell_angle_beta   97.07163516
_cell_angle_gamma   93.28187311
_symmetry_Int_Tables_number   1
_chemical_formula_structural   MgFe(Mo3S4)2
_chemical_formula_sum   'Mg1 Fe1 Mo6 S8'
_cell_volume   287.19655518
_cell_formula_units_Z   1
loop_
 _symmetry_equiv_pos_site_id
 _symmetry_equiv_pos_as_xyz
  1  'x, y, z'
loop_
 _atom_site_type_symbol
 _atom_site_label
 _atom_site_symmetry_multiplicity
 _atom_site_fract_x
 _atom_site_fract_y
 _atom_site_fract_z
 _atom_site_occupancy
  Mg  Mg0  1  0.00395375  0.42171509  0.96920563  1
  Fe  Fe0  1  0.09193747  0.86372770  0.05027212  1
  Mo  Mo0  1  0.58730832  0.46592234  0.76681805  1
  Mo  Mo1  1  0.45186470  0.78943182  0.58613481  1
  Mo  Mo2  1  0.76499312  0.59845010  0.45856538  1
  Mo  Mo3  1  0.40194886  0.56029241  0.22253098  1
  Mo  Mo4  1  0.53655358  0.23751268  0.40558998  1
  Mo  Mo5  1  0.22001509  0.42233094  0.53372327  1
  S  S0  1  0.79706446  0.79169676  0.80353900  1
  S  S1  1  0.19685502  0.20966830  0.20177806  1
  S  S2  1  0.86750175  0.28474921  0.61505042  1
  S  S3  1  0.28430924  0.65191786  0.85981436  1
  S  S4  1  0.61599434  0.87487085  0.28714798  1
  S  S5  1  0.12142185  0.73929917  0.36946666  1
  S  S6  1  0.69601598  0.37589720  0.13188538  1
  S  S7  1  0.37267949  0.15001756  0.70722792  1
loop_
_geom_bond_atom_site_label_1
_geom_bond_atom_site_label_2
_geom_bond_distance
_geom_bond_site_symmetry_2
Mg0 S6 2.452766 1_456
Mg0 S2 2.472310 1_455
Mg0 S1 2.484402 1_556
Mg0 S3 2.561792 1_555
Mg0 S0 3.104156 1_455
Fe0 S3 2.327990 1_554
Fe0 S5 2.346109 1_555
Fe0 S0 2.389605 1_454
Fe0 S1 2.418264 1_565
Mo0 S7 2.423601 1_555
Mo0 S0 2.465042 1_555
Mo0 S3 2.527181 1_555
Mo0 S2 2.527577 1_555
Mo0 S6 2.587428 1_556
Mo1 S5 2.462939 1_555
Mo1 S3 2.473095 1_555
Mo1 S4 2.484020 1_555
Mo1 S7 2.530923 1_565
Mo1 S0 2.559830 1_555
Mo2 S4 2.443612 1_555
Mo2 S6 2.464923 1_555
Mo2 S0 2.480504 1_555
Mo2 S2 2.502828 1_555
Mo2 S5 2.657511 1_655
Mo3 S4 2.414749 1_555
Mo3 S6 2.466428 1_555
Mo3 S5 2.508677 1_555
Mo3 S3 2.587923 1_554
Mo3 S1 2.596640 1_555
Mo4 S2 2.443647 1_555
Mo4 S6 2.448017 1_555
Mo4 S1 2.477289 1_555
Mo4 S7 2.502547 1_555
Mo4 S4 2.539641 1_545
Mo5 S7 2.438185 1_555
Mo5 S1 2.467642 1_555
Mo5 S3 2.483726 1_555
Mo5 S5 2.539775 1_555
Mo5 S2 2.608302 1_455
