# generated using pymatgen
data_Ta4Zn2Si3(SO6)6
_symmetry_space_group_name_H-M   'P 1'
_cell_length_a   8.82329797
_cell_length_b   8.82561807
_cell_length_c   22.71827508
_cell_angle_alpha   90.05374015
_cell_angle_beta   90.00000000
_cell_angle_gamma   119.99130426
_symmetry_Int_Tables_number   1
_chemical_formula_structural   Ta4Zn2Si3(SO6)6
_chemical_formula_sum   'Ta8 Zn4 Si6 S12 O72'
_cell_volume   1532.21550983
_cell_formula_units_Z   2
loop_
 _symmetry_equiv_pos_site_id
 _symmetry_equiv_pos_as_xyz
  1  'x, y, z'
loop_
 _atom_site_type_symbol
 _atom_site_label
 _atom_site_symmetry_multiplicity
 _atom_site_fract_x
 _atom_site_fract_y
 _atom_site_fract_z
 _atom_site_occupancy
  Ta  Ta0  1  0.99677049  0.00252949  0.64181496  1
  Ta  Ta1  1  0.00575900  0.00252949  0.14181496  1
  Ta  Ta2  1  0.65556082  0.33778890  0.97713426  1
  Ta  Ta3  1  0.68222908  0.33778890  0.47713426  1
  Ta  Ta4  1  0.32309334  0.66951964  0.02419456  1
  Ta  Ta5  1  0.34642530  0.66951964  0.52419456  1
  Ta  Ta6  1  0.33974522  0.67513609  0.30859994  1
  Ta  Ta7  1  0.33538987  0.67513609  0.80859994  1
  Zn  Zn0  1  0.98992147  0.00205275  0.35623102  1
  Zn  Zn1  1  0.01213128  0.00205275  0.85623102  1
  Zn  Zn2  1  0.67637316  0.34832375  0.68358049  1
  Zn  Zn3  1  0.67195159  0.34832375  0.18358049  1
  Si  Si0  1  0.95501760  0.34040341  0.58611881  1
  Si  Si1  1  0.66785750  0.61152697  0.58603045  1
  Si  Si2  1  0.94367047  0.61152697  0.08603045  1
  Si  Si3  1  0.38538682  0.34040341  0.08611881  1
  Si  Si4  1  0.33113998  0.95792893  0.91585536  1
  Si  Si5  1  0.62678795  0.95792893  0.41585536  1
  S  S0  1  0.28745536  0.00407133  0.25175769  1
  S  S1  1  0.71523109  0.71090134  0.25146029  1
  S  S2  1  0.99566948  0.28664993  0.25127754  1
  S  S3  1  0.29098045  0.28664993  0.75127754  1
  S  S4  1  0.99567025  0.71090134  0.75146029  1
  S  S5  1  0.71661597  0.00407133  0.75175769  1
  S  S6  1  0.37967227  0.04628324  0.58380862  1
  S  S7  1  0.66661197  0.04628324  0.08380862  1
  S  S8  1  0.61902961  0.66997284  0.91554635  1
  S  S9  1  0.04708405  0.38097394  0.91600420  1
  S  S10  1  0.33388889  0.38097394  0.41600420  1
  S  S11  1  0.05094223  0.66997284  0.41554635  1
  O  O0  1  0.20506820  0.02445670  0.30390571  1
  O  O1  1  0.81840727  0.79331062  0.30347620  1
  O  O2  1  0.97775725  0.18409849  0.30336348  1
  O  O3  1  0.20634124  0.18409849  0.80336348  1
  O  O4  1  0.97490336  0.79331062  0.80347620  1
  O  O5  1  0.81938850  0.02445670  0.80390571  1
  O  O6  1  0.79882938  0.96932556  0.69800765  1
  O  O7  1  0.17448916  0.20470007  0.69768938  1
  O  O8  1  0.03621211  0.82546019  0.69821544  1
  O  O9  1  0.78924807  0.82546019  0.19821544  1
  O  O10  1  0.03021092  0.20470007  0.19768938  1
  O  O11  1  0.17049617  0.96932556  0.19800765  1
  O  O12  1  0.87713705  0.36692407  0.64408830  1
  O  O13  1  0.48201953  0.10902066  0.63673716  1
  O  O14  1  0.61617723  0.50039550  0.64350059  1
  O  O15  1  0.88421927  0.50039550  0.14350059  1
  O  O16  1  0.62700213  0.10902066  0.13673716  1
  O  O17  1  0.48978802  0.36692407  0.14408830  1
  O  O18  1  0.46956790  0.29862591  0.02595166  1
  O  O19  1  0.82945191  0.52453683  0.02544894  1
  O  O20  1  0.70111573  0.15719285  0.03073884  1
  O  O21  1  0.45607812  0.15719285  0.53073884  1
  O  O22  1  0.69508591  0.52453683  0.52544894  1
  O  O23  1  0.82905901  0.29862591  0.52595166  1
  O  O24  1  0.53250554  0.68658560  0.96854829  1
  O  O25  1  0.15980602  0.46705866  0.96892861  1
  O  O26  1  0.31887681  0.83263219  0.97109252  1
  O  O27  1  0.51375438  0.83263219  0.47109252  1
  O  O28  1  0.30725164  0.46705866  0.46892861  1
  O  O29  1  0.15407906  0.68658560  0.46854829  1
  O  O30  1  0.12890620  0.63163779  0.36242420  1
  O  O31  1  0.48993572  0.85347304  0.35870701  1
  O  O32  1  0.36143930  0.49627228  0.36322420  1
  O  O33  1  0.13483197  0.49627228  0.86322420  1
  O  O34  1  0.36353632  0.85347304  0.85870701  1
  O  O35  1  0.50273059  0.63163779  0.86242420  1
  O  O36  1  0.03173991  0.82041727  0.40757834  1
  O  O37  1  0.81101560  0.97560314  0.40917524  1
  O  O38  1  0.18317185  0.21042533  0.40888810  1
  O  O39  1  0.02725347  0.21042533  0.90888810  1
  O  O40  1  0.16458754  0.97560314  0.90917524  1
  O  O41  1  0.78867736  0.82041727  0.90757834  1
  O  O42  1  0.98266783  0.16720341  0.59546851  1
  O  O43  1  0.20073687  0.02570044  0.59226430  1
  O  O44  1  0.84176940  0.81081537  0.59658819  1
  O  O45  1  0.96904597  0.81081537  0.09658819  1
  O  O46  1  0.82496358  0.02570044  0.09226430  1
  O  O47  1  0.18453558  0.16720341  0.09546851  1
  O  O48  1  0.67996459  0.14355034  0.74173995  1
  O  O49  1  0.46283394  0.30935035  0.74213287  1
  O  O50  1  0.85241989  0.53500240  0.74440562  1
  O  O51  1  0.68258351  0.53500240  0.24440562  1
  O  O52  1  0.84651741  0.30935035  0.24213287  1
  O  O53  1  0.46358675  0.14355034  0.24173995  1
  O  O54  1  0.63211309  0.50536853  0.92244903  1
  O  O55  1  0.87667738  0.37330690  0.92448845  1
  O  O56  1  0.51737372  0.14236980  0.92681136  1
  O  O57  1  0.62499708  0.14236980  0.42681136  1
  O  O58  1  0.49663052  0.37330690  0.42448845  1
  O  O59  1  0.87325643  0.50536853  0.42244903  1
  O  O60  1  0.35658497  0.50126794  0.06625412  1
  O  O61  1  0.14417712  0.65253414  0.07041127  1
  O  O62  1  0.51865446  0.86504364  0.07121091  1
  O  O63  1  0.34638819  0.86504364  0.57121091  1
  O  O64  1  0.50835603  0.65253414  0.57041127  1
  O  O65  1  0.14468197  0.50126794  0.56625412  1
  O  O66  1  0.29270960  0.83064585  0.25813919  1
  O  O67  1  0.53075530  0.69556587  0.25917575  1
  O  O68  1  0.16193769  0.46605973  0.25935606  1
  O  O69  1  0.30412104  0.46605973  0.75935606  1
  O  O70  1  0.16480957  0.69556587  0.75917575  1
  O  O71  1  0.53793525  0.83064585  0.75813919  1
loop_
_geom_bond_atom_site_label_1
_geom_bond_atom_site_label_2
_geom_bond_distance
_geom_bond_site_symmetry_2
O0 S0 1.447303 1_555
O0 Zn0 2.163550 1_455
O1 S1 1.445898 1_555
O1 Zn0 2.080664 1_565
O2 S2 1.450295 1_555
O2 Zn0 2.052183 1_555
O3 S3 1.450295 1_555
O3 Zn1 2.052183 1_555
O4 S4 1.445898 1_555
O4 Zn1 2.080664 1_665
O5 S5 1.447303 1_555
O5 Zn1 2.163550 1_655
O6 S5 1.527423 1_565
O6 Ta0 2.062731 1_565
O7 S3 1.522117 1_555
O7 Ta0 2.110072 1_455
O8 S4 1.501371 1_455
O8 Ta0 2.180029 1_465
O9 S1 1.501371 1_555
O9 Ta1 2.180029 1_665
O10 S2 1.522117 1_455
O10 Ta1 2.110072 1_555
O11 S0 1.527423 1_565
O11 Ta1 2.062731 1_565
O12 Si0 1.556148 1_555
O12 Zn2 1.918156 1_555
O13 S6 1.437640 1_555
O13 Zn2 2.215565 1_555
O14 Si1 1.558793 1_555
O14 Zn2 1.904584 1_555
O15 Si2 1.558793 1_555
O15 Zn3 1.904584 1_555
O16 S7 1.437640 1_555
O16 Zn3 2.215565 1_555
O17 Si3 1.556148 1_555
O17 Zn3 1.918156 1_555
O18 Si3 1.681927 1_555
O18 Ta2 1.864462 1_554
O19 Si2 1.650388 1_555
O19 Ta2 1.934888 1_554
O20 S7 1.486175 1_555
O20 Ta2 2.197533 1_554
O21 S6 1.486175 1_555
O21 Ta3 2.197533 1_555
O22 Si1 1.650388 1_555
O22 Ta3 1.934888 1_555
O23 Si0 1.681927 1_555
O23 Ta3 1.864462 1_555
O24 S8 1.471658 1_555
O24 Ta4 2.181056 1_556
O25 S9 1.501636 1_555
O25 Ta4 2.065677 1_556
O26 Si4 1.640819 1_555
O26 Ta4 1.893651 1_556
O27 Si5 1.640819 1_555
O27 Ta5 1.893651 1_555
O28 S10 1.501636 1_555
O28 Ta5 2.065677 1_555
O29 S11 1.471658 1_555
O29 Ta5 2.181056 1_555
O30 S11 1.508660 1_555
O30 Ta6 2.095282 1_555
O31 Si5 1.696584 1_555
O31 Ta6 1.854896 1_555
O32 S10 1.512390 1_555
O32 Ta6 2.091489 1_555
O33 S9 1.512390 1_555
O33 Ta7 2.091489 1_555
O34 Si4 1.696584 1_555
O34 Ta7 1.854896 1_555
O35 S8 1.508660 1_555
O35 Ta7 2.095282 1_555
O36 S11 1.431707 1_555
O36 Zn0 2.159053 1_465
O37 Si5 1.560819 1_555
O37 Zn0 1.903982 1_565
O38 S10 1.434784 1_555
O38 Zn0 2.140427 1_455
O39 S9 1.434787 1_555
O39 Zn1 2.140427 1_555
O40 Si4 1.560810 1_555
O40 Zn1 1.903982 1_565
O41 S8 1.431712 1_555
O41 Zn1 2.159053 1_665
O42 Si0 1.677702 1_555
O42 Ta0 1.849323 1_555
O43 S6 1.508593 1_555
O43 Ta0 2.044578 1_455
O44 Si1 1.675319 1_555
O44 Ta0 1.863405 1_565
O45 Si2 1.675322 1_555
O45 Ta1 1.863405 1_665
O46 S7 1.508585 1_555
O46 Ta1 2.044577 1_655
O47 Si3 1.677707 1_555
O47 Ta1 1.849323 1_555
O48 S5 1.438823 1_555
O48 Zn2 2.252706 1_555
O49 S3 1.441832 1_555
O49 Zn2 2.188752 1_555
O50 S4 1.439138 1_555
O50 Zn2 2.115169 1_555
O51 S1 1.439141 1_555
O51 Zn3 2.115169 1_555
O52 S2 1.441824 1_555
O52 Zn3 2.188752 1_555
O53 S0 1.438829 1_555
O53 Zn3 2.252706 1_555
O54 S8 1.521986 1_555
O54 Ta2 2.020648 1_555
O55 S9 1.483476 1_655
O55 Ta2 2.173554 1_555
O56 Si4 1.654368 1_545
O56 Ta2 1.913686 1_555
O57 Si5 1.654359 1_545
O57 Ta3 1.913686 1_555
O58 S10 1.483493 1_555
O58 Ta3 2.173554 1_555
O59 S11 1.521977 1_655
O59 Ta3 2.020648 1_555
O60 Si3 1.626583 1_555
O60 Ta4 1.909633 1_555
O61 Si2 1.657363 1_455
O61 Ta4 1.838663 1_555
O62 S7 1.502083 1_565
O62 Ta4 2.028737 1_555
O63 S6 1.502077 1_565
O63 Ta5 2.028737 1_555
O64 Si1 1.657380 1_555
O64 Ta5 1.838663 1_555
O65 Si0 1.626573 1_455
O65 Ta5 1.909633 1_555
O66 S0 1.561160 1_565
O66 Ta6 1.985569 1_555
O67 S1 1.574231 1_555
O67 Ta6 1.957093 1_555
O68 S2 1.539544 1_455
O68 Ta6 2.054198 1_555
O69 S3 1.539548 1_555
O69 Ta7 2.054198 1_555
O70 S4 1.574222 1_455
O70 Ta7 1.957093 1_555
O71 S5 1.561164 1_565
O71 Ta7 1.985569 1_555
