# generated using pymatgen
data_MgTl2(CoO3)2
_symmetry_space_group_name_H-M   'P 1'
_cell_length_a   5.49679806
_cell_length_b   6.02752492
_cell_length_c   5.49679811
_cell_angle_alpha   117.12765935
_cell_angle_beta   60.00001075
_cell_angle_gamma   117.12766063
_symmetry_Int_Tables_number   1
_chemical_formula_structural   MgTl2(CoO3)2
_chemical_formula_sum   'Mg1 Tl2 Co2 O6'
_cell_volume   134.08900848
_cell_formula_units_Z   1
loop_
 _symmetry_equiv_pos_site_id
 _symmetry_equiv_pos_as_xyz
  1  'x, y, z'
loop_
 _atom_site_type_symbol
 _atom_site_label
 _atom_site_symmetry_multiplicity
 _atom_site_fract_x
 _atom_site_fract_y
 _atom_site_fract_z
 _atom_site_occupancy
  Mg  Mg0  1  0.50000000  0.50000000  0.50000000  1
  Tl  Tl0  1  0.12097300  0.36291900  0.12097300  1
  Tl  Tl1  1  0.87902700  0.63708100  0.87902700  1
  Co  Co0  1  0.32449100  0.97347300  0.32449100  1
  Co  Co1  1  0.67550900  0.02652700  0.67550900  1
  O  O0  1  0.08751400  0.24083500  0.47000900  1
  O  O1  1  0.47000900  0.24083500  0.68331100  1
  O  O2  1  0.68331100  0.24083500  0.08751400  1
  O  O3  1  0.31668900  0.75916500  0.91248600  1
  O  O4  1  0.52999100  0.75916500  0.31668900  1
  O  O5  1  0.91248600  0.75916500  0.52999100  1
loop_
_geom_bond_atom_site_label_1
_geom_bond_atom_site_label_2
_geom_bond_distance
_geom_bond_site_symmetry_2
Mg0 O4 2.125368 1_555
Mg0 O1 2.125368 1_555
Mg0 O2 2.125371 1_555
Mg0 O3 2.125371 1_555
Mg0 O5 2.125373 1_555
Mg0 O0 2.125373 1_555
Co0 O3 2.044043 1_554
Co0 O5 2.044045 1_455
Co0 O4 2.044048 1_555
Co0 O1 2.151866 1_565
Co0 O2 2.151868 1_565
Co0 O0 2.151870 1_565
Co1 O2 2.044043 1_556
Co1 O0 2.044045 1_655
Co1 O1 2.044048 1_555
Co1 O4 2.151866 1_545
Co1 O3 2.151868 1_545
Co1 O5 2.151870 1_545
O0 Tl0 2.251110 1_555
O0 Tl1 2.663663 1_455
O1 Tl0 2.251113 1_556
O1 Tl1 2.663665 1_555
O2 Tl0 2.251115 1_655
O2 Tl1 2.663661 1_554
O3 Tl1 2.251115 1_455
O3 Tl0 2.663661 1_556
O4 Tl1 2.251113 1_554
O4 Tl0 2.663665 1_555
O5 Tl1 2.251110 1_555
O5 Tl0 2.663663 1_655
