# generated using pymatgen
data_Mn2NiO4
_symmetry_space_group_name_H-M   'P 1'
_cell_length_a   6.02148477
_cell_length_b   6.02148482
_cell_length_c   6.02148500
_cell_angle_alpha   60.00000451
_cell_angle_beta   60.00000422
_cell_angle_gamma   60.00000311
_symmetry_Int_Tables_number   1
_chemical_formula_structural   Mn2NiO4
_chemical_formula_sum   'Mn4 Ni2 O8'
_cell_volume   154.38170678
_cell_formula_units_Z   2
loop_
 _symmetry_equiv_pos_site_id
 _symmetry_equiv_pos_as_xyz
  1  'x, y, z'
loop_
 _atom_site_type_symbol
 _atom_site_label
 _atom_site_symmetry_multiplicity
 _atom_site_fract_x
 _atom_site_fract_y
 _atom_site_fract_z
 _atom_site_occupancy
  Mn  Mn0  1  0.50000000  0.00000000  0.49999900  1
  Mn  Mn1  1  0.99999900  0.50000000  0.50000000  1
  Mn  Mn2  1  0.49999900  0.50000000  0.00000000  1
  Mn  Mn3  1  0.49999900  0.50000000  0.50000100  1
  Ni  Ni0  1  0.12500000  0.12499900  0.12500000  1
  Ni  Ni1  1  0.87500000  0.87499900  0.87500000  1
  O  O0  1  0.74434100  0.74434000  0.74434200  1
  O  O1  1  0.25566000  0.25565800  0.73302300  1
  O  O2  1  0.25565900  0.73302200  0.25565900  1
  O  O3  1  0.73302400  0.25565800  0.25565800  1
  O  O4  1  0.74434100  0.26697800  0.74434000  1
  O  O5  1  0.26697700  0.74434000  0.74434100  1
  O  O6  1  0.25566000  0.25565800  0.25565900  1
  O  O7  1  0.74434100  0.74434000  0.26697700  1
loop_
_geom_bond_atom_site_label_1
_geom_bond_atom_site_label_2
_geom_bond_distance
_geom_bond_site_symmetry_2
Mn0 O6 2.081834 1_555
Mn0 O1 2.081842 1_555
Mn0 O3 2.081842 1_555
Mn0 O7 2.081842 1_545
Mn0 O5 2.081846 1_545
Mn0 O0 2.081851 1_545
Mn1 O4 2.081834 1_555
Mn1 O7 2.081838 1_555
Mn1 O0 2.081842 1_555
Mn1 O2 2.081842 1_655
Mn1 O6 2.081847 1_655
Mn1 O1 2.081851 1_655
Mn2 O2 2.081838 1_555
Mn2 O5 2.081838 1_554
Mn2 O6 2.081838 1_555
Mn2 O0 2.081842 1_554
Mn2 O4 2.081842 1_554
Mn2 O3 2.081846 1_555
Mn3 O5 2.081834 1_555
Mn3 O4 2.081838 1_555
Mn3 O1 2.081838 1_555
Mn3 O7 2.081842 1_555
Mn3 O2 2.081842 1_555
Mn3 O3 2.081855 1_555
Ni0 O3 1.927159 1_455
Ni0 O2 1.927164 1_545
Ni0 O1 1.927164 1_554
Ni0 O6 1.927168 1_555
Ni1 O0 1.927158 1_555
Ni1 O5 1.927164 1_655
Ni1 O7 1.927164 1_556
Ni1 O4 1.927173 1_565
