# generated using pymatgen
data_Na2MgNb(PO4)3
_symmetry_space_group_name_H-M   'P 1'
_cell_length_a   8.86408231
_cell_length_b   8.80220924
_cell_length_c   22.50533965
_cell_angle_alpha   90.00000000
_cell_angle_beta   90.27938298
_cell_angle_gamma   119.76936637
_symmetry_Int_Tables_number   1
_chemical_formula_structural   Na2MgNb(PO4)3
_chemical_formula_sum   'Na12 Mg6 Nb6 P18 O72'
_cell_volume   1524.19117766
_cell_formula_units_Z   6
loop_
 _symmetry_equiv_pos_site_id
 _symmetry_equiv_pos_as_xyz
  1  'x, y, z'
loop_
 _atom_site_type_symbol
 _atom_site_label
 _atom_site_symmetry_multiplicity
 _atom_site_fract_x
 _atom_site_fract_y
 _atom_site_fract_z
 _atom_site_occupancy
  Na  Na0  1  0.99035548  0.63213503  0.24785204  1
  Na  Na1  1  0.99035548  0.35822046  0.74785204  1
  Na  Na2  1  0.65702248  0.96546803  0.58118504  1
  Na  Na3  1  0.65702248  0.69155346  0.08118504  1
  Na  Na4  1  0.32368848  0.29880203  0.91451904  1
  Na  Na5  1  0.32368848  0.02488746  0.41451904  1
  Na  Na6  1  0.99825463  0.00054343  0.49372733  1
  Na  Na7  1  0.99825463  0.99771120  0.99372733  1
  Na  Na8  1  0.66492163  0.33387643  0.82706033  1
  Na  Na9  1  0.66492163  0.33104420  0.32706033  1
  Na  Na10  1  0.33158763  0.66721043  0.16039433  1
  Na  Na11  1  0.33158763  0.66437820  0.66039433  1
  Mg  Mg0  1  0.99435213  0.00009722  0.35229598  1
  Mg  Mg1  1  0.99435213  0.99425491  0.85229598  1
  Mg  Mg2  1  0.66101913  0.33343022  0.68562898  1
  Mg  Mg3  1  0.66101913  0.32758791  0.18562898  1
  Mg  Mg4  1  0.32768513  0.66676422  0.01896298  1
  Mg  Mg5  1  0.32768513  0.66092191  0.51896298  1
  Nb  Nb0  1  0.00566735  0.99791263  0.64667055  1
  Nb  Nb1  1  0.00566735  0.00775472  0.14667055  1
  Nb  Nb2  1  0.67233435  0.33124563  0.98000355  1
  Nb  Nb3  1  0.67233435  0.34108772  0.48000355  1
  Nb  Nb4  1  0.33900035  0.66457963  0.31333755  1
  Nb  Nb5  1  0.33900035  0.67442172  0.81333755  1
  P  P0  1  0.29555578  0.00696994  0.25329233  1
  P  P1  1  0.71174146  0.70983707  0.25096710  1
  P  P2  1  0.99567081  0.28839892  0.25279539  1
  P  P3  1  0.29555578  0.28858584  0.75329233  1
  P  P4  1  0.99567081  0.70727190  0.75279539  1
  P  P5  1  0.71174146  0.00190439  0.75096710  1
  P  P6  1  0.96222278  0.34030294  0.58662533  1
  P  P7  1  0.37840846  0.04317007  0.58430010  1
  P  P8  1  0.66233781  0.62173192  0.58612839  1
  P  P9  1  0.96222278  0.62191884  0.08662533  1
  P  P10  1  0.66233781  0.04060490  0.08612839  1
  P  P11  1  0.37840846  0.33523739  0.08430010  1
  P  P12  1  0.62888878  0.67363694  0.91995933  1
  P  P13  1  0.04507446  0.37650407  0.91763410  1
  P  P14  1  0.32900381  0.95506592  0.91946239  1
  P  P15  1  0.62888878  0.95525284  0.41995933  1
  P  P16  1  0.32900381  0.37393890  0.41946239  1
  P  P17  1  0.04507446  0.66857139  0.41763410  1
  O  O0  1  0.20905505  0.02246345  0.30863865  1
  O  O1  1  0.82643522  0.79592781  0.30372129  1
  O  O2  1  0.97585915  0.18026789  0.30590437  1
  O  O3  1  0.20905505  0.18659160  0.80863865  1
  O  O4  1  0.97585915  0.79559126  0.80590437  1
  O  O5  1  0.82643522  0.03050742  0.80372129  1
  O  O6  1  0.79528765  0.96905353  0.69290433  1
  O  O7  1  0.16810758  0.19826812  0.69725464  1
  O  O8  1  0.02742598  0.82675021  0.69531440  1
  O  O9  1  0.79528765  0.82623411  0.19290433  1
  O  O10  1  0.02742598  0.20067578  0.19531440  1
  O  O11  1  0.16810758  0.96983946  0.19725464  1
  O  O12  1  0.87572205  0.35579645  0.64197165  1
  O  O13  1  0.49310222  0.12926081  0.63705429  1
  O  O14  1  0.64252615  0.51360089  0.63923737  1
  O  O15  1  0.87572205  0.51992460  0.14197165  1
  O  O16  1  0.64252615  0.12892426  0.13923737  1
  O  O17  1  0.49310222  0.36384042  0.13705429  1
  O  O18  1  0.46195465  0.30238653  0.02623733  1
  O  O19  1  0.83477458  0.53160112  0.03058764  1
  O  O20  1  0.69409298  0.16008321  0.02864740  1
  O  O21  1  0.46195465  0.15956711  0.52623733  1
  O  O22  1  0.69409298  0.53400878  0.52864740  1
  O  O23  1  0.83477458  0.30317246  0.53058764  1
  O  O24  1  0.54238805  0.68913045  0.97530565  1
  O  O25  1  0.15976822  0.46259481  0.97038829  1
  O  O26  1  0.30919215  0.84693489  0.97257137  1
  O  O27  1  0.54238805  0.85325860  0.47530565  1
  O  O28  1  0.30919215  0.46225826  0.47257137  1
  O  O29  1  0.15976822  0.69717442  0.47038829  1
  O  O30  1  0.12862065  0.63572053  0.35957133  1
  O  O31  1  0.50144058  0.86493512  0.36392164  1
  O  O32  1  0.36075898  0.49341721  0.36198140  1
  O  O33  1  0.12862065  0.49290111  0.85957133  1
  O  O34  1  0.36075898  0.86734278  0.86198140  1
  O  O35  1  0.50144058  0.63650646  0.86392164  1
  O  O36  1  0.02263781  0.82726191  0.40878954  1
  O  O37  1  0.80732751  0.98177756  0.41015788  1
  O  O38  1  0.18030542  0.18883953  0.41004621  1
  O  O39  1  0.02263781  0.19537590  0.90878954  1
  O  O40  1  0.18030542  0.99146589  0.91004621  1
  O  O41  1  0.80732751  0.82554995  0.91015788  1
  O  O42  1  0.96651373  0.16087431  0.58954609  1
  O  O43  1  0.19447508  0.02949145  0.59042277  1
  O  O44  1  0.83497217  0.80932898  0.58969911  1
  O  O45  1  0.96651373  0.80563943  0.08954609  1
  O  O46  1  0.83497217  0.02564319  0.08969911  1
  O  O47  1  0.19447508  0.16498363  0.09042277  1
  O  O48  1  0.68930481  0.16059491  0.74212254  1
  O  O49  1  0.47399451  0.31511056  0.74349088  1
  O  O50  1  0.84697242  0.52217253  0.74337921  1
  O  O51  1  0.68930481  0.52870890  0.24212254  1
  O  O52  1  0.84697242  0.32479889  0.24337921  1
  O  O53  1  0.47399451  0.15888295  0.24349088  1
  O  O54  1  0.63318073  0.49420731  0.92287909  1
  O  O55  1  0.86114208  0.36282445  0.92375577  1
  O  O56  1  0.50163917  0.14266198  0.92303211  1
  O  O57  1  0.63318073  0.13897243  0.42287909  1
  O  O58  1  0.50163917  0.35897619  0.42303211  1
  O  O59  1  0.86114208  0.49831663  0.42375577  1
  O  O60  1  0.35597081  0.49392891  0.07545654  1
  O  O61  1  0.14066051  0.64844456  0.07682488  1
  O  O62  1  0.51363842  0.85550653  0.07671321  1
  O  O63  1  0.35597081  0.86204290  0.57545654  1
  O  O64  1  0.51363842  0.65813289  0.57671321  1
  O  O65  1  0.14066051  0.49221695  0.57682488  1
  O  O66  1  0.29984673  0.82754131  0.25621309  1
  O  O67  1  0.52780808  0.69615845  0.25708977  1
  O  O68  1  0.16830517  0.47599598  0.25636611  1
  O  O69  1  0.29984673  0.47230643  0.75621309  1
  O  O70  1  0.16830517  0.69231019  0.75636611  1
  O  O71  1  0.52780808  0.83165063  0.75708977  1
loop_
_geom_bond_atom_site_label_1
_geom_bond_atom_site_label_2
_geom_bond_distance
_geom_bond_site_symmetry_2
Na0 O52 2.351230 1_555
Na0 O51 2.355999 1_555
Na0 O66 2.414362 1_655
Na0 O68 2.561926 1_655
Na0 O15 2.581843 1_555
Na0 O30 2.784999 1_655
Na0 O1 2.805141 1_555
Na0 O11 2.825217 1_655
Na1 O50 2.351222 1_555
Na1 O48 2.356001 1_555
Na1 O69 2.414361 1_655
Na1 O70 2.561934 1_655
Na1 O12 2.581841 1_555
Na1 O33 2.785001 1_655
Na1 O5 2.805141 1_555
Na1 O7 2.825217 1_655
Na2 O64 2.351221 1_555
Na2 O63 2.356008 1_555
Na2 O42 2.414362 1_565
Na2 O44 2.561926 1_555
Na2 O27 2.581822 1_555
Na2 O6 2.784999 1_555
Na2 O13 2.805141 1_565
Na2 O23 2.825217 1_565
Na3 O62 2.351237 1_555
Na3 O60 2.356005 1_555
Na3 O45 2.414361 1_555
Na3 O46 2.561934 1_565
Na3 O24 2.581825 1_554
Na3 O9 2.785001 1_555
Na3 O17 2.805141 1_555
Na3 O19 2.825217 1_555
Na4 O40 2.351230 1_545
Na4 O39 2.355999 1_555
Na4 O54 2.414366 1_555
Na4 O56 2.561940 1_555
Na4 O3 2.581843 1_555
Na4 O18 2.784985 1_556
Na4 O25 2.805141 1_555
Na4 O35 2.825217 1_555
Na5 O38 2.351222 1_555
Na5 O36 2.356001 1_545
Na5 O57 2.414369 1_555
Na5 O58 2.561925 1_555
Na5 O0 2.581841 1_555
Na5 O21 2.784981 1_555
Na5 O29 2.805141 1_545
Na5 O31 2.825217 1_545
Na6 O37 2.473882 1_545
Na6 O38 2.504303 1_655
Na6 O36 2.521619 1_645
Na6 O42 2.668567 1_555
Na6 O44 2.684063 1_545
Na6 O43 2.710871 1_655
Na7 O41 2.473882 1_555
Na7 O40 2.504303 1_655
Na7 O39 2.521619 1_665
Na7 O45 2.668567 1_556
Na7 O46 2.684063 1_566
Na7 O47 2.710871 1_666
Na8 O49 2.473882 1_555
Na8 O50 2.504303 1_555
Na8 O48 2.521619 1_555
Na8 O54 2.668567 1_555
Na8 O56 2.684063 1_555
Na8 O55 2.710871 1_555
Na9 O53 2.473882 1_555
Na9 O52 2.504303 1_555
Na9 O51 2.521619 1_555
Na9 O57 2.668567 1_555
Na9 O58 2.684063 1_555
Na9 O59 2.710871 1_555
Na10 O61 2.473882 1_555
Na10 O62 2.504303 1_555
Na10 O60 2.521619 1_555
Na10 O66 2.668567 1_555
Na10 O68 2.684063 1_555
Na10 O67 2.710871 1_555
Na11 O65 2.473882 1_555
Na11 O64 2.504303 1_555
Na11 O63 2.521619 1_555
Na11 O69 2.668567 1_555
Na11 O70 2.684063 1_555
Na11 O71 2.710871 1_555
Mg0 O2 1.971926 1_555
Mg0 O1 1.992006 1_545
Mg0 O37 2.055634 1_545
Mg0 O0 2.066941 1_655
Mg0 O36 2.090325 1_645
Mg0 O38 2.103805 1_655
Mg1 O4 1.971926 1_555
Mg1 O5 1.992006 1_565
Mg1 O41 2.055634 1_555
Mg1 O3 2.066941 1_665
Mg1 O39 2.090325 1_665
Mg1 O40 2.103805 1_655
Mg2 O14 1.971926 1_555
Mg2 O13 1.992006 1_555
Mg2 O49 2.055634 1_555
Mg2 O12 2.066941 1_555
Mg2 O48 2.090325 1_555
Mg2 O50 2.103805 1_555
Mg3 O16 1.971926 1_555
Mg3 O17 1.992006 1_555
Mg3 O53 2.055634 1_555
Mg3 O15 2.066941 1_555
Mg3 O51 2.090325 1_555
Mg3 O52 2.103805 1_555
Mg4 O26 1.971926 1_554
Mg4 O25 1.992006 1_554
Mg4 O61 2.055634 1_555
Mg4 O24 2.066941 1_554
Mg4 O60 2.090325 1_555
Mg4 O62 2.103805 1_555
Mg5 O28 1.971926 1_555
Mg5 O29 1.992006 1_555
Mg5 O65 2.055634 1_555
Mg5 O27 2.066941 1_555
Mg5 O63 2.090325 1_555
Mg5 O64 2.103805 1_555
Nb0 O8 1.947313 1_555
Nb0 O7 1.985405 1_565
Nb0 O43 2.009819 1_565
Nb0 O6 2.042858 1_455
Nb0 O44 2.043460 1_455
Nb0 O42 2.078655 1_465
Nb1 O10 1.947313 1_555
Nb1 O11 1.985405 1_545
Nb1 O47 2.009819 1_555
Nb1 O9 2.042858 1_445
Nb1 O46 2.043461 1_455
Nb1 O45 2.078655 1_445
Nb2 O20 1.947313 1_556
Nb2 O19 1.985405 1_556
Nb2 O55 2.009819 1_555
Nb2 O18 2.042858 1_556
Nb2 O56 2.043460 1_555
Nb2 O54 2.078655 1_555
Nb3 O22 1.947313 1_555
Nb3 O23 1.985405 1_555
Nb3 O59 2.009819 1_555
Nb3 O21 2.042858 1_555
Nb3 O58 2.043461 1_555
Nb3 O57 2.078655 1_555
Nb4 O32 1.947313 1_555
Nb4 O31 1.985405 1_555
Nb4 O67 2.009819 1_555
Nb4 O30 2.042858 1_555
Nb4 O68 2.043460 1_555
Nb4 O66 2.078655 1_555
Nb5 O34 1.947313 1_555
Nb5 O35 1.985405 1_555
Nb5 O71 2.009819 1_555
Nb5 O33 2.042858 1_555
Nb5 O70 2.043461 1_555
Nb5 O69 2.078655 1_555
O0 P0 1.507031 1_555
O1 P1 1.496861 1_555
O2 P2 1.483713 1_555
O3 P3 1.507031 1_555
O4 P4 1.483713 1_555
O5 P5 1.496861 1_555
O6 P5 1.600515 1_565
O7 P3 1.610285 1_555
O8 P4 1.602597 1_455
O9 P1 1.600515 1_555
O10 P2 1.602597 1_455
O11 P0 1.610285 1_565
O12 P6 1.507031 1_555
O13 P7 1.496861 1_555
O14 P8 1.483713 1_555
O15 P9 1.507031 1_555
O16 P10 1.483713 1_555
O17 P11 1.496861 1_555
O18 P11 1.600515 1_555
O19 P9 1.610285 1_555
O20 P10 1.602597 1_555
O21 P7 1.600515 1_555
O22 P8 1.602597 1_555
O23 P6 1.610285 1_555
O24 P12 1.507031 1_555
O25 P13 1.496861 1_555
O26 P14 1.483713 1_555
O27 P15 1.507031 1_555
O28 P16 1.483713 1_555
O29 P17 1.496861 1_555
O30 P17 1.600515 1_555
O31 P15 1.610285 1_555
O32 P16 1.602597 1_555
O33 P13 1.600515 1_555
O34 P14 1.602597 1_555
O35 P12 1.610285 1_555
O36 P17 1.518478 1_555
O37 P15 1.497205 1_555
O38 P16 1.517083 1_555
O39 P13 1.518487 1_555
O40 P14 1.517078 1_555
O41 P12 1.497201 1_555
O42 P6 1.599937 1_555
O43 P7 1.580806 1_555
O44 P8 1.601371 1_555
O45 P9 1.599946 1_555
O46 P10 1.601366 1_555
O47 P11 1.580802 1_555
O48 P5 1.518478 1_555
O49 P3 1.497205 1_555
O50 P4 1.517083 1_555
O51 P1 1.518487 1_555
O52 P2 1.517078 1_555
O53 P0 1.497201 1_555
O54 P12 1.599950 1_555
O55 P13 1.580791 1_655
O56 P14 1.601369 1_545
O57 P15 1.599932 1_545
O58 P16 1.601379 1_555
O59 P17 1.580799 1_655
O60 P11 1.518489 1_555
O61 P9 1.497189 1_455
O62 P10 1.517078 1_565
O63 P7 1.518472 1_565
O64 P8 1.517089 1_555
O65 P6 1.497196 1_455
O66 P0 1.599937 1_565
O67 P1 1.580806 1_555
O68 P2 1.601371 1_455
O69 P3 1.599946 1_555
O70 P4 1.601366 1_455
O71 P5 1.580802 1_565
