# generated using pymatgen
data_Na14Al8Si7S5O48
_symmetry_space_group_name_H-M   'P 1'
_cell_length_a   17.50653432
_cell_length_b   8.74883696
_cell_length_c   21.57747206
_cell_angle_alpha   89.72649986
_cell_angle_beta   89.65765180
_cell_angle_gamma   120.00134979
_symmetry_Int_Tables_number   1
_chemical_formula_structural   Na14Al8Si7S5O48
_chemical_formula_sum   'Na42 Al24 Si21 S15 O144'
_cell_volume   2861.87457222
_cell_formula_units_Z   3
loop_
 _symmetry_equiv_pos_site_id
 _symmetry_equiv_pos_as_xyz
  1  'x, y, z'
loop_
 _atom_site_type_symbol
 _atom_site_label
 _atom_site_symmetry_multiplicity
 _atom_site_fract_x
 _atom_site_fract_y
 _atom_site_fract_z
 _atom_site_occupancy
  Na  Na0  1  0.81333929  0.99223970  0.24120884  1
  Na  Na1  1  0.18560238  0.36562079  0.25604582  1
  Na  Na2  1  0.68628449  0.36628208  0.25429467  1
  Na  Na3  1  0.99857640  0.64267093  0.24191538  1
  Na  Na4  1  0.49997599  0.64465828  0.24381291  1
  Na  Na5  1  0.31256931  0.63421899  0.75249137  1
  Na  Na6  1  0.99871410  0.35322697  0.74865222  1
  Na  Na7  1  0.50064760  0.35637148  0.74927226  1
  Na  Na8  1  0.18393515  0.00458596  0.75880790  1
  Na  Na9  1  0.68710774  0.00766952  0.75999102  1
  Na  Na10  1  0.14447885  0.33491002  0.58266481  1
  Na  Na11  1  0.64617173  0.33594063  0.58442382  1
  Na  Na12  1  0.33704600  0.97403945  0.58028467  1
  Na  Na13  1  0.83691088  0.97441189  0.58291856  1
  Na  Na14  1  0.14378738  0.95352200  0.08542644  1
  Na  Na15  1  0.65295130  0.96199759  0.08554364  1
  Na  Na16  1  0.33732508  0.69998951  0.08297801  1
  Na  Na17  1  0.83707492  0.70840243  0.08003662  1
  Na  Na18  1  0.48674084  0.67786934  0.92525695  1
  Na  Na19  1  0.98156273  0.67703864  0.92605167  1
  Na  Na20  1  0.34537804  0.02298304  0.91406499  1
  Na  Na21  1  0.84328596  0.02120837  0.92024341  1
  Na  Na22  1  0.16959884  0.29857140  0.91011794  1
  Na  Na23  1  0.67241702  0.30428288  0.91022969  1
  Na  Na24  1  0.48368444  0.28918978  0.42034277  1
  Na  Na25  1  0.98402437  0.28954630  0.42048512  1
  Na  Na26  1  0.17043386  0.03834032  0.40470034  1
  Na  Na27  1  0.67026196  0.04037403  0.40612418  1
  Na  Na28  1  0.34385018  0.66655861  0.40839115  1
  Na  Na29  1  0.84488316  0.66805827  0.41009835  1
  Na  Na30  1  0.99864623  0.00577625  0.49826750  1
  Na  Na31  1  0.49968885  0.00676276  0.49835308  1
  Na  Na32  1  0.99275118  0.99194803  0.00249304  1
  Na  Na33  1  0.50199287  0.99437899  0.99963702  1
  Na  Na34  1  0.32666758  0.32575964  0.83487813  1
  Na  Na35  1  0.82343790  0.33552907  0.83368511  1
  Na  Na36  1  0.32342270  0.31095355  0.32890792  1
  Na  Na37  1  0.82611743  0.32655137  0.33045785  1
  Na  Na38  1  0.16567399  0.67561974  0.16909589  1
  Na  Na39  1  0.66559842  0.67277687  0.16397687  1
  Na  Na40  1  0.15864942  0.65756829  0.66789691  1
  Na  Na41  1  0.66866362  0.65822089  0.67068321  1
  Al  Al0  1  0.00237194  0.00193580  0.35045193  1
  Al  Al1  1  0.49978645  0.00287436  0.35078356  1
  Al  Al2  1  0.00015589  0.99828590  0.85190015  1
  Al  Al3  1  0.50308823  0.00667433  0.85256024  1
  Al  Al4  1  0.99767649  0.02637048  0.65053697  1
  Al  Al5  1  0.49899069  0.02953608  0.65125410  1
  Al  Al6  1  0.99189070  0.97042083  0.14454374  1
  Al  Al7  1  0.49978778  0.96955845  0.14920138  1
  Al  Al8  1  0.33649837  0.32966365  0.68904876  1
  Al  Al9  1  0.83738912  0.33435563  0.69098968  1
  Al  Al10  1  0.33575983  0.34036246  0.18974103  1
  Al  Al11  1  0.83428023  0.33226080  0.18569080  1
  Al  Al12  1  0.33233363  0.34181742  0.97925002  1
  Al  Al13  1  0.83343744  0.33201268  0.98215792  1
  Al  Al14  1  0.33170976  0.32151076  0.47849529  1
  Al  Al15  1  0.83147756  0.32131435  0.47896092  1
  Al  Al16  1  0.16193432  0.67200865  0.01546030  1
  Al  Al17  1  0.67374363  0.70078703  0.02196438  1
  Al  Al18  1  0.16099243  0.64827120  0.51430021  1
  Al  Al19  1  0.66220971  0.64940996  0.51551052  1
  Al  Al20  1  0.18624509  0.69656411  0.31051203  1
  Al  Al21  1  0.68146186  0.68455588  0.31364967  1
  Al  Al22  1  0.17919494  0.67572519  0.81491284  1
  Al  Al23  1  0.68827445  0.67675632  0.81304921  1
  Si  Si0  1  0.14530282  0.99907412  0.24776981  1
  Si  Si1  1  0.64578282  0.99750558  0.25181001  1
  Si  Si2  1  0.35597426  0.71380700  0.24971574  1
  Si  Si3  1  0.85568780  0.70691602  0.25121764  1
  Si  Si4  1  0.14658127  0.29414557  0.74942590  1
  Si  Si5  1  0.64914967  0.29995888  0.74966943  1
  Si  Si6  1  0.35509584  0.99972814  0.75045425  1
  Si  Si7  1  0.85567470  0.99821028  0.74987550  1
  Si  Si8  1  0.47970614  0.34622763  0.58314322  1
  Si  Si9  1  0.97928354  0.34619013  0.58320323  1
  Si  Si10  1  0.47897147  0.61246410  0.08287022  1
  Si  Si11  1  0.98038879  0.61117147  0.08289347  1
  Si  Si12  1  0.84093520  0.05578477  0.08416032  1
  Si  Si13  1  0.31201318  0.66750504  0.91855865  1
  Si  Si14  1  0.81225329  0.66354391  0.92005124  1
  Si  Si15  1  0.16608842  0.95878014  0.91585221  1
  Si  Si16  1  0.66564936  0.95626817  0.91383378  1
  Si  Si17  1  0.31079422  0.95455714  0.42012119  1
  Si  Si18  1  0.81159171  0.95571412  0.41913848  1
  Si  Si19  1  0.16688640  0.37488801  0.41550888  1
  Si  Si20  1  0.66617190  0.37325774  0.41655127  1
  S  S0  1  0.00029006  0.28550610  0.25018539  1
  S  S1  1  0.49722450  0.28038202  0.24887804  1
  S  S2  1  0.99708354  0.71542048  0.74839442  1
  S  S3  1  0.49779564  0.71652516  0.74734527  1
  S  S4  1  0.18549435  0.03946332  0.58432733  1
  S  S5  1  0.68524946  0.03845118  0.58394161  1
  S  S6  1  0.33786936  0.62208025  0.58373545  1
  S  S7  1  0.83771946  0.62081296  0.58343499  1
  S  S8  1  0.33770484  0.05498003  0.08355730  1
  S  S9  1  0.18781888  0.33429474  0.08310215  1
  S  S10  1  0.68344174  0.33040395  0.08452521  1
  S  S11  1  0.02525498  0.38373987  0.91517319  1
  S  S12  1  0.52362417  0.38171926  0.91791580  1
  S  S13  1  0.02250286  0.66412824  0.41769233  1
  S  S14  1  0.52285204  0.66423570  0.41798498  1
  O  O0  1  0.10393545  0.04355253  0.30968235  1
  O  O1  1  0.60054589  0.03767200  0.31146565  1
  O  O2  1  0.41824358  0.80292768  0.31065032  1
  O  O3  1  0.91830456  0.79628291  0.31233893  1
  O  O4  1  0.48489162  0.18071973  0.30810080  1
  O  O5  1  0.98522190  0.17818606  0.30843348  1
  O  O6  1  0.10393642  0.16259030  0.80907189  1
  O  O7  1  0.60381186  0.16511663  0.80890131  1
  O  O8  1  0.48211658  0.78965196  0.80509245  1
  O  O9  1  0.98603058  0.79071228  0.80661821  1
  O  O10  1  0.41942014  0.03625577  0.80961770  1
  O  O11  1  0.92109553  0.03756156  0.80880792  1
  O  O12  1  0.39579966  0.95610906  0.68882475  1
  O  O13  1  0.89652013  0.96474826  0.68648545  1
  O  O14  1  0.08771461  0.20723188  0.68733510  1
  O  O15  1  0.58706070  0.21255074  0.68784848  1
  O  O16  1  0.01288799  0.83209126  0.69412030  1
  O  O17  1  0.51178063  0.83169687  0.69316153  1
  O  O18  1  0.39879043  0.83152578  0.18729035  1
  O  O19  1  0.89705482  0.83384759  0.19110812  1
  O  O20  1  0.01570115  0.20452482  0.19665742  1
  O  O21  1  0.51275072  0.19573763  0.19556105  1
  O  O22  1  0.08252049  0.96968919  0.18793811  1
  O  O23  1  0.58629536  0.96496339  0.18997318  1
  O  O24  1  0.43141975  0.36316126  0.64531238  1
  O  O25  1  0.93191794  0.36543573  0.64525626  1
  O  O26  1  0.24121376  0.12430388  0.63971359  1
  O  O27  1  0.74113496  0.12197452  0.63858808  1
  O  O28  1  0.32303285  0.50919197  0.63949292  1
  O  O29  1  0.82181663  0.50432458  0.63741027  1
  O  O30  1  0.43009101  0.49871444  0.14531183  1
  O  O31  1  0.93311133  0.50111904  0.14609362  1
  O  O32  1  0.32141325  0.13866371  0.13733678  1
  O  O33  1  0.81691822  0.13838068  0.14427384  1
  O  O34  1  0.24470924  0.36557856  0.13816702  1
  O  O35  1  0.73908574  0.35913121  0.14038159  1
  O  O36  1  0.22813037  0.30105331  0.02658496  1
  O  O37  1  0.72283411  0.29479973  0.02848286  1
  O  O38  1  0.41322608  0.52552325  0.02342375  1
  O  O39  1  0.91732734  0.52695694  0.02277959  1
  O  O40  1  0.34436956  0.15307610  0.02502813  1
  O  O41  1  0.84775506  0.16432704  0.02061446  1
  O  O42  1  0.22565314  0.15417435  0.52811732  1
  O  O43  1  0.72467523  0.15325758  0.52726219  1
  O  O44  1  0.34410769  0.53458212  0.52676638  1
  O  O45  1  0.84455177  0.53713627  0.52524896  1
  O  O46  1  0.41500631  0.30644413  0.52362082  1
  O  O47  1  0.91503632  0.30593352  0.52337598  1
  O  O48  1  0.26305485  0.69769579  0.97858472  1
  O  O49  1  0.76578902  0.69868251  0.98005477  1
  O  O50  1  0.08089058  0.46618489  0.96986636  1
  O  O51  1  0.57882436  0.46361757  0.97096734  1
  O  O52  1  0.14591020  0.83442947  0.97696416  1
  O  O53  1  0.64364887  0.83408663  0.97595295  1
  O  O54  1  0.26435565  0.82977425  0.48227048  1
  O  O55  1  0.76333773  0.82871107  0.48022353  1
  O  O56  1  0.14536530  0.45287525  0.47805070  1
  O  O57  1  0.64493439  0.45321793  0.47837940  1
  O  O58  1  0.07937079  0.69326024  0.47225404  1
  O  O59  1  0.57971332  0.69261886  0.47209365  1
  O  O60  1  0.05821050  0.62908948  0.36158137  1
  O  O61  1  0.55958137  0.63017709  0.36138684  1
  O  O62  1  0.24442330  0.87170373  0.36232459  1
  O  O63  1  0.74856269  0.87498379  0.35897537  1
  O  O64  1  0.18395882  0.50554631  0.35622628  1
  O  O65  1  0.68233644  0.50139223  0.35662316  1
  O  O66  1  0.06643741  0.49341451  0.85832984  1
  O  O67  1  0.55775896  0.48563475  0.85963709  1
  O  O68  1  0.18384293  0.86715419  0.85506784  1
  O  O69  1  0.68014283  0.85688089  0.85406705  1
  O  O70  1  0.25014243  0.62259213  0.85713366  1
  O  O71  1  0.74752084  0.61161545  0.86059219  1
  O  O72  1  0.01463606  0.82602440  0.41476719  1
  O  O73  1  0.51424053  0.82454590  0.41475145  1
  O  O74  1  0.40857991  0.97212722  0.41177973  1
  O  O75  1  0.90947222  0.97373449  0.41146682  1
  O  O76  1  0.08066800  0.17516745  0.40961964  1
  O  O77  1  0.57954763  0.17471973  0.41018145  1
  O  O78  1  0.01647026  0.20596345  0.91182691  1
  O  O79  1  0.51336483  0.20037191  0.91295450  1
  O  O80  1  0.07968899  0.98426079  0.90947980  1
  O  O81  1  0.57834525  0.98204447  0.90824788  1
  O  O82  1  0.40933120  0.84603918  0.91090199  1
  O  O83  1  0.90968173  0.84436052  0.91022444  1
  O  O84  1  0.48895040  0.16234349  0.58719011  1
  O  O85  1  0.99018307  0.16417660  0.58666460  1
  O  O86  1  0.09626415  0.01793003  0.58989052  1
  O  O87  1  0.59586225  0.01770298  0.58972040  1
  O  O88  1  0.41808711  0.79816090  0.58685635  1
  O  O89  1  0.91816862  0.79744765  0.58710286  1
  O  O90  1  0.48985194  0.81624686  0.08650379  1
  O  O91  1  0.99243076  0.81353033  0.08615583  1
  O  O92  1  0.41829335  0.04050638  0.08728262  1
  O  O93  1  0.92758071  0.03118594  0.09021823  1
  O  O94  1  0.10062703  0.17902045  0.08906678  1
  O  O95  1  0.59423893  0.16876007  0.09160974  1
  O  O96  1  0.34474793  0.17713482  0.74485103  1
  O  O97  1  0.84662168  0.17907842  0.74515166  1
  O  O98  1  0.24713131  0.32376279  0.73978793  1
  O  O99  1  0.74573651  0.31698037  0.73884784  1
  O  O100  1  0.41574729  0.53778400  0.74275528  1
  O  O101  1  0.91734472  0.53728249  0.74352712  1
  O  O102  1  0.34662946  0.51451633  0.24604262  1
  O  O103  1  0.84445240  0.50911373  0.24428191  1
  O  O104  1  0.41693297  0.29809974  0.24436761  1
  O  O105  1  0.91881580  0.30078175  0.24722141  1
  O  O106  1  0.24377843  0.17384246  0.23805157  1
  O  O107  1  0.74467248  0.17149353  0.24545018  1
  O  O108  1  0.32408249  0.49254060  0.92301262  1
  O  O109  1  0.82582094  0.49062747  0.92647455  1
  O  O110  1  0.43108121  0.35302677  0.92432084  1
  O  O111  1  0.93667824  0.36471295  0.91904758  1
  O  O112  1  0.25655378  0.15358434  0.92491070  1
  O  O113  1  0.75444089  0.15251745  0.92098810  1
  O  O114  1  0.32470154  0.15542009  0.42434388  1
  O  O115  1  0.82408177  0.15531423  0.42390473  1
  O  O116  1  0.25740432  0.36072560  0.42554108  1
  O  O117  1  0.75696836  0.36052314  0.42555257  1
  O  O118  1  0.43231312  0.50825098  0.42528440  1
  O  O119  1  0.93164614  0.50902828  0.42588808  1
  O  O120  1  0.18288449  0.49875682  0.07605054  1
  O  O121  1  0.67608580  0.48851875  0.07762509  1
  O  O122  1  0.08167041  0.63937899  0.07732918  1
  O  O123  1  0.57795480  0.63982032  0.07713399  1
  O  O124  1  0.25831020  0.87199848  0.08128389  1
  O  O125  1  0.75147361  0.85362193  0.08055853  1
  O  O126  1  0.18068832  0.86656887  0.57846941  1
  O  O127  1  0.67968182  0.86454221  0.57706987  1
  O  O128  1  0.25780747  0.64345193  0.58248424  1
  O  O129  1  0.75800905  0.64425783  0.58140947  1
  O  O130  1  0.08045560  0.51840014  0.57712696  1
  O  O131  1  0.58057182  0.51755679  0.57758682  1
  O  O132  1  0.14709632  0.81360820  0.25764923  1
  O  O133  1  0.65030661  0.81389409  0.25929214  1
  O  O134  1  0.25518388  0.67975012  0.25226558  1
  O  O135  1  0.75579535  0.68191190  0.25511454  1
  O  O136  1  0.07730161  0.46618097  0.25653932  1
  O  O137  1  0.57540998  0.46112388  0.25365955  1
  O  O138  1  0.15106185  0.48601351  0.75704652  1
  O  O139  1  0.64928545  0.48614838  0.75864419  1
  O  O140  1  0.07543022  0.69030298  0.75212434  1
  O  O141  1  0.57388229  0.68907136  0.75139338  1
  O  O142  1  0.25529155  0.82668459  0.75425446  1
  O  O143  1  0.75516934  0.83126450  0.75300049  1
loop_
_geom_bond_atom_site_label_1
_geom_bond_atom_site_label_2
_geom_bond_distance
_geom_bond_site_symmetry_2
Na0 O135 2.393649 1_555
Na0 O105 2.394720 1_565
Na0 O107 2.407962 1_565
Na0 O33 2.430285 1_565
Na0 O133 2.502054 1_555
Na0 O19 2.695034 1_555
Na0 O63 2.751885 1_555
Na1 O134 2.385844 1_555
Na1 O106 2.390299 1_555
Na1 O102 2.451139 1_555
Na1 O136 2.456991 1_555
Na1 O64 2.496376 1_555
Na1 O0 2.691370 1_555
Na1 O34 2.740290 1_555
Na1 O20 2.888944 1_555
Na2 O107 2.393379 1_555
Na2 O135 2.397228 1_555
Na2 O103 2.409441 1_555
Na2 O137 2.463154 1_555
Na2 O65 2.526272 1_555
Na2 O35 2.632882 1_555
Na2 O1 2.769239 1_555
Na2 O21 2.931327 1_555
Na3 O132 2.288880 1_655
Na3 O103 2.343716 1_555
Na3 O31 2.399056 1_555
Na3 O136 2.551843 1_655
Na3 O105 2.593793 1_555
Na3 O22 2.728500 1_655
Na3 O60 2.815058 1_655
Na3 O3 2.823592 1_555
Na4 O133 2.312664 1_555
Na4 O102 2.333835 1_555
Na4 O30 2.477752 1_555
Na4 O137 2.547170 1_555
Na4 O104 2.626399 1_555
Na4 O23 2.683119 1_555
Na4 O61 2.775210 1_555
Na4 O2 2.832012 1_555
Na5 O142 2.351799 1_555
Na5 O100 2.353680 1_555
Na5 O98 2.379924 1_555
Na5 O138 2.452444 1_555
Na5 O70 2.481947 1_555
Na5 O28 2.719461 1_555
Na5 O12 2.788672 1_555
Na5 O8 2.822424 1_555
Na6 O97 2.315846 1_555
Na6 O138 2.324860 1_655
Na6 O25 2.551491 1_555
Na6 O140 2.559024 1_655
Na6 O101 2.632203 1_555
Na6 O66 2.667883 1_655
Na6 O11 2.711110 1_555
Na6 O14 2.791295 1_655
Na7 O139 2.270468 1_555
Na7 O96 2.375190 1_555
Na7 O141 2.527496 1_555
Na7 O24 2.570495 1_555
Na7 O67 2.621648 1_555
Na7 O100 2.665969 1_555
Na7 O10 2.742540 1_555
Na7 O15 2.742975 1_555
Na8 O68 2.394575 1_545
Na8 O142 2.436597 1_545
Na8 O140 2.444026 1_545
Na8 O96 2.455763 1_555
Na8 O98 2.466616 1_555
Na8 O6 2.642125 1_555
Na8 O26 2.756695 1_555
Na9 O143 2.379800 1_545
Na9 O69 2.384622 1_545
Na9 O99 2.406164 1_555
Na9 O97 2.438537 1_555
Na9 O141 2.493372 1_545
Na9 O7 2.672431 1_555
Na9 O27 2.785011 1_555
Na10 O85 2.344366 1_455
Na10 O130 2.376284 1_555
Na10 O128 2.422177 1_555
Na10 O86 2.465939 1_555
Na10 O56 2.474298 1_555
Na10 O14 2.484997 1_555
Na11 O131 2.385368 1_555
Na11 O84 2.388027 1_555
Na11 O129 2.414323 1_555
Na11 O15 2.459411 1_555
Na11 O87 2.466592 1_555
Na11 O57 2.507859 1_555
Na11 O43 2.856516 1_555
Na11 O29 2.908714 1_555
Na12 O84 2.331110 1_565
Na12 O126 2.409589 1_555
Na12 O54 2.477225 1_555
Na12 O128 2.505459 1_555
Na12 O88 2.565958 1_555
Na12 O12 2.598898 1_555
Na12 O46 2.791387 1_565
Na12 O26 2.895395 1_565
Na13 O85 2.347692 1_565
Na13 O127 2.423989 1_555
Na13 O13 2.490859 1_555
Na13 O129 2.502741 1_555
Na13 O55 2.571621 1_555
Na13 O89 2.575172 1_555
Na13 O47 2.812489 1_565
Na13 O27 2.841896 1_565
Na14 O91 2.296792 1_455
Na14 O122 2.405140 1_555
Na14 O94 2.441456 1_565
Na14 O124 2.442294 1_555
Na14 O22 2.487862 1_555
Na14 O52 2.573935 1_554
Na14 O36 2.913406 1_565
Na14 O32 2.927429 1_565
Na15 O125 2.349395 1_555
Na15 O123 2.451225 1_555
Na15 O90 2.477328 1_555
Na15 O95 2.491160 1_565
Na15 O23 2.537569 1_555
Na15 O53 2.591952 1_554
Na15 O33 2.803447 1_565
Na15 O37 2.806379 1_565
Na16 O90 2.336130 1_555
Na16 O120 2.383085 1_555
Na16 O124 2.502254 1_555
Na16 O18 2.522617 1_555
Na16 O92 2.583460 1_565
Na16 O48 2.602739 1_554
Na16 O38 2.788071 1_555
Na16 O34 2.794015 1_555
Na17 O125 2.400836 1_555
Na17 O91 2.400883 1_555
Na17 O93 2.463545 1_565
Na17 O49 2.479241 1_554
Na17 O121 2.495461 1_555
Na17 O19 2.636987 1_555
Na17 O39 2.872022 1_555
Na17 O35 2.944282 1_555
Na18 O81 2.346092 1_555
Na18 O82 2.468144 1_555
Na18 O108 2.474906 1_555
Na18 O38 2.478831 1_556
Na18 O110 2.501644 1_555
Na18 O53 2.627895 1_555
Na18 O8 2.782679 1_555
Na18 O67 2.910648 1_555
Na19 O109 2.376223 1_555
Na19 O80 2.381036 1_655
Na19 O83 2.384459 1_555
Na19 O39 2.411223 1_556
Na19 O111 2.442319 1_555
Na19 O52 2.733349 1_655
Na19 O9 2.744414 1_555
Na20 O82 2.321204 1_545
Na20 O112 2.356566 1_555
Na20 O110 2.513027 1_555
Na20 O79 2.548010 1_555
Na20 O10 2.566114 1_555
Na20 O40 2.659704 1_556
Na20 O68 2.771353 1_545
Na20 O48 2.819717 1_545
Na21 O113 2.350731 1_555
Na21 O83 2.364395 1_545
Na21 O41 2.488848 1_556
Na21 O111 2.605849 1_555
Na21 O78 2.632035 1_655
Na21 O11 2.724018 1_555
Na21 O49 2.753958 1_545
Na21 O69 2.867938 1_545
Na22 O78 2.381322 1_555
Na22 O108 2.386467 1_555
Na22 O80 2.389881 1_545
Na22 O112 2.441559 1_555
Na22 O6 2.485481 1_555
Na22 O70 2.698858 1_555
Na22 O36 2.715692 1_556
Na22 O50 2.914746 1_555
Na23 O109 2.373031 1_555
Na23 O113 2.405528 1_555
Na23 O81 2.453750 1_545
Na23 O79 2.459508 1_555
Na23 O7 2.509923 1_555
Na23 O71 2.554566 1_555
Na23 O37 2.719324 1_556
Na23 O51 2.936211 1_555
Na24 O77 2.354991 1_555
Na24 O74 2.412053 1_545
Na24 O114 2.421213 1_555
Na24 O118 2.493539 1_555
Na24 O46 2.566548 1_555
Na24 O4 2.609214 1_555
Na24 O57 2.757662 1_555
Na24 O61 2.874551 1_555
Na25 O76 2.368429 1_655
Na25 O75 2.403598 1_545
Na25 O115 2.435796 1_555
Na25 O119 2.510640 1_555
Na25 O47 2.559747 1_555
Na25 O5 2.614894 1_555
Na25 O56 2.754139 1_655
Na25 O60 2.865778 1_655
Na26 O0 2.375200 1_555
Na26 O114 2.402909 1_555
Na26 O76 2.407142 1_555
Na26 O72 2.420582 1_545
Na26 O116 2.490251 1_555
Na26 O62 2.554661 1_545
Na26 O42 2.851323 1_555
Na27 O1 2.379772 1_555
Na27 O115 2.391206 1_555
Na27 O77 2.403578 1_555
Na27 O73 2.427644 1_545
Na27 O117 2.468217 1_555
Na27 O63 2.643615 1_545
Na27 O43 2.797961 1_555
Na28 O74 2.325869 1_555
Na28 O116 2.349659 1_555
Na28 O2 2.440643 1_555
Na28 O118 2.568360 1_555
Na28 O73 2.590517 1_555
Na28 O64 2.682547 1_555
Na28 O44 2.799024 1_555
Na28 O54 2.915403 1_555
Na29 O75 2.325612 1_555
Na29 O117 2.358661 1_555
Na29 O3 2.421404 1_555
Na29 O119 2.544414 1_555
Na29 O72 2.578625 1_655
Na29 O45 2.729753 1_555
Na29 O65 2.731479 1_555
Na29 O55 2.881682 1_555
Na30 O75 2.371901 1_545
Na30 O76 2.393519 1_655
Na30 O85 2.409929 1_555
Na30 O72 2.501793 1_645
Na30 O89 2.519448 1_545
Na30 O86 2.588626 1_655
Na31 O77 2.370750 1_555
Na31 O74 2.383920 1_545
Na31 O84 2.416401 1_555
Na31 O73 2.507692 1_545
Na31 O88 2.518974 1_545
Na31 O87 2.571169 1_555
Na32 O93 2.318321 1_565
Na32 O91 2.379006 1_555
Na32 O83 2.434582 1_554
Na32 O80 2.533003 1_654
Na32 O78 2.585216 1_664
Na32 O94 2.591358 1_665
Na33 O90 2.371346 1_556
Na33 O81 2.408667 1_555
Na33 O82 2.436646 1_555
Na33 O79 2.527939 1_565
Na33 O92 2.540076 1_566
Na33 O95 2.545039 1_566
Na34 O112 2.375753 1_555
Na34 O108 2.416438 1_555
Na34 O96 2.448028 1_555
Na34 O98 2.481766 1_555
Na34 O110 2.594875 1_555
Na34 O100 2.618967 1_555
Na35 O113 2.362457 1_555
Na35 O109 2.412877 1_555
Na35 O99 2.424855 1_555
Na35 O97 2.501768 1_555
Na35 O101 2.574853 1_555
Na35 O111 2.632459 1_555
Na36 O106 2.368307 1_555
Na36 O102 2.402326 1_555
Na36 O114 2.469200 1_555
Na36 O104 2.484050 1_555
Na36 O116 2.521146 1_555
Na36 O118 2.780115 1_555
Na37 O107 2.314829 1_555
Na37 O103 2.358709 1_555
Na37 O117 2.469828 1_555
Na37 O115 2.495640 1_555
Na37 O105 2.499010 1_555
Na37 O119 2.707241 1_555
Na38 O132 2.370957 1_555
Na38 O134 2.378019 1_555
Na38 O122 2.399686 1_555
Na38 O124 2.513519 1_555
Na38 O136 2.531446 1_555
Na38 O120 2.646603 1_555
Na39 O123 2.354939 1_555
Na39 O125 2.359036 1_555
Na39 O133 2.484750 1_555
Na39 O135 2.505863 1_555
Na39 O121 2.534694 1_555
Na39 O137 2.583014 1_555
Na40 O130 2.362292 1_555
Na40 O138 2.395974 1_555
Na40 O140 2.428600 1_555
Na40 O142 2.466653 1_555
Na40 O126 2.543158 1_555
Na40 O128 2.569747 1_555
Na41 O139 2.331958 1_555
Na41 O143 2.346343 1_555
Na41 O131 2.467934 1_555
Na41 O141 2.505359 1_555
Na41 O129 2.515827 1_555
Na41 O127 2.643479 1_555
Al0 O0 1.843548 1_555
Al0 O3 1.860112 1_445
Al0 O5 1.934623 1_455
Al0 O76 1.941035 1_555
Al0 O75 2.002304 1_445
Al0 O72 2.157354 1_545
Al1 O1 1.834819 1_555
Al1 O2 1.838413 1_545
Al1 O4 1.931861 1_555
Al1 O77 1.947598 1_555
Al1 O74 1.973842 1_545
Al1 O73 2.186710 1_545
Al2 O11 1.840173 1_465
Al2 O6 1.891224 1_565
Al2 O80 1.920254 1_555
Al2 O83 1.932086 1_455
Al2 O9 1.970915 1_455
Al2 O78 2.136059 1_565
Al3 O7 1.855145 1_555
Al3 O10 1.861191 1_555
Al3 O81 1.877872 1_545
Al3 O82 1.976229 1_545
Al3 O8 2.028504 1_545
Al3 O79 2.078784 1_555
Al4 O13 1.747349 1_545
Al4 O14 1.775244 1_655
Al4 O85 1.874752 1_555
Al4 O16 2.069958 1_645
Al4 O86 2.190455 1_655
Al4 O89 2.254600 1_545
Al5 O15 1.766978 1_555
Al5 O12 1.774924 1_545
Al5 O84 1.866440 1_555
Al5 O17 2.058822 1_545
Al5 O87 2.190804 1_555
Al5 O88 2.284228 1_545
Al6 O19 1.782800 1_555
Al6 O22 1.849857 1_655
Al6 O91 1.871028 1_555
Al6 O93 1.879519 1_565
Al6 O20 2.192463 1_665
Al6 O94 2.205664 1_665
Al7 O18 1.760085 1_555
Al7 O23 1.773585 1_555
Al7 O90 1.856441 1_555
Al7 O95 2.094897 1_565
Al7 O21 2.130809 1_565
Al7 O92 2.259691 1_565
Al8 O24 1.797078 1_555
Al8 O96 1.852261 1_555
Al8 O98 1.883403 1_555
Al8 O28 2.005789 1_555
Al8 O100 2.023908 1_555
Al8 O26 2.046000 1_555
Al9 O25 1.820510 1_555
Al9 O99 1.843572 1_555
Al9 O97 1.855836 1_555
Al9 O101 1.987297 1_555
Al9 O29 2.003730 1_555
Al9 O27 2.117102 1_555
Al10 O30 1.801660 1_555
Al10 O106 1.849719 1_555
Al10 O102 1.887866 1_555
Al10 O32 2.008686 1_555
Al10 O104 2.021579 1_555
Al10 O34 2.048992 1_555
Al11 O33 1.808411 1_555
Al11 O31 1.822133 1_555
Al11 O103 1.941613 1_555
Al11 O107 1.963129 1_555
Al11 O35 2.048769 1_555
Al11 O105 2.111002 1_555
Al12 O38 1.803254 1_556
Al12 O108 1.846484 1_555
Al12 O112 1.923268 1_555
Al12 O36 1.954959 1_556
Al12 O40 2.020308 1_556
Al12 O110 2.051282 1_555
Al13 O41 1.806165 1_556
Al13 O39 1.832687 1_556
Al13 O109 1.886301 1_555
Al13 O113 1.997625 1_555
Al13 O37 2.048823 1_556
Al13 O111 2.157004 1_555
Al14 O46 1.816555 1_555
Al14 O114 1.825230 1_555
Al14 O116 1.890972 1_555
Al14 O42 1.994991 1_555
Al14 O118 2.041990 1_555
Al14 O44 2.055131 1_555
Al15 O47 1.813505 1_555
Al15 O115 1.835077 1_555
Al15 O117 1.899696 1_555
Al15 O43 1.989176 1_555
Al15 O119 2.040015 1_555
Al15 O45 2.050306 1_555
Al16 O52 1.782710 1_554
Al16 O48 1.844201 1_554
Al16 O122 1.846856 1_555
Al16 O50 1.924077 1_554
Al16 O120 2.164263 1_555
Al16 O124 2.241759 1_555
Al17 O53 1.798043 1_554
Al17 O49 1.851247 1_554
Al17 O125 1.858820 1_555
Al17 O123 1.894543 1_555
Al17 O51 2.207511 1_554
Al17 O121 2.224498 1_555
Al18 O56 1.776686 1_555
Al18 O54 1.837019 1_555
Al18 O130 1.864684 1_555
Al18 O58 1.895875 1_555
Al18 O126 2.248546 1_555
Al18 O128 2.267083 1_555
Al19 O57 1.782269 1_555
Al19 O55 1.835753 1_555
Al19 O131 1.865763 1_555
Al19 O59 1.914446 1_555
Al19 O127 2.203052 1_555
Al19 O129 2.222639 1_555
Al20 O62 1.761919 1_555
Al20 O134 1.794144 1_555
Al20 O132 1.876004 1_555
Al20 O64 1.919463 1_555
Al20 O60 2.286454 1_555
Al20 O136 2.293684 1_555
Al21 O63 1.784431 1_555
Al21 O135 1.816586 1_555
Al21 O65 1.854311 1_555
Al21 O133 1.888326 1_555
Al21 O61 2.189506 1_555
Al21 O137 2.316712 1_555
Al22 O70 1.782018 1_555
Al22 O142 1.853447 1_555
Al22 O68 1.854899 1_555
Al22 O138 1.940627 1_555
Al22 O66 2.033057 1_555
Al22 O140 2.326186 1_555
Al23 O71 1.746775 1_555
Al23 O143 1.805439 1_555
Al23 O139 1.874793 1_555
Al23 O69 1.877007 1_555
Al23 O67 2.272200 1_555
Al23 O141 2.457276 1_555
O0 Si0 1.654021 1_545
O1 Si1 1.636470 1_545
O2 Si2 1.643759 1_555
O3 Si3 1.649945 1_555
O4 S1 1.495878 1_555
O5 S0 1.505959 1_655
O6 Si4 1.628966 1_555
O7 Si5 1.640813 1_555
O8 S3 1.488759 1_555
O9 S2 1.477212 1_555
O10 Si6 1.631291 1_545
O11 Si7 1.635386 1_545
O12 Si6 1.639287 1_555
O13 Si7 1.633820 1_555
O14 Si4 1.636388 1_555
O15 Si5 1.655744 1_555
O16 S2 1.480610 1_455
O17 S3 1.476744 1_555
O18 Si2 1.624680 1_555
O19 Si3 1.615762 1_555
O20 S0 1.450522 1_555
O21 S1 1.466798 1_555
O22 Si0 1.636579 1_555
O23 Si1 1.633904 1_555
O24 Si8 1.627762 1_555
O25 Si9 1.623954 1_555
O26 S4 1.492997 1_555
O27 S5 1.479384 1_555
O28 S6 1.489545 1_555
O29 S7 1.474317 1_555
O30 Si10 1.630870 1_555
O31 Si11 1.627511 1_555
O32 S8 1.475442 1_555
O33 Si12 1.639418 1_555
O34 S9 1.491041 1_555
O35 S10 1.495590 1_555
O36 S9 1.506033 1_555
O37 S10 1.497784 1_555
O38 Si10 1.643194 1_555
O39 Si11 1.630007 1_555
O40 S8 1.494277 1_555
O41 Si12 1.633505 1_555
O42 S4 1.498368 1_555
O43 S5 1.505282 1_555
O44 S6 1.483228 1_555
O45 S7 1.490330 1_555
O46 Si8 1.637383 1_555
O47 Si9 1.637411 1_555
O48 Si13 1.642662 1_555
O49 Si14 1.635168 1_555
O50 S11 1.476804 1_555
O51 S12 1.444382 1_555
O52 Si15 1.625912 1_555
O53 Si16 1.629730 1_555
O54 Si17 1.654245 1_555
O55 Si18 1.649105 1_555
O56 Si19 1.639634 1_555
O57 Si20 1.634169 1_555
O58 S13 1.485014 1_555
O59 S14 1.478226 1_555
O60 S13 1.461763 1_555
O61 S14 1.476271 1_555
O62 Si17 1.616924 1_555
O63 Si18 1.627307 1_555
O64 Si19 1.634657 1_555
O65 Si20 1.635061 1_555
O66 S11 1.493738 1_555
O67 S12 1.483833 1_555
O68 Si15 1.647351 1_555
O69 Si16 1.646507 1_555
O70 Si13 1.637307 1_555
O71 Si14 1.626264 1_555
O72 S13 1.491132 1_555
O73 S14 1.485033 1_555
O74 Si17 1.649085 1_555
O75 Si18 1.647636 1_555
O76 Si19 1.647559 1_555
O77 Si20 1.645076 1_555
O78 S11 1.486586 1_555
O79 S12 1.509248 1_555
O80 Si15 1.641895 1_555
O81 Si16 1.657708 1_555
O82 Si13 1.643950 1_555
O83 Si14 1.658563 1_555
O84 Si8 1.697397 1_555
O85 Si9 1.697247 1_555
O86 S4 1.480992 1_555
O87 S5 1.486832 1_555
O88 S6 1.479354 1_555
O89 S7 1.484547 1_555
O90 Si10 1.697919 1_555
O91 Si11 1.676859 1_555
O92 S8 1.480824 1_555
O93 Si12 1.640986 1_555
O94 S9 1.454055 1_555
O95 S10 1.499517 1_555
O96 Si6 1.654119 1_545
O97 Si7 1.670001 1_545
O98 Si4 1.657697 1_555
O99 Si5 1.636759 1_555
O100 S3 1.508412 1_555
O101 S2 1.488713 1_555
O102 Si2 1.670113 1_555
O103 Si3 1.648720 1_555
O104 S1 1.492873 1_555
O105 S0 1.499337 1_655
O106 Si0 1.646350 1_545
O107 Si1 1.640983 1_545
O108 Si13 1.649034 1_555
O109 Si14 1.649842 1_555
O110 S12 1.515634 1_555
O111 S11 1.476299 1_655
O112 Si15 1.660930 1_545
O113 Si16 1.650582 1_545
O114 Si17 1.652170 1_545
O115 Si18 1.651658 1_545
O116 Si19 1.665395 1_555
O117 Si20 1.660521 1_555
O118 S14 1.493750 1_555
O119 S13 1.496148 1_655
O120 S9 1.491065 1_555
O121 S10 1.459019 1_555
O122 Si11 1.666959 1_455
O123 Si10 1.630274 1_555
O124 S8 1.507806 1_565
O125 Si12 1.679216 1_565
O126 S4 1.478435 1_565
O127 S5 1.483399 1_565
O128 S6 1.504218 1_555
O129 S7 1.509356 1_555
O130 Si9 1.658588 1_455
O131 Si8 1.651687 1_555
O132 Si0 1.651370 1_555
O133 Si1 1.654605 1_555
O134 Si2 1.636505 1_555
O135 Si3 1.651853 1_555
O136 S0 1.485981 1_555
O137 S1 1.491093 1_555
O138 Si4 1.649871 1_555
O139 Si5 1.640153 1_555
O140 S2 1.496182 1_455
O141 S3 1.469938 1_555
O142 Si6 1.644179 1_555
O143 Si7 1.631358 1_555
