# generated using pymatgen
data_Rb4Cu5Cl9
_symmetry_space_group_name_H-M   'P 1'
_cell_length_a   8.83686500
_cell_length_b   15.62266000
_cell_length_c   15.86844266
_cell_angle_alpha   72.06544485
_cell_angle_beta   90.00000000
_cell_angle_gamma   90.00000000
_symmetry_Int_Tables_number   1
_chemical_formula_structural   Rb4Cu5Cl9
_chemical_formula_sum   'Rb16 Cu20 Cl36'
_cell_volume   2084.27347500
_cell_formula_units_Z   4
loop_
 _symmetry_equiv_pos_site_id
 _symmetry_equiv_pos_as_xyz
  1  'x, y, z'
loop_
 _atom_site_type_symbol
 _atom_site_label
 _atom_site_symmetry_multiplicity
 _atom_site_fract_x
 _atom_site_fract_y
 _atom_site_fract_z
 _atom_site_occupancy
  Rb  Rb0  1  0.30917300  0.99790000  0.00047100  1
  Rb  Rb1  1  0.69082700  0.99790000  0.50047100  1
  Rb  Rb2  1  0.16483100  0.98202900  0.30133800  1
  Rb  Rb3  1  0.83516900  0.98202900  0.80133800  1
  Rb  Rb4  1  0.47325300  0.46974400  0.47835900  1
  Rb  Rb5  1  0.52674700  0.46974400  0.97835900  1
  Rb  Rb6  1  0.04501400  0.48258000  0.11820500  1
  Rb  Rb7  1  0.95498600  0.48258000  0.61820500  1
  Rb  Rb8  1  0.18498300  0.73235900  0.88510200  1
  Rb  Rb9  1  0.81501700  0.73235900  0.38510200  1
  Rb  Rb10  1  0.34451200  0.75213100  0.56921400  1
  Rb  Rb11  1  0.65548800  0.75213100  0.06921400  1
  Rb  Rb12  1  0.46260900  0.24952900  0.76461000  1
  Rb  Rb13  1  0.53739100  0.24952900  0.26461000  1
  Rb  Rb14  1  0.02720900  0.26069000  0.40133500  1
  Rb  Rb15  1  0.97279100  0.26069000  0.90133500  1
  Cu  Cu0  1  0.62829700  0.57525600  0.71829000  1
  Cu  Cu1  1  0.37170300  0.57525600  0.21829000  1
  Cu  Cu2  1  0.88192900  0.57279100  0.81548200  1
  Cu  Cu3  1  0.11807100  0.57279100  0.31548200  1
  Cu  Cu4  1  0.39088600  0.15944500  0.55994800  1
  Cu  Cu5  1  0.60911400  0.15944500  0.05994800  1
  Cu  Cu6  1  0.15098500  0.14347400  0.66284600  1
  Cu  Cu7  1  0.84901500  0.14347400  0.16284600  1
  Cu  Cu8  1  0.67897100  0.70030000  0.79720900  1
  Cu  Cu9  1  0.32102900  0.70030000  0.29720900  1
  Cu  Cu10  1  0.08482800  0.78750100  0.12204600  1
  Cu  Cu11  1  0.91517200  0.78750100  0.62204600  1
  Cu  Cu12  1  0.35655900  0.98221400  0.73632300  1
  Cu  Cu13  1  0.64344100  0.98221400  0.23632300  1
  Cu  Cu14  1  0.20528900  0.02459500  0.58548200  1
  Cu  Cu15  1  0.79471100  0.02459500  0.08548200  1
  Cu  Cu16  1  0.22680300  0.48251900  0.79649500  1
  Cu  Cu17  1  0.77319700  0.48251900  0.29649500  1
  Cu  Cu18  1  0.74396400  0.24185800  0.58663400  1
  Cu  Cu19  1  0.25603600  0.24185800  0.08663400  1
  Cl  Cl0  1  0.31189500  0.45408100  0.68308800  1
  Cl  Cl1  1  0.68810500  0.45408100  0.18308800  1
  Cl  Cl2  1  0.12145400  0.47927600  0.91784100  1
  Cl  Cl3  1  0.87854600  0.47927600  0.41784100  1
  Cl  Cl4  1  0.16466400  0.10846800  0.80916600  1
  Cl  Cl5  1  0.83533600  0.10846800  0.30916600  1
  Cl  Cl6  1  0.31605500  0.09038100  0.45421300  1
  Cl  Cl7  1  0.68394500  0.09038100  0.95421300  1
  Cl  Cl8  1  0.72160900  0.83099400  0.69028700  1
  Cl  Cl9  1  0.27839100  0.83099400  0.19028700  1
  Cl  Cl10  1  0.18653900  0.89501100  0.69435600  1
  Cl  Cl11  1  0.81346100  0.89501100  0.19435600  1
  Cl  Cl12  1  0.00344000  0.85496600  0.48744100  1
  Cl  Cl13  1  0.99656000  0.85496600  0.98744100  1
  Cl  Cl14  1  0.46048000  0.89244400  0.87394900  1
  Cl  Cl15  1  0.53952000  0.89244400  0.37394900  1
  Cl  Cl16  1  0.03213600  0.65604400  0.70345600  1
  Cl  Cl17  1  0.96786400  0.65604400  0.20345600  1
  Cl  Cl18  1  0.44683800  0.63641500  0.78679700  1
  Cl  Cl19  1  0.55316200  0.63641500  0.28679700  1
  Cl  Cl20  1  0.64680400  0.61333900  0.57118700  1
  Cl  Cl21  1  0.35319600  0.61333900  0.07118700  1
  Cl  Cl22  1  0.80810500  0.63882200  0.92482200  1
  Cl  Cl23  1  0.19189500  0.63882200  0.42482200  1
  Cl  Cl24  1  0.82166300  0.27220000  0.70137000  1
  Cl  Cl25  1  0.17833700  0.27220000  0.20137000  1
  Cl  Cl26  1  0.63163300  0.25174100  0.46429500  1
  Cl  Cl27  1  0.36836700  0.25174100  0.96429500  1
  Cl  Cl28  1  0.54212600  0.08149500  0.67573700  1
  Cl  Cl29  1  0.45787400  0.08149500  0.17573700  1
  Cl  Cl30  1  0.95636300  0.09941400  0.58865200  1
  Cl  Cl31  1  0.04363700  0.09941400  0.08865200  1
  Cl  Cl32  1  0.25281900  0.27931900  0.57043800  1
  Cl  Cl33  1  0.74718100  0.27931900  0.07043800  1
  Cl  Cl34  1  0.74522300  0.44967300  0.81101700  1
  Cl  Cl35  1  0.25477700  0.44967300  0.31101700  1
loop_
_geom_bond_atom_site_label_1
_geom_bond_atom_site_label_2
_geom_bond_distance
_geom_bond_site_symmetry_2
Cl0 Cu16 2.119842 1_555
Cl0 Rb7 3.305060 1_455
Cl0 Rb12 3.333687 1_555
Cl0 Rb4 3.486794 1_555
Cl1 Cu17 2.119842 1_555
Cl1 Rb6 3.305060 1_655
Cl1 Rb13 3.333687 1_555
Cl1 Rb5 3.486794 1_554
Cl2 Cu16 2.125321 1_555
Cl2 Cu2 2.791314 1_455
Cl2 Rb6 3.266346 1_556
Cl2 Rb5 3.699137 1_555
Cl2 Rb15 3.742567 1_455
Cl2 Rb8 3.866886 1_555
Cl3 Cu17 2.125321 1_555
Cl3 Cu3 2.791314 1_655
Cl3 Rb7 3.266346 1_555
Cl3 Rb4 3.699137 1_555
Cl3 Rb14 3.742567 1_655
Cl3 Rb9 3.866886 1_555
Cl4 Cu6 2.218729 1_555
Cl4 Rb0 3.255863 1_546
Cl4 Rb12 3.365854 1_555
Cl4 Rb3 3.542093 1_445
Cl4 Rb15 3.579321 1_455
Cl5 Cu7 2.218729 1_555
Cl5 Rb1 3.255863 1_545
Cl5 Rb13 3.365854 1_555
Cl5 Rb2 3.542093 1_645
Cl5 Rb14 3.579321 1_655
Cl6 Cu14 2.243868 1_555
Cl6 Cu4 2.351922 1_555
Cl6 Rb14 3.594937 1_555
Cl6 Rb1 3.597388 1_545
Cl6 Rb2 3.614571 1_545
Cl6 Rb13 3.801667 1_555
Cl7 Cu15 2.243868 1_556
Cl7 Cu5 2.351922 1_556
Cl7 Rb15 3.594937 1_555
Cl7 Rb0 3.597388 1_546
Cl7 Rb3 3.614571 1_545
Cl7 Rb12 3.801667 1_555
Cl8 Cu11 2.239025 1_555
Cl8 Cu8 2.248577 1_555
Cl8 Rb1 3.332983 1_555
Cl8 Rb3 3.498679 1_555
Cl9 Cu10 2.239025 1_555
Cl9 Cu9 2.248577 1_555
Cl9 Rb0 3.332983 1_555
Cl9 Rb2 3.498679 1_555
Cl10 Cu14 2.226352 1_565
Cl10 Cu12 2.261758 1_555
Cl10 Rb8 3.298805 1_555
Cl10 Rb10 3.688452 1_555
Cl11 Cu15 2.226352 1_565
Cl11 Cu13 2.261758 1_555
Cl11 Rb9 3.298805 1_555
Cl11 Rb11 3.688452 1_555
Cl12 Cu11 2.212510 1_455
Cl12 Rb9 3.315772 1_455
Cl12 Rb2 3.329469 1_555
Cl12 Rb10 3.473497 1_555
Cl12 Rb1 3.597908 1_455
Cl13 Cu10 2.212510 1_656
Cl13 Rb8 3.315772 1_655
Cl13 Rb3 3.329469 1_555
Cl13 Rb11 3.473497 1_556
Cl13 Rb0 3.597908 1_656
Cl14 Cu12 2.386083 1_555
Cl14 Rb0 3.251157 1_556
Cl14 Rb8 3.455493 1_555
Cl14 Rb11 3.632178 1_556
Cl14 Rb3 3.640943 1_555
Cl15 Cu13 2.386083 1_555
Cl15 Rb1 3.251157 1_555
Cl15 Rb9 3.455493 1_555
Cl15 Rb10 3.632178 1_555
Cl15 Rb2 3.640943 1_555
Cl16 Cu2 2.278098 1_455
Cl16 Cu11 2.306725 1_455
Cl16 Rb7 3.449142 1_455
Cl16 Rb10 3.527292 1_555
Cl16 Rb8 3.697392 1_555
Cl17 Cu3 2.278098 1_655
Cl17 Cu10 2.306725 1_655
Cl17 Rb6 3.449142 1_655
Cl17 Rb11 3.527292 1_555
Cl17 Rb9 3.697392 1_555
Cl18 Cu0 2.303409 1_555
Cl18 Cu8 2.309310 1_555
Cl18 Cu16 3.058933 1_555
Cl18 Rb8 3.387424 1_555
Cl18 Rb5 3.412381 1_555
Cl18 Rb10 3.487529 1_555
Cl19 Cu1 2.303409 1_555
Cl19 Cu9 2.309310 1_555
Cl19 Cu17 3.058933 1_555
Cl19 Rb9 3.387424 1_555
Cl19 Rb4 3.412381 1_555
Cl19 Rb11 3.487529 1_555
Cl20 Cu0 2.230324 1_555
Cl20 Rb9 3.317387 1_555
Cl20 Rb7 3.347799 1_555
Cl20 Rb4 3.404348 1_555
Cl20 Rb10 3.434620 1_555
Cl21 Cu1 2.230324 1_555
Cl21 Rb8 3.317387 1_554
Cl21 Rb6 3.347799 1_555
Cl21 Rb5 3.404348 1_554
Cl21 Rb11 3.434620 1_555
Cl22 Cu8 2.264412 1_555
Cl22 Cu2 2.366952 1_555
Cl22 Rb5 3.535359 1_555
Cl22 Rb11 3.563749 1_556
Cl22 Rb8 3.613464 1_655
Cl22 Rb6 3.891624 1_656
Cl23 Cu9 2.264412 1_555
Cl23 Cu3 2.366952 1_555
Cl23 Rb4 3.535359 1_555
Cl23 Rb10 3.563749 1_555
Cl23 Rb9 3.613464 1_455
Cl23 Rb7 3.891624 1_455
Cl24 Cu18 2.131322 1_555
Cl24 Rb12 3.313755 1_555
Cl24 Rb7 3.355706 1_555
Cl24 Rb15 3.396066 1_555
Cl25 Cu19 2.131322 1_555
Cl25 Rb13 3.313755 1_555
Cl25 Rb6 3.355706 1_555
Cl25 Rb14 3.396066 1_555
Cl26 Cu18 2.143213 1_555
Cl26 Cu4 2.749757 1_555
Cl26 Rb13 3.286760 1_555
Cl26 Rb14 3.626467 1_655
Cl26 Rb4 3.751816 1_555
Cl27 Cu19 2.143213 1_556
Cl27 Cu5 2.749757 1_556
Cl27 Rb12 3.286760 1_555
Cl27 Rb15 3.626467 1_455
Cl27 Rb5 3.751816 1_555
Cl28 Cu12 2.258472 1_545
Cl28 Cu4 2.295036 1_555
Cl28 Cu18 3.045556 1_555
Cl28 Rb3 3.344493 1_545
Cl28 Rb12 3.413797 1_555
Cl28 Rb1 3.661186 1_545
Cl29 Cu13 2.258472 1_545
Cl29 Cu5 2.295036 1_555
Cl29 Cu19 3.045556 1_555
Cl29 Rb2 3.344493 1_545
Cl29 Rb13 3.413797 1_555
Cl29 Rb0 3.661186 1_545
Cl30 Cu6 2.305844 1_655
Cl30 Cu14 2.498759 1_655
Cl30 Cu18 2.903833 1_555
Cl30 Rb14 3.311065 1_655
Cl30 Rb1 3.368376 1_545
Cl30 Rb3 3.476910 1_545
Cl31 Cu7 2.305844 1_455
Cl31 Cu15 2.498759 1_455
Cl31 Cu19 2.903833 1_555
Cl31 Rb15 3.311065 1_454
Cl31 Rb0 3.368376 1_545
Cl31 Rb2 3.476910 1_545
Cl32 Cu4 2.283744 1_555
Cl32 Cu6 2.355306 1_555
Cl32 Rb14 3.426527 1_555
Cl32 Rb4 3.478893 1_555
Cl32 Rb12 3.502026 1_555
Cl33 Cu5 2.283744 1_555
Cl33 Cu7 2.355306 1_555
Cl33 Rb15 3.426527 1_554
Cl33 Rb5 3.478893 1_554
Cl33 Rb13 3.502026 1_555
Cl34 Cu2 2.290835 1_555
Cl34 Cu0 2.303051 1_555
Cl34 Rb5 3.374900 1_555
Cl34 Rb7 3.477485 1_555
Cl34 Rb15 3.494131 1_555
Cl35 Cu3 2.290835 1_555
Cl35 Cu1 2.303051 1_555
Cl35 Rb4 3.374900 1_555
Cl35 Rb6 3.477485 1_555
Cl35 Rb14 3.494131 1_555
