# generated using pymatgen
data_Na3Ca8Nb4P3(S5O24)3
_symmetry_space_group_name_H-M   'P 1'
_cell_length_a   9.10591458
_cell_length_b   9.09513706
_cell_length_c   23.70380359
_cell_angle_alpha   90.07563540
_cell_angle_beta   89.80077100
_cell_angle_gamma   120.03382227
_symmetry_Int_Tables_number   1
_chemical_formula_structural   Na3Ca8Nb4P3(S5O24)3
_chemical_formula_sum   'Na3 Ca8 Nb4 P3 S15 O72'
_cell_volume   1699.53729589
_cell_formula_units_Z   1
loop_
 _symmetry_equiv_pos_site_id
 _symmetry_equiv_pos_as_xyz
  1  'x, y, z'
loop_
 _atom_site_type_symbol
 _atom_site_label
 _atom_site_symmetry_multiplicity
 _atom_site_fract_x
 _atom_site_fract_y
 _atom_site_fract_z
 _atom_site_occupancy
  Na  Na0  1  0.99227971  0.99448881  0.00266062  1
  Na  Na1  1  0.66835396  0.33308046  0.83369470  1
  Na  Na2  1  0.66272132  0.33406382  0.33594789  1
  Ca  Ca0  1  0.00205550  0.99963868  0.35572501  1
  Ca  Ca1  1  0.99765213  0.00018681  0.85731645  1
  Ca  Ca2  1  0.99860191  0.99692849  0.14860153  1
  Ca  Ca3  1  0.66246851  0.32637500  0.67934855  1
  Ca  Ca4  1  0.66866990  0.33468292  0.98068186  1
  Ca  Ca5  1  0.65971715  0.32951711  0.48740110  1
  Ca  Ca6  1  0.33492994  0.66763716  0.30975413  1
  Ca  Ca7  1  0.33438142  0.66693036  0.80714683  1
  Nb  Nb0  1  0.00497875  0.99970046  0.64799422  1
  Nb  Nb1  1  0.67540431  0.33174038  0.18141404  1
  Nb  Nb2  1  0.33260878  0.67128461  0.02438929  1
  Nb  Nb3  1  0.33309426  0.67161144  0.51809083  1
  P  P0  1  0.36267663  0.02885719  0.58335541  1
  P  P1  1  0.96063544  0.62311524  0.08099612  1
  P  P2  1  0.66338061  0.03974195  0.08096944  1
  S  S0  1  0.30692576  0.01230080  0.24755426  1
  S  S1  1  0.70505695  0.69248393  0.24772767  1
  S  S2  1  0.99159065  0.29449881  0.24796983  1
  S  S3  1  0.28740122  0.28359204  0.74885167  1
  S  S4  1  0.99537573  0.71162508  0.74880480  1
  S  S5  1  0.71770224  0.00438208  0.74858607  1
  S  S6  1  0.97445310  0.33329993  0.58326397  1
  S  S7  1  0.66635187  0.64126853  0.58348773  1
  S  S8  1  0.37896554  0.34131788  0.08217399  1
  S  S9  1  0.61578582  0.66658054  0.91906715  1
  S  S10  1  0.05094102  0.38350949  0.91888752  1
  S  S11  1  0.33204465  0.95001216  0.91894821  1
  S  S12  1  0.61925911  0.95509017  0.41756075  1
  S  S13  1  0.33630264  0.38289447  0.41788605  1
  S  S14  1  0.04486531  0.66294797  0.41785132  1
  O  O0  1  0.24152618  0.05149787  0.29893245  1
  O  O1  1  0.80924203  0.75684557  0.29901688  1
  O  O2  1  0.95024491  0.18994414  0.29908541  1
  O  O3  1  0.20819057  0.18249131  0.79922662  1
  O  O4  1  0.97410672  0.79104839  0.79924777  1
  O  O5  1  0.81667380  0.02483255  0.79940103  1
  O  O6  1  0.81860832  0.99483749  0.69699770  1
  O  O7  1  0.17630557  0.18200100  0.69685937  1
  O  O8  1  0.00549467  0.82355108  0.69680853  1
  O  O9  1  0.78473229  0.79654262  0.19820037  1
  O  O10  1  0.01353195  0.21597867  0.19792439  1
  O  O11  1  0.20424692  0.98898563  0.19797015  1
  O  O12  1  0.90890477  0.37604541  0.63292030  1
  O  O13  1  0.47096293  0.09102764  0.63518265  1
  O  O14  1  0.62524247  0.53306900  0.63302037  1
  O  O15  1  0.86417214  0.49993093  0.13467739  1
  O  O16  1  0.63775371  0.13592702  0.13502803  1
  O  O17  1  0.48979370  0.36827758  0.13315445  1
  O  O18  1  0.45227915  0.31433463  0.03178712  1
  O  O19  1  0.85536393  0.54285736  0.03016114  1
  O  O20  1  0.68329428  0.14313225  0.02996290  1
  O  O21  1  0.42464882  0.13809708  0.53150743  1
  O  O22  1  0.71011551  0.57623309  0.53386826  1
  O  O23  1  0.86643832  0.29195156  0.53379675  1
  O  O24  1  0.51786698  0.67658045  0.97087447  1
  O  O25  1  0.15787173  0.48163801  0.97043328  1
  O  O26  1  0.32220176  0.84162305  0.97115576  1
  O  O27  1  0.51697692  0.84317942  0.46989163  1
  O  O28  1  0.32670902  0.48400415  0.46977467  1
  O  O29  1  0.15708164  0.67323555  0.46997815  1
  O  O30  1  0.12437298  0.64144223  0.36769559  1
  O  O31  1  0.51767943  0.87586454  0.36771741  1
  O  O32  1  0.35746987  0.48298306  0.36742807  1
  O  O33  1  0.13122978  0.47751337  0.86732470  1
  O  O34  1  0.34762701  0.86958136  0.86796498  1
  O  O35  1  0.52265371  0.65314805  0.86761113  1
  O  O36  1  0.04096533  0.82126501  0.41813081  1
  O  O37  1  0.78081831  0.95811622  0.41777848  1
  O  O38  1  0.17895374  0.21925352  0.41777641  1
  O  O39  1  0.04101848  0.21592296  0.92095505  1
  O  O40  1  0.17410130  0.95812451  0.92122130  1
  O  O41  1  0.78365062  0.82370432  0.92098399  1
  O  O42  1  -0.00015404  0.18396960  0.59692876  1
  O  O43  1  0.17752134  0.99857188  0.60041665  1
  O  O44  1  0.81551457  0.81646302  0.59729540  1
  O  O45  1  0.99848456  0.80130645  0.09207663  1
  O  O46  1  0.80652348  0.00631068  0.09180486  1
  O  O47  1  0.20691880  0.20009978  0.09132397  1
  O  O48  1  0.70121975  0.15634137  0.74158973  1
  O  O49  1  0.45588011  0.30228984  0.74098311  1
  O  O50  1  0.84462541  0.54412952  0.74025655  1
  O  O51  1  0.68617823  0.51388750  0.23581202  1
  O  O52  1  0.82845562  0.31205535  0.23710248  1
  O  O53  1  0.48491127  0.17319132  0.23585246  1
  O  O54  1  0.63366672  0.51514327  0.92365178  1
  O  O55  1  0.88063784  0.36352808  0.92301770  1
  O  O56  1  0.48206031  0.11964380  0.92402522  1
  O  O57  1  0.63747302  0.12345730  0.42575630  1
  O  O58  1  0.48817612  0.36663430  0.42524297  1
  O  O59  1  0.87772553  0.51216548  0.42689004  1
  O  O60  1  0.36743934  0.50259629  0.07405038  1
  O  O61  1  0.14073706  0.63109278  0.07161458  1
  O  O62  1  0.49184748  0.85845133  0.07193283  1
  O  O63  1  0.33181286  0.84376765  0.56633975  1
  O  O64  1  0.51762976  0.66670255  0.56987948  1
  O  O65  1  0.14936924  0.48196717  0.56946371  1
  O  O66  1  0.33723794  0.87092931  0.25512940  1
  O  O67  1  0.53367368  0.66258421  0.25530557  1
  O  O68  1  0.13039604  0.46713717  0.25518779  1
  O  O69  1  0.29095614  0.44537838  0.74787592  1
  O  O70  1  0.15320275  0.70759278  0.74799215  1
  O  O71  1  0.55445895  0.84727343  0.74832549  1
loop_
_geom_bond_atom_site_label_1
_geom_bond_atom_site_label_2
_geom_bond_distance
_geom_bond_site_symmetry_2
Na0 O41 2.614161 1_554
Na0 O40 2.664833 1_654
Na0 O39 2.667129 1_664
Na0 O46 2.737568 1_565
Na0 O45 2.773559 1_555
Na0 O47 2.844917 1_665
Na1 O55 2.790578 1_555
Na1 O54 2.810354 1_555
Na1 O48 2.812080 1_555
Na1 O56 2.814250 1_555
Na1 O50 2.840557 1_555
Na1 O49 2.852516 1_555
Na2 O58 2.745965 1_555
Na2 O57 2.796479 1_555
Na2 O59 2.819470 1_555
Na2 O51 2.830470 1_555
Na2 O53 2.835122 1_555
Na2 O52 2.843223 1_555
Ca0 O36 2.351823 1_555
Ca0 O38 2.352829 1_565
Ca0 O37 2.363035 1_455
Ca0 O0 2.396129 1_565
Ca0 O2 2.418450 1_465
Ca0 O1 2.427618 1_455
Ca1 O5 2.244329 1_555
Ca1 O3 2.264136 1_655
Ca1 O4 2.268397 1_545
Ca1 O39 2.345672 1_655
Ca1 O41 2.346536 1_545
Ca1 O40 2.378294 1_645
Ca2 O9 2.221102 1_555
Ca2 O45 2.225446 1_555
Ca2 O11 2.243234 1_655
Ca2 O46 2.246120 1_565
Ca2 O10 2.253535 1_665
Ca2 O47 2.310006 1_665
Ca3 O13 2.233612 1_555
Ca3 O48 2.291000 1_555
Ca3 O49 2.300104 1_555
Ca3 O12 2.328142 1_555
Ca3 O50 2.340683 1_555
Ca3 O14 2.345389 1_555
Ca4 O19 2.153241 1_556
Ca4 O20 2.157820 1_556
Ca4 O18 2.236802 1_556
Ca4 O55 2.266795 1_555
Ca4 O54 2.270567 1_555
Ca4 O56 2.279992 1_555
Ca5 O21 2.228162 1_555
Ca5 O58 2.295641 1_555
Ca5 O57 2.302915 1_555
Ca5 O22 2.329186 1_555
Ca5 O59 2.333063 1_555
Ca5 O23 2.351331 1_555
Ca6 O67 2.238277 1_555
Ca6 O66 2.250091 1_555
Ca6 O68 2.253415 1_555
Ca6 O32 2.254928 1_555
Ca6 O31 2.257854 1_555
Ca6 O30 2.268141 1_555
Ca7 O33 2.285324 1_555
Ca7 O35 2.289475 1_555
Ca7 O34 2.293826 1_555
Ca7 O71 2.312288 1_555
Ca7 O69 2.321512 1_555
Ca7 O70 2.335160 1_555
Nb0 O43 1.935019 1_555
Nb0 O8 1.979411 1_555
Nb0 O7 1.985645 1_565
Nb0 O6 2.035324 1_455
Nb0 O44 2.080646 1_455
Nb0 O42 2.088144 1_565
Nb1 O15 1.970043 1_555
Nb1 O16 1.970918 1_555
Nb1 O52 1.995005 1_555
Nb1 O53 2.058854 1_555
Nb1 O51 2.061389 1_555
Nb1 O17 2.202799 1_555
Nb2 O61 1.946142 1_555
Nb2 O62 1.950857 1_555
Nb2 O26 2.038223 1_554
Nb2 O60 2.081985 1_555
Nb2 O24 2.088337 1_554
Nb2 O25 2.098487 1_554
Nb3 O63 1.942497 1_555
Nb3 O29 1.976394 1_555
Nb3 O27 1.979864 1_555
Nb3 O28 2.030403 1_555
Nb3 O65 2.087971 1_555
Nb3 O64 2.102898 1_555
O0 S0 1.473517 1_555
O1 S1 1.473422 1_555
O2 S2 1.468186 1_555
O3 S3 1.457598 1_555
O4 S4 1.457790 1_555
O5 S5 1.461781 1_555
O6 S5 1.555280 1_565
O7 S3 1.570339 1_555
O8 S4 1.572414 1_455
O9 S1 1.452584 1_555
O10 S2 1.447793 1_455
O11 S0 1.452268 1_565
O12 S6 1.455691 1_555
O13 P0 1.499900 1_555
O14 S7 1.455450 1_555
O15 P1 1.629969 1_555
O16 P2 1.631271 1_555
O17 S8 1.516208 1_555
O18 S8 1.445712 1_555
O19 P1 1.486265 1_555
O20 P2 1.486514 1_555
O21 P0 1.501058 1_555
O22 S7 1.457027 1_555
O23 S6 1.456136 1_555
O24 S9 1.544222 1_555
O25 S10 1.540452 1_555
O26 S11 1.557342 1_555
O27 S12 1.577496 1_555
O28 S13 1.562942 1_555
O29 S14 1.578728 1_555
O30 S14 1.452933 1_555
O31 S12 1.452188 1_555
O32 S13 1.456705 1_555
O33 S10 1.459516 1_555
O34 S11 1.454685 1_555
O35 S9 1.457698 1_555
O36 S14 1.458020 1_555
O37 S12 1.457591 1_555
O38 S13 1.460624 1_555
O39 S10 1.481933 1_555
O40 S11 1.477327 1_555
O41 S9 1.481369 1_555
O42 S6 1.522853 1_455
O43 P0 1.616390 1_565
O44 S7 1.525189 1_555
O45 P1 1.501573 1_555
O46 P2 1.502219 1_555
O47 S8 1.461236 1_555
O48 S5 1.472627 1_555
O49 S3 1.467742 1_555
O50 S4 1.467629 1_555
O51 S1 1.570819 1_555
O52 S2 1.593349 1_555
O53 S0 1.571263 1_555
O54 S9 1.469831 1_555
O55 S10 1.471178 1_655
O56 S11 1.466894 1_545
O57 S12 1.468127 1_545
O58 S13 1.473533 1_555
O59 S14 1.467020 1_655
O60 S8 1.534517 1_555
O61 P1 1.619468 1_455
O62 P2 1.621007 1_565
O63 P0 1.612746 1_565
O64 S7 1.519337 1_555
O65 S6 1.521155 1_455
O66 S0 1.455306 1_565
O67 S1 1.454320 1_555
O68 S2 1.451353 1_455
O69 S3 1.455750 1_555
O70 S4 1.455922 1_455
O71 S5 1.457836 1_565
