# generated using pymatgen
data_Na10Ca3Si6Sn5(SO8)6
_symmetry_space_group_name_H-M   'P 1'
_cell_length_a   18.32646703
_cell_length_b   9.19687936
_cell_length_c   22.88238897
_cell_angle_alpha   89.52629885
_cell_angle_beta   89.64307523
_cell_angle_gamma   120.02447008
_symmetry_Int_Tables_number   1
_chemical_formula_structural   Na10Ca3Si6Sn5(SO8)6
_chemical_formula_sum   'Na30 Ca9 Si18 Sn15 S18 O144'
_cell_volume   3338.85931248
_cell_formula_units_Z   3
loop_
 _symmetry_equiv_pos_site_id
 _symmetry_equiv_pos_as_xyz
  1  'x, y, z'
loop_
 _atom_site_type_symbol
 _atom_site_label
 _atom_site_symmetry_multiplicity
 _atom_site_fract_x
 _atom_site_fract_y
 _atom_site_fract_z
 _atom_site_occupancy
  Na  Na0  1  0.31793354  0.99936178  0.24518464  1
  Na  Na1  1  0.19219103  0.36353129  0.24485411  1
  Na  Na2  1  0.69367697  0.37938720  0.24286698  1
  Na  Na3  1  0.99707579  0.64291639  0.25190478  1
  Na  Na4  1  0.31539083  0.61242729  0.75953378  1
  Na  Na5  1  0.81690627  0.62267584  0.75132070  1
  Na  Na6  1  0.99043379  0.35432728  0.75521366  1
  Na  Na7  1  0.49774152  0.38145949  0.74104037  1
  Na  Na8  1  0.18183979  0.01553210  0.75124691  1
  Na  Na9  1  0.68758950  0.01753403  0.75307315  1
  Na  Na10  1  0.64816892  0.34147300  0.57391586  1
  Na  Na11  1  0.32166862  0.68109931  0.07563369  1
  Na  Na12  1  0.82313101  0.68081097  0.08887854  1
  Na  Na13  1  0.16281918  0.32101909  0.92367067  1
  Na  Na14  1  0.99864912  0.31373300  0.42060273  1
  Na  Na15  1  0.16106741  0.02085548  0.41985345  1
  Na  Na16  1  0.66727415  0.02616289  0.41237016  1
  Na  Na17  1  0.84267444  0.67402247  0.41889721  1
  Na  Na18  1  0.00113731  0.00076551  0.49935769  1
  Na  Na19  1  0.49327755  0.02179908  0.49630803  1
  Na  Na20  1  0.00687032  0.03144301  0.00078467  1
  Na  Na21  1  0.50235440  0.03282861  0.99413678  1
  Na  Na22  1  0.34631403  0.36513341  0.83621863  1
  Na  Na23  1  0.83753244  0.33333935  0.83048981  1
  Na  Na24  1  0.33804716  0.37253858  0.32737191  1
  Na  Na25  1  0.83340782  0.33991642  0.33415101  1
  Na  Na26  1  0.16859599  0.65657591  0.15841539  1
  Na  Na27  1  0.66267181  0.65979078  0.16009108  1
  Na  Na28  1  0.16055017  0.65608054  0.66470861  1
  Na  Na29  1  0.65195416  0.65568574  0.66252598  1
  Ca  Ca0  1  0.49792990  0.00058683  0.35332601  1
  Ca  Ca1  1  0.33623690  0.34228812  0.68305444  1
  Ca  Ca2  1  0.83589334  0.33729341  0.68892055  1
  Ca  Ca3  1  0.33253870  0.33576708  0.18479012  1
  Ca  Ca4  1  0.83277101  0.32714227  0.18430289  1
  Ca  Ca5  1  0.16261405  0.65239292  0.01274416  1
  Ca  Ca6  1  0.65857984  0.64576116  0.01406550  1
  Ca  Ca7  1  0.16232913  0.65576294  0.51653981  1
  Ca  Ca8  1  0.66823929  0.66578083  0.51727992  1
  Si  Si0  1  0.14708670  0.98799625  0.25437714  1
  Si  Si1  1  0.35095236  0.71046883  0.25058208  1
  Si  Si2  1  0.85332902  0.71541817  0.24998409  1
  Si  Si3  1  0.14395760  0.29736990  0.75250813  1
  Si  Si4  1  0.64206611  0.29351571  0.75130498  1
  Si  Si5  1  0.00789810  0.71919991  0.75477868  1
  Si  Si6  1  0.50179180  0.72171926  0.75023086  1
  Si  Si7  1  0.84984792  0.98493303  0.75227395  1
  Si  Si8  1  0.48149483  0.32431994  0.58871725  1
  Si  Si9  1  0.17998840  0.32287138  0.08619182  1
  Si  Si10  1  0.68185825  0.32487062  0.08897729  1
  Si  Si11  1  0.31842820  0.67109004  0.91782154  1
  Si  Si12  1  0.00624842  0.34693784  0.91686006  1
  Si  Si13  1  0.51106427  0.35893211  0.91533252  1
  Si  Si14  1  0.81828804  0.96997582  0.41623171  1
  Si  Si15  1  0.17048944  0.36624930  0.41580949  1
  Si  Si16  1  0.66752055  0.36288036  0.42138415  1
  Si  Si17  1  0.02205504  0.67018183  0.41534502  1
  Sn  Sn0  1  0.00165010  0.99677156  0.35179309  1
  Sn  Sn1  1  0.99721046  0.00373473  0.84984128  1
  Sn  Sn2  1  0.49900868  0.99875589  0.85378351  1
  Sn  Sn3  1  0.00093359  0.00020634  0.65603945  1
  Sn  Sn4  1  0.50152922  0.01144380  0.64900467  1
  Sn  Sn5  1  0.00677015  0.99410766  0.14925533  1
  Sn  Sn6  1  0.50038206  0.00149137  0.14807127  1
  Sn  Sn7  1  0.33351586  0.34331406  0.97964005  1
  Sn  Sn8  1  0.82770148  0.32119085  0.98304557  1
  Sn  Sn9  1  0.33655934  0.33779828  0.48607990  1
  Sn  Sn10  1  0.83723619  0.33901113  0.47907884  1
  Sn  Sn11  1  0.17154572  0.66343168  0.31774926  1
  Sn  Sn12  1  0.67796771  0.67621302  0.31972179  1
  Sn  Sn13  1  0.15411325  0.63975872  0.82203423  1
  Sn  Sn14  1  0.65652775  0.65628598  0.81372656  1
  S  S0  1  0.64561207  0.98109725  0.25211054  1
  S  S1  1  0.00432905  0.29415424  0.25153340  1
  S  S2  1  0.50964294  0.30842643  0.25051886  1
  S  S3  1  0.34954196  0.98741440  0.75145748  1
  S  S4  1  0.97920304  0.31323065  0.58427419  1
  S  S5  1  0.17631298  0.03584346  0.58585721  1
  S  S6  1  0.68466902  0.04580120  0.58338293  1
  S  S7  1  0.33897267  0.64505665  0.58430347  1
  S  S8  1  0.84346921  0.64334351  0.58354850  1
  S  S9  1  0.48145154  0.64177137  0.08361614  1
  S  S10  1  0.97965339  0.63654633  0.08342081  1
  S  S11  1  0.33850478  0.03994571  0.08438166  1
  S  S12  1  0.83925719  0.03590075  0.08301710  1
  S  S13  1  0.81897677  0.66398750  0.91629635  1
  S  S14  1  0.16510491  0.96653639  0.91367791  1
  S  S15  1  0.66973798  0.97042304  0.91492708  1
  S  S16  1  0.31435233  0.97510163  0.41849349  1
  S  S17  1  0.51664088  0.65227915  0.41477864  1
  O  O0  1  0.10498511  0.03115199  0.31015826  1
  O  O1  1  0.60925547  0.00521109  0.30581231  1
  O  O2  1  0.40117967  0.81184849  0.30531139  1
  O  O3  1  0.90792111  0.81341711  0.30685536  1
  O  O4  1  0.50083689  0.21379397  0.30317605  1
  O  O5  1  0.99530465  0.20183708  0.30692478  1
  O  O6  1  0.10320386  0.18560902  0.81208535  1
  O  O7  1  0.59547444  0.16300462  0.80486673  1
  O  O8  1  0.48285710  0.80866506  0.80468588  1
  O  O9  1  0.98778782  0.80527315  0.80959054  1
  O  O10  1  0.40363654  0.01847490  0.80246063  1
  O  O11  1  0.91317630  0.03402500  0.80689164  1
  O  O12  1  0.38747333  0.95782409  0.69751696  1
  O  O13  1  0.88943382  0.93489510  0.69467445  1
  O  O14  1  0.07893063  0.21661521  0.69616998  1
  O  O15  1  0.58677696  0.22133431  0.69012473  1
  O  O16  1  0.03232818  0.84367160  0.69577054  1
  O  O17  1  0.51784323  0.83801339  0.68979303  1
  O  O18  1  0.39392345  0.83346385  0.18814312  1
  O  O19  1  0.89639536  0.82393470  0.18817099  1
  O  O20  1  0.01166025  0.20475717  0.19990341  1
  O  O21  1  0.52649801  0.22927224  0.19754984  1
  O  O22  1  0.08156348  0.94378907  0.19846875  1
  O  O23  1  0.59342976  0.96551877  0.19942180  1
  O  O24  1  0.43970741  0.32078173  0.65022878  1
  O  O25  1  0.93477583  0.31900581  0.63611939  1
  O  O26  1  0.22230620  0.12176204  0.63828516  1
  O  O27  1  0.73034492  0.12828957  0.63610042  1
  O  O28  1  0.32811310  0.55091004  0.63854885  1
  O  O29  1  0.83672928  0.54374346  0.63553044  1
  O  O30  1  0.44456146  0.54266818  0.13664559  1
  O  O31  1  0.94601055  0.54824985  0.13943122  1
  O  O32  1  0.33769511  0.11518940  0.14044577  1
  O  O33  1  0.83373376  0.11705064  0.13523156  1
  O  O34  1  0.22681994  0.33055307  0.14549417  1
  O  O35  1  0.72985004  0.34171818  0.14909803  1
  O  O36  1  0.22901747  0.30299301  0.02450376  1
  O  O37  1  0.73200392  0.29829944  0.03002884  1
  O  O38  1  0.42830745  0.55718243  0.03072832  1
  O  O39  1  0.92332369  0.54102282  0.03348731  1
  O  O40  1  0.34726508  0.14923140  0.03306657  1
  O  O41  1  0.85101275  0.14085947  0.02869568  1
  O  O42  1  0.21922466  0.13715027  0.53053668  1
  O  O43  1  0.72964547  0.15366338  0.52898905  1
  O  O44  1  0.34620313  0.55407864  0.53135839  1
  O  O45  1  0.85111284  0.55780743  0.52842825  1
  O  O46  1  0.41906018  0.30399495  0.53020141  1
  O  O47  1  0.93135955  0.30376069  0.52860120  1
  O  O48  1  0.28325829  0.69589359  0.97800604  1
  O  O49  1  0.78232979  0.68714798  0.96957054  1
  O  O50  1  0.07315640  0.43281234  0.96690438  1
  O  O51  1  0.56630186  0.43516381  0.97113436  1
  O  O52  1  0.15571765  0.86733107  0.96517035  1
  O  O53  1  0.66475978  0.87536737  0.96594419  1
  O  O54  1  0.27202467  0.87187943  0.46972085  1
  O  O55  1  0.78483899  0.84210959  0.46964409  1
  O  O56  1  0.14202435  0.43930123  0.46812538  1
  O  O57  1  0.66008016  0.44244935  0.48058650  1
  O  O58  1  0.08644344  0.73248527  0.46755836  1
  O  O59  1  0.56593995  0.67231079  0.46652303  1
  O  O60  1  0.06012964  0.61899268  0.35688348  1
  O  O61  1  0.55721704  0.62926212  0.36040771  1
  O  O62  1  0.26343986  0.89896657  0.36333675  1
  O  O63  1  0.74959373  0.89531578  0.36059777  1
  O  O64  1  0.18776422  0.47687458  0.35334701  1
  O  O65  1  0.68366485  0.48601130  0.36066644  1
  O  O66  1  0.04173615  0.45488530  0.85337898  1
  O  O67  1  0.55110124  0.48027140  0.85414461  1
  O  O68  1  0.17466211  0.88654667  0.85873354  1
  O  O69  1  0.68067423  0.89431402  0.85922865  1
  O  O70  1  0.25359144  0.63950164  0.85972196  1
  O  O71  1  0.76822412  0.64731362  0.86292430  1
  O  O72  1  0.99576775  0.81673272  0.40718931  1
  O  O73  1  0.50738181  0.80136986  0.40887365  1
  O  O74  1  0.40017424  0.00696981  0.41413486  1
  O  O75  1  0.91604455  0.01461314  0.40359727  1
  O  O76  1  0.08836016  0.17312720  0.40788176  1
  O  O77  1  0.59580257  0.16846656  0.41643404  1
  O  O78  1  -0.00009626  0.15928045  0.91255825  1
  O  O79  1  0.49974561  0.17129412  0.90586974  1
  O  O80  1  0.08933284  0.98956221  0.91030061  1
  O  O81  1  0.59361232  0.98913272  0.91122268  1
  O  O82  1  0.41444987  0.82524008  0.90833756  1
  O  O83  1  0.90613882  0.81054364  0.91054625  1
  O  O84  1  0.48968826  0.14736391  0.58384761  1
  O  O85  1  0.98436949  0.15423289  0.58406683  1
  O  O86  1  0.09075289  0.02608570  0.58544721  1
  O  O87  1  0.60117875  0.04087679  0.58225744  1
  O  O88  1  0.42031654  0.81040541  0.58449856  1
  O  O89  1  0.92269525  0.81152614  0.58411981  1
  O  O90  1  0.47758683  0.80385052  0.08616524  1
  O  O91  1  0.97495940  0.79809282  0.08320875  1
  O  O92  1  0.41653393  0.01966206  0.08188124  1
  O  O93  1  0.91629904  0.01528840  0.08399085  1
  O  O94  1  0.08412356  0.14564572  0.08631103  1
  O  O95  1  0.58641637  0.14838170  0.08923044  1
  O  O96  1  0.33626334  0.13222492  0.74619519  1
  O  O97  1  0.83533050  0.14310182  0.74617728  1
  O  O98  1  0.23585257  0.31509185  0.74788047  1
  O  O99  1  0.73647737  0.32228506  0.74903074  1
  O  O100  1  0.42309387  0.53156771  0.74952498  1
  O  O101  1  0.92891147  0.53151007  0.74961953  1
  O  O102  1  0.33530130  0.52308859  0.24709789  1
  O  O103  1  0.84613387  0.53056111  0.25149060  1
  O  O104  1  0.43318771  0.31988578  0.24237142  1
  O  O105  1  0.93307171  0.32477322  0.24831240  1
  O  O106  1  0.24292844  0.14012198  0.25139562  1
  O  O107  1  0.73162304  0.12648906  0.24614680  1
  O  O108  1  0.31589255  0.48520466  0.91742811  1
  O  O109  1  0.82537655  0.50585624  0.91949950  1
  O  O110  1  0.41408565  0.33572317  0.92164874  1
  O  O111  1  0.91247694  0.33371103  0.92523740  1
  O  O112  1  0.24111383  0.13940466  0.91496217  1
  O  O113  1  0.74661079  0.14536933  0.91584089  1
  O  O114  1  0.31531180  0.14143434  0.42161061  1
  O  O115  1  0.82509694  0.15579982  0.42454207  1
  O  O116  1  0.25439150  0.34072097  0.42690363  1
  O  O117  1  0.76206820  0.36766991  0.42044061  1
  O  O118  1  0.42983705  0.49632745  0.41840365  1
  O  O119  1  0.93109016  0.49215777  0.42410421  1
  O  O120  1  0.17386877  0.49206337  0.08184395  1
  O  O121  1  0.67897797  0.49724733  0.08209473  1
  O  O122  1  0.06640400  0.67629520  0.07547523  1
  O  O123  1  0.56879568  0.68285948  0.07694078  1
  O  O124  1  0.26338650  0.87160368  0.08057475  1
  O  O125  1  0.76449643  0.86632320  0.07768759  1
  O  O126  1  0.16639192  0.86757341  0.58319063  1
  O  O127  1  0.67338716  0.87811459  0.57843530  1
  O  O128  1  0.26727489  0.67354353  0.57842186  1
  O  O129  1  0.76776499  0.65865149  0.58085827  1
  O  O130  1  0.06377372  0.46266571  0.58215027  1
  O  O131  1  0.57597575  0.48369098  0.58426651  1
  O  O132  1  0.14508018  0.80624355  0.26109493  1
  O  O133  1  0.64808739  0.81941215  0.25416307  1
  O  O134  1  0.25476613  0.69904596  0.25046701  1
  O  O135  1  0.75612062  0.68845920  0.25322709  1
  O  O136  1  0.08506931  0.46026892  0.25169098  1
  O  O137  1  0.58734686  0.48108442  0.25253870  1
  O  O138  1  0.15359078  0.48766463  0.75568489  1
  O  O139  1  0.64762286  0.47882610  0.75620807  1
  O  O140  1  0.09782621  0.71520090  0.76101353  1
  O  O141  1  0.59239553  0.72044942  0.75432404  1
  O  O142  1  0.26607019  0.83059900  0.75770403  1
  O  O143  1  0.75843868  0.80934187  0.76205594  1
loop_
_geom_bond_atom_site_label_1
_geom_bond_atom_site_label_2
_geom_bond_distance
_geom_bond_site_symmetry_2
Na0 O106 2.316663 1_565
Na0 O134 2.403376 1_555
Na0 O32 2.563371 1_565
Na0 O104 2.630467 1_565
Na0 O132 2.768833 1_555
Na0 O18 2.847387 1_555
Na0 O62 2.856860 1_555
Na1 O102 2.277282 1_555
Na1 O34 2.418679 1_555
Na1 O136 2.533058 1_555
Na1 O106 2.649006 1_555
Na1 O134 2.705593 1_555
Na1 O64 2.716853 1_555
Na2 O35 2.321150 1_555
Na2 O103 2.429471 1_555
Na2 O135 2.490948 1_555
Na2 O137 2.557926 1_555
Na2 O107 2.741412 1_555
Na2 O21 2.863297 1_555
Na2 O65 2.911832 1_555
Na3 O132 2.364879 1_655
Na3 O103 2.420713 1_555
Na3 O105 2.552306 1_555
Na3 O22 2.679954 1_655
Na3 O60 2.726607 1_655
Na3 O31 2.740298 1_555
Na3 O136 2.851859 1_655
Na4 O98 2.387798 1_555
Na4 O100 2.442854 1_555
Na4 O142 2.580469 1_555
Na4 O138 2.591703 1_555
Na4 O70 2.619117 1_555
Na4 O28 2.861554 1_555
Na4 O8 2.875956 1_555
Na5 O99 2.394970 1_555
Na5 O143 2.449537 1_555
Na5 O101 2.576773 1_555
Na5 O139 2.696905 1_555
Na5 O71 2.748177 1_555
Na5 O13 2.790976 1_555
Na5 O29 2.821850 1_555
Na6 O101 2.404154 1_555
Na6 O66 2.444470 1_655
Na6 O97 2.526716 1_555
Na6 O138 2.603025 1_655
Na6 O11 2.797905 1_555
Na6 O14 2.848928 1_655
Na6 O25 2.879259 1_555
Na6 O140 2.894818 1_655
Na7 O24 2.283278 1_555
Na7 O100 2.388759 1_555
Na7 O139 2.454127 1_555
Na7 O96 2.688580 1_555
Na7 O141 2.726052 1_555
Na7 O67 2.767933 1_555
Na7 O15 2.932227 1_555
Na8 O140 2.404039 1_545
Na8 O98 2.417086 1_555
Na8 O96 2.475613 1_555
Na8 O68 2.695456 1_545
Na8 O16 2.712911 1_545
Na8 O26 2.719400 1_555
Na8 O142 2.814870 1_545
Na8 O6 2.954376 1_555
Na9 O97 2.356276 1_555
Na9 O141 2.395307 1_545
Na9 O99 2.479604 1_555
Na9 O69 2.647206 1_545
Na9 O143 2.806962 1_545
Na9 O27 2.818839 1_555
Na9 O7 2.881984 1_555
Na10 O57 2.286785 1_555
Na10 O131 2.291354 1_555
Na10 O87 2.455096 1_555
Na10 O84 2.543695 1_555
Na10 O129 2.636675 1_555
Na10 O15 2.868407 1_555
Na10 O43 2.976763 1_555
Na11 O48 2.369597 1_554
Na11 O120 2.378663 1_555
Na11 O124 2.469377 1_555
Na11 O90 2.506455 1_555
Na11 O92 2.707645 1_565
Na11 O38 2.897793 1_555
Na11 O18 2.930905 1_555
Na12 O121 2.323692 1_555
Na12 O91 2.431494 1_555
Na12 O125 2.441734 1_555
Na12 O19 2.648850 1_555
Na12 O93 2.669505 1_565
Na12 O49 2.842906 1_554
Na13 O108 2.433617 1_555
Na13 O50 2.534397 1_555
Na13 O78 2.600530 1_555
Na13 O36 2.655703 1_556
Na13 O80 2.666836 1_545
Na13 O112 2.699768 1_555
Na13 O6 2.826625 1_555
Na13 O70 2.917281 1_555
Na14 O75 2.422477 1_555
Na14 O119 2.503239 1_555
Na14 O56 2.537706 1_655
Na14 O76 2.566672 1_655
Na14 O47 2.735212 1_555
Na14 O115 2.757738 1_555
Na14 O5 2.795045 1_555
Na14 O60 2.832564 1_655
Na15 O76 2.382710 1_555
Na15 O114 2.467192 1_555
Na15 O58 2.529707 1_545
Na15 O116 2.565423 1_555
Na15 O72 2.667199 1_445
Na15 O0 2.737056 1_555
Na15 O42 2.762624 1_555
Na15 O62 2.923589 1_545
Na16 O77 2.270043 1_555
Na16 O115 2.535591 1_555
Na16 O73 2.609621 1_545
Na16 O63 2.635461 1_545
Na16 O1 2.635910 1_555
Na16 O117 2.733122 1_555
Na16 O43 2.924203 1_555
Na17 O117 2.440131 1_555
Na17 O72 2.442504 1_555
Na17 O55 2.552575 1_555
Na17 O75 2.739227 1_565
Na17 O45 2.752077 1_555
Na17 O3 2.831906 1_555
Na17 O119 2.854569 1_555
Na17 O65 2.881169 1_555
Na18 O89 2.502630 1_445
Na18 O86 2.509443 1_555
Na18 O85 2.513084 1_455
Na18 O76 2.610956 1_555
Na18 O72 2.686500 1_445
Na18 O75 2.736108 1_455
Na19 O84 2.337305 1_555
Na19 O77 2.463834 1_555
Na19 O74 2.505362 1_555
Na19 O88 2.634393 1_545
Na19 O87 2.741542 1_555
Na19 O73 2.960481 1_545
Na20 O94 2.349046 1_555
Na20 O78 2.363989 1_554
Na20 O93 2.472122 1_455
Na20 O91 2.677365 1_445
Na20 O80 2.697384 1_544
Na20 O83 2.857028 1_444
Na21 O79 2.392279 1_555
Na21 O92 2.507117 1_556
Na21 O95 2.584406 1_556
Na21 O82 2.667989 1_545
Na21 O81 2.683998 1_545
Na21 O90 2.834341 1_546
Na22 O108 2.370771 1_555
Na22 O110 2.407255 1_555
Na22 O100 2.453122 1_555
Na22 O112 2.676355 1_555
Na22 O98 2.744065 1_555
Na22 O96 2.923777 1_555
Na23 O101 2.530169 1_555
Na23 O113 2.569105 1_555
Na23 O111 2.572819 1_555
Na23 O97 2.602099 1_555
Na23 O99 2.602366 1_555
Na23 O109 2.667743 1_555
Na24 O102 2.307056 1_555
Na24 O118 2.575108 1_555
Na24 O106 2.645839 1_555
Na24 O116 2.668276 1_555
Na24 O104 2.806411 1_555
Na24 O114 2.892743 1_555
Na25 O117 2.446074 1_555
Na25 O103 2.497334 1_555
Na25 O115 2.616993 1_555
Na25 O119 2.643314 1_555
Na25 O105 2.725416 1_555
Na25 O107 2.799210 1_555
Na26 O120 2.357230 1_555
Na26 O134 2.553614 1_555
Na26 O124 2.562513 1_555
Na26 O136 2.699654 1_555
Na26 O122 2.742396 1_555
Na26 O132 2.869725 1_555
Na27 O121 2.448232 1_555
Na27 O137 2.591813 1_555
Na27 O125 2.644885 1_555
Na27 O123 2.650361 1_555
Na27 O135 2.673437 1_555
Na27 O133 2.701466 1_555
Na28 O138 2.548479 1_555
Na28 O130 2.611259 1_555
Na28 O126 2.646384 1_555
Na28 O140 2.662136 1_555
Na28 O128 2.716986 1_555
Na28 O142 2.800993 1_555
Na29 O131 2.349793 1_555
Na29 O141 2.569282 1_555
Na29 O139 2.656751 1_555
Na29 O127 2.676358 1_555
Na29 O129 2.808805 1_555
Na29 O143 2.888085 1_555
Ca0 O2 2.083212 1_545
Ca0 O77 2.232512 1_555
Ca0 O4 2.241004 1_555
Ca0 O74 2.285750 1_555
Ca0 O1 2.287154 1_555
Ca0 O73 2.298763 1_545
Ca1 O24 2.135211 1_555
Ca1 O28 2.235181 1_555
Ca1 O98 2.268656 1_555
Ca1 O100 2.275631 1_555
Ca1 O26 2.312050 1_555
Ca1 O96 2.403042 1_555
Ca2 O97 2.202045 1_555
Ca2 O99 2.223601 1_555
Ca2 O29 2.242793 1_555
Ca2 O101 2.246989 1_555
Ca2 O25 2.247914 1_555
Ca2 O27 2.289959 1_555
Ca3 O34 2.119904 1_555
Ca3 O102 2.226545 1_555
Ca3 O30 2.253214 1_555
Ca3 O106 2.285551 1_555
Ca3 O32 2.319174 1_555
Ca3 O104 2.335901 1_555
Ca4 O35 2.120085 1_555
Ca4 O33 2.250386 1_555
Ca4 O31 2.282957 1_555
Ca4 O107 2.311936 1_555
Ca4 O103 2.348902 1_555
Ca4 O105 2.365948 1_555
Ca5 O50 2.146960 1_554
Ca5 O48 2.183574 1_554
Ca5 O120 2.233104 1_555
Ca5 O52 2.307545 1_554
Ca5 O122 2.362035 1_555
Ca5 O124 2.499139 1_555
Ca6 O51 2.085809 1_554
Ca6 O121 2.216218 1_555
Ca6 O53 2.324885 1_554
Ca6 O49 2.329342 1_554
Ca6 O123 2.331146 1_555
Ca6 O125 2.479039 1_555
Ca7 O56 2.151559 1_555
Ca7 O58 2.162536 1_555
Ca7 O54 2.253663 1_555
Ca7 O130 2.319960 1_555
Ca7 O128 2.335352 1_555
Ca7 O126 2.455940 1_555
Ca8 O57 2.160739 1_555
Ca8 O55 2.204097 1_555
Ca8 O59 2.237413 1_555
Ca8 O131 2.259330 1_555
Ca8 O129 2.366176 1_555
Ca8 O127 2.375519 1_555
O0 Si0 1.638485 1_545
O0 Sn0 1.991802 1_545
O1 S0 1.464688 1_545
O2 Si1 1.568365 1_555
O3 Si2 1.624813 1_555
O3 Sn0 2.000865 1_655
O4 S2 1.440494 1_555
O5 S1 1.481148 1_655
O5 Sn0 2.193953 1_645
O6 Si3 1.633616 1_555
O6 Sn1 2.005278 1_455
O7 Si4 1.615217 1_555
O7 Sn2 1.983692 1_545
O8 Si6 1.612842 1_555
O8 Sn2 1.981139 1_555
O9 Si5 1.624245 1_655
O9 Sn1 1.980892 1_565
O10 S3 1.470710 1_545
O10 Sn2 2.192320 1_545
O11 Si7 1.617338 1_545
O11 Sn1 1.964409 1_555
O12 S3 1.504971 1_555
O12 Sn4 2.185193 1_565
O13 Si7 1.675549 1_555
O13 Sn3 2.014509 1_665
O14 Si3 1.668211 1_555
O14 Sn3 2.011773 1_555
O15 Si4 1.669471 1_555
O15 Sn4 2.020560 1_555
O16 Si5 1.669754 1_555
O16 Sn3 2.010943 1_565
O17 Si6 1.672919 1_555
O17 Sn4 1.990145 1_565
O18 Si1 1.734602 1_555
O18 Sn6 1.993078 1_565
O19 Si2 1.671541 1_555
O19 Sn5 2.029880 1_655
O20 S1 1.488085 1_555
O20 Sn5 2.229141 1_545
O21 S2 1.526237 1_555
O21 Sn6 2.223063 1_555
O22 Si0 1.668251 1_555
O22 Sn5 2.001631 1_555
O23 S0 1.506238 1_555
O23 Sn6 2.231830 1_565
O24 Si8 1.590456 1_555
O25 S4 1.451008 1_555
O26 S5 1.461446 1_555
O27 S6 1.457257 1_555
O28 S7 1.461763 1_555
O29 S8 1.461539 1_555
O30 S9 1.454327 1_555
O31 S10 1.467686 1_555
O32 S11 1.466150 1_555
O33 S12 1.443474 1_555
O34 Si9 1.593237 1_555
O35 Si10 1.603855 1_555
O36 Si9 1.728052 1_555
O36 Sn7 2.029155 1_554
O37 Si10 1.714204 1_555
O37 Sn8 1.969572 1_554
O38 S9 1.513397 1_555
O38 Sn7 2.212941 1_554
O39 S10 1.505565 1_555
O39 Sn8 2.238066 1_554
O40 S11 1.493789 1_555
O40 Sn7 2.271999 1_554
O41 S12 1.513926 1_555
O41 Sn8 2.170301 1_554
O42 S5 1.524398 1_555
O42 Sn9 2.243820 1_555
O43 S6 1.536612 1_555
O43 Sn10 2.161953 1_555
O44 S7 1.520237 1_555
O44 Sn9 2.178482 1_555
O45 S8 1.534204 1_555
O45 Sn10 2.217657 1_555
O46 Si8 1.716453 1_555
O46 Sn9 1.971335 1_555
O47 S4 1.529247 1_555
O47 Sn10 2.223191 1_555
O48 Si11 1.582822 1_555
O49 S13 1.455934 1_555
O50 Si12 1.581749 1_555
O51 Si13 1.570790 1_555
O52 S14 1.439783 1_555
O53 S15 1.427363 1_555
O54 S16 1.452699 1_555
O55 Si14 1.580491 1_555
O56 Si15 1.585198 1_555
O57 Si16 1.582163 1_555
O58 Si17 1.581285 1_555
O59 S17 1.450006 1_555
O60 Si17 1.680950 1_555
O60 Sn11 2.067408 1_555
O61 S17 1.515259 1_555
O61 Sn12 2.227487 1_555
O62 S16 1.526198 1_555
O62 Sn11 2.241694 1_555
O63 Si14 1.687111 1_555
O63 Sn12 2.014403 1_555
O64 Si15 1.681130 1_555
O64 Sn11 2.045942 1_555
O65 Si16 1.712840 1_555
O65 Sn12 2.026207 1_555
O66 Si12 1.684300 1_555
O66 Sn13 2.025822 1_555
O67 Si13 1.698823 1_555
O67 Sn14 2.007946 1_555
O68 S14 1.514616 1_555
O68 Sn13 2.275645 1_555
O69 S15 1.518705 1_555
O69 Sn14 2.268507 1_555
O70 Si11 1.715913 1_555
O70 Sn13 2.022676 1_555
O71 S13 1.501556 1_555
O71 Sn14 2.379195 1_555
O72 Si17 1.652350 1_655
O72 Sn0 2.035938 1_655
O73 S17 1.468747 1_555
O74 S16 1.451150 1_545
O75 Si14 1.648415 1_545
O75 Sn0 2.032499 1_645
O76 Si15 1.669251 1_555
O76 Sn0 2.069687 1_545
O77 Si16 1.609561 1_555
O78 Si12 1.674496 1_555
O78 Sn1 2.018065 1_455
O79 Si13 1.648154 1_555
O79 Sn2 1.987136 1_545
O80 S14 1.508135 1_555
O80 Sn1 2.242220 1_465
O81 S15 1.491511 1_555
O81 Sn2 2.218389 1_555
O82 Si11 1.627014 1_555
O82 Sn2 1.993625 1_555
O83 S13 1.491797 1_555
O83 Sn1 2.198793 1_565
O84 Si8 1.711980 1_555
O84 Sn4 2.019232 1_555
O85 S4 1.511927 1_555
O85 Sn3 2.282342 1_655
O86 S5 1.525185 1_555
O86 Sn3 2.223488 1_555
O87 S6 1.508319 1_555
O87 Sn4 2.281409 1_555
O88 S7 1.505457 1_555
O88 Sn4 2.265182 1_565
O89 S8 1.501285 1_555
O89 Sn3 2.315606 1_665
O90 S9 1.528860 1_555
O90 Sn6 2.185212 1_565
O91 S10 1.530551 1_555
O91 Sn5 2.208624 1_655
O92 S11 1.532672 1_555
O92 Sn6 2.228218 1_555
O93 S12 1.515943 1_555
O93 Sn5 2.316567 1_645
O94 Si9 1.696297 1_555
O94 Sn5 1.997671 1_545
O95 Si10 1.688960 1_555
O95 Sn6 1.983869 1_555
O96 S3 1.472912 1_545
O97 Si7 1.609562 1_545
O98 Si3 1.611461 1_555
O99 Si4 1.614592 1_555
O100 Si6 1.617201 1_555
O101 Si5 1.610562 1_655
O102 Si1 1.601977 1_555
O103 Si2 1.638161 1_555
O104 S2 1.469627 1_555
O105 S1 1.469340 1_655
O106 Si0 1.607755 1_545
O107 S0 1.475218 1_545
O108 Si11 1.686894 1_555
O108 Sn7 2.056821 1_555
O109 S13 1.517629 1_555
O109 Sn8 2.243415 1_555
O110 Si13 1.685766 1_555
O110 Sn7 2.006553 1_555
O111 Si12 1.670657 1_655
O111 Sn8 1.992400 1_555
O112 S14 1.501295 1_545
O112 Sn7 2.339639 1_555
O113 S15 1.518703 1_545
O113 Sn8 2.202915 1_555
O114 S16 1.523289 1_545
O114 Sn9 2.221880 1_555
O115 Si14 1.662731 1_545
O115 Sn10 2.027080 1_555
O116 Si15 1.687904 1_555
O116 Sn9 2.041366 1_555
O117 Si16 1.711104 1_555
O117 Sn10 2.036681 1_555
O118 S17 1.519122 1_555
O118 Sn9 2.209425 1_555
O119 Si17 1.660988 1_655
O119 Sn10 2.010980 1_555
O120 Si9 1.617390 1_555
O121 Si10 1.618818 1_555
O122 S10 1.451876 1_455
O123 S9 1.455703 1_555
O124 S11 1.473274 1_565
O125 S12 1.480274 1_565
O126 S5 1.466915 1_565
O127 S6 1.455339 1_565
O128 S7 1.469484 1_555
O129 S8 1.464532 1_555
O130 S4 1.469564 1_455
O131 Si8 1.616280 1_555
O132 Si0 1.659294 1_555
O132 Sn11 2.063524 1_555
O133 S0 1.510565 1_555
O133 Sn12 2.232492 1_555
O134 Si1 1.712625 1_555
O134 Sn11 2.065459 1_555
O135 Si2 1.672333 1_555
O135 Sn12 2.046410 1_555
O136 S1 1.503787 1_555
O136 Sn11 2.323966 1_555
O137 S2 1.513474 1_555
O137 Sn12 2.331696 1_555
O138 Si3 1.671056 1_555
O138 Sn13 2.069693 1_555
O139 Si4 1.660463 1_555
O139 Sn14 2.047984 1_555
O140 Si5 1.673716 1_555
O140 Sn13 2.052635 1_555
O141 Si6 1.669526 1_555
O141 Sn14 2.068314 1_555
O142 S3 1.492160 1_555
O142 Sn13 2.402705 1_555
O143 Si7 1.657217 1_555
O143 Sn14 2.044895 1_555
