# generated using pymatgen
data_Li3Cr2(PO4)3
_symmetry_space_group_name_H-M   'P 1'
_cell_length_a   8.72535000
_cell_length_b   8.45529200
_cell_length_c   14.62855783
_cell_angle_alpha   55.11958234
_cell_angle_beta   90.00000000
_cell_angle_gamma   90.00000000
_symmetry_Int_Tables_number   1
_chemical_formula_structural   Li3Cr2(PO4)3
_chemical_formula_sum   'Li12 Cr8 P12 O48'
_cell_volume   885.34139854
_cell_formula_units_Z   4
loop_
 _symmetry_equiv_pos_site_id
 _symmetry_equiv_pos_as_xyz
  1  'x, y, z'
loop_
 _atom_site_type_symbol
 _atom_site_label
 _atom_site_symmetry_multiplicity
 _atom_site_fract_x
 _atom_site_fract_y
 _atom_site_fract_z
 _atom_site_occupancy
  Li  Li0  1  0.98834900  0.77559700  0.65488800  1
  Li  Li1  1  0.41210400  0.10836200  0.30959700  1
  Li  Li2  1  0.71769500  0.49933300  0.82418900  1
  Li  Li3  1  0.21769500  0.50066700  0.67581100  1
  Li  Li4  1  0.91210400  0.89163800  0.19040300  1
  Li  Li5  1  0.48834900  0.22440300  0.84511200  1
  Li  Li6  1  0.51165100  0.77559700  0.15488800  1
  Li  Li7  1  0.08789600  0.10836200  0.80959700  1
  Li  Li8  1  0.78230500  0.49933300  0.32418900  1
  Li  Li9  1  0.28230500  0.50066700  0.17581100  1
  Li  Li10  1  0.58789600  0.89163800  0.69040300  1
  Li  Li11  1  0.01165100  0.22440300  0.34511200  1
  Cr  Cr0  1  0.47261800  0.14592200  0.10686100  1
  Cr  Cr1  1  0.03482800  0.36463700  0.88916600  1
  Cr  Cr2  1  0.97261800  0.85407800  0.39313900  1
  Cr  Cr3  1  0.53482800  0.63536300  0.61083400  1
  Cr  Cr4  1  0.46517200  0.36463700  0.38916600  1
  Cr  Cr5  1  0.02738200  0.14592200  0.60686100  1
  Cr  Cr6  1  0.96517200  0.63536300  0.11083400  1
  Cr  Cr7  1  0.52738200  0.85407800  0.89313900  1
  P  P0  1  0.25079200  0.95196400  0.50939700  1
  P  P1  1  0.11727900  0.23872300  0.14955200  1
  P  P2  1  0.38750800  0.53495700  0.85357400  1
  P  P3  1  0.61727900  0.76127700  0.35044800  1
  P  P4  1  0.88750800  0.46504300  0.64642600  1
  P  P5  1  0.75079200  0.04803600  0.99060300  1
  P  P6  1  0.24920800  0.95196400  0.00939700  1
  P  P7  1  0.11249200  0.53495700  0.35357400  1
  P  P8  1  0.38272100  0.23872300  0.64955200  1
  P  P9  1  0.61249200  0.46504300  0.14642600  1
  P  P10  1  0.88272100  0.76127700  0.85044800  1
  P  P11  1  0.74920800  0.04803600  0.49060300  1
  O  O0  1  0.62699600  0.89031100  0.55608900  1
  O  O1  1  0.83263900  0.04432900  0.39828200  1
  O  O2  1  0.61452400  0.33708900  0.10401700  1
  O  O3  1  0.92364000  0.62331000  0.81345000  1
  O  O4  1  0.13785000  0.98828900  0.41691400  1
  O  O5  1  0.29469300  0.21387800  0.16847600  1
  O  O6  1  0.50540000  0.61897300  0.75452100  1
  O  O7  1  0.08119600  0.33443000  0.02765500  1
  O  O8  1  0.22958500  0.51462700  0.81237500  1
  O  O9  1  0.32251700  0.74942300  0.56427700  1
  O  O10  1  0.02561200  0.04881200  0.22478300  1
  O  O11  1  0.45027300  0.32696200  0.94079200  1
  O  O12  1  0.95027300  0.67303800  0.55920800  1
  O  O13  1  0.52561200  0.95118800  0.27521700  1
  O  O14  1  0.82251700  0.25057700  0.93572300  1
  O  O15  1  0.72958500  0.48537300  0.68762500  1
  O  O16  1  0.58119600  0.66557000  0.47234500  1
  O  O17  1  0.00540000  0.38102700  0.74547900  1
  O  O18  1  0.79469300  0.78612200  0.33152400  1
  O  O19  1  0.63785000  0.01171100  0.08308600  1
  O  O20  1  0.42364000  0.37669000  0.68655000  1
  O  O21  1  0.11452400  0.66291100  0.39598300  1
  O  O22  1  0.33263900  0.95567100  0.10171800  1
  O  O23  1  0.12699600  0.10968900  0.94391100  1
  O  O24  1  0.87300400  0.89031100  0.05608900  1
  O  O25  1  0.66736100  0.04432900  0.89828200  1
  O  O26  1  0.88547600  0.33708900  0.60401700  1
  O  O27  1  0.57636000  0.62331000  0.31345000  1
  O  O28  1  0.36215000  0.98828900  0.91691400  1
  O  O29  1  0.20530700  0.21387800  0.66847600  1
  O  O30  1  0.99460000  0.61897300  0.25452100  1
  O  O31  1  0.41880400  0.33443000  0.52765500  1
  O  O32  1  0.27041500  0.51462700  0.31237500  1
  O  O33  1  0.17748300  0.74942300  0.06427700  1
  O  O34  1  0.47438800  0.04881200  0.72478300  1
  O  O35  1  0.04972700  0.32696200  0.44079200  1
  O  O36  1  0.54972700  0.67303800  0.05920800  1
  O  O37  1  0.97438800  0.95118800  0.77521700  1
  O  O38  1  0.67748300  0.25057700  0.43572300  1
  O  O39  1  0.77041500  0.48537300  0.18762500  1
  O  O40  1  0.91880400  0.66557000  0.97234500  1
  O  O41  1  0.49460000  0.38102700  0.24547900  1
  O  O42  1  0.70530700  0.78612200  0.83152400  1
  O  O43  1  0.86215000  0.01171100  0.58308600  1
  O  O44  1  0.07636000  0.37669000  0.18655000  1
  O  O45  1  0.38547600  0.66291100  0.89598300  1
  O  O46  1  0.16736100  0.95567100  0.60171800  1
  O  O47  1  0.37300400  0.10968900  0.44391100  1
loop_
_geom_bond_atom_site_label_1
_geom_bond_atom_site_label_2
_geom_bond_distance
_geom_bond_site_symmetry_2
Li0 O43 1.975616 1_565
Li0 O3 1.985202 1_555
Li0 O46 2.002100 1_655
Li0 O12 2.051729 1_555
Li1 O13 1.940199 1_545
Li1 O5 2.000172 1_555
Li1 O47 2.000562 1_555
Li1 O41 2.059080 1_555
Li2 O14 1.999375 1_555
Li2 O3 2.040634 1_555
Li2 O15 2.070105 1_555
Li2 O6 2.077023 1_555
Li2 O42 2.490151 1_555
Li3 O9 1.999375 1_555
Li3 O20 2.040634 1_555
Li3 O8 2.070105 1_555
Li3 O17 2.077023 1_555
Li3 O29 2.490151 1_555
Li4 O10 1.940199 1_665
Li4 O18 2.000172 1_555
Li4 O24 2.000562 1_555
Li4 O30 2.059080 1_555
Li5 O28 1.975616 1_545
Li5 O20 1.985202 1_555
Li5 O25 2.002100 1_555
Li5 O11 2.051729 1_555
Li6 O19 1.975616 1_565
Li6 O27 1.985202 1_555
Li6 O22 2.002100 1_555
Li6 O36 2.051729 1_555
Li7 O37 1.940199 1_445
Li7 O29 2.000172 1_555
Li7 O23 2.000562 1_555
Li7 O17 2.059080 1_555
Li8 O38 1.999375 1_555
Li8 O27 2.040634 1_555
Li8 O39 2.070105 1_555
Li8 O30 2.077023 1_555
Li8 O18 2.490151 1_555
Li9 O33 1.999375 1_555
Li9 O44 2.040634 1_555
Li9 O32 2.070105 1_555
Li9 O41 2.077023 1_555
Li9 O5 2.490151 1_555
Li10 O34 1.940199 1_565
Li10 O42 2.000172 1_555
Li10 O0 2.000562 1_555
Li10 O6 2.059080 1_555
Li11 O4 1.975616 1_545
Li11 O44 1.985202 1_555
Li11 O1 2.002100 1_455
Li11 O35 2.051729 1_555
Cr0 O19 1.984600 1_555
Cr0 O11 2.007417 1_554
Cr0 O2 2.017565 1_555
Cr0 O5 2.035933 1_555
Cr0 O22 2.055115 1_545
Cr0 O13 2.086230 1_545
Cr1 O7 1.934260 1_556
Cr1 O23 1.990096 1_555
Cr1 O14 2.018518 1_455
Cr1 O8 2.031884 1_555
Cr1 O17 2.042083 1_555
Cr1 O3 2.044735 1_455
Cr2 O4 1.984600 1_655
Cr2 O12 2.007417 1_555
Cr2 O21 2.017565 1_655
Cr2 O18 2.035933 1_555
Cr2 O1 2.055115 1_565
Cr2 O10 2.086230 1_665
Cr3 O16 1.934260 1_555
Cr3 O0 1.990096 1_555
Cr3 O9 2.018518 1_555
Cr3 O15 2.031884 1_555
Cr3 O6 2.042083 1_555
Cr3 O20 2.044735 1_555
Cr4 O31 1.934260 1_555
Cr4 O47 1.990096 1_555
Cr4 O38 2.018518 1_555
Cr4 O32 2.031884 1_555
Cr4 O41 2.042083 1_555
Cr4 O27 2.044735 1_555
Cr5 O43 1.984600 1_455
Cr5 O35 2.007417 1_555
Cr5 O26 2.017565 1_455
Cr5 O29 2.035933 1_555
Cr5 O46 2.055115 1_545
Cr5 O37 2.086230 1_445
Cr6 O40 1.934260 1_554
Cr6 O24 1.990096 1_555
Cr6 O33 2.018518 1_655
Cr6 O39 2.031884 1_555
Cr6 O30 2.042083 1_555
Cr6 O44 2.044735 1_655
Cr7 O28 1.984600 1_555
Cr7 O36 2.007417 1_556
Cr7 O45 2.017565 1_555
Cr7 O42 2.035933 1_555
Cr7 O25 2.055115 1_565
Cr7 O34 2.086230 1_565
O0 P11 1.540170 1_565
O1 P11 1.550239 1_555
O2 P9 1.524246 1_555
O3 P10 1.582200 1_555
O4 P0 1.555806 1_555
O5 P1 1.565425 1_555
O6 P2 1.576412 1_555
O7 P1 1.511057 1_555
O8 P2 1.552406 1_555
O9 P0 1.548066 1_555
O10 P1 1.551822 1_555
O11 P2 1.566626 1_555
O12 P4 1.566626 1_555
O13 P3 1.551822 1_555
O14 P5 1.548066 1_555
O15 P4 1.552406 1_555
O16 P3 1.511057 1_555
O17 P4 1.576412 1_455
O18 P3 1.565425 1_555
O19 P5 1.555806 1_554
O20 P8 1.582200 1_555
O21 P7 1.524246 1_555
O22 P6 1.550239 1_555
O23 P6 1.540170 1_546
O24 P5 1.540170 1_564
O25 P5 1.550239 1_555
O26 P4 1.524246 1_555
O27 P3 1.582200 1_555
O28 P6 1.555806 1_556
O29 P8 1.565425 1_555
O30 P7 1.576412 1_655
O31 P8 1.511057 1_555
O32 P7 1.552406 1_555
O33 P6 1.548066 1_555
O34 P8 1.551822 1_555
O35 P7 1.566626 1_555
O36 P9 1.566626 1_555
O37 P10 1.551822 1_555
O38 P11 1.548066 1_555
O39 P9 1.552406 1_555
O40 P10 1.511057 1_555
O41 P9 1.576412 1_555
O42 P10 1.565425 1_555
O43 P11 1.555806 1_555
O44 P1 1.582200 1_555
O45 P2 1.524246 1_555
O46 P0 1.550239 1_555
O47 P0 1.540170 1_545
