# generated using pymatgen
data_MgFe12(OF)12
_symmetry_space_group_name_H-M   'P 1'
_cell_length_a   9.61864565
_cell_length_b   14.46764696
_cell_length_c   3.13160000
_cell_angle_alpha   90.00000000
_cell_angle_beta   90.00000000
_cell_angle_gamma   91.98665889
_symmetry_Int_Tables_number   1
_chemical_formula_structural   MgFe12(OF)12
_chemical_formula_sum   'Mg1 Fe12 O12 F12'
_cell_volume   435.52891279
_cell_formula_units_Z   1
loop_
 _symmetry_equiv_pos_site_id
 _symmetry_equiv_pos_as_xyz
  1  'x, y, z'
loop_
 _atom_site_type_symbol
 _atom_site_label
 _atom_site_symmetry_multiplicity
 _atom_site_fract_x
 _atom_site_fract_y
 _atom_site_fract_z
 _atom_site_occupancy
  Mg  Mg0  1  0.35154100  0.78801700  0.00000000  1
  Fe  Fe0  1  0.97365500  0.01171500  0.00000000  1
  Fe  Fe1  1  0.02427600  0.32196300  0.00000000  1
  Fe  Fe2  1  0.00616800  0.66618600  0.00000000  1
  Fe  Fe3  1  0.23196700  0.16221900  0.50000000  1
  Fe  Fe4  1  0.24629300  0.48118500  0.50000000  1
  Fe  Fe5  1  0.24247100  0.96952200  0.50000000  1
  Fe  Fe6  1  0.49366500  0.34417700  0.00000000  1
  Fe  Fe7  1  0.53430100  0.99473400  0.00000000  1
  Fe  Fe8  1  0.54888000  0.63382200  0.00000000  1
  Fe  Fe9  1  0.73923100  0.15880700  0.50000000  1
  Fe  Fe10  1  0.75201000  0.47870700  0.50000000  1
  Fe  Fe11  1  0.71798900  0.82155300  0.50000000  1
  O  O0  1  0.09769100  0.26095300  0.50000000  1
  O  O1  1  0.04686000  0.94324800  0.50000000  1
  O  O2  1  0.16641300  0.09036700  0.00000000  1
  O  O3  1  0.15450800  0.43015500  0.00000000  1
  O  O4  1  0.35671700  0.92022800  0.00000000  1
  O  O5  1  0.40584200  0.39927900  0.50000000  1
  O  O6  1  0.60763900  0.93218300  0.50000000  1
  O  O7  1  0.62642000  0.58517500  0.50000000  1
  O  O8  1  0.64221800  0.10987500  0.00000000  1
  O  O9  1  0.66621400  0.42306900  0.00000000  1
  O  O10  1  0.61397600  0.76114500  0.00000000  1
  O  O11  1  0.88818500  0.07809900  0.50000000  1
  F  F0  1  0.11681900  0.59276600  0.50000000  1
  F  F1  1  0.15881500  0.75910700  0.00000000  1
  F  F2  1  0.34788600  0.23230000  0.00000000  1
  F  F3  1  0.36310200  0.56153500  0.00000000  1
  F  F4  1  0.40987200  0.07292800  0.50000000  1
  F  F5  1  0.39713500  0.71384300  0.50000000  1
  F  F6  1  0.58787900  0.27013800  0.50000000  1
  F  F7  1  0.83922200  0.24445600  0.00000000  1
  F  F8  1  0.82575000  0.87932600  0.00000000  1
  F  F9  1  0.86573900  0.55010300  0.00000000  1
  F  F10  1  0.91557600  0.39301000  0.50000000  1
  F  F11  1  0.87636200  0.72336100  0.50000000  1
loop_
_geom_bond_atom_site_label_1
_geom_bond_atom_site_label_2
_geom_bond_distance
_geom_bond_site_symmetry_2
Mg0 O4 1.911704 1_555
Mg0 O10 2.567318 1_555
Fe0 O1 1.994265 1_644
Fe0 O1 1.994265 1_645
Fe0 O11 2.026015 1_554
Fe0 O11 2.026015 1_555
Fe0 O2 2.141527 1_655
Fe1 O0 1.942345 1_554
Fe1 O0 1.942345 1_555
Fe1 O3 1.970612 1_555
Fe3 O0 1.958696 1_555
Fe3 O2 1.970910 1_555
Fe3 O2 1.970910 1_556
Fe4 O3 1.931585 1_555
Fe4 O3 1.931585 1_556
Fe4 O5 1.971146 1_555
Fe5 O1 1.906567 1_555
Fe5 O4 2.054809 1_556
Fe5 O4 2.054809 1_555
Fe5 O2 2.476351 1_565
Fe5 O2 2.476351 1_566
Fe6 O5 1.961511 1_554
Fe6 O5 1.961511 1_555
Fe6 O9 1.981407 1_555
Fe7 O8 1.931979 1_565
Fe7 O6 1.952578 1_554
Fe7 O6 1.952578 1_555
Fe7 O4 1.987947 1_555
Fe8 O7 1.881417 1_554
Fe8 O7 1.881417 1_555
Fe8 O10 1.924910 1_555
Fe9 O11 1.879399 1_555
Fe9 O8 1.943665 1_555
Fe9 O8 1.943665 1_556
Fe10 O9 1.932522 1_556
Fe10 O9 1.932522 1_555
Fe10 O7 1.990211 1_555
Fe11 O6 1.950942 1_555
Fe11 O10 2.038589 1_555
Fe11 O10 2.038589 1_556
F0 Fe4 2.072760 1_555
F0 Fe2 2.188875 1_555
F0 Fe2 2.188875 1_556
F1 Mg0 1.886166 1_555
F1 Fe2 1.956067 1_555
F2 Fe6 2.104436 1_555
F2 Fe3 2.155121 1_555
F2 Fe3 2.155121 1_554
F3 Fe8 2.038946 1_555
F3 Fe4 2.230443 1_554
F3 Fe4 2.230443 1_555
F4 Fe5 2.159577 1_545
F4 Fe3 2.179522 1_555
F4 Fe7 2.292996 1_546
F4 Fe7 2.292996 1_545
F5 Mg0 1.956599 1_555
F5 Mg0 1.956599 1_556
F5 Fe8 2.457554 1_555
F5 Fe8 2.457554 1_556
F6 Fe6 2.118409 1_556
F6 Fe6 2.118409 1_555
F6 Fe9 2.208230 1_555
F7 Fe1 2.070583 1_655
F7 Fe9 2.197631 1_554
F7 Fe9 2.197631 1_555
F8 Fe11 2.040748 1_555
F8 Fe11 2.040748 1_554
F8 Fe0 2.345973 1_565
F9 Fe2 2.118432 1_655
F9 Fe10 2.153368 1_555
F9 Fe10 2.153368 1_554
F10 Fe10 2.036578 1_555
F10 Fe1 2.162395 1_655
F10 Fe1 2.162395 1_656
F11 Fe11 2.118658 1_555
F11 Fe2 2.183225 1_655
F11 Fe2 2.183225 1_656
