# generated using pymatgen
data_Rb2MgTi2Zn2(OF5)2
_symmetry_space_group_name_H-M   'P 1'
_cell_length_a   7.03954339
_cell_length_b   7.31846903
_cell_length_c   7.03954464
_cell_angle_alpha   66.19195448
_cell_angle_beta   62.52019386
_cell_angle_gamma   66.19195172
_symmetry_Int_Tables_number   1
_chemical_formula_structural   Rb2MgTi2Zn2(OF5)2
_chemical_formula_sum   'Rb2 Mg1 Ti2 Zn2 O2 F10'
_cell_volume   283.61385985
_cell_formula_units_Z   1
loop_
 _symmetry_equiv_pos_site_id
 _symmetry_equiv_pos_as_xyz
  1  'x, y, z'
loop_
 _atom_site_type_symbol
 _atom_site_label
 _atom_site_symmetry_multiplicity
 _atom_site_fract_x
 _atom_site_fract_y
 _atom_site_fract_z
 _atom_site_occupancy
  Rb  Rb0  1  0.32201393  0.51146047  0.32201393  1
  Rb  Rb1  1  0.67798607  0.48853953  0.67798607  1
  Mg  Mg0  1  0.50000000  -0.00000000  0.50000000  1
  Ti  Ti0  1  0.00000000  -0.00000000  0.50000000  1
  Ti  Ti1  1  0.50000000  -0.00000000  -0.00000000  1
  Zn  Zn0  1  0.00000000  -0.00000000  -0.00000000  1
  Zn  Zn1  1  0.00000000  0.50000000  -0.00000000  1
  O  O0  1  0.21013549  0.95994033  0.21013549  1
  O  O1  1  0.78986451  0.04005967  0.78986451  1
  F  F0  1  0.19091015  0.11586496  0.55947376  1
  F  F1  1  0.07193680  0.69954998  0.07193679  1
  F  F2  1  0.10172556  0.68834651  0.66547849  1
  F  F3  1  0.55947376  0.11586496  0.19091015  1
  F  F4  1  0.33452151  0.31165349  0.89827444  1
  F  F5  1  0.66547849  0.68834651  0.10172556  1
  F  F6  1  0.44052624  0.88413504  0.80908985  1
  F  F7  1  0.89827444  0.31165349  0.33452151  1
  F  F8  1  0.80908985  0.88413504  0.44052624  1
  F  F9  1  0.92806320  0.30045002  0.92806321  1
loop_
_geom_bond_atom_site_label_1
_geom_bond_atom_site_label_2
_geom_bond_distance
_geom_bond_site_symmetry_2
O0 Ti1 1.945523 1_565
O0 Ti0 1.945523 1_565
O0 Zn0 2.404481 1_565
O0 Rb0 2.900309 1_555
O1 Ti1 1.945523 1_556
O1 Ti0 1.945523 1_655
O1 Zn0 2.404481 1_656
O1 Rb1 2.900309 1_555
F0 Mg0 1.893405 1_555
F0 Ti0 2.103889 1_555
F0 Rb0 2.975600 1_555
F1 Zn0 1.945885 1_565
F1 Zn1 2.019026 1_555
F1 Rb0 2.653351 1_555
F2 Ti0 2.092388 1_565
F2 Zn1 2.139691 1_556
F2 Rb0 2.715240 1_555
F3 Mg0 1.893405 1_555
F3 Ti1 2.103889 1_555
F3 Rb0 2.975600 1_555
F4 Ti1 2.092388 1_556
F4 Zn1 2.139690 1_556
F4 Rb1 2.715240 1_555
F5 Ti1 2.092388 1_565
F5 Zn1 2.139690 1_655
F5 Rb0 2.715240 1_555
F6 Mg0 1.893405 1_565
F6 Ti1 2.103889 1_566
F6 Rb1 2.975600 1_555
F7 Ti0 2.092388 1_655
F7 Zn1 2.139691 1_655
F7 Rb1 2.715240 1_555
F8 Mg0 1.893405 1_565
F8 Ti0 2.103889 1_665
F8 Rb1 2.975600 1_555
F9 Zn0 1.945885 1_656
F9 Zn1 2.019026 1_656
F9 Rb1 2.653351 1_555
