# generated using pymatgen
data_K2MgMn3V2(HO5)2
_symmetry_space_group_name_H-M   'P 1'
_cell_length_a   6.64992873
_cell_length_b   7.96693743
_cell_length_c   5.48898488
_cell_angle_alpha   71.62845897
_cell_angle_beta   87.49725949
_cell_angle_gamma   68.96556414
_symmetry_Int_Tables_number   1
_chemical_formula_structural   K2MgMn3V2(HO5)2
_chemical_formula_sum   'K2 Mg1 Mn3 V2 H2 O10'
_cell_volume   256.79923175
_cell_formula_units_Z   1
loop_
 _symmetry_equiv_pos_site_id
 _symmetry_equiv_pos_as_xyz
  1  'x, y, z'
loop_
 _atom_site_type_symbol
 _atom_site_label
 _atom_site_symmetry_multiplicity
 _atom_site_fract_x
 _atom_site_fract_y
 _atom_site_fract_z
 _atom_site_occupancy
  K  K0  1  0.87374186  0.47902438  0.76887347  1
  K  K1  1  0.12625814  0.52097562  0.23112553  1
  Mg  Mg0  1  0.50000000  0.50000000  0.50000000  1
  Mn  Mn0  1  0.26642627  0.98700515  0.49993054  1
  Mn  Mn1  1  0.73357373  0.01299485  0.50006946  1
  Mn  Mn2  1  -0.00000000  0.00000000  -0.00000000  1
  V  V0  1  0.60721093  0.77358865  0.09710729  1
  V  V1  1  0.39278907  0.22641135  0.90289271  1
  H  H0  1  0.13439181  0.71565384  0.73998064  1
  H  H1  1  0.86560819  0.28434616  0.26001936  1
  O  O0  1  0.05304271  0.84967727  0.73346296  1
  O  O1  1  0.57617977  0.82363801  0.75341388  1
  O  O2  1  0.79340369  0.85137519  0.21914993  1
  O  O3  1  0.35141190  0.78187587  0.27483535  1
  O  O4  1  0.27043669  0.48833117  0.74139946  1
  O  O5  1  0.72956331  0.51166883  0.25860054  1
  O  O6  1  0.20659631  0.14862481  0.78085007  1
  O  O7  1  0.64858810  0.21812413  0.72516465  1
  O  O8  1  0.42382023  0.17636199  0.24658612  1
  O  O9  1  0.94695729  0.15032273  0.26653704  1
loop_
_geom_bond_atom_site_label_1
_geom_bond_atom_site_label_2
_geom_bond_distance
_geom_bond_site_symmetry_2
K0 O4 2.661928 1_655
K0 O1 2.725518 1_555
K0 O6 2.748393 1_655
K0 O5 2.872177 1_556
K0 Mg0 2.872240 1_555
K0 O5 2.903132 1_555
K0 O7 3.033089 1_555
K1 O5 2.661929 1_455
K1 O8 2.725516 1_555
K1 O2 2.748394 1_455
K1 O4 2.872172 1_554
K1 Mg0 2.872243 1_555
K1 O4 2.903137 1_555
K1 O3 3.033090 1_555
Mg0 O5 1.985544 1_555
Mg0 O4 1.985544 1_555
Mg0 O3 2.076335 1_555
Mg0 O7 2.076335 1_555
Mn0 O0 2.219292 1_555
Mn0 O8 2.233631 1_565
Mn0 O6 2.241451 1_565
Mn0 O9 2.247242 1_465
Mn0 O1 2.248792 1_555
Mn0 O3 2.250679 1_555
Mn1 O9 2.219292 1_555
Mn1 O1 2.233631 1_545
Mn1 O2 2.241451 1_545
Mn1 O0 2.247242 1_645
Mn1 O8 2.248792 1_555
Mn1 O7 2.250679 1_555
Mn2 O0 2.110749 1_544
Mn2 O9 2.110749 1_455
Mn2 O6 2.205021 1_554
Mn2 O2 2.205021 1_445
Mn2 O3 2.548876 1_545
Mn2 O7 2.548876 1_454
H0 O0 0.998494 1_555
H0 O4 1.707053 1_555
H0 K1 2.662346 1_556
H0 K0 2.952415 1_455
H1 O9 0.998494 1_555
H1 O5 1.707053 1_555
H1 K0 2.662351 1_554
H1 K1 2.952414 1_655
O1 V0 1.805913 1_556
O2 V0 1.803003 1_555
O3 V0 1.914329 1_555
O4 V1 1.865556 1_555
O5 V0 1.865556 1_555
O6 V1 1.803003 1_555
O7 V1 1.914329 1_555
O8 V1 1.805913 1_554
