# generated using pymatgen
data_EuCuAs
_symmetry_space_group_name_H-M   'P 1'
_cell_length_a   4.19879220
_cell_length_b   4.19879302
_cell_length_c   8.33399635
_cell_angle_alpha   90.00000000
_cell_angle_beta   90.00000000
_cell_angle_gamma   120.00000173
_symmetry_Int_Tables_number   1
_chemical_formula_structural   EuCuAs
_chemical_formula_sum   'Eu2 Cu2 As2'
_cell_volume   127.24267133
_cell_formula_units_Z   2
loop_
 _symmetry_equiv_pos_site_id
 _symmetry_equiv_pos_as_xyz
  1  'x, y, z'
loop_
 _atom_site_type_symbol
 _atom_site_label
 _atom_site_symmetry_multiplicity
 _atom_site_fract_x
 _atom_site_fract_y
 _atom_site_fract_z
 _atom_site_occupancy
  Eu  Eu0  1  0.00000000  0.00000000  0.50000000  1
  Eu  Eu1  1  0.00000000  0.00000000  0.00000000  1
  Cu  Cu0  1  0.66666700  0.33333300  0.25003148  1
  Cu  Cu1  1  0.33333300  0.66666700  0.74996852  1
  As  As0  1  0.33333300  0.66666700  0.25006568  1
  As  As1  1  0.66666700  0.33333300  0.74993432  1
loop_
_geom_bond_atom_site_label_1
_geom_bond_atom_site_label_2
_geom_bond_distance
_geom_bond_site_symmetry_2
Cu0 Eu0 3.196323 1_655
Cu0 Eu0 3.196326 1_555
Cu0 Eu0 3.196326 1_665
Cu0 Eu1 3.196665 1_655
Cu0 Eu1 3.196668 1_555
Cu0 Eu1 3.196668 1_665
Cu1 Eu0 3.196323 1_565
Cu1 Eu0 3.196326 1_665
Cu1 Eu0 3.196326 1_555
Cu1 Eu1 3.196665 1_566
Cu1 Eu1 3.196668 1_666
Cu1 Eu1 3.196668 1_556
As0 Cu0 2.424171 1_455
As0 Cu0 2.424172 1_565
As0 Cu0 2.424179 1_555
As0 Eu0 3.196138 1_565
As0 Eu0 3.196140 1_665
As0 Eu0 3.196141 1_555
As0 Eu1 3.196851 1_565
As0 Eu1 3.196854 1_665
As0 Eu1 3.196854 1_555
As1 Cu1 2.424171 1_655
As1 Cu1 2.424172 1_545
As1 Cu1 2.424179 1_555
As1 Eu0 3.196138 1_655
As1 Eu0 3.196140 1_555
As1 Eu0 3.196141 1_665
As1 Eu1 3.196851 1_656
As1 Eu1 3.196854 1_556
As1 Eu1 3.196854 1_666
