# generated using pymatgen
data_La2MgCuO4
_symmetry_space_group_name_H-M   'P 1'
_cell_length_a   4.08398500
_cell_length_b   4.08398500
_cell_length_c   9.37056928
_cell_angle_alpha   102.58662164
_cell_angle_beta   102.58662164
_cell_angle_gamma   90.00000000
_symmetry_Int_Tables_number   1
_chemical_formula_structural   La2MgCuO4
_chemical_formula_sum   'La2 Mg1 Cu1 O4'
_cell_volume   148.68416904
_cell_formula_units_Z   1
loop_
 _symmetry_equiv_pos_site_id
 _symmetry_equiv_pos_as_xyz
  1  'x, y, z'
loop_
 _atom_site_type_symbol
 _atom_site_label
 _atom_site_symmetry_multiplicity
 _atom_site_fract_x
 _atom_site_fract_y
 _atom_site_fract_z
 _atom_site_occupancy
  La  La0  1  0.68377300  0.68377300  0.36754600  1
  La  La1  1  0.31622700  0.31622700  0.63245400  1
  Mg  Mg0  1  0.50000000  0.50000000  0.00000000  1
  Cu  Cu0  1  0.00000000  0.00000000  0.00000000  1
  O  O0  1  0.50000000  0.00000000  0.00000000  1
  O  O1  1  0.00000000  0.50000000  0.00000000  1
  O  O2  1  0.25000000  0.75000000  0.50000000  1
  O  O3  1  0.75000000  0.25000000  0.50000000  1
loop_
_geom_bond_atom_site_label_1
_geom_bond_atom_site_label_2
_geom_bond_distance
_geom_bond_site_symmetry_2
La0 O3 2.358798 1_555
La0 O2 2.358798 1_555
La0 O2 2.358798 1_655
La0 O3 2.358798 1_565
La1 O3 2.358798 1_555
La1 O2 2.358798 1_555
La1 O3 2.358798 1_455
La1 O2 2.358798 1_545
Mg0 O0 2.041993 1_565
Mg0 O1 2.041993 1_655
Mg0 O0 2.041993 1_555
Mg0 O1 2.041993 1_555
Cu0 O1 2.041993 1_545
Cu0 O0 2.041993 1_555
Cu0 O1 2.041993 1_555
Cu0 O0 2.041993 1_455
