# generated using pymatgen
data_Tm2InPd2
_symmetry_space_group_name_H-M   'P 1'
_cell_length_a   15.35777310
_cell_length_b   15.35777310
_cell_length_c   7.15085036
_cell_angle_alpha   90.00000000
_cell_angle_beta   90.00000000
_cell_angle_gamma   90.00000000
_symmetry_Int_Tables_number   1
_chemical_formula_structural   Tm2InPd2
_chemical_formula_sum   'Tm32 In16 Pd32'
_cell_volume   1686.60810825
_cell_formula_units_Z   16
loop_
 _symmetry_equiv_pos_site_id
 _symmetry_equiv_pos_as_xyz
  1  'x, y, z'
loop_
 _atom_site_type_symbol
 _atom_site_label
 _atom_site_symmetry_multiplicity
 _atom_site_fract_x
 _atom_site_fract_y
 _atom_site_fract_z
 _atom_site_occupancy
  Tm  Tm0_0  1  0.16404878  0.41404878  0.25000000  1
  Tm  Tm0_1  1  0.16404878  0.41404878  0.75000000  1
  Tm  Tm0_2  1  0.16404878  0.91404878  0.25000000  1
  Tm  Tm0_3  1  0.16404878  0.91404878  0.75000000  1
  Tm  Tm0_4  1  0.66404878  0.41404878  0.25000000  1
  Tm  Tm0_5  1  0.66404878  0.41404878  0.75000000  1
  Tm  Tm0_6  1  0.66404878  0.91404878  0.25000000  1
  Tm  Tm0_7  1  0.66404878  0.91404878  0.75000000  1
  Tm  Tm1_0  1  0.41404878  0.33595122  0.25000000  1
  Tm  Tm1_1  1  0.41404878  0.33595122  0.75000000  1
  Tm  Tm1_2  1  0.41404878  0.83595122  0.25000000  1
  Tm  Tm1_3  1  0.41404878  0.83595122  0.75000000  1
  Tm  Tm1_4  1  0.91404878  0.33595122  0.25000000  1
  Tm  Tm1_5  1  0.91404878  0.33595122  0.75000000  1
  Tm  Tm1_6  1  0.91404878  0.83595122  0.25000000  1
  Tm  Tm1_7  1  0.91404878  0.83595122  0.75000000  1
  Tm  Tm2_0  1  0.08595122  0.16404878  0.25000000  1
  Tm  Tm2_1  1  0.08595122  0.16404878  0.75000000  1
  Tm  Tm2_2  1  0.08595122  0.66404878  0.25000000  1
  Tm  Tm2_3  1  0.08595122  0.66404878  0.75000000  1
  Tm  Tm2_4  1  0.58595122  0.16404878  0.25000000  1
  Tm  Tm2_5  1  0.58595122  0.16404878  0.75000000  1
  Tm  Tm2_6  1  0.58595122  0.66404878  0.25000000  1
  Tm  Tm2_7  1  0.58595122  0.66404878  0.75000000  1
  Tm  Tm3_0  1  0.33595122  0.08595122  0.25000000  1
  Tm  Tm3_1  1  0.33595122  0.08595122  0.75000000  1
  Tm  Tm3_2  1  0.33595122  0.58595122  0.25000000  1
  Tm  Tm3_3  1  0.33595122  0.58595122  0.75000000  1
  Tm  Tm3_4  1  0.83595122  0.08595122  0.25000000  1
  Tm  Tm3_5  1  0.83595122  0.08595122  0.75000000  1
  Tm  Tm3_6  1  0.83595122  0.58595122  0.25000000  1
  Tm  Tm3_7  1  0.83595122  0.58595122  0.75000000  1
  In  In0_0  1  0.00000000  0.00000000  0.00000000  1
  In  In0_1  1  0.00000000  0.00000000  0.50000000  1
  In  In0_2  1  0.00000000  0.50000000  0.00000000  1
  In  In0_3  1  0.00000000  0.50000000  0.50000000  1
  In  In0_4  1  0.50000000  0.00000000  0.00000000  1
  In  In0_5  1  0.50000000  0.00000000  0.50000000  1
  In  In0_6  1  0.50000000  0.50000000  0.00000000  1
  In  In0_7  1  0.50000000  0.50000000  0.50000000  1
  In  In1_0  1  0.25000000  0.25000000  0.00000000  1
  In  In1_1  1  0.25000000  0.25000000  0.50000000  1
  In  In1_2  1  0.25000000  0.75000000  0.00000000  1
  In  In1_3  1  0.25000000  0.75000000  0.50000000  1
  In  In1_4  1  0.75000000  0.25000000  0.00000000  1
  In  In1_5  1  0.75000000  0.25000000  0.50000000  1
  In  In1_6  1  0.75000000  0.75000000  0.00000000  1
  In  In1_7  1  0.75000000  0.75000000  0.50000000  1
  Pd  Pd0_0  1  0.18579635  0.06420365  0.00000000  1
  Pd  Pd0_1  1  0.18579635  0.06420365  0.50000000  1
  Pd  Pd0_2  1  0.18579635  0.56420365  0.00000000  1
  Pd  Pd0_3  1  0.18579635  0.56420365  0.50000000  1
  Pd  Pd0_4  1  0.68579635  0.06420365  0.00000000  1
  Pd  Pd0_5  1  0.68579635  0.06420365  0.50000000  1
  Pd  Pd0_6  1  0.68579635  0.56420365  0.00000000  1
  Pd  Pd0_7  1  0.68579635  0.56420365  0.50000000  1
  Pd  Pd1_0  1  0.43579635  0.18579635  0.00000000  1
  Pd  Pd1_1  1  0.43579635  0.18579635  0.50000000  1
  Pd  Pd1_2  1  0.43579635  0.68579635  0.00000000  1
  Pd  Pd1_3  1  0.43579635  0.68579635  0.50000000  1
  Pd  Pd1_4  1  0.93579635  0.18579635  0.00000000  1
  Pd  Pd1_5  1  0.93579635  0.18579635  0.50000000  1
  Pd  Pd1_6  1  0.93579635  0.68579635  0.00000000  1
  Pd  Pd1_7  1  0.93579635  0.68579635  0.50000000  1
  Pd  Pd2_0  1  0.06420365  0.31420365  0.00000000  1
  Pd  Pd2_1  1  0.06420365  0.31420365  0.50000000  1
  Pd  Pd2_2  1  0.06420365  0.81420365  0.00000000  1
  Pd  Pd2_3  1  0.06420365  0.81420365  0.50000000  1
  Pd  Pd2_4  1  0.56420365  0.31420365  0.00000000  1
  Pd  Pd2_5  1  0.56420365  0.31420365  0.50000000  1
  Pd  Pd2_6  1  0.56420365  0.81420365  0.00000000  1
  Pd  Pd2_7  1  0.56420365  0.81420365  0.50000000  1
  Pd  Pd3_0  1  0.31420365  0.43579635  0.00000000  1
  Pd  Pd3_1  1  0.31420365  0.43579635  0.50000000  1
  Pd  Pd3_2  1  0.31420365  0.93579635  0.00000000  1
  Pd  Pd3_3  1  0.31420365  0.93579635  0.50000000  1
  Pd  Pd3_4  1  0.81420365  0.43579635  0.00000000  1
  Pd  Pd3_5  1  0.81420365  0.43579635  0.50000000  1
  Pd  Pd3_6  1  0.81420365  0.93579635  0.00000000  1
  Pd  Pd3_7  1  0.81420365  0.93579635  0.50000000  1
loop_
_geom_bond_atom_site_label_1
_geom_bond_atom_site_label_2
_geom_bond_distance
_geom_bond_site_symmetry_2
In0_0 Pd3_6 3.018980 1_445
In0_0 Pd2_2 3.018980 1_545
In0_0 Pd0_0 3.018980 1_555
In0_0 Pd1_4 3.018980 1_455
In0_0 Tm1_6 3.359444 1_445
In0_0 Tm1_7 3.359444 1_444
In0_0 Tm0_2 3.359444 1_545
In0_0 Tm0_3 3.359444 1_544
In0_0 Tm2_1 3.359444 1_554
In0_0 Tm2_0 3.359444 1_555
In0_0 Tm3_5 3.359444 1_454
In0_0 Tm3_4 3.359444 1_455
In0_0 In0_1 3.575425 1_555
In0_0 In0_1 3.575425 1_554
In0_1 Pd3_7 3.018980 1_445
In0_1 Pd2_3 3.018980 1_545
In0_1 Pd0_1 3.018980 1_555
In0_1 Pd1_5 3.018980 1_455
In0_1 Tm1_6 3.359444 1_445
In0_1 Tm0_2 3.359444 1_545
In0_1 Tm1_7 3.359444 1_445
In0_1 Tm0_3 3.359444 1_545
In0_1 Tm3_5 3.359444 1_455
In0_1 Tm2_0 3.359444 1_555
In0_1 Tm3_4 3.359444 1_455
In0_1 Tm2_1 3.359444 1_555
In0_2 Pd2_0 3.018980 1_555
In0_2 Pd1_6 3.018980 1_455
In0_2 Pd3_4 3.018980 1_455
In0_2 Pd0_2 3.018980 1_555
In0_2 Tm1_5 3.359444 1_454
In0_2 Tm1_4 3.359444 1_455
In0_2 Tm0_0 3.359444 1_555
In0_2 Tm0_1 3.359444 1_554
In0_2 Tm2_3 3.359444 1_554
In0_2 Tm3_6 3.359444 1_455
In0_2 Tm3_7 3.359444 1_454
In0_2 Tm2_2 3.359444 1_555
In0_2 In0_3 3.575425 1_555
In0_2 In0_3 3.575425 1_554
In0_3 Pd1_7 3.018980 1_455
In0_3 Pd2_1 3.018980 1_555
In0_3 Pd3_5 3.018980 1_455
In0_3 Pd0_3 3.018980 1_555
In0_3 Tm0_1 3.359444 1_555
In0_3 Tm1_4 3.359444 1_455
In0_3 Tm0_0 3.359444 1_555
In0_3 Tm1_5 3.359444 1_455
In0_3 Tm3_6 3.359444 1_455
In0_3 Tm2_2 3.359444 1_555
In0_3 Tm2_3 3.359444 1_555
In0_3 Tm3_7 3.359444 1_455
In0_4 Pd3_2 3.018980 1_545
In0_4 Pd0_4 3.018980 1_555
In0_4 Pd2_6 3.018980 1_545
In0_4 Pd1_0 3.018980 1_555
In0_4 Tm0_6 3.359444 1_545
In0_4 Tm1_2 3.359444 1_545
In0_4 Tm0_7 3.359444 1_544
In0_4 Tm1_3 3.359444 1_544
In0_4 Tm2_5 3.359444 1_554
In0_4 Tm3_0 3.359444 1_555
In0_4 Tm2_4 3.359444 1_555
In0_4 Tm3_1 3.359444 1_554
In0_4 In0_5 3.575425 1_554
In0_4 In0_5 3.575425 1_555
In0_5 Pd2_7 3.018980 1_545
In0_5 Pd3_3 3.018980 1_545
In0_5 Pd0_5 3.018980 1_555
In0_5 Pd1_1 3.018980 1_555
In0_5 Tm0_6 3.359444 1_545
In0_5 Tm0_7 3.359444 1_545
In0_5 Tm1_2 3.359444 1_545
In0_5 Tm1_3 3.359444 1_545
In0_5 Tm2_5 3.359444 1_555
In0_5 Tm3_0 3.359444 1_555
In0_5 Tm3_1 3.359444 1_555
In0_5 Tm2_4 3.359444 1_555
In0_6 Pd2_4 3.018980 1_555
In0_6 Pd1_2 3.018980 1_555
In0_6 Pd0_6 3.018980 1_555
In0_6 Pd3_0 3.018980 1_555
In0_6 Tm0_5 3.359444 1_554
In0_6 Tm1_1 3.359444 1_554
In0_6 Tm0_4 3.359444 1_555
In0_6 Tm1_0 3.359444 1_555
In0_6 Tm3_2 3.359444 1_555
In0_6 Tm2_7 3.359444 1_554
In0_6 Tm2_6 3.359444 1_555
In0_6 Tm3_3 3.359444 1_554
In0_6 In0_7 3.575425 1_555
In0_6 In0_7 3.575425 1_554
In0_7 Pd0_7 3.018980 1_555
In0_7 Pd1_3 3.018980 1_555
In0_7 Pd2_5 3.018980 1_555
In0_7 Pd3_1 3.018980 1_555
In0_7 Tm0_5 3.359444 1_555
In0_7 Tm0_4 3.359444 1_555
In0_7 Tm1_1 3.359444 1_555
In0_7 Tm1_0 3.359444 1_555
In0_7 Tm3_2 3.359444 1_555
In0_7 Tm2_6 3.359444 1_555
In0_7 Tm2_7 3.359444 1_555
In0_7 Tm3_3 3.359444 1_555
In1_0 Pd0_0 3.018980 1_555
In1_0 Pd1_0 3.018980 1_555
In1_0 Pd3_0 3.018980 1_555
In1_0 Pd2_0 3.018980 1_555
In1_0 Tm2_1 3.359444 1_554
In1_0 Tm2_0 3.359444 1_555
In1_0 Tm3_0 3.359444 1_555
In1_0 Tm3_1 3.359444 1_554
In1_0 Tm0_1 3.359444 1_554
In1_0 Tm1_1 3.359444 1_554
In1_0 Tm0_0 3.359444 1_555
In1_0 Tm1_0 3.359444 1_555
In1_0 In1_1 3.575425 1_554
In1_0 In1_1 3.575425 1_555
In1_1 Pd0_1 3.018980 1_555
In1_1 Pd1_1 3.018980 1_555
In1_1 Pd3_1 3.018980 1_555
In1_1 Pd2_1 3.018980 1_555
In1_1 Tm2_0 3.359444 1_555
In1_1 Tm2_1 3.359444 1_555
In1_1 Tm3_0 3.359444 1_555
In1_1 Tm3_1 3.359444 1_555
In1_1 Tm0_0 3.359444 1_555
In1_1 Tm0_1 3.359444 1_555
In1_1 Tm1_1 3.359444 1_555
In1_1 Tm1_0 3.359444 1_555
In1_2 Pd2_2 3.018980 1_555
In1_2 Pd1_2 3.018980 1_555
In1_2 Pd3_2 3.018980 1_555
In1_2 Pd0_2 3.018980 1_555
In1_2 Tm3_2 3.359444 1_555
In1_2 Tm2_3 3.359444 1_554
In1_2 Tm2_2 3.359444 1_555
In1_2 Tm3_3 3.359444 1_554
In1_2 Tm1_3 3.359444 1_554
In1_2 Tm1_2 3.359444 1_555
In1_2 Tm0_2 3.359444 1_555
In1_2 Tm0_3 3.359444 1_554
In1_2 In1_3 3.575425 1_554
In1_2 In1_3 3.575425 1_555
In1_3 Pd2_3 3.018980 1_555
In1_3 Pd1_3 3.018980 1_555
In1_3 Pd3_3 3.018980 1_555
In1_3 Pd0_3 3.018980 1_555
In1_3 Tm3_2 3.359444 1_555
In1_3 Tm2_2 3.359444 1_555
In1_3 Tm3_3 3.359444 1_555
In1_3 Tm2_3 3.359444 1_555
In1_3 Tm1_3 3.359444 1_555
In1_3 Tm1_2 3.359444 1_555
In1_3 Tm0_2 3.359444 1_555
In1_3 Tm0_3 3.359444 1_555
In1_4 Pd3_4 3.018980 1_555
In1_4 Pd0_4 3.018980 1_555
In1_4 Pd1_4 3.018980 1_555
In1_4 Pd2_4 3.018980 1_555
In1_4 Tm3_5 3.359444 1_554
In1_4 Tm3_4 3.359444 1_555
In1_4 Tm2_5 3.359444 1_554
In1_4 Tm2_4 3.359444 1_555
In1_4 Tm0_5 3.359444 1_554
In1_4 Tm0_4 3.359444 1_555
In1_4 Tm1_5 3.359444 1_554
In1_4 Tm1_4 3.359444 1_555
In1_4 In1_5 3.575425 1_555
In1_4 In1_5 3.575425 1_554
In1_5 Pd3_5 3.018980 1_555
In1_5 Pd0_5 3.018980 1_555
In1_5 Pd1_5 3.018980 1_555
In1_5 Pd2_5 3.018980 1_555
In1_5 Tm3_4 3.359444 1_555
In1_5 Tm2_5 3.359444 1_555
In1_5 Tm3_5 3.359444 1_555
In1_5 Tm2_4 3.359444 1_555
In1_5 Tm0_5 3.359444 1_555
In1_5 Tm0_4 3.359444 1_555
In1_5 Tm1_5 3.359444 1_555
In1_5 Tm1_4 3.359444 1_555
In1_6 Pd3_6 3.018980 1_555
In1_6 Pd0_6 3.018980 1_555
In1_6 Pd2_6 3.018980 1_555
In1_6 Pd1_6 3.018980 1_555
In1_6 Tm2_7 3.359444 1_554
In1_6 Tm3_6 3.359444 1_555
In1_6 Tm2_6 3.359444 1_555
In1_6 Tm3_7 3.359444 1_554
In1_6 Tm0_7 3.359444 1_554
In1_6 Tm0_6 3.359444 1_555
In1_6 Tm1_6 3.359444 1_555
In1_6 Tm1_7 3.359444 1_554
In1_6 In1_7 3.575425 1_554
In1_6 In1_7 3.575425 1_555
In1_7 Pd3_7 3.018980 1_555
In1_7 Pd0_7 3.018980 1_555
In1_7 Pd2_7 3.018980 1_555
In1_7 Pd1_7 3.018980 1_555
In1_7 Tm3_6 3.359444 1_555
In1_7 Tm2_6 3.359444 1_555
In1_7 Tm2_7 3.359444 1_555
In1_7 Tm3_7 3.359444 1_555
In1_7 Tm1_7 3.359444 1_555
In1_7 Tm0_6 3.359444 1_555
In1_7 Tm1_6 3.359444 1_555
In1_7 Tm0_7 3.359444 1_555
Pd0_0 Pd3_2 2.788900 1_545
Pd0_0 Tm2_1 2.810434 1_554
Pd0_0 Tm2_0 2.810434 1_555
Pd0_0 Tm0_3 2.936888 1_544
Pd0_0 Tm0_2 2.936888 1_545
Pd0_0 Tm3_0 2.936888 1_555
Pd0_0 Tm3_1 2.936888 1_554
Pd0_1 Pd3_3 2.788900 1_545
Pd0_1 Tm2_1 2.810434 1_555
Pd0_1 Tm2_0 2.810434 1_555
Pd0_1 Tm0_3 2.936888 1_545
Pd0_1 Tm0_2 2.936888 1_545
Pd0_1 Tm3_0 2.936888 1_555
Pd0_1 Tm3_1 2.936888 1_555
Pd0_2 Pd3_0 2.788900 1_555
Pd0_2 Tm2_3 2.810434 1_554
Pd0_2 Tm2_2 2.810434 1_555
Pd0_2 Tm0_0 2.936888 1_555
Pd0_2 Tm0_1 2.936888 1_554
Pd0_2 Tm3_2 2.936888 1_555
Pd0_2 Tm3_3 2.936888 1_554
Pd0_3 Pd3_1 2.788900 1_555
Pd0_3 Tm2_3 2.810434 1_555
Pd0_3 Tm2_2 2.810434 1_555
Pd0_3 Tm0_1 2.936888 1_555
Pd0_3 Tm0_0 2.936888 1_555
Pd0_3 Tm3_2 2.936888 1_555
Pd0_3 Tm3_3 2.936888 1_555
Pd0_4 Pd3_6 2.788900 1_545
Pd0_4 Tm2_4 2.810434 1_555
Pd0_4 Tm2_5 2.810434 1_554
Pd0_4 Tm0_6 2.936888 1_545
Pd0_4 Tm0_7 2.936888 1_544
Pd0_4 Tm3_4 2.936888 1_555
Pd0_4 Tm3_5 2.936888 1_554
Pd0_5 Pd3_7 2.788900 1_545
Pd0_5 Tm2_4 2.810434 1_555
Pd0_5 Tm2_5 2.810434 1_555
Pd0_5 Tm0_6 2.936888 1_545
Pd0_5 Tm0_7 2.936888 1_545
Pd0_5 Tm3_4 2.936888 1_555
Pd0_5 Tm3_5 2.936888 1_555
Pd0_6 Pd3_4 2.788900 1_555
Pd0_6 Tm2_6 2.810434 1_555
Pd0_6 Tm2_7 2.810434 1_554
Pd0_6 Tm0_5 2.936888 1_554
Pd0_6 Tm0_4 2.936888 1_555
Pd0_6 Tm3_6 2.936888 1_555
Pd0_6 Tm3_7 2.936888 1_554
Pd0_7 Pd3_5 2.788900 1_555
Pd0_7 Tm2_7 2.810434 1_555
Pd0_7 Tm2_6 2.810434 1_555
Pd0_7 Tm0_5 2.936888 1_555
Pd0_7 Tm0_4 2.936888 1_555
Pd0_7 Tm3_6 2.936888 1_555
Pd0_7 Tm3_7 2.936888 1_555
Pd1_0 Pd2_4 2.788900 1_555
Pd1_0 Tm3_1 2.810434 1_554
Pd1_0 Tm3_0 2.810434 1_555
Pd1_0 Tm1_0 2.936888 1_555
Pd1_0 Tm1_1 2.936888 1_554
Pd1_0 Tm2_5 2.936888 1_554
Pd1_0 Tm2_4 2.936888 1_555
Pd1_1 Pd2_5 2.788900 1_555
Pd1_1 Tm3_0 2.810434 1_555
Pd1_1 Tm3_1 2.810434 1_555
Pd1_1 Tm2_4 2.936888 1_555
Pd1_1 Tm2_5 2.936888 1_555
Pd1_1 Tm1_1 2.936888 1_555
Pd1_1 Tm1_0 2.936888 1_555
Pd1_2 Pd2_6 2.788900 1_555
Pd1_2 Tm3_2 2.810434 1_555
Pd1_2 Tm3_3 2.810434 1_554
Pd1_2 Tm2_7 2.936888 1_554
Pd1_2 Tm2_6 2.936888 1_555
Pd1_2 Tm1_2 2.936888 1_555
Pd1_2 Tm1_3 2.936888 1_554
Pd1_3 Pd2_7 2.788900 1_555
Pd1_3 Tm3_2 2.810434 1_555
Pd1_3 Tm3_3 2.810434 1_555
Pd1_3 Tm2_6 2.936888 1_555
Pd1_3 Tm2_7 2.936888 1_555
Pd1_3 Tm1_2 2.936888 1_555
Pd1_3 Tm1_3 2.936888 1_555
Pd1_4 Pd2_0 2.788900 1_655
Pd1_4 Tm3_5 2.810434 1_554
Pd1_4 Tm3_4 2.810434 1_555
Pd1_4 Tm1_5 2.936888 1_554
Pd1_4 Tm1_4 2.936888 1_555
Pd1_4 Tm2_0 2.936888 1_655
Pd1_4 Tm2_1 2.936888 1_654
Pd1_5 Pd2_1 2.788900 1_655
Pd1_5 Tm3_5 2.810434 1_555
Pd1_5 Tm3_4 2.810434 1_555
Pd1_5 Tm1_5 2.936888 1_555
Pd1_5 Tm1_4 2.936888 1_555
Pd1_5 Tm2_0 2.936888 1_655
Pd1_5 Tm2_1 2.936888 1_655
Pd1_6 Pd2_2 2.788900 1_655
Pd1_6 Tm3_7 2.810434 1_554
Pd1_6 Tm3_6 2.810434 1_555
Pd1_6 Tm2_2 2.936888 1_655
Pd1_6 Tm1_6 2.936888 1_555
Pd1_6 Tm1_7 2.936888 1_554
Pd1_6 Tm2_3 2.936888 1_654
Pd1_7 Pd2_3 2.788900 1_655
Pd1_7 Tm3_7 2.810434 1_555
Pd1_7 Tm3_6 2.810434 1_555
Pd1_7 Tm2_3 2.936888 1_655
Pd1_7 Tm1_7 2.936888 1_555
Pd1_7 Tm2_2 2.936888 1_655
Pd1_7 Tm1_6 2.936888 1_555
Pd2_0 Tm0_0 2.810434 1_555
Pd2_0 Tm0_1 2.810434 1_554
Pd2_0 Tm1_5 2.936888 1_454
Pd2_0 Tm1_4 2.936888 1_455
Pd2_0 Tm2_0 2.936888 1_555
Pd2_0 Tm2_1 2.936888 1_554
Pd2_1 Tm0_1 2.810434 1_555
Pd2_1 Tm0_0 2.810434 1_555
Pd2_1 Tm1_4 2.936888 1_455
Pd2_1 Tm1_5 2.936888 1_455
Pd2_1 Tm2_0 2.936888 1_555
Pd2_1 Tm2_1 2.936888 1_555
Pd2_2 Tm0_2 2.810434 1_555
Pd2_2 Tm0_3 2.810434 1_554
Pd2_2 Tm1_7 2.936888 1_454
Pd2_2 Tm1_6 2.936888 1_455
Pd2_2 Tm2_2 2.936888 1_555
Pd2_2 Tm2_3 2.936888 1_554
Pd2_3 Tm0_3 2.810434 1_555
Pd2_3 Tm0_2 2.810434 1_555
Pd2_3 Tm1_7 2.936888 1_455
Pd2_3 Tm1_6 2.936888 1_455
Pd2_3 Tm2_2 2.936888 1_555
Pd2_3 Tm2_3 2.936888 1_555
Pd2_4 Tm0_5 2.810434 1_554
Pd2_4 Tm0_4 2.810434 1_555
Pd2_4 Tm1_1 2.936888 1_554
Pd2_4 Tm1_0 2.936888 1_555
Pd2_4 Tm2_5 2.936888 1_554
Pd2_4 Tm2_4 2.936888 1_555
Pd2_5 Tm0_5 2.810434 1_555
Pd2_5 Tm0_4 2.810434 1_555
Pd2_5 Tm1_1 2.936888 1_555
Pd2_5 Tm1_0 2.936888 1_555
Pd2_5 Tm2_5 2.936888 1_555
Pd2_5 Tm2_4 2.936888 1_555
Pd2_6 Tm0_7 2.810434 1_554
Pd2_6 Tm0_6 2.810434 1_555
Pd2_6 Tm1_2 2.936888 1_555
Pd2_6 Tm1_3 2.936888 1_554
Pd2_6 Tm2_6 2.936888 1_555
Pd2_6 Tm2_7 2.936888 1_554
Pd2_7 Tm0_7 2.810434 1_555
Pd2_7 Tm0_6 2.810434 1_555
Pd2_7 Tm1_2 2.936888 1_555
Pd2_7 Tm1_3 2.936888 1_555
Pd2_7 Tm2_6 2.936888 1_555
Pd2_7 Tm2_7 2.936888 1_555
Pd3_0 Tm1_1 2.810434 1_554
Pd3_0 Tm1_0 2.810434 1_555
Pd3_0 Tm3_2 2.936888 1_555
Pd3_0 Tm3_3 2.936888 1_554
Pd3_0 Tm0_0 2.936888 1_555
Pd3_0 Tm0_1 2.936888 1_554
Pd3_1 Tm1_1 2.810434 1_555
Pd3_1 Tm1_0 2.810434 1_555
Pd3_1 Tm3_2 2.936888 1_555
Pd3_1 Tm3_3 2.936888 1_555
Pd3_1 Tm0_1 2.936888 1_555
Pd3_1 Tm0_0 2.936888 1_555
Pd3_2 Tm1_3 2.810434 1_554
Pd3_2 Tm1_2 2.810434 1_555
Pd3_2 Tm3_1 2.936888 1_564
Pd3_2 Tm3_0 2.936888 1_565
Pd3_2 Tm0_3 2.936888 1_554
Pd3_2 Tm0_2 2.936888 1_555
Pd3_3 Tm1_3 2.810434 1_555
Pd3_3 Tm1_2 2.810434 1_555
Pd3_3 Tm0_3 2.936888 1_555
Pd3_3 Tm3_0 2.936888 1_565
Pd3_3 Tm0_2 2.936888 1_555
Pd3_3 Tm3_1 2.936888 1_565
Pd3_4 Tm1_4 2.810434 1_555
Pd3_4 Tm1_5 2.810434 1_554
Pd3_4 Tm3_6 2.936888 1_555
Pd3_4 Tm3_7 2.936888 1_554
Pd3_4 Tm0_5 2.936888 1_554
Pd3_4 Tm0_4 2.936888 1_555
Pd3_5 Tm1_4 2.810434 1_555
Pd3_5 Tm1_5 2.810434 1_555
Pd3_5 Tm3_6 2.936888 1_555
Pd3_5 Tm3_7 2.936888 1_555
Pd3_5 Tm0_5 2.936888 1_555
Pd3_5 Tm0_4 2.936888 1_555
Pd3_6 Tm1_6 2.810434 1_555
Pd3_6 Tm1_7 2.810434 1_554
Pd3_6 Tm3_4 2.936888 1_565
Pd3_6 Tm0_7 2.936888 1_554
Pd3_6 Tm0_6 2.936888 1_555
Pd3_6 Tm3_5 2.936888 1_564
Pd3_7 Tm1_6 2.810434 1_555
Pd3_7 Tm1_7 2.810434 1_555
Pd3_7 Tm3_4 2.936888 1_565
Pd3_7 Tm0_6 2.936888 1_555
Pd3_7 Tm0_7 2.936888 1_555
Pd3_7 Tm3_5 2.936888 1_565
