# generated using pymatgen
data_MgZn2(MoO4)2
_symmetry_space_group_name_H-M   'P 1'
_cell_length_a   4.95101089
_cell_length_b   4.89360914
_cell_length_c   7.05923247
_cell_angle_alpha   90.00000000
_cell_angle_beta   90.00000000
_cell_angle_gamma   102.17293698
_symmetry_Int_Tables_number   1
_chemical_formula_structural   MgZn2(MoO4)2
_chemical_formula_sum   'Mg1 Zn2 Mo2 O8'
_cell_volume   167.18770718
_cell_formula_units_Z   1
loop_
 _symmetry_equiv_pos_site_id
 _symmetry_equiv_pos_as_xyz
  1  'x, y, z'
loop_
 _atom_site_type_symbol
 _atom_site_label
 _atom_site_symmetry_multiplicity
 _atom_site_fract_x
 _atom_site_fract_y
 _atom_site_fract_z
 _atom_site_occupancy
  Mg  Mg0  1  0.50000000  0.75000000  0.92672323  1
  Zn  Zn0  1  0.50000000  0.75000000  0.52089885  1
  Zn  Zn1  1  0.50000000  0.25000000  0.23696549  1
  Mo  Mo0  1  0.00000000  0.25000000  0.87325418  1
  Mo  Mo1  1  0.00000000  0.75000000  0.19475621  1
  O  O0  1  0.74821505  0.01605141  0.72275069  1
  O  O1  1  0.25178495  0.48394859  0.72275069  1
  O  O2  1  0.26549420  0.95338607  0.38863953  1
  O  O3  1  0.73450580  0.54661393  0.38863953  1
  O  O4  1  0.21939111  0.99768677  0.95588360  1
  O  O5  1  0.78060889  0.50231323  0.95588360  1
  O  O6  1  0.76015523  0.01538361  0.10851070  1
  O  O7  1  0.23984477  0.48461639  0.10851070  1
loop_
_geom_bond_atom_site_label_1
_geom_bond_atom_site_label_2
_geom_bond_distance
_geom_bond_site_symmetry_2
Mg0 O5 2.037604 1_555
Mg0 O4 2.037604 1_555
Mg0 O6 2.070500 1_566
Mg0 O7 2.070500 1_556
Mg0 O0 2.145655 1_565
Mg0 O1 2.145655 1_555
Mo0 O1 1.841624 1_555
Mo0 O0 1.841624 1_455
Mo0 O4 1.900061 1_545
Mo0 O5 1.900061 1_455
Mo0 O6 2.216153 1_456
Mo0 O7 2.216153 1_556
Mo1 O2 2.009960 1_555
Mo1 O3 2.009960 1_455
Mo1 O7 2.029214 1_555
Mo1 O6 2.029214 1_465
Mo1 O5 2.221986 1_454
Mo1 O4 2.221986 1_554
O0 Zn0 2.135638 1_545
O1 Zn0 2.135638 1_555
O2 Zn0 1.922930 1_555
O2 Zn1 1.972457 1_565
O3 Zn0 1.922930 1_555
O3 Zn1 1.972457 1_555
O6 Zn1 2.103125 1_555
O7 Zn1 2.103125 1_555
