# generated using pymatgen
data_Sr3V2O7
_symmetry_space_group_name_H-M   'P 1'
_cell_length_a   3.84848944
_cell_length_b   3.84848986
_cell_length_c   10.45127595
_cell_angle_alpha   100.60663317
_cell_angle_beta   100.60662503
_cell_angle_gamma   90.00432375
_symmetry_Int_Tables_number   1
_chemical_formula_structural   Sr3V2O7
_chemical_formula_sum   'Sr3 V2 O7'
_cell_volume   149.45575987
_cell_formula_units_Z   1
loop_
 _symmetry_equiv_pos_site_id
 _symmetry_equiv_pos_as_xyz
  1  'x, y, z'
loop_
 _atom_site_type_symbol
 _atom_site_label
 _atom_site_symmetry_multiplicity
 _atom_site_fract_x
 _atom_site_fract_y
 _atom_site_fract_z
 _atom_site_occupancy
  Sr  Sr0  1  0.68401941  0.68401979  0.36812530  1
  Sr  Sr1  1  0.31597340  0.31597351  0.63186185  1
  Sr  Sr2  1  0.50000583  0.50000636  0.00000648  1
  V  V0  1  0.90446656  0.90446557  0.80886795  1
  V  V1  1  0.09553551  0.09553489  0.19113309  1
  O  O0  1  0.90501644  0.40499577  0.80989856  1
  O  O1  1  0.40499439  0.90501697  0.80989858  1
  O  O2  1  0.09498515  0.59500865  0.19010699  1
  O  O3  1  0.59500704  0.09498595  0.19010700  1
  O  O4  1  0.80770030  0.80770081  0.61539781  1
  O  O5  1  0.00000010  0.00000096  0.00001013  1
  O  O6  1  0.19229187  0.19229276  0.38458525  1
loop_
_geom_bond_atom_site_label_1
_geom_bond_atom_site_label_2
_geom_bond_distance
_geom_bond_site_symmetry_2
O0 V0 1.924215 1_555
O0 V0 1.924331 1_545
O0 Sr1 2.632435 1_655
O0 Sr1 2.632674 1_555
O0 Sr2 2.717018 1_656
O0 Sr2 2.717266 1_556
O1 V0 1.924224 1_555
O1 V0 1.924321 1_455
O1 Sr1 2.632434 1_565
O1 Sr1 2.632675 1_555
O1 Sr2 2.717017 1_566
O1 Sr2 2.717266 1_556
O2 V1 1.924222 1_555
O2 V1 1.924324 1_565
O2 Sr0 2.632307 1_455
O2 Sr0 2.632549 1_555
O2 Sr2 2.716947 1_455
O2 Sr2 2.717230 1_555
O3 V1 1.924213 1_555
O3 V1 1.924332 1_655
O3 Sr0 2.632308 1_545
O3 Sr0 2.632547 1_555
O3 Sr2 2.716948 1_545
O3 Sr2 2.717230 1_555
O4 V0 1.952297 1_555
O4 Sr0 2.495214 1_555
O4 Sr1 2.726026 1_555
O4 Sr1 2.726461 1_565
O4 Sr1 2.726463 1_655
O4 Sr1 2.726488 1_665
O5 V1 1.928612 1_555
O5 V0 1.928806 1_444
O5 Sr2 2.721150 1_445
O5 Sr2 2.721231 1_555
O5 Sr2 2.721395 1_455
O5 Sr2 2.721397 1_545
O6 V1 1.952116 1_555
O6 Sr1 2.495256 1_555
O6 Sr0 2.726014 1_555
O6 Sr0 2.726458 1_455
O6 Sr0 2.726461 1_545
O6 Sr0 2.726496 1_445
