# generated using pymatgen
data_Na8Sc2Si5Ge2SO24
_symmetry_space_group_name_H-M   'P 1'
_cell_length_a   9.03201192
_cell_length_b   9.01665761
_cell_length_c   22.07004648
_cell_angle_alpha   90.52606138
_cell_angle_beta   88.96808924
_cell_angle_gamma   120.33162951
_symmetry_Int_Tables_number   1
_chemical_formula_structural   Na8Sc2Si5Ge2SO24
_chemical_formula_sum   'Na24 Sc6 Si15 Ge6 S3 O72'
_cell_volume   1551.07396029
_cell_formula_units_Z   3
loop_
 _symmetry_equiv_pos_site_id
 _symmetry_equiv_pos_as_xyz
  1  'x, y, z'
loop_
 _atom_site_type_symbol
 _atom_site_label
 _atom_site_symmetry_multiplicity
 _atom_site_fract_x
 _atom_site_fract_y
 _atom_site_fract_z
 _atom_site_occupancy
  Na  Na0  1  0.64392120  0.00392900  0.25160246  1
  Na  Na1  1  0.35537010  0.36005549  0.24876147  1
  Na  Na2  1  0.99957114  0.64075617  0.24986746  1
  Na  Na3  1  0.63558794  0.63518036  0.74749211  1
  Na  Na4  1  0.99509626  0.36143968  0.74911690  1
  Na  Na5  1  0.36783991  0.00654278  0.74916905  1
  Na  Na6  1  0.29676462  0.33691685  0.58656010  1
  Na  Na7  1  0.04077523  0.70409736  0.58366168  1
  Na  Na8  1  0.66470724  0.95742407  0.58382860  1
  Na  Na9  1  0.28761890  0.96408219  0.08093326  1
  Na  Na10  1  0.66925309  0.69305192  0.08715911  1
  Na  Na11  1  0.04467860  0.33713827  0.08707583  1
  Na  Na12  1  0.97406055  0.66732201  0.91607577  1
  Na  Na13  1  0.70444620  0.04313747  0.90908438  1
  Na  Na14  1  0.32330853  0.28534054  0.91804340  1
  Na  Na15  1  0.96079519  0.29612587  0.41324750  1
  Na  Na16  1  0.32957599  0.02592606  0.41683272  1
  Na  Na17  1  0.70808037  0.67504681  0.41916619  1
  Na  Na18  1  0.99216618  0.99107228  0.50157962  1
  Na  Na19  1  0.01788183  0.00660251  0.99988463  1
  Na  Na20  1  0.66773128  0.32642560  0.83027595  1
  Na  Na21  1  0.67025458  0.33152303  0.33346697  1
  Na  Na22  1  0.32672934  0.65720206  0.16794687  1
  Na  Na23  1  0.33509816  0.66649881  0.66493240  1
  Sc  Sc0  1  0.99449158  0.99540624  0.34781753  1
  Sc  Sc1  1  0.00743762  0.00528663  0.84733823  1
  Sc  Sc2  1  0.00678434  0.00024987  0.15309962  1
  Sc  Sc3  1  0.66562046  0.33255625  0.97933114  1
  Sc  Sc4  1  0.31554136  0.65503500  0.02031447  1
  Sc  Sc5  1  0.33570975  0.67622286  0.52334670  1
  Si  Si0  1  0.30440358  0.00576972  0.24945650  1
  Si  Si1  1  0.69435987  0.70184561  0.25117974  1
  Si  Si2  1  0.99951797  0.30431285  0.25035761  1
  Si  Si3  1  0.29658027  0.29687151  0.74764014  1
  Si  Si4  1  0.99357627  0.70577137  0.74724333  1
  Si  Si5  1  0.70521160  0.99970683  0.74897497  1
  Si  Si6  1  0.95236930  0.32484800  0.58696852  1
  Si  Si7  1  0.38173882  0.05651654  0.58545537  1
  Si  Si8  1  0.67277118  0.61812128  0.58493058  1
  Si  Si9  1  0.95264054  0.62367312  0.08464289  1
  Si  Si10  1  0.37793218  0.33378210  0.08513672  1
  Si  Si11  1  0.04388123  0.37459549  0.91366946  1
  Si  Si12  1  0.33214233  0.95376778  0.91489693  1
  Si  Si13  1  0.62368486  0.96212364  0.41749397  1
  Si  Si14  1  0.03825750  0.66315673  0.41870930  1
  Ge  Ge0  1  0.99948129  0.99989754  0.64784580  1
  Ge  Ge1  1  0.66678181  0.33422926  0.68562067  1
  Ge  Ge2  1  0.66882815  0.35161721  0.18971894  1
  Ge  Ge3  1  0.68436844  0.32930231  0.48740751  1
  Ge  Ge4  1  0.32751395  0.68320042  0.31187035  1
  Ge  Ge5  1  0.31556404  0.67141247  0.80673483  1
  S  S0  1  0.66815131  0.04277294  0.08405518  1
  S  S1  1  0.62228286  0.66725577  0.91557604  1
  S  S2  1  0.33548234  0.37692666  0.41635329  1
  O  O0  1  0.22826705  0.05114194  0.30918087  1
  O  O1  1  0.81997236  0.77950638  0.30870074  1
  O  O2  1  0.95764285  0.18127215  0.30903843  1
  O  O3  1  0.22373867  0.17945862  0.80785755  1
  O  O4  1  0.95321143  0.77772996  0.80861279  1
  O  O5  1  0.82101192  0.03986369  0.80856417  1
  O  O6  1  0.79478262  0.95672936  0.68998386  1
  O  O7  1  0.16389131  0.20748632  0.68999616  1
  O  O8  1  0.03878017  0.83855991  0.68930810  1
  O  O9  1  0.77003162  0.82186142  0.19143263  1
  O  O10  1  0.04251540  0.22499983  0.19081799  1
  O  O11  1  0.18016416  0.95740814  0.19164103  1
  O  O12  1  0.86222750  0.36591458  0.64410338  1
  O  O13  1  0.50558963  0.14102590  0.64381593  1
  O  O14  1  0.63656660  0.49597626  0.64387740  1
  O  O15  1  0.85984548  0.49430976  0.14422127  1
  O  O16  1  0.63852444  0.12093919  0.13886176  1
  O  O17  1  0.50252159  0.36165001  0.14431620  1
  O  O18  1  0.45851427  0.29759079  0.02414576  1
  O  O19  1  0.84159564  0.53710350  0.02429282  1
  O  O20  1  0.69391344  0.14578587  0.02892507  1
  O  O21  1  0.47029366  0.17895606  0.52374470  1
  O  O22  1  0.70894321  0.53029192  0.52298608  1
  O  O23  1  0.83479572  0.28441341  0.52478213  1
  O  O24  1  0.54413293  0.69078149  0.97145571  1
  O  O25  1  0.15903602  0.45342180  0.97422945  1
  O  O26  1  0.30965087  0.84376904  0.97594230  1
  O  O27  1  0.54335497  0.84008436  0.47592652  1
  O  O28  1  0.30923418  0.45433988  0.47134845  1
  O  O29  1  0.15507196  0.69286982  0.47685122  1
  O  O30  1  0.12790042  0.62686498  0.35714167  1
  O  O31  1  0.49677677  0.87178052  0.35734144  1
  O  O32  1  0.36114616  0.48300430  0.36137576  1
  O  O33  1  0.14096340  0.50436491  0.85418349  1
  O  O34  1  0.36662217  0.86063595  0.85409728  1
  O  O35  1  0.51772123  0.64023568  0.86135671  1
  O  O36  1  0.02002650  0.83332030  0.41233655  1
  O  O37  1  0.81667160  0.99087938  0.41137882  1
  O  O38  1  0.18019592  0.20313573  0.41244337  1
  O  O39  1  0.01697438  0.18169837  0.91145744  1
  O  O40  1  0.15866491  0.96728310  0.91210217  1
  O  O41  1  0.79541106  0.82179088  0.91195483  1
  O  O42  1  0.96660299  0.14884544  0.59160137  1
  O  O43  1  0.18872001  0.03733289  0.59012295  1
  O  O44  1  0.84846280  0.81135288  0.58972095  1
  O  O45  1  0.96876324  0.81205297  0.08851858  1
  O  O46  1  0.82351143  0.02752100  0.08775973  1
  O  O47  1  0.18440377  0.16627417  0.08870986  1
  O  O48  1  0.68264288  0.16985504  0.74127977  1
  O  O49  1  0.48865918  0.31711254  0.74064780  1
  O  O50  1  0.82482206  0.51112506  0.74081193  1
  O  O51  1  0.67685164  0.51001299  0.24535066  1
  O  O52  1  0.82518724  0.32090490  0.24239382  1
  O  O53  1  0.49916255  0.17375145  0.23928647  1
  O  O54  1  0.63998187  0.51153739  0.91925644  1
  O  O55  1  0.85735679  0.36294111  0.91626585  1
  O  O56  1  0.50454079  0.14505609  0.91529052  1
  O  O57  1  0.63415326  0.15395038  0.42403013  1
  O  O58  1  0.49148843  0.36066469  0.41926066  1
  O  O59  1  0.84299498  0.48347661  0.42353076  1
  O  O60  1  0.37050992  0.51174319  0.08378603  1
  O  O61  1  0.14402997  0.64411873  0.08503111  1
  O  O62  1  0.51483718  0.86868518  0.07922810  1
  O  O63  1  0.35914244  0.86522622  0.58194371  1
  O  O64  1  0.50337314  0.63732002  0.58044919  1
  O  O65  1  0.14234461  0.49280193  0.58126470  1
  O  O66  1  0.32071660  0.83129911  0.25599245  1
  O  O67  1  0.50127852  0.67786986  0.26236461  1
  O  O68  1  0.17586673  0.49604238  0.25878267  1
  O  O69  1  0.31633424  0.49088959  0.75586998  1
  O  O70  1  0.17043497  0.68970927  0.75120077  1
  O  O71  1  0.51151033  0.82122024  0.75516773  1
loop_
_geom_bond_atom_site_label_1
_geom_bond_atom_site_label_2
_geom_bond_distance
_geom_bond_site_symmetry_2
Na0 O52 2.482515 1_555
Na0 O53 2.484052 1_555
Na0 O66 2.521336 1_545
Na0 O67 2.556528 1_545
Na0 O31 2.640446 1_545
Na0 O16 2.722334 1_555
Na0 O9 2.747710 1_545
Na0 O2 2.776432 1_555
Na1 O68 2.484112 1_555
Na1 O67 2.494565 1_555
Na1 O51 2.508703 1_555
Na1 O53 2.596069 1_555
Na1 O17 2.636503 1_555
Na1 O32 2.702698 1_555
Na1 O0 2.763648 1_555
Na1 O10 2.780112 1_555
Na2 O52 2.497622 1_555
Na2 O66 2.521908 1_655
Na2 O68 2.528087 1_655
Na2 O51 2.536436 1_555
Na2 O15 2.671899 1_555
Na2 O30 2.686136 1_655
Na2 O11 2.784233 1_655
Na2 O1 2.797586 1_555
Na3 O71 2.446446 1_555
Na3 O50 2.472450 1_555
Na3 O49 2.482759 1_555
Na3 O69 2.497520 1_555
Na3 O14 2.600507 1_555
Na3 O35 2.720496 1_555
Na3 O6 2.806349 1_555
Na3 O4 2.843398 1_555
Na4 O48 2.463017 1_555
Na4 O50 2.516250 1_555
Na4 O69 2.528790 1_655
Na4 O70 2.556719 1_655
Na4 O12 2.638962 1_555
Na4 O33 2.667168 1_655
Na4 O7 2.826005 1_655
Na4 O5 2.826978 1_555
Na5 O49 2.446171 1_555
Na5 O48 2.457878 1_555
Na5 O70 2.489401 1_545
Na5 O71 2.587251 1_545
Na5 O13 2.616952 1_555
Na5 O34 2.670976 1_545
Na5 O3 2.784648 1_555
Na5 O8 2.903575 1_545
Na6 O43 2.365149 1_555
Na6 O64 2.393674 1_555
Na6 O65 2.433803 1_555
Na6 O7 2.559148 1_555
Na6 O42 2.581581 1_455
Na6 O28 2.741862 1_555
Na6 O21 2.923543 1_555
Na6 O14 2.955887 1_555
Na7 O44 2.378249 1_455
Na7 O63 2.481592 1_555
Na7 O65 2.497146 1_555
Na7 O29 2.578060 1_555
Na7 O43 2.603415 1_565
Na7 O8 2.622088 1_555
Na7 O22 2.931544 1_455
Na7 O12 2.951057 1_455
Na8 O42 2.387782 1_565
Na8 O63 2.448650 1_555
Na8 O64 2.492296 1_555
Na8 O44 2.593234 1_555
Na8 O27 2.620747 1_555
Na8 O6 2.641229 1_555
Na8 O23 2.859155 1_565
Na8 O13 2.975396 1_565
Na9 O47 2.434599 1_565
Na9 O45 2.490090 1_455
Na9 O61 2.496983 1_555
Na9 O62 2.594711 1_555
Na9 O26 2.596327 1_554
Na9 O11 2.602632 1_555
Na9 O18 2.882286 1_565
Na10 O60 2.347004 1_555
Na10 O45 2.353902 1_555
Na10 O9 2.536167 1_555
Na10 O62 2.593898 1_555
Na10 O46 2.606233 1_565
Na10 O24 2.806759 1_554
Na10 O17 2.871220 1_555
Na10 O19 2.902128 1_555
Na11 O47 2.435949 1_555
Na11 O61 2.441501 1_555
Na11 O46 2.480207 1_455
Na11 O10 2.507174 1_555
Na11 O60 2.541543 1_555
Na11 O25 2.688936 1_554
Na12 O40 2.355254 1_655
Na12 O55 2.391978 1_555
Na12 O54 2.606924 1_555
Na12 O41 2.613274 1_555
Na12 O4 2.626844 1_555
Na12 O19 2.654056 1_556
Na12 O33 2.902303 1_655
Na12 O26 2.949452 1_655
Na13 O56 2.405802 1_555
Na13 O39 2.444135 1_655
Na13 O5 2.444800 1_555
Na13 O55 2.494920 1_555
Na13 O41 2.514484 1_545
Na13 O20 2.809990 1_556
Na13 O34 2.918234 1_545
Na14 O39 2.439302 1_555
Na14 O40 2.479058 1_545
Na14 O56 2.523747 1_555
Na14 O54 2.539892 1_555
Na14 O3 2.608232 1_555
Na14 O18 2.636091 1_556
Na14 O25 2.864654 1_555
Na15 O37 2.377522 1_545
Na15 O59 2.415947 1_555
Na15 O2 2.508316 1_555
Na15 O38 2.511333 1_655
Na15 O57 2.562092 1_555
Na15 O23 2.673593 1_555
Na15 O30 2.856401 1_655
Na16 O57 2.393845 1_555
Na16 O36 2.438324 1_545
Na16 O38 2.562763 1_555
Na16 O58 2.606336 1_555
Na16 O0 2.613833 1_555
Na16 O21 2.713617 1_555
Na16 O31 2.819798 1_545
Na16 O29 2.911080 1_545
Na17 O36 2.434174 1_655
Na17 O58 2.502288 1_555
Na17 O37 2.506611 1_555
Na17 O59 2.571180 1_555
Na17 O1 2.616147 1_555
Na17 O22 2.649444 1_555
Na17 O27 2.851666 1_555
Na18 O44 2.436659 1_555
Na18 O36 2.501611 1_655
Na18 O42 2.507528 1_565
Na18 O43 2.550764 1_665
Na18 O37 2.566375 1_555
Na18 O38 2.660694 1_665
Na19 O40 2.418655 1_545
Na19 O47 2.458714 1_556
Na19 O45 2.519180 1_446
Na19 O39 2.524192 1_555
Na19 O46 2.661567 1_456
Na19 O41 2.698062 1_445
Na20 O56 2.426824 1_555
Na20 O48 2.449619 1_555
Na20 O55 2.485849 1_555
Na20 O50 2.501611 1_555
Na20 O49 2.551637 1_555
Na20 O54 2.655146 1_555
Na21 O52 2.457211 1_555
Na21 O59 2.482956 1_555
Na21 O57 2.484514 1_555
Na21 O51 2.516364 1_555
Na21 O58 2.563302 1_555
Na21 O53 2.563827 1_555
Na22 O60 2.404000 1_555
Na22 O68 2.437728 1_555
Na22 O61 2.448226 1_555
Na22 O66 2.503865 1_555
Na22 O67 2.583965 1_555
Na22 O62 2.652010 1_555
Na23 O70 2.466932 1_555
Na23 O64 2.479623 1_555
Na23 O65 2.490444 1_555
Na23 O63 2.503088 1_555
Na23 O71 2.503848 1_555
Na23 O69 2.517739 1_555
Ge0 O8 1.907155 1_655
Ge0 O6 1.911146 1_555
Ge0 O7 1.945363 1_665
Ge0 O42 1.969627 1_565
Ge0 O43 2.001256 1_665
Ge0 O44 2.019202 1_555
Ge1 O13 1.860874 1_555
Ge1 O12 1.864014 1_555
Ge1 O14 1.867064 1_555
Ge1 O49 1.941457 1_555
Ge1 O50 1.947486 1_555
Ge1 O48 1.995080 1_555
Ge2 O15 1.832913 1_555
Ge2 O51 1.849042 1_555
Ge2 O17 1.860549 1_555
Ge2 O53 1.899131 1_555
Ge2 O52 1.970440 1_555
Ge2 O16 2.248137 1_555
Ge3 O23 1.814412 1_555
Ge3 O22 1.877226 1_555
Ge3 O21 1.880459 1_555
Ge3 O57 1.979897 1_555
Ge3 O59 1.980964 1_555
Ge3 O58 2.444716 1_555
Ge4 O66 1.850287 1_555
Ge4 O30 1.877834 1_555
Ge4 O31 1.906291 1_555
Ge4 O67 1.916425 1_555
Ge4 O68 1.945133 1_555
Ge4 O32 2.268566 1_555
Ge5 O34 1.845595 1_555
Ge5 O33 1.850033 1_555
Ge5 O70 1.878196 1_555
Ge5 O71 1.947601 1_555
Ge5 O69 1.971626 1_555
Ge5 O35 2.338813 1_555
O0 Si0 1.618421 1_555
O0 Sc0 2.075870 1_445
O1 Si1 1.619341 1_555
O1 Sc0 1.984557 1_555
O2 Si2 1.623591 1_555
O2 Sc0 2.061992 1_545
O3 Si3 1.615777 1_555
O3 Sc1 1.976678 1_555
O4 Si4 1.610389 1_555
O4 Sc1 2.036696 1_665
O5 Si5 1.616453 1_545
O5 Sc1 2.061962 1_655
O6 Si5 1.664071 1_555
O7 Si3 1.662791 1_555
O8 Si4 1.658530 1_455
O9 Si1 1.619769 1_555
O9 Sc2 2.088394 1_665
O10 Si2 1.622904 1_455
O10 Sc2 2.054738 1_555
O11 Si0 1.620068 1_565
O11 Sc2 1.997498 1_565
O12 Si6 1.627559 1_555
O13 Si7 1.632147 1_555
O14 Si8 1.630833 1_555
O15 Si9 1.671237 1_555
O16 S0 1.481422 1_555
O17 Si10 1.672312 1_555
O18 Si10 1.626238 1_555
O18 Sc3 1.979942 1_554
O19 Si9 1.620975 1_555
O19 Sc3 1.993720 1_554
O20 S0 1.479715 1_555
O20 Sc3 2.139603 1_554
O21 Si7 1.676302 1_555
O22 Si8 1.681739 1_555
O23 Si6 1.672279 1_555
O24 S1 1.476224 1_555
O24 Sc4 2.187113 1_556
O25 Si11 1.630742 1_555
O25 Sc4 1.939008 1_556
O26 Si12 1.628283 1_555
O26 Sc4 1.995427 1_556
O27 Si13 1.608211 1_555
O27 Sc5 1.988617 1_555
O28 S2 1.468950 1_555
O28 Sc5 2.204830 1_555
O29 Si14 1.608880 1_555
O29 Sc5 2.011931 1_555
O30 Si14 1.681893 1_555
O31 Si13 1.682780 1_555
O32 S2 1.492664 1_555
O33 Si11 1.676916 1_555
O34 Si12 1.682586 1_555
O35 S1 1.478554 1_555
O36 Si14 1.631245 1_555
O36 Sc0 2.146432 1_455
O37 Si13 1.630766 1_555
O37 Sc0 2.098255 1_555
O38 S2 1.487342 1_555
O38 Sc0 2.284710 1_445
O39 Si11 1.630495 1_555
O39 Sc1 2.089208 1_555
O40 Si12 1.634058 1_555
O40 Sc1 2.139656 1_565
O41 S1 1.479854 1_555
O41 Sc1 2.276685 1_665
O42 Si6 1.659795 1_555
O43 Si7 1.664056 1_555
O44 Si8 1.665865 1_555
O45 Si9 1.631434 1_555
O45 Sc2 2.100851 1_665
O46 S0 1.481165 1_555
O46 Sc2 2.320275 1_655
O47 Si10 1.635086 1_555
O47 Sc2 2.089368 1_555
O48 Si5 1.657092 1_545
O49 Si3 1.654673 1_555
O50 Si4 1.650738 1_555
O51 Si1 1.659448 1_555
O52 Si2 1.667595 1_555
O53 Si0 1.655241 1_555
O54 S1 1.494253 1_555
O54 Sc3 2.200839 1_555
O55 Si11 1.634117 1_655
O55 Sc3 2.110050 1_555
O56 Si12 1.639265 1_545
O56 Sc3 2.125661 1_555
O57 Si13 1.688823 1_545
O58 S2 1.491020 1_555
O59 Si14 1.690260 1_655
O60 Si10 1.640051 1_555
O60 Sc4 2.141085 1_555
O61 Si9 1.643431 1_455
O61 Sc4 2.053851 1_555
O62 S0 1.483122 1_565
O62 Sc4 2.275473 1_555
O63 Si7 1.632534 1_565
O63 Sc5 2.055866 1_555
O64 Si8 1.629091 1_555
O64 Sc5 2.148922 1_555
O65 Si6 1.620068 1_455
O65 Sc5 2.111969 1_555
O66 Si0 1.660220 1_565
O67 Si1 1.659398 1_555
O68 Si2 1.668476 1_455
O69 Si3 1.674900 1_555
O70 Si4 1.679040 1_455
O71 Si5 1.679629 1_555
