# generated using pymatgen
data_LiCu2F7
_symmetry_space_group_name_H-M   'P 1'
_cell_length_a   4.91987276
_cell_length_b   6.42207560
_cell_length_c   6.99162089
_cell_angle_alpha   92.80385812
_cell_angle_beta   89.99861509
_cell_angle_gamma   112.52436123
_symmetry_Int_Tables_number   1
_chemical_formula_structural   LiCu2F7
_chemical_formula_sum   'Li2 Cu4 F14'
_cell_volume   203.76818332
_cell_formula_units_Z   2
loop_
 _symmetry_equiv_pos_site_id
 _symmetry_equiv_pos_as_xyz
  1  'x, y, z'
loop_
 _atom_site_type_symbol
 _atom_site_label
 _atom_site_symmetry_multiplicity
 _atom_site_fract_x
 _atom_site_fract_y
 _atom_site_fract_z
 _atom_site_occupancy
  Li  Li0  1  0.05034348  0.09330237  0.36760820  1
  Li  Li1  1  0.04431566  0.09398242  0.86760372  1
  Cu  Cu0  1  0.35920114  0.70143139  0.26984223  1
  Cu  Cu1  1  0.65466639  0.28586974  0.19840850  1
  Cu  Cu2  1  0.34175276  0.70152551  0.76977119  1
  Cu  Cu3  1  0.63217840  0.28591730  0.69821252  1
  F  F0  1  0.79499769  0.27666951  0.45076560  1
  F  F1  1  0.50171874  0.69925221  0.01760157  1
  F  F2  1  0.33851158  0.99510649  0.24042049  1
  F  F3  1  0.60791918  0.56626545  0.66939238  1
  F  F4  1  0.89440894  0.14200553  0.11332942  1
  F  F5  1  0.24781231  0.14228397  0.61358085  1
  F  F6  1  0.95788967  0.56631379  0.16940854  1
  F  F7  1  0.03147204  0.40954654  0.79880858  1
  F  F8  1  0.72843453  0.82996297  0.37394231  1
  F  F9  1  0.37803618  0.40951710  0.29863396  1
  F  F10  1  0.10100102  0.82998437  0.87400906  1
  F  F11  1  0.65648832  0.99509882  0.74029707  1
  F  F12  1  0.19662101  0.69914336  0.51758644  1
  F  F13  1  0.48222596  0.27681915  0.95077235  1
loop_
_geom_bond_atom_site_label_1
_geom_bond_atom_site_label_2
_geom_bond_distance
_geom_bond_site_symmetry_2
Cu0 F8 1.817556 1_555
Cu0 F1 1.899226 1_555
Cu0 F12 1.906232 1_555
Cu0 F9 1.932255 1_555
Cu0 F6 1.942200 1_455
Cu0 F2 1.948006 1_555
Cu1 F4 1.838418 1_555
Cu1 F6 1.867500 1_555
Cu1 F0 1.906496 1_555
Cu1 F13 1.916573 1_554
Cu1 F9 1.935815 1_555
Cu1 F2 1.954703 1_545
Cu2 F10 1.817819 1_555
Cu2 F12 1.899455 1_555
Cu2 F1 1.906127 1_556
Cu2 F7 1.931775 1_555
Cu2 F3 1.942603 1_555
Cu2 F11 1.948341 1_555
Cu3 F5 1.840441 1_555
Cu3 F3 1.869887 1_555
Cu3 F13 1.908599 1_555
Cu3 F0 1.914322 1_555
Cu3 F7 1.932527 1_655
Cu3 F11 1.952929 1_545
F0 Li0 2.090309 1_655
F2 Li0 1.956662 1_565
F4 Li1 1.926919 1_654
F4 Li0 2.021224 1_655
F5 Li0 1.927006 1_555
F5 Li1 2.017112 1_555
F7 Li1 2.129750 1_555
F8 Li0 1.823619 1_665
F9 Li0 2.131461 1_555
F10 Li1 1.823157 1_565
F11 Li1 1.962818 1_665
F13 Li1 2.086539 1_555
