# generated using pymatgen
data_Na3HfTiSi2PO12
_symmetry_space_group_name_H-M   'P 1'
_cell_length_a   15.67159051
_cell_length_b   9.00901459
_cell_length_c   9.00219543
_cell_angle_alpha   90.06979529
_cell_angle_beta   125.05828970
_cell_angle_gamma   89.81536288
_symmetry_Int_Tables_number   1
_chemical_formula_structural   Na3HfTiSi2PO12
_chemical_formula_sum   'Na12 Hf4 Ti4 Si8 P4 O48'
_cell_volume   1040.37816865
_cell_formula_units_Z   4
loop_
 _symmetry_equiv_pos_site_id
 _symmetry_equiv_pos_as_xyz
  1  'x, y, z'
loop_
 _atom_site_type_symbol
 _atom_site_label
 _atom_site_symmetry_multiplicity
 _atom_site_fract_x
 _atom_site_fract_y
 _atom_site_fract_z
 _atom_site_occupancy
  Na  Na0  1  0.24234334  0.77279132  0.99399758  1
  Na  Na1  1  0.74921306  0.73112828  0.50488922  1
  Na  Na2  1  0.74987051  0.26687833  0.00513156  1
  Na  Na3  1  0.24257564  0.22551295  0.49322285  1
  Na  Na4  1  0.50366156  0.10912820  0.75619034  1
  Na  Na5  1  0.50494227  0.89745394  0.25133171  1
  Na  Na6  1  0.00421117  0.61704001  0.75666320  1
  Na  Na7  1  0.00369777  0.37588939  0.25144067  1
  Na  Na8  1  0.81196382  0.93998860  0.22157354  1
  Na  Na9  1  0.81054609  0.06139666  0.72088187  1
  Na  Na10  1  0.30222693  0.43525063  0.20365927  1
  Na  Na11  1  0.30888882  0.55764208  0.72607148  1
  Hf  Hf0  1  0.10635734  0.75262205  0.56221372  1
  Hf  Hf1  1  0.60618785  0.25163772  0.56507714  1
  Hf  Hf2  1  0.39421144  0.75523209  0.43236695  1
  Hf  Hf3  1  0.60704988  0.74891430  0.06458693  1
  Ti  Ti0  1  0.89473752  0.74041628  0.93873266  1
  Ti  Ti1  1  0.89499471  0.25996508  0.43724519  1
  Ti  Ti2  1  0.10525904  0.25192890  0.05846801  1
  Ti  Ti3  1  0.39405833  0.24024088  0.93526955  1
  Si  Si0  1  0.35569829  0.89867503  0.76062125  1
  Si  Si1  1  0.65133391  0.89010043  0.74519023  1
  Si  Si2  1  0.64941670  0.11205375  0.24502824  1
  Si  Si3  1  0.35245721  0.10674955  0.25126155  1
  Si  Si4  1  0.85879822  0.39788410  0.75668649  1
  Si  Si5  1  0.14610864  0.38798544  0.74463213  1
  Si  Si6  1  0.14500805  0.60378026  0.24076179  1
  Si  Si7  1  0.85712067  0.60118416  0.25715101  1
  P  P0  1  -0.00015379  0.96643245  0.74793489  1
  P  P1  1  0.99920981  0.04062034  0.23992018  1
  P  P2  1  0.49748987  0.45525299  0.74734178  1
  P  P3  1  0.49866769  0.53908943  0.24122872  1
  O  O0  1  0.15122527  0.57138180  0.74425401  1
  O  O1  1  0.85607173  0.57938973  0.75930219  1
  O  O2  1  0.85615376  0.41961557  0.25786518  1
  O  O3  1  0.14898241  0.42034494  0.23308698  1
  O  O4  1  0.65636669  0.07347502  0.74460085  1
  O  O5  1  0.35174037  0.08103729  0.76108638  1
  O  O6  1  0.35022327  0.92554297  0.24581157  1
  O  O7  1  0.65633307  0.92884735  0.24267326  1
  O  O8  1  0.43442206  0.54973280  0.57226518  1
  O  O9  1  0.55660798  0.55855173  0.91243048  1
  O  O10  1  0.55839441  0.43987940  0.41101432  1
  O  O11  1  0.43578473  0.44511815  0.06710909  1
  O  O12  1  0.93336248  0.06006556  0.57192662  1
  O  O13  1  0.06086296  0.06970063  0.91451241  1
  O  O14  1  0.06318655  0.94094065  0.41029397  1
  O  O15  1  0.93283864  0.94169415  0.06994560  1
  O  O16  1  0.25855013  0.81954151  0.74694367  1
  O  O17  1  0.75427496  0.82669272  0.76079417  1
  O  O18  1  0.75171512  0.17563836  0.25919925  1
  O  O19  1  0.25185064  0.18216506  0.23072894  1
  O  O20  1  0.76073179  0.32227993  0.74323236  1
  O  O21  1  0.24985034  0.32716792  0.76157972  1
  O  O22  1  0.24494172  0.66601862  0.24739592  1
  O  O23  1  0.75851631  0.67585578  0.24287212  1
  O  O24  1  0.36073067  0.85306607  0.58918242  1
  O  O25  1  0.65062359  0.85256222  0.92236015  1
  O  O26  1  0.65035653  0.14557277  0.42476157  1
  O  O27  1  0.36243783  0.16037640  0.08455976  1
  O  O28  1  0.86263295  0.35111066  0.58106195  1
  O  O29  1  0.14415677  0.35041553  0.92234261  1
  O  O30  1  0.15119955  0.63859644  0.42552085  1
  O  O31  1  0.86229183  0.65215606  0.08418143  1
  O  O32  1  0.46242325  0.83915753  0.94484523  1
  O  O33  1  0.54404773  0.82926135  0.56109058  1
  O  O34  1  0.53832205  0.17402188  0.06440447  1
  O  O35  1  0.45863837  0.16615719  0.43767556  1
  O  O36  1  0.96636285  0.33137885  0.93578845  1
  O  O37  1  0.03829379  0.32340896  0.56282973  1
  O  O38  1  0.03625305  0.67274899  0.06463077  1
  O  O39  1  0.96131284  0.66703403  0.43985416  1
  O  O40  1  0.07813816  0.86264493  0.74496060  1
  O  O41  1  0.92314529  0.86647379  0.75854775  1
  O  O42  1  0.92101822  0.13740127  0.25191355  1
  O  O43  1  0.07572111  0.14452531  0.23497542  1
  O  O44  1  0.57750508  0.35126283  0.75105277  1
  O  O45  1  0.41730298  0.35887946  0.75156923  1
  O  O46  1  0.41787493  0.63528296  0.24681033  1
  O  O47  1  0.57807083  0.64496127  0.24738475  1
loop_
_geom_bond_atom_site_label_1
_geom_bond_atom_site_label_2
_geom_bond_distance
_geom_bond_site_symmetry_2
Na0 O6 2.344216 1_556
Na0 O40 2.380493 1_555
Na0 O16 2.416630 1_555
Na0 O22 2.455388 1_556
Na0 O0 2.589337 1_555
Na0 O46 2.659715 1_556
Na1 O1 2.346321 1_555
Na1 O17 2.416659 1_555
Na1 O47 2.456865 1_555
Na1 O23 2.494907 1_555
Na1 O7 2.628670 1_555
Na1 O41 2.644816 1_555
Na2 O2 2.344714 1_555
Na2 O18 2.415801 1_555
Na2 O44 2.449346 1_554
Na2 O20 2.510205 1_554
Na2 O42 2.575030 1_555
Na2 O4 2.596548 1_554
Na3 O5 2.385291 1_555
Na3 O43 2.408116 1_555
Na3 O19 2.479815 1_555
Na3 O21 2.523228 1_555
Na3 O3 2.600705 1_555
Na3 O45 2.654959 1_555
Na4 O5 2.420513 1_555
Na4 O4 2.474456 1_555
Na4 O44 2.485526 1_555
Na4 O34 2.569426 1_556
Na4 O35 2.580781 1_555
Na4 O45 2.609950 1_555
Na4 O24 2.958955 1_545
Na4 O25 2.983431 1_545
Na5 O6 2.409003 1_555
Na5 O7 2.435531 1_555
Na5 O32 2.493764 1_554
Na5 O47 2.553186 1_555
Na5 O33 2.562673 1_555
Na5 O46 2.720071 1_555
Na5 O26 2.926485 1_565
Na5 O27 2.995800 1_565
Na6 O1 2.360891 1_455
Na6 O0 2.404016 1_555
Na6 O40 2.531108 1_555
Na6 O39 2.566534 1_455
Na6 O38 2.566917 1_556
Na6 O41 2.582682 1_455
Na7 O2 2.377546 1_455
Na7 O3 2.410377 1_555
Na7 O43 2.411811 1_555
Na7 O42 2.513851 1_455
Na7 O37 2.575057 1_555
Na7 O36 2.581925 1_454
Na8 O42 2.375007 1_565
Na8 O18 2.421977 1_565
Na8 O25 2.540145 1_554
Na8 O7 2.555116 1_555
Na8 O23 2.568888 1_555
Na8 O12 2.801557 1_565
Na8 O15 2.902158 1_555
Na9 O41 2.367841 1_545
Na9 O17 2.399072 1_545
Na9 O26 2.507602 1_555
Na9 O20 2.518197 1_555
Na9 O4 2.546877 1_555
Na9 O15 2.790454 1_546
Na9 O12 2.909917 1_555
Na10 O22 2.382274 1_555
Na10 O46 2.427701 1_555
Na10 O29 2.436085 1_554
Na10 O19 2.472906 1_555
Na10 O3 2.566882 1_555
Na11 O21 2.371327 1_555
Na11 O45 2.383103 1_555
Na11 O30 2.504240 1_555
Na11 O16 2.526240 1_555
Na11 O0 2.570945 1_555
Na11 O11 2.718177 1_556
Hf0 O30 2.012226 1_555
Hf0 O39 2.026707 1_455
Hf0 O14 2.035120 1_555
Hf0 O16 2.065878 1_555
Hf0 O0 2.126341 1_555
Hf0 O40 2.171058 1_555
Hf1 O26 1.996244 1_555
Hf1 O10 2.040746 1_555
Hf1 O35 2.053767 1_555
Hf1 O4 2.084377 1_555
Hf1 O20 2.094779 1_555
Hf1 O44 2.160741 1_555
Hf2 O24 1.972290 1_555
Hf2 O33 2.045418 1_555
Hf2 O6 2.078282 1_555
Hf2 O22 2.103541 1_555
Hf2 O8 2.120634 1_555
Hf2 O46 2.190945 1_555
Hf3 O25 1.997244 1_554
Hf3 O32 2.035576 1_554
Hf3 O9 2.049715 1_554
Hf3 O23 2.063848 1_555
Hf3 O7 2.091325 1_555
Hf3 O47 2.157846 1_555
O0 Si5 1.654526 1_555
O1 Si4 1.636101 1_555
O1 Ti0 1.989043 1_555
O2 Si7 1.635928 1_555
O2 Ti1 1.979300 1_555
O3 Si6 1.656396 1_555
O3 Ti2 2.001527 1_555
O4 Si1 1.654320 1_545
O5 Si0 1.643966 1_545
O5 Ti3 1.939499 1_555
O6 Si3 1.633054 1_565
O7 Si2 1.654624 1_565
O8 P2 1.547144 1_555
O9 P2 1.534103 1_555
O10 P3 1.538017 1_555
O11 P3 1.540251 1_555
O11 Ti3 2.086581 1_554
O12 P0 1.551999 1_645
O12 Ti1 2.058056 1_555
O13 P0 1.543897 1_545
O13 Ti2 1.955761 1_556
O14 P1 1.547572 1_465
O15 P1 1.546529 1_565
O15 Ti0 2.057033 1_554
O16 Si0 1.622571 1_555
O17 Si1 1.637847 1_555
O17 Ti0 1.989171 1_555
O18 Si2 1.638714 1_555
O18 Ti1 2.015316 1_555
O19 Si3 1.624885 1_555
O19 Ti2 1.994453 1_555
O20 Si4 1.622722 1_555
O21 Si5 1.635911 1_555
O21 Ti3 2.024252 1_555
O22 Si6 1.633651 1_555
O23 Si7 1.619352 1_555
O24 Si0 1.641640 1_555
O25 Si1 1.637068 1_555
O26 Si2 1.637306 1_555
O27 Si3 1.667882 1_555
O27 Ti3 1.827338 1_554
O28 Si4 1.669767 1_555
O28 Ti1 1.832123 1_555
O29 Si5 1.653001 1_555
O29 Ti2 1.877452 1_556
O30 Si6 1.639414 1_555
O31 Si7 1.670020 1_555
O31 Ti0 1.837174 1_554
O32 Si0 1.626373 1_555
O33 Si1 1.636010 1_555
O34 Si2 1.652416 1_555
O34 Ti3 1.947394 1_554
O35 Si3 1.633122 1_555
O36 Si4 1.635121 1_555
O36 Ti2 1.923618 1_656
O37 Si5 1.642875 1_555
O37 Ti1 1.933409 1_455
O38 Si6 1.641940 1_555
O38 Ti0 1.918340 1_454
O39 Si7 1.625387 1_555
O40 P0 1.552643 1_555
O41 P0 1.550504 1_655
O41 Ti0 2.226282 1_555
O42 P1 1.555093 1_555
O42 Ti1 2.223366 1_555
O43 P1 1.544219 1_455
O43 Ti2 2.127661 1_555
O44 P2 1.547776 1_555
O45 P2 1.548067 1_555
O45 Ti3 2.169952 1_555
O46 P3 1.556465 1_555
O47 P3 1.545824 1_555
