# generated using pymatgen
data_MgMn6O7F5
_symmetry_space_group_name_H-M   'P 1'
_cell_length_a   5.11589980
_cell_length_b   7.60607774
_cell_length_c   5.84774966
_cell_angle_alpha   94.61415666
_cell_angle_beta   83.67986341
_cell_angle_gamma   93.05168575
_symmetry_Int_Tables_number   1
_chemical_formula_structural   MgMn6O7F5
_chemical_formula_sum   'Mg1 Mn6 O7 F5'
_cell_volume   225.20497142
_cell_formula_units_Z   1
loop_
 _symmetry_equiv_pos_site_id
 _symmetry_equiv_pos_as_xyz
  1  'x, y, z'
loop_
 _atom_site_type_symbol
 _atom_site_label
 _atom_site_symmetry_multiplicity
 _atom_site_fract_x
 _atom_site_fract_y
 _atom_site_fract_z
 _atom_site_occupancy
  Mg  Mg0  1  0.02734817  0.17042490  0.65071559  1
  Mn  Mn0  1  0.52942936  0.98788353  0.54332424  1
  Mn  Mn1  1  0.52031023  0.67798223  0.18609190  1
  Mn  Mn2  1  0.51107245  0.36262901  0.80846794  1
  Mn  Mn3  1  0.97426148  0.68074393  0.66915517  1
  Mn  Mn4  1  0.87762496  0.35856650  0.28401295  1
  Mn  Mn5  1  0.01936095  0.97428388  0.06081006  1
  O  O0  1  0.84765253  0.42436007  0.63666958  1
  O  O1  1  0.80888014  0.76665431  0.99742929  1
  O  O2  1  0.85853069  0.08835457  0.35344613  1
  O  O3  1  0.68377589  0.75783991  0.49965920  1
  O  O4  1  0.61815745  0.44685055  0.09880267  1
  O  O5  1  0.39738188  0.22536315  0.54926036  1
  O  O6  1  0.16386827  0.92170821  0.72077683  1
  F  F0  1  0.70377870  0.10759153  0.85125045  1
  F  F1  1  0.27353613  0.58266882  0.82411899  1
  F  F2  1  0.35111253  0.90995299  0.21640232  1
  F  F3  1  0.17524840  0.58520456  0.33189990  1
  F  F4  1  0.15866879  0.23760636  0.99151943  1
loop_
_geom_bond_atom_site_label_1
_geom_bond_atom_site_label_2
_geom_bond_distance
_geom_bond_site_symmetry_2
Mg0 O5 1.954135 1_555
Mg0 O2 2.063009 1_455
Mg0 O6 2.136066 1_545
Mg0 O0 2.193986 1_455
Mn0 O3 1.944502 1_555
Mn0 O5 1.958293 1_565
Mn0 O2 2.059004 1_565
Mn0 O6 2.093860 1_555
Mn1 O4 1.869433 1_555
Mn1 O1 1.872592 1_554
Mn1 O3 2.129542 1_555
Mn2 O4 1.893531 1_556
Mn2 O5 1.897568 1_555
Mn2 O0 1.950299 1_555
Mn3 O3 2.011308 1_555
Mn3 O0 2.022727 1_555
Mn3 O6 2.043853 1_655
Mn3 O1 2.080239 1_555
Mn4 O4 1.978482 1_555
Mn4 O0 2.073480 1_555
Mn4 O2 2.121937 1_555
Mn5 O1 1.898294 1_454
Mn5 O2 1.971121 1_465
Mn5 O6 2.059175 1_554
F0 Mg0 1.980481 1_655
F0 Mn0 2.206898 1_545
F0 Mn2 2.265720 1_555
F0 Mn5 2.438483 1_646
F1 Mn3 2.063400 1_455
F1 Mn2 2.110356 1_555
F1 Mn1 2.616094 1_556
F2 Mn1 1.993052 1_555
F2 Mn5 2.108987 1_555
F2 Mn0 2.232139 1_555
F3 Mn1 1.993503 1_555
F3 Mn3 2.208470 1_455
F3 Mn4 2.259444 1_455
F4 Mn5 2.144417 1_546
F4 Mg0 2.186008 1_555
F4 Mn2 2.203807 1_555
F4 Mn4 2.277167 1_456
