# generated using pymatgen
data_Sr5P3ClO12
_symmetry_space_group_name_H-M   'P 1'
_cell_length_a   10.07199652
_cell_length_b   10.07199652
_cell_length_c   7.22086900
_cell_angle_alpha   90.00000000
_cell_angle_beta   90.00000000
_cell_angle_gamma   120.00000340
_symmetry_Int_Tables_number   1
_chemical_formula_structural   Sr5P3ClO12
_chemical_formula_sum   'Sr10 P6 Cl2 O24'
_cell_volume   634.38253324
_cell_formula_units_Z   2
loop_
 _symmetry_equiv_pos_site_id
 _symmetry_equiv_pos_as_xyz
  1  'x, y, z'
loop_
 _atom_site_type_symbol
 _atom_site_label
 _atom_site_symmetry_multiplicity
 _atom_site_fract_x
 _atom_site_fract_y
 _atom_site_fract_z
 _atom_site_occupancy
  Sr  Sr0  1  0.66666700  0.33333300  0.50194600  1
  Sr  Sr1  1  0.66666700  0.33333300  0.99805400  1
  Sr  Sr2  1  0.99946600  0.25383400  0.25000000  1
  Sr  Sr3  1  0.74563200  0.99946600  0.75000000  1
  Sr  Sr4  1  0.25383400  0.25436800  0.75000000  1
  Sr  Sr5  1  0.74616600  0.74563200  0.25000000  1
  Sr  Sr6  1  0.25436800  0.00053400  0.25000000  1
  Sr  Sr7  1  0.00053400  0.74616600  0.75000000  1
  Sr  Sr8  1  0.33333300  0.66666700  0.00194600  1
  Sr  Sr9  1  0.33333300  0.66666700  0.49805400  1
  P  P0  1  0.40820300  0.37435800  0.25000000  1
  P  P1  1  0.03384500  0.40820300  0.75000000  1
  P  P2  1  0.37435800  0.96615500  0.75000000  1
  P  P3  1  0.59179700  0.62564200  0.75000000  1
  P  P4  1  0.62564200  0.03384500  0.25000000  1
  P  P5  1  0.96615500  0.59179700  0.25000000  1
  Cl  Cl0  1  0.00000000  0.00000000  0.50000000  1
  Cl  Cl1  1  0.00000000  0.00000000  0.00000000  1
  O  O0  1  0.34336000  0.48573100  0.25000000  1
  O  O1  1  0.85762900  0.34336000  0.75000000  1
  O  O2  1  0.48573100  0.14237100  0.75000000  1
  O  O3  1  0.51426900  0.85762900  0.25000000  1
  O  O4  1  0.14237100  0.65664000  0.25000000  1
  O  O5  1  0.65664000  0.51426900  0.75000000  1
  O  O6  1  0.58768700  0.46507300  0.25000000  1
  O  O7  1  0.12261300  0.58768700  0.75000000  1
  O  O8  1  0.46507300  0.87738700  0.75000000  1
  O  O9  1  0.53492700  0.12261300  0.25000000  1
  O  O10  1  0.87738700  0.41231300  0.25000000  1
  O  O11  1  0.41231300  0.53492700  0.75000000  1
  O  O12  1  0.35568100  0.26930900  0.07570200  1
  O  O13  1  0.08637200  0.35568100  0.57570200  1
  O  O14  1  0.26930900  0.91362800  0.57570200  1
  O  O15  1  0.73069100  0.08637200  0.07570200  1
  O  O16  1  0.91362800  0.64431900  0.07570200  1
  O  O17  1  0.64431900  0.73069100  0.57570200  1
  O  O18  1  0.64431900  0.73069100  0.92429800  1
  O  O19  1  0.91362800  0.64431900  0.42429800  1
  O  O20  1  0.73069100  0.08637200  0.42429800  1
  O  O21  1  0.26930900  0.91362800  0.92429800  1
  O  O22  1  0.08637200  0.35568100  0.92429800  1
  O  O23  1  0.35568100  0.26930900  0.42429800  1
loop_
_geom_bond_atom_site_label_1
_geom_bond_atom_site_label_2
_geom_bond_distance
_geom_bond_site_symmetry_2
Cl0 Sr4 3.131911 1_555
Cl0 Sr5 3.131911 1_445
Cl0 Sr3 3.131912 1_445
Cl0 Sr6 3.131912 1_555
Cl0 Sr7 3.131912 1_545
Cl0 Sr2 3.131912 1_455
Cl1 Sr4 3.131911 1_554
Cl1 Sr5 3.131911 1_445
Cl1 Sr3 3.131912 1_444
Cl1 Sr6 3.131912 1_555
Cl1 Sr7 3.131912 1_544
Cl1 Sr2 3.131912 1_455
O0 P0 1.554821 1_555
O0 Sr9 2.592993 1_555
O0 Sr8 2.592993 1_555
O0 Sr2 3.059821 1_455
O1 P1 1.554821 1_655
O1 Sr0 2.592986 1_555
O1 Sr1 2.592986 1_555
O1 Sr3 3.059821 1_545
O2 P2 1.554821 1_545
O2 Sr1 2.592989 1_555
O2 Sr0 2.592989 1_555
O2 Sr4 3.059821 1_555
O3 P4 1.554821 1_565
O3 Sr9 2.592989 1_555
O3 Sr8 2.592989 1_555
O3 Sr5 3.059821 1_555
O4 P5 1.554821 1_455
O4 Sr9 2.592986 1_555
O4 Sr8 2.592986 1_555
O4 Sr6 3.059821 1_565
O5 P3 1.554821 1_555
O5 Sr0 2.592993 1_555
O5 Sr1 2.592993 1_555
O5 Sr7 3.059821 1_655
O6 P0 1.565599 1_555
O6 Sr5 2.454061 1_555
O6 Sr0 2.599746 1_555
O6 Sr1 2.599746 1_554
O7 P1 1.565599 1_555
O7 Sr7 2.454053 1_555
O7 Sr9 2.599746 1_555
O7 Sr8 2.599746 1_556
O8 P2 1.565590 1_555
O8 Sr3 2.454062 1_555
O8 Sr9 2.599746 1_555
O8 Sr8 2.599746 1_556
O9 P4 1.565590 1_555
O9 Sr6 2.454062 1_555
O9 Sr1 2.599746 1_554
O9 Sr0 2.599746 1_555
O10 P5 1.565599 1_555
O10 Sr2 2.454053 1_555
O10 Sr1 2.599746 1_554
O10 Sr0 2.599746 1_555
O11 P3 1.565599 1_555
O11 Sr4 2.454061 1_555
O11 Sr8 2.599746 1_556
O11 Sr9 2.599746 1_555
O12 P0 1.556804 1_555
O12 Sr4 2.540030 1_554
O12 Sr6 2.681660 1_555
O12 Sr1 2.919137 1_554
O13 P1 1.556804 1_555
O13 Sr2 2.540030 1_455
O13 Sr4 2.681660 1_555
O13 Sr9 2.919133 1_555
O14 P2 1.556804 1_555
O14 Sr6 2.540030 1_565
O14 Sr7 2.681660 1_555
O14 Sr9 2.919127 1_555
O15 P4 1.556804 1_555
O15 Sr3 2.540030 1_544
O15 Sr2 2.681660 1_555
O15 Sr1 2.919127 1_554
O16 P5 1.556804 1_555
O16 Sr7 2.540030 1_654
O16 Sr5 2.681660 1_555
O16 Sr1 2.919133 1_554
O17 P3 1.556804 1_555
O17 Sr5 2.540030 1_555
O17 Sr3 2.681660 1_555
O17 Sr9 2.919137 1_555
O18 P3 1.556804 1_555
O18 Sr5 2.540030 1_556
O18 Sr3 2.681660 1_555
O18 Sr8 2.919137 1_556
O19 P5 1.556804 1_555
O19 Sr7 2.540030 1_655
O19 Sr5 2.681660 1_555
O19 Sr0 2.919133 1_555
O20 P4 1.556804 1_555
O20 Sr3 2.540030 1_545
O20 Sr2 2.681660 1_555
O20 Sr0 2.919127 1_555
O21 P2 1.556804 1_555
O21 Sr6 2.540030 1_566
O21 Sr7 2.681660 1_555
O21 Sr8 2.919127 1_556
O22 P1 1.556804 1_555
O22 Sr2 2.540030 1_456
O22 Sr4 2.681660 1_555
O22 Sr8 2.919133 1_556
O23 P0 1.556804 1_555
O23 Sr4 2.540030 1_555
O23 Sr6 2.681660 1_555
O23 Sr0 2.919137 1_555
