# generated using pymatgen
data_TlSn
_symmetry_space_group_name_H-M   'P 1'
_cell_length_a   6.78671148
_cell_length_b   6.78671148
_cell_length_c   10.06095978
_cell_angle_alpha   90.00000000
_cell_angle_beta   90.00000000
_cell_angle_gamma   90.00000000
_symmetry_Int_Tables_number   1
_chemical_formula_structural   TlSn
_chemical_formula_sum   'Tl8 Sn8'
_cell_volume   463.40230123
_cell_formula_units_Z   8
loop_
 _symmetry_equiv_pos_site_id
 _symmetry_equiv_pos_as_xyz
  1  'x, y, z'
loop_
 _atom_site_type_symbol
 _atom_site_label
 _atom_site_symmetry_multiplicity
 _atom_site_fract_x
 _atom_site_fract_y
 _atom_site_fract_z
 _atom_site_occupancy
  Tl  Tl0_0  1  0.00000000  0.00000000  0.00000000  1
  Tl  Tl0_1  1  0.00000000  0.00000000  0.50000000  1
  Tl  Tl0_2  1  0.00000000  0.50000000  0.00000000  1
  Tl  Tl0_3  1  0.00000000  0.50000000  0.50000000  1
  Tl  Tl0_4  1  0.50000000  0.00000000  0.00000000  1
  Tl  Tl0_5  1  0.50000000  0.00000000  0.50000000  1
  Tl  Tl0_6  1  0.50000000  0.50000000  0.00000000  1
  Tl  Tl0_7  1  0.50000000  0.50000000  0.50000000  1
  Sn  Sn0_0  1  0.25000000  0.25000000  0.25000000  1
  Sn  Sn0_1  1  0.25000000  0.25000000  0.75000000  1
  Sn  Sn0_2  1  0.25000000  0.75000000  0.25000000  1
  Sn  Sn0_3  1  0.25000000  0.75000000  0.75000000  1
  Sn  Sn0_4  1  0.75000000  0.25000000  0.25000000  1
  Sn  Sn0_5  1  0.75000000  0.25000000  0.75000000  1
  Sn  Sn0_6  1  0.75000000  0.75000000  0.25000000  1
  Sn  Sn0_7  1  0.75000000  0.75000000  0.75000000  1
loop_
_geom_bond_atom_site_label_1
_geom_bond_atom_site_label_2
_geom_bond_distance
_geom_bond_site_symmetry_2
Tl0_0 Tl0_4 3.393356 1_555
Tl0_0 Tl0_2 3.393356 1_545
Tl0_0 Tl0_4 3.393356 1_455
Tl0_0 Tl0_2 3.393356 1_555
Tl0_1 Tl0_5 3.393356 1_455
Tl0_1 Tl0_5 3.393356 1_555
Tl0_1 Tl0_3 3.393356 1_555
Tl0_1 Tl0_3 3.393356 1_545
Tl0_2 Tl0_6 3.393356 1_455
Tl0_2 Tl0_6 3.393356 1_555
Tl0_3 Tl0_7 3.393356 1_555
Tl0_3 Tl0_7 3.393356 1_455
Tl0_4 Tl0_6 3.393356 1_545
Tl0_4 Tl0_6 3.393356 1_555
Tl0_5 Tl0_7 3.393356 1_555
Tl0_5 Tl0_7 3.393356 1_545
Sn0_0 Sn0_4 3.393356 1_455
Sn0_0 Sn0_4 3.393356 1_555
Sn0_0 Sn0_2 3.393356 1_545
Sn0_0 Sn0_2 3.393356 1_555
Sn0_0 Tl0_0 3.476185 1_555
Sn0_0 Tl0_6 3.476185 1_555
Sn0_0 Tl0_7 3.476185 1_555
Sn0_0 Tl0_4 3.476185 1_555
Sn0_0 Tl0_1 3.476185 1_555
Sn0_0 Tl0_5 3.476185 1_555
Sn0_0 Tl0_2 3.476185 1_555
Sn0_0 Tl0_3 3.476185 1_555
Sn0_1 Sn0_3 3.393356 1_555
Sn0_1 Sn0_5 3.393356 1_555
Sn0_1 Sn0_5 3.393356 1_455
Sn0_1 Sn0_3 3.393356 1_545
Sn0_1 Tl0_4 3.476185 1_556
Sn0_1 Tl0_2 3.476185 1_556
Sn0_1 Tl0_0 3.476185 1_556
Sn0_1 Tl0_6 3.476185 1_556
Sn0_1 Tl0_3 3.476185 1_555
Sn0_1 Tl0_7 3.476185 1_555
Sn0_1 Tl0_1 3.476185 1_555
Sn0_1 Tl0_5 3.476185 1_555
Sn0_2 Sn0_6 3.393356 1_455
Sn0_2 Sn0_6 3.393356 1_555
Sn0_2 Tl0_0 3.476185 1_565
Sn0_2 Tl0_6 3.476185 1_555
Sn0_2 Tl0_7 3.476185 1_555
Sn0_2 Tl0_4 3.476185 1_565
Sn0_2 Tl0_1 3.476185 1_565
Sn0_2 Tl0_2 3.476185 1_555
Sn0_2 Tl0_5 3.476185 1_565
Sn0_2 Tl0_3 3.476185 1_555
Sn0_3 Sn0_7 3.393356 1_555
Sn0_3 Sn0_7 3.393356 1_455
Sn0_3 Tl0_0 3.476185 1_566
Sn0_3 Tl0_4 3.476185 1_566
Sn0_3 Tl0_2 3.476185 1_556
Sn0_3 Tl0_6 3.476185 1_556
Sn0_3 Tl0_7 3.476185 1_555
Sn0_3 Tl0_1 3.476185 1_565
Sn0_3 Tl0_5 3.476185 1_565
Sn0_3 Tl0_3 3.476185 1_555
Sn0_4 Sn0_6 3.393356 1_545
Sn0_4 Sn0_6 3.393356 1_555
Sn0_4 Tl0_3 3.476185 1_655
Sn0_4 Tl0_0 3.476185 1_655
Sn0_4 Tl0_6 3.476185 1_555
Sn0_4 Tl0_2 3.476185 1_655
Sn0_4 Tl0_7 3.476185 1_555
Sn0_4 Tl0_4 3.476185 1_555
Sn0_4 Tl0_5 3.476185 1_555
Sn0_4 Tl0_1 3.476185 1_655
Sn0_5 Sn0_7 3.393356 1_555
Sn0_5 Sn0_7 3.393356 1_545
Sn0_5 Tl0_4 3.476185 1_556
Sn0_5 Tl0_2 3.476185 1_656
Sn0_5 Tl0_0 3.476185 1_656
Sn0_5 Tl0_6 3.476185 1_556
Sn0_5 Tl0_7 3.476185 1_555
Sn0_5 Tl0_3 3.476185 1_655
Sn0_5 Tl0_5 3.476185 1_555
Sn0_5 Tl0_1 3.476185 1_655
Sn0_6 Tl0_1 3.476185 1_665
Sn0_6 Tl0_3 3.476185 1_655
Sn0_6 Tl0_6 3.476185 1_555
Sn0_6 Tl0_7 3.476185 1_555
Sn0_6 Tl0_2 3.476185 1_655
Sn0_6 Tl0_0 3.476185 1_665
Sn0_6 Tl0_4 3.476185 1_565
Sn0_6 Tl0_5 3.476185 1_565
Sn0_7 Tl0_4 3.476185 1_566
Sn0_7 Tl0_0 3.476185 1_666
Sn0_7 Tl0_2 3.476185 1_656
Sn0_7 Tl0_6 3.476185 1_556
Sn0_7 Tl0_1 3.476185 1_665
Sn0_7 Tl0_7 3.476185 1_555
Sn0_7 Tl0_3 3.476185 1_655
Sn0_7 Tl0_5 3.476185 1_565
