# generated using pymatgen
data_In5Bi3
_symmetry_space_group_name_H-M   'P 1'
_cell_length_a   8.99298709
_cell_length_b   8.99298709
_cell_length_c   8.99298709
_cell_angle_alpha   124.13612909
_cell_angle_beta   124.13612909
_cell_angle_gamma   82.97386522
_symmetry_Int_Tables_number   1
_chemical_formula_structural   In5Bi3
_chemical_formula_sum   'In10 Bi6'
_cell_volume   478.17937672
_cell_formula_units_Z   2
loop_
 _symmetry_equiv_pos_site_id
 _symmetry_equiv_pos_as_xyz
  1  'x, y, z'
loop_
 _atom_site_type_symbol
 _atom_site_label
 _atom_site_symmetry_multiplicity
 _atom_site_fract_x
 _atom_site_fract_y
 _atom_site_fract_z
 _atom_site_occupancy
  In  In0  1  0.50000000  0.50000000  0.00000000  1
  In  In1  1  0.00000000  0.00000000  0.00000000  1
  In  In2  1  0.31197500  0.81197500  0.79240300  1
  In  In3  1  0.81197500  0.01957200  0.50000000  1
  In  In4  1  0.51957200  0.31197500  0.50000000  1
  In  In5  1  0.18802500  0.98042800  0.50000000  1
  In  In6  1  0.48042800  0.68802500  0.50000000  1
  In  In7  1  0.98042800  0.48042800  0.79240300  1
  In  In8  1  0.68802500  0.18802500  0.20759700  1
  In  In9  1  0.01957200  0.51957200  0.20759700  1
  Bi  Bi0  1  0.75000000  0.75000000  0.00000000  1
  Bi  Bi1  1  0.25000000  0.25000000  0.00000000  1
  Bi  Bi2  1  0.35078100  0.85078100  0.20156200  1
  Bi  Bi3  1  0.85078100  0.64921900  0.50000000  1
  Bi  Bi4  1  0.14921900  0.35078100  0.50000000  1
  Bi  Bi5  1  0.64921900  0.14921900  0.79843800  1
loop_
_geom_bond_atom_site_label_1
_geom_bond_atom_site_label_2
_geom_bond_distance
_geom_bond_site_symmetry_2
In2 In6 3.349643 1_555
In2 In5 3.349643 1_555
In2 In8 3.356983 1_566
In2 In9 3.483922 1_555
In3 In7 3.349643 1_555
In3 In8 3.349643 1_555
In3 In5 3.356983 1_645
In3 In4 3.483922 1_555
In4 In7 3.349643 1_555
In4 In8 3.349643 1_555
In4 In6 3.356983 1_555
In5 In9 3.349643 1_555
In5 In6 3.483922 1_555
In6 In9 3.349643 1_555
In7 In9 3.356983 1_656
In7 In8 3.483922 1_555
Bi0 In0 3.368354 1_555
Bi0 In1 3.368354 1_665
Bi0 In3 3.419061 1_565
Bi0 In2 3.419061 1_554
Bi0 In6 3.419061 1_554
Bi0 In5 3.419061 1_655
Bi0 In4 3.419061 1_554
Bi0 In8 3.419061 1_565
Bi0 In7 3.419061 1_554
Bi0 In9 3.419061 1_655
Bi1 In0 3.368354 1_555
Bi1 In1 3.368354 1_555
Bi1 In7 3.419061 1_454
Bi1 In9 3.419061 1_555
Bi1 In8 3.419061 1_555
Bi1 In2 3.419061 1_544
Bi1 In6 3.419061 1_555
Bi1 In5 3.419061 1_544
Bi1 In3 3.419061 1_454
Bi1 In4 3.419061 1_555
Bi2 In1 3.211624 1_565
Bi2 In0 3.211624 1_555
Bi2 In2 3.306085 1_554
Bi2 In7 3.306085 1_454
Bi2 In4 3.344261 1_565
Bi2 In5 3.344261 1_555
Bi2 In3 3.344261 1_565
Bi2 In6 3.344261 1_555
Bi3 In0 3.211624 1_555
Bi3 In1 3.211624 1_666
Bi3 In3 3.306085 1_565
Bi3 In6 3.306085 1_555
Bi3 In9 3.344261 1_655
Bi3 In2 3.344261 1_655
Bi3 In8 3.344261 1_555
Bi3 In7 3.344261 1_555
Bi4 In0 3.211624 1_556
Bi4 In1 3.211624 1_555
Bi4 In4 3.306085 1_555
Bi4 In5 3.306085 1_545
Bi4 In9 3.344261 1_555
Bi4 In8 3.344261 1_455
Bi4 In2 3.344261 1_555
Bi4 In7 3.344261 1_455
Bi5 In1 3.211624 1_656
Bi5 In0 3.211624 1_556
Bi5 In9 3.306085 1_656
Bi5 In8 3.306085 1_556
Bi5 In4 3.344261 1_555
Bi5 In3 3.344261 1_555
Bi5 In5 3.344261 1_545
Bi5 In6 3.344261 1_545
