# generated using pymatgen
data_Ba2MgZnWO6
_symmetry_space_group_name_H-M   'P 1'
_cell_length_a   6.64878732
_cell_length_b   5.77515737
_cell_length_c   6.64878345
_cell_angle_alpha   64.25888405
_cell_angle_beta   51.61054377
_cell_angle_gamma   64.25887173
_symmetry_Int_Tables_number   1
_chemical_formula_structural   Ba2MgZnWO6
_chemical_formula_sum   'Ba2 Mg1 Zn1 W1 O6'
_cell_volume   175.28083572
_cell_formula_units_Z   1
loop_
 _symmetry_equiv_pos_site_id
 _symmetry_equiv_pos_as_xyz
  1  'x, y, z'
loop_
 _atom_site_type_symbol
 _atom_site_label
 _atom_site_symmetry_multiplicity
 _atom_site_fract_x
 _atom_site_fract_y
 _atom_site_fract_z
 _atom_site_occupancy
  Ba  Ba0  1  0.81084500  0.68915600  0.81084500  1
  Ba  Ba1  1  0.18915500  0.31084400  0.18915400  1
  Mg  Mg0  1  0.50000000  0.00000000  0.50000000  1
  Zn  Zn0  1  0.50000000  0.50000000  0.50000000  1
  W  W0  1  0.00000000  0.00000000  0.00000000  1
  O  O0  1  0.26179400  0.74881900  0.73820900  1
  O  O1  1  0.73820600  0.25118200  0.26179000  1
  O  O2  1  0.73821000  0.74881800  0.26179500  1
  O  O3  1  0.80227300  0.19772100  0.80227200  1
  O  O4  1  0.26179100  0.25118100  0.73820500  1
  O  O5  1  0.19772700  0.80227900  0.19772700  1
loop_
_geom_bond_atom_site_label_1
_geom_bond_atom_site_label_2
_geom_bond_distance
_geom_bond_site_symmetry_2
Ba0 O1 2.880235 1_556
Ba0 O4 2.880242 1_655
Ba0 O0 2.880269 1_655
Ba0 O2 2.880274 1_556
Ba0 O3 2.888934 1_565
Ba0 O3 2.889021 1_555
Ba0 O5 3.127953 1_655
Ba0 O5 3.127954 1_556
Ba1 O2 2.880235 1_455
Ba1 O0 2.880238 1_554
Ba1 O1 2.880266 1_455
Ba1 O4 2.880267 1_554
Ba1 O5 2.888934 1_545
Ba1 O5 2.889021 1_555
Ba1 O3 3.127953 1_455
Ba1 O3 3.127954 1_554
Mg0 O4 2.001392 1_555
Mg0 O2 2.001396 1_545
Mg0 O0 2.001397 1_545
Mg0 O1 2.001401 1_555
O0 Zn0 1.991544 1_555
O0 W0 2.097792 1_566
O1 Zn0 1.991544 1_555
O1 W0 2.097791 1_655
O2 Zn0 1.991545 1_555
O2 W0 2.097793 1_665
O3 W0 2.073446 1_656
O4 Zn0 1.991545 1_555
O4 W0 2.097793 1_556
O5 W0 2.073441 1_565
