# generated using pymatgen
data_K5ThF9
_symmetry_space_group_name_H-M   'P 1'
_cell_length_a   7.49400440
_cell_length_b   7.49400440
_cell_length_c   10.51056803
_cell_angle_alpha   90.00000000
_cell_angle_beta   90.00000000
_cell_angle_gamma   116.70508142
_symmetry_Int_Tables_number   1
_chemical_formula_structural   K5ThF9
_chemical_formula_sum   'K10 Th2 F18'
_cell_volume   527.31088975
_cell_formula_units_Z   2
loop_
 _symmetry_equiv_pos_site_id
 _symmetry_equiv_pos_as_xyz
  1  'x, y, z'
loop_
 _atom_site_type_symbol
 _atom_site_label
 _atom_site_symmetry_multiplicity
 _atom_site_fract_x
 _atom_site_fract_y
 _atom_site_fract_z
 _atom_site_occupancy
  K  K0  1  0.14512588  0.35150783  0.90087641  1
  K  K1  1  0.85487412  0.64849217  0.40087641  1
  K  K2  1  0.64849217  0.85487412  0.90087641  1
  K  K3  1  0.35150783  0.14512588  0.40087641  1
  K  K4  1  0.11989400  0.39842425  0.55231765  1
  K  K5  1  0.88010600  0.60157575  0.05231765  1
  K  K6  1  0.60157575  0.88010600  0.55231765  1
  K  K7  1  0.39842425  0.11989400  0.05231765  1
  K  K8  1  0.57649774  0.42350226  0.71062697  1
  K  K9  1  0.42350226  0.57649774  0.21062697  1
  Th  Th0  1  0.16239435  0.83760565  0.75037313  1
  Th  Th1  1  0.83760565  0.16239435  0.25037313  1
  F  F0  1  0.49760833  0.05378552  0.77029894  1
  F  F1  1  0.50239167  0.94621448  0.27029894  1
  F  F2  1  0.94621448  0.50239167  0.77029894  1
  F  F3  1  0.05378552  0.49760833  0.27029894  1
  F  F4  1  0.21306146  0.15217644  0.67866085  1
  F  F5  1  0.78693854  0.84782356  0.17866085  1
  F  F6  1  0.84782356  0.78693854  0.67866085  1
  F  F7  1  0.15217644  0.21306146  0.17866085  1
  F  F8  1  0.51921486  0.48078514  0.96121095  1
  F  F9  1  0.48078514  0.51921486  0.46121095  1
  F  F10  1  0.24839512  0.75160488  0.95376064  1
  F  F11  1  0.75160488  0.24839512  0.45376064  1
  F  F12  1  0.95867062  0.04132938  0.41343227  1
  F  F13  1  0.04132938  0.95867062  0.91343227  1
  F  F14  1  0.79934825  0.20065175  0.03589020  1
  F  F15  1  0.20065175  0.79934825  0.53589020  1
  F  F16  1  0.64914772  0.35085228  0.22489615  1
  F  F17  1  0.35085228  0.64914772  0.72489615  1
loop_
_geom_bond_atom_site_label_1
_geom_bond_atom_site_label_2
_geom_bond_distance
_geom_bond_site_symmetry_2
F0 Th0 2.306772 1_545
F0 K2 2.626610 1_545
F0 K8 2.635753 1_555
F0 K6 2.908904 1_545
F0 K7 3.148845 1_556
F1 Th1 2.306772 1_565
F1 K3 2.626610 1_565
F1 K9 2.635753 1_555
F1 K7 2.908904 1_565
F1 K6 3.148845 1_555
F2 Th0 2.306772 1_655
F2 K0 2.626610 1_655
F2 K8 2.635753 1_555
F2 K4 2.908904 1_655
F2 K5 3.148845 1_556
F3 Th1 2.306772 1_455
F3 K1 2.626610 1_455
F3 K9 2.635753 1_555
F3 K5 2.908904 1_455
F3 K4 3.148845 1_555
F4 Th0 2.337753 1_545
F4 K8 2.586069 1_555
F4 K4 2.610437 1_555
F4 K0 2.937554 1_555
F4 K3 3.106926 1_555
F5 Th1 2.337753 1_565
F5 K9 2.586069 1_555
F5 K5 2.610437 1_555
F5 K1 2.937554 1_555
F5 K2 3.106926 1_554
F6 Th0 2.337753 1_655
F6 K8 2.586069 1_555
F6 K6 2.610437 1_555
F6 K2 2.937554 1_555
F6 K1 3.106926 1_555
F7 Th1 2.337753 1_455
F7 K9 2.586069 1_555
F7 K7 2.610437 1_555
F7 K3 2.937554 1_555
F7 K0 3.106926 1_554
F8 K0 2.599772 1_555
F8 K2 2.599772 1_555
F8 K5 2.617328 1_556
F8 K7 2.617328 1_556
F8 K8 2.733311 1_555
F8 K9 2.891997 1_556
F9 K3 2.599772 1_555
F9 K1 2.599772 1_555
F9 K6 2.617328 1_555
F9 K4 2.617328 1_555
F9 K9 2.733311 1_555
F9 K8 2.891997 1_555
F10 Th0 2.402895 1_555
F10 K7 2.676847 1_566
F10 K5 2.676847 1_456
F10 K2 2.795047 1_555
F10 K0 2.795047 1_555
F11 Th1 2.402895 1_555
F11 K4 2.676847 1_655
F11 K6 2.676847 1_545
F11 K3 2.795047 1_555
F11 K1 2.795047 1_555
F12 Th1 2.307234 1_555
F12 K1 2.689046 1_545
F12 K3 2.689046 1_655
F12 K6 2.801071 1_545
F12 K4 2.801071 1_655
F13 Th0 2.307234 1_555
F13 K2 2.689046 1_455
F13 K0 2.689046 1_565
F13 K5 2.801071 1_456
F13 K7 2.801071 1_566
F14 Th1 2.306580 1_555
F14 K2 2.715413 1_544
F14 K0 2.715413 1_654
F14 K7 2.790868 1_555
F14 K5 2.790868 1_555
F15 Th0 2.306580 1_555
F15 K1 2.715413 1_455
F15 K3 2.715413 1_565
F15 K4 2.790868 1_555
F15 K6 2.790868 1_555
F16 Th1 2.419433 1_555
F16 K5 2.625515 1_555
F16 K7 2.625515 1_555
F16 K3 2.771732 1_555
F16 K1 2.771732 1_555
F16 K9 2.882955 1_555
F17 Th0 2.419433 1_555
F17 K6 2.625515 1_555
F17 K4 2.625515 1_555
F17 K0 2.771732 1_555
F17 K2 2.771732 1_555
F17 K8 2.882955 1_555
