# generated using pymatgen
data_LiMg
_symmetry_space_group_name_H-M   'P 1'
_cell_length_a   7.54030687
_cell_length_b   7.54030687
_cell_length_c   4.89957718
_cell_angle_alpha   90.00000000
_cell_angle_beta   90.00000000
_cell_angle_gamma   153.93406904
_symmetry_Int_Tables_number   1
_chemical_formula_structural   LiMg
_chemical_formula_sum   'Li3 Mg3'
_cell_volume   122.40572992
_cell_formula_units_Z   3
loop_
 _symmetry_equiv_pos_site_id
 _symmetry_equiv_pos_as_xyz
  1  'x, y, z'
loop_
 _atom_site_type_symbol
 _atom_site_label
 _atom_site_symmetry_multiplicity
 _atom_site_fract_x
 _atom_site_fract_y
 _atom_site_fract_z
 _atom_site_occupancy
  Li  Li0  1  0.69406296  0.30593704  -0.00000000  1
  Li  Li1  1  0.52513519  0.47486481  0.50000000  1
  Li  Li2  1  0.86455795  0.13544205  0.50000000  1
  Mg  Mg0  1  0.03200040  0.96799960  -0.00000000  1
  Mg  Mg1  1  0.35617808  0.64382192  0.00000000  1
  Mg  Mg2  1  0.19473943  0.80526057  0.50000000  1
loop_
_geom_bond_atom_site_label_1
_geom_bond_atom_site_label_2
_geom_bond_distance
_geom_bond_site_symmetry_2
Li0 Mg0 2.925890 1_545
Li0 Mg0 2.925890 1_655
Li0 Mg1 2.926519 1_545
Li0 Mg1 2.926519 1_655
Li0 Mg2 2.982116 1_545
Li0 Mg2 2.982116 1_544
Li0 Mg2 2.982116 1_654
Li0 Mg2 2.982116 1_655
Li1 Li2 2.908159 1_455
Li1 Li2 2.908159 1_565
Li1 Mg0 2.983805 1_656
Li1 Mg0 2.983805 1_545
Li1 Mg0 2.983805 1_546
Li1 Mg0 2.983805 1_655
Li1 Mg2 3.016748 1_545
Li1 Mg2 3.016748 1_655
Li2 Mg1 2.984640 1_546
Li2 Mg1 2.984640 1_545
Li2 Mg1 2.984640 1_656
Li2 Mg1 2.984640 1_655
Li2 Mg2 3.019349 1_545
Li2 Mg2 3.019349 1_655
Mg0 Mg1 3.092638 1_455
Mg0 Mg1 3.092638 1_565
