# generated using pymatgen
data_KIn5S8
_symmetry_space_group_name_H-M   'P 1'
_cell_length_a   9.74446070
_cell_length_b   9.74446070
_cell_length_c   9.30257819
_cell_angle_alpha   77.06016761
_cell_angle_beta   77.06016761
_cell_angle_gamma   22.95771406
_symmetry_Int_Tables_number   1
_chemical_formula_structural   KIn5S8
_chemical_formula_sum   'K1 In5 S8'
_cell_volume   335.42607853
_cell_formula_units_Z   1
loop_
 _symmetry_equiv_pos_site_id
 _symmetry_equiv_pos_as_xyz
  1  'x, y, z'
loop_
 _atom_site_type_symbol
 _atom_site_label
 _atom_site_symmetry_multiplicity
 _atom_site_fract_x
 _atom_site_fract_y
 _atom_site_fract_z
 _atom_site_occupancy
  K  K0  1  0.50000000  0.50000000  0.50000000  1
  In  In0  1  0.28731479  0.28731479  0.33782225  1
  In  In1  1  0.35499535  0.35499535  0.90843861  1
  In  In2  1  0.64500465  0.64500465  0.09156139  1
  In  In3  1  0.71268521  0.71268521  0.66217775  1
  In  In4  1  0.00000000  0.00000000  -0.00000000  1
  S  S0  1  0.16459083  0.16459083  0.52431496  1
  S  S1  1  0.06885434  0.06885434  0.21620333  1
  S  S2  1  0.93114566  0.93114566  0.78379667  1
  S  S3  1  0.41450279  0.41450279  0.12421702  1
  S  S4  1  0.58549721  0.58549721  0.87578298  1
  S  S5  1  0.23801665  0.23801665  0.84586793  1
  S  S6  1  0.76198335  0.76198335  0.15413207  1
  S  S7  1  0.83540917  0.83540917  0.47568504  1
loop_
_geom_bond_atom_site_label_1
_geom_bond_atom_site_label_2
_geom_bond_distance
_geom_bond_site_symmetry_2
K0 S1 3.297441 1_565
K0 S1 3.297441 1_655
K0 S2 3.297441 1_545
K0 S2 3.297441 1_455
K0 S7 3.744125 1_455
K0 S7 3.744125 1_545
K0 S0 3.744125 1_655
K0 S0 3.744125 1_565
In0 S0 2.577864 1_555
In0 S7 2.605263 1_455
In0 S7 2.605263 1_545
In0 S6 2.700442 1_545
In0 S6 2.700442 1_455
In0 S3 2.764685 1_555
In1 S5 2.434072 1_555
In1 S3 2.522605 1_556
In1 S2 2.539602 1_545
In1 S2 2.539602 1_455
In2 S6 2.434072 1_555
In2 S4 2.522605 1_554
In2 S1 2.539602 1_565
In2 S1 2.539602 1_655
In3 S7 2.577864 1_555
In3 S0 2.605263 1_565
In3 S0 2.605263 1_655
In3 S5 2.700442 1_565
In3 S5 2.700442 1_655
In3 S4 2.764685 1_555
In4 S4 2.626771 1_544
In4 S3 2.626771 1_455
In4 S4 2.626771 1_454
In4 S3 2.626771 1_545
In4 S1 2.642575 1_555
In4 S2 2.642575 1_444
