# generated using pymatgen
data_Ba3MnNb2O9
_symmetry_space_group_name_H-M   'P 1'
_cell_length_a   9.36353739
_cell_length_b   9.36353730
_cell_length_c   11.81997335
_cell_angle_alpha   108.39614474
_cell_angle_beta   108.39614438
_cell_angle_gamma   66.26944326
_symmetry_Int_Tables_number   1
_chemical_formula_structural   Ba3MnNb2O9
_chemical_formula_sum   'Ba12 Mn4 Nb8 O36'
_cell_volume   878.75167231
_cell_formula_units_Z   4
loop_
 _symmetry_equiv_pos_site_id
 _symmetry_equiv_pos_as_xyz
  1  'x, y, z'
loop_
 _atom_site_type_symbol
 _atom_site_label
 _atom_site_symmetry_multiplicity
 _atom_site_fract_x
 _atom_site_fract_y
 _atom_site_fract_z
 _atom_site_occupancy
  Ba  Ba0  1  0.00000000  0.00000000  0.50000000  1
  Ba  Ba1  1  0.50000000  0.50000000  0.75000000  1
  Ba  Ba2  1  0.00000000  0.00000000  0.00000000  1
  Ba  Ba3  1  0.50000000  0.50000000  0.25000000  1
  Ba  Ba4  1  0.16684500  0.50017900  0.41675600  1
  Ba  Ba5  1  0.66684500  0.00017900  0.66675600  1
  Ba  Ba6  1  0.16684500  0.50017900  0.91675600  1
  Ba  Ba7  1  0.66684500  0.00017900  0.16675600  1
  Ba  Ba8  1  0.33315500  0.99982100  0.33324400  1
  Ba  Ba9  1  0.83315500  0.49982100  0.58324400  1
  Ba  Ba10  1  0.33315500  0.99982100  0.83324400  1
  Ba  Ba11  1  0.83315500  0.49982100  0.08324400  1
  Mn  Mn0  1  0.25000000  0.25000000  0.62500000  1
  Mn  Mn1  1  0.75000000  0.75000000  0.87500000  1
  Mn  Mn2  1  0.25000000  0.25000000  0.12500000  1
  Mn  Mn3  1  0.75000000  0.75000000  0.37500000  1
  Nb  Nb0  1  0.92092400  0.25425700  0.29379500  1
  Nb  Nb1  1  0.42092400  0.75425700  0.54379500  1
  Nb  Nb2  1  0.92092400  0.25425700  0.79379500  1
  Nb  Nb3  1  0.42092400  0.75425700  0.04379500  1
  Nb  Nb4  1  0.57907600  0.24574300  0.45620500  1
  Nb  Nb5  1  0.07907600  0.74574300  0.70620500  1
  Nb  Nb6  1  0.57907600  0.24574300  0.95620500  1
  Nb  Nb7  1  0.07907600  0.74574300  0.20620500  1
  O  O0  1  0.25000000  0.75000000  0.37500000  1
  O  O1  1  0.75000000  0.25000000  0.62500000  1
  O  O2  1  0.25000000  0.75000000  0.87500000  1
  O  O3  1  0.75000000  0.25000000  0.12500000  1
  O  O4  1  0.75000000  0.25000000  0.37500000  1
  O  O5  1  0.25000000  0.75000000  0.62500000  1
  O  O6  1  0.75000000  0.25000000  0.87500000  1
  O  O7  1  0.25000000  0.75000000  0.12500000  1
  O  O8  1  0.00000000  0.00000000  0.25000000  1
  O  O9  1  0.50000000  0.50000000  0.50000000  1
  O  O10  1  0.00000000  0.00000000  0.75000000  1
  O  O11  1  0.50000000  0.50000000  0.00000000  1
  O  O12  1  0.42589500  0.25243900  0.53949200  1
  O  O13  1  0.92589500  0.75243900  0.78949200  1
  O  O14  1  0.42589500  0.25243900  0.03949200  1
  O  O15  1  0.92589500  0.75243900  0.28949200  1
  O  O16  1  0.66571100  0.01262200  0.41958300  1
  O  O17  1  0.16571100  0.51262200  0.66958300  1
  O  O18  1  0.66571100  0.01262200  0.91958300  1
  O  O19  1  0.16571100  0.51262200  0.16958300  1
  O  O20  1  0.42589500  0.25243900  0.29967500  1
  O  O21  1  0.92589500  0.75243900  0.54967500  1
  O  O22  1  0.42589500  0.25243900  0.79967500  1
  O  O23  1  0.92589500  0.75243900  0.04967500  1
  O  O24  1  0.83428900  0.48737800  0.33041700  1
  O  O25  1  0.33428900  0.98737800  0.58041700  1
  O  O26  1  0.83428900  0.48737800  0.83041700  1
  O  O27  1  0.33428900  0.98737800  0.08041700  1
  O  O28  1  0.07410500  0.24756100  0.21050800  1
  O  O29  1  0.57410500  0.74756100  0.46050800  1
  O  O30  1  0.07410500  0.24756100  0.71050800  1
  O  O31  1  0.57410500  0.74756100  0.96050800  1
  O  O32  1  0.07410500  0.24756100  0.45032500  1
  O  O33  1  0.57410500  0.74756100  0.70032500  1
  O  O34  1  0.07410500  0.24756100  0.95032500  1
  O  O35  1  0.57410500  0.74756100  0.20032500  1
loop_
_geom_bond_atom_site_label_1
_geom_bond_atom_site_label_2
_geom_bond_distance
_geom_bond_site_symmetry_2
Ba0 O30 2.934345 1_555
Ba0 O15 2.934345 1_445
Ba0 O32 2.934345 1_555
Ba0 O21 2.934345 1_445
Ba0 O25 2.934351 1_545
Ba0 O16 2.934351 1_455
Ba0 O10 2.954993 1_555
Ba0 O8 2.954993 1_555
Ba0 O0 2.954993 1_545
Ba0 O1 2.954993 1_455
Ba0 O4 2.954993 1_455
Ba0 O5 2.954993 1_545
Ba1 O31 2.934345 1_555
Ba1 O12 2.934345 1_555
Ba1 O33 2.934345 1_555
Ba1 O22 2.934345 1_555
Ba1 O26 2.934351 1_555
Ba1 O17 2.934351 1_555
Ba1 O9 2.954993 1_555
Ba1 O11 2.954993 1_556
Ba1 O1 2.954993 1_555
Ba1 O2 2.954993 1_555
Ba1 O6 2.954993 1_555
Ba1 O5 2.954993 1_555
Ba2 O28 2.934345 1_555
Ba2 O13 2.934345 1_444
Ba2 O34 2.934345 1_554
Ba2 O23 2.934345 1_445
Ba2 O27 2.934351 1_545
Ba2 O18 2.934351 1_454
Ba2 O10 2.954993 1_554
Ba2 O8 2.954993 1_555
Ba2 O3 2.954993 1_455
Ba2 O2 2.954993 1_544
Ba2 O6 2.954993 1_454
Ba2 O7 2.954993 1_545
Ba3 O29 2.934345 1_555
Ba3 O14 2.934345 1_555
Ba3 O35 2.934345 1_555
Ba3 O20 2.934345 1_555
Ba3 O24 2.934351 1_555
Ba3 O19 2.934351 1_555
Ba3 O9 2.954993 1_555
Ba3 O11 2.954993 1_555
Ba3 O3 2.954993 1_555
Ba3 O0 2.954993 1_555
Ba3 O7 2.954993 1_555
Ba3 O4 2.954993 1_555
Ba4 O21 2.956946 1_455
Ba4 O15 2.956946 1_455
Ba4 O17 2.956948 1_555
Ba4 O19 2.956954 1_555
Ba4 O20 2.956957 1_555
Ba4 O12 2.956958 1_555
Ba4 O5 2.959556 1_555
Ba4 O0 2.959556 1_555
Ba4 O9 2.959559 1_555
Ba4 O24 2.994942 1_455
Ba4 O28 2.994951 1_555
Ba4 O32 2.994951 1_555
Ba5 O22 2.956946 1_555
Ba5 O12 2.956946 1_555
Ba5 O18 2.956948 1_555
Ba5 O16 2.956954 1_555
Ba5 O21 2.956957 1_545
Ba5 O13 2.956958 1_545
Ba5 O6 2.959556 1_555
Ba5 O1 2.959556 1_555
Ba5 O10 2.959559 1_655
Ba5 O25 2.994942 1_545
Ba5 O29 2.994951 1_545
Ba5 O33 2.994951 1_545
Ba6 O23 2.956946 1_456
Ba6 O13 2.956946 1_455
Ba6 O19 2.956948 1_556
Ba6 O17 2.956954 1_555
Ba6 O22 2.956957 1_555
Ba6 O14 2.956958 1_556
Ba6 O7 2.959556 1_556
Ba6 O2 2.959556 1_555
Ba6 O11 2.959559 1_556
Ba6 O26 2.994942 1_455
Ba6 O30 2.994951 1_555
Ba6 O34 2.994951 1_555
Ba7 O20 2.956946 1_555
Ba7 O14 2.956946 1_555
Ba7 O16 2.956948 1_555
Ba7 O18 2.956954 1_554
Ba7 O23 2.956957 1_545
Ba7 O15 2.956958 1_545
Ba7 O4 2.959556 1_555
Ba7 O3 2.959556 1_555
Ba7 O8 2.959559 1_655
Ba7 O27 2.994942 1_545
Ba7 O31 2.994951 1_544
Ba7 O35 2.994951 1_545
Ba8 O35 2.956946 1_555
Ba8 O29 2.956946 1_555
Ba8 O27 2.956948 1_555
Ba8 O25 2.956954 1_555
Ba8 O32 2.956957 1_565
Ba8 O28 2.956958 1_565
Ba8 O7 2.959556 1_555
Ba8 O0 2.959556 1_555
Ba8 O8 2.959559 1_565
Ba8 O16 2.994942 1_565
Ba8 O12 2.994951 1_565
Ba8 O20 2.994951 1_565
Ba9 O32 2.956946 1_655
Ba9 O30 2.956946 1_655
Ba9 O24 2.956948 1_555
Ba9 O26 2.956954 1_555
Ba9 O33 2.956957 1_555
Ba9 O29 2.956958 1_555
Ba9 O4 2.959556 1_555
Ba9 O1 2.959556 1_555
Ba9 O9 2.959559 1_555
Ba9 O17 2.994942 1_655
Ba9 O13 2.994951 1_555
Ba9 O21 2.994951 1_555
Ba10 O33 2.956946 1_555
Ba10 O31 2.956946 1_555
Ba10 O25 2.956948 1_555
Ba10 O27 2.956954 1_556
Ba10 O34 2.956957 1_565
Ba10 O30 2.956958 1_565
Ba10 O5 2.959556 1_555
Ba10 O2 2.959556 1_555
Ba10 O10 2.959559 1_565
Ba10 O18 2.994942 1_565
Ba10 O14 2.994951 1_566
Ba10 O22 2.994951 1_565
Ba11 O34 2.956946 1_654
Ba11 O28 2.956946 1_655
Ba11 O26 2.956948 1_554
Ba11 O24 2.956954 1_555
Ba11 O35 2.956957 1_555
Ba11 O31 2.956958 1_554
Ba11 O6 2.959556 1_554
Ba11 O3 2.959556 1_555
Ba11 O11 2.959559 1_555
Ba11 O19 2.994942 1_655
Ba11 O15 2.994951 1_555
Ba11 O23 2.994951 1_555
Mn0 O25 2.197757 1_545
Mn0 O17 2.197757 1_555
Mn0 O22 2.197761 1_555
Mn0 O32 2.197761 1_555
Mn0 O12 2.197761 1_555
Mn0 O30 2.197761 1_555
Mn1 O18 2.197757 1_565
Mn1 O26 2.197757 1_555
Mn1 O23 2.197761 1_556
Mn1 O33 2.197761 1_555
Mn1 O13 2.197761 1_555
Mn1 O31 2.197761 1_555
Mn2 O19 2.197757 1_555
Mn2 O27 2.197757 1_545
Mn2 O20 2.197761 1_555
Mn2 O34 2.197761 1_554
Mn2 O14 2.197761 1_555
Mn2 O28 2.197761 1_555
Mn3 O16 2.197757 1_565
Mn3 O24 2.197757 1_555
Mn3 O21 2.197761 1_555
Mn3 O35 2.197761 1_555
Mn3 O15 2.197761 1_555
Mn3 O29 2.197761 1_555
Nb0 O28 1.951978 1_655
Nb0 O32 1.951982 1_655
Nb0 O24 1.951986 1_555
Nb0 O3 2.128239 1_555
Nb0 O8 2.128240 1_655
Nb0 O4 2.128244 1_555
Nb1 O29 1.951978 1_555
Nb1 O33 1.951982 1_555
Nb1 O25 1.951986 1_555
Nb1 O0 2.128239 1_555
Nb1 O9 2.128240 1_555
Nb1 O5 2.128244 1_555
Nb2 O30 1.951978 1_655
Nb2 O34 1.951982 1_655
Nb2 O26 1.951986 1_555
Nb2 O1 2.128239 1_555
Nb2 O10 2.128240 1_655
Nb2 O6 2.128244 1_555
Nb3 O31 1.951978 1_554
Nb3 O35 1.951982 1_555
Nb3 O27 1.951986 1_555
Nb3 O2 2.128239 1_554
Nb3 O11 2.128240 1_555
Nb3 O7 2.128244 1_555
Nb4 O12 1.951978 1_555
Nb4 O20 1.951982 1_555
Nb4 O16 1.951986 1_555
Nb4 O1 2.128239 1_555
Nb4 O9 2.128240 1_555
Nb4 O4 2.128244 1_555
Nb5 O13 1.951978 1_455
Nb5 O21 1.951982 1_455
Nb5 O17 1.951986 1_555
Nb5 O2 2.128239 1_555
Nb5 O10 2.128240 1_565
Nb5 O5 2.128244 1_555
Nb6 O14 1.951978 1_556
Nb6 O22 1.951982 1_555
Nb6 O18 1.951986 1_555
Nb6 O3 2.128239 1_556
Nb6 O11 2.128240 1_556
Nb6 O6 2.128244 1_555
Nb7 O15 1.951978 1_455
Nb7 O23 1.951982 1_455
Nb7 O19 1.951986 1_555
Nb7 O0 2.128239 1_555
Nb7 O8 2.128240 1_565
Nb7 O7 2.128244 1_555
