# generated using pymatgen
data_Na12Ca4Ta2Si3(PO6)6
_symmetry_space_group_name_H-M   'P 1'
_cell_length_a   9.38226567
_cell_length_b   9.38226532
_cell_length_c   22.81180993
_cell_angle_alpha   90.00000000
_cell_angle_beta   90.00000000
_cell_angle_gamma   120.00000121
_symmetry_Int_Tables_number   1
_chemical_formula_structural   Na12Ca4Ta2Si3(PO6)6
_chemical_formula_sum   'Na24 Ca8 Ta4 Si6 P12 O72'
_cell_volume   1739.02492661
_cell_formula_units_Z   2
loop_
 _symmetry_equiv_pos_site_id
 _symmetry_equiv_pos_as_xyz
  1  'x, y, z'
loop_
 _atom_site_type_symbol
 _atom_site_label
 _atom_site_symmetry_multiplicity
 _atom_site_fract_x
 _atom_site_fract_y
 _atom_site_fract_z
 _atom_site_occupancy
  Na  Na0  1  0.64887200  0.00821954  0.24542666  1
  Na  Na1  1  0.35934754  0.35112800  0.24542666  1
  Na  Na2  1  0.99178046  0.64065246  0.24542666  1
  Na  Na3  1  0.64887200  0.64065246  0.74542666  1
  Na  Na4  1  0.99178046  0.35112800  0.74542666  1
  Na  Na5  1  0.35934754  0.00821954  0.74542666  1
  Na  Na6  1  0.29456904  0.33992207  0.57815269  1
  Na  Na7  1  0.04535403  0.70543096  0.57815269  1
  Na  Na8  1  0.66007793  0.95464597  0.57815269  1
  Na  Na9  1  0.29456904  0.95464597  0.07815269  1
  Na  Na10  1  0.66007793  0.70543096  0.07815269  1
  Na  Na11  1  0.04535403  0.33992207  0.07815269  1
  Na  Na12  1  0.98452054  0.69449107  0.91544649  1
  Na  Na13  1  0.70996954  0.01547946  0.91544649  1
  Na  Na14  1  0.30550893  0.29003046  0.91544649  1
  Na  Na15  1  0.98452054  0.29003046  0.41544649  1
  Na  Na16  1  0.30550893  0.01547946  0.41544649  1
  Na  Na17  1  0.70996954  0.69449107  0.41544649  1
  Na  Na18  1  0.00000000  0.00000000  0.49370561  1
  Na  Na19  1  0.00000000  0.00000000  0.99370561  1
  Na  Na20  1  0.66666700  0.33333300  0.82941628  1
  Na  Na21  1  0.66666700  0.33333300  0.32941628  1
  Na  Na22  1  0.33333300  0.66666700  0.16166840  1
  Na  Na23  1  0.33333300  0.66666700  0.66166840  1
  Ca  Ca0  1  0.00000000  0.00000000  0.34671223  1
  Ca  Ca1  1  0.00000000  0.00000000  0.84671223  1
  Ca  Ca2  1  0.00000000  0.00000000  0.65040202  1
  Ca  Ca3  1  0.00000000  0.00000000  0.15040202  1
  Ca  Ca4  1  0.66666700  0.33333300  0.68308529  1
  Ca  Ca5  1  0.66666700  0.33333300  0.18308529  1
  Ca  Ca6  1  0.33333300  0.66666700  0.01436944  1
  Ca  Ca7  1  0.33333300  0.66666700  0.51436944  1
  Ta  Ta0  1  0.66666700  0.33333300  0.97809919  1
  Ta  Ta1  1  0.66666700  0.33333300  0.47809919  1
  Ta  Ta2  1  0.33333300  0.66666700  0.32339473  1
  Ta  Ta3  1  0.33333300  0.66666700  0.82339473  1
  Si  Si0  1  0.63021821  0.65991447  0.92068898  1
  Si  Si1  1  0.02969527  0.36978179  0.92068898  1
  Si  Si2  1  0.34008553  0.97030473  0.92068898  1
  Si  Si3  1  0.63021821  0.97030473  0.42068898  1
  Si  Si4  1  0.34008553  0.36978179  0.42068898  1
  Si  Si5  1  0.02969527  0.65991447  0.42068898  1
  P  P0  1  0.30681194  0.98656458  0.25277331  1
  P  P1  1  0.67975264  0.69318806  0.25277331  1
  P  P2  1  0.01343542  0.32024736  0.25277331  1
  P  P3  1  0.30681194  0.32024736  0.75277331  1
  P  P4  1  0.01343542  0.69318806  0.75277331  1
  P  P5  1  0.67975264  0.98656458  0.75277331  1
  P  P6  1  0.95550386  0.33099950  0.58194371  1
  P  P7  1  0.37549663  0.04449614  0.58194371  1
  P  P8  1  0.66900050  0.62450337  0.58194371  1
  P  P9  1  0.95550386  0.62450337  0.08194371  1
  P  P10  1  0.66900050  0.04449614  0.08194371  1
  P  P11  1  0.37549663  0.33099950  0.08194371  1
  O  O0  1  0.22552672  0.01308341  0.30623119  1
  O  O1  1  0.78755669  0.77447328  0.30623119  1
  O  O2  1  0.98691659  0.21244331  0.30623119  1
  O  O3  1  0.22552672  0.21244331  0.80623119  1
  O  O4  1  0.98691659  0.77447328  0.80623119  1
  O  O5  1  0.78755669  0.01308341  0.80623119  1
  O  O6  1  0.75203956  0.95362230  0.69674087  1
  O  O7  1  0.20158274  0.24796044  0.69674087  1
  O  O8  1  0.04637770  0.79841726  0.69674087  1
  O  O9  1  0.75203956  0.79841726  0.19674087  1
  O  O10  1  0.04637770  0.24796044  0.19674087  1
  O  O11  1  0.20158274  0.95362230  0.19674087  1
  O  O12  1  0.87910134  0.34254124  0.63894336  1
  O  O13  1  0.46344090  0.12089866  0.63894336  1
  O  O14  1  0.65745876  0.53655910  0.63894336  1
  O  O15  1  0.87910134  0.53655910  0.13894336  1
  O  O16  1  0.65745876  0.12089866  0.13894336  1
  O  O17  1  0.46344090  0.34254124  0.13894336  1
  O  O18  1  0.48713413  0.32891413  0.02827215  1
  O  O19  1  0.84178100  0.51286587  0.02827215  1
  O  O20  1  0.67108587  0.15821900  0.02827215  1
  O  O21  1  0.48713413  0.15821900  0.52827215  1
  O  O22  1  0.67108587  0.51286587  0.52827215  1
  O  O23  1  0.84178100  0.32891413  0.52827215  1
  O  O24  1  0.56225565  0.69586976  0.97899835  1
  O  O25  1  0.13361311  0.43774435  0.97899835  1
  O  O26  1  0.30413024  0.86638689  0.97899835  1
  O  O27  1  0.56225565  0.86638689  0.47899835  1
  O  O28  1  0.30413024  0.43774435  0.47899835  1
  O  O29  1  0.13361311  0.69586976  0.47899835  1
  O  O30  1  0.13917197  0.63528044  0.36480996  1
  O  O31  1  0.49610747  0.86082803  0.36480996  1
  O  O32  1  0.36471956  0.50389253  0.36480996  1
  O  O33  1  0.13917197  0.50389253  0.86480996  1
  O  O34  1  0.36471956  0.86082803  0.86480996  1
  O  O35  1  0.49610747  0.63528044  0.86480996  1
  O  O36  1  0.99182947  0.80589770  0.40841888  1
  O  O37  1  0.81406823  0.00817053  0.40841888  1
  O  O38  1  0.19410230  0.18593177  0.40841888  1
  O  O39  1  0.99182947  0.18593177  0.90841888  1
  O  O40  1  0.19410230  0.00817053  0.90841888  1
  O  O41  1  0.81406823  0.80589770  0.90841888  1
  O  O42  1  0.95844573  0.16741102  0.57637284  1
  O  O43  1  0.20896529  0.04155427  0.57637284  1
  O  O44  1  0.83258898  0.79103471  0.57637284  1
  O  O45  1  0.95844573  0.79103471  0.07637284  1
  O  O46  1  0.83258898  0.04155427  0.07637284  1
  O  O47  1  0.20896529  0.16741102  0.07637284  1
  O  O48  1  0.64899556  0.13354633  0.74882451  1
  O  O49  1  0.48455177  0.35100444  0.74882451  1
  O  O50  1  0.86645367  0.51544823  0.74882451  1
  O  O51  1  0.64899556  0.51544823  0.24882451  1
  O  O52  1  0.86645367  0.35100444  0.24882451  1
  O  O53  1  0.48455177  0.13354633  0.24882451  1
  O  O54  1  0.62824998  0.47875863  0.92394011  1
  O  O55  1  0.85050965  0.37175002  0.92394011  1
  O  O56  1  0.52124137  0.14949035  0.92394011  1
  O  O57  1  0.62824998  0.14949035  0.42394011  1
  O  O58  1  0.52124137  0.37175002  0.42394011  1
  O  O59  1  0.85050965  0.47875863  0.42394011  1
  O  O60  1  0.35441733  0.48358280  0.07892300  1
  O  O61  1  0.12916447  0.64558267  0.07892300  1
  O  O62  1  0.51641720  0.87083553  0.07892300  1
  O  O63  1  0.35441733  0.87083553  0.57892300  1
  O  O64  1  0.51641720  0.64558267  0.57892300  1
  O  O65  1  0.12916447  0.48358280  0.57892300  1
  O  O66  1  0.31911566  0.82366447  0.26147521  1
  O  O67  1  0.50454781  0.68088434  0.26147521  1
  O  O68  1  0.17633553  0.49545219  0.26147521  1
  O  O69  1  0.31911566  0.49545219  0.76147521  1
  O  O70  1  0.17633553  0.68088434  0.76147521  1
  O  O71  1  0.50454781  0.82366447  0.76147521  1
loop_
_geom_bond_atom_site_label_1
_geom_bond_atom_site_label_2
_geom_bond_distance
_geom_bond_site_symmetry_2
Na0 O53 2.361834 1_555
Na0 O16 2.634269 1_555
Na0 O67 2.690895 1_545
Na0 O66 2.710552 1_545
Na0 O9 2.819642 1_545
Na0 O52 2.819801 1_555
Na1 O51 2.361841 1_555
Na1 O17 2.634273 1_555
Na1 O68 2.690903 1_555
Na1 O67 2.710553 1_555
Na1 O10 2.819642 1_555
Na1 O53 2.819808 1_555
Na2 O52 2.361842 1_555
Na2 O15 2.634271 1_555
Na2 O66 2.690896 1_655
Na2 O68 2.710545 1_655
Na2 O11 2.819642 1_655
Na2 O51 2.819800 1_555
Na3 O49 2.361841 1_555
Na3 O14 2.634273 1_555
Na3 O71 2.690903 1_555
Na3 O69 2.710553 1_555
Na3 O6 2.819642 1_555
Na3 O50 2.819808 1_555
Na4 O50 2.361834 1_555
Na4 O12 2.634269 1_555
Na4 O69 2.690895 1_655
Na4 O70 2.710552 1_655
Na4 O7 2.819642 1_655
Na4 O48 2.819801 1_555
Na5 O48 2.361842 1_555
Na5 O13 2.634271 1_555
Na5 O70 2.690895 1_545
Na5 O71 2.710545 1_545
Na5 O8 2.819642 1_545
Na5 O49 2.819799 1_555
Na6 O28 2.425739 1_555
Na6 O43 2.496964 1_555
Na6 O65 2.513374 1_555
Na6 O64 2.566667 1_555
Na6 O42 2.731717 1_455
Na6 O7 2.840949 1_555
Na7 O29 2.425732 1_555
Na7 O44 2.496973 1_455
Na7 O63 2.513359 1_555
Na7 O65 2.566654 1_555
Na7 O43 2.731717 1_565
Na7 O8 2.840951 1_555
Na8 O27 2.425736 1_555
Na8 O42 2.496966 1_565
Na8 O64 2.513358 1_555
Na8 O63 2.566672 1_555
Na8 O44 2.731709 1_555
Na8 O6 2.840948 1_555
Na9 O26 2.425732 1_554
Na9 O47 2.496973 1_565
Na9 O61 2.513358 1_555
Na9 O62 2.566654 1_555
Na9 O45 2.731717 1_455
Na9 O11 2.840951 1_555
Na10 O24 2.425739 1_554
Na10 O45 2.496964 1_555
Na10 O62 2.513374 1_555
Na10 O60 2.566667 1_555
Na10 O46 2.731717 1_565
Na10 O9 2.840949 1_555
Na11 O25 2.425736 1_554
Na11 O46 2.496966 1_455
Na11 O60 2.513358 1_555
Na11 O61 2.566672 1_555
Na11 O47 2.731709 1_555
Na11 O10 2.840948 1_555
Na12 O41 2.312436 1_555
Na12 O4 2.598812 1_555
Na12 O40 2.601271 1_665
Na12 O55 2.642009 1_555
Na13 O39 2.312444 1_555
Na13 O5 2.598815 1_555
Na13 O41 2.601278 1_545
Na13 O56 2.641992 1_555
Na14 O40 2.312445 1_555
Na14 O3 2.598813 1_555
Na14 O39 2.601269 1_455
Na14 O54 2.642008 1_555
Na15 O37 2.312444 1_555
Na15 O2 2.598815 1_555
Na15 O38 2.601278 1_655
Na15 O59 2.641992 1_555
Na16 O38 2.312436 1_555
Na16 O0 2.598812 1_555
Na16 O36 2.601271 1_445
Na16 O57 2.642009 1_555
Na17 O36 2.312445 1_555
Na17 O1 2.598813 1_555
Na17 O37 2.601269 1_565
Na17 O58 2.642007 1_555
Na18 O44 2.605313 1_445
Na18 O42 2.605313 1_455
Na18 O43 2.605313 1_555
Na18 O36 2.639677 1_445
Na18 O38 2.639677 1_555
Na18 O37 2.639677 1_455
Na19 O45 2.605313 1_446
Na19 O47 2.605313 1_556
Na19 O46 2.605313 1_456
Na19 O41 2.639677 1_445
Na19 O39 2.639677 1_455
Na19 O40 2.639677 1_555
Na20 O48 2.571022 1_555
Na20 O50 2.571022 1_555
Na20 O49 2.571022 1_555
Na20 O56 2.670732 1_555
Na20 O54 2.670732 1_555
Na20 O55 2.670732 1_555
Na21 O53 2.571022 1_555
Na21 O51 2.571022 1_555
Na21 O52 2.571022 1_555
Na21 O57 2.670732 1_555
Na21 O59 2.670732 1_555
Na21 O58 2.670732 1_555
Na22 O62 2.625359 1_555
Na22 O60 2.625359 1_555
Na22 O61 2.625359 1_555
Na22 O68 2.750942 1_555
Na22 O66 2.750942 1_555
Na22 O67 2.750942 1_555
Na23 O63 2.625359 1_555
Na23 O65 2.625359 1_555
Na23 O64 2.625359 1_555
Na23 O69 2.750942 1_555
Na23 O71 2.750942 1_555
Na23 O70 2.750942 1_555
Ca0 O1 2.255068 1_445
Ca0 O2 2.255068 1_455
Ca0 O0 2.255069 1_555
Ca0 O36 2.272488 1_445
Ca0 O38 2.272488 1_555
Ca0 O37 2.272488 1_455
Ca1 O4 2.255068 1_445
Ca1 O3 2.255068 1_555
Ca1 O5 2.255069 1_455
Ca1 O41 2.272488 1_445
Ca1 O39 2.272488 1_455
Ca1 O40 2.272488 1_555
Ca2 O7 2.388875 1_555
Ca2 O8 2.388875 1_545
Ca2 O6 2.388875 1_445
Ca2 O44 2.466434 1_445
Ca2 O42 2.466434 1_455
Ca2 O43 2.466434 1_555
Ca3 O10 2.388875 1_555
Ca3 O9 2.388875 1_445
Ca3 O11 2.388875 1_545
Ca3 O45 2.466434 1_445
Ca3 O47 2.466434 1_555
Ca3 O46 2.466434 1_455
Ca4 O13 2.195847 1_555
Ca4 O14 2.195847 1_555
Ca4 O12 2.195847 1_555
Ca4 O48 2.340762 1_555
Ca4 O50 2.340762 1_555
Ca4 O49 2.340763 1_555
Ca5 O16 2.195847 1_555
Ca5 O15 2.195847 1_555
Ca5 O17 2.195847 1_555
Ca5 O53 2.340762 1_555
Ca5 O51 2.340762 1_555
Ca5 O52 2.340763 1_555
Ca6 O25 2.179621 1_554
Ca6 O26 2.179621 1_554
Ca6 O24 2.179621 1_554
Ca6 O62 2.344799 1_555
Ca6 O60 2.344799 1_555
Ca6 O61 2.344799 1_555
Ca7 O28 2.179621 1_555
Ca7 O27 2.179621 1_555
Ca7 O29 2.179621 1_555
Ca7 O63 2.344799 1_555
Ca7 O65 2.344799 1_555
Ca7 O64 2.344799 1_555
O0 P0 1.523280 1_545
O1 P1 1.523280 1_555
O2 P2 1.523280 1_655
O3 P3 1.523280 1_555
O4 P4 1.523280 1_655
O5 P5 1.523280 1_545
O6 P5 1.548844 1_555
O7 P3 1.548844 1_555
O8 P4 1.548844 1_555
O9 P1 1.548844 1_555
O10 P2 1.548844 1_555
O11 P0 1.548844 1_555
O12 P6 1.514557 1_555
O13 P7 1.514557 1_555
O14 P8 1.514557 1_555
O15 P9 1.514557 1_555
O16 P10 1.514557 1_555
O17 P11 1.514557 1_555
O18 P11 1.617705 1_555
O18 Ta0 2.019687 1_554
O19 P9 1.617705 1_555
O19 Ta0 2.019687 1_554
O20 P10 1.617705 1_555
O20 Ta0 2.019687 1_554
O21 P7 1.617705 1_555
O21 Ta1 2.019687 1_555
O22 P8 1.617705 1_555
O22 Ta1 2.019687 1_555
O23 P6 1.617705 1_555
O23 Ta1 2.019687 1_555
O24 Si0 1.582647 1_555
O25 Si1 1.582647 1_555
O26 Si2 1.582647 1_555
O27 Si3 1.582647 1_555
O28 Si4 1.582647 1_555
O29 Si5 1.582647 1_555
O30 Si5 1.723570 1_555
O30 Ta2 1.939413 1_555
O31 Si3 1.723570 1_555
O31 Ta2 1.939413 1_555
O32 Si4 1.723570 1_555
O32 Ta2 1.939413 1_555
O33 Si1 1.723570 1_555
O33 Ta3 1.939413 1_555
O34 Si2 1.723570 1_555
O34 Ta3 1.939413 1_555
O35 Si0 1.723570 1_555
O35 Ta3 1.939413 1_555
O36 Si5 1.602218 1_655
O37 Si3 1.602227 1_545
O38 Si4 1.602224 1_555
O39 Si1 1.602227 1_655
O40 Si2 1.602218 1_545
O41 Si0 1.602224 1_555
O42 P6 1.554021 1_555
O43 P7 1.554030 1_555
O44 P8 1.554025 1_555
O45 P9 1.554030 1_555
O46 P10 1.554021 1_555
O47 P11 1.554025 1_555
O48 P5 1.546297 1_545
O49 P3 1.546306 1_555
O50 P4 1.546303 1_655
O51 P1 1.546306 1_555
O52 P2 1.546297 1_655
O53 P0 1.546303 1_545
O54 Si0 1.692121 1_555
O54 Ta0 2.002431 1_555
O55 Si1 1.692102 1_655
O55 Ta0 2.002431 1_555
O56 Si2 1.692111 1_545
O56 Ta0 2.002431 1_555
O57 Si3 1.692102 1_545
O57 Ta1 2.002431 1_555
O58 Si4 1.692121 1_555
O58 Ta1 2.002431 1_555
O59 Si5 1.692111 1_655
O59 Ta1 2.002431 1_555
O60 P11 1.541558 1_555
O61 P9 1.541539 1_455
O62 P10 1.541547 1_565
O63 P7 1.541539 1_565
O64 P8 1.541558 1_555
O65 P6 1.541547 1_455
O66 P0 1.601587 1_555
O66 Ta2 2.092637 1_555
O67 P1 1.601597 1_555
O67 Ta2 2.092637 1_555
O68 P2 1.601592 1_555
O68 Ta2 2.092637 1_555
O69 P3 1.601597 1_555
O69 Ta3 2.092637 1_555
O70 P4 1.601587 1_555
O70 Ta3 2.092637 1_555
O71 P5 1.601592 1_555
O71 Ta3 2.092637 1_555
