# generated using pymatgen
data_Na7ZnSi3Ge3(PO8)3
_symmetry_space_group_name_H-M   'P 1'
_cell_length_a   8.78174189
_cell_length_b   8.78591300
_cell_length_c   21.72501972
_cell_angle_alpha   89.45456328
_cell_angle_beta   90.46702161
_cell_angle_gamma   119.86395626
_symmetry_Int_Tables_number   1
_chemical_formula_structural   Na7ZnSi3Ge3(PO8)3
_chemical_formula_sum   'Na21 Zn3 Si9 Ge9 P9 O72'
_cell_volume   1453.54696493
_cell_formula_units_Z   3
loop_
 _symmetry_equiv_pos_site_id
 _symmetry_equiv_pos_as_xyz
  1  'x, y, z'
loop_
 _atom_site_type_symbol
 _atom_site_label
 _atom_site_symmetry_multiplicity
 _atom_site_fract_x
 _atom_site_fract_y
 _atom_site_fract_z
 _atom_site_occupancy
  Na  Na0  1  0.63631627  0.00851736  0.24804804  1
  Na  Na1  1  0.37355606  0.36511898  0.24801778  1
  Na  Na2  1  0.99218964  0.62958243  0.24969995  1
  Na  Na3  1  0.63267473  0.62247596  0.74872084  1
  Na  Na4  1  0.99055042  0.37133753  0.74704947  1
  Na  Na5  1  0.37548966  0.00708295  0.74694152  1
  Na  Na6  1  0.02946379  0.69354801  0.58409534  1
  Na  Na7  1  0.66604749  0.97139766  0.58120092  1
  Na  Na8  1  0.30825008  0.97235731  0.08378918  1
  Na  Na9  1  0.66250786  0.69259491  0.08400880  1
  Na  Na10  1  0.02856101  0.33385627  0.08140876  1
  Na  Na11  1  0.33382788  0.30079177  0.91745597  1
  Na  Na12  1  0.96547009  0.28738925  0.41595865  1
  Na  Na13  1  0.32180795  0.03401581  0.41571486  1
  Na  Na14  1  0.71219227  0.67683355  0.41536399  1
  Na  Na15  1  0.00666458  0.00773955  0.49624730  1
  Na  Na16  1  0.98985462  0.99387931  0.99708674  1
  Na  Na17  1  0.67924284  0.33938565  0.83409558  1
  Na  Na18  1  0.66619420  0.33326667  0.33234848  1
  Na  Na19  1  0.33673181  0.66781393  0.16522506  1
  Na  Na20  1  0.32875378  0.65571876  0.66436223  1
  Zn  Zn0  1  0.99880594  0.99976369  0.35589538  1
  Zn  Zn1  1  0.67777575  0.34177496  0.68148871  1
  Zn  Zn2  1  0.66207127  0.32818670  0.17773696  1
  Si  Si0  1  0.00466525  0.71864402  0.75270881  1
  Si  Si1  1  0.96739507  0.33490574  0.58408093  1
  Si  Si2  1  0.66300721  0.03852464  0.08264542  1
  Si  Si3  1  0.37519246  0.33426707  0.08239950  1
  Si  Si4  1  0.62600440  0.66870783  0.91597813  1
  Si  Si5  1  0.03736368  0.37579380  0.91640350  1
  Si  Si6  1  0.61449918  0.95311333  0.41924191  1
  Si  Si7  1  0.33917929  0.38170138  0.41847895  1
  Si  Si8  1  0.04502133  0.66198227  0.41854035  1
  Ge  Ge0  1  0.98970012  0.99377194  0.85647987  1
  Ge  Ge1  1  0.00815410  0.00630064  0.64696171  1
  Ge  Ge2  1  0.00044340  0.00565825  0.14703260  1
  Ge  Ge3  1  0.67212100  0.33428611  0.97909097  1
  Ge  Ge4  1  0.66950350  0.32939343  0.47946402  1
  Ge  Ge5  1  0.34053984  0.66360411  0.01564339  1
  Ge  Ge6  1  0.32839954  0.65672674  0.51745624  1
  Ge  Ge7  1  0.33318321  0.66619447  0.31948352  1
  Ge  Ge8  1  0.32430683  0.66247989  0.81769560  1
  P  P0  1  0.28811372  0.99564950  0.25143303  1
  P  P1  1  0.70811059  0.71089169  0.25106685  1
  P  P2  1  0.00378308  0.29465038  0.25112669  1
  P  P3  1  0.28189062  0.28602873  0.75236126  1
  P  P4  1  0.71230879  0.99484164  0.75138364  1
  P  P5  1  0.37462559  0.04410532  0.58378909  1
  P  P6  1  0.66181747  0.62326185  0.58352680  1
  P  P7  1  0.96066500  0.62654562  0.08259757  1
  P  P8  1  0.33415968  0.95350814  0.91634248  1
  O  O0  1  0.20788730  0.02571640  0.30718658  1
  O  O1  1  0.81771178  0.79013423  0.30755311  1
  O  O2  1  0.97039436  0.18264858  0.30729467  1
  O  O3  1  0.19879449  0.17120913  0.81036040  1
  O  O4  1  0.97102626  0.81666384  0.80955074  1
  O  O5  1  0.83614869  0.03575562  0.80718467  1
  O  O6  1  0.79112191  0.95860053  0.69259330  1
  O  O7  1  0.16162998  0.20541238  0.69484474  1
  O  O8  1  0.04498017  0.84255425  0.68928339  1
  O  O9  1  0.79329789  0.82980617  0.19129934  1
  O  O10  1  0.03923080  0.21189150  0.19174315  1
  O  O11  1  0.16894127  0.96069636  0.19148039  1
  O  O12  1  0.89707611  0.38113880  0.64481240  1
  O  O13  1  0.48353546  0.11644116  0.64202470  1
  O  O14  1  0.62873888  0.52071084  0.64282592  1
  O  O15  1  0.89689465  0.51934047  0.14167966  1
  O  O16  1  0.61704292  0.10134870  0.14512569  1
  O  O17  1  0.49055672  0.38624888  0.14396800  1
  O  O18  1  0.46213089  0.29026850  0.02296712  1
  O  O19  1  0.83341084  0.54384159  0.02756925  1
  O  O20  1  0.71297285  0.17852054  0.02560483  1
  O  O21  1  0.45828060  0.15878920  0.52546166  1
  O  O22  1  0.70187748  0.54089083  0.52692352  1
  O  O23  1  0.83109666  0.28913227  0.52441375  1
  O  O24  1  0.53933570  0.70170298  0.97694125  1
  O  O25  1  0.16857952  0.46386930  0.97569743  1
  O  O26  1  0.30066673  0.83739869  0.97409816  1
  O  O27  1  0.52578673  0.82880274  0.47922023  1
  O  O28  1  0.29733758  0.47091445  0.47537995  1
  O  O29  1  0.17187695  0.70314140  0.47817412  1
  O  O30  1  0.12545196  0.61716519  0.35618571  1
  O  O31  1  0.49102658  0.87237965  0.35616728  1
  O  O32  1  0.38441171  0.50689861  0.35510513  1
  O  O33  1  0.12484625  0.49634352  0.85449560  1
  O  O34  1  0.36678940  0.87273530  0.85813784  1
  O  O35  1  0.49347775  0.62576891  0.85579361  1
  O  O36  1  0.02140134  0.83048214  0.41481156  1
  O  O37  1  0.80653806  0.97653145  0.41586808  1
  O  O38  1  0.17071175  0.19081118  0.41399261  1
  O  O39  1  0.03219292  0.18490849  0.90924815  1
  O  O40  1  0.17126427  0.97875214  0.91102117  1
  O  O41  1  0.81903041  0.84344263  0.91054921  1
  O  O42  1  0.97359572  0.14836827  0.59066573  1
  O  O43  1  0.18491505  0.01926599  0.58735778  1
  O  O44  1  0.83427634  0.81079302  0.58765579  1
  O  O45  1  0.97861591  0.81315618  0.08864445  1
  O  O46  1  0.84144617  0.01663924  0.08947919  1
  O  O47  1  0.17792150  0.15398170  0.08968031  1
  O  O48  1  0.68583462  0.15387717  0.74711174  1
  O  O49  1  0.46372012  0.30473043  0.74752118  1
  O  O50  1  0.83437485  0.52594051  0.74999269  1
  O  O51  1  0.68555206  0.52673099  0.24512086  1
  O  O52  1  0.84428761  0.32137396  0.24382172  1
  O  O53  1  0.47307642  0.15605208  0.24585773  1
  O  O54  1  0.63368305  0.48493328  0.92368748  1
  O  O55  1  0.84470538  0.35790771  0.92383907  1
  O  O56  1  0.49782929  0.13931413  0.92157226  1
  O  O57  1  0.62742401  0.14727947  0.42345159  1
  O  O58  1  0.52042790  0.36930601  0.42558641  1
  O  O59  1  0.85056990  0.48216242  0.42436141  1
  O  O60  1  0.34483793  0.50518231  0.07423758  1
  O  O61  1  0.14692983  0.65116235  0.07271522  1
  O  O62  1  0.48749013  0.84225602  0.07265874  1
  O  O63  1  0.35443056  0.85709871  0.57759421  1
  O  O64  1  0.50384317  0.65534080  0.57616914  1
  O  O65  1  0.15986608  0.51362543  0.57547274  1
  O  O66  1  0.30052946  0.82142727  0.25337457  1
  O  O67  1  0.52226189  0.69924015  0.25265096  1
  O  O68  1  0.17796176  0.48000433  0.25337187  1
  O  O69  1  0.29960287  0.47279674  0.75535864  1
  O  O70  1  0.18888616  0.70433701  0.75718277  1
  O  O71  1  0.52841270  0.82397232  0.75712779  1
loop_
_geom_bond_atom_site_label_1
_geom_bond_atom_site_label_2
_geom_bond_distance
_geom_bond_site_symmetry_2
Na0 O53 2.363414 1_555
Na0 O67 2.383875 1_545
Na0 O16 2.406263 1_555
Na0 O52 2.428570 1_555
Na0 O66 2.566223 1_545
Na0 O31 2.655448 1_545
Na0 O9 2.847099 1_545
Na0 O2 2.847880 1_555
Na1 O51 2.377759 1_555
Na1 O68 2.390571 1_555
Na1 O53 2.396047 1_555
Na1 O17 2.457612 1_555
Na1 O67 2.553180 1_555
Na1 O32 2.628031 1_555
Na1 O10 2.821961 1_555
Na1 O0 2.880643 1_555
Na2 O52 2.353128 1_555
Na2 O66 2.373428 1_655
Na2 O51 2.377335 1_555
Na2 O15 2.519863 1_555
Na2 O68 2.554589 1_655
Na2 O30 2.609885 1_655
Na2 O11 2.817295 1_655
Na2 O1 2.852151 1_555
Na3 O50 2.313534 1_555
Na3 O71 2.372526 1_555
Na3 O49 2.423083 1_555
Na3 O14 2.469882 1_555
Na3 O69 2.545216 1_555
Na3 O35 2.643661 1_555
Na3 O6 2.830371 1_555
Na3 O4 2.901097 1_555
Na4 O50 2.364000 1_555
Na4 O12 2.377302 1_555
Na4 O48 2.391531 1_555
Na4 O69 2.403919 1_655
Na4 O70 2.563793 1_655
Na4 O33 2.599984 1_655
Na4 O7 2.812300 1_655
Na4 O5 2.865752 1_555
Na5 O49 2.328487 1_555
Na5 O70 2.337465 1_545
Na5 O48 2.364415 1_555
Na5 O13 2.470709 1_555
Na5 O71 2.565275 1_545
Na5 O34 2.663423 1_545
Na5 O8 2.807086 1_545
Na5 O3 2.947266 1_555
Na6 O65 2.378507 1_555
Na6 O44 2.401518 1_455
Na6 O63 2.479446 1_555
Na6 O43 2.483914 1_565
Na6 O29 2.608579 1_555
Na6 O8 2.613213 1_555
Na6 O12 2.720962 1_455
Na6 O22 2.783593 1_455
Na7 O42 2.359909 1_565
Na7 O63 2.400931 1_555
Na7 O64 2.411624 1_555
Na7 O44 2.502436 1_555
Na7 O27 2.543008 1_555
Na7 O6 2.673938 1_555
Na7 O23 2.711061 1_565
Na7 O13 2.835414 1_565
Na8 O62 2.376118 1_555
Na8 O47 2.386998 1_565
Na8 O61 2.460581 1_555
Na8 O45 2.513377 1_455
Na8 O11 2.626426 1_555
Na8 O26 2.657414 1_554
Na8 O16 2.706072 1_565
Na8 O18 2.752024 1_565
Na9 O45 2.430502 1_555
Na9 O60 2.441545 1_555
Na9 O46 2.477290 1_565
Na9 O62 2.480390 1_555
Na9 O24 2.574593 1_554
Na9 O9 2.614664 1_555
Na9 O17 2.671905 1_555
Na9 O19 2.734578 1_555
Na10 O60 2.417306 1_555
Na10 O46 2.435779 1_455
Na10 O61 2.448543 1_555
Na10 O47 2.511045 1_555
Na10 O25 2.586182 1_554
Na10 O10 2.636316 1_555
Na10 O20 2.687574 1_455
Na10 O15 2.765688 1_455
Na11 O54 2.307696 1_555
Na11 O39 2.322692 1_555
Na11 O40 2.458615 1_545
Na11 O56 2.474948 1_555
Na11 O18 2.567097 1_556
Na11 O3 2.603197 1_555
Na11 O35 2.807795 1_555
Na11 O25 2.809776 1_555
Na12 O38 2.344229 1_655
Na12 O37 2.368781 1_545
Na12 O59 2.389228 1_555
Na12 O2 2.550373 1_555
Na12 O57 2.592173 1_555
Na12 O23 2.647329 1_555
Na12 O30 2.821201 1_655
Na12 O28 2.838736 1_655
Na13 O36 2.336538 1_545
Na13 O38 2.340594 1_555
Na13 O57 2.357455 1_555
Na13 O0 2.541152 1_555
Na13 O58 2.579752 1_555
Na13 O21 2.649058 1_555
Na13 O31 2.840178 1_545
Na13 O29 2.857953 1_545
Na14 O37 2.334025 1_555
Na14 O36 2.354896 1_655
Na14 O58 2.376740 1_555
Na14 O1 2.531367 1_555
Na14 O59 2.549489 1_555
Na14 O22 2.673849 1_555
Na14 O32 2.815035 1_555
Na14 O27 2.938685 1_555
Na15 O38 2.352749 1_555
Na15 O37 2.385873 1_445
Na15 O36 2.414352 1_545
Na15 O43 2.484742 1_555
Na15 O42 2.496760 1_455
Na15 O44 2.569897 1_445
Na16 O41 2.357668 1_555
Na16 O39 2.434312 1_665
Na16 O46 2.465224 1_566
Na16 O45 2.504875 1_556
Na16 O40 2.513130 1_655
Na16 O47 2.537505 1_666
Na17 O50 2.375013 1_555
Na17 O55 2.379801 1_555
Na17 O54 2.480594 1_555
Na17 O48 2.526904 1_555
Na17 O56 2.537018 1_555
Na17 O49 2.567368 1_555
Na18 O57 2.469564 1_555
Na18 O51 2.483013 1_555
Na18 O53 2.491009 1_555
Na18 O59 2.493291 1_555
Na18 O58 2.509989 1_555
Na18 O52 2.524163 1_555
Na19 O67 2.418629 1_555
Na19 O68 2.454817 1_555
Na19 O66 2.465044 1_555
Na19 O62 2.471813 1_555
Na19 O60 2.472136 1_555
Na19 O61 2.558701 1_555
Na20 O65 2.375443 1_555
Na20 O64 2.467482 1_555
Na20 O69 2.468721 1_555
Na20 O63 2.506147 1_555
Na20 O70 2.517302 1_555
Na20 O71 2.595947 1_555
Ge0 O4 1.805827 1_555
Ge0 O41 1.843466 1_555
Ge0 O5 1.888272 1_565
Ge0 O39 1.918111 1_665
Ge0 O3 1.988810 1_665
Ge0 O40 2.034567 1_655
Ge1 O8 1.858229 1_545
Ge1 O42 1.867626 1_455
Ge1 O7 1.903339 1_555
Ge1 O43 1.988250 1_555
Ge1 O6 2.004586 1_445
Ge1 O44 2.083301 1_445
Ge2 O46 1.904116 1_455
Ge2 O47 1.912553 1_555
Ge2 O10 1.938077 1_555
Ge2 O9 1.955075 1_445
Ge2 O11 1.956932 1_545
Ge2 O45 2.054345 1_445
Ge3 O20 1.865330 1_556
Ge3 O55 1.868848 1_555
Ge3 O54 1.929384 1_555
Ge3 O18 1.941701 1_556
Ge3 O19 1.980085 1_556
Ge3 O56 2.058406 1_555
Ge4 O23 1.887654 1_555
Ge4 O57 1.902198 1_555
Ge4 O58 1.905589 1_555
Ge4 O59 1.907340 1_555
Ge4 O21 1.979599 1_555
Ge4 O22 2.025437 1_555
Ge5 O24 1.817507 1_554
Ge5 O25 1.865900 1_554
Ge5 O60 1.891292 1_555
Ge5 O62 1.912343 1_555
Ge5 O26 1.941617 1_554
Ge5 O61 2.070448 1_555
Ge6 O28 1.776519 1_555
Ge6 O29 1.821108 1_555
Ge6 O27 1.835783 1_555
Ge6 O65 1.872681 1_555
Ge6 O64 1.996812 1_555
Ge6 O63 2.120501 1_555
Ge7 O31 1.829462 1_555
Ge7 O32 1.833244 1_555
Ge7 O30 1.839505 1_555
Ge7 O66 2.085797 1_555
Ge7 O68 2.095023 1_555
Ge7 O67 2.121475 1_555
Ge8 O33 1.814468 1_555
Ge8 O35 1.856935 1_555
Ge8 O34 1.913851 1_555
Ge8 O70 1.917979 1_555
Ge8 O69 2.082449 1_555
Ge8 O71 2.104163 1_555
O0 P0 1.496199 1_545
O0 Zn0 2.037934 1_445
O1 P1 1.498902 1_555
O1 Zn0 2.029019 1_555
O2 P2 1.496310 1_655
O2 Zn0 2.030166 1_545
O3 P3 1.547748 1_555
O4 Si0 1.622785 1_655
O5 P4 1.542414 1_545
O6 P4 1.566311 1_555
O7 P3 1.558454 1_555
O8 Si0 1.674737 1_555
O9 P1 1.596497 1_555
O10 P2 1.593674 1_555
O11 P0 1.597285 1_555
O12 Si1 1.600131 1_555
O12 Zn1 1.954434 1_555
O13 P5 1.519718 1_555
O13 Zn1 2.051712 1_555
O14 P6 1.509699 1_555
O14 Zn1 2.001419 1_555
O15 P7 1.520429 1_555
O15 Zn2 2.058869 1_555
O16 Si2 1.598490 1_555
O16 Zn2 1.966660 1_555
O17 Si3 1.597754 1_555
O17 Zn2 1.951186 1_555
O18 Si3 1.648919 1_555
O19 P7 1.546645 1_555
O20 Si2 1.638112 1_555
O21 P5 1.553818 1_555
O22 P6 1.561165 1_555
O23 Si1 1.667322 1_555
O24 Si4 1.631223 1_555
O25 Si5 1.640956 1_555
O26 P8 1.544146 1_555
O27 Si6 1.624733 1_555
O28 Si7 1.609407 1_555
O29 Si8 1.623093 1_555
O30 Si8 1.670855 1_555
O31 Si6 1.668801 1_555
O32 Si7 1.675781 1_555
O33 Si5 1.643248 1_555
O34 P8 1.552478 1_555
O35 Si4 1.659429 1_555
O36 Si8 1.595149 1_555
O36 Zn0 2.035490 1_455
O37 Si6 1.596228 1_555
O37 Zn0 2.068251 1_555
O38 Si7 1.593986 1_555
O38 Zn0 2.043341 1_445
O39 Si5 1.663702 1_555
O40 P8 1.556177 1_555
O41 Si4 1.628598 1_555
O42 Si1 1.671441 1_555
O43 P5 1.571260 1_555
O44 P6 1.591215 1_555
O45 P7 1.573716 1_555
O46 Si2 1.676380 1_555
O47 Si3 1.673941 1_555
O48 P4 1.528309 1_545
O48 Zn1 2.198348 1_555
O49 P3 1.526067 1_555
O49 Zn1 2.263457 1_555
O50 Si0 1.607895 1_655
O50 Zn1 2.126190 1_555
O51 P1 1.535665 1_555
O51 Zn2 2.216745 1_555
O52 P2 1.537953 1_655
O52 Zn2 2.163715 1_555
O53 P0 1.536024 1_545
O53 Zn2 2.174791 1_555
O54 Si4 1.656115 1_555
O55 Si5 1.628627 1_655
O56 P8 1.551738 1_545
O57 Si6 1.655719 1_545
O58 Si7 1.654522 1_555
O59 Si8 1.655588 1_655
O60 Si3 1.658385 1_555
O61 P7 1.555957 1_455
O62 Si2 1.658640 1_565
O63 P5 1.569308 1_565
O64 P6 1.553858 1_555
O65 Si1 1.647388 1_455
O66 P0 1.587960 1_555
O67 P1 1.584233 1_555
O68 P2 1.585452 1_555
O69 P3 1.571229 1_555
O70 Si0 1.685878 1_555
O71 P4 1.569265 1_555
