# generated using pymatgen
data_NaHf2Ti2P5SO24
_symmetry_space_group_name_H-M   'P 1'
_cell_length_a   8.73499417
_cell_length_b   8.74258711
_cell_length_c   22.72559348
_cell_angle_alpha   89.99452805
_cell_angle_beta   89.93853907
_cell_angle_gamma   120.04209604
_symmetry_Int_Tables_number   1
_chemical_formula_structural   NaHf2Ti2P5SO24
_chemical_formula_sum   'Na3 Hf6 Ti6 P15 S3 O72'
_cell_volume   1502.32435720
_cell_formula_units_Z   3
loop_
 _symmetry_equiv_pos_site_id
 _symmetry_equiv_pos_as_xyz
  1  'x, y, z'
loop_
 _atom_site_type_symbol
 _atom_site_label
 _atom_site_symmetry_multiplicity
 _atom_site_fract_x
 _atom_site_fract_y
 _atom_site_fract_z
 _atom_site_occupancy
  Na  Na0  1  0.66962596  0.33686209  0.83245472  1
  Na  Na1  1  0.66734239  0.33405135  0.33260566  1
  Na  Na2  1  0.33348456  0.66720996  0.16708395  1
  Hf  Hf0  1  0.00074061  0.00008814  0.35742155  1
  Hf  Hf1  1  0.99946281  0.00016726  0.14383693  1
  Hf  Hf2  1  0.66680503  0.33299820  0.18734621  1
  Hf  Hf3  1  0.67077642  0.33751485  0.97979939  1
  Hf  Hf4  1  0.33507023  0.66266962  0.01998012  1
  Hf  Hf5  1  0.33278513  0.66622020  0.31325068  1
  Ti  Ti0  1  0.99010894  0.99943902  0.85364230  1
  Ti  Ti1  1  0.00743631  0.99813031  0.64865068  1
  Ti  Ti2  1  0.66104688  0.32369661  0.68832508  1
  Ti  Ti3  1  0.65709614  0.32723478  0.47852612  1
  Ti  Ti4  1  0.33255061  0.67313993  0.51895962  1
  Ti  Ti5  1  0.32998541  0.65508622  0.80777692  1
  P  P0  1  0.28907982  0.99980746  0.25035911  1
  P  P1  1  0.71092650  0.71059904  0.25053914  1
  P  P2  1  0.99975354  0.28888153  0.25049520  1
  P  P3  1  0.28487979  0.28229784  0.75037091  1
  P  P4  1  0.99930380  0.71264698  0.75083965  1
  P  P5  1  0.71303957  0.99754933  0.74929307  1
  P  P6  1  0.37911636  0.04551383  0.58355278  1
  P  P7  1  0.95849386  0.62396685  0.08346599  1
  P  P8  1  0.66523198  0.04292857  0.08296444  1
  P  P9  1  0.37777246  0.33331740  0.08316253  1
  P  P10  1  0.62183176  0.66923739  0.91289718  1
  P  P11  1  0.04724879  0.37626938  0.91304172  1
  P  P12  1  0.61902307  0.95634186  0.41897031  1
  P  P13  1  0.33640097  0.38292465  0.41975235  1
  P  P14  1  0.04080039  0.66035119  0.41921477  1
  S  S0  1  0.95391373  0.33240237  0.58352279  1
  S  S1  1  0.66641347  0.62071066  0.58369812  1
  S  S2  1  0.32838968  0.95315584  0.91338424  1
  O  O0  1  0.20468474  0.02780373  0.30583468  1
  O  O1  1  0.82337046  0.79540084  0.30593896  1
  O  O2  1  0.97184576  0.17646420  0.30594654  1
  O  O3  1  0.20187124  0.16728262  0.80464023  1
  O  O4  1  0.96728332  0.80048336  0.80433693  1
  O  O5  1  0.83176296  0.03411788  0.80416358  1
  O  O6  1  0.80344745  0.97188213  0.69469697  1
  O  O7  1  0.16947325  0.19777480  0.69472881  1
  O  O8  1  0.02866243  0.83106320  0.69515317  1
  O  O9  1  0.79334921  0.82229500  0.19519639  1
  O  O10  1  0.02917264  0.20675973  0.19518259  1
  O  O11  1  0.17734838  0.97078127  0.19511469  1
  O  O12  1  0.86975768  0.36324680  0.63671168  1
  O  O13  1  0.50073273  0.13900054  0.63803114  1
  O  O14  1  0.63776687  0.50660824  0.63654708  1
  O  O15  1  0.87541844  0.50766130  0.13784429  1
  O  O16  1  0.63295709  0.12571794  0.13772153  1
  O  O17  1  0.49305876  0.36684766  0.13781432  1
  O  O18  1  0.46333961  0.30723079  0.02773441  1
  O  O19  1  0.84493418  0.53831494  0.02812227  1
  O  O20  1  0.69239570  0.15611315  0.02770040  1
  O  O21  1  0.47033113  0.16698551  0.52962471  1
  O  O22  1  0.69831498  0.53880844  0.53078996  1
  O  O23  1  0.84055061  0.30312137  0.53096611  1
  O  O24  1  0.54414074  0.70143677  0.96909167  1
  O  O25  1  0.15661916  0.45798564  0.96902425  1
  O  O26  1  0.30247453  0.84875928  0.96810365  1
  O  O27  1  0.52663552  0.83745714  0.47334965  1
  O  O28  1  0.31166169  0.47564103  0.47387919  1
  O  O29  1  0.16264001  0.68905932  0.47332922  1
  O  O30  1  0.12035460  0.62576435  0.36425505  1
  O  O31  1  0.50526634  0.87951707  0.36397864  1
  O  O32  1  0.37385026  0.49513109  0.36408883  1
  O  O33  1  0.13967523  0.49875603  0.85954294  1
  O  O34  1  0.36108158  0.87074945  0.86204187  1
  O  O35  1  0.50079358  0.64200220  0.85958364  1
  O  O36  1  0.02424314  0.82450890  0.41175247  1
  O  O37  1  0.80108830  0.97602688  0.41175573  1
  O  O38  1  0.17573390  0.19967422  0.41182872  1
  O  O39  1  0.02814835  0.19285632  0.90259410  1
  O  O40  1  0.17168725  0.97304599  0.90597414  1
  O  O41  1  0.80725831  0.83292137  0.90263141  1
  O  O42  1  0.97131797  0.17391002  0.59317405  1
  O  O43  1  0.19635595  0.02752215  0.59552593  1
  O  O44  1  0.82555654  0.79790629  0.59311680  1
  O  O45  1  0.97555562  0.80462067  0.09056201  1
  O  O46  1  0.82817770  0.02450753  0.09044733  1
  O  O47  1  0.19577431  0.17109847  0.09045242  1
  O  O48  1  0.69391429  0.16602314  0.73992904  1
  O  O49  1  0.47395362  0.30837810  0.73983756  1
  O  O50  1  0.83456898  0.52697242  0.73925854  1
  O  O51  1  0.69044879  0.52584989  0.24509113  1
  O  O52  1  0.83539242  0.30943642  0.24515364  1
  O  O53  1  0.47402750  0.16439603  0.24507958  1
  O  O54  1  0.64147434  0.50396998  0.91931762  1
  O  O55  1  0.86122549  0.35501808  0.91919221  1
  O  O56  1  0.48926841  0.13197915  0.92051621  1
  O  O57  1  0.64023140  0.14316895  0.42899853  1
  O  O58  1  0.50326584  0.36176990  0.42903318  1
  O  O59  1  0.85573437  0.49541588  0.43015883  1
  O  O60  1  0.35883460  0.49943773  0.07675805  1
  O  O61  1  0.14276269  0.64343687  0.07569984  1
  O  O62  1  0.49903075  0.85882478  0.07595126  1
  O  O63  1  0.36010115  0.86335182  0.57267014  1
  O  O64  1  0.50857036  0.63848861  0.57484415  1
  O  O65  1  0.13025985  0.49080590  0.57483967  1
  O  O66  1  0.30933161  0.83507646  0.25653651  1
  O  O67  1  0.52577678  0.69055176  0.25662381  1
  O  O68  1  0.16470900  0.47411872  0.25651860  1
  O  O69  1  0.30712012  0.46829546  0.75935493  1
  O  O70  1  0.16391317  0.69435273  0.76108311  1
  O  O71  1  0.52889428  0.83817991  0.76107746  1
loop_
_geom_bond_atom_site_label_1
_geom_bond_atom_site_label_2
_geom_bond_distance
_geom_bond_site_symmetry_2
Na0 O54 2.539843 1_555
Na0 O55 2.540241 1_555
Na0 O56 2.619624 1_555
Na0 O50 2.630402 1_555
Na0 O49 2.644827 1_555
Na0 O48 2.648405 1_555
Na1 O52 2.541842 1_555
Na1 O51 2.543125 1_555
Na1 O53 2.551038 1_555
Na1 O57 2.691124 1_555
Na1 O58 2.693704 1_555
Na1 O59 2.701303 1_555
Na2 O66 2.576921 1_555
Na2 O68 2.579743 1_555
Na2 O67 2.582198 1_555
Na2 O60 2.595929 1_555
Na2 O62 2.598846 1_555
Na2 O61 2.606212 1_555
Hf0 O0 2.042039 1_555
Hf0 O1 2.049340 1_445
Hf0 O2 2.049347 1_455
Hf0 O37 2.058721 1_445
Hf0 O36 2.058792 1_545
Hf0 O38 2.060058 1_555
Hf1 O47 2.018634 1_655
Hf1 O45 2.018802 1_545
Hf1 O46 2.019548 1_555
Hf1 O9 2.052756 1_545
Hf1 O10 2.054953 1_655
Hf1 O11 2.059583 1_645
Hf2 O16 2.026775 1_555
Hf2 O17 2.027628 1_555
Hf2 O15 2.031502 1_555
Hf2 O53 2.058959 1_555
Hf2 O52 2.060260 1_555
Hf2 O51 2.063922 1_555
Hf3 O19 1.982926 1_556
Hf3 O20 2.008928 1_556
Hf3 O18 2.013789 1_556
Hf3 O55 2.104303 1_555
Hf3 O54 2.108504 1_555
Hf3 O56 2.170289 1_555
Hf4 O60 2.010312 1_555
Hf4 O62 2.038413 1_555
Hf4 O24 2.040358 1_554
Hf4 O61 2.041085 1_555
Hf4 O25 2.045551 1_554
Hf4 O26 2.140539 1_554
Hf5 O68 2.043014 1_555
Hf5 O67 2.044359 1_555
Hf5 O66 2.045836 1_555
Hf5 O32 2.058769 1_555
Hf5 O30 2.061545 1_555
Hf5 O31 2.065752 1_555
O0 P0 1.539964 1_545
O1 P1 1.540503 1_555
O2 P2 1.540320 1_555
O3 P3 1.525023 1_555
O3 Ti0 2.022970 1_445
O4 P4 1.536392 1_555
O4 Ti0 1.993574 1_555
O5 P5 1.550317 1_545
O5 Ti0 1.921596 1_545
O6 P5 1.545572 1_555
O6 Ti1 1.977163 1_655
O7 P3 1.555079 1_555
O7 Ti1 1.917359 1_545
O8 P4 1.572346 1_455
O8 Ti1 1.885689 1_555
O9 P1 1.532188 1_555
O10 P2 1.531597 1_455
O11 P0 1.532258 1_555
O12 S0 1.506918 1_555
O12 Ti2 2.045280 1_555
O13 P6 1.569382 1_555
O13 Ti2 1.901154 1_555
O14 S1 1.499791 1_555
O14 Ti2 2.075784 1_555
O15 P7 1.531887 1_555
O16 P8 1.534792 1_555
O17 P9 1.532892 1_555
O18 P9 1.538201 1_555
O19 P7 1.544559 1_555
O20 P8 1.541688 1_555
O21 P6 1.554036 1_555
O21 Ti3 1.918296 1_555
O22 S1 1.495086 1_555
O22 Ti3 2.072736 1_555
O23 S0 1.490440 1_555
O23 Ti3 2.091623 1_555
O24 P10 1.536275 1_555
O25 P11 1.536575 1_555
O26 S2 1.490952 1_555
O27 P12 1.554514 1_555
O27 Ti4 1.889341 1_555
O28 P13 1.546547 1_555
O28 Ti4 1.936353 1_555
O29 P14 1.563150 1_555
O29 Ti4 1.872845 1_555
O30 P14 1.530657 1_555
O31 P12 1.528024 1_555
O32 P13 1.532018 1_555
O33 P11 1.551991 1_555
O33 Ti5 1.932860 1_555
O34 S2 1.472215 1_555
O34 Ti5 2.153575 1_555
O35 P10 1.546991 1_555
O35 Ti5 1.949340 1_555
O36 P14 1.522236 1_555
O37 P12 1.520220 1_555
O38 P13 1.522508 1_555
O39 P11 1.545225 1_555
O39 Ti0 1.909428 1_445
O40 S2 1.473434 1_555
O40 Ti0 2.086556 1_455
O41 P10 1.550493 1_555
O41 Ti0 1.891444 1_555
O42 S0 1.483958 1_555
O42 Ti1 2.129930 1_645
O43 P6 1.547560 1_555
O43 Ti1 1.953937 1_545
O44 S1 1.490826 1_555
O44 Ti1 2.097882 1_655
O45 P7 1.518908 1_555
O46 P8 1.520116 1_555
O47 P9 1.519211 1_555
O48 P5 1.577660 1_545
O48 Ti2 1.937675 1_555
O49 P3 1.568129 1_555
O49 Ti2 1.958541 1_555
O50 P4 1.561086 1_555
O50 Ti2 2.025471 1_555
O51 P1 1.538491 1_555
O52 P2 1.538486 1_555
O53 P0 1.538437 1_545
O54 P10 1.544862 1_555
O55 P11 1.546488 1_655
O56 S2 1.498661 1_545
O57 P12 1.565658 1_545
O57 Ti3 1.908259 1_555
O58 P13 1.572816 1_555
O58 Ti3 1.889756 1_555
O59 P14 1.555456 1_655
O59 Ti3 1.954950 1_555
O60 P9 1.548660 1_555
O61 P7 1.541411 1_455
O62 P8 1.544199 1_565
O63 P6 1.536336 1_565
O63 Ti4 1.978253 1_555
O64 S1 1.476745 1_555
O64 Ti4 2.130538 1_555
O65 S0 1.480850 1_455
O65 Ti4 2.109627 1_555
O66 P0 1.542793 1_555
O67 P1 1.543095 1_555
O68 P2 1.543232 1_455
O69 P3 1.551603 1_555
O69 Ti5 1.895218 1_555
O70 P4 1.542139 1_455
O70 Ti5 1.962165 1_555
O71 P5 1.534706 1_555
O71 Ti5 1.979487 1_555
