# generated using pymatgen
data_In3Ni2
_symmetry_space_group_name_H-M   'P 1'
_cell_length_a   4.38507201
_cell_length_b   4.38507090
_cell_length_c   5.29923176
_cell_angle_alpha   90.00000000
_cell_angle_beta   90.00000000
_cell_angle_gamma   120.00000074
_symmetry_Int_Tables_number   1
_chemical_formula_structural   In3Ni2
_chemical_formula_sum   'In3 Ni2'
_cell_volume   88.24637847
_cell_formula_units_Z   1
loop_
 _symmetry_equiv_pos_site_id
 _symmetry_equiv_pos_as_xyz
  1  'x, y, z'
loop_
 _atom_site_type_symbol
 _atom_site_label
 _atom_site_symmetry_multiplicity
 _atom_site_fract_x
 _atom_site_fract_y
 _atom_site_fract_z
 _atom_site_occupancy
  In  In0  1  0.66666700  0.33333300  0.35366102  1
  In  In1  1  0.33333300  0.66666700  0.64633898  1
  In  In2  1  0.00000000  -0.00000000  0.00000000  1
  Ni  Ni0  1  0.66666700  0.33333300  0.85905622  1
  Ni  Ni1  1  0.33333300  0.66666700  0.14094378  1
loop_
_geom_bond_atom_site_label_1
_geom_bond_atom_site_label_2
_geom_bond_distance
_geom_bond_site_symmetry_2
In0 Ni0 2.621025 1_554
In0 Ni0 2.678206 1_555
In0 Ni1 2.771330 1_545
In0 Ni1 2.771330 1_655
In0 Ni1 2.771337 1_555
In1 Ni1 2.621025 1_556
In1 Ni1 2.678206 1_555
In1 Ni0 2.771330 1_565
In1 Ni0 2.771330 1_455
In1 Ni0 2.771337 1_555
In2 Ni0 2.639594 1_454
In2 Ni1 2.639594 1_545
In2 Ni0 2.639597 1_444
In2 Ni1 2.639597 1_555
In2 Ni0 2.639598 1_554
In2 Ni1 2.639598 1_445
