# generated using pymatgen
data_MgFe6(O5F)2
_symmetry_space_group_name_H-M   'P 1'
_cell_length_a   5.16634822
_cell_length_b   5.11436423
_cell_length_c   8.91455435
_cell_angle_alpha   90.03367103
_cell_angle_beta   90.02940453
_cell_angle_gamma   102.32419988
_symmetry_Int_Tables_number   1
_chemical_formula_structural   MgFe6(O5F)2
_chemical_formula_sum   'Mg1 Fe6 O10 F2'
_cell_volume   230.11746698
_cell_formula_units_Z   1
loop_
 _symmetry_equiv_pos_site_id
 _symmetry_equiv_pos_as_xyz
  1  'x, y, z'
loop_
 _atom_site_type_symbol
 _atom_site_label
 _atom_site_symmetry_multiplicity
 _atom_site_fract_x
 _atom_site_fract_y
 _atom_site_fract_z
 _atom_site_occupancy
  Mg  Mg0  1  0.94886345  0.46915224  0.66156773  1
  Fe  Fe0  1  0.03418750  0.96645340  0.00358428  1
  Fe  Fe1  1  0.03376479  0.96682696  0.32165894  1
  Fe  Fe2  1  0.04837004  0.98645290  0.66276586  1
  Fe  Fe3  1  0.44132645  0.54831230  0.16237281  1
  Fe  Fe4  1  0.44998309  0.56878919  0.83666337  1
  Fe  Fe5  1  0.45008844  0.56900585  0.48812166  1
  O  O0  1  0.19751236  0.78918228  0.16271835  1
  O  O1  1  0.16514098  0.78116005  0.50195473  1
  O  O2  1  0.16518180  0.78127694  0.82324397  1
  O  O3  1  0.30855155  0.30898519  -0.01181711  1
  O  O4  1  0.30791058  0.30956057  0.33646116  1
  O  O5  1  0.29178066  0.33767128  0.66227741  1
  O  O6  1  0.68198488  0.71427685  -0.00630461  1
  O  O7  1  0.68260376  0.71307712  0.33139331  1
  O  O8  1  0.69166491  0.69825402  0.66244366  1
  O  O9  1  0.88838465  0.13374778  0.16247514  1
  F  F0  1  0.84934135  0.17956410  0.81328070  1
  F  F1  1  0.84946878  0.17824800  0.51085364  1
loop_
_geom_bond_atom_site_label_1
_geom_bond_atom_site_label_2
_geom_bond_distance
_geom_bond_site_symmetry_2
Mg0 O8 1.950192 1_555
Mg0 O5 2.024707 1_655
Mg0 O1 2.250017 1_655
Mg0 O2 2.260210 1_655
Fe0 O9 1.892241 1_465
Fe0 O0 1.968062 1_555
Fe0 O6 1.994993 1_455
Fe0 O3 2.009333 1_565
Fe0 O2 2.052416 1_554
Fe1 O9 1.892268 1_465
Fe1 O0 1.968885 1_555
Fe1 O7 1.994579 1_455
Fe1 O4 2.008899 1_565
Fe1 O1 2.054614 1_555
Fe2 O2 1.945026 1_555
Fe2 O1 1.947031 1_555
Fe2 O5 1.960539 1_565
Fe2 O8 2.099794 1_455
Fe3 O0 1.940787 1_555
Fe3 O3 2.004558 1_555
Fe3 O4 2.004641 1_555
Fe3 O6 2.019975 1_555
Fe3 O7 2.020484 1_555
Fe4 O6 1.888457 1_556
Fe4 O3 1.926801 1_556
Fe4 O2 2.010684 1_555
Fe4 O8 2.014898 1_555
Fe4 O5 2.016437 1_555
Fe5 O7 1.887614 1_555
Fe5 O4 1.925844 1_555
Fe5 O1 2.010372 1_555
Fe5 O8 2.013497 1_555
Fe5 O5 2.017280 1_555
F0 Mg0 1.991237 1_555
F0 Fe2 2.065543 1_645
F0 Fe0 2.328686 1_646
F1 Mg0 1.988250 1_555
F1 Fe2 2.069419 1_645
F1 Fe1 2.315019 1_645
