# generated using pymatgen
data_MgCo4(AgO2)4
_symmetry_space_group_name_H-M   'P 1'
_cell_length_a   3.05057558
_cell_length_b   3.05057558
_cell_length_c   26.90207873
_cell_angle_alpha   90.43714165
_cell_angle_beta   89.56285835
_cell_angle_gamma   119.43740253
_symmetry_Int_Tables_number   1
_chemical_formula_structural   MgCo4(AgO2)4
_chemical_formula_sum   'Mg1 Co4 Ag4 O8'
_cell_volume   218.02050919
_cell_formula_units_Z   1
loop_
 _symmetry_equiv_pos_site_id
 _symmetry_equiv_pos_as_xyz
  1  'x, y, z'
loop_
 _atom_site_type_symbol
 _atom_site_label
 _atom_site_symmetry_multiplicity
 _atom_site_fract_x
 _atom_site_fract_y
 _atom_site_fract_z
 _atom_site_occupancy
  Mg  Mg0  1  0.33059898  0.66940102  0.06180727  1
  Co  Co0  1  0.33543332  0.66456668  0.16164022  1
  Co  Co1  1  0.66810972  0.33189028  0.85060967  1
  Co  Co2  1  0.66685447  0.33314553  0.61770870  1
  Co  Co3  1  0.33187208  0.66812792  0.38606049  1
  Ag  Ag0  1  0.00348326  0.99651674  0.97036396  1
  Ag  Ag1  1  0.99936865  0.00063135  0.50181247  1
  Ag  Ag2  1  0.66319037  0.33680963  0.27041466  1
  Ag  Ag3  1  0.34073207  0.65926793  0.73414633  1
  O  O0  1  0.99464414  0.00535586  0.09577564  1
  O  O1  1  0.99068226  0.00931774  0.88779028  1
  O  O2  1  0.99770621  0.00229379  0.57999966  1
  O  O3  1  0.00154795  0.99845205  0.42353410  1
  O  O4  1  0.66954706  0.33045294  0.19148692  1
  O  O5  1  0.34065999  0.65934001  0.81248492  1
  O  O6  1  0.33653428  0.66346572  0.65535972  1
  O  O7  1  0.66236821  0.33763179  0.34848400  1
loop_
_geom_bond_atom_site_label_1
_geom_bond_atom_site_label_2
_geom_bond_distance
_geom_bond_site_symmetry_2
Mg0 O0 1.984832 1_465
Mg0 O0 1.990535 1_565
Mg0 O0 1.990535 1_455
Co0 O4 1.939685 1_455
Co0 O4 1.939685 1_565
Co0 O4 1.941266 1_555
Co0 O0 2.486599 1_455
Co0 O0 2.486599 1_565
Co0 O0 2.533716 1_465
Co1 O1 1.979634 1_555
Co1 O5 2.014855 1_555
Co1 O1 2.055239 1_455
Co1 O1 2.055239 1_565
Co1 O5 2.056241 1_545
Co1 O5 2.056241 1_655
Co2 O6 2.005906 1_555
Co2 O2 2.009099 1_555
Co2 O2 2.050730 1_565
Co2 O2 2.050730 1_455
Co2 O6 2.051184 1_545
Co2 O6 2.051184 1_655
Co3 O3 2.003555 1_555
Co3 O7 2.005710 1_555
Co3 O3 2.048804 1_545
Co3 O3 2.048804 1_655
Co3 O7 2.049779 1_455
Co3 O7 2.049779 1_565
Ag0 O1 2.223023 1_465
Ag1 O2 2.103339 1_555
Ag1 O3 2.105781 1_645
Ag2 O7 2.100194 1_555
Ag2 O4 2.123289 1_555
Ag3 O5 2.107468 1_555
Ag3 O6 2.119834 1_555
