# generated using pymatgen
data_MgZn2(CoO3)2
_symmetry_space_group_name_H-M   'P 1'
_cell_length_a   5.32887735
_cell_length_b   5.73805070
_cell_length_c   5.18364515
_cell_angle_alpha   113.13883465
_cell_angle_beta   59.00460880
_cell_angle_gamma   115.07782167
_symmetry_Int_Tables_number   1
_chemical_formula_structural   MgZn2(CoO3)2
_chemical_formula_sum   'Mg1 Zn2 Co2 O6'
_cell_volume   119.90599215
_cell_formula_units_Z   1
loop_
 _symmetry_equiv_pos_site_id
 _symmetry_equiv_pos_as_xyz
  1  'x, y, z'
loop_
 _atom_site_type_symbol
 _atom_site_label
 _atom_site_symmetry_multiplicity
 _atom_site_fract_x
 _atom_site_fract_y
 _atom_site_fract_z
 _atom_site_occupancy
  Mg  Mg0  1  0.71739272  0.10989526  0.69103624  1
  Zn  Zn0  1  0.35182619  0.01365410  0.32886112  1
  Zn  Zn1  1  0.50962744  0.55126267  0.49591203  1
  Co  Co0  1  0.11275205  0.44047961  0.14495961  1
  Co  Co1  1  0.99666213  0.86996369  0.92314402  1
  O  O0  1  0.12169985  0.32222806  0.42120314  1
  O  O1  1  0.33530319  0.19896773  0.78465986  1
  O  O2  1  0.73683559  0.29798393  0.11426898  1
  O  O3  1  0.27741033  0.74975671  0.94355821  1
  O  O4  1  0.65077024  0.84688135  0.28898640  1
  O  O5  1  0.91471927  0.78642689  0.58840939  1
loop_
_geom_bond_atom_site_label_1
_geom_bond_atom_site_label_2
_geom_bond_distance
_geom_bond_site_symmetry_2
Mg0 O0 2.023144 1_655
Mg0 O2 2.065701 1_556
Mg0 O1 2.076531 1_555
Mg0 O4 2.140797 1_545
Mg0 O5 2.266286 1_545
Mg0 O3 2.517701 1_545
Co0 O0 1.836988 1_555
Co0 O2 1.882619 1_455
Co0 O1 1.973041 1_554
Co0 O3 2.049837 1_554
Co0 O5 2.455454 1_455
Co1 O5 1.838594 1_555
Co1 O4 1.844355 1_556
Co1 O3 1.954576 1_655
Co1 O1 2.044194 1_665
O0 Zn1 2.066896 1_555
O0 Zn0 2.331953 1_555
O1 Zn0 2.147414 1_555
O2 Zn1 2.063212 1_555
O2 Zn0 2.084893 1_555
O3 Zn0 2.090242 1_566
O3 Zn1 2.091226 1_555
O4 Zn1 2.027590 1_555
O4 Zn0 2.072181 1_565
O5 Zn0 2.124200 1_665
O5 Zn1 2.190646 1_555
