# generated using pymatgen
data_MgMn2Te2(MoO6)2
_symmetry_space_group_name_H-M   'P 1'
_cell_length_a   5.19205790
_cell_length_b   5.37155790
_cell_length_c   10.22879631
_cell_angle_alpha   87.45168257
_cell_angle_beta   88.39718570
_cell_angle_gamma   89.55386546
_symmetry_Int_Tables_number   1
_chemical_formula_structural   MgMn2Te2(MoO6)2
_chemical_formula_sum   'Mg1 Mn2 Te2 Mo2 O12'
_cell_volume   284.87566315
_cell_formula_units_Z   1
loop_
 _symmetry_equiv_pos_site_id
 _symmetry_equiv_pos_as_xyz
  1  'x, y, z'
loop_
 _atom_site_type_symbol
 _atom_site_label
 _atom_site_symmetry_multiplicity
 _atom_site_fract_x
 _atom_site_fract_y
 _atom_site_fract_z
 _atom_site_occupancy
  Mg  Mg0  1  0.51347000  0.47822600  0.00469100  1
  Mn  Mn0  1  0.00228400  0.99375900  0.48345900  1
  Mn  Mn1  1  0.49593300  0.51088600  0.52339100  1
  Te  Te0  1  0.02176100  0.50408400  0.28038400  1
  Te  Te1  1  0.50233200  0.99782100  0.72527900  1
  Mo  Mo0  1  0.54290500  0.97196200  0.23253400  1
  Mo  Mo1  1  0.02223800  0.52635400  0.77902700  1
  O  O0  1  0.68789000  0.17062400  0.58665400  1
  O  O1  1  0.20261700  0.33531500  0.41717800  1
  O  O2  1  0.77437900  0.69007000  0.38636600  1
  O  O3  1  0.26929200  0.80519700  0.62417800  1
  O  O4  1  0.78970700  0.18935100  0.30436900  1
  O  O5  1  0.24040800  0.29401100  0.69209300  1
  O  O6  1  0.24288600  0.64756900  0.89761200  1
  O  O7  1  0.64436300  0.73458400  0.11780500  1
  O  O8  1  0.38300800  0.21960700  0.12981000  1
  O  O9  1  0.78305800  0.35050800  0.88471300  1
  O  O10  1  0.25910400  0.81305800  0.32893400  1
  O  O11  1  0.75986500  0.70451400  0.68009200  1
loop_
_geom_bond_atom_site_label_1
_geom_bond_atom_site_label_2
_geom_bond_distance
_geom_bond_site_symmetry_2
Mg0 O8 1.958228 1_555
Mg0 O7 1.974093 1_555
Mg0 O9 1.974785 1_554
Mg0 O6 1.994590 1_554
Mn0 O0 2.156384 1_465
Mn0 O1 2.187986 1_565
Mn0 O3 2.231534 1_555
Mn0 O10 2.284043 1_555
Mn0 O2 2.299451 1_455
Mn0 O4 2.366787 1_465
Mn1 O1 2.143607 1_555
Mn1 O0 2.157596 1_555
Mn1 O2 2.183875 1_555
Mn1 O3 2.234923 1_555
Mn1 O5 2.410862 1_555
Mn1 O11 2.412907 1_555
Mo0 O7 1.835364 1_555
Mo0 O8 1.862828 1_565
Mo0 O4 1.922956 1_565
Mo0 O10 1.932763 1_555
Mo0 O2 2.465506 1_555
Mo1 O6 1.835019 1_555
Mo1 O9 1.858865 1_455
Mo1 O5 1.910966 1_555
Mo1 O11 1.940721 1_455
Mo1 O3 2.470411 1_555
O0 Te1 1.902862 1_545
O1 Te0 1.899711 1_555
O2 Te0 1.954851 1_655
O3 Te1 1.946452 1_555
O4 Te0 2.085252 1_655
O5 Te1 2.107134 1_545
O10 Te0 2.158487 1_555
O11 Te1 2.116877 1_555
