# generated using pymatgen
data_LiAlCl4
_symmetry_space_group_name_H-M   'P 1'
_cell_length_a   6.55910456
_cell_length_b   6.95777486
_cell_length_c   12.85056761
_cell_angle_alpha   87.16539454
_cell_angle_beta   90.00000000
_cell_angle_gamma   90.00000000
_symmetry_Int_Tables_number   1
_chemical_formula_structural   LiAlCl4
_chemical_formula_sum   'Li4 Al4 Cl16'
_cell_volume   585.74087362
_cell_formula_units_Z   4
loop_
 _symmetry_equiv_pos_site_id
 _symmetry_equiv_pos_as_xyz
  1  'x, y, z'
loop_
 _atom_site_type_symbol
 _atom_site_label
 _atom_site_symmetry_multiplicity
 _atom_site_fract_x
 _atom_site_fract_y
 _atom_site_fract_z
 _atom_site_occupancy
  Li  Li0  1  0.02210671  0.14993027  0.63168400  1
  Li  Li1  1  0.52210671  0.85006973  0.86831600  1
  Li  Li2  1  0.97789329  0.85006973  0.36831600  1
  Li  Li3  1  0.47789329  0.14993027  0.13168400  1
  Al  Al0  1  0.67441248  0.70328197  0.10204432  1
  Al  Al1  1  0.17441248  0.29671803  0.39795568  1
  Al  Al2  1  0.32558752  0.29671803  0.89795568  1
  Al  Al3  1  0.82558752  0.70328197  0.60204432  1
  Cl  Cl0  1  0.81600390  0.69080750  0.95285126  1
  Cl  Cl1  1  0.31600390  0.30919250  0.54714874  1
  Cl  Cl2  1  0.18399610  0.30919250  0.04714874  1
  Cl  Cl3  1  0.68399610  0.69080750  0.45285126  1
  Cl  Cl4  1  0.37109921  0.81199887  0.06966918  1
  Cl  Cl5  1  0.87109921  0.18800113  0.43033082  1
  Cl  Cl6  1  0.62890079  0.18800113  0.93033082  1
  Cl  Cl7  1  0.12890079  0.81199887  0.56966918  1
  Cl  Cl8  1  0.81411237  0.92584768  0.18967068  1
  Cl  Cl9  1  0.31411237  0.07415232  0.31032932  1
  Cl  Cl10  1  0.18588763  0.07415232  0.81032932  1
  Cl  Cl11  1  0.68588763  0.92584768  0.68967068  1
  Cl  Cl12  1  0.67537399  0.43408602  0.18839541  1
  Cl  Cl13  1  0.17537399  0.56591398  0.31160459  1
  Cl  Cl14  1  0.32462601  0.56591398  0.81160459  1
  Cl  Cl15  1  0.82462601  0.43408602  0.68839541  1
loop_
_geom_bond_atom_site_label_1
_geom_bond_atom_site_label_2
_geom_bond_distance
_geom_bond_site_symmetry_2
Al0 Cl12 2.129311 1_555
Al0 Cl0 2.135934 1_554
Al0 Cl4 2.161506 1_555
Al0 Cl8 2.162895 1_555
Al1 Cl13 2.129311 1_555
Al1 Cl1 2.135934 1_555
Al1 Cl5 2.161506 1_455
Al1 Cl9 2.162895 1_555
Al2 Cl14 2.129311 1_555
Al2 Cl2 2.135934 1_556
Al2 Cl6 2.161506 1_555
Al2 Cl10 2.162895 1_555
Al3 Cl15 2.129311 1_555
Al3 Cl3 2.135934 1_555
Al3 Cl7 2.161506 1_655
Al3 Cl11 2.162895 1_555
Cl0 Li1 2.450508 1_555
Cl1 Li0 2.450508 1_555
Cl2 Li3 2.450508 1_555
Cl3 Li2 2.450508 1_555
Cl4 Li3 2.615236 1_565
Cl4 Li1 2.771026 1_554
Cl5 Li2 2.615236 1_545
Cl5 Li0 2.771026 1_655
Cl6 Li1 2.615236 1_545
Cl6 Li3 2.771026 1_556
Cl7 Li0 2.615236 1_565
Cl7 Li2 2.771026 1_455
Cl8 Li2 2.565640 1_555
Cl8 Li3 2.781103 1_565
Cl9 Li3 2.565640 1_555
Cl9 Li2 2.781103 1_445
Cl10 Li0 2.565640 1_555
Cl10 Li1 2.781103 1_545
Cl11 Li1 2.565640 1_555
Cl11 Li0 2.781103 1_665
Cl12 Li3 2.502060 1_555
Cl13 Li2 2.502060 1_455
Cl14 Li1 2.502060 1_555
Cl15 Li0 2.502060 1_655
