# generated using pymatgen
data_SiRh
_symmetry_space_group_name_H-M   'P 1'
_cell_length_a   4.56750587
_cell_length_b   4.56516354
_cell_length_c   5.54334483
_cell_angle_alpha   113.60067525
_cell_angle_beta   90.00000000
_cell_angle_gamma   90.00000000
_symmetry_Int_Tables_number   1
_chemical_formula_structural   SiRh
_chemical_formula_sum   'Si4 Rh4'
_cell_volume   105.91867279
_cell_formula_units_Z   4
loop_
 _symmetry_equiv_pos_site_id
 _symmetry_equiv_pos_as_xyz
  1  'x, y, z'
loop_
 _atom_site_type_symbol
 _atom_site_label
 _atom_site_symmetry_multiplicity
 _atom_site_fract_x
 _atom_site_fract_y
 _atom_site_fract_z
 _atom_site_occupancy
  Si  Si0  1  0.64570703  0.26985485  0.05454852  1
  Si  Si1  1  0.14570703  0.23014515  0.44545148  1
  Si  Si2  1  0.35429297  0.73014515  0.94545148  1
  Si  Si3  1  0.85429297  0.76985485  0.55454852  1
  Rh  Rh0  1  0.64278897  0.32053789  0.62039141  1
  Rh  Rh1  1  0.14278897  0.17946211  0.87960859  1
  Rh  Rh2  1  0.35721103  0.67946211  0.37960859  1
  Rh  Rh3  1  0.85721103  0.82053789  0.12039141  1
loop_
_geom_bond_atom_site_label_1
_geom_bond_atom_site_label_2
_geom_bond_distance
_geom_bond_site_symmetry_2
Rh0 Si2 2.404557 1_555
Rh0 Si3 2.423506 1_555
Rh0 Si1 2.438259 1_555
Rh0 Si1 2.463100 1_655
Rh0 Si0 2.508329 1_556
Rh0 Si3 2.579095 1_545
Rh1 Si3 2.404557 1_445
Rh1 Si2 2.423506 1_545
Rh1 Si0 2.438259 1_456
Rh1 Si0 2.463100 1_556
Rh1 Si1 2.508329 1_555
Rh1 Si2 2.579095 1_555
Rh2 Si0 2.404557 1_555
Rh2 Si1 2.423506 1_555
Rh2 Si3 2.438259 1_555
Rh2 Si3 2.463100 1_455
Rh2 Si2 2.508329 1_554
Rh2 Si1 2.579095 1_565
Rh3 Si1 2.404557 1_665
Rh3 Si0 2.423506 1_565
Rh3 Si2 2.438259 1_654
Rh3 Si2 2.463100 1_554
Rh3 Si3 2.508329 1_555
Rh3 Si0 2.579095 1_555
