# generated using pymatgen
data_NaLaZrP2SO12
_symmetry_space_group_name_H-M   'P 1'
_cell_length_a   9.22208628
_cell_length_b   9.23987452
_cell_length_c   24.08914667
_cell_angle_alpha   89.41392998
_cell_angle_beta   90.00000000
_cell_angle_gamma   119.93633660
_symmetry_Int_Tables_number   1
_chemical_formula_structural   NaLaZrP2SO12
_chemical_formula_sum   'Na6 La6 Zr6 P12 S6 O72'
_cell_volume   1778.66965402
_cell_formula_units_Z   6
loop_
 _symmetry_equiv_pos_site_id
 _symmetry_equiv_pos_as_xyz
  1  'x, y, z'
loop_
 _atom_site_type_symbol
 _atom_site_label
 _atom_site_symmetry_multiplicity
 _atom_site_fract_x
 _atom_site_fract_y
 _atom_site_fract_z
 _atom_site_occupancy
  Na  Na0  1  0.97986333  0.98865277  0.49830525  1
  Na  Na1  1  0.00878944  0.98865277  0.99830525  1
  Na  Na2  1  0.64653033  0.32198577  0.83163825  1
  Na  Na3  1  0.67545644  0.32198577  0.33163825  1
  Na  Na4  1  0.31319633  0.65531977  0.16497225  1
  Na  Na5  1  0.34212244  0.65531977  0.66497225  1
  La  La0  1  0.99389756  0.00461671  0.64648751  1
  La  La1  1  0.01071916  0.00461671  0.14648751  1
  La  La2  1  0.66056456  0.33794971  0.97982051  1
  La  La3  1  0.67738616  0.33794971  0.47982051  1
  La  La4  1  0.32723056  0.67128371  0.31315451  1
  La  La5  1  0.34405216  0.67128371  0.81315451  1
  Zr  Zr0  1  0.00275424  0.00431079  0.35095037  1
  Zr  Zr1  1  0.00155655  0.00431079  0.85095037  1
  Zr  Zr2  1  0.66942124  0.33764379  0.68428337  1
  Zr  Zr3  1  0.66822355  0.33764379  0.18428337  1
  Zr  Zr4  1  0.33608724  0.67097779  0.01761737  1
  Zr  Zr5  1  0.33488955  0.67097779  0.51761737  1
  P  P0  1  0.30675823  0.02090525  0.25060218  1
  P  P1  1  0.98323301  0.28629319  0.24945545  1
  P  P2  1  0.30306019  0.28629319  0.74945545  1
  P  P3  1  0.71414702  0.02090525  0.75060218  1
  P  P4  1  0.97342523  0.35423825  0.58393518  1
  P  P5  1  0.64990001  0.61962619  0.58278845  1
  P  P6  1  0.96972719  0.61962619  0.08278845  1
  P  P7  1  0.38081402  0.35423825  0.08393518  1
  P  P8  1  0.64009123  0.68757225  0.91726918  1
  P  P9  1  0.31656601  0.95296019  0.91612245  1
  P  P10  1  0.63639319  0.95296019  0.41612245  1
  P  P11  1  0.04748002  0.68757225  0.41726918  1
  S  S0  1  0.71358728  0.69605638  0.25099398  1
  S  S1  1  0.98246909  0.69605638  0.75099398  1
  S  S2  1  0.38025428  0.02938938  0.58432698  1
  S  S3  1  0.64913609  0.02938938  0.08432698  1
  S  S4  1  0.04692028  0.36272338  0.91766098  1
  S  S5  1  0.31580209  0.36272338  0.41766098  1
  O  O0  1  0.20530581  0.03124658  0.30228241  1
  O  O1  1  0.81803162  0.78565953  0.30041629  1
  O  O2  1  0.96820005  0.17331989  0.30214537  1
  O  O3  1  0.20511984  0.17331989  0.80214537  1
  O  O4  1  0.96762790  0.78565953  0.80041629  1
  O  O5  1  0.82594077  0.03124658  0.80228241  1
  O  O6  1  0.78915063  0.99316169  0.69855620  1
  O  O7  1  0.20377714  0.20492228  0.69772961  1
  O  O8  1  0.00714187  0.79233896  0.69988351  1
  O  O9  1  0.78519709  0.79233896  0.19988351  1
  O  O10  1  0.00114514  0.20492228  0.19772961  1
  O  O11  1  0.20401106  0.99316169  0.19855620  1
  O  O12  1  0.87197281  0.36457958  0.63561541  1
  O  O13  1  0.48469862  0.11899253  0.63374929  1
  O  O14  1  0.63486705  0.50665289  0.63547837  1
  O  O15  1  0.87178684  0.50665289  0.13547837  1
  O  O16  1  0.63429490  0.11899253  0.13374929  1
  O  O17  1  0.49260777  0.36457958  0.13561541  1
  O  O18  1  0.45581763  0.32649469  0.03188920  1
  O  O19  1  0.87044414  0.53825528  0.03106261  1
  O  O20  1  0.67380887  0.12567196  0.03321651  1
  O  O21  1  0.45186409  0.12567196  0.53321651  1
  O  O22  1  0.66781214  0.53825528  0.53106261  1
  O  O23  1  0.87067806  0.32649469  0.53188920  1
  O  O24  1  0.53863881  0.69791358  0.96894941  1
  O  O25  1  0.15136462  0.45232653  0.96708329  1
  O  O26  1  0.30153305  0.83998689  0.96881237  1
  O  O27  1  0.53845284  0.83998689  0.46881237  1
  O  O28  1  0.30096090  0.45232653  0.46708329  1
  O  O29  1  0.15927377  0.69791358  0.46894941  1
  O  O30  1  0.12248363  0.65982869  0.36522320  1
  O  O31  1  0.53711014  0.87158928  0.36439661  1
  O  O32  1  0.34047487  0.45900596  0.36655051  1
  O  O33  1  0.11853009  0.45900596  0.86655051  1
  O  O34  1  0.33447814  0.87158928  0.86439661  1
  O  O35  1  0.53734406  0.65982869  0.86522320  1
  O  O36  1  0.04263294  0.85439261  0.41103673  1
  O  O37  1  0.81255159  0.96456660  0.41091045  1
  O  O38  1  0.15617831  0.19722428  0.41355302  1
  O  O39  1  0.04104597  0.19722428  0.91355302  1
  O  O40  1  0.15201501  0.96456660  0.91091045  1
  O  O41  1  0.81175967  0.85439261  0.91103673  1
  O  O42  1  0.00776525  0.20920013  0.58876675  1
  O  O43  1  0.20828030  0.99798937  0.58997802  1
  O  O44  1  0.80079886  0.79514300  0.58794689  1
  O  O45  1  0.99434414  0.79514300  0.08794689  1
  O  O46  1  0.78970907  0.99798937  0.08997802  1
  O  O47  1  0.20143487  0.20920013  0.08876675  1
  O  O48  1  0.70929994  0.18772561  0.74436973  1
  O  O49  1  0.47921859  0.29789960  0.74424345  1
  O  O50  1  0.82284531  0.53055728  0.74688602  1
  O  O51  1  0.70771297  0.53055728  0.24688602  1
  O  O52  1  0.81868201  0.29789960  0.24424345  1
  O  O53  1  0.47842667  0.18772561  0.24436973  1
  O  O54  1  0.67443225  0.54253313  0.92209975  1
  O  O55  1  0.87494730  0.33132237  0.92331102  1
  O  O56  1  0.46746586  0.12847600  0.92127989  1
  O  O57  1  0.66101114  0.12847600  0.42127989  1
  O  O58  1  0.45637607  0.33132237  0.42331102  1
  O  O59  1  0.86810187  0.54253313  0.42209975  1
  O  O60  1  0.37596594  0.52105961  0.07770373  1
  O  O61  1  0.14588459  0.63123360  0.07757745  1
  O  O62  1  0.48951131  0.86389128  0.08022002  1
  O  O63  1  0.37437897  0.86389128  0.58022002  1
  O  O64  1  0.48534801  0.63123360  0.57757745  1
  O  O65  1  0.14509267  0.52105961  0.57770373  1
  O  O66  1  0.34109825  0.87586713  0.25543375  1
  O  O67  1  0.54161330  0.66465637  0.25664502  1
  O  O68  1  0.13413186  0.46181000  0.25461389  1
  O  O69  1  0.32767714  0.46181000  0.75461389  1
  O  O70  1  0.12304207  0.66465637  0.75664502  1
  O  O71  1  0.53476787  0.87586713  0.75543375  1
loop_
_geom_bond_atom_site_label_1
_geom_bond_atom_site_label_2
_geom_bond_distance
_geom_bond_site_symmetry_2
Na0 O37 2.555243 1_555
Na0 O36 2.657719 1_655
Na0 O38 2.705178 1_665
Na0 O44 2.749720 1_555
Na0 O42 2.921490 1_665
Na0 O43 3.023888 1_655
Na1 O40 2.555243 1_555
Na1 O41 2.657719 1_455
Na1 O39 2.705178 1_565
Na1 O45 2.749720 1_456
Na1 O47 2.921490 1_566
Na1 O46 3.023888 1_456
Na2 O49 2.555243 1_555
Na2 O48 2.657719 1_555
Na2 O50 2.705178 1_555
Na2 O56 2.749720 1_555
Na2 O54 2.921490 1_555
Na2 O55 3.023888 1_555
Na3 O52 2.555243 1_555
Na3 O53 2.657719 1_555
Na3 O51 2.705178 1_555
Na3 O57 2.749720 1_555
Na3 O59 2.921490 1_555
Na3 O58 3.023888 1_555
Na4 O61 2.555243 1_555
Na4 O60 2.657719 1_555
Na4 O62 2.705178 1_555
Na4 O68 2.749720 1_555
Na4 O66 2.921490 1_555
Na4 O67 3.023888 1_555
Na5 O64 2.555243 1_555
Na5 O65 2.657719 1_555
Na5 O63 2.705178 1_555
Na5 O69 2.749720 1_555
Na5 O71 2.921490 1_555
Na5 O70 3.023888 1_555
La0 O6 2.224307 1_545
La0 O7 2.273054 1_655
La0 O42 2.286474 1_655
La0 O44 2.349844 1_545
La0 O8 2.388317 1_645
La0 O43 2.426537 1_645
La1 O11 2.224307 1_545
La1 O10 2.273054 1_555
La1 O47 2.286474 1_555
La1 O45 2.349844 1_445
La1 O9 2.388317 1_445
La1 O46 2.426537 1_445
La2 O18 2.224307 1_556
La2 O19 2.273054 1_556
La2 O54 2.286474 1_555
La2 O56 2.349844 1_555
La2 O20 2.388317 1_556
La2 O55 2.426537 1_555
La3 O23 2.224307 1_555
La3 O22 2.273054 1_555
La3 O59 2.286474 1_555
La3 O57 2.349844 1_555
La3 O21 2.388317 1_555
La3 O58 2.426537 1_555
La4 O30 2.224307 1_555
La4 O31 2.273054 1_555
La4 O66 2.286474 1_555
La4 O68 2.349844 1_555
La4 O32 2.388317 1_555
La4 O67 2.426537 1_555
La5 O35 2.224307 1_555
La5 O34 2.273054 1_555
La5 O71 2.286474 1_555
La5 O69 2.349844 1_555
La5 O33 2.388317 1_555
La5 O70 2.426537 1_555
O0 P0 1.589340 1_555
O0 Zr0 2.110841 1_555
O1 S0 1.501611 1_555
O1 Zr0 2.254067 1_665
O2 P1 1.596349 1_555
O2 Zr0 2.093209 1_655
O3 P2 1.596349 1_555
O3 Zr1 2.093209 1_555
O4 S1 1.501611 1_555
O4 Zr1 2.254067 1_665
O5 P3 1.589340 1_555
O5 Zr1 2.110841 1_655
O6 P3 1.516432 1_565
O7 P2 1.512711 1_555
O8 S1 1.461048 1_455
O9 S0 1.461048 1_555
O10 P1 1.512711 1_455
O11 P0 1.516432 1_565
O12 P4 1.589340 1_555
O12 Zr2 2.110841 1_555
O13 S2 1.501611 1_555
O13 Zr2 2.254067 1_555
O14 P5 1.596349 1_555
O14 Zr2 2.093209 1_555
O15 P6 1.596349 1_555
O15 Zr3 2.093209 1_555
O16 S3 1.501611 1_555
O16 Zr3 2.254067 1_555
O17 P7 1.589340 1_555
O17 Zr3 2.110841 1_555
O18 P7 1.516432 1_555
O19 P6 1.512711 1_555
O20 S3 1.461048 1_555
O21 S2 1.461048 1_555
O22 P5 1.512711 1_555
O23 P4 1.516432 1_555
O24 P8 1.589340 1_555
O24 Zr4 2.110841 1_556
O25 S4 1.501611 1_555
O25 Zr4 2.254067 1_556
O26 P9 1.596349 1_555
O26 Zr4 2.093209 1_556
O27 P10 1.596349 1_555
O27 Zr5 2.093209 1_555
O28 S5 1.501611 1_555
O28 Zr5 2.254067 1_555
O29 P11 1.589340 1_555
O29 Zr5 2.110841 1_555
O30 P11 1.516432 1_555
O31 P10 1.512711 1_555
O32 S5 1.461048 1_555
O33 S4 1.461048 1_555
O34 P9 1.512711 1_555
O35 P8 1.516432 1_555
O36 P11 1.569867 1_555
O36 Zr0 2.148625 1_565
O37 P10 1.578690 1_555
O37 Zr0 2.155017 1_665
O38 S5 1.507167 1_555
O38 Zr0 2.234103 1_555
O39 S4 1.507171 1_555
O39 Zr1 2.234103 1_555
O40 P9 1.578681 1_555
O40 Zr1 2.155017 1_565
O41 P8 1.569872 1_555
O41 Zr1 2.148625 1_665
O42 P4 1.526496 1_455
O43 S2 1.468984 1_565
O44 P5 1.527650 1_555
O45 P6 1.527653 1_555
O46 S3 1.468975 1_565
O47 P7 1.526502 1_555
O48 P3 1.569867 1_555
O48 Zr2 2.148625 1_555
O49 P2 1.578690 1_555
O49 Zr2 2.155017 1_555
O50 S1 1.507167 1_555
O50 Zr2 2.234103 1_555
O51 S0 1.507171 1_555
O51 Zr3 2.234103 1_555
O52 P1 1.578681 1_555
O52 Zr3 2.155017 1_555
O53 P0 1.569872 1_555
O53 Zr3 2.148625 1_555
O54 P8 1.526510 1_555
O55 S4 1.468969 1_655
O56 P9 1.527645 1_545
O57 P10 1.527638 1_545
O58 S5 1.468988 1_555
O59 P11 1.526498 1_655
O60 P7 1.569879 1_555
O60 Zr4 2.148625 1_555
O61 P6 1.578674 1_455
O61 Zr4 2.155017 1_555
O62 S3 1.507165 1_565
O62 Zr4 2.234103 1_555
O63 S2 1.507156 1_565
O63 Zr5 2.234103 1_555
O64 P5 1.578693 1_555
O64 Zr5 2.155017 1_555
O65 P4 1.569870 1_455
O65 Zr5 2.148625 1_555
O66 P0 1.526496 1_565
O67 S0 1.468984 1_555
O68 P1 1.527650 1_455
O69 P2 1.527653 1_555
O70 S1 1.468975 1_455
O71 P3 1.526502 1_565
