# generated using pymatgen
data_Ba2YMgCu3O7
_symmetry_space_group_name_H-M   'P 1'
_cell_length_a   3.74005283
_cell_length_b   3.95119814
_cell_length_c   14.51936494
_cell_angle_alpha   90.00000000
_cell_angle_beta   90.00000000
_cell_angle_gamma   90.00000000
_symmetry_Int_Tables_number   1
_chemical_formula_structural   Ba2YMgCu3O7
_chemical_formula_sum   'Ba2 Y1 Mg1 Cu3 O7'
_cell_volume   214.56267096
_cell_formula_units_Z   1
loop_
 _symmetry_equiv_pos_site_id
 _symmetry_equiv_pos_as_xyz
  1  'x, y, z'
loop_
 _atom_site_type_symbol
 _atom_site_label
 _atom_site_symmetry_multiplicity
 _atom_site_fract_x
 _atom_site_fract_y
 _atom_site_fract_z
 _atom_site_occupancy
  Ba  Ba0  1  0.50000000  0.50000000  0.77883391  1
  Ba  Ba1  1  0.50000000  0.50000000  0.08752044  1
  Y  Y0  1  0.50000000  0.50000000  0.52117609  1
  Mg  Mg0  1  0.50000000  0.00000000  0.27750012  1
  Cu  Cu0  1  0.00000000  0.00000000  0.63752828  1
  Cu  Cu1  1  0.00000000  0.00000000  0.41890522  1
  Cu  Cu2  1  0.00000000  0.00000000  0.93592496  1
  O  O0  1  0.00000000  0.50000000  0.97358981  1
  O  O1  1  0.50000000  0.00000000  0.60934174  1
  O  O2  1  0.50000000  0.00000000  0.41111595  1
  O  O3  1  0.00000000  0.50000000  0.62657765  1
  O  O4  1  0.00000000  0.50000000  0.42671828  1
  O  O5  1  0.00000000  0.00000000  0.80224213  1
  O  O6  1  0.00000000  0.00000000  0.20969243  1
loop_
_geom_bond_atom_site_label_1
_geom_bond_atom_site_label_2
_geom_bond_distance
_geom_bond_site_symmetry_2
Ba0 O5 2.741442 1_665
Ba0 O5 2.741442 1_555
Ba0 O5 2.741442 1_565
Ba0 O5 2.741442 1_655
Ba0 O3 2.895520 1_555
Ba0 O3 2.895520 1_655
Ba0 O1 3.155806 1_565
Ba0 O1 3.155806 1_555
Ba0 O0 3.390143 1_555
Ba0 O0 3.390143 1_655
Ba1 O0 2.496673 1_654
Ba1 O0 2.496673 1_554
Mg0 O2 1.940017 1_555
Mg0 O6 2.113359 1_655
Mg0 O6 2.113359 1_555
Cu0 O1 1.914284 1_455
Cu0 O1 1.914284 1_555
Cu0 O3 1.981987 1_555
Cu0 O3 1.981987 1_545
Cu0 O5 2.391540 1_555
Cu1 O2 1.873443 1_555
Cu1 O2 1.873443 1_455
Cu1 O4 1.978853 1_555
Cu1 O4 1.978853 1_545
Cu2 O5 1.940990 1_555
Cu2 O0 2.049892 1_555
Cu2 O0 2.049892 1_545
O1 Y0 2.354075 1_545
O1 Y0 2.354075 1_555
O2 Y0 2.540985 1_545
O2 Y0 2.540985 1_555
O3 Y0 2.416405 1_455
O3 Y0 2.416405 1_555
O4 Y0 2.319035 1_455
O4 Y0 2.319035 1_555
