# generated using pymatgen
data_Na4HfAlSi2PO12
_symmetry_space_group_name_H-M   'P 1'
_cell_length_a   8.97871536
_cell_length_b   8.97871505
_cell_length_c   22.15395563
_cell_angle_alpha   89.45491579
_cell_angle_beta   90.54508420
_cell_angle_gamma   119.47024260
_symmetry_Int_Tables_number   1
_chemical_formula_structural   Na4HfAlSi2PO12
_chemical_formula_sum   'Na24 Hf6 Al6 Si12 P6 O72'
_cell_volume   1554.81112998
_cell_formula_units_Z   6
loop_
 _symmetry_equiv_pos_site_id
 _symmetry_equiv_pos_as_xyz
  1  'x, y, z'
loop_
 _atom_site_type_symbol
 _atom_site_label
 _atom_site_symmetry_multiplicity
 _atom_site_fract_x
 _atom_site_fract_y
 _atom_site_fract_z
 _atom_site_occupancy
  Na  Na0  1  0.63970361  0.00394909  0.25014472  1
  Na  Na1  1  0.36899062  0.36678750  0.24648587  1
  Na  Na2  1  0.99189819  0.62681887  0.24961353  1
  Na  Na3  1  0.63321250  0.63100938  0.74648587  1
  Na  Na4  1  0.99605091  0.36029639  0.75014472  1
  Na  Na5  1  0.37318113  0.00810181  0.74961353  1
  Na  Na6  1  0.30637061  0.33728209  0.58347772  1
  Na  Na7  1  0.03565762  0.70012050  0.57981887  1
  Na  Na8  1  0.65856519  0.96015187  0.58294653  1
  Na  Na9  1  0.29987950  0.96434238  0.07981887  1
  Na  Na10  1  0.66271791  0.69362939  0.08347772  1
  Na  Na11  1  0.03984813  0.34143481  0.08294653  1
  Na  Na12  1  0.97303661  0.67061609  0.91681172  1
  Na  Na13  1  0.70232362  0.03345450  0.91315287  1
  Na  Na14  1  0.32523119  0.29348587  0.91628053  1
  Na  Na15  1  0.96654550  0.29767638  0.41315287  1
  Na  Na16  1  0.32938391  0.02696339  0.41681172  1
  Na  Na17  1  0.70651413  0.67476881  0.41628053  1
  Na  Na18  1  0.99829224  0.99402512  0.49702741  1
  Na  Na19  1  0.00597488  0.00170776  0.99702741  1
  Na  Na20  1  0.66495924  0.32735812  0.83036041  1
  Na  Na21  1  0.67264188  0.33504076  0.33036041  1
  Na  Na22  1  0.33162524  0.66069212  0.16369441  1
  Na  Na23  1  0.33930788  0.66837476  0.66369441  1
  Hf  Hf0  1  0.99833539  0.99991141  0.64828359  1
  Hf  Hf1  1  0.00008859  0.00166461  0.14828359  1
  Hf  Hf2  1  0.66500239  0.33324441  0.98161659  1
  Hf  Hf3  1  0.66675559  0.33499761  0.48161659  1
  Hf  Hf4  1  0.33166839  0.66657841  0.31495059  1
  Hf  Hf5  1  0.33342159  0.66833161  0.81495059  1
  Al  Al0  1  0.98350365  0.98863623  0.35167466  1
  Al  Al1  1  0.01136377  0.01649635  0.85167466  1
  Al  Al2  1  0.65017065  0.32196923  0.68500766  1
  Al  Al3  1  0.67803077  0.34982935  0.18500766  1
  Al  Al4  1  0.31683665  0.65530323  0.01834166  1
  Al  Al5  1  0.34469677  0.68316335  0.51834166  1
  Si  Si0  1  0.70945477  0.70346430  0.25112860  1
  Si  Si1  1  0.99231390  0.28772022  0.25169055  1
  Si  Si2  1  0.29653570  0.29054523  0.75112860  1
  Si  Si3  1  0.71227978  0.00768610  0.75169055  1
  Si  Si4  1  0.37612177  0.03679730  0.58446160  1
  Si  Si5  1  0.65898090  0.62105322  0.58502355  1
  Si  Si6  1  0.96320270  0.62387823  0.08446160  1
  Si  Si7  1  0.37894678  0.34101910  0.08502355  1
  Si  Si8  1  0.04278777  0.37013130  0.91779560  1
  Si  Si9  1  0.32564690  0.95438722  0.91835755  1
  Si  Si10  1  0.62986870  0.95721223  0.41779560  1
  Si  Si11  1  0.04561278  0.67435310  0.41835755  1
  P  P0  1  0.29333868  0.00587484  0.25212866  1
  P  P1  1  0.99412516  0.70666132  0.75212866  1
  P  P2  1  0.96000568  0.33920784  0.58546166  1
  P  P3  1  0.66079216  0.03999432  0.08546166  1
  P  P4  1  0.62667168  0.67254184  0.91879566  1
  P  P5  1  0.32745816  0.37332832  0.41879566  1
  O  O0  1  0.20556639  0.03406300  0.30741343  1
  O  O1  1  0.83422691  0.79570735  0.30916207  1
  O  O2  1  0.96757714  0.16380726  0.30997792  1
  O  O3  1  0.20429265  0.16577309  0.80916207  1
  O  O4  1  0.96593700  0.79443361  0.80741343  1
  O  O5  1  0.83619274  0.03242286  0.80997792  1
  O  O6  1  0.78965882  0.96421508  0.69172348  1
  O  O7  1  0.17462577  0.20989613  0.69129496  1
  O  O8  1  0.03149507  0.82047923  0.69478446  1
  O  O9  1  0.79010387  0.82537423  0.19129496  1
  O  O10  1  0.03578492  0.21034118  0.19172348  1
  O  O11  1  0.17952077  0.96850493  0.19478446  1
  O  O12  1  0.87223339  0.36739600  0.64074643  1
  O  O13  1  0.50089391  0.12904035  0.64249507  1
  O  O14  1  0.63424414  0.49714026  0.64331092  1
  O  O15  1  0.87095965  0.49910609  0.14249507  1
  O  O16  1  0.63260400  0.12776661  0.14074643  1
  O  O17  1  0.50285974  0.36575586  0.14331092  1
  O  O18  1  0.45632582  0.29754808  0.02505648  1
  O  O19  1  0.84129277  0.54322913  0.02462796  1
  O  O20  1  0.69816207  0.15381223  0.02811746  1
  O  O21  1  0.45677087  0.15870723  0.52462796  1
  O  O22  1  0.70245192  0.54367418  0.52505648  1
  O  O23  1  0.84618777  0.30183793  0.52811746  1
  O  O24  1  0.53889939  0.70073000  0.97408043  1
  O  O25  1  0.16755991  0.46237435  0.97582907  1
  O  O26  1  0.30091014  0.83047426  0.97664492  1
  O  O27  1  0.53762565  0.83244009  0.47582907  1
  O  O28  1  0.29927000  0.46110061  0.47408043  1
  O  O29  1  0.16952574  0.69908986  0.47664492  1
  O  O30  1  0.12299182  0.63088208  0.35839048  1
  O  O31  1  0.50795877  0.87656313  0.35796196  1
  O  O32  1  0.36482807  0.48714623  0.36145146  1
  O  O33  1  0.12343687  0.49204123  0.85796196  1
  O  O34  1  0.36911792  0.87700818  0.85839048  1
  O  O35  1  0.51285377  0.63517193  0.86145146  1
  O  O36  1  0.03081242  0.84908066  0.40944750  1
  O  O37  1  0.82115979  0.97760457  0.41065710  1
  O  O38  1  0.16991409  0.19405470  0.41093952  1
  O  O39  1  0.02239543  0.17884021  0.91065710  1
  O  O40  1  0.15091934  0.96918758  0.90944750  1
  O  O41  1  0.80594530  0.83008591  0.91093952  1
  O  O42  1  0.97681357  0.17459489  0.58910915  1
  O  O43  1  0.18489686  0.01900366  0.58870589  1
  O  O44  1  0.83020665  0.81309042  0.58860694  1
  O  O45  1  0.98099634  0.81510314  0.08870589  1
  O  O46  1  0.82540511  0.02318643  0.08910915  1
  O  O47  1  0.18690958  0.16979335  0.08860694  1
  O  O48  1  0.69747942  0.18241366  0.74278050  1
  O  O49  1  0.48782679  0.31093757  0.74399010  1
  O  O50  1  0.83658109  0.52738770  0.74427252  1
  O  O51  1  0.68906243  0.51217321  0.24399010  1
  O  O52  1  0.81758634  0.30252058  0.24278050  1
  O  O53  1  0.47261230  0.16341891  0.24427252  1
  O  O54  1  0.64348057  0.50792789  0.92244215  1
  O  O55  1  0.85156386  0.35233666  0.92203889  1
  O  O56  1  0.49687365  0.14642342  0.92193994  1
  O  O57  1  0.64766334  0.14843614  0.42203889  1
  O  O58  1  0.49207211  0.35651943  0.42244215  1
  O  O59  1  0.85357658  0.50312635  0.42193994  1
  O  O60  1  0.36414542  0.51574766  0.07611450  1
  O  O61  1  0.15449279  0.64427157  0.07732410  1
  O  O62  1  0.50324709  0.86072170  0.07760652  1
  O  O63  1  0.35572843  0.84550721  0.57732410  1
  O  O64  1  0.48425234  0.63585458  0.57611450  1
  O  O65  1  0.13927830  0.49675291  0.57760652  1
  O  O66  1  0.31014657  0.84126189  0.25577615  1
  O  O67  1  0.51822986  0.68567066  0.25537289  1
  O  O68  1  0.16353965  0.47975742  0.25527394  1
  O  O69  1  0.31432934  0.48177014  0.75537289  1
  O  O70  1  0.15873811  0.68985343  0.75577615  1
  O  O71  1  0.52024258  0.83646035  0.75527394  1
loop_
_geom_bond_atom_site_label_1
_geom_bond_atom_site_label_2
_geom_bond_distance
_geom_bond_site_symmetry_2
Na0 O52 2.355398 1_555
Na0 O67 2.509763 1_545
Na0 O53 2.534610 1_555
Na0 O66 2.579851 1_545
Na0 O31 2.661446 1_545
Na0 O16 2.670089 1_555
Na0 O2 2.878896 1_555
Na0 O9 2.880602 1_545
Na1 O53 2.424136 1_555
Na1 O67 2.502545 1_555
Na1 O51 2.505282 1_555
Na1 O68 2.514216 1_555
Na1 O17 2.594809 1_555
Na1 O32 2.783896 1_555
Na1 O10 2.867750 1_555
Na1 O0 2.923621 1_555
Na2 O51 2.389665 1_555
Na2 O68 2.475827 1_655
Na2 O52 2.543767 1_555
Na2 O66 2.544618 1_655
Na2 O15 2.627394 1_555
Na2 O30 2.664500 1_655
Na2 O1 2.868780 1_555
Na2 O11 2.933970 1_655
Na3 O50 2.424136 1_555
Na3 O69 2.502545 1_555
Na3 O49 2.505282 1_555
Na3 O71 2.514216 1_555
Na3 O14 2.594809 1_555
Na3 O35 2.783896 1_555
Na3 O6 2.867750 1_555
Na3 O4 2.923621 1_555
Na4 O48 2.355398 1_555
Na4 O69 2.509763 1_655
Na4 O50 2.534610 1_555
Na4 O70 2.579851 1_655
Na4 O33 2.661446 1_655
Na4 O12 2.670089 1_555
Na4 O5 2.878895 1_555
Na4 O7 2.880602 1_655
Na5 O49 2.389665 1_555
Na5 O71 2.475827 1_545
Na5 O48 2.543767 1_555
Na5 O70 2.544618 1_545
Na5 O13 2.627394 1_555
Na5 O34 2.664500 1_545
Na5 O3 2.868780 1_555
Na5 O8 2.933970 1_545
Na6 O64 2.355403 1_555
Na6 O43 2.509763 1_555
Na6 O65 2.534625 1_555
Na6 O42 2.579851 1_455
Na6 O7 2.661446 1_555
Na6 O28 2.670075 1_555
Na6 O14 2.878896 1_555
Na6 O21 2.880602 1_555
Na7 O65 2.424120 1_555
Na7 O43 2.502545 1_565
Na7 O63 2.505273 1_555
Na7 O44 2.514216 1_455
Na7 O29 2.594783 1_555
Na7 O8 2.783896 1_555
Na7 O22 2.867750 1_455
Na7 O12 2.923621 1_455
Na8 O63 2.389674 1_555
Na8 O44 2.475827 1_555
Na8 O64 2.543759 1_555
Na8 O42 2.544618 1_565
Na8 O27 2.627373 1_555
Na8 O6 2.664500 1_555
Na8 O13 2.868780 1_565
Na8 O23 2.933970 1_565
Na9 O62 2.424120 1_555
Na9 O45 2.502545 1_455
Na9 O61 2.505273 1_555
Na9 O47 2.514216 1_565
Na9 O26 2.594783 1_554
Na9 O11 2.783896 1_555
Na9 O18 2.867750 1_565
Na9 O16 2.923621 1_565
Na10 O60 2.355403 1_555
Na10 O45 2.509763 1_555
Na10 O62 2.534625 1_555
Na10 O46 2.579851 1_565
Na10 O9 2.661446 1_555
Na10 O24 2.670075 1_554
Na10 O17 2.878895 1_555
Na10 O19 2.880602 1_555
Na11 O61 2.389674 1_555
Na11 O47 2.475827 1_555
Na11 O60 2.543759 1_555
Na11 O46 2.544618 1_455
Na11 O25 2.627373 1_554
Na11 O10 2.664500 1_555
Na11 O15 2.868780 1_455
Na11 O20 2.933970 1_455
Na12 O40 2.355398 1_655
Na12 O55 2.509772 1_555
Na12 O41 2.534610 1_555
Na12 O54 2.579842 1_555
Na12 O19 2.661426 1_556
Na12 O4 2.670089 1_555
Na12 O26 2.878896 1_655
Na12 O33 2.880602 1_655
Na13 O41 2.424136 1_545
Na13 O55 2.502535 1_555
Na13 O39 2.505282 1_655
Na13 O56 2.514199 1_555
Na13 O5 2.594809 1_555
Na13 O20 2.783870 1_556
Na13 O34 2.867750 1_545
Na13 O24 2.923621 1_545
Na14 O39 2.389665 1_555
Na14 O56 2.475842 1_555
Na14 O40 2.543767 1_545
Na14 O54 2.544622 1_555
Na14 O3 2.627394 1_555
Na14 O18 2.664486 1_556
Na14 O25 2.868780 1_555
Na14 O35 2.933970 1_555
Na15 O38 2.424136 1_655
Na15 O57 2.502535 1_555
Na15 O37 2.505282 1_545
Na15 O59 2.514199 1_555
Na15 O2 2.594809 1_555
Na15 O23 2.783870 1_555
Na15 O30 2.867750 1_655
Na15 O28 2.923621 1_655
Na16 O36 2.355398 1_545
Na16 O57 2.509772 1_555
Na16 O38 2.534610 1_555
Na16 O58 2.579842 1_555
Na16 O21 2.661426 1_555
Na16 O0 2.670089 1_555
Na16 O29 2.878895 1_545
Na16 O31 2.880602 1_545
Na17 O37 2.389665 1_555
Na17 O59 2.475842 1_555
Na17 O36 2.543767 1_655
Na17 O58 2.544621 1_555
Na17 O1 2.627394 1_555
Na17 O22 2.664486 1_555
Na17 O27 2.868780 1_555
Na17 O32 2.933970 1_555
Na18 O37 2.434993 1_555
Na18 O36 2.444626 1_655
Na18 O38 2.550520 1_665
Na18 O43 2.560627 1_665
Na18 O44 2.572203 1_555
Na18 O42 2.684271 1_565
Na19 O39 2.434993 1_555
Na19 O40 2.444626 1_545
Na19 O41 2.550520 1_445
Na19 O45 2.560627 1_446
Na19 O47 2.572203 1_556
Na19 O46 2.684271 1_456
Na20 O49 2.434993 1_555
Na20 O48 2.444626 1_555
Na20 O50 2.550520 1_555
Na20 O55 2.560627 1_555
Na20 O56 2.572203 1_555
Na20 O54 2.684271 1_555
Na21 O51 2.434993 1_555
Na21 O52 2.444626 1_555
Na21 O53 2.550520 1_555
Na21 O57 2.560627 1_555
Na21 O59 2.572203 1_555
Na21 O58 2.684271 1_555
Na22 O61 2.434993 1_555
Na22 O60 2.444626 1_555
Na22 O62 2.550520 1_555
Na22 O67 2.560627 1_555
Na22 O68 2.572203 1_555
Na22 O66 2.684271 1_555
Na23 O63 2.434993 1_555
Na23 O64 2.444626 1_555
Na23 O65 2.550520 1_555
Na23 O69 2.560627 1_555
Na23 O71 2.572203 1_555
Na23 O70 2.684271 1_555
Hf0 O6 1.994239 1_555
Hf0 O7 2.009281 1_665
Hf0 O8 2.044507 1_655
Hf0 O43 2.081489 1_665
Hf0 O44 2.086412 1_555
Hf0 O42 2.114280 1_565
Hf1 O10 1.994239 1_555
Hf1 O9 2.009281 1_445
Hf1 O11 2.044507 1_545
Hf1 O45 2.081489 1_445
Hf1 O47 2.086412 1_555
Hf1 O46 2.114280 1_455
Hf2 O18 1.994239 1_556
Hf2 O19 2.009281 1_556
Hf2 O20 2.044507 1_556
Hf2 O55 2.081489 1_555
Hf2 O56 2.086412 1_555
Hf2 O54 2.114280 1_555
Hf3 O22 1.994239 1_555
Hf3 O21 2.009281 1_555
Hf3 O23 2.044507 1_555
Hf3 O57 2.081489 1_555
Hf3 O59 2.086412 1_555
Hf3 O58 2.114280 1_555
Hf4 O30 1.994239 1_555
Hf4 O31 2.009281 1_555
Hf4 O32 2.044507 1_555
Hf4 O67 2.081489 1_555
Hf4 O68 2.086412 1_555
Hf4 O66 2.114280 1_555
Hf5 O34 1.994239 1_555
Hf5 O33 2.009281 1_555
Hf5 O35 2.044507 1_555
Hf5 O69 2.081489 1_555
Hf5 O71 2.086412 1_555
Hf5 O70 2.114280 1_555
Al0 O1 1.845728 1_555
Al0 O2 1.881126 1_565
Al0 O37 1.932276 1_555
Al0 O36 1.967612 1_655
Al0 O0 2.081505 1_665
Al0 O38 2.212196 1_665
Al1 O3 1.845728 1_555
Al1 O5 1.881126 1_455
Al1 O39 1.932276 1_555
Al1 O40 1.967612 1_545
Al1 O4 2.081505 1_445
Al1 O41 2.212196 1_445
Al2 O13 1.845728 1_555
Al2 O14 1.881126 1_555
Al2 O49 1.932276 1_555
Al2 O48 1.967612 1_555
Al2 O12 2.081505 1_555
Al2 O50 2.212196 1_555
Al3 O15 1.845728 1_555
Al3 O17 1.881126 1_555
Al3 O51 1.932276 1_555
Al3 O52 1.967612 1_555
Al3 O16 2.081505 1_555
Al3 O53 2.212196 1_555
Al4 O25 1.845728 1_554
Al4 O26 1.881126 1_554
Al4 O61 1.932276 1_555
Al4 O60 1.967612 1_555
Al4 O24 2.081505 1_554
Al4 O62 2.212196 1_555
Al5 O27 1.845728 1_555
Al5 O29 1.881126 1_555
Al5 O63 1.932276 1_555
Al5 O64 1.967612 1_555
Al5 O28 2.081505 1_555
Al5 O65 2.212196 1_555
O0 P0 1.551040 1_555
O1 Si0 1.635195 1_555
O2 Si1 1.639997 1_555
O3 Si2 1.635195 1_555
O4 P1 1.551040 1_555
O5 Si3 1.639997 1_555
O6 Si3 1.641409 1_565
O7 Si2 1.640226 1_555
O8 P1 1.554632 1_455
O9 Si0 1.640226 1_555
O10 Si1 1.641409 1_455
O11 P0 1.554632 1_565
O12 P2 1.551040 1_555
O13 Si4 1.635195 1_555
O14 Si5 1.639997 1_555
O15 Si6 1.635195 1_555
O16 P3 1.551040 1_555
O17 Si7 1.639997 1_555
O18 Si7 1.641409 1_555
O19 Si6 1.640226 1_555
O20 P3 1.554632 1_555
O21 Si4 1.640226 1_555
O22 Si5 1.641409 1_555
O23 P2 1.554632 1_555
O24 P4 1.551040 1_555
O25 Si8 1.635195 1_555
O26 Si9 1.639997 1_555
O27 Si10 1.635195 1_555
O28 P5 1.551040 1_555
O29 Si11 1.639997 1_555
O30 Si11 1.641409 1_555
O31 Si10 1.640226 1_555
O32 P5 1.554632 1_555
O33 Si8 1.640226 1_555
O34 Si9 1.641409 1_555
O35 P4 1.554632 1_555
O36 Si11 1.648207 1_555
O37 Si10 1.644292 1_555
O38 P5 1.543528 1_555
O39 Si8 1.644292 1_555
O40 Si9 1.648207 1_555
O41 P4 1.543528 1_555
O42 P2 1.559100 1_555
O43 Si4 1.647780 1_555
O44 Si5 1.653754 1_555
O45 Si6 1.647780 1_555
O46 P3 1.559100 1_555
O47 Si7 1.653754 1_555
O48 Si3 1.648207 1_555
O49 Si2 1.644292 1_555
O50 P1 1.543528 1_555
O51 Si0 1.644292 1_555
O52 Si1 1.648207 1_555
O53 P0 1.543528 1_555
O54 P4 1.559113 1_555
O55 Si8 1.647766 1_655
O56 Si9 1.653751 1_545
O57 Si10 1.647766 1_545
O58 P5 1.559113 1_555
O59 Si11 1.653751 1_655
O60 Si7 1.648219 1_555
O61 Si6 1.644277 1_455
O62 P3 1.543524 1_565
O63 Si4 1.644277 1_565
O64 Si5 1.648219 1_555
O65 P2 1.543524 1_455
O66 P0 1.559100 1_565
O67 Si0 1.647780 1_555
O68 Si1 1.653754 1_455
O69 Si2 1.647780 1_555
O70 P1 1.559100 1_455
O71 Si3 1.653754 1_565
