# generated using pymatgen
data_MgCo4(NiS4)2
_symmetry_space_group_name_H-M   'P 1'
_cell_length_a   6.90263497
_cell_length_b   6.90263543
_cell_length_c   6.90263417
_cell_angle_alpha   56.93737985
_cell_angle_beta   56.93737387
_cell_angle_gamma   56.93738138
_symmetry_Int_Tables_number   1
_chemical_formula_structural   MgCo4(NiS4)2
_chemical_formula_sum   'Mg1 Co4 Ni2 S8'
_cell_volume   216.12958362
_cell_formula_units_Z   1
loop_
 _symmetry_equiv_pos_site_id
 _symmetry_equiv_pos_as_xyz
  1  'x, y, z'
loop_
 _atom_site_type_symbol
 _atom_site_label
 _atom_site_symmetry_multiplicity
 _atom_site_fract_x
 _atom_site_fract_y
 _atom_site_fract_z
 _atom_site_occupancy
  Mg  Mg0  1  0.00000000  0.00000000  0.00000000  1
  Co  Co0  1  0.50000000  0.50000000  0.50000000  1
  Co  Co1  1  0.50000000  0.50000000  0.00000000  1
  Co  Co2  1  0.50000000  0.00000000  0.50000000  1
  Co  Co3  1  0.00000000  0.50000000  0.50000000  1
  Ni  Ni0  1  0.86112100  0.86112100  0.86112100  1
  Ni  Ni1  1  0.13887900  0.13887900  0.13887900  1
  S  S0  1  0.73627500  0.73627500  0.73627500  1
  S  S1  1  0.26441800  0.26441800  0.71915600  1
  S  S2  1  0.26441800  0.71915600  0.26441800  1
  S  S3  1  0.71915600  0.26441800  0.26441800  1
  S  S4  1  0.73558200  0.28084400  0.73558200  1
  S  S5  1  0.28084400  0.73558200  0.73558200  1
  S  S6  1  0.26372500  0.26372500  0.26372500  1
  S  S7  1  0.73558200  0.73558200  0.28084400  1
loop_
_geom_bond_atom_site_label_1
_geom_bond_atom_site_label_2
_geom_bond_distance
_geom_bond_site_symmetry_2
Mg0 Ni1 2.401047 1_555
Mg0 Ni0 2.401047 1_444
Mg0 S3 2.516784 1_455
Mg0 S5 2.516784 1_544
Mg0 S1 2.516784 1_554
Mg0 S7 2.516784 1_445
Mg0 S2 2.516784 1_545
Mg0 S4 2.516784 1_454
Co0 S5 2.257026 1_555
Co0 S3 2.257026 1_555
Co0 S4 2.257026 1_555
Co0 S2 2.257026 1_555
Co0 S7 2.257026 1_555
Co0 S1 2.257026 1_555
Co1 S0 2.248788 1_554
Co1 S6 2.248788 1_555
Co1 S2 2.313906 1_555
Co1 S4 2.313906 1_554
Co1 S3 2.313906 1_555
Co1 S5 2.313906 1_554
Co2 S0 2.248788 1_545
Co2 S6 2.248788 1_555
Co2 S1 2.313906 1_555
Co2 S7 2.313906 1_545
Co2 S3 2.313906 1_555
Co2 S5 2.313906 1_545
Co3 S6 2.248788 1_555
Co3 S0 2.248788 1_455
Co3 S2 2.313906 1_555
Co3 S4 2.313906 1_455
Co3 S1 2.313906 1_555
Co3 S7 2.313906 1_455
Ni0 S0 2.158433 1_555
Ni0 S7 2.288290 1_556
Ni0 S5 2.288290 1_655
Ni0 S4 2.288291 1_565
Ni1 S6 2.158433 1_555
Ni1 S1 2.288290 1_554
Ni1 S3 2.288290 1_455
Ni1 S2 2.288291 1_545
