# generated using pymatgen
data_V3AsC
_symmetry_space_group_name_H-M   'P 1'
_cell_length_a   3.13948863
_cell_length_b   5.24766143
_cell_length_c   7.65117500
_cell_angle_alpha   90.00000000
_cell_angle_beta   90.00000000
_cell_angle_gamma   107.40548635
_symmetry_Int_Tables_number   1
_chemical_formula_structural   V3AsC
_chemical_formula_sum   'V6 As2 C2'
_cell_volume   120.28115504
_cell_formula_units_Z   2
loop_
 _symmetry_equiv_pos_site_id
 _symmetry_equiv_pos_as_xyz
  1  'x, y, z'
loop_
 _atom_site_type_symbol
 _atom_site_label
 _atom_site_symmetry_multiplicity
 _atom_site_fract_x
 _atom_site_fract_y
 _atom_site_fract_z
 _atom_site_occupancy
  V  V0  1  0.12712596  0.25425392  0.55200919  1
  V  V1  1  0.54510388  0.09020575  0.25000000  1
  V  V2  1  0.45489612  0.90979425  0.75000000  1
  V  V3  1  0.12712596  0.25425392  0.94799081  1
  V  V4  1  0.87287404  0.74574608  0.05200919  1
  V  V5  1  0.87287404  0.74574608  0.44799081  1
  As  As0  1  0.24210665  0.48421431  0.25000000  1
  As  As1  1  0.75789335  0.51578569  0.75000000  1
  C  C0  1  0.50000000  -0.00000000  0.50000000  1
  C  C1  1  0.50000000  -0.00000000  -0.00000000  1
loop_
_geom_bond_atom_site_label_1
_geom_bond_atom_site_label_2
_geom_bond_distance
_geom_bond_site_symmetry_2
As0 V1 2.521233 1_455
As0 V1 2.521239 1_555
As0 V5 2.544389 1_455
As0 V4 2.544389 1_455
As0 V5 2.544394 1_555
As0 V4 2.544394 1_555
As0 V3 2.581744 1_554
As0 V0 2.581744 1_555
As1 V2 2.521233 1_655
As1 V2 2.521239 1_555
As1 V0 2.544389 1_655
As1 V3 2.544389 1_655
As1 V0 2.544394 1_555
As1 V3 2.544394 1_555
As1 V4 2.581744 1_556
As1 V5 2.581744 1_555
C0 V1 1.965403 1_555
C0 V2 1.965403 1_545
C0 V5 2.059936 1_445
C0 V0 2.059936 1_655
C0 V5 2.059941 1_545
C0 V0 2.059941 1_555
C1 V1 1.965403 1_555
C1 V2 1.965403 1_544
C1 V4 2.059936 1_445
C1 V3 2.059936 1_654
C1 V3 2.059941 1_554
C1 V4 2.059941 1_545
