# generated using pymatgen
data_Na7Mg2Ta2Si3(PO8)3
_symmetry_space_group_name_H-M   'P 1'
_cell_length_a   9.06071059
_cell_length_b   9.04331049
_cell_length_c   22.25531136
_cell_angle_alpha   90.22836858
_cell_angle_beta   89.90289756
_cell_angle_gamma   120.01527239
_symmetry_Int_Tables_number   1
_chemical_formula_structural   Na7Mg2Ta2Si3(PO8)3
_chemical_formula_sum   'Na21 Mg6 Ta6 Si9 P9 O72'
_cell_volume   1579.00561828
_cell_formula_units_Z   3
loop_
 _symmetry_equiv_pos_site_id
 _symmetry_equiv_pos_as_xyz
  1  'x, y, z'
loop_
 _atom_site_type_symbol
 _atom_site_label
 _atom_site_symmetry_multiplicity
 _atom_site_fract_x
 _atom_site_fract_y
 _atom_site_fract_z
 _atom_site_occupancy
  Na  Na0  1  0.61937286  0.98292138  0.26191154  1
  Na  Na1  1  0.35280913  0.37047162  0.25607973  1
  Na  Na2  1  0.02615605  0.64546126  0.25515475  1
  Na  Na3  1  0.64964714  0.62347890  0.74485932  1
  Na  Na4  1  0.98251020  0.35892920  0.73953848  1
  Na  Na5  1  0.37286299  0.01801391  0.74067504  1
  Na  Na6  1  0.00857294  0.67214882  0.58566785  1
  Na  Na7  1  0.66675130  0.99645630  0.58281678  1
  Na  Na8  1  0.27575750  0.94576954  0.08659086  1
  Na  Na9  1  0.66872328  0.71846946  0.07793495  1
  Na  Na10  1  0.05287366  0.33601965  0.08750698  1
  Na  Na11  1  0.97533682  0.68834611  0.90632367  1
  Na  Na12  1  0.32063162  0.29294845  0.90723185  1
  Na  Na13  1  0.95389912  0.30565594  0.42739837  1
  Na  Na14  1  0.35658741  0.04035901  0.42446939  1
  Na  Na15  1  0.99983511  0.00243793  0.50207952  1
  Na  Na16  1  0.98168806  0.99181818  0.99590174  1
  Na  Na17  1  0.66716780  0.32870325  0.82156559  1
  Na  Na18  1  0.66753532  0.34378937  0.34712762  1
  Na  Na19  1  0.32309002  0.66693799  0.17005179  1
  Na  Na20  1  0.32529430  0.65042752  0.66324329  1
  Mg  Mg0  1  0.99334652  0.99702131  0.85306211  1
  Mg  Mg1  1  0.00149768  0.99697523  0.14576692  1
  Mg  Mg2  1  0.66707711  0.33451350  0.68053364  1
  Mg  Mg3  1  0.66382815  0.33049539  0.48611228  1
  Mg  Mg4  1  0.33314943  0.66764977  0.02095646  1
  Mg  Mg5  1  0.33192570  0.66805056  0.31476553  1
  Ta  Ta0  1  0.99925358  0.00210684  0.35220869  1
  Ta  Ta1  1  0.00850132  0.00444723  0.64854803  1
  Ta  Ta2  1  0.67131099  0.33333974  0.19003435  1
  Ta  Ta3  1  0.67072004  0.33820622  0.97576652  1
  Ta  Ta4  1  0.33865613  0.66829444  0.51783435  1
  Ta  Ta5  1  0.33598591  0.66682104  0.81489971  1
  Si  Si0  1  0.29050935  0.99759485  0.24532387  1
  Si  Si1  1  0.00376823  0.29207016  0.24482436  1
  Si  Si2  1  0.29490057  0.29172935  0.75628551  1
  Si  Si3  1  0.99884559  0.70393714  0.75483333  1
  Si  Si4  1  0.96295896  0.33248752  0.58255835  1
  Si  Si5  1  0.37168628  0.04104273  0.58204911  1
  Si  Si6  1  0.96115759  0.62876393  0.08298708  1
  Si  Si7  1  0.62962271  0.67618803  0.92314874  1
  Si  Si8  1  0.62992872  0.96222029  0.41194378  1
  P  P0  1  0.71169275  0.71055364  0.24619680  1
  P  P1  1  0.70968605  0.99745259  0.75228119  1
  P  P2  1  0.66571349  0.62654289  0.58490183  1
  P  P3  1  0.66483856  0.04603134  0.08283080  1
  P  P4  1  0.38044399  0.33322100  0.08295414  1
  P  P5  1  0.04286998  0.37576202  0.92018601  1
  P  P6  1  0.33638036  0.95789407  0.92127720  1
  P  P7  1  0.33506768  0.37569921  0.41134804  1
  P  P8  1  0.03979228  0.66832329  0.41407608  1
  O  O0  1  0.19348063  0.02759269  0.30554399  1
  O  O1  1  0.83424050  0.80272587  0.30165215  1
  O  O2  1  0.96950478  0.16223601  0.30450953  1
  O  O3  1  0.20928461  0.18592671  0.81533903  1
  O  O4  1  0.97536945  0.79104703  0.81335963  1
  O  O5  1  0.82027047  0.02259647  0.80601828  1
  O  O6  1  0.78652193  0.96357133  0.69366884  1
  O  O7  1  0.16069955  0.19080869  0.69822861  1
  O  O8  1  0.02220726  0.82755006  0.69492030  1
  O  O9  1  0.78686564  0.81179888  0.18916316  1
  O  O10  1  0.02479319  0.20600263  0.18540587  1
  O  O11  1  0.17879376  0.96813026  0.18641092  1
  O  O12  1  0.89328110  0.38036598  0.64198930  1
  O  O13  1  0.48682915  0.11089538  0.64157548  1
  O  O14  1  0.63629871  0.53329198  0.64443167  1
  O  O15  1  0.85196355  0.50401544  0.14139499  1
  O  O16  1  0.65120540  0.14200184  0.14078325  1
  O  O17  1  0.49161511  0.34425601  0.13911076  1
  O  O18  1  0.47921868  0.32032714  0.02628634  1
  O  O19  1  0.83787418  0.51688252  0.02427506  1
  O  O20  1  0.67659903  0.16058957  0.02848960  1
  O  O21  1  0.44507589  0.14185541  0.52079702  1
  O  O22  1  0.70388420  0.54611482  0.53196602  1
  O  O23  1  0.84637585  0.29117113  0.52373417  1
  O  O24  1  0.53664313  0.68026872  0.98302942  1
  O  O25  1  0.14217298  0.45979624  0.97690640  1
  O  O26  1  0.31343921  0.85263878  0.97681343  1
  O  O27  1  0.52781307  0.84140532  0.47225284  1
  O  O28  1  0.30843685  0.47148495  0.46578491  1
  O  O29  1  0.16075663  0.69261286  0.46959310  1
  O  O30  1  0.11842541  0.64440374  0.35691749  1
  O  O31  1  0.51903622  0.86994658  0.35398302  1
  O  O32  1  0.34187287  0.46557035  0.35317681  1
  O  O33  1  0.13376555  0.49867682  0.86384828  1
  O  O34  1  0.35498613  0.86490129  0.86337057  1
  O  O35  1  0.49887146  0.64273247  0.86331186  1
  O  O36  1  0.03993138  0.84350346  0.41147301  1
  O  O37  1  0.82276326  0.97630407  0.41048375  1
  O  O38  1  0.16120137  0.19262734  0.41111709  1
  O  O39  1  0.02146571  0.19982064  0.91168443  1
  O  O40  1  0.18627206  0.98963003  0.91524788  1
  O  O41  1  0.82211954  0.82658286  0.91578350  1
  O  O42  1  0.97926855  0.15825346  0.59351006  1
  O  O43  1  0.16978589  0.99883476  0.59163951  1
  O  O44  1  0.82301069  0.81565976  0.59097288  1
  O  O45  1  0.96399285  0.80825449  0.08122023  1
  O  O46  1  0.82818493  0.03612315  0.08306006  1
  O  O47  1  0.20588707  0.17077303  0.08177382  1
  O  O48  1  0.67841235  0.14777960  0.74473898  1
  O  O49  1  0.48307009  0.32131941  0.74471921  1
  O  O50  1  0.84116295  0.51229746  0.74623926  1
  O  O51  1  0.70409338  0.53079300  0.24514955  1
  O  O52  1  0.82201596  0.30205697  0.24540544  1
  O  O53  1  0.47879298  0.18309011  0.24455953  1
  O  O54  1  0.63397962  0.48603409  0.92094737  1
  O  O55  1  0.86227542  0.36566457  0.92042032  1
  O  O56  1  0.50520260  0.13859351  0.92220997  1
  O  O57  1  0.65885633  0.15339787  0.41846648  1
  O  O58  1  0.48323825  0.34429751  0.41981889  1
  O  O59  1  0.86247855  0.51691110  0.42423340  1
  O  O60  1  0.36927713  0.49626706  0.08425421  1
  O  O61  1  0.14290664  0.63644780  0.08372379  1
  O  O62  1  0.50146282  0.87251791  0.08331407  1
  O  O63  1  0.33917357  0.83796661  0.57401096  1
  O  O64  1  0.50904319  0.65652918  0.57379565  1
  O  O65  1  0.15884026  0.49742878  0.57100152  1
  O  O66  1  0.32559047  0.84093430  0.25325630  1
  O  O67  1  0.53090439  0.67606206  0.25556131  1
  O  O68  1  0.16145488  0.48208899  0.25404382  1
  O  O69  1  0.30320542  0.48305776  0.75782785  1
  O  O70  1  0.18404485  0.70114052  0.75689477  1
  O  O71  1  0.52731111  0.82779869  0.75810816  1
loop_
_geom_bond_atom_site_label_1
_geom_bond_atom_site_label_2
_geom_bond_distance
_geom_bond_site_symmetry_2
Na0 O31 2.269396 1_555
Na0 O66 2.313371 1_555
Na0 O67 2.476910 1_555
Na0 O52 2.557361 1_565
Na0 O53 2.713374 1_565
Na0 O2 2.905836 1_565
Na0 O16 3.005497 1_565
Na1 O32 2.342808 1_555
Na1 O68 2.403857 1_555
Na1 O67 2.404151 1_555
Na1 O53 2.484156 1_555
Na1 O51 2.770442 1_555
Na2 O68 2.344752 1_555
Na2 O66 2.385264 1_555
Na2 O30 2.417181 1_555
Na2 O51 2.571624 1_455
Na2 O52 2.713248 1_455
Na2 O15 2.916329 1_455
Na2 O1 2.928065 1_455
Na2 O11 2.959560 1_555
Na3 O14 2.358591 1_555
Na3 O49 2.370342 1_555
Na3 O50 2.401871 1_555
Na3 O71 2.602559 1_555
Na3 O69 2.749749 1_555
Na3 O6 2.915848 1_555
Na3 O4 2.975392 1_555
Na3 O35 3.011360 1_555
Na4 O50 2.315363 1_555
Na4 O12 2.360194 1_555
Na4 O48 2.447124 1_555
Na4 O69 2.570232 1_655
Na4 O70 2.720314 1_655
Na4 O7 2.864096 1_655
Na5 O13 2.403187 1_555
Na5 O49 2.405574 1_555
Na5 O48 2.408218 1_555
Na5 O70 2.523921 1_545
Na5 O71 2.735577 1_545
Na6 O43 2.561149 1_555
Na6 O65 2.569729 1_555
Na6 O44 2.589648 1_455
Na6 O63 2.606791 1_555
Na6 O12 2.624738 1_455
Na6 O22 2.683509 1_455
Na6 O8 2.775296 1_555
Na6 O29 2.888834 1_555
Na7 O42 2.463750 1_565
Na7 O63 2.577966 1_555
Na7 O44 2.651394 1_555
Na7 O13 2.666199 1_565
Na7 O64 2.670848 1_555
Na7 O23 2.676208 1_565
Na7 O6 2.773128 1_555
Na7 O27 2.796892 1_555
Na8 O47 2.417297 1_565
Na8 O61 2.430634 1_555
Na8 O11 2.432177 1_555
Na8 O62 2.445573 1_555
Na8 O45 2.454747 1_455
Na8 O26 2.657674 1_554
Na9 O24 2.366823 1_554
Na9 O45 2.376773 1_555
Na9 O60 2.442438 1_555
Na9 O46 2.489611 1_565
Na9 O62 2.522321 1_555
Na9 O9 2.659766 1_555
Na10 O61 2.416229 1_555
Na10 O10 2.431768 1_555
Na10 O46 2.446298 1_455
Na10 O60 2.483502 1_555
Na10 O47 2.498446 1_555
Na10 O25 2.659974 1_554
Na11 O4 2.271158 1_555
Na11 O41 2.295120 1_555
Na11 O40 2.429595 1_655
Na11 O55 2.584315 1_555
Na11 O54 2.712838 1_555
Na11 O33 2.888257 1_655
Na11 O19 2.989264 1_556
Na12 O3 2.269653 1_555
Na12 O40 2.387519 1_545
Na12 O39 2.404699 1_555
Na12 O54 2.498362 1_555
Na12 O56 2.682797 1_555
Na12 O35 2.911678 1_555
Na12 O18 2.966161 1_556
Na13 O57 2.323563 1_555
Na13 O23 2.330331 1_555
Na13 O59 2.434214 1_555
Na13 O38 2.572871 1_655
Na13 O37 2.622320 1_545
Na13 O28 2.911617 1_655
Na14 O21 2.309779 1_555
Na14 O58 2.393467 1_555
Na14 O57 2.400534 1_555
Na14 O36 2.524562 1_545
Na14 O38 2.749998 1_555
Na15 O42 2.529681 1_555
Na15 O43 2.531044 1_645
Na15 O37 2.532447 1_545
Na15 O44 2.577258 1_545
Na15 O38 2.587653 1_655
Na15 O36 2.600154 1_645
Na16 O41 2.308369 1_555
Na16 O45 2.478831 1_556
Na16 O46 2.529771 1_566
Na16 O39 2.555125 1_665
Na16 O40 2.585263 1_655
Na16 O47 2.664105 1_666
Na17 O50 2.333857 1_555
Na17 O49 2.368357 1_555
Na17 O48 2.398888 1_555
Na17 O54 2.721654 1_555
Na17 O55 2.737376 1_555
Na17 O56 2.760754 1_555
Na18 O57 2.318895 1_555
Na18 O58 2.324670 1_555
Na18 O59 2.395396 1_555
Na18 O51 2.754657 1_555
Na18 O52 2.781654 1_555
Na18 O53 2.783442 1_555
Na19 O66 2.417979 1_555
Na19 O61 2.447171 1_555
Na19 O68 2.449436 1_555
Na19 O62 2.608965 1_555
Na19 O60 2.612148 1_555
Na19 O67 2.651286 1_555
Na20 O65 2.510665 1_555
Na20 O69 2.546161 1_555
Na20 O64 2.575943 1_555
Na20 O63 2.578476 1_555
Na20 O70 2.600555 1_555
Na20 O71 2.725692 1_555
Mg0 O4 1.990151 1_555
Mg0 O5 1.994802 1_565
Mg0 O3 2.028103 1_665
Mg0 O41 2.085324 1_555
Mg0 O39 2.155248 1_665
Mg0 O40 2.258608 1_655
Mg1 O11 1.973044 1_555
Mg1 O10 1.996042 1_565
Mg1 O9 2.065765 1_455
Mg1 O45 2.119812 1_455
Mg1 O47 2.241662 1_565
Mg1 O46 2.259745 1_465
Mg2 O13 2.048193 1_555
Mg2 O12 2.062798 1_555
Mg2 O14 2.113895 1_555
Mg2 O49 2.151441 1_555
Mg2 O50 2.159428 1_555
Mg2 O48 2.257712 1_555
Mg3 O21 2.014223 1_555
Mg3 O23 2.039317 1_555
Mg3 O22 2.062197 1_555
Mg3 O57 2.177678 1_555
Mg3 O59 2.225431 1_555
Mg3 O58 2.254705 1_555
Mg4 O24 1.977389 1_554
Mg4 O26 2.026887 1_554
Mg4 O25 2.055603 1_554
Mg4 O61 2.123817 1_555
Mg4 O62 2.200932 1_555
Mg4 O60 2.240591 1_555
Mg5 O31 1.965978 1_555
Mg5 O30 2.061432 1_555
Mg5 O32 2.066312 1_555
Mg5 O66 2.104439 1_555
Mg5 O68 2.104836 1_555
Mg5 O67 2.203129 1_555
O0 Si0 1.695403 1_545
O0 Ta0 1.954130 1_455
O1 P0 1.587886 1_555
O1 Ta0 2.011193 1_565
O2 Si1 1.698744 1_655
O2 Ta0 1.923612 1_555
O3 Si2 1.583827 1_555
O4 Si3 1.587734 1_555
O5 P1 1.503287 1_545
O6 P1 1.577104 1_555
O6 Ta1 2.107747 1_665
O7 Si2 1.693107 1_555
O7 Ta1 1.905162 1_555
O8 Si3 1.687170 1_455
O8 Ta1 1.962655 1_565
O9 P0 1.515182 1_555
O10 Si1 1.590617 1_555
O11 Si0 1.595782 1_555
O12 Si4 1.612932 1_555
O13 Si5 1.606605 1_555
O14 P2 1.523245 1_555
O15 Si6 1.682833 1_555
O15 Ta2 1.926929 1_555
O16 P3 1.590516 1_555
O16 Ta2 1.974551 1_555
O17 P4 1.577737 1_555
O17 Ta2 2.028068 1_555
O18 P4 1.582560 1_555
O18 Ta3 2.003780 1_554
O19 Si6 1.685973 1_555
O19 Ta3 1.900912 1_554
O20 P3 1.564074 1_555
O20 Ta3 2.015064 1_554
O21 Si5 1.591204 1_555
O22 P2 1.509972 1_555
O23 Si4 1.604751 1_555
O24 Si7 1.585560 1_555
O25 P5 1.514159 1_555
O26 P6 1.512427 1_555
O27 Si8 1.687422 1_555
O27 Ta4 1.933835 1_555
O28 P7 1.573553 1_555
O28 Ta4 2.020301 1_555
O29 P8 1.593004 1_555
O29 Ta4 2.040010 1_555
O30 P8 1.523654 1_555
O31 Si8 1.589590 1_555
O32 P7 1.516033 1_555
O33 P5 1.605497 1_555
O33 Ta5 2.018691 1_555
O34 P6 1.590259 1_555
O34 Ta5 2.019595 1_555
O35 Si7 1.706453 1_555
O35 Ta5 1.927531 1_555
O36 P8 1.584869 1_555
O36 Ta0 2.116197 1_465
O37 Si8 1.687381 1_555
O37 Ta0 1.978826 1_565
O38 P7 1.616581 1_555
O38 Ta0 2.073553 1_455
O39 P5 1.514594 1_555
O40 P6 1.530249 1_555
O41 Si7 1.595707 1_555
O42 Si4 1.673338 1_555
O42 Ta1 1.971907 1_655
O43 Si5 1.684799 1_565
O43 Ta1 1.951823 1_565
O44 P2 1.592060 1_555
O44 Ta1 2.121430 1_665
O45 Si6 1.611129 1_555
O46 P3 1.526847 1_555
O47 P4 1.528270 1_555
O48 P1 1.530999 1_545
O49 Si2 1.608521 1_555
O50 Si3 1.613194 1_555
O51 P0 1.592382 1_555
O51 Ta2 2.057768 1_555
O52 Si1 1.693814 1_655
O52 Ta2 1.964213 1_555
O53 Si0 1.691651 1_545
O53 Ta2 1.999055 1_555
O54 Si7 1.740199 1_555
O54 Ta3 1.961135 1_555
O55 P5 1.592601 1_655
O55 Ta3 2.038449 1_555
O56 P6 1.584191 1_545
O56 Ta3 2.051545 1_555
O57 Si8 1.619742 1_545
O58 P7 1.516996 1_555
O59 P8 1.519043 1_655
O60 P4 1.527763 1_555
O61 Si6 1.613247 1_455
O62 P3 1.526371 1_565
O63 Si5 1.716901 1_565
O63 Ta4 1.973575 1_555
O64 P2 1.592665 1_555
O64 Ta4 2.029222 1_555
O65 Si4 1.671527 1_455
O65 Ta4 1.982813 1_555
O66 Si0 1.609981 1_555
O67 P0 1.520587 1_555
O68 Si1 1.605681 1_555
O69 Si2 1.694065 1_555
O69 Ta5 1.988420 1_555
O70 Si3 1.691532 1_455
O70 Ta5 2.023553 1_555
O71 P1 1.601786 1_555
O71 Ta5 2.050451 1_555
