# generated using pymatgen
data_Na2LaGaP2SO12
_symmetry_space_group_name_H-M   'P 1'
_cell_length_a   9.04620432
_cell_length_b   9.04462722
_cell_length_c   23.25586508
_cell_angle_alpha   91.15952572
_cell_angle_beta   89.10744149
_cell_angle_gamma   120.31987539
_symmetry_Int_Tables_number   1
_chemical_formula_structural   Na2LaGaP2SO12
_chemical_formula_sum   'Na12 La6 Ga6 P12 S6 O72'
_cell_volume   1642.15436323
_cell_formula_units_Z   6
loop_
 _symmetry_equiv_pos_site_id
 _symmetry_equiv_pos_as_xyz
  1  'x, y, z'
loop_
 _atom_site_type_symbol
 _atom_site_label
 _atom_site_symmetry_multiplicity
 _atom_site_fract_x
 _atom_site_fract_y
 _atom_site_fract_z
 _atom_site_occupancy
  Na  Na0  1  0.99540572  0.63476146  0.26102055  1
  Na  Na1  1  0.37221301  0.01226180  0.74371193  1
  Na  Na2  1  0.66335425  0.95340277  0.58941796  1
  Na  Na3  1  0.04208480  0.33840634  0.09580922  1
  Na  Na4  1  0.32581227  0.30373920  0.92082235  1
  Na  Na5  1  0.69387814  0.66865459  0.41746779  1
  Na  Na6  1  0.03605762  0.99899976  0.49867687  1
  Na  Na7  1  0.01229885  0.97569905  0.00225503  1
  Na  Na8  1  0.69250794  0.32354305  0.82835518  1
  Na  Na9  1  0.66563732  0.30471038  0.33646842  1
  Na  Na10  1  0.36067657  0.65974282  0.17842760  1
  Na  Na11  1  0.34027507  0.63920502  0.66115586  1
  La  La0  1  0.98840698  0.00416521  0.84145535  1
  La  La1  1  0.00334267  0.99897900  0.16576646  1
  La  La2  1  0.66964772  0.32364523  0.98364921  1
  La  La3  1  0.33341929  0.68779286  0.02415572  1
  La  La4  1  0.32115981  0.66776612  0.51343497  1
  La  La5  1  0.33830906  0.66201197  0.80690020  1
  Ga  Ga0  1  0.97585856  0.99717274  0.34689831  1
  Ga  Ga1  1  0.00374680  0.99297341  0.64365391  1
  Ga  Ga2  1  0.65576378  0.33534172  0.67716790  1
  Ga  Ga3  1  0.66070622  0.35673380  0.18857887  1
  Ga  Ga4  1  0.66733272  0.33080006  0.48427215  1
  Ga  Ga5  1  0.33026255  0.66795936  0.32370419  1
  P  P0  1  0.67934825  0.68925452  0.25691703  1
  P  P1  1  0.00344871  0.31269035  0.25534688  1
  P  P2  1  0.30197865  0.28874996  0.73801644  1
  P  P3  1  0.70635063  0.01899629  0.73257859  1
  P  P4  1  0.37655392  0.06219994  0.58295817  1
  P  P5  1  0.68458311  0.62522769  0.58215040  1
  P  P6  1  0.95881331  0.62673252  0.09543152  1
  P  P7  1  0.37285589  0.33672384  0.08992721  1
  P  P8  1  0.03313550  0.36055188  0.91883700  1
  P  P9  1  0.32984764  0.97748390  0.90865628  1
  P  P10  1  0.63561136  0.97380944  0.41633360  1
  P  P11  1  0.02289272  0.67389375  0.41071444  1
  S  S0  1  0.31277198  0.99571189  0.25749468  1
  S  S1  1  0.98338591  0.69019599  0.73764252  1
  S  S2  1  0.94230387  0.32053545  0.58346728  1
  S  S3  1  0.66577810  0.04414747  0.09768851  1
  S  S4  1  0.64366880  0.66971088  0.91681724  1
  S  S5  1  0.32648382  0.35459847  0.41243016  1
  O  O0  1  0.21257375  0.02001446  0.30379616  1
  O  O1  1  0.81780093  0.78326045  0.30472508  1
  O  O2  1  0.97751671  0.17171543  0.29845596  1
  O  O3  1  0.24224505  0.20722152  0.79819143  1
  O  O4  1  0.96387462  0.75300445  0.79462910  1
  O  O5  1  0.79106956  0.03230077  0.79080160  1
  O  O6  1  0.80511357  0.99472344  0.68174879  1
  O  O7  1  0.17498909  0.16759707  0.69248833  1
  O  O8  1  -0.00081074  0.80746970  0.69182235  1
  O  O9  1  0.73887472  0.78749641  0.20050858  1
  O  O10  1  0.03941253  0.26410738  0.19478345  1
  O  O11  1  0.21640313  0.95031682  0.20269095  1
  O  O12  1  0.85413203  0.33356937  0.63496176  1
  O  O13  1  0.48313283  0.13913997  0.63791904  1
  O  O14  1  0.66688165  0.51672922  0.63397235  1
  O  O15  1  0.86044385  0.52765491  0.15043351  1
  O  O16  1  0.67132921  0.15834996  0.14474626  1
  O  O17  1  0.48128205  0.33236488  0.14023364  1
  O  O18  1  0.44529990  0.32936577  0.03004759  1
  O  O19  1  0.87032555  0.53222303  0.03994752  1
  O  O20  1  0.65800613  0.10788342  0.04029686  1
  O  O21  1  0.46602828  0.17003228  0.52910081  1
  O  O22  1  0.70033283  0.54334669  0.52389737  1
  O  O23  1  0.84639736  0.30604587  0.52992320  1
  O  O24  1  0.54774425  0.66534154  0.96896167  1
  O  O25  1  0.11636863  0.44898949  0.97674435  1
  O  O26  1  0.34265567  0.88411498  0.96144468  1
  O  O27  1  0.58163365  0.86683570  0.47215595  1
  O  O28  1  0.28948240  0.41368212  0.46744242  1
  O  O29  1  0.13094363  0.71219602  0.46551373  1
  O  O30  1  0.11544098  0.64605307  0.35861594  1
  O  O31  1  0.50412404  0.87108135  0.36855079  1
  O  O32  1  0.36031241  0.48175140  0.36676778  1
  O  O33  1  0.15142821  0.46105529  0.86823204  1
  O  O34  1  0.32829009  0.88742472  0.85142086  1
  O  O35  1  0.56095921  0.68415072  0.86472569  1
  O  O36  1  0.99565322  0.83018138  0.40179749  1
  O  O37  1  0.81337944  0.99305119  0.40179852  1
  O  O38  1  0.17908693  0.18249838  0.39961740  1
  O  O39  1  0.02028061  0.18378844  0.92042464  1
  O  O40  1  0.16820223  0.99151967  0.91557564  1
  O  O41  1  0.81872497  0.81549812  0.92142395  1
  O  O42  1  0.95615198  0.16275545  0.58404106  1
  O  O43  1  0.19310944  0.03619558  0.58770290  1
  O  O44  1  0.84680688  0.81152521  0.58712603  1
  O  O45  1  0.98421628  0.80636852  0.09299580  1
  O  O46  1  0.82612426  0.03789191  0.09622819  1
  O  O47  1  0.18876020  0.18045755  0.09207125  1
  O  O48  1  0.68769915  0.18055793  0.73022150  1
  O  O49  1  0.48308552  0.31018246  0.73270435  1
  O  O50  1  0.83576795  0.51613002  0.73106007  1
  O  O51  1  0.67077964  0.51144588  0.25006201  1
  O  O52  1  0.84263707  0.33331889  0.25357430  1
  O  O53  1  0.48223295  0.15249182  0.25128945  1
  O  O54  1  0.64352319  0.50628434  0.91083027  1
  O  O55  1  0.85815510  0.34222308  0.90937167  1
  O  O56  1  0.48471603  0.16198485  0.90608738  1
  O  O57  1  0.65059193  0.15172338  0.42612657  1
  O  O58  1  0.48880345  0.35022514  0.41781980  1
  O  O59  1  0.84189406  0.51000963  0.41927048  1
  O  O60  1  0.35847826  0.49995501  0.09474865  1
  O  O61  1  0.13330124  0.63291001  0.09872361  1
  O  O62  1  0.51566852  0.87222024  0.10454964  1
  O  O63  1  0.36506197  0.88469509  0.57842001  1
  O  O64  1  0.52768957  0.65190503  0.58052875  1
  O  O65  1  0.11569425  0.47243214  0.58296255  1
  O  O66  1  0.33141183  0.84346274  0.26797020  1
  O  O67  1  0.50343452  0.66614758  0.27230721  1
  O  O68  1  0.16181579  0.49218542  0.26927620  1
  O  O69  1  0.31515385  0.46393539  0.73516447  1
  O  O70  1  0.14609199  0.68616022  0.73644489  1
  O  O71  1  0.52170805  0.86149071  0.73235157  1
loop_
_geom_bond_atom_site_label_1
_geom_bond_atom_site_label_2
_geom_bond_distance
_geom_bond_site_symmetry_2
Na0 O52 2.357414 1_555
Na0 O68 2.438234 1_655
Na0 O30 2.509252 1_655
Na0 O51 2.576353 1_555
Na0 O66 2.652975 1_655
Na0 O1 2.736961 1_555
Na0 O15 2.801075 1_555
Na0 O11 2.879915 1_655
Na1 O71 2.365278 1_545
Na1 O49 2.371389 1_555
Na1 O48 2.483096 1_555
Na1 O70 2.609836 1_545
Na1 O13 2.692879 1_555
Na1 O34 2.708799 1_545
Na1 O3 2.837825 1_555
Na2 O42 2.356304 1_565
Na2 O64 2.364572 1_555
Na2 O6 2.442173 1_555
Na2 O63 2.460695 1_555
Na2 O44 2.558954 1_555
Na2 O27 2.826344 1_555
Na3 O61 2.357097 1_555
Na3 O47 2.390434 1_555
Na3 O10 2.407200 1_555
Na3 O46 2.417369 1_455
Na3 O60 2.470702 1_555
Na3 O25 2.914545 1_554
Na4 O56 2.378078 1_555
Na4 O39 2.406060 1_555
Na4 O40 2.438961 1_545
Na4 O54 2.520076 1_555
Na4 O18 2.735524 1_556
Na5 O36 2.383991 1_555
Na5 O59 2.407808 1_555
Na5 O58 2.518414 1_555
Na5 O37 2.595886 1_555
Na5 O27 2.750751 1_555
Na5 O22 2.756620 1_555
Na5 O1 2.837407 1_555
Na5 O32 2.869348 1_555
Na6 O43 2.449279 1_565
Na6 O36 2.619930 1_455
Na6 O44 2.671650 1_455
Na6 O42 2.752183 1_465
Na6 O38 2.762149 1_565
Na7 O40 2.406726 1_554
Na7 O41 2.475891 1_454
Na7 O45 2.566043 1_455
Na7 O39 2.678152 1_564
Na7 O47 2.702468 1_565
Na7 O46 2.953141 1_465
Na8 O55 2.375564 1_555
Na8 O56 2.482795 1_555
Na8 O48 2.590286 1_555
Na8 O54 2.681741 1_555
Na8 O50 2.760858 1_555
Na8 O49 2.905351 1_555
Na9 O52 2.419245 1_555
Na9 O57 2.489681 1_555
Na9 O53 2.501578 1_555
Na9 O59 2.580688 1_555
Na9 O58 2.616635 1_555
Na9 O51 2.756399 1_555
Na10 O60 2.394669 1_555
Na10 O62 2.439058 1_555
Na10 O67 2.538679 1_555
Na10 O68 2.693555 1_555
Na10 O61 2.705922 1_555
Na10 O66 2.730300 1_555
Na11 O69 2.293790 1_555
Na11 O71 2.468923 1_555
Na11 O64 2.473139 1_555
Na11 O65 2.572836 1_555
Na11 O70 2.638006 1_555
Na11 O63 2.887773 1_555
La0 O5 2.274978 1_555
La0 O3 2.324435 1_655
La0 O39 2.349055 1_655
La0 O4 2.407065 1_545
La0 O40 2.431638 1_645
La0 O41 2.474179 1_545
La1 O9 2.327489 1_455
La1 O10 2.337424 1_565
La1 O45 2.348258 1_455
La1 O11 2.359932 1_555
La1 O47 2.385255 1_565
La1 O46 2.445958 1_465
La2 O19 2.254989 1_556
La2 O18 2.306812 1_556
La2 O20 2.333909 1_556
La2 O55 2.356002 1_555
La2 O56 2.389089 1_555
La2 O54 2.484414 1_555
La3 O26 2.288689 1_554
La3 O25 2.329230 1_554
La3 O61 2.358092 1_555
La3 O24 2.399438 1_554
La3 O60 2.479159 1_555
La3 O62 2.487821 1_555
La4 O29 2.267253 1_555
La4 O63 2.324491 1_555
La4 O27 2.330564 1_555
La4 O28 2.398450 1_555
La4 O65 2.428366 1_555
La4 O64 2.513218 1_555
La5 O33 2.263493 1_555
La5 O34 2.309764 1_555
La5 O69 2.355342 1_555
La5 O35 2.360419 1_555
La5 O71 2.455229 1_555
La5 O70 2.498525 1_555
Ga0 O37 1.918331 1_555
Ga0 O2 1.951701 1_565
Ga0 O1 1.980763 1_555
Ga0 O36 2.074022 1_555
Ga0 O38 2.137375 1_665
Ga0 O0 2.264457 1_665
Ga1 O7 1.922484 1_565
Ga1 O6 1.998109 1_455
Ga1 O43 2.013789 1_565
Ga1 O44 2.013822 1_455
Ga1 O8 2.019006 1_555
Ga1 O42 2.288614 1_465
Ga2 O13 1.897852 1_555
Ga2 O14 1.899396 1_555
Ga2 O49 1.936525 1_555
Ga2 O48 2.013701 1_555
Ga2 O12 2.038962 1_555
Ga2 O50 2.046555 1_555
Ga3 O15 1.904446 1_555
Ga3 O17 1.905979 1_555
Ga3 O51 1.950685 1_555
Ga3 O16 2.089234 1_555
Ga3 O53 2.273860 1_555
Ga3 O52 2.341053 1_555
Ga4 O21 1.961151 1_555
Ga4 O22 1.997849 1_555
Ga4 O57 2.035903 1_555
Ga4 O23 2.056828 1_555
Ga4 O59 2.201487 1_555
Ga4 O58 2.324359 1_555
Ga5 O67 1.962099 1_555
Ga5 O68 1.996083 1_555
Ga5 O31 1.998189 1_555
Ga5 O30 2.010854 1_555
Ga5 O66 2.065430 1_555
Ga5 O32 2.110051 1_555
O0 S0 1.480045 1_545
O1 P0 1.567698 1_555
O2 P1 1.558305 1_655
O3 P2 1.552424 1_555
O4 S1 1.474345 1_555
O5 P3 1.538778 1_555
O6 P3 1.548671 1_565
O7 P2 1.536700 1_555
O8 S1 1.472715 1_455
O9 P0 1.530513 1_555
O10 P1 1.545215 1_555
O11 S0 1.484918 1_555
O12 S2 1.464132 1_555
O13 P4 1.540294 1_555
O14 P5 1.524553 1_555
O15 P6 1.561040 1_555
O16 S3 1.473322 1_555
O17 P7 1.552090 1_555
O18 P7 1.544331 1_555
O19 P6 1.527443 1_555
O20 S3 1.481096 1_555
O21 P4 1.547878 1_555
O22 P5 1.569699 1_555
O23 S2 1.494222 1_555
O24 S4 1.469572 1_555
O25 P8 1.549262 1_555
O26 P9 1.542356 1_555
O27 P10 1.553692 1_555
O28 S5 1.474434 1_555
O29 P11 1.542266 1_555
O30 P11 1.549579 1_555
O31 P10 1.548062 1_555
O32 S5 1.492616 1_555
O33 P8 1.542194 1_555
O34 P9 1.542896 1_555
O35 S4 1.475720 1_555
O36 P11 1.570676 1_655
O37 P10 1.559966 1_555
O38 S5 1.479085 1_555
O39 P8 1.544494 1_555
O40 P9 1.536077 1_555
O41 S4 1.466024 1_555
O42 S2 1.494555 1_555
O43 P4 1.556478 1_555
O44 P5 1.583337 1_555
O45 P6 1.523859 1_555
O46 S3 1.479738 1_555
O47 P7 1.548325 1_555
O48 P3 1.555387 1_555
O49 P2 1.552731 1_555
O50 S1 1.469434 1_555
O51 P0 1.575411 1_555
O52 P1 1.558520 1_655
O53 S0 1.479268 1_545
O54 S4 1.481206 1_555
O55 P8 1.525113 1_655
O56 P9 1.546605 1_545
O57 P10 1.557434 1_545
O58 S5 1.495989 1_555
O59 P11 1.571304 1_655
O60 P7 1.547857 1_555
O61 P6 1.554042 1_455
O62 S3 1.469287 1_565
O63 P4 1.557060 1_565
O64 P5 1.556222 1_555
O65 S2 1.473848 1_455
O66 S0 1.494425 1_555
O67 P0 1.534167 1_555
O68 P1 1.561374 1_555
O69 P2 1.530535 1_555
O70 S1 1.490451 1_455
O71 P3 1.554641 1_565
