# generated using pymatgen
data_NaLaGaP(SO6)2
_symmetry_space_group_name_H-M   'P 1'
_cell_length_a   8.94434049
_cell_length_b   8.89911571
_cell_length_c   23.73138176
_cell_angle_alpha   90.25498449
_cell_angle_beta   89.52685307
_cell_angle_gamma   119.79173682
_symmetry_Int_Tables_number   1
_chemical_formula_structural   NaLaGaP(SO6)2
_chemical_formula_sum   'Na6 La6 Ga6 P6 S12 O72'
_cell_volume   1639.23636968
_cell_formula_units_Z   6
loop_
 _symmetry_equiv_pos_site_id
 _symmetry_equiv_pos_as_xyz
  1  'x, y, z'
loop_
 _atom_site_type_symbol
 _atom_site_label
 _atom_site_symmetry_multiplicity
 _atom_site_fract_x
 _atom_site_fract_y
 _atom_site_fract_z
 _atom_site_occupancy
  Na  Na0  1  0.99234326  0.99463420  0.49941657  1
  Na  Na1  1  0.00706937  0.98560543  0.99954552  1
  Na  Na2  1  0.65464090  0.30725945  0.82566736  1
  Na  Na3  1  0.65429152  0.31436744  0.34066975  1
  Na  Na4  1  0.31797201  0.67327352  0.16244835  1
  Na  Na5  1  0.34449702  0.67125275  0.65708600  1
  La  La0  1  0.99774519  0.00208750  0.84832957  1
  La  La1  1  0.00791564  0.99260815  0.14816318  1
  La  La2  1  0.66355196  0.33130325  0.18608428  1
  La  La3  1  0.66520367  0.33026935  0.98089083  1
  La  La4  1  0.33659895  0.68285142  0.32773100  1
  La  La5  1  0.34242289  0.68141791  0.80360676  1
  Ga  Ga0  1  0.99650830  0.99775473  0.35624895  1
  Ga  Ga1  1  0.97480642  0.98231006  0.64330112  1
  Ga  Ga2  1  0.66306995  0.32925661  0.67455582  1
  Ga  Ga3  1  0.67532920  0.33455572  0.49046819  1
  Ga  Ga4  1  0.32204032  0.67632201  0.01539456  1
  Ga  Ga5  1  0.38846010  0.68108134  0.51625397  1
  P  P0  1  0.29115739  0.00974659  0.26100970  1
  P  P1  1  0.71559015  0.02608492  0.73682005  1
  P  P2  1  0.66875206  0.61606391  0.58269593  1
  P  P3  1  0.98961892  0.63645193  0.07926521  1
  P  P4  1  0.32234239  0.95164932  0.91924544  1
  P  P5  1  0.65342958  0.98776969  0.42320555  1
  S  S0  1  0.71110152  0.70748612  0.25914546  1
  S  S1  1  0.99631111  0.28751544  0.25890156  1
  S  S2  1  0.30198991  0.28145978  0.73586696  1
  S  S3  1  0.97739499  0.69316880  0.73654588  1
  S  S4  1  0.96116568  0.33378895  0.58308729  1
  S  S5  1  0.37496328  0.03829247  0.58163638  1
  S  S6  1  0.64757027  0.00253467  0.07974466  1
  S  S7  1  0.35736063  0.35720717  0.07913772  1
  S  S8  1  0.61900087  0.67673807  0.92138228  1
  S  S9  1  0.05733516  0.38034466  0.91977643  1
  S  S10  1  0.33935560  0.36171935  0.42470197  1
  S  S11  1  0.02002267  0.66368078  0.42489333  1
  O  O0  1  0.18151677  0.00829126  0.31281081  1
  O  O1  1  0.81039394  0.81022892  0.30867043  1
  O  O2  1  0.98926064  0.18284290  0.30863861  1
  O  O3  1  0.23718436  0.19745069  0.79191650  1
  O  O4  1  0.96053258  0.76269558  0.79188135  1
  O  O5  1  0.80456674  0.04654681  0.79439044  1
  O  O6  1  0.81710894  0.00186413  0.68847996  1
  O  O7  1  0.18630987  0.17985789  0.68967224  1
  O  O8  1  0.00376397  0.81423384  0.68995003  1
  O  O9  1  0.78669538  0.79315062  0.20493209  1
  O  O10  1  -0.00192206  0.20648085  0.20462767  1
  O  O11  1  0.20842240  0.00576182  0.20412661  1
  O  O12  1  0.87753565  0.36132062  0.63375310  1
  O  O13  1  0.48230745  0.11486962  0.63303200  1
  O  O14  1  0.63354573  0.50201298  0.63536073  1
  O  O15  1  0.90073260  0.53909430  0.13466855  1
  O  O16  1  0.62990493  0.08534155  0.13219746  1
  O  O17  1  0.45212837  0.36814043  0.13175710  1
  O  O18  1  0.43916192  0.32485553  0.03006813  1
  O  O19  1  0.88123498  0.54475096  0.02772314  1
  O  O20  1  0.66999762  0.10992334  0.03007614  1
  O  O21  1  0.45716691  0.15079443  0.53167302  1
  O  O22  1  0.69548428  0.53157047  0.52981744  1
  O  O23  1  0.85069524  0.30152398  0.53259945  1
  O  O24  1  0.51802943  0.66933837  0.97205278  1
  O  O25  1  0.15057019  0.47528001  0.97099674  1
  O  O26  1  0.32649773  0.85453727  0.97264564  1
  O  O27  1  0.56269771  0.85206277  0.47210968  1
  O  O28  1  0.30904780  0.45866088  0.47242994  1
  O  O29  1  0.14301208  0.69380944  0.47070907  1
  O  O30  1  0.07554725  0.62328302  0.37062877  1
  O  O31  1  0.54549499  0.92733074  0.36964298  1
  O  O32  1  0.37378446  0.45889749  0.37155832  1
  O  O33  1  0.14671347  0.46382862  0.86692435  1
  O  O34  1  0.32300102  0.85947871  0.86427822  1
  O  O35  1  0.53493724  0.67498484  0.86796384  1
  O  O36  1  0.00425312  0.82381798  0.41739749  1
  O  O37  1  0.83315916  0.00061509  0.41307593  1
  O  O38  1  0.17948574  0.19004733  0.41968642  1
  O  O39  1  0.03720135  0.20471589  0.92363073  1
  O  O40  1  0.15770339  0.96673150  0.92135521  1
  O  O41  1  0.79002028  0.83651017  0.92423518  1
  O  O42  1  0.97848133  0.17367297  0.58892881  1
  O  O43  1  0.19938390  0.01767275  0.58892300  1
  O  O44  1  0.82976711  0.80265377  0.58938613  1
  O  O45  1  0.02105243  0.82311528  0.07841386  1
  O  O46  1  0.79827595  0.97807070  0.08213857  1
  O  O47  1  0.17815075  0.21185751  0.08150894  1
  O  O48  1  0.69882139  0.19033513  0.72923200  1
  O  O49  1  0.47671414  0.30013540  0.73056871  1
  O  O50  1  0.81906326  0.52357590  0.73024088  1
  O  O51  1  0.70519667  0.53799825  0.26050155  1
  O  O52  1  0.83908071  0.30513373  0.26053548  1
  O  O53  1  0.47070503  0.17456576  0.26222195  1
  O  O54  1  0.64367450  0.52419877  0.91858132  1
  O  O55  1  0.88422789  0.36373304  0.91686885  1
  O  O56  1  0.48474957  0.13271398  0.91576119  1
  O  O57  1  0.67248097  0.16542564  0.43870670  1
  O  O58  1  0.49040586  0.33925643  0.43548908  1
  O  O59  1  0.84485412  0.51190437  0.43522153  1
  O  O60  1  0.35802670  0.52153698  0.07301435  1
  O  O61  1  0.16629207  0.64507511  0.07585408  1
  O  O62  1  0.48876977  0.83324885  0.07502193  1
  O  O63  1  0.35971367  0.86211407  0.57348122  1
  O  O64  1  0.50428109  0.63909663  0.57511956  1
  O  O65  1  0.13375447  0.48918690  0.57615141  1
  O  O66  1  0.30846774  0.84549246  0.26015525  1
  O  O67  1  0.53443434  0.68076571  0.26007224  1
  O  O68  1  0.15323424  0.45972445  0.26015456  1
  O  O69  1  0.31902787  0.45635206  0.73700792  1
  O  O70  1  0.13105921  0.67078923  0.73705844  1
  O  O71  1  0.53403878  0.86315107  0.73661259  1
loop_
_geom_bond_atom_site_label_1
_geom_bond_atom_site_label_2
_geom_bond_distance
_geom_bond_site_symmetry_2
Na0 O36 2.498363 1_655
Na0 O37 2.520479 1_565
Na0 O38 2.547645 1_665
Na0 O44 2.665429 1_555
Na0 O42 2.688530 1_565
Na0 O43 2.768937 1_665
Na1 O40 2.338250 1_555
Na1 O45 2.411923 1_556
Na1 O41 2.489995 1_455
Na1 O39 2.573204 1_565
Na1 O47 2.670516 1_566
Na1 O46 2.673984 1_456
Na2 O48 2.617009 1_555
Na2 O56 2.631258 1_555
Na2 O49 2.754583 1_555
Na2 O50 2.857894 1_555
Na2 O55 2.862170 1_555
Na2 O54 2.957253 1_555
Na3 O53 2.389529 1_555
Na3 O52 2.537058 1_555
Na3 O51 2.627997 1_555
Na3 O57 2.728390 1_555
Na3 O58 2.743147 1_555
Na3 O59 2.842693 1_555
Na4 O61 2.414484 1_555
Na4 O62 2.545175 1_555
Na4 O60 2.626580 1_555
Na4 O66 2.797699 1_555
Na4 O68 2.891241 1_555
Na4 O67 3.010771 1_555
Na5 O64 2.502725 1_555
Na5 O71 2.549415 1_555
Na5 O63 2.575989 1_555
Na5 O65 2.620023 1_555
Na5 O69 2.626559 1_555
Na5 O70 2.679327 1_555
La0 O5 2.345399 1_555
La0 O40 2.375367 1_645
La0 O3 2.382208 1_655
La0 O4 2.391893 1_545
La0 O39 2.432873 1_655
La0 O41 2.473046 1_545
La1 O11 2.196169 1_565
La1 O45 2.275832 1_555
La1 O9 2.316887 1_455
La1 O10 2.359561 1_565
La1 O47 2.379697 1_565
La1 O46 2.406948 1_455
La2 O15 2.342613 1_555
La2 O53 2.401186 1_555
La2 O16 2.417398 1_555
La2 O51 2.437644 1_555
La2 O17 2.450662 1_555
La2 O52 2.460404 1_555
La3 O19 2.227932 1_556
La3 O56 2.298297 1_555
La3 O20 2.305232 1_556
La3 O18 2.305799 1_556
La3 O54 2.357890 1_555
La3 O55 2.368541 1_555
La4 O66 2.262546 1_555
La4 O31 2.277232 1_555
La4 O30 2.346250 1_555
La4 O67 2.386423 1_555
La4 O32 2.418112 1_555
La4 O68 2.446102 1_555
La5 O34 2.205278 1_555
La5 O71 2.303074 1_555
La5 O35 2.333029 1_555
La5 O33 2.384487 1_555
La5 O70 2.438729 1_555
La5 O69 2.472668 1_555
Ga0 O0 1.904792 1_665
Ga0 O37 1.989498 1_565
Ga0 O1 2.021064 1_555
Ga0 O2 2.029204 1_565
Ga0 O36 2.152847 1_655
Ga0 O38 2.260092 1_665
Ga1 O6 1.840264 1_565
Ga1 O44 1.955585 1_555
Ga1 O8 1.983500 1_655
Ga1 O42 2.128225 1_565
Ga1 O7 2.143063 1_665
Ga1 O43 2.265362 1_665
Ga2 O14 1.928384 1_555
Ga2 O48 1.930860 1_555
Ga2 O12 2.031405 1_555
Ga2 O49 2.037070 1_555
Ga2 O13 2.041911 1_555
Ga2 O50 2.072674 1_555
Ga3 O22 1.911164 1_555
Ga3 O57 1.928952 1_555
Ga3 O23 2.008248 1_555
Ga3 O59 2.028919 1_555
Ga3 O21 2.061526 1_555
Ga3 O58 2.131836 1_555
Ga4 O26 1.869991 1_554
Ga4 O61 1.913683 1_555
Ga4 O25 1.986572 1_554
Ga4 O62 2.030838 1_555
Ga4 O24 2.052485 1_554
Ga4 O60 2.082151 1_555
Ga5 O27 1.863411 1_555
Ga5 O64 1.891412 1_555
Ga5 O28 2.025033 1_555
Ga5 O63 2.211852 1_555
Ga5 O65 2.495802 1_555
Ga5 O29 2.507605 1_555
O0 P0 1.562270 1_555
O1 S0 1.485534 1_555
O2 S1 1.488294 1_555
O3 S2 1.493204 1_555
O4 S3 1.487366 1_555
O5 P1 1.550750 1_555
O6 P1 1.536897 1_555
O7 S2 1.473147 1_555
O8 S3 1.480848 1_455
O9 S0 1.475032 1_555
O10 S1 1.477138 1_455
O11 P0 1.536599 1_555
O12 S4 1.493281 1_555
O13 S5 1.495209 1_555
O14 P2 1.542241 1_555
O15 P3 1.555575 1_555
O16 S6 1.490556 1_555
O17 S7 1.490546 1_555
O18 S7 1.471906 1_555
O19 P3 1.525268 1_555
O20 S6 1.469183 1_555
O21 S5 1.487789 1_555
O22 P2 1.537065 1_555
O23 S4 1.492943 1_555
O24 S8 1.479730 1_555
O25 S9 1.481285 1_555
O26 P4 1.548107 1_555
O27 P5 1.577021 1_555
O28 S10 1.522907 1_555
O29 S11 1.479273 1_555
O30 S11 1.482220 1_555
O31 P5 1.528146 1_555
O32 S10 1.473745 1_555
O33 S9 1.471646 1_555
O34 P4 1.539337 1_555
O35 S8 1.475311 1_555
O36 S11 1.511555 1_555
O37 P5 1.570467 1_545
O38 S10 1.491053 1_555
O39 S9 1.484889 1_555
O40 P4 1.544072 1_555
O41 S8 1.485154 1_555
O42 S4 1.514900 1_555
O43 S5 1.496430 1_555
O44 P2 1.575320 1_555
O45 P3 1.541088 1_455
O46 S6 1.469903 1_565
O47 S7 1.477999 1_555
O48 P1 1.553085 1_555
O49 S2 1.491509 1_555
O50 S3 1.477611 1_555
O51 S0 1.483245 1_555
O52 S1 1.490630 1_555
O53 P0 1.546264 1_555
O54 S8 1.480702 1_555
O55 S9 1.482623 1_655
O56 P4 1.544866 1_545
O57 P5 1.546614 1_545
O58 S10 1.485044 1_555
O59 S11 1.494291 1_655
O60 S7 1.467296 1_555
O61 P3 1.544990 1_455
O62 S6 1.474572 1_565
O63 S5 1.516374 1_565
O64 P2 1.594602 1_555
O65 S4 1.482906 1_455
O66 P0 1.544530 1_565
O67 S0 1.476504 1_555
O68 S1 1.477273 1_455
O69 S2 1.486708 1_555
O70 S3 1.483630 1_455
O71 P1 1.549100 1_565
