# generated using pymatgen
data_Na7La2Si3Ge2(PO8)3
_symmetry_space_group_name_H-M   'P 1'
_cell_length_a   9.16225367
_cell_length_b   9.19452913
_cell_length_c   22.41965598
_cell_angle_alpha   89.71426406
_cell_angle_beta   89.27756832
_cell_angle_gamma   119.61625957
_symmetry_Int_Tables_number   1
_chemical_formula_structural   Na7La2Si3Ge2(PO8)3
_chemical_formula_sum   'Na21 La6 Si9 Ge6 P9 O72'
_cell_volume   1641.67459510
_cell_formula_units_Z   3
loop_
 _symmetry_equiv_pos_site_id
 _symmetry_equiv_pos_as_xyz
  1  'x, y, z'
loop_
 _atom_site_type_symbol
 _atom_site_label
 _atom_site_symmetry_multiplicity
 _atom_site_fract_x
 _atom_site_fract_y
 _atom_site_fract_z
 _atom_site_occupancy
  Na  Na0  1  0.62226131  0.00078545  0.25521040  1
  Na  Na1  1  0.37451583  0.37719150  0.24837491  1
  Na  Na2  1  0.00238058  0.61214136  0.25090627  1
  Na  Na3  1  0.63756226  0.63313559  0.74176680  1
  Na  Na4  1  0.99016588  0.36735677  0.74283034  1
  Na  Na5  1  0.37952598  0.00634115  0.73979427  1
  Na  Na6  1  0.02743508  0.69394231  0.58204489  1
  Na  Na7  1  0.66409889  0.96722375  0.58039223  1
  Na  Na8  1  0.67199098  0.68538320  0.08244880  1
  Na  Na9  1  0.02052838  0.34014680  0.08755245  1
  Na  Na10  1  0.95703466  0.66073520  0.92684617  1
  Na  Na11  1  0.69819799  0.03472484  0.92341360  1
  Na  Na12  1  0.34187729  0.30274950  0.92325050  1
  Na  Na13  1  0.97173797  0.30392517  0.41751223  1
  Na  Na14  1  0.33227454  0.03008460  0.42006602  1
  Na  Na15  1  0.99911370  0.99993899  0.49945328  1
  Na  Na16  1  0.01250992  0.99548005  0.00915847  1
  Na  Na17  1  0.66711199  0.33355009  0.83237884  1
  Na  Na18  1  0.67857248  0.34928834  0.34377570  1
  Na  Na19  1  0.32154936  0.66721944  0.16080488  1
  Na  Na20  1  0.33404047  0.65506592  0.65534833  1
  La  La0  1  0.99286286  0.99519299  0.85364095  1
  La  La1  1  0.66988621  0.33341584  0.65893392  1
  La  La2  1  0.67114339  0.33277836  0.18159214  1
  La  La3  1  0.66149785  0.33782681  0.00206216  1
  La  La4  1  0.32751708  0.65929477  0.32745555  1
  La  La5  1  0.34266271  0.67309045  0.81132286  1
  Si  Si0  1  0.99786598  0.26731885  0.25433969  1
  Si  Si1  1  0.71348829  0.00642364  0.74041841  1
  Si  Si2  1  0.98942218  0.34177976  0.57894251  1
  Si  Si3  1  0.35716225  0.02032643  0.58069379  1
  Si  Si4  1  0.00224514  0.67112909  0.08484882  1
  Si  Si5  1  0.33732700  0.33436124  0.08329884  1
  Si  Si6  1  0.62409507  0.66186033  0.92218619  1
  Si  Si7  1  0.63483144  0.97504816  0.41806800  1
  Si  Si8  1  0.01292368  0.66105206  0.41833972  1
  Ge  Ge0  1  0.97751915  0.98213010  0.35651229  1
  Ge  Ge1  1  0.01685516  0.02157556  0.64220285  1
  Ge  Ge2  1  0.00869539  0.00595477  0.14969153  1
  Ge  Ge3  1  0.66698567  0.32695390  0.48775583  1
  Ge  Ge4  1  0.33116630  0.66363000  0.02012830  1
  Ge  Ge5  1  0.32949311  0.67484202  0.51022260  1
  P  P0  1  0.26698551  0.99919019  0.25415244  1
  P  P1  1  0.72951987  0.72819894  0.25133074  1
  P  P2  1  0.29180617  0.29104730  0.74200501  1
  P  P3  1  0.99829190  0.70989576  0.73942986  1
  P  P4  1  0.65709235  0.63923595  0.57869538  1
  P  P5  1  0.66682902  0.00108064  0.08503321  1
  P  P6  1  0.04144350  0.37594930  0.92334902  1
  P  P7  1  0.33787164  0.95857025  0.92299680  1
  P  P8  1  0.34394051  0.36483553  0.42039519  1
  O  O0  1  0.17796881  0.00596732  0.31321831  1
  O  O1  1  0.82613633  0.81060599  0.30926799  1
  O  O2  1  0.98961590  0.16310328  0.31661829  1
  O  O3  1  0.22337722  0.21027554  0.80367437  1
  O  O4  1  0.99333549  0.78202345  0.80098469  1
  O  O5  1  0.79424176  0.01717380  0.80525174  1
  O  O6  1  0.83252253  0.99749897  0.68314146  1
  O  O7  1  0.18067809  0.17696023  0.69088029  1
  O  O8  1  0.00521941  0.82395076  0.68611887  1
  O  O9  1  0.82290074  0.82446565  0.19417327  1
  O  O10  1  0.99537733  0.16619384  0.19398101  1
  O  O11  1  0.17013744  0.99250371  0.19764731  1
  O  O12  1  0.94720148  0.40143265  0.64142845  1
  O  O13  1  0.45663695  0.06560978  0.64231843  1
  O  O14  1  0.62403568  0.56586492  0.64221844  1
  O  O15  1  0.92334976  0.53216732  0.13959057  1
  O  O16  1  0.63360293  0.08406949  0.13902605  1
  O  O17  1  0.47493549  0.38347463  0.13624203  1
  O  O18  1  0.40162746  0.29397465  0.02190629  1
  O  O19  1  0.87517745  0.60219109  0.02878125  1
  O  O20  1  0.71094712  0.11319691  0.02911578  1
  O  O21  1  0.47323509  0.16438191  0.52999482  1
  O  O22  1  0.68968486  0.51866186  0.53800314  1
  O  O23  1  0.82768143  0.29503247  0.53341926  1
  O  O24  1  0.50013291  0.66162396  0.97710047  1
  O  O25  1  0.14591672  0.48850604  0.97574104  1
  O  O26  1  0.33656329  0.83875299  0.97176073  1
  O  O27  1  0.52254559  0.83803723  0.47052198  1
  O  O28  1  0.31130910  0.48010730  0.46273504  1
  O  O29  1  0.16696676  0.70957239  0.46629926  1
  O  O30  1  0.06136967  0.60136866  0.35638412  1
  O  O31  1  0.53146359  0.92282911  0.35644004  1
  O  O32  1  0.37883067  0.44234680  0.35690212  1
  O  O33  1  0.11124955  0.45806354  0.86200915  1
  O  O34  1  0.34269600  0.89402152  0.86002593  1
  O  O35  1  0.54412207  0.65089924  0.85713834  1
  O  O36  1  0.00879745  0.84093717  0.41094821  1
  O  O37  1  0.82602663  0.99459166  0.41352932  1
  O  O38  1  0.18136863  0.18947282  0.42187658  1
  O  O39  1  0.04068913  0.20837513  0.92950515  1
  O  O40  1  0.17744980  0.97178463  0.93058705  1
  O  O41  1  0.80380069  0.83346810  0.93083889  1
  O  O42  1  0.99542902  0.16410105  0.58442991  1
  O  O43  1  0.16431107  0.99824737  0.58688283  1
  O  O44  1  0.82123336  0.81293741  0.57621376  1
  O  O45  1  0.01309840  0.85045040  0.09930985  1
  O  O46  1  0.82239754  0.97852184  0.09499885  1
  O  O47  1  0.14888220  0.17519362  0.09651494  1
  O  O48  1  0.69316322  0.17088176  0.73733524  1
  O  O49  1  0.46983663  0.31545825  0.73708258  1
  O  O50  1  0.83753286  0.53707791  0.73819590  1
  O  O51  1  0.71039167  0.55144041  0.25133562  1
  O  O52  1  0.82938925  0.28704427  0.25549125  1
  O  O53  1  0.44181374  0.15904880  0.25261978  1
  O  O54  1  0.64857460  0.49776832  0.92434214  1
  O  O55  1  0.86132965  0.34783913  0.92718435  1
  O  O56  1  0.49736839  0.13127775  0.92650467  1
  O  O57  1  0.66007041  0.16506775  0.43184723  1
  O  O58  1  0.49743734  0.34067332  0.43431166  1
  O  O59  1  0.83307270  0.49354711  0.43747801  1
  O  O60  1  0.31482184  0.50173329  0.07633683  1
  O  O61  1  0.18558600  0.68659515  0.07183104  1
  O  O62  1  0.51256702  0.82482203  0.07727775  1
  O  O63  1  0.33275969  0.83250738  0.56563614  1
  O  O64  1  0.50464870  0.66260879  0.56376865  1
  O  O65  1  0.16687911  0.50801925  0.55845315  1
  O  O66  1  0.28764589  0.84185927  0.25317413  1
  O  O67  1  0.55519018  0.71549451  0.25176191  1
  O  O68  1  0.16705271  0.45270159  0.25143176  1
  O  O69  1  0.29093301  0.45736544  0.73624466  1
  O  O70  1  0.15798311  0.69415899  0.73445525  1
  O  O71  1  0.53239679  0.83158740  0.73349761  1
loop_
_geom_bond_atom_site_label_1
_geom_bond_atom_site_label_2
_geom_bond_distance
_geom_bond_site_symmetry_2
Na0 O52 2.364873 1_555
Na0 O67 2.382088 1_545
Na0 O31 2.388185 1_545
Na0 O66 2.667016 1_545
Na0 O53 2.689556 1_555
Na0 O16 2.697567 1_555
Na1 O68 2.324098 1_555
Na1 O53 2.373624 1_555
Na1 O32 2.504833 1_555
Na1 O17 2.656625 1_555
Na1 O51 2.678553 1_555
Na1 O67 2.708827 1_555
Na2 O66 2.417263 1_555
Na2 O30 2.444769 1_555
Na2 O51 2.447902 1_455
Na2 O68 2.571377 1_555
Na2 O52 2.601488 1_455
Na2 O15 2.613609 1_455
Na3 O14 2.307383 1_555
Na3 O50 2.395775 1_555
Na3 O71 2.455828 1_555
Na3 O49 2.544576 1_555
Na3 O35 2.745296 1_555
Na3 O69 2.766309 1_555
Na4 O12 2.357714 1_555
Na4 O48 2.415690 1_555
Na4 O69 2.456634 1_655
Na4 O50 2.561379 1_555
Na4 O70 2.617034 1_655
Na4 O33 2.871955 1_655
Na5 O13 2.267298 1_555
Na5 O48 2.499563 1_555
Na5 O49 2.537512 1_555
Na5 O70 2.573804 1_545
Na5 O71 2.604822 1_545
Na5 O34 2.837473 1_545
Na6 O43 2.439539 1_555
Na6 O63 2.455814 1_555
Na6 O44 2.613684 1_455
Na6 O65 2.642921 1_555
Na6 O8 2.677865 1_555
Na6 O12 2.744404 1_455
Na6 O29 2.849555 1_555
Na6 O22 2.883086 1_455
Na7 O64 2.469329 1_555
Na7 O44 2.471936 1_555
Na7 O42 2.660419 1_565
Na7 O63 2.678184 1_555
Na7 O6 2.727054 1_555
Na7 O27 2.783469 1_555
Na7 O23 2.811321 1_565
Na7 O13 2.829221 1_565
Na8 O46 2.364101 1_555
Na8 O62 2.375810 1_555
Na8 O19 2.618906 1_555
Na8 O17 2.716251 1_555
Na8 O45 2.749772 1_655
Na8 O24 2.804372 1_554
Na8 O60 2.851521 1_555
Na8 O9 2.862329 1_555
Na9 O47 2.342959 1_555
Na9 O60 2.358129 1_555
Na9 O15 2.611340 1_455
Na9 O61 2.787879 1_555
Na9 O25 2.794433 1_554
Na9 O10 2.808639 1_455
Na9 O20 2.896066 1_455
Na9 O46 2.898238 1_445
Na10 O19 2.370771 1_556
Na10 O54 2.460691 1_555
Na10 O55 2.559674 1_555
Na10 O40 2.561809 1_655
Na10 O41 2.589136 1_555
Na11 O56 2.406375 1_555
Na11 O20 2.467984 1_556
Na11 O41 2.481672 1_545
Na11 O55 2.506399 1_555
Na11 O39 2.734204 1_655
Na11 O5 2.811445 1_555
Na12 O18 2.295823 1_556
Na12 O39 2.451553 1_555
Na12 O54 2.476728 1_555
Na12 O56 2.596554 1_555
Na12 O40 2.648492 1_545
Na12 O3 2.876185 1_555
Na13 O37 2.476333 1_545
Na13 O57 2.501397 1_555
Na13 O38 2.609111 1_655
Na13 O59 2.652737 1_555
Na13 O2 2.655087 1_555
Na13 O30 2.783241 1_655
Na13 O23 2.882048 1_555
Na13 O28 2.906275 1_655
Na14 O38 2.462297 1_555
Na14 O58 2.509412 1_555
Na14 O36 2.602821 1_545
Na14 O57 2.639950 1_555
Na14 O0 2.750850 1_555
Na14 O29 2.751607 1_545
Na14 O21 2.793067 1_555
Na14 O31 2.839943 1_545
Na15 O44 2.388356 1_555
Na15 O38 2.422943 1_665
Na15 O42 2.446715 1_565
Na15 O37 2.495851 1_555
Na15 O43 2.496216 1_655
Na15 O36 2.497022 1_655
Na16 O40 2.386716 1_554
Na16 O45 2.417394 1_555
Na16 O47 2.486093 1_565
Na16 O41 2.500837 1_454
Na16 O46 2.531040 1_455
Na16 O39 2.557620 1_564
Na17 O54 2.614445 1_555
Na17 O48 2.684451 1_555
Na17 O56 2.711112 1_555
Na17 O50 2.718101 1_555
Na17 O55 2.751118 1_555
Na17 O49 2.768231 1_555
Na18 O59 2.534444 1_555
Na18 O57 2.543807 1_555
Na18 O58 2.581494 1_555
Na18 O52 2.622705 1_555
Na18 O51 2.691775 1_555
Na18 O53 2.887737 1_555
Na19 O61 2.416843 1_555
Na19 O60 2.417482 1_555
Na19 O62 2.460353 1_555
Na19 O68 2.674011 1_555
Na19 O66 2.733748 1_555
Na19 O67 2.849198 1_555
Na20 O69 2.447264 1_555
Na20 O71 2.490017 1_555
Na20 O70 2.526658 1_555
Na20 O64 2.544471 1_555
Na20 O63 2.587292 1_555
Na20 O65 2.638060 1_555
La0 O5 2.222754 1_565
La0 O4 2.294906 1_555
La0 O3 2.327338 1_665
La0 O41 2.357991 1_555
La0 O39 2.475894 1_665
La0 O40 2.512413 1_655
La1 O13 2.300394 1_555
La1 O12 2.324402 1_555
La1 O48 2.380477 1_555
La1 O14 2.401707 1_555
La1 O49 2.464458 1_555
La1 O50 2.506564 1_555
La2 O15 2.308288 1_555
La2 O17 2.313517 1_555
La2 O16 2.347540 1_555
La2 O52 2.383314 1_555
La2 O51 2.438705 1_555
La2 O53 2.464796 1_555
La3 O18 2.247731 1_555
La3 O54 2.316149 1_554
La3 O19 2.332531 1_555
La3 O20 2.399624 1_555
La3 O55 2.435819 1_554
La3 O56 2.451782 1_554
La4 O30 2.307303 1_555
La4 O31 2.314396 1_555
La4 O32 2.357426 1_555
La4 O68 2.451537 1_555
La4 O66 2.513585 1_555
La4 O67 2.516925 1_555
La5 O35 2.218495 1_555
La5 O34 2.310885 1_555
La5 O33 2.338656 1_555
La5 O71 2.363124 1_555
La5 O69 2.473130 1_555
La5 O70 2.502950 1_555
Ge0 O2 1.838859 1_565
Ge0 O1 1.850566 1_555
Ge0 O36 1.902012 1_655
Ge0 O37 1.920331 1_555
Ge0 O0 1.979455 1_665
Ge0 O38 2.418254 1_665
Ge1 O6 1.825694 1_445
Ge1 O7 1.849989 1_555
Ge1 O43 1.912154 1_545
Ge1 O42 1.917616 1_455
Ge1 O8 2.017559 1_545
Ge1 O44 2.403764 1_445
Ge2 O10 1.833236 1_455
Ge2 O45 1.842214 1_545
Ge2 O47 1.860082 1_555
Ge2 O11 1.891769 1_545
Ge2 O9 1.951899 1_445
Ge2 O46 2.027568 1_445
Ge3 O59 1.888975 1_555
Ge3 O21 1.898224 1_555
Ge3 O57 1.928234 1_555
Ge3 O23 1.940134 1_555
Ge3 O22 2.020566 1_555
Ge3 O58 2.025807 1_555
Ge4 O24 1.821628 1_554
Ge4 O61 1.846401 1_555
Ge4 O60 1.892749 1_555
Ge4 O26 1.916646 1_554
Ge4 O25 1.954793 1_554
Ge4 O62 2.058784 1_555
Ge5 O65 1.850911 1_555
Ge5 O27 1.869792 1_555
Ge5 O63 1.903119 1_555
Ge5 O29 1.947554 1_555
Ge5 O28 2.023799 1_555
Ge5 O64 2.062742 1_555
O0 P0 1.564128 1_545
O1 P1 1.555901 1_555
O2 Si0 1.669086 1_555
O3 P2 1.537503 1_555
O4 P3 1.543920 1_555
O5 Si1 1.620571 1_555
O6 Si1 1.702753 1_565
O7 P2 1.560963 1_555
O8 P3 1.565917 1_455
O9 P1 1.539522 1_555
O10 Si0 1.639702 1_555
O11 P0 1.539875 1_555
O12 Si2 1.617633 1_555
O13 Si3 1.604768 1_555
O14 P4 1.533843 1_555
O15 Si4 1.646326 1_655
O16 P5 1.539394 1_555
O17 Si5 1.637924 1_555
O18 Si5 1.606339 1_555
O19 Si4 1.628730 1_655
O20 P5 1.536287 1_555
O21 Si3 1.655176 1_555
O22 P4 1.575102 1_555
O23 Si2 1.683871 1_555
O24 Si6 1.663734 1_555
O25 P6 1.558320 1_555
O26 P7 1.543907 1_555
O27 Si7 1.643812 1_555
O28 P8 1.558797 1_555
O29 Si8 1.663695 1_555
O30 Si8 1.631059 1_555
O31 Si7 1.620710 1_555
O32 P8 1.545854 1_555
O33 P6 1.536395 1_555
O34 P7 1.542738 1_555
O35 Si6 1.621501 1_555
O36 Si8 1.680386 1_555
O37 Si7 1.671996 1_555
O38 P8 1.563331 1_555
O39 P6 1.542850 1_555
O40 P7 1.540946 1_555
O41 Si6 1.637558 1_555
O42 Si2 1.665557 1_555
O43 Si3 1.679757 1_565
O44 P4 1.561598 1_555
O45 Si4 1.636324 1_555
O46 P5 1.557037 1_565
O47 Si5 1.641938 1_555
O48 Si1 1.613552 1_555
O49 P2 1.535122 1_555
O50 P3 1.543805 1_555
O51 P1 1.546126 1_555
O52 Si0 1.640760 1_555
O53 P0 1.548700 1_545
O54 Si6 1.631861 1_555
O55 P6 1.540179 1_655
O56 P7 1.540747 1_545
O57 Si7 1.676088 1_545
O58 P8 1.563259 1_555
O59 Si8 1.654893 1_655
O60 Si5 1.657457 1_555
O61 Si4 1.636553 1_555
O62 P5 1.548988 1_565
O63 Si3 1.665012 1_565
O64 P4 1.554594 1_555
O65 Si2 1.645825 1_455
O66 P0 1.549122 1_555
O67 P1 1.542772 1_555
O68 Si0 1.642360 1_455
O69 P2 1.537984 1_555
O70 P3 1.542536 1_455
O71 Si1 1.653469 1_565
