# generated using pymatgen
data_Sm2MgNb2O8
_symmetry_space_group_name_H-M   'P 1'
_cell_length_a   5.41564859
_cell_length_b   5.31298345
_cell_length_c   7.97327703
_cell_angle_alpha   105.52039897
_cell_angle_beta   105.97768384
_cell_angle_gamma   101.13610416
_symmetry_Int_Tables_number   1
_chemical_formula_structural   Sm2MgNb2O8
_chemical_formula_sum   'Sm2 Mg1 Nb2 O8'
_cell_volume   203.50677345
_cell_formula_units_Z   1
loop_
 _symmetry_equiv_pos_site_id
 _symmetry_equiv_pos_as_xyz
  1  'x, y, z'
loop_
 _atom_site_type_symbol
 _atom_site_label
 _atom_site_symmetry_multiplicity
 _atom_site_fract_x
 _atom_site_fract_y
 _atom_site_fract_z
 _atom_site_occupancy
  Sm  Sm0  1  0.33014599  0.58014599  0.66029099  1
  Sm  Sm1  1  0.64921829  0.39921829  0.29843757  1
  Mg  Mg0  1  0.97961343  0.72961343  0.95922685  1
  Nb  Nb0  1  0.81996697  0.06996697  0.63993494  1
  Nb  Nb1  1  0.17567503  0.92567503  0.35134906  1
  O  O0  1  0.01771672  0.79348494  0.55686080  1
  O  O1  1  0.53914407  0.26337586  0.55686080  1
  O  O2  1  0.97114852  0.19692528  0.42207537  1
  O  O3  1  0.45092684  0.72515009  0.42207536  1
  O  O4  1  0.07484248  0.42402235  0.81691820  1
  O  O5  1  0.74207672  0.89289685  0.81691820  1
  O  O6  1  0.85741991  0.62681627  0.14952593  1
  O  O7  1  0.29210502  0.02270865  0.14952593  1
loop_
_geom_bond_atom_site_label_1
_geom_bond_atom_site_label_2
_geom_bond_distance
_geom_bond_site_symmetry_2
Mg0 O4 1.961943 1_655
Mg0 O5 1.961944 1_555
Mg0 O7 1.973592 1_666
Mg0 O6 1.973597 1_556
Nb0 O5 1.984732 1_545
Nb0 O4 1.984743 1_655
Nb0 O1 2.054495 1_555
Nb0 O0 2.054495 1_645
Nb0 O3 2.310703 1_545
Nb0 O2 2.310707 1_555
Nb1 O7 2.032207 1_565
Nb1 O6 2.032217 1_455
Nb1 O3 2.036504 1_555
Nb1 O2 2.036504 1_465
Nb1 O1 2.250675 1_565
Nb1 O0 2.250680 1_555
O0 Sm0 2.302305 1_555
O0 Sm1 2.535295 1_455
O1 Sm0 2.302305 1_555
O1 Sm1 2.535290 1_555
O2 Sm1 2.347606 1_555
O2 Sm0 2.429273 1_655
O3 Sm1 2.347606 1_555
O3 Sm0 2.429268 1_555
O4 Sm0 2.285002 1_555
O5 Sm0 2.285002 1_555
O6 Sm1 2.263181 1_555
O7 Sm1 2.263182 1_555
