# generated using pymatgen
data_NaMn2O4
_symmetry_space_group_name_H-M   'P 1'
_cell_length_a   2.86650792
_cell_length_b   4.87413170
_cell_length_c   5.72904136
_cell_angle_alpha   107.14881057
_cell_angle_beta   90.11800562
_cell_angle_gamma   89.99452602
_symmetry_Int_Tables_number   1
_chemical_formula_structural   NaMn2O4
_chemical_formula_sum   'Na1 Mn2 O4'
_cell_volume   76.48587499
_cell_formula_units_Z   1
loop_
 _symmetry_equiv_pos_site_id
 _symmetry_equiv_pos_as_xyz
  1  'x, y, z'
loop_
 _atom_site_type_symbol
 _atom_site_label
 _atom_site_symmetry_multiplicity
 _atom_site_fract_x
 _atom_site_fract_y
 _atom_site_fract_z
 _atom_site_occupancy
  Na  Na0  1  0.50000000  -0.00000000  0.50000000  1
  Mn  Mn0  1  0.00000000  -0.00000000  -0.00000000  1
  Mn  Mn1  1  0.50000000  0.50000000  -0.00000000  1
  O  O0  1  0.49918551  0.77551470  0.81839844  1
  O  O1  1  0.99933300  0.26675731  0.81211478  1
  O  O2  1  0.00066700  0.73324269  0.18788522  1
  O  O3  1  0.50081449  0.22448530  0.18160156  1
loop_
_geom_bond_atom_site_label_1
_geom_bond_atom_site_label_2
_geom_bond_distance
_geom_bond_site_symmetry_2
Na0 O1 2.356997 1_555
Na0 O2 2.356997 1_545
Na0 O2 2.363641 1_645
Na0 O1 2.363641 1_455
Na0 O0 2.387810 1_545
Na0 O3 2.387810 1_555
Mn0 O0 1.913557 1_544
Mn0 O3 1.913557 1_455
Mn0 O0 1.914001 1_444
Mn0 O3 1.914001 1_555
Mn0 O1 1.916901 1_454
Mn0 O2 1.916901 1_545
Mn1 O0 1.926061 1_554
Mn1 O3 1.926061 1_555
Mn1 O2 1.945018 1_655
Mn1 O1 1.945018 1_454
Mn1 O1 1.945308 1_554
Mn1 O2 1.945308 1_555
