# generated using pymatgen
data_CsTiCl3
_symmetry_space_group_name_H-M   'P 1'
_cell_length_a   7.40115554
_cell_length_b   7.40115624
_cell_length_c   5.92382661
_cell_angle_alpha   90.00000000
_cell_angle_beta   90.00000000
_cell_angle_gamma   119.99999241
_symmetry_Int_Tables_number   1
_chemical_formula_structural   CsTiCl3
_chemical_formula_sum   'Cs2 Ti2 Cl6'
_cell_volume   281.01668524
_cell_formula_units_Z   2
loop_
 _symmetry_equiv_pos_site_id
 _symmetry_equiv_pos_as_xyz
  1  'x, y, z'
loop_
 _atom_site_type_symbol
 _atom_site_label
 _atom_site_symmetry_multiplicity
 _atom_site_fract_x
 _atom_site_fract_y
 _atom_site_fract_z
 _atom_site_occupancy
  Cs  Cs0  1  0.66666700  0.33333300  0.25001079  1
  Cs  Cs1  1  0.33333300  0.66666700  0.74998921  1
  Ti  Ti0  1  0.00000000  0.00000000  0.50000000  1
  Ti  Ti1  1  0.00000000  0.00000000  -0.00000000  1
  Cl  Cl0  1  0.83951421  0.67902743  0.74995559  1
  Cl  Cl1  1  0.16048679  0.83951321  0.25004441  1
  Cl  Cl2  1  0.67902743  0.83951321  0.25004441  1
  Cl  Cl3  1  0.32097257  0.16048679  0.74995559  1
  Cl  Cl4  1  0.16048679  0.32097257  0.25004441  1
  Cl  Cl5  1  0.83951421  0.16048679  0.74995559  1
loop_
_geom_bond_atom_site_label_1
_geom_bond_atom_site_label_2
_geom_bond_distance
_geom_bond_site_symmetry_2
Cl0 Ti0 2.534748 1_665
Cl0 Ti1 2.535055 1_666
Cl0 Cs0 3.698727 1_555
Cl0 Cs0 3.699251 1_556
Cl0 Cs1 3.701418 1_655
Cl0 Cs1 3.701433 1_555
Cl1 Ti0 2.534753 1_565
Cl1 Ti1 2.535060 1_565
Cl1 Cs1 3.698719 1_555
Cl1 Cs1 3.699243 1_554
Cl1 Cs0 3.701426 1_565
Cl1 Cs0 3.701426 1_455
Cl2 Ti0 2.534748 1_665
Cl2 Ti1 2.535055 1_665
Cl2 Cs1 3.698727 1_555
Cl2 Cs1 3.699251 1_554
Cl2 Cs0 3.701426 1_555
Cl2 Cs0 3.701426 1_565
Cl3 Ti0 2.534748 1_555
Cl3 Ti1 2.535055 1_556
Cl3 Cs0 3.698727 1_555
Cl3 Cs0 3.699251 1_556
Cl3 Cs1 3.701426 1_555
Cl3 Cs1 3.701426 1_545
Cl4 Ti0 2.534748 1_555
Cl4 Ti1 2.535055 1_555
Cl4 Cs1 3.698727 1_555
Cl4 Cs1 3.699251 1_554
Cl4 Cs0 3.701426 1_555
Cl4 Cs0 3.701426 1_455
Cl5 Ti0 2.534748 1_655
Cl5 Ti1 2.535055 1_656
Cl5 Cs0 3.698723 1_555
Cl5 Cs0 3.699247 1_556
Cl5 Cs1 3.701423 1_655
Cl5 Cs1 3.701430 1_545
