# generated using pymatgen
data_Na4Hf3Mg(PO4)6
_symmetry_space_group_name_H-M   'P 1'
_cell_length_a   8.90749336
_cell_length_b   8.92322283
_cell_length_c   22.78637468
_cell_angle_alpha   89.99599301
_cell_angle_beta   89.98531236
_cell_angle_gamma   119.96405965
_symmetry_Int_Tables_number   1
_chemical_formula_structural   Na4Hf3Mg(PO4)6
_chemical_formula_sum   'Na12 Hf9 Mg3 P18 O72'
_cell_volume   1569.06254664
_cell_formula_units_Z   3
loop_
 _symmetry_equiv_pos_site_id
 _symmetry_equiv_pos_as_xyz
  1  'x, y, z'
loop_
 _atom_site_type_symbol
 _atom_site_label
 _atom_site_symmetry_multiplicity
 _atom_site_fract_x
 _atom_site_fract_y
 _atom_site_fract_z
 _atom_site_occupancy
  Na  Na0  1  0.64166365  0.01082368  0.24557076  1
  Na  Na1  1  0.36919087  0.35790794  0.24554724  1
  Na  Na2  1  0.98866455  0.62971326  0.24518627  1
  Na  Na3  1  0.98902112  0.36237313  0.74329167  1
  Na  Na4  1  0.37217270  0.00803789  0.74341055  1
  Na  Na5  1  0.70577592  0.67491515  0.41496941  1
  Na  Na6  1  0.01204672  0.01258463  0.49484666  1
  Na  Na7  1  0.00003453  0.00014603  0.00160708  1
  Na  Na8  1  0.66577918  0.34497464  0.83132646  1
  Na  Na9  1  0.66570077  0.32280534  0.33236639  1
  Na  Na10  1  0.33320274  0.66662894  0.16166444  1
  Na  Na11  1  0.34513873  0.66559132  0.66160968  1
  Hf  Hf0  1  0.99900581  0.99810007  0.85468036  1
  Hf  Hf1  1  0.99659331  0.99649585  0.64338140  1
  Hf  Hf2  1  0.00055438  0.00030232  0.14543560  1
  Hf  Hf3  1  0.66692208  0.33271029  0.98239056  1
  Hf  Hf4  1  0.66613060  0.32805881  0.48299299  1
  Hf  Hf5  1  0.33311498  0.66646950  0.02067215  1
  Hf  Hf6  1  0.33086975  0.66617883  0.52039918  1
  Hf  Hf7  1  0.33079090  0.66665644  0.31681761  1
  Hf  Hf8  1  0.33785560  0.66588267  0.81526159  1
  Mg  Mg0  1  0.00612822  0.00695549  0.35302734  1
  Mg  Mg1  1  0.66558034  0.34004469  0.68249382  1
  Mg  Mg2  1  0.66665784  0.33310329  0.18093080  1
  P  P0  1  0.29141783  0.00240842  0.25136581  1
  P  P1  1  0.70980554  0.70774952  0.25255740  1
  P  P2  1  0.99710753  0.28842534  0.25145559  1
  P  P3  1  0.29173711  0.28984363  0.74970741  1
  P  P4  1  0.99618129  0.70645868  0.75031353  1
  P  P5  1  0.70891216  0.00033631  0.74977374  1
  P  P6  1  0.95817641  0.33439923  0.58672792  1
  P  P7  1  0.37682644  0.04157847  0.58666222  1
  P  P8  1  0.66480456  0.62172039  0.58366282  1
  P  P9  1  0.95761570  0.62407477  0.08566613  1
  P  P10  1  0.66581000  0.04163962  0.08566969  1
  P  P11  1  0.37596944  0.33403771  0.08563078  1
  P  P12  1  0.62559403  0.66520603  0.91784348  1
  P  P13  1  0.04062003  0.37506644  0.91633074  1
  P  P14  1  0.33528394  0.95948253  0.91648237  1
  P  P15  1  0.62884884  0.96135295  0.41648274  1
  P  P16  1  0.32979947  0.36950469  0.41719993  1
  P  P17  1  0.03816572  0.66888458  0.41702939  1
  O  O0  1  0.20772003  0.03064427  0.30443409  1
  O  O1  1  0.81563902  0.78658404  0.30780362  1
  O  O2  1  0.96753246  0.17608853  0.30450144  1
  O  O3  1  0.20013623  0.17595053  0.80428243  1
  O  O4  1  0.97844689  0.79847078  0.80512863  1
  O  O5  1  0.82279238  0.02332646  0.80408077  1
  O  O6  1  0.79484641  0.97287642  0.69558137  1
  O  O7  1  0.17188488  0.20450264  0.69632131  1
  O  O8  1  0.03171933  0.82579035  0.69675493  1
  O  O9  1  0.79623413  0.82777540  0.19855443  1
  O  O10  1  0.03365074  0.20796155  0.19623665  1
  O  O11  1  0.17504750  0.96703346  0.19606909  1
  O  O12  1  0.88278445  0.35965260  0.64303111  1
  O  O13  1  0.47827096  0.11596930  0.64290619  1
  O  O14  1  0.63771748  0.51270445  0.63709102  1
  O  O15  1  0.88333815  0.52357963  0.14219159  1
  O  O16  1  0.63974463  0.11632726  0.14211289  1
  O  O17  1  0.47669992  0.36032825  0.14213011  1
  O  O18  1  0.46660967  0.31056571  0.03125081  1
  O  O19  1  0.84380251  0.53336652  0.03128783  1
  O  O20  1  0.68988484  0.15568140  0.03125044  1
  O  O21  1  0.46668673  0.15631363  0.53206067  1
  O  O22  1  0.69058834  0.54125347  0.52628413  1
  O  O23  1  0.84374560  0.31087173  0.53217209  1
  O  O24  1  0.53731007  0.69063614  0.97137899  1
  O  O25  1  0.15672623  0.46613225  0.96923061  1
  O  O26  1  0.31055076  0.84377227  0.96941100  1
  O  O27  1  0.53090894  0.84180426  0.46860702  1
  O  O28  1  0.31458635  0.46957015  0.46976010  1
  O  O29  1  0.15347947  0.68617816  0.46948776  1
  O  O30  1  0.12219827  0.64140146  0.36027322  1
  O  O31  1  0.51635157  0.87642126  0.35981350  1
  O  O32  1  0.36322506  0.48700933  0.36100837  1
  O  O33  1  0.12525644  0.48309448  0.85975663  1
  O  O34  1  0.35832772  0.87446820  0.85997054  1
  O  O35  1  0.51365191  0.64163110  0.86251237  1
  O  O36  1  0.01407779  0.82515089  0.41228939  1
  O  O37  1  0.80339781  0.97122588  0.41143485  1
  O  O38  1  0.17248182  0.19328394  0.41187671  1
  O  O39  1  0.02278135  0.19441524  0.91009801  1
  O  O40  1  0.17204005  0.97726786  0.91046527  1
  O  O41  1  0.80572935  0.82810325  0.91078380  1
  O  O42  1  0.97772477  0.17049222  0.58928925  1
  O  O43  1  0.19336161  0.02241998  0.58974979  1
  O  O44  1  0.82906185  0.80527222  0.58867795  1
  O  O45  1  0.97688395  0.80732294  0.08905997  1
  O  O46  1  0.82971112  0.02172923  0.08913151  1
  O  O47  1  0.19243541  0.17001050  0.08897665  1
  O  O48  1  0.68914548  0.16110365  0.74584649  1
  O  O49  1  0.46880963  0.30511939  0.74483765  1
  O  O50  1  0.84271504  0.52424974  0.74557264  1
  O  O51  1  0.68307589  0.52495102  0.24386748  1
  O  O52  1  0.84170700  0.31719996  0.24332189  1
  O  O53  1  0.47555480  0.15771801  0.24346087  1
  O  O54  1  0.64400623  0.50350228  0.92330094  1
  O  O55  1  0.86050080  0.35713142  0.92279144  1
  O  O56  1  0.49694080  0.13959238  0.92282554  1
  O  O57  1  0.64272654  0.14001918  0.42289862  1
  O  O58  1  0.50269867  0.36551523  0.42295978  1
  O  O59  1  0.85663369  0.50272231  0.42276740  1
  O  O60  1  0.35228233  0.49365644  0.07597667  1
  O  O61  1  0.14109064  0.64745284  0.07594656  1
  O  O62  1  0.50560589  0.85884216  0.07596969  1
  O  O63  1  0.35337969  0.85907346  0.57628374  1
  O  O64  1  0.50621001  0.64820495  0.57528010  1
  O  O65  1  0.14098778  0.49392090  0.57672027  1
  O  O66  1  0.30748008  0.83349492  0.25618098  1
  O  O67  1  0.52457054  0.69139612  0.25623698  1
  O  O68  1  0.16588735  0.47343256  0.25665143  1
  O  O69  1  0.30150583  0.46899450  0.75683120  1
  O  O70  1  0.16694053  0.69453004  0.75681693  1
  O  O71  1  0.52442350  0.83808245  0.75631917  1
loop_
_geom_bond_atom_site_label_1
_geom_bond_atom_site_label_2
_geom_bond_distance
_geom_bond_site_symmetry_2
Na0 O52 2.405317 1_555
Na0 O53 2.418066 1_555
Na0 O67 2.510254 1_545
Na0 O16 2.541623 1_555
Na0 O66 2.591854 1_545
Na0 O9 2.820869 1_545
Na0 O31 2.849851 1_545
Na0 O2 2.851275 1_555
Na1 O53 2.404474 1_555
Na1 O51 2.424339 1_555
Na1 O68 2.504135 1_555
Na1 O17 2.539451 1_555
Na1 O67 2.591594 1_555
Na1 O10 2.827195 1_555
Na1 O0 2.863539 1_555
Na1 O32 2.883276 1_555
Na2 O51 2.396339 1_555
Na2 O52 2.417730 1_555
Na2 O66 2.505220 1_655
Na2 O15 2.529591 1_555
Na2 O68 2.589238 1_655
Na2 O11 2.841780 1_655
Na2 O30 2.860148 1_655
Na2 O1 2.919729 1_555
Na3 O48 2.360449 1_555
Na3 O50 2.380742 1_555
Na3 O12 2.468507 1_555
Na3 O69 2.470454 1_655
Na3 O70 2.588362 1_655
Na3 O7 2.841580 1_655
Na3 O33 2.893442 1_655
Na3 O5 2.964400 1_555
Na4 O49 2.343082 1_555
Na4 O48 2.447100 1_555
Na4 O70 2.480388 1_545
Na4 O13 2.480884 1_555
Na4 O71 2.506045 1_545
Na4 O8 2.836721 1_545
Na4 O34 2.888349 1_545
Na4 O3 2.968151 1_555
Na5 O37 2.335995 1_555
Na5 O36 2.380102 1_655
Na5 O58 2.436932 1_555
Na5 O59 2.502141 1_555
Na5 O1 2.633992 1_555
Na5 O22 2.777169 1_555
Na5 O27 2.907581 1_555
Na5 O32 2.919785 1_555
Na6 O38 2.431643 1_555
Na6 O36 2.523315 1_545
Na6 O37 2.553351 1_445
Na6 O42 2.672151 1_455
Na6 O43 2.674463 1_555
Na6 O44 2.763312 1_445
Na7 O47 2.570086 1_555
Na7 O46 2.570353 1_455
Na7 O45 2.572717 1_445
Na7 O41 2.642619 1_444
Na7 O40 2.648217 1_544
Na7 O39 2.653755 1_554
Na8 O50 2.518076 1_555
Na8 O49 2.543082 1_555
Na8 O54 2.589426 1_555
Na8 O48 2.621162 1_555
Na8 O55 2.679148 1_555
Na8 O56 2.685530 1_555
Na9 O57 2.573642 1_555
Na9 O53 2.579265 1_555
Na9 O52 2.579531 1_555
Na9 O59 2.643476 1_555
Na9 O51 2.657937 1_555
Na9 O58 2.658197 1_555
Na10 O62 2.545573 1_555
Na10 O61 2.545951 1_555
Na10 O60 2.546720 1_555
Na10 O67 2.687757 1_555
Na10 O66 2.692384 1_555
Na10 O68 2.703539 1_555
Na11 O64 2.484578 1_555
Na11 O65 2.571893 1_555
Na11 O63 2.576660 1_555
Na11 O71 2.669009 1_555
Na11 O69 2.693387 1_555
Na11 O70 2.774954 1_555
Hf0 O4 2.038652 1_555
Hf0 O5 2.048798 1_565
Hf0 O3 2.050765 1_665
Hf0 O41 2.071031 1_555
Hf0 O40 2.076806 1_655
Hf0 O39 2.082779 1_665
Hf1 O44 2.037133 1_555
Hf1 O43 2.052516 1_665
Hf1 O42 2.053913 1_565
Hf1 O6 2.075851 1_555
Hf1 O8 2.091244 1_655
Hf1 O7 2.108213 1_665
Hf2 O47 2.069475 1_555
Hf2 O46 2.071232 1_455
Hf2 O11 2.072897 1_545
Hf2 O45 2.073087 1_445
Hf2 O10 2.077318 1_555
Hf2 O9 2.084997 1_445
Hf3 O20 2.024683 1_556
Hf3 O18 2.027069 1_556
Hf3 O19 2.028031 1_556
Hf3 O54 2.118439 1_555
Hf3 O55 2.118587 1_555
Hf3 O56 2.121154 1_555
Hf4 O23 2.006392 1_555
Hf4 O21 2.008465 1_555
Hf4 O22 2.055719 1_555
Hf4 O57 2.094038 1_555
Hf4 O59 2.132726 1_555
Hf4 O58 2.142248 1_555
Hf5 O24 2.055116 1_554
Hf5 O26 2.055562 1_554
Hf5 O25 2.057633 1_554
Hf5 O61 2.061489 1_555
Hf5 O60 2.063486 1_555
Hf5 O62 2.064400 1_555
Hf6 O29 2.038863 1_555
Hf6 O28 2.043654 1_555
Hf6 O27 2.057420 1_555
Hf6 O65 2.066890 1_555
Hf6 O64 2.068844 1_555
Hf6 O63 2.068848 1_555
Hf7 O30 2.016020 1_555
Hf7 O31 2.026337 1_555
Hf7 O32 2.032158 1_555
Hf7 O66 2.115931 1_555
Hf7 O68 2.116946 1_555
Hf7 O67 2.133487 1_555
Hf8 O35 1.999360 1_555
Hf8 O33 2.046428 1_555
Hf8 O34 2.048586 1_555
Hf8 O71 2.091524 1_555
Hf8 O69 2.096769 1_555
Hf8 O70 2.132229 1_555
Mg0 O0 2.028537 1_555
Mg0 O2 2.033913 1_455
Mg0 O38 2.073308 1_555
Mg0 O1 2.115656 1_445
Mg0 O37 2.134833 1_445
Mg0 O36 2.138878 1_545
Mg1 O14 1.971673 1_555
Mg1 O12 2.059944 1_555
Mg1 O13 2.064938 1_555
Mg1 O49 2.154135 1_555
Mg1 O50 2.160571 1_555
Mg1 O48 2.238785 1_555
Mg2 O17 2.028565 1_555
Mg2 O15 2.028611 1_555
Mg2 O16 2.029446 1_555
Mg2 O52 2.166719 1_555
Mg2 O53 2.171255 1_555
Mg2 O51 2.181512 1_555
O0 P0 1.506244 1_555
O1 P1 1.518744 1_555
O2 P2 1.507020 1_555
O3 P3 1.554360 1_555
O4 P4 1.545563 1_555
O5 P5 1.547638 1_555
O6 P5 1.535490 1_565
O7 P3 1.545364 1_555
O8 P4 1.544784 1_455
O9 P1 1.558738 1_555
O10 P2 1.561415 1_455
O11 P0 1.560648 1_565
O12 P6 1.516072 1_555
O13 P7 1.516967 1_555
O14 P8 1.500627 1_555
O15 P9 1.519080 1_555
O16 P10 1.518798 1_555
O17 P11 1.519181 1_555
O18 P11 1.549061 1_555
O19 P9 1.548983 1_555
O20 P10 1.549478 1_555
O21 P7 1.554847 1_555
O22 P8 1.562832 1_555
O23 P6 1.554133 1_555
O24 P12 1.528334 1_555
O25 P13 1.531074 1_555
O26 P14 1.530240 1_555
O27 P15 1.542532 1_555
O28 P16 1.539791 1_555
O29 P17 1.532976 1_555
O30 P17 1.573492 1_555
O31 P15 1.577376 1_555
O32 P16 1.585952 1_555
O33 P13 1.559743 1_555
O34 P14 1.559270 1_555
O35 P12 1.555398 1_555
O36 P17 1.516873 1_555
O37 P15 1.517055 1_555
O38 P16 1.500002 1_555
O39 P13 1.545352 1_555
O40 P14 1.545636 1_555
O41 P12 1.543818 1_555
O42 P6 1.557965 1_555
O43 P7 1.557462 1_555
O44 P8 1.562921 1_555
O45 P9 1.558488 1_555
O46 P10 1.558330 1_555
O47 P11 1.558991 1_555
O48 P5 1.532736 1_555
O49 P3 1.517836 1_555
O50 P4 1.517828 1_555
O51 P1 1.539051 1_555
O52 P2 1.539975 1_555
O53 P0 1.540294 1_555
O54 P12 1.536474 1_555
O55 P13 1.537793 1_655
O56 P14 1.538098 1_545
O57 P15 1.543229 1_545
O58 P16 1.563734 1_555
O59 P17 1.560488 1_655
O60 P11 1.556198 1_555
O61 P9 1.556522 1_455
O62 P10 1.555934 1_565
O63 P7 1.553059 1_565
O64 P8 1.556157 1_555
O65 P6 1.553775 1_455
O66 P0 1.587362 1_565
O67 P1 1.584352 1_555
O68 P2 1.587605 1_455
O69 P3 1.565422 1_555
O70 P4 1.583882 1_455
O71 P5 1.562740 1_565
