# generated using pymatgen
data_Ba5Pt2O9
_symmetry_space_group_name_H-M   'P 1'
_cell_length_a   10.24936777
_cell_length_b   10.24936984
_cell_length_c   8.96718451
_cell_angle_alpha   90.00019303
_cell_angle_beta   89.99991859
_cell_angle_gamma   120.00002566
_symmetry_Int_Tables_number   1
_chemical_formula_structural   Ba5Pt2O9
_chemical_formula_sum   'Ba15 Pt6 O27'
_cell_volume   815.79467610
_cell_formula_units_Z   3
loop_
 _symmetry_equiv_pos_site_id
 _symmetry_equiv_pos_as_xyz
  1  'x, y, z'
loop_
 _atom_site_type_symbol
 _atom_site_label
 _atom_site_symmetry_multiplicity
 _atom_site_fract_x
 _atom_site_fract_y
 _atom_site_fract_z
 _atom_site_occupancy
  Ba  Ba0  1  0.03146586  0.69641662  0.26326000  1
  Ba  Ba1  1  0.30358311  0.33504840  0.26325989  1
  Ba  Ba2  1  0.66495118  0.96853429  0.26326004  1
  Ba  Ba3  1  0.33504825  0.30358350  0.73673984  1
  Ba  Ba4  1  0.96853426  0.66495108  0.73674006  1
  Ba  Ba5  1  0.69641681  0.03146602  0.73673951  1
  Ba  Ba6  1  -0.00000036  -0.00000010  -0.00000012  1
  Ba  Ba7  1  0.33333344  0.66666656  0.75233189  1
  Ba  Ba8  1  0.66666673  0.33333360  0.24766814  1
  Ba  Ba9  1  0.63415243  0.63415258  0.00000021  1
  Ba  Ba10  1  -0.00000011  0.36584741  -0.00000025  1
  Ba  Ba11  1  0.36584778  0.00000020  0.00000017  1
  Ba  Ba12  1  0.67015561  0.67015623  0.49999982  1
  Ba  Ba13  1  0.00000071  0.32984495  0.49999993  1
  Ba  Ba14  1  0.32984402  0.00000000  0.49999975  1
  Pt  Pt0  1  0.33333365  0.66666643  0.09932042  1
  Pt  Pt1  1  0.66666676  0.33333361  0.90068004  1
  Pt  Pt2  1  0.33333398  0.66666943  0.40741003  1
  Pt  Pt3  1  0.66666573  0.33333042  0.59259026  1
  Pt  Pt4  1  -0.00000025  -0.00000012  0.34607225  1
  Pt  Pt5  1  -0.00000022  0.00000005  0.65392754  1
  O  O0  1  0.14819767  0.14819788  0.49999989  1
  O  O1  1  -0.00000003  0.85180214  0.50000005  1
  O  O2  1  0.85180194  0.00000011  0.49999979  1
  O  O3  1  0.17604678  0.68184921  0.53185374  1
  O  O4  1  0.31814958  0.49419561  0.53185437  1
  O  O5  1  0.50580390  0.82395237  0.53185405  1
  O  O6  1  0.49419599  0.31815058  0.46814567  1
  O  O7  1  0.82395270  0.50580397  0.46814593  1
  O  O8  1  0.68184925  0.17604705  0.46814632  1
  O  O9  1  0.52212763  0.17251423  0.74697801  1
  O  O10  1  0.82748580  0.34961574  0.74697690  1
  O  O11  1  0.65038533  0.47787252  0.74697856  1
  O  O12  1  0.34961581  0.82748577  0.25302324  1
  O  O13  1  0.47787230  0.65038445  0.25302263  1
  O  O14  1  0.17251378  0.52212739  0.25302197  1
  O  O15  1  0.00681097  0.17403355  0.77777623  1
  O  O16  1  0.82596648  0.83277798  0.77777641  1
  O  O17  1  0.16722200  0.99318859  0.77777634  1
  O  O18  1  0.83277775  0.82596642  0.22222345  1
  O  O19  1  0.99318824  0.16722190  0.22222354  1
  O  O20  1  0.17403342  0.00681110  0.22222359  1
  O  O21  1  0.82507777  0.50998055  0.02543447  1
  O  O22  1  0.49001934  0.31509699  0.02543482  1
  O  O23  1  0.68490376  0.17492374  0.02543350  1
  O  O24  1  0.31509686  0.49001918  0.97456521  1
  O  O25  1  0.17492378  0.68490361  0.97456657  1
  O  O26  1  0.50997980  0.82507620  0.97456633  1
loop_
_geom_bond_atom_site_label_1
_geom_bond_atom_site_label_2
_geom_bond_distance
_geom_bond_site_symmetry_2
Ba0 O7 2.749673 1_455
Ba0 O1 2.767791 1_555
Ba0 O20 2.782607 1_565
Ba0 O14 2.805682 1_555
Ba0 O12 2.840001 1_555
Ba0 O3 2.870625 1_555
Ba0 O21 2.938028 1_455
Ba0 O18 2.957954 1_455
Ba0 O25 3.008499 1_554
Ba1 O6 2.749662 1_555
Ba1 O0 2.767793 1_555
Ba1 O19 2.782608 1_455
Ba1 O13 2.805672 1_555
Ba1 O14 2.839987 1_555
Ba1 O4 2.870621 1_555
Ba1 O22 2.938024 1_555
Ba1 O20 2.957946 1_555
Ba1 O24 3.008513 1_554
Ba2 O8 2.749673 1_565
Ba2 O2 2.767790 1_565
Ba2 O18 2.782605 1_555
Ba2 O12 2.805663 1_555
Ba2 O13 2.839998 1_555
Ba2 O5 2.870626 1_555
Ba2 O23 2.938050 1_565
Ba2 O19 2.957945 1_565
Ba2 O26 3.008503 1_554
Ba3 O4 2.749661 1_555
Ba3 O0 2.767788 1_555
Ba3 O17 2.782610 1_545
Ba3 O11 2.805680 1_555
Ba3 O9 2.839990 1_555
Ba3 O6 2.870622 1_555
Ba3 O24 2.938020 1_555
Ba3 O15 2.957946 1_555
Ba3 O22 3.008515 1_556
Ba4 O3 2.749674 1_655
Ba4 O1 2.767797 1_655
Ba4 O16 2.782607 1_555
Ba4 O10 2.805664 1_555
Ba4 O11 2.839990 1_555
Ba4 O7 2.870621 1_555
Ba4 O25 2.938047 1_655
Ba4 O17 2.957948 1_655
Ba4 O21 3.008507 1_556
Ba5 O5 2.749667 1_545
Ba5 O2 2.767788 1_555
Ba5 O15 2.782602 1_655
Ba5 O9 2.805684 1_555
Ba5 O10 2.839999 1_555
Ba5 O8 2.870625 1_555
Ba5 O26 2.938052 1_545
Ba5 O16 2.957953 1_545
Ba5 O23 3.008501 1_556
Ba6 O16 2.651972 1_444
Ba6 O19 2.651973 1_455
Ba6 O17 2.651977 1_544
Ba6 O18 2.651979 1_445
Ba6 O20 2.651982 1_555
Ba6 O15 2.651984 1_554
Ba7 O4 2.604362 1_555
Ba7 O5 2.604365 1_555
Ba7 O3 2.604365 1_555
Ba7 O26 2.635487 1_555
Ba7 O25 2.635490 1_555
Ba7 O24 2.635494 1_555
Ba8 O7 2.604359 1_555
Ba8 O6 2.604366 1_555
Ba8 O8 2.604366 1_555
Ba8 O23 2.635489 1_555
Ba8 O22 2.635491 1_555
Ba8 O21 2.635493 1_555
Ba9 O18 2.824547 1_555
Ba9 O16 2.824558 1_554
Ba9 O26 2.826920 1_554
Ba9 O21 2.826931 1_555
Ba9 O11 2.829788 1_554
Ba9 O13 2.829792 1_555
Ba9 O24 2.845552 1_554
Ba9 O22 2.845553 1_555
Ba10 O15 2.824546 1_554
Ba10 O19 2.824560 1_455
Ba10 O23 2.826917 1_455
Ba10 O24 2.826926 1_554
Ba10 O14 2.829796 1_555
Ba10 O10 2.829812 1_454
Ba10 O21 2.845550 1_455
Ba10 O25 2.845558 1_554
Ba11 O20 2.824551 1_555
Ba11 O17 2.824559 1_544
Ba11 O25 2.826920 1_544
Ba11 O22 2.826925 1_555
Ba11 O9 2.829801 1_554
Ba11 O12 2.829818 1_545
Ba11 O23 2.845555 1_555
Ba11 O26 2.845557 1_544
Ba12 O5 2.838873 1_555
Ba12 O7 2.838886 1_555
Ba12 O13 2.903538 1_555
Ba12 O11 2.903559 1_555
Ba12 O2 2.932778 1_565
Ba12 O1 2.932781 1_655
Ba12 O16 2.978435 1_555
Ba12 O18 2.978439 1_555
Ba12 O6 3.137506 1_555
Ba12 O4 3.137510 1_555
Ba13 O4 2.838881 1_555
Ba13 O8 2.838904 1_455
Ba13 O14 2.903546 1_555
Ba13 O10 2.903551 1_455
Ba13 O0 2.932781 1_555
Ba13 O2 2.932786 1_455
Ba13 O19 2.978436 1_455
Ba13 O15 2.978442 1_555
Ba13 O3 3.137493 1_555
Ba13 O7 3.137520 1_455
Ba14 O6 2.838898 1_555
Ba14 O3 2.838900 1_545
Ba14 O12 2.903545 1_545
Ba14 O9 2.903550 1_555
Ba14 O1 2.932779 1_545
Ba14 O0 2.932782 1_555
Ba14 O20 2.978437 1_555
Ba14 O17 2.978437 1_545
Ba14 O8 3.137502 1_555
Ba14 O5 3.137525 1_545
O0 Pt4 2.052408 1_555
O0 Pt5 2.052411 1_555
O1 Pt5 2.052406 1_565
O1 Pt4 2.052414 1_565
O2 Pt4 2.052407 1_655
O2 Pt5 2.052411 1_655
O3 Pt2 2.029561 1_555
O4 Pt2 2.029610 1_555
O5 Pt2 2.029561 1_555
O6 Pt3 2.029591 1_555
O7 Pt3 2.029598 1_555
O8 Pt3 2.029546 1_555
O9 Pt1 2.090291 1_555
O9 Pt3 2.094338 1_555
O10 Pt1 2.090290 1_555
O10 Pt3 2.094337 1_555
O11 Pt1 2.090298 1_555
O11 Pt3 2.094377 1_555
O12 Pt0 2.090289 1_555
O12 Pt2 2.094323 1_555
O13 Pt0 2.090301 1_555
O13 Pt2 2.094364 1_555
O14 Pt0 2.090294 1_555
O14 Pt2 2.094366 1_555
O15 Pt5 2.072539 1_555
O16 Pt5 2.072542 1_665
O17 Pt5 2.072544 1_565
O18 Pt4 2.072539 1_665
O19 Pt4 2.072544 1_655
O20 Pt4 2.072542 1_555
O21 Pt1 2.055721 1_554
O22 Pt1 2.055725 1_554
O23 Pt1 2.055717 1_554
O24 Pt0 2.055723 1_556
O25 Pt0 2.055718 1_556
O26 Pt0 2.055714 1_556
