# generated using pymatgen
data_MgTe2MoW3(Se2S)2
_symmetry_space_group_name_H-M   'P 1'
_cell_length_a   6.66686608
_cell_length_b   6.66683065
_cell_length_c   76.34711946
_cell_angle_alpha   89.99692122
_cell_angle_beta   89.98218644
_cell_angle_gamma   119.99990822
_symmetry_Int_Tables_number   1
_chemical_formula_structural   MgTe2MoW3(Se2S)2
_chemical_formula_sum   'Mg8 Te16 Mo8 W24 Se32 S16'
_cell_volume   2938.76467148
_cell_formula_units_Z   8
loop_
 _symmetry_equiv_pos_site_id
 _symmetry_equiv_pos_as_xyz
  1  'x, y, z'
loop_
 _atom_site_type_symbol
 _atom_site_label
 _atom_site_symmetry_multiplicity
 _atom_site_fract_x
 _atom_site_fract_y
 _atom_site_fract_z
 _atom_site_occupancy
  Mg  Mg0_0  1  0.31410900  0.17010050  0.43297750  1
  Mg  Mg0_1  1  0.31410900  0.17010050  0.93297750  1
  Mg  Mg0_2  1  0.31410900  0.67010050  0.43297750  1
  Mg  Mg0_3  1  0.31410900  0.67010050  0.93297750  1
  Mg  Mg0_4  1  0.81410900  0.17010050  0.43297750  1
  Mg  Mg0_5  1  0.81410900  0.17010050  0.93297750  1
  Mg  Mg0_6  1  0.81410900  0.67010050  0.43297750  1
  Mg  Mg0_7  1  0.81410900  0.67010050  0.93297750  1
  Te  Te0_0  1  0.33337650  0.16668500  0.02205150  1
  Te  Te0_1  1  0.33337650  0.16668500  0.52205150  1
  Te  Te0_2  1  0.33337650  0.66668500  0.02205150  1
  Te  Te0_3  1  0.33337650  0.66668500  0.52205150  1
  Te  Te0_4  1  0.83337650  0.16668500  0.02205150  1
  Te  Te0_5  1  0.83337650  0.16668500  0.52205150  1
  Te  Te0_6  1  0.83337650  0.66668500  0.02205150  1
  Te  Te0_7  1  0.83337650  0.66668500  0.52205150  1
  Te  Te1_0  1  0.33323650  0.16659700  0.07178650  1
  Te  Te1_1  1  0.33323650  0.16659700  0.57178650  1
  Te  Te1_2  1  0.33323650  0.66659700  0.07178650  1
  Te  Te1_3  1  0.33323650  0.66659700  0.57178650  1
  Te  Te1_4  1  0.83323650  0.16659700  0.07178650  1
  Te  Te1_5  1  0.83323650  0.16659700  0.57178650  1
  Te  Te1_6  1  0.83323650  0.66659700  0.07178650  1
  Te  Te1_7  1  0.83323650  0.66659700  0.57178650  1
  Mo  Mo0_0  1  0.16663350  0.33330350  0.04690450  1
  Mo  Mo0_1  1  0.16663350  0.33330350  0.54690450  1
  Mo  Mo0_2  1  0.16663350  0.83330350  0.04690450  1
  Mo  Mo0_3  1  0.16663350  0.83330350  0.54690450  1
  Mo  Mo0_4  1  0.66663350  0.33330350  0.04690450  1
  Mo  Mo0_5  1  0.66663350  0.33330350  0.54690450  1
  Mo  Mo0_6  1  0.66663350  0.83330350  0.04690450  1
  Mo  Mo0_7  1  0.66663350  0.83330350  0.54690450  1
  W  W0_0  1  0.16673900  0.33334350  0.23482550  1
  W  W0_1  1  0.16673900  0.33334350  0.73482550  1
  W  W0_2  1  0.16673900  0.83334350  0.23482550  1
  W  W0_3  1  0.16673900  0.83334350  0.73482550  1
  W  W0_4  1  0.66673900  0.33334350  0.23482550  1
  W  W0_5  1  0.66673900  0.33334350  0.73482550  1
  W  W0_6  1  0.66673900  0.83334350  0.23482550  1
  W  W0_7  1  0.66673900  0.83334350  0.73482550  1
  W  W1_0  1  0.33331500  0.16668050  0.14095150  1
  W  W1_1  1  0.33331500  0.16668050  0.64095150  1
  W  W1_2  1  0.33331500  0.66668050  0.14095150  1
  W  W1_3  1  0.33331500  0.66668050  0.64095150  1
  W  W1_4  1  0.83331500  0.16668050  0.14095150  1
  W  W1_5  1  0.83331500  0.16668050  0.64095150  1
  W  W1_6  1  0.83331500  0.66668050  0.14095150  1
  W  W1_7  1  0.83331500  0.66668050  0.64095150  1
  W  W2_0  1  0.33331850  0.16667450  0.32878550  1
  W  W2_1  1  0.33331850  0.16667450  0.82878550  1
  W  W2_2  1  0.33331850  0.66667450  0.32878550  1
  W  W2_3  1  0.33331850  0.66667450  0.82878550  1
  W  W2_4  1  0.83331850  0.16667450  0.32878550  1
  W  W2_5  1  0.83331850  0.16667450  0.82878550  1
  W  W2_6  1  0.83331850  0.66667450  0.32878550  1
  W  W2_7  1  0.83331850  0.66667450  0.82878550  1
  Se  Se0_0  1  0.16656400  0.33329600  0.16291400  1
  Se  Se0_1  1  0.16656400  0.33329600  0.66291400  1
  Se  Se0_2  1  0.16656400  0.83329600  0.16291400  1
  Se  Se0_3  1  0.16656400  0.83329600  0.66291400  1
  Se  Se0_4  1  0.66656400  0.33329600  0.16291400  1
  Se  Se0_5  1  0.66656400  0.33329600  0.66291400  1
  Se  Se0_6  1  0.66656400  0.83329600  0.16291400  1
  Se  Se0_7  1  0.66656400  0.83329600  0.66291400  1
  Se  Se1_0  1  0.16657250  0.33329000  0.35075400  1
  Se  Se1_1  1  0.16657250  0.33329000  0.85075400  1
  Se  Se1_2  1  0.16657250  0.83329000  0.35075400  1
  Se  Se1_3  1  0.16657250  0.83329000  0.85075400  1
  Se  Se1_4  1  0.66657250  0.33329000  0.35075400  1
  Se  Se1_5  1  0.66657250  0.33329000  0.85075400  1
  Se  Se1_6  1  0.66657250  0.83329000  0.35075400  1
  Se  Se1_7  1  0.66657250  0.83329000  0.85075400  1
  Se  Se2_0  1  0.16673500  0.33339800  0.11896600  1
  Se  Se2_1  1  0.16673500  0.33339800  0.61896600  1
  Se  Se2_2  1  0.16673500  0.83339800  0.11896600  1
  Se  Se2_3  1  0.16673500  0.83339800  0.61896600  1
  Se  Se2_4  1  0.66673500  0.33339800  0.11896600  1
  Se  Se2_5  1  0.66673500  0.33339800  0.61896600  1
  Se  Se2_6  1  0.66673500  0.83339800  0.11896600  1
  Se  Se2_7  1  0.66673500  0.83339800  0.61896600  1
  Se  Se3_0  1  0.16673000  0.33339100  0.30679300  1
  Se  Se3_1  1  0.16673000  0.33339100  0.80679300  1
  Se  Se3_2  1  0.16673000  0.83339100  0.30679300  1
  Se  Se3_3  1  0.16673000  0.83339100  0.80679300  1
  Se  Se3_4  1  0.66673000  0.33339100  0.30679300  1
  Se  Se3_5  1  0.66673000  0.33339100  0.80679300  1
  Se  Se3_6  1  0.66673000  0.83339100  0.30679300  1
  Se  Se3_7  1  0.66673000  0.83339100  0.80679300  1
  S  S0_0  1  0.33366900  0.16683850  0.21484500  1
  S  S0_1  1  0.33366900  0.16683850  0.71484500  1
  S  S0_2  1  0.33366900  0.66683850  0.21484500  1
  S  S0_3  1  0.33366900  0.66683850  0.71484500  1
  S  S0_4  1  0.83366900  0.16683850  0.21484500  1
  S  S0_5  1  0.83366900  0.16683850  0.71484500  1
  S  S0_6  1  0.83366900  0.66683850  0.21484500  1
  S  S0_7  1  0.83366900  0.66683850  0.71484500  1
  S  S1_0  1  0.33313950  0.16651250  0.25479700  1
  S  S1_1  1  0.33313950  0.16651250  0.75479700  1
  S  S1_2  1  0.33313950  0.66651250  0.25479700  1
  S  S1_3  1  0.33313950  0.66651250  0.75479700  1
  S  S1_4  1  0.83313950  0.16651250  0.25479700  1
  S  S1_5  1  0.83313950  0.16651250  0.75479700  1
  S  S1_6  1  0.83313950  0.66651250  0.25479700  1
  S  S1_7  1  0.83313950  0.66651250  0.75479700  1
loop_
_geom_bond_atom_site_label_1
_geom_bond_atom_site_label_2
_geom_bond_distance
_geom_bond_site_symmetry_2
Mg0_0 Mg0_2 3.333415 1_555
Mg0_0 Mg0_2 3.333415 1_545
Mg0_0 Mg0_6 3.333429 1_445
Mg0_0 Mg0_6 3.333429 1_555
Mg0_0 Mg0_4 3.333433 1_455
Mg0_0 Mg0_4 3.333433 1_555
Mg0_1 Mg0_3 3.333415 1_555
Mg0_1 Mg0_3 3.333415 1_545
Mg0_1 Mg0_7 3.333429 1_555
Mg0_1 Mg0_7 3.333429 1_445
Mg0_1 Mg0_5 3.333433 1_555
Mg0_1 Mg0_5 3.333433 1_455
Mg0_2 Mg0_4 3.333429 1_455
Mg0_2 Mg0_4 3.333429 1_565
Mg0_2 Mg0_6 3.333433 1_455
Mg0_2 Mg0_6 3.333433 1_555
Mg0_3 Mg0_5 3.333429 1_565
Mg0_3 Mg0_5 3.333429 1_455
Mg0_3 Mg0_7 3.333433 1_555
Mg0_3 Mg0_7 3.333433 1_455
Mg0_4 Mg0_6 3.333415 1_555
Mg0_4 Mg0_6 3.333415 1_545
Mg0_5 Mg0_7 3.333415 1_555
Mg0_5 Mg0_7 3.333415 1_545
Mo0_0 Te0_2 2.702505 1_555
Mo0_0 Te0_0 2.702550 1_555
Mo0_0 Te0_4 2.702854 1_455
Mo0_0 Te1_4 2.703930 1_455
Mo0_0 Te1_0 2.704293 1_555
Mo0_0 Te1_2 2.704351 1_555
Mo0_1 Te0_3 2.702505 1_555
Mo0_1 Te0_1 2.702550 1_555
Mo0_1 Te0_5 2.702854 1_455
Mo0_1 Te1_5 2.703930 1_455
Mo0_1 Te1_1 2.704293 1_555
Mo0_1 Te1_3 2.704351 1_555
Mo0_2 Te0_0 2.702505 1_565
Mo0_2 Te0_2 2.702550 1_555
Mo0_2 Te0_6 2.702854 1_455
Mo0_2 Te1_6 2.703930 1_455
Mo0_2 Te1_2 2.704293 1_555
Mo0_2 Te1_0 2.704351 1_565
Mo0_3 Te0_1 2.702505 1_565
Mo0_3 Te0_3 2.702550 1_555
Mo0_3 Te0_7 2.702854 1_455
Mo0_3 Te1_7 2.703930 1_455
Mo0_3 Te1_3 2.704293 1_555
Mo0_3 Te1_1 2.704351 1_565
Mo0_4 Te0_6 2.702505 1_555
Mo0_4 Te0_4 2.702550 1_555
Mo0_4 Te0_0 2.702854 1_555
Mo0_4 Te1_0 2.703930 1_555
Mo0_4 Te1_4 2.704293 1_555
Mo0_4 Te1_6 2.704351 1_555
Mo0_5 Te0_7 2.702505 1_555
Mo0_5 Te0_5 2.702550 1_555
Mo0_5 Te0_1 2.702854 1_555
Mo0_5 Te1_1 2.703930 1_555
Mo0_5 Te1_5 2.704293 1_555
Mo0_5 Te1_7 2.704351 1_555
Mo0_6 Te0_4 2.702505 1_565
Mo0_6 Te0_6 2.702550 1_555
Mo0_6 Te0_2 2.702854 1_555
Mo0_6 Te1_2 2.703930 1_555
Mo0_6 Te1_6 2.704293 1_555
Mo0_6 Te1_4 2.704351 1_565
Mo0_7 Te0_5 2.702505 1_565
Mo0_7 Te0_7 2.702550 1_555
Mo0_7 Te0_3 2.702854 1_555
Mo0_7 Te1_3 2.703930 1_555
Mo0_7 Te1_7 2.704293 1_555
Mo0_7 Te1_5 2.704351 1_565
Se0_0 W1_2 2.552458 1_555
Se0_0 W1_0 2.552499 1_555
Se0_0 W1_4 2.552674 1_455
Se0_1 W1_3 2.552458 1_555
Se0_1 W1_1 2.552499 1_555
Se0_1 W1_5 2.552674 1_455
Se0_2 W1_0 2.552458 1_565
Se0_2 W1_2 2.552499 1_555
Se0_2 W1_6 2.552674 1_455
Se0_3 W1_1 2.552458 1_565
Se0_3 W1_3 2.552499 1_555
Se0_3 W1_7 2.552674 1_455
Se0_4 W1_6 2.552458 1_555
Se0_4 W1_4 2.552499 1_555
Se0_4 W1_0 2.552674 1_555
Se0_5 W1_7 2.552458 1_555
Se0_5 W1_5 2.552499 1_555
Se0_5 W1_1 2.552674 1_555
Se0_6 W1_4 2.552458 1_565
Se0_6 W1_6 2.552499 1_555
Se0_6 W1_2 2.552674 1_555
Se0_7 W1_5 2.552458 1_565
Se0_7 W1_7 2.552499 1_555
Se0_7 W1_3 2.552674 1_555
Se1_0 W2_2 2.552759 1_555
Se1_0 W2_0 2.552778 1_555
Se1_0 W2_4 2.552997 1_455
Se1_1 W2_3 2.552759 1_555
Se1_1 W2_1 2.552778 1_555
Se1_1 W2_5 2.552997 1_455
Se1_2 W2_0 2.552759 1_565
Se1_2 W2_2 2.552778 1_555
Se1_2 W2_6 2.552997 1_455
Se1_3 W2_1 2.552759 1_565
Se1_3 W2_3 2.552778 1_555
Se1_3 W2_7 2.552997 1_455
Se1_4 W2_6 2.552759 1_555
Se1_4 W2_4 2.552778 1_555
Se1_4 W2_0 2.552997 1_555
Se1_5 W2_7 2.552759 1_555
Se1_5 W2_5 2.552778 1_555
Se1_5 W2_1 2.552997 1_555
Se1_6 W2_4 2.552759 1_565
Se1_6 W2_6 2.552778 1_555
Se1_6 W2_2 2.552997 1_555
Se1_7 W2_5 2.552759 1_565
Se1_7 W2_7 2.552778 1_555
Se1_7 W2_3 2.552997 1_555
Se2_0 W1_4 2.553586 1_455
Se2_0 W1_0 2.553728 1_555
Se2_0 W1_2 2.553779 1_555
Se2_1 W1_5 2.553586 1_455
Se2_1 W1_1 2.553728 1_555
Se2_1 W1_3 2.553779 1_555
Se2_2 W1_6 2.553586 1_455
Se2_2 W1_2 2.553728 1_555
Se2_2 W1_0 2.553779 1_565
Se2_3 W1_7 2.553586 1_455
Se2_3 W1_3 2.553728 1_555
Se2_3 W1_1 2.553779 1_565
Se2_4 W1_0 2.553586 1_555
Se2_4 W1_4 2.553728 1_555
Se2_4 W1_6 2.553779 1_555
Se2_5 W1_1 2.553586 1_555
Se2_5 W1_5 2.553728 1_555
Se2_5 W1_7 2.553779 1_555
Se2_6 W1_2 2.553586 1_555
Se2_6 W1_6 2.553728 1_555
Se2_6 W1_4 2.553779 1_565
Se2_7 W1_3 2.553586 1_555
Se2_7 W1_7 2.553728 1_555
Se2_7 W1_5 2.553779 1_565
Se3_0 W2_4 2.553900 1_455
Se3_0 W2_0 2.554112 1_555
Se3_0 W2_2 2.554134 1_555
Se3_1 W2_5 2.553900 1_455
Se3_1 W2_1 2.554112 1_555
Se3_1 W2_3 2.554134 1_555
Se3_2 W2_6 2.553900 1_455
Se3_2 W2_2 2.554112 1_555
Se3_2 W2_0 2.554134 1_565
Se3_3 W2_7 2.553900 1_455
Se3_3 W2_3 2.554112 1_555
Se3_3 W2_1 2.554134 1_565
Se3_4 W2_0 2.553900 1_555
Se3_4 W2_4 2.554112 1_555
Se3_4 W2_6 2.554134 1_555
Se3_5 W2_1 2.553900 1_555
Se3_5 W2_5 2.554112 1_555
Se3_5 W2_7 2.554134 1_555
Se3_6 W2_2 2.553900 1_555
Se3_6 W2_6 2.554112 1_555
Se3_6 W2_4 2.554134 1_565
Se3_7 W2_3 2.553900 1_555
Se3_7 W2_7 2.554112 1_555
Se3_7 W2_5 2.554134 1_565
S0_0 W0_4 2.455072 1_555
S0_0 W0_0 2.456074 1_555
S0_0 W0_2 2.456232 1_545
S0_1 W0_5 2.455072 1_555
S0_1 W0_1 2.456074 1_555
S0_1 W0_3 2.456232 1_545
S0_2 W0_6 2.455072 1_555
S0_2 W0_2 2.456074 1_555
S0_2 W0_0 2.456232 1_555
S0_3 W0_7 2.455072 1_555
S0_3 W0_3 2.456074 1_555
S0_3 W0_1 2.456232 1_555
S0_4 W0_0 2.455072 1_655
S0_4 W0_4 2.456074 1_555
S0_4 W0_6 2.456232 1_545
S0_5 W0_1 2.455072 1_655
S0_5 W0_5 2.456074 1_555
S0_5 W0_7 2.456232 1_545
S0_6 W0_2 2.455072 1_655
S0_6 W0_6 2.456074 1_555
S0_6 W0_4 2.456232 1_555
S0_7 W0_3 2.455072 1_655
S0_7 W0_7 2.456074 1_555
S0_7 W0_5 2.456232 1_555
S1_0 W0_2 2.454908 1_545
S1_0 W0_0 2.455081 1_555
S1_0 W0_4 2.456109 1_555
S1_1 W0_3 2.454908 1_545
S1_1 W0_1 2.455081 1_555
S1_1 W0_5 2.456109 1_555
S1_2 W0_0 2.454908 1_555
S1_2 W0_2 2.455081 1_555
S1_2 W0_6 2.456109 1_555
S1_3 W0_1 2.454908 1_555
S1_3 W0_3 2.455081 1_555
S1_3 W0_7 2.456109 1_555
S1_4 W0_6 2.454908 1_545
S1_4 W0_4 2.455081 1_555
S1_4 W0_0 2.456109 1_655
S1_5 W0_7 2.454908 1_545
S1_5 W0_5 2.455081 1_555
S1_5 W0_1 2.456109 1_655
S1_6 W0_4 2.454908 1_555
S1_6 W0_6 2.455081 1_555
S1_6 W0_2 2.456109 1_655
S1_7 W0_5 2.454908 1_555
S1_7 W0_7 2.455081 1_555
S1_7 W0_3 2.456109 1_655
