# generated using pymatgen
data_Co5SbO8
_symmetry_space_group_name_H-M   'P 1'
_cell_length_a   5.84984482
_cell_length_b   5.87111716
_cell_length_c   10.50042228
_cell_angle_alpha   73.10605688
_cell_angle_beta   89.42546197
_cell_angle_gamma   60.04176488
_symmetry_Int_Tables_number   1
_chemical_formula_structural   Co5SbO8
_chemical_formula_sum   'Co10 Sb2 O16'
_cell_volume   294.97299080
_cell_formula_units_Z   2
loop_
 _symmetry_equiv_pos_site_id
 _symmetry_equiv_pos_as_xyz
  1  'x, y, z'
loop_
 _atom_site_type_symbol
 _atom_site_label
 _atom_site_symmetry_multiplicity
 _atom_site_fract_x
 _atom_site_fract_y
 _atom_site_fract_z
 _atom_site_occupancy
  Co  Co0  1  0.24992666  0.50006353  0.75001312  1
  Co  Co1  1  0.75005735  -0.00004799  0.25000514  1
  Co  Co2  1  0.24985054  0.00011927  0.75004152  1
  Co  Co3  1  0.25001157  0.50000857  0.24999039  1
  Co  Co4  1  0.74998167  0.49997022  0.74999642  1
  Co  Co5  1  0.18087268  0.13238654  0.04938682  1
  Co  Co6  1  0.68260149  0.13908516  0.54398646  1
  Co  Co7  1  0.31929095  0.86747380  0.45063960  1
  Co  Co8  1  0.81739930  0.86085957  0.95603999  1
  Co  Co9  1  0.75003675  0.49997136  0.24999862  1
  Sb  Sb0  1  0.49850224  0.49579625  0.00208691  1
  Sb  Sb1  1  0.00153268  0.50413142  0.49788365  1
  O  O0  1  0.61584204  0.27000859  0.34515952  1
  O  O1  1  0.12534648  0.26420372  0.85630933  1
  O  O2  1  0.88424243  0.73000176  0.15484704  1
  O  O3  1  0.37450176  0.73603063  0.64370067  1
  O  O4  1  0.39141576  0.25235606  0.13966973  1
  O  O5  1  0.88234738  0.27019174  0.61493708  1
  O  O6  1  0.84886685  0.24639829  0.13038550  1
  O  O7  1  0.35094309  0.27362831  0.61686100  1
  O  O8  1  0.37629665  0.71819136  0.12945423  1
  O  O9  1  0.88623187  0.73628588  0.61520060  1
  O  O10  1  0.65115324  0.75353741  0.36961724  1
  O  O11  1  0.14904938  0.72638568  0.88315648  1
  O  O12  1  0.12380688  0.28168907  0.37053333  1
  O  O13  1  0.61367844  0.26376513  0.88473415  1
  O  O14  1  0.10868492  0.74761013  0.36031637  1
  O  O15  1  0.61753194  0.72990153  0.88504809  1
loop_
_geom_bond_atom_site_label_1
_geom_bond_atom_site_label_2
_geom_bond_distance
_geom_bond_site_symmetry_2
Co0 O1 1.946216 1_555
Co0 O3 1.946718 1_555
Co0 O11 2.085292 1_555
Co0 O7 2.085795 1_555
Co0 O13 2.103603 1_555
Co0 O9 2.103863 1_455
Co1 O6 1.941597 1_555
Co1 O10 1.941799 1_545
Co1 O2 1.946450 1_545
Co1 O0 1.946895 1_555
Co1 O14 1.971045 1_645
Co1 O4 1.971217 1_555
Co2 O1 2.010217 1_555
Co2 O3 2.010806 1_545
Co2 O5 2.120809 1_455
Co2 O15 2.121050 1_545
Co2 O11 2.123357 1_545
Co2 O7 2.123835 1_555
Co3 O8 1.942334 1_555
Co3 O2 1.942403 1_455
Co3 O12 1.942566 1_555
Co3 O0 1.942763 1_555
Co3 O14 1.974348 1_555
Co3 O4 1.974532 1_555
Co4 O1 2.024673 1_655
Co4 O3 2.025081 1_555
Co4 O5 2.115990 1_555
Co4 O15 2.116524 1_555
Co4 O13 2.121797 1_555
Co4 O9 2.122290 1_555
Co5 O1 1.914419 1_554
Co5 O6 1.985667 1_455
Co5 O8 1.995455 1_545
Co5 O4 2.046878 1_555
Co6 O9 1.935812 1_545
Co6 O5 1.939574 1_555
Co6 O7 1.940262 1_555
Co6 O0 1.971285 1_555
Co7 O3 1.914271 1_555
Co7 O10 1.985131 1_555
Co7 O12 1.995570 1_565
Co7 O14 2.046921 1_555
Co8 O13 1.936354 1_565
Co8 O15 1.939660 1_555
Co8 O11 1.940262 1_655
Co8 O2 1.971100 1_556
Co9 O0 1.922577 1_555
Co9 O2 1.922895 1_555
Co9 O8 2.083034 1_555
Co9 O12 2.083089 1_655
Co9 O10 2.083431 1_555
Co9 O6 2.083442 1_555
O4 Sb0 2.048977 1_555
O5 Sb1 1.959935 1_655
O6 Sb0 2.017745 1_555
O7 Sb1 1.968769 1_555
O8 Sb0 2.016955 1_555
O9 Sb1 1.967557 1_655
O10 Sb1 2.017646 1_655
O11 Sb0 1.968717 1_556
O12 Sb1 2.016998 1_555
O13 Sb0 1.967364 1_556
O14 Sb1 2.049290 1_555
O15 Sb0 1.959911 1_556
