# generated using pymatgen
data_MgMn5Cr2O12
_symmetry_space_group_name_H-M   'P 1'
_cell_length_a   5.24869885
_cell_length_b   5.20037312
_cell_length_c   9.86239708
_cell_angle_alpha   84.68438294
_cell_angle_beta   97.22985588
_cell_angle_gamma   59.75202887
_symmetry_Int_Tables_number   1
_chemical_formula_structural   MgMn5Cr2O12
_chemical_formula_sum   'Mg1 Mn5 Cr2 O12'
_cell_volume   226.84066153
_cell_formula_units_Z   1
loop_
 _symmetry_equiv_pos_site_id
 _symmetry_equiv_pos_as_xyz
  1  'x, y, z'
loop_
 _atom_site_type_symbol
 _atom_site_label
 _atom_site_symmetry_multiplicity
 _atom_site_fract_x
 _atom_site_fract_y
 _atom_site_fract_z
 _atom_site_occupancy
  Mg  Mg0  1  0.67329900  0.16782100  0.98937900  1
  Mn  Mn0  1  0.08673600  0.06416600  0.26135600  1
  Mn  Mn1  1  0.99765400  0.53314300  0.98337500  1
  Mn  Mn2  1  0.55765400  0.99648400  0.52247900  1
  Mn  Mn3  1  0.42795300  0.41163500  0.25221300  1
  Mn  Mn4  1  0.56145800  0.59076200  0.74382600  1
  Cr  Cr0  1  0.23401000  0.26546400  0.74244100  1
  Cr  Cr1  1  0.75366600  0.73441100  0.25430100  1
  O  O0  1  0.93362800  0.27208000  0.87529400  1
  O  O1  1  0.27451700  0.96528200  0.62364100  1
  O  O2  1  0.15954900  0.34797800  0.35650100  1
  O  O3  1  0.37896500  0.16293100  0.12643500  1
  O  O4  1  0.31045600  0.51690300  0.86192300  1
  O  O5  1  0.50221100  0.31944600  0.64326400  1
  O  O6  1  0.45779900  0.71035400  0.35053000  1
  O  O7  1  0.73095600  0.42185600  0.14744100  1
  O  O8  1  0.61338400  0.86396400  0.87720400  1
  O  O9  1  0.83518800  0.59755300  0.63437100  1
  O  O10  1  0.78645900  0.00042300  0.37424400  1
  O  O11  1  0.00303800  0.79842200  0.12977900  1
loop_
_geom_bond_atom_site_label_1
_geom_bond_atom_site_label_2
_geom_bond_distance
_geom_bond_site_symmetry_2
Mg0 O4 1.998514 1_555
Mg0 O11 2.038951 1_646
Mg0 O0 2.108854 1_555
Mg0 O8 2.134654 1_545
Mg0 O3 2.184761 1_556
Mg0 O7 2.220927 1_556
Mn0 O6 1.900202 1_545
Mn0 O7 1.947957 1_455
Mn0 O2 1.984834 1_555
Mn0 O11 2.141775 1_545
Mn0 O10 2.175554 1_455
Mn0 O3 2.359619 1_555
Mn1 O0 1.931300 1_555
Mn1 O8 1.939823 1_555
Mn1 O11 2.094484 1_656
Mn1 O4 2.124012 1_655
Mn1 O3 2.146331 1_656
Mn1 O7 2.474955 1_556
Mn2 O9 1.941697 1_555
Mn2 O1 1.953553 1_555
Mn2 O10 2.010249 1_565
Mn2 O5 2.071244 1_565
Mn2 O2 2.263529 1_565
Mn2 O6 2.528666 1_555
Mn3 O3 1.956955 1_555
Mn3 O6 1.965702 1_555
Mn3 O2 1.980800 1_555
Mn3 O7 2.021989 1_555
Mn3 O10 2.112178 1_555
Mn3 O11 2.197838 1_555
Mn4 O1 1.906361 1_555
Mn4 O9 1.914458 1_555
Mn4 O5 1.922185 1_555
Mn4 O0 1.986527 1_555
Mn4 O4 2.013174 1_555
Mn4 O8 2.114077 1_555
Cr0 O5 1.926396 1_555
Cr0 O1 1.980425 1_545
Cr0 O4 1.988566 1_555
Cr0 O9 1.988866 1_455
Cr0 O0 2.162708 1_455
Cr0 O8 2.173009 1_545
Cr1 O10 1.958180 1_565
Cr1 O6 1.967888 1_555
Cr1 O11 2.024839 1_655
Cr1 O7 2.061021 1_555
Cr1 O2 2.088985 1_655
Cr1 O3 2.205393 1_565
