# generated using pymatgen
data_Bi
_symmetry_space_group_name_H-M   'P 1'
_cell_length_a   9.37728339
_cell_length_b   9.37728339
_cell_length_c   6.71785259
_cell_angle_alpha   73.78985539
_cell_angle_beta   73.78985539
_cell_angle_gamma   83.84435068
_symmetry_Int_Tables_number   1
_chemical_formula_structural   Bi
_chemical_formula_sum   Bi16
_cell_volume   544.41320174
_cell_formula_units_Z   16
loop_
 _symmetry_equiv_pos_site_id
 _symmetry_equiv_pos_as_xyz
  1  'x, y, z'
loop_
 _atom_site_type_symbol
 _atom_site_label
 _atom_site_symmetry_multiplicity
 _atom_site_fract_x
 _atom_site_fract_y
 _atom_site_fract_z
 _atom_site_occupancy
  Bi  Bi0_0  1  0.37653050  0.37653050  0.07130900  1
  Bi  Bi0_1  1  0.37653050  0.37653050  0.57130900  1
  Bi  Bi0_2  1  0.37653050  0.87653050  0.07130900  1
  Bi  Bi0_3  1  0.37653050  0.87653050  0.57130900  1
  Bi  Bi0_4  1  0.87653050  0.37653050  0.07130900  1
  Bi  Bi0_5  1  0.87653050  0.37653050  0.57130900  1
  Bi  Bi0_6  1  0.87653050  0.87653050  0.07130900  1
  Bi  Bi0_7  1  0.87653050  0.87653050  0.57130900  1
  Bi  Bi1_0  1  0.12346950  0.12346950  0.42869100  1
  Bi  Bi1_1  1  0.12346950  0.12346950  0.92869100  1
  Bi  Bi1_2  1  0.12346950  0.62346950  0.42869100  1
  Bi  Bi1_3  1  0.12346950  0.62346950  0.92869100  1
  Bi  Bi1_4  1  0.62346950  0.12346950  0.42869100  1
  Bi  Bi1_5  1  0.62346950  0.12346950  0.92869100  1
  Bi  Bi1_6  1  0.62346950  0.62346950  0.42869100  1
  Bi  Bi1_7  1  0.62346950  0.62346950  0.92869100  1
loop_
_geom_bond_atom_site_label_1
_geom_bond_atom_site_label_2
_geom_bond_distance
_geom_bond_site_symmetry_2
Bi0_0 Bi1_7 3.211651 1_554
Bi0_0 Bi1_5 3.280779 1_554
Bi0_0 Bi1_3 3.280779 1_554
Bi0_0 Bi0_1 3.358926 1_555
Bi0_0 Bi0_1 3.358926 1_554
Bi0_0 Bi1_0 3.445634 1_555
Bi0_1 Bi1_6 3.211651 1_555
Bi0_1 Bi1_4 3.280779 1_555
Bi0_1 Bi1_2 3.280779 1_555
Bi0_1 Bi1_1 3.445634 1_555
Bi0_2 Bi1_5 3.211651 1_564
Bi0_2 Bi1_7 3.280779 1_554
Bi0_2 Bi1_1 3.280779 1_564
Bi0_2 Bi0_3 3.358926 1_554
Bi0_2 Bi0_3 3.358926 1_555
Bi0_2 Bi1_2 3.445634 1_555
Bi0_3 Bi1_4 3.211651 1_565
Bi0_3 Bi1_6 3.280779 1_555
Bi0_3 Bi1_0 3.280779 1_565
Bi0_3 Bi1_3 3.445634 1_555
Bi0_4 Bi1_3 3.211651 1_654
Bi0_4 Bi1_7 3.280779 1_554
Bi0_4 Bi1_1 3.280779 1_654
Bi0_4 Bi0_5 3.358926 1_554
Bi0_4 Bi0_5 3.358926 1_555
Bi0_4 Bi1_4 3.445634 1_555
Bi0_5 Bi1_2 3.211651 1_655
Bi0_5 Bi1_6 3.280779 1_555
Bi0_5 Bi1_0 3.280779 1_655
Bi0_5 Bi1_5 3.445634 1_555
Bi0_6 Bi1_1 3.211651 1_664
Bi0_6 Bi1_5 3.280779 1_564
Bi0_6 Bi1_3 3.280779 1_654
Bi0_6 Bi0_7 3.358926 1_554
Bi0_6 Bi0_7 3.358926 1_555
Bi0_6 Bi1_6 3.445634 1_555
Bi0_7 Bi1_0 3.211651 1_665
Bi0_7 Bi1_2 3.280779 1_655
Bi0_7 Bi1_4 3.280779 1_565
Bi0_7 Bi1_7 3.445634 1_555
Bi1_0 Bi1_1 3.358926 1_554
Bi1_0 Bi1_1 3.358926 1_555
Bi1_2 Bi1_3 3.358926 1_554
Bi1_2 Bi1_3 3.358926 1_555
Bi1_4 Bi1_5 3.358926 1_555
Bi1_4 Bi1_5 3.358926 1_554
Bi1_6 Bi1_7 3.358926 1_554
Bi1_6 Bi1_7 3.358926 1_555
