# generated using pymatgen
data_MgZn2AgWO6
_symmetry_space_group_name_H-M   'P 1'
_cell_length_a   5.87325025
_cell_length_b   6.74039303
_cell_length_c   7.74368006
_cell_angle_alpha   88.59041675
_cell_angle_beta   130.18242226
_cell_angle_gamma   128.42679377
_symmetry_Int_Tables_number   1
_chemical_formula_structural   MgZn2AgWO6
_chemical_formula_sum   'Mg1 Zn2 Ag1 W1 O6'
_cell_volume   142.64989665
_cell_formula_units_Z   1
loop_
 _symmetry_equiv_pos_site_id
 _symmetry_equiv_pos_as_xyz
  1  'x, y, z'
loop_
 _atom_site_type_symbol
 _atom_site_label
 _atom_site_symmetry_multiplicity
 _atom_site_fract_x
 _atom_site_fract_y
 _atom_site_fract_z
 _atom_site_occupancy
  Mg  Mg0  1  0.89177100  0.67169200  0.70555800  1
  Zn  Zn0  1  0.97656200  0.48283400  0.17023000  1
  Zn  Zn1  1  0.93358700  0.27448800  0.72514900  1
  Ag  Ag0  1  0.88223100  0.04075000  0.40157300  1
  W  W0  1  0.97685500  0.98500000  0.01851900  1
  O  O0  1  0.39621800  0.18675300  0.42765000  1
  O  O1  1  0.64659100  0.83954800  0.60356700  1
  O  O2  1  0.17901600  0.38002600  0.08834300  1
  O  O3  1  0.37067900  0.72913200  0.83863100  1
  O  O4  1  0.49099000  0.14299700  0.11366200  1
  O  O5  1  0.72810600  0.56302100  0.89704100  1
loop_
_geom_bond_atom_site_label_1
_geom_bond_atom_site_label_2
_geom_bond_distance
_geom_bond_site_symmetry_2
Mg0 O3 2.012205 1_655
Mg0 O0 2.055322 1_555
Mg0 O1 2.119218 1_555
Mg0 O5 2.137714 1_555
Mg0 O4 2.170050 1_666
Ag0 O0 2.377514 1_655
Ag0 O4 2.451051 1_555
Ag0 O5 2.474350 1_655
Ag0 O1 2.560734 1_545
Ag0 O2 2.741415 1_545
O0 W0 1.982907 1_445
O0 Zn1 1.995570 1_555
O1 Zn0 2.030377 1_455
O1 Zn1 2.065826 1_565
O1 W0 2.190139 1_556
O2 Zn1 2.021399 1_454
O2 W0 2.025915 1_445
O2 Zn0 2.077258 1_455
O3 W0 1.917307 1_556
O3 Zn1 2.048410 1_455
O4 Zn0 1.972098 1_555
O4 W0 1.991370 1_445
O5 Zn0 1.958909 1_556
O5 W0 2.074180 1_556
