# generated using pymatgen
data_Li3Cr2(PO4)3
_symmetry_space_group_name_H-M   'P 1'
_cell_length_a   8.90643760
_cell_length_b   8.90643760
_cell_length_c   8.90643686
_cell_angle_alpha   56.13853591
_cell_angle_beta   56.13853591
_cell_angle_gamma   56.13853247
_symmetry_Int_Tables_number   1
_chemical_formula_structural   Li3Cr2(PO4)3
_chemical_formula_sum   'Li6 Cr4 P6 O24'
_cell_volume   454.90793557
_cell_formula_units_Z   2
loop_
 _symmetry_equiv_pos_site_id
 _symmetry_equiv_pos_as_xyz
  1  'x, y, z'
loop_
 _atom_site_type_symbol
 _atom_site_label
 _atom_site_symmetry_multiplicity
 _atom_site_fract_x
 _atom_site_fract_y
 _atom_site_fract_z
 _atom_site_occupancy
  Li  Li0  1  0.07958200  0.33237800  0.73566600  1
  Li  Li1  1  0.92041800  0.66762200  0.26433400  1
  Li  Li2  1  0.66762200  0.26433400  0.92041800  1
  Li  Li3  1  0.26433400  0.92041800  0.66762200  1
  Li  Li4  1  0.73566600  0.07958200  0.33237800  1
  Li  Li5  1  0.33237800  0.73566600  0.07958200  1
  Cr  Cr0  1  0.85544500  0.85544500  0.85544500  1
  Cr  Cr1  1  0.65117500  0.65117500  0.65117500  1
  Cr  Cr2  1  0.34882500  0.34882500  0.34882500  1
  Cr  Cr3  1  0.14455500  0.14455500  0.14455500  1
  P  P0  1  0.46244700  0.03929000  0.74976100  1
  P  P1  1  0.74976100  0.46244700  0.03929000  1
  P  P2  1  0.25023900  0.53755300  0.96071000  1
  P  P3  1  0.53755300  0.96071000  0.25023900  1
  P  P4  1  0.03929000  0.74976100  0.46244700  1
  P  P5  1  0.96071000  0.25023900  0.53755300  1
  O  O0  1  0.12060100  0.74536100  0.86908800  1
  O  O1  1  0.46286400  0.84179800  0.78822800  1
  O  O2  1  0.78822800  0.46286400  0.84179800  1
  O  O3  1  0.84179800  0.78822800  0.46286400  1
  O  O4  1  0.15820200  0.21177200  0.53713600  1
  O  O5  1  0.21177200  0.53713600  0.15820200  1
  O  O6  1  0.53713600  0.15820200  0.21177200  1
  O  O7  1  0.17005000  0.53348700  0.49309900  1
  O  O8  1  0.13091200  0.87939900  0.25463900  1
  O  O9  1  0.00371400  0.80437600  0.61556200  1
  O  O10  1  0.25463900  0.13091200  0.87939900  1
  O  O11  1  0.86908800  0.12060100  0.74536100  1
  O  O12  1  0.53348700  0.49309900  0.17005000  1
  O  O13  1  0.19562400  0.38443800  0.99628600  1
  O  O14  1  0.49309900  0.17005000  0.53348700  1
  O  O15  1  0.38443800  0.99628600  0.19562400  1
  O  O16  1  0.61556200  0.00371400  0.80437600  1
  O  O17  1  0.87939900  0.25463900  0.13091200  1
  O  O18  1  0.80437600  0.61556200  0.00371400  1
  O  O19  1  0.46651300  0.50690100  0.82995000  1
  O  O20  1  0.50690100  0.82995000  0.46651300  1
  O  O21  1  0.74536100  0.86908800  0.12060100  1
  O  O22  1  0.99628600  0.19562400  0.38443800  1
  O  O23  1  0.82995000  0.46651300  0.50690100  1
loop_
_geom_bond_atom_site_label_1
_geom_bond_atom_site_label_2
_geom_bond_distance
_geom_bond_site_symmetry_2
Li0 O10 1.958625 1_555
Li0 O7 1.970047 1_555
Li0 O2 2.026796 1_455
Li0 O4 2.160860 1_555
Li1 O21 1.958625 1_555
Li1 O23 1.970047 1_555
Li1 O5 2.026796 1_655
Li1 O3 2.160860 1_555
Li2 O11 1.958625 1_555
Li2 O19 1.970047 1_555
Li2 O6 2.026796 1_556
Li2 O2 2.160860 1_555
Li3 O0 1.958625 1_555
Li3 O20 1.970047 1_555
Li3 O4 2.026796 1_565
Li3 O1 2.160860 1_555
Li4 O17 1.958625 1_555
Li4 O14 1.970047 1_555
Li4 O3 2.026796 1_545
Li4 O6 2.160860 1_555
Li5 O8 1.958625 1_555
Li5 O12 1.970047 1_555
Li5 O1 2.026796 1_554
Li5 O5 2.160860 1_555
Cr0 O9 1.945484 1_655
Cr0 O16 1.945484 1_565
Cr0 O18 1.945485 1_556
Cr0 O21 2.039594 1_556
Cr0 O0 2.039594 1_655
Cr0 O11 2.039594 1_565
Cr1 O2 2.010031 1_555
Cr1 O1 2.010031 1_555
Cr1 O3 2.010031 1_555
Cr1 O20 2.012013 1_555
Cr1 O23 2.012013 1_555
Cr1 O19 2.012013 1_555
Cr2 O5 2.010031 1_555
Cr2 O6 2.010031 1_555
Cr2 O4 2.010031 1_555
Cr2 O14 2.012013 1_555
Cr2 O7 2.012013 1_555
Cr2 O12 2.012013 1_555
Cr3 O22 1.945484 1_455
Cr3 O15 1.945484 1_545
Cr3 O13 1.945485 1_554
Cr3 O10 2.039594 1_554
Cr3 O17 2.039594 1_455
Cr3 O8 2.039594 1_545
O0 P2 1.552444 1_555
O1 P0 1.591819 1_565
O2 P1 1.591819 1_556
O3 P4 1.591819 1_655
O4 P5 1.591819 1_455
O5 P2 1.591819 1_554
O6 P3 1.591819 1_545
O7 P4 1.552296 1_555
O8 P4 1.552444 1_555
O9 P4 1.510843 1_555
O10 P0 1.552444 1_555
O11 P5 1.552444 1_555
O12 P1 1.552296 1_555
O13 P2 1.510843 1_555
O14 P0 1.552296 1_555
O15 P3 1.510843 1_555
O16 P0 1.510843 1_555
O17 P1 1.552444 1_555
O18 P1 1.510843 1_555
O19 P2 1.552296 1_555
O20 P3 1.552296 1_555
O21 P3 1.552444 1_555
O22 P5 1.510843 1_555
O23 P5 1.552296 1_555
