# generated using pymatgen
data_In3Cu7
_symmetry_space_group_name_H-M   'P 1'
_cell_length_a   6.66278771
_cell_length_b   9.06761813
_cell_length_c   10.03147481
_cell_angle_alpha   106.58511538
_cell_angle_beta   96.98496817
_cell_angle_gamma   90.00314591
_symmetry_Int_Tables_number   1
_chemical_formula_structural   In3Cu7
_chemical_formula_sum   'In12 Cu28'
_cell_volume   576.14761308
_cell_formula_units_Z   4
loop_
 _symmetry_equiv_pos_site_id
 _symmetry_equiv_pos_as_xyz
  1  'x, y, z'
loop_
 _atom_site_type_symbol
 _atom_site_label
 _atom_site_symmetry_multiplicity
 _atom_site_fract_x
 _atom_site_fract_y
 _atom_site_fract_z
 _atom_site_occupancy
  In  In0  1  0.20807611  0.47137241  0.94333166  1
  In  In1  1  0.79192389  0.52862759  0.05666834  1
  In  In2  1  0.38133777  0.00670721  0.63456084  1
  In  In3  1  0.61866223  0.99329279  0.36543916  1
  In  In4  1  0.07846533  0.71834166  0.51656629  1
  In  In5  1  0.92153467  0.28165834  0.48343371  1
  In  In6  1  0.85793772  0.73520596  0.81798857  1
  In  In7  1  0.14206228  0.26479404  0.18201143  1
  In  In8  1  0.67482764  0.16329664  0.10401742  1
  In  In9  1  0.32517236  0.83670336  0.89598258  1
  In  In10  1  0.47967424  0.36222138  0.62100266  1
  In  In11  1  0.52032576  0.63777862  0.37899734  1
  Cu  Cu0  1  -0.00000000  0.00000000  0.00000000  1
  Cu  Cu1  1  -0.00000000  0.00000000  0.50000000  1
  Cu  Cu2  1  0.69842290  0.85422427  0.06383341  1
  Cu  Cu3  1  0.30157710  0.14577573  0.93616659  1
  Cu  Cu4  1  0.15519396  0.54047849  0.69628068  1
  Cu  Cu5  1  0.84480604  0.45952151  0.30371932  1
  Cu  Cu6  1  0.84600563  0.42717234  0.77302081  1
  Cu  Cu7  1  0.15399437  0.57282766  0.22697919  1
  Cu  Cu8  1  0.56048941  0.29214083  0.86692962  1
  Cu  Cu9  1  0.43951059  0.70785917  0.13307038  1
  Cu  Cu10  1  0.72770728  0.85042966  0.58467862  1
  Cu  Cu11  1  0.27229272  0.14957034  0.41532138  1
  Cu  Cu12  1  0.66345493  0.00070271  0.83914604  1
  Cu  Cu13  1  0.33654507  0.99929729  0.16085396  1
  Cu  Cu14  1  0.75793802  0.14203776  0.66517230  1
  Cu  Cu15  1  0.24206198  0.85796224  0.33482770  1
  Cu  Cu16  1  0.46023066  0.69088766  0.65331551  1
  Cu  Cu17  1  0.53976934  0.30911234  0.34668449  1
  Cu  Cu18  1  0.14244454  0.24038395  0.71355052  1
  Cu  Cu19  1  0.85755546  0.75961605  0.28644948  1
  Cu  Cu20  1  0.96900875  0.01661772  0.24939195  1
  Cu  Cu21  1  0.03099125  0.98338228  0.75060805  1
  Cu  Cu22  1  0.22738965  0.44965448  0.43504154  1
  Cu  Cu23  1  0.77261035  0.55034552  0.56495846  1
  Cu  Cu24  1  0.52866707  0.58549401  0.86374759  1
  Cu  Cu25  1  0.47133293  0.41450599  0.13625241  1
  Cu  Cu26  1  0.93102350  0.23413753  0.91318908  1
  Cu  Cu27  1  0.06897650  0.76586247  0.08681092  1
loop_
_geom_bond_atom_site_label_1
_geom_bond_atom_site_label_2
_geom_bond_distance
_geom_bond_site_symmetry_2
In0 In1 3.111290 1_456
Cu0 Cu20 2.496924 1_455
Cu0 Cu21 2.496924 1_544
Cu0 Cu26 2.536778 1_454
Cu0 Cu27 2.536778 1_545
Cu0 Cu12 2.599547 1_454
Cu0 Cu13 2.599547 1_545
Cu0 Cu3 2.643978 1_554
Cu0 Cu2 2.643978 1_445
Cu0 In6 2.659208 1_444
Cu0 In7 2.659208 1_555
Cu0 In9 2.764671 1_544
Cu0 In8 2.764671 1_455
Cu1 Cu15 2.537173 1_545
Cu1 Cu14 2.537173 1_455
Cu1 Cu20 2.544677 1_455
Cu1 Cu21 2.544677 1_545
Cu1 Cu11 2.623860 1_555
Cu1 Cu10 2.623860 1_445
Cu1 In4 2.654244 1_545
Cu1 In5 2.654244 1_455
Cu1 Cu18 2.660943 1_555
Cu1 Cu19 2.660943 1_445
Cu1 In2 2.720343 1_555
Cu1 In3 2.720343 1_445
Cu2 Cu9 2.457051 1_555
Cu2 Cu20 2.549949 1_565
Cu2 Cu27 2.599597 1_655
Cu2 In8 2.722503 1_565
Cu2 In6 2.737618 1_554
Cu2 In9 2.806030 1_554
Cu2 Cu24 2.810886 1_554
Cu2 In1 2.999967 1_555
Cu2 In3 3.039674 1_555
Cu3 Cu8 2.457051 1_555
Cu3 In9 2.722503 1_545
Cu3 In7 2.737618 1_556
Cu3 In8 2.806030 1_556
Cu3 In0 2.999967 1_555
Cu3 In2 3.039674 1_555
Cu4 Cu6 2.594038 1_455
Cu4 In0 2.707934 1_555
Cu4 In4 2.747424 1_555
Cu4 In10 2.749098 1_555
Cu4 In6 2.808698 1_455
Cu4 In5 2.970009 1_455
Cu4 In9 2.981057 1_555
Cu5 Cu7 2.594038 1_655
Cu5 In1 2.707934 1_555
Cu5 In5 2.747424 1_555
Cu5 In11 2.749098 1_555
Cu5 In7 2.808698 1_655
Cu5 In4 2.970009 1_655
Cu5 In8 2.981057 1_555
Cu6 Cu8 2.664508 1_555
Cu6 In10 2.685454 1_555
Cu6 In6 2.698769 1_555
Cu6 In0 2.739659 1_655
Cu6 In1 2.797772 1_556
Cu6 In5 2.932680 1_555
Cu7 Cu9 2.664508 1_555
Cu7 In11 2.685454 1_555
Cu7 In7 2.698769 1_555
Cu7 In1 2.739659 1_455
Cu7 In0 2.797772 1_554
Cu7 In4 2.932680 1_555
Cu8 In10 2.711421 1_555
Cu8 In1 2.748566 1_556
Cu8 In0 2.910170 1_555
Cu8 In8 2.957617 1_556
Cu8 In2 3.071795 1_555
Cu9 In11 2.711421 1_555
Cu9 In0 2.748566 1_554
Cu9 In1 2.910170 1_555
Cu9 In9 2.957617 1_554
Cu9 In3 3.071795 1_555
Cu10 Cu21 2.518609 1_655
Cu10 Cu14 2.534920 1_565
Cu10 Cu16 2.570940 1_555
Cu10 Cu12 2.614639 1_565
Cu10 In11 2.630499 1_555
Cu10 Cu23 2.690713 1_555
Cu10 In4 2.698996 1_655
Cu10 In2 2.731441 1_565
Cu10 In6 2.867810 1_555
Cu10 In3 2.877641 1_555
Cu10 Cu19 3.098374 1_555
Cu11 Cu20 2.518609 1_455
Cu11 Cu15 2.534920 1_545
Cu11 Cu17 2.570940 1_555
Cu11 Cu13 2.614639 1_545
Cu11 In10 2.630499 1_555
Cu11 Cu22 2.690713 1_555
Cu11 In5 2.698996 1_455
Cu11 In3 2.731441 1_545
Cu11 In7 2.867810 1_555
Cu11 In2 2.877641 1_555
Cu11 Cu18 3.098374 1_555
Cu12 Cu14 2.574578 1_555
Cu12 In2 2.621762 1_555
Cu12 In8 2.637044 1_556
Cu12 Cu26 2.643918 1_555
Cu12 Cu8 2.675473 1_555
Cu12 Cu21 2.694366 1_645
Cu12 In6 2.700993 1_545
Cu12 Cu3 2.886410 1_555
Cu12 In9 2.900482 1_545
Cu12 Cu2 2.912054 1_546
Cu12 Cu16 3.097835 1_545
Cu13 Cu15 2.574578 1_555
Cu13 In3 2.621762 1_555
Cu13 In9 2.637044 1_554
Cu13 Cu27 2.643918 1_555
Cu13 Cu9 2.675473 1_555
Cu13 Cu20 2.694366 1_465
Cu13 In7 2.700993 1_565
Cu13 Cu2 2.886410 1_555
Cu13 In8 2.900482 1_565
Cu13 Cu3 2.912054 1_564
Cu13 Cu17 3.097835 1_565
Cu14 Cu26 2.516603 1_555
Cu14 Cu21 2.537508 1_645
Cu14 Cu6 2.539313 1_555
Cu14 Cu8 2.598974 1_555
Cu14 Cu18 2.654113 1_655
Cu14 In2 2.737406 1_555
Cu14 In5 2.813446 1_555
Cu14 In10 2.815225 1_555
Cu14 In3 2.954152 1_545
Cu15 Cu27 2.516603 1_555
Cu15 Cu20 2.537508 1_465
Cu15 Cu7 2.539313 1_555
Cu15 Cu9 2.598974 1_555
Cu15 Cu19 2.654113 1_455
Cu15 In3 2.737406 1_555
Cu15 In4 2.813446 1_555
Cu15 In11 2.815225 1_555
Cu15 In2 2.954152 1_565
Cu16 Cu24 2.548512 1_555
Cu16 Cu23 2.558456 1_555
Cu16 Cu4 2.593224 1_555
Cu16 In9 2.679419 1_555
Cu16 In11 2.734264 1_555
Cu16 In4 2.785707 1_555
Cu16 Cu22 2.902599 1_555
Cu16 In10 2.909010 1_555
Cu16 In6 2.910021 1_555
Cu16 In2 2.965863 1_565
Cu17 Cu25 2.548512 1_555
Cu17 Cu22 2.558456 1_555
Cu17 Cu5 2.593224 1_555
Cu17 In8 2.679419 1_555
Cu17 In10 2.734264 1_555
Cu17 In5 2.785707 1_555
Cu17 Cu23 2.902599 1_555
Cu17 In11 2.909010 1_555
Cu17 In7 2.910021 1_555
Cu17 In3 2.965863 1_545
Cu18 Cu21 2.584931 1_545
Cu18 Cu26 2.597899 1_455
Cu18 Cu6 2.614533 1_455
Cu18 In0 2.624883 1_555
Cu18 In2 2.645694 1_555
Cu18 In5 2.702247 1_455
Cu18 Cu3 2.713860 1_555
Cu18 Cu4 2.777503 1_555
Cu18 In10 2.867675 1_555
Cu18 Cu8 2.981785 1_555
Cu19 Cu20 2.584931 1_565
Cu19 Cu27 2.597899 1_655
Cu19 Cu7 2.614533 1_655
Cu19 In1 2.624883 1_555
Cu19 In3 2.645694 1_555
Cu19 In4 2.702247 1_655
Cu19 Cu2 2.713860 1_555
Cu19 Cu5 2.777503 1_555
Cu19 In11 2.867675 1_555
Cu19 Cu9 2.981785 1_555
Cu20 Cu27 2.533947 1_645
Cu20 In3 2.765904 1_545
Cu20 In7 2.812136 1_655
Cu20 In8 2.854801 1_555
Cu20 In5 2.889205 1_555
Cu21 Cu26 2.533947 1_465
Cu21 Cu3 2.549949 1_565
Cu21 In2 2.765904 1_565
Cu21 In6 2.812136 1_455
Cu21 In9 2.854801 1_555
Cu21 In4 2.889205 1_555
Cu22 In4 2.578636 1_555
Cu22 In7 2.606870 1_555
Cu22 Cu4 2.617595 1_555
Cu22 Cu7 2.631630 1_555
Cu22 In10 2.648733 1_555
Cu22 In5 2.715036 1_455
Cu22 Cu5 2.737112 1_455
Cu22 In11 2.801674 1_555
Cu23 In5 2.578636 1_555
Cu23 In6 2.606870 1_555
Cu23 Cu5 2.617595 1_555
Cu23 Cu6 2.631630 1_555
Cu23 In11 2.648733 1_555
Cu23 In4 2.715036 1_655
Cu23 Cu4 2.737112 1_655
Cu23 In10 2.801674 1_555
Cu24 In9 2.611138 1_555
Cu24 In1 2.613804 1_556
Cu24 Cu6 2.661251 1_555
Cu24 In10 2.669684 1_555
Cu24 In0 2.675248 1_555
Cu24 Cu8 2.677413 1_555
Cu24 In6 2.732576 1_555
Cu24 Cu9 2.749962 1_556
Cu24 Cu4 2.787921 1_555
Cu25 In8 2.611138 1_555
Cu25 In0 2.613804 1_554
Cu25 Cu7 2.661251 1_555
Cu25 In11 2.669684 1_555
Cu25 In1 2.675248 1_555
Cu25 Cu9 2.677413 1_555
Cu25 In7 2.732576 1_555
Cu25 Cu8 2.749962 1_554
Cu25 Cu5 2.787921 1_555
Cu25 Cu3 2.810886 1_554
Cu26 Cu8 2.539238 1_555
Cu26 Cu6 2.563821 1_555
Cu26 Cu3 2.599597 1_655
Cu26 In0 2.760232 1_655
Cu26 In7 2.824232 1_656
Cu26 In1 2.862125 1_556
Cu26 In8 2.913335 1_556
Cu27 Cu9 2.539238 1_555
Cu27 Cu7 2.563821 1_555
Cu27 In1 2.760232 1_455
Cu27 In6 2.824232 1_454
Cu27 In0 2.862125 1_554
Cu27 In9 2.913335 1_554
