# generated using pymatgen
data_MgCo4OF11
_symmetry_space_group_name_H-M   'P 1'
_cell_length_a   7.63720230
_cell_length_b   5.19892106
_cell_length_c   5.45441507
_cell_angle_alpha   90.47515983
_cell_angle_beta   95.52761602
_cell_angle_gamma   90.40269979
_symmetry_Int_Tables_number   1
_chemical_formula_structural   MgCo4OF11
_chemical_formula_sum   'Mg1 Co4 O1 F11'
_cell_volume   215.54755897
_cell_formula_units_Z   1
loop_
 _symmetry_equiv_pos_site_id
 _symmetry_equiv_pos_as_xyz
  1  'x, y, z'
loop_
 _atom_site_type_symbol
 _atom_site_label
 _atom_site_symmetry_multiplicity
 _atom_site_fract_x
 _atom_site_fract_y
 _atom_site_fract_z
 _atom_site_occupancy
  Mg  Mg0  1  0.30113800  0.50212900  0.88301300  1
  Co  Co0  1  0.98449200  0.49289600  0.48439800  1
  Co  Co1  1  0.99389900  0.99325100  0.00098900  1
  Co  Co2  1  0.54329100  0.49340900  0.49058300  1
  Co  Co3  1  0.51510300  0.00594300  0.00869700  1
  O  O0  1  0.76160400  0.38030300  0.50118500  1
  F  F0  1  0.24528500  0.85232900  0.00080200  1
  F  F1  1  0.06092600  0.18469300  0.29008500  1
  F  F2  1  0.22693100  0.59508900  0.52670400  1
  F  F3  1  0.07454900  0.31054200  0.82095200  1
  F  F4  1  0.54781000  0.81595400  0.32620200  1
  F  F5  1  0.42425500  0.33833300  0.18102700  1
  F  F6  1  0.53082300  0.67604000  0.81142200  1
  F  F7  1  0.43091900  0.22441200  0.70458500  1
  F  F8  1  0.93804600  0.69001800  0.18428900  1
  F  F9  1  0.94742500  0.81708200  0.70168800  1
  F  F10  1  0.76053800  0.12758000  0.99587900  1
loop_
_geom_bond_atom_site_label_1
_geom_bond_atom_site_label_2
_geom_bond_distance
_geom_bond_site_symmetry_2
Co0 O0 1.807088 1_555
Co0 F2 1.914577 1_655
Co0 F8 1.943363 1_555
Co0 F1 2.033636 1_655
Co0 F9 2.088937 1_555
Co0 F3 2.129893 1_655
Co1 F9 1.867867 1_554
Co1 F1 1.884251 1_665
Co1 F10 1.916525 1_564
Co1 F8 1.940540 1_555
Co1 F3 2.047900 1_664
Co1 F0 2.059821 1_655
Co2 O0 1.767706 1_555
Co2 F4 1.909743 1_555
Co2 F6 1.994709 1_555
Co2 F5 1.999682 1_555
Co2 F7 2.063488 1_555
Co2 F2 2.502750 1_555
Co3 F10 1.981824 1_554
Co3 F4 1.996414 1_545
Co3 F6 2.027587 1_544
Co3 F7 2.071455 1_554
Co3 F5 2.113455 1_555
Co3 F0 2.201172 1_545
F0 Mg0 1.988428 1_554
F2 Mg0 2.034459 1_555
F3 Mg0 1.989641 1_555
F5 Mg0 1.997813 1_554
F6 Mg0 2.040229 1_555
F7 Mg0 2.048622 1_555
