# generated using pymatgen
data_La4MgFeO8
_symmetry_space_group_name_H-M   'P 1'
_cell_length_a   5.52999785
_cell_length_b   6.87018007
_cell_length_c   5.64571679
_cell_angle_alpha   90.03178977
_cell_angle_beta   89.90792597
_cell_angle_gamma   113.73457576
_symmetry_Int_Tables_number   1
_chemical_formula_structural   La4MgFeO8
_chemical_formula_sum   'La4 Mg1 Fe1 O8'
_cell_volume   196.35046846
_cell_formula_units_Z   1
loop_
 _symmetry_equiv_pos_site_id
 _symmetry_equiv_pos_as_xyz
  1  'x, y, z'
loop_
 _atom_site_type_symbol
 _atom_site_label
 _atom_site_symmetry_multiplicity
 _atom_site_fract_x
 _atom_site_fract_y
 _atom_site_fract_z
 _atom_site_occupancy
  La  La0  1  0.13662100  0.27331600  0.49999600  1
  La  La1  1  0.63819400  0.27621500  0.00001200  1
  La  La2  1  0.36180500  0.72378500  0.99998400  1
  La  La3  1  0.86338600  0.72668400  0.49999200  1
  Mg  Mg0  1  0.99999900  0.00000000  0.99999900  1
  Fe  Fe0  1  0.50000100  0.00000100  0.50000000  1
  O  O0  1  0.24828100  0.00005600  0.24434300  1
  O  O1  1  0.24881700  0.00005300  0.75522800  1
  O  O2  1  0.75118200  0.99994600  0.24477200  1
  O  O3  1  0.75171900  0.99994300  0.75565700  1
  O  O4  1  0.17923600  0.35861600  0.00001800  1
  O  O5  1  0.68293300  0.36557000  0.49998500  1
  O  O6  1  0.31705400  0.63443100  0.50001500  1
  O  O7  1  0.82077000  0.64138200  0.99999700  1
loop_
_geom_bond_atom_site_label_1
_geom_bond_atom_site_label_2
_geom_bond_distance
_geom_bond_site_symmetry_2
La0 O6 2.271088 1_555
La0 O0 2.629877 1_555
La0 O3 2.629891 1_445
La0 O1 2.632372 1_555
La0 O2 2.632691 1_445
La0 O5 2.824237 1_455
La0 O5 2.826194 1_555
La0 O4 2.873206 1_555
La0 O4 2.873556 1_556
La1 O7 2.296572 1_554
La1 O0 2.617604 1_555
La1 O3 2.617897 1_544
La1 O2 2.619681 1_545
La1 O1 2.619927 1_554
La1 O4 2.812262 1_655
La1 O4 2.814026 1_555
La1 O5 2.878158 1_555
La1 O5 2.878345 1_554
La2 O4 2.296584 1_556
La2 O3 2.617592 1_555
La2 O0 2.617901 1_566
La2 O1 2.619664 1_565
La2 O2 2.619936 1_556
La2 O7 2.812221 1_455
La2 O7 2.814072 1_555
La2 O6 2.878135 1_555
La2 O6 2.878366 1_556
La3 O5 2.271082 1_555
La3 O0 2.629831 1_665
La3 O3 2.629929 1_555
La3 O2 2.632352 1_555
La3 O1 2.632702 1_665
La3 O6 2.824125 1_655
La3 O6 2.826304 1_555
La3 O7 2.873359 1_555
La3 O7 2.873408 1_554
Mg0 O3 1.947750 1_545
Mg0 O0 1.947768 1_656
Mg0 O1 1.948443 1_655
Mg0 O2 1.948445 1_546
Mg0 O4 2.255372 1_656
Mg0 O7 2.255384 1_545
Fe0 O2 1.999929 1_545
Fe0 O1 1.999935 1_555
Fe0 O3 2.006957 1_545
Fe0 O0 2.006959 1_555
Fe0 O5 2.299100 1_555
Fe0 O6 2.299106 1_545
