# generated using pymatgen
data_CsNaF3
_symmetry_space_group_name_H-M   'P 1'
_cell_length_a   4.48507393
_cell_length_b   6.66062971
_cell_length_c   12.05630997
_cell_angle_alpha   90.00000000
_cell_angle_beta   90.00000000
_cell_angle_gamma   90.00000000
_symmetry_Int_Tables_number   1
_chemical_formula_structural   CsNaF3
_chemical_formula_sum   'Cs4 Na4 F12'
_cell_volume   360.16317123
_cell_formula_units_Z   4
loop_
 _symmetry_equiv_pos_site_id
 _symmetry_equiv_pos_as_xyz
  1  'x, y, z'
loop_
 _atom_site_type_symbol
 _atom_site_label
 _atom_site_symmetry_multiplicity
 _atom_site_fract_x
 _atom_site_fract_y
 _atom_site_fract_z
 _atom_site_occupancy
  Cs  Cs0  1  0.75000000  0.07812847  0.65457458  1
  Cs  Cs1  1  0.25000000  0.92187153  0.34542542  1
  Cs  Cs2  1  0.75000000  0.57812847  0.84542542  1
  Cs  Cs3  1  0.25000000  0.42187153  0.15457458  1
  Na  Na0  1  0.25000000  0.04365645  0.88265345  1
  Na  Na1  1  0.75000000  0.95634355  0.11734655  1
  Na  Na2  1  0.25000000  0.54365645  0.61734655  1
  Na  Na3  1  0.75000000  0.45634355  0.38265345  1
  F  F0  1  0.75000000  0.24466450  0.00764854  1
  F  F1  1  0.25000000  0.75533550  -0.00764854  1
  F  F2  1  0.75000000  0.74466450  0.49235146  1
  F  F3  1  0.25000000  0.25533550  0.50764854  1
  F  F4  1  0.25000000  -0.01243905  0.09034854  1
  F  F5  1  0.75000000  0.01243905  0.90965146  1
  F  F6  1  0.25000000  0.48756095  0.40965146  1
  F  F7  1  0.75000000  0.51243905  0.59034854  1
  F  F8  1  0.25000000  0.31446738  0.76639706  1
  F  F9  1  0.75000000  0.68553262  0.23360294  1
  F  F10  1  0.25000000  0.81446738  0.73360294  1
  F  F11  1  0.75000000  0.18553262  0.26639706  1
loop_
_geom_bond_atom_site_label_1
_geom_bond_atom_site_label_2
_geom_bond_distance
_geom_bond_site_symmetry_2
Cs0 F2 2.959459 1_545
Cs0 F7 2.994624 1_555
Cs0 F10 3.003471 1_545
Cs0 F10 3.003471 1_645
Cs0 F8 3.053608 1_555
Cs0 F8 3.053608 1_655
Cs0 F3 3.091911 1_555
Cs0 F3 3.091911 1_655
Cs0 F5 3.106255 1_555
Cs1 F3 2.959459 1_565
Cs1 F6 2.994624 1_555
Cs1 F11 3.003471 1_465
Cs1 F11 3.003471 1_565
Cs1 F9 3.053608 1_555
Cs1 F9 3.053608 1_455
Cs1 F2 3.091911 1_455
Cs1 F2 3.091911 1_555
Cs1 F4 3.106255 1_565
Cs2 F0 2.959459 1_556
Cs2 F5 2.994624 1_565
Cs2 F8 3.003471 1_555
Cs2 F8 3.003471 1_655
Cs2 F10 3.053608 1_555
Cs2 F10 3.053608 1_655
Cs2 F1 3.091911 1_556
Cs2 F1 3.091911 1_656
Cs2 F7 3.106255 1_555
Cs3 F1 2.959459 1_555
Cs3 F4 2.994624 1_555
Cs3 F9 3.003471 1_455
Cs3 F9 3.003471 1_555
Cs3 F11 3.053608 1_555
Cs3 F11 3.053608 1_455
Cs3 F0 3.091911 1_555
Cs3 F0 3.091911 1_455
Cs3 F6 3.106255 1_555
F0 Na1 2.331755 1_545
F1 Na0 2.331755 1_564
F2 Na3 2.331755 1_555
F3 Na2 2.331755 1_555
F4 Na1 2.275556 1_545
F4 Na1 2.275556 1_445
F4 Na0 2.531758 1_554
F5 Na0 2.275556 1_555
F5 Na0 2.275556 1_655
F5 Na1 2.531758 1_546
F6 Na3 2.275556 1_555
F6 Na3 2.275556 1_455
F6 Na2 2.531758 1_555
F7 Na2 2.275556 1_555
F7 Na2 2.275556 1_655
F7 Na3 2.531758 1_555
F8 Na0 2.284324 1_555
F8 Na2 2.357868 1_555
F9 Na1 2.284324 1_555
F9 Na3 2.357868 1_555
F10 Na2 2.284324 1_555
F10 Na0 2.357868 1_565
F11 Na3 2.284324 1_555
F11 Na1 2.357868 1_545
