# generated using pymatgen
data_K2Ta15O32
_symmetry_space_group_name_H-M   'P 1'
_cell_length_a   12.72414764
_cell_length_b   12.72414764
_cell_length_c   12.72414731
_cell_angle_alpha   35.78018284
_cell_angle_beta   35.78018288
_cell_angle_gamma   35.78018748
_symmetry_Int_Tables_number   1
_chemical_formula_structural   K2Ta15O32
_chemical_formula_sum   'K2 Ta15 O32'
_cell_volume   629.64602546
_cell_formula_units_Z   1
loop_
 _symmetry_equiv_pos_site_id
 _symmetry_equiv_pos_as_xyz
  1  'x, y, z'
loop_
 _atom_site_type_symbol
 _atom_site_label
 _atom_site_symmetry_multiplicity
 _atom_site_fract_x
 _atom_site_fract_y
 _atom_site_fract_z
 _atom_site_occupancy
  K  K0  1  0.85957214  0.85957214  0.85957214  1
  K  K1  1  0.14042786  0.14042786  0.14042786  1
  Ta  Ta0  1  0.50000000  0.50000000  0.50000000  1
  Ta  Ta1  1  0.29761300  0.97397704  0.42969967  1
  Ta  Ta2  1  0.42969967  0.29761300  0.97397704  1
  Ta  Ta3  1  0.97397704  0.42969967  0.29761300  1
  Ta  Ta4  1  0.70238700  0.02602296  0.57030033  1
  Ta  Ta5  1  0.57030033  0.70238700  0.02602296  1
  Ta  Ta6  1  0.02602296  0.57030033  0.70238700  1
  Ta  Ta7  1  0.18547469  0.77200240  0.94590317  1
  Ta  Ta8  1  0.94590317  0.18547469  0.77200240  1
  Ta  Ta9  1  0.77200240  0.94590317  0.18547469  1
  Ta  Ta10  1  0.81452531  0.22799760  0.05409683  1
  Ta  Ta11  1  0.05409683  0.81452531  0.22799760  1
  Ta  Ta12  1  0.22799760  0.05409683  0.81452531  1
  Ta  Ta13  1  0.63742596  0.63742596  0.63742596  1
  Ta  Ta14  1  0.36257404  0.36257404  0.36257404  1
  O  O0  1  0.32234760  0.73587680  0.53844408  1
  O  O1  1  0.53844408  0.32234760  0.73587680  1
  O  O2  1  0.73587680  0.53844408  0.32234760  1
  O  O3  1  0.67765240  0.26412320  0.46155592  1
  O  O4  1  0.46155592  0.67765240  0.26412320  1
  O  O5  1  0.26412320  0.46155592  0.67765240  1
  O  O6  1  0.03144664  0.15174570  0.44407039  1
  O  O7  1  0.44407039  0.03144664  0.15174570  1
  O  O8  1  0.15174570  0.44407039  0.03144664  1
  O  O9  1  0.96855336  0.84825430  0.55592961  1
  O  O10  1  0.55592961  0.96855336  0.84825430  1
  O  O11  1  0.84825430  0.55592961  0.96855336  1
  O  O12  1  0.26328156  0.26328156  0.26328156  1
  O  O13  1  0.73671844  0.73671844  0.73671844  1
  O  O14  1  0.13950069  0.96015195  0.70055201  1
  O  O15  1  0.70055201  0.13950069  0.96015195  1
  O  O16  1  0.96015195  0.70055201  0.13950069  1
  O  O17  1  0.16889892  0.26049325  0.57034931  1
  O  O18  1  0.26049325  0.57034931  0.16889892  1
  O  O19  1  0.57034931  0.16889892  0.26049325  1
  O  O20  1  0.83110108  0.73950675  0.42965069  1
  O  O21  1  0.73950675  0.42965069  0.83110108  1
  O  O22  1  0.42965069  0.83110108  0.73950675  1
  O  O23  1  0.45771211  0.15529679  0.57106394  1
  O  O24  1  0.15529679  0.57106394  0.45771211  1
  O  O25  1  0.57106394  0.45771211  0.15529679  1
  O  O26  1  0.54228789  0.84470321  0.42893606  1
  O  O27  1  0.84470321  0.42893606  0.54228789  1
  O  O28  1  0.42893606  0.54228789  0.84470321  1
  O  O29  1  0.03984805  0.29944799  0.86049931  1
  O  O30  1  0.29944799  0.86049931  0.03984805  1
  O  O31  1  0.86049931  0.03984805  0.29944799  1
loop_
_geom_bond_atom_site_label_1
_geom_bond_atom_site_label_2
_geom_bond_distance
_geom_bond_site_symmetry_2
K0 O9 2.959198 1_555
K0 O11 2.959198 1_555
K0 O10 2.959198 1_555
K0 O6 3.015972 1_665
K0 O7 3.015972 1_566
K0 O8 3.015972 1_656
K0 O16 3.149564 1_556
K0 O14 3.149564 1_655
K0 O15 3.149564 1_565
K0 O2 3.194534 1_556
K0 O0 3.194534 1_655
K0 O1 3.194534 1_565
K1 O6 2.959198 1_555
K1 O8 2.959198 1_555
K1 O7 2.959198 1_555
K1 O9 3.015972 1_445
K1 O10 3.015972 1_544
K1 O11 3.015972 1_454
K1 O29 3.149564 1_554
K1 O31 3.149564 1_455
K1 O30 3.149564 1_545
K1 O5 3.194534 1_554
K1 O3 3.194534 1_455
K1 O4 3.194534 1_545
O0 Ta1 1.884152 1_555
O0 Ta0 1.984205 1_555
O1 Ta2 1.884152 1_555
O1 Ta0 1.984205 1_555
O2 Ta3 1.884152 1_555
O2 Ta0 1.984205 1_555
O3 Ta4 1.884152 1_555
O3 Ta0 1.984205 1_555
O4 Ta5 1.884152 1_555
O4 Ta0 1.984205 1_555
O5 Ta6 1.884152 1_555
O5 Ta0 1.984205 1_555
O6 Ta3 1.958802 1_455
O6 Ta1 1.963802 1_545
O7 Ta1 1.958802 1_545
O7 Ta2 1.963802 1_554
O8 Ta2 1.958802 1_554
O8 Ta3 1.963802 1_455
O9 Ta6 1.958802 1_655
O9 Ta4 1.963802 1_565
O10 Ta4 1.958802 1_565
O10 Ta5 1.963802 1_556
O11 Ta5 1.958802 1_556
O11 Ta6 1.963802 1_655
O12 Ta2 2.114195 1_554
O12 Ta1 2.114195 1_545
O12 Ta3 2.114195 1_455
O13 Ta5 2.114195 1_556
O13 Ta4 2.114195 1_565
O13 Ta6 2.114195 1_655
O14 Ta8 2.061761 1_465
O14 Ta1 2.072810 1_555
O14 Ta7 2.093789 1_555
O15 Ta9 2.061761 1_546
O15 Ta2 2.072810 1_555
O15 Ta8 2.093789 1_555
O16 Ta7 2.061761 1_654
O16 Ta3 2.072810 1_555
O16 Ta9 2.093789 1_555
O17 Ta14 1.949477 1_555
O17 Ta8 2.038050 1_455
O17 Ta12 2.112587 1_555
O18 Ta14 1.949477 1_555
O18 Ta7 2.038050 1_554
O18 Ta11 2.112587 1_555
O19 Ta14 1.949477 1_555
O19 Ta9 2.038050 1_545
O19 Ta10 2.112587 1_555
O20 Ta13 1.949477 1_555
O20 Ta11 2.038050 1_655
O20 Ta9 2.112587 1_555
O21 Ta13 1.949477 1_555
O21 Ta10 2.038050 1_556
O21 Ta8 2.112587 1_555
O22 Ta13 1.949477 1_555
O22 Ta12 2.038050 1_565
O22 Ta7 2.112587 1_555
O23 Ta4 2.016460 1_555
O23 Ta14 2.033965 1_555
O23 Ta12 2.177416 1_555
O24 Ta6 2.016460 1_555
O24 Ta14 2.033965 1_555
O24 Ta11 2.177416 1_555
O25 Ta5 2.016460 1_555
O25 Ta14 2.033965 1_555
O25 Ta10 2.177416 1_555
O26 Ta1 2.016460 1_555
O26 Ta13 2.033965 1_555
O26 Ta9 2.177416 1_555
O27 Ta3 2.016460 1_555
O27 Ta13 2.033965 1_555
O27 Ta8 2.177416 1_555
O28 Ta2 2.016460 1_555
O28 Ta13 2.033965 1_555
O28 Ta7 2.177416 1_555
O29 Ta10 2.061761 1_456
O29 Ta6 2.072810 1_555
O29 Ta12 2.093789 1_555
O30 Ta12 2.061761 1_564
O30 Ta5 2.072810 1_555
O30 Ta11 2.093789 1_555
O31 Ta11 2.061761 1_645
O31 Ta4 2.072810 1_555
O31 Ta10 2.093789 1_555
