# generated using pymatgen
data_Na4CaZrSi2SO12
_symmetry_space_group_name_H-M   'P 1'
_cell_length_a   9.45235406
_cell_length_b   9.47286835
_cell_length_c   22.85922027
_cell_angle_alpha   90.99082669
_cell_angle_beta   90.00000000
_cell_angle_gamma   119.92838890
_symmetry_Int_Tables_number   1
_chemical_formula_structural   Na4CaZrSi2SO12
_chemical_formula_sum   'Na24 Ca6 Zr6 Si12 S6 O72'
_cell_volume   1773.53593611
_cell_formula_units_Z   6
loop_
 _symmetry_equiv_pos_site_id
 _symmetry_equiv_pos_as_xyz
  1  'x, y, z'
loop_
 _atom_site_type_symbol
 _atom_site_label
 _atom_site_symmetry_multiplicity
 _atom_site_fract_x
 _atom_site_fract_y
 _atom_site_fract_z
 _atom_site_occupancy
  Na  Na0  1  0.65360866  0.03245052  0.25602044  1
  Na  Na1  1  0.35920498  0.34377522  0.24118229  1
  Na  Na2  1  0.99208893  0.62022046  0.23773393  1
  Na  Na3  1  0.62813154  0.62022046  0.73773393  1
  Na  Na4  1  0.98457024  0.34377522  0.74118229  1
  Na  Na5  1  0.37884187  0.03245052  0.75602044  1
  Na  Na6  1  0.32027566  0.36578352  0.58935344  1
  Na  Na7  1  0.02587198  0.67710822  0.57451529  1
  Na  Na8  1  0.65875593  0.95355346  0.57106693  1
  Na  Na9  1  0.29479854  0.95355346  0.07106693  1
  Na  Na10  1  0.65123724  0.67710822  0.07451529  1
  Na  Na11  1  0.04550887  0.36578352  0.08935344  1
  Na  Na12  1  0.98694166  0.69911752  0.92268744  1
  Na  Na13  1  0.69253798  0.01044222  0.90784929  1
  Na  Na14  1  0.32542193  0.28688746  0.90440093  1
  Na  Na15  1  0.96146454  0.28688746  0.40440093  1
  Na  Na16  1  0.31790324  0.01044222  0.40784929  1
  Na  Na17  1  0.71217487  0.69911752  0.42268744  1
  Na  Na18  1  0.97263582  0.97915752  0.49391607  1
  Na  Na19  1  0.00652170  0.97915752  0.99391607  1
  Na  Na20  1  0.63930282  0.31249052  0.82724907  1
  Na  Na21  1  0.67318870  0.31249052  0.32724907  1
  Na  Na22  1  0.30596882  0.64582452  0.16058307  1
  Na  Na23  1  0.33985470  0.64582452  0.66058307  1
  Ca  Ca0  1  0.00135235  0.00169386  0.34796651  1
  Ca  Ca1  1  0.00034150  0.00169386  0.84796651  1
  Ca  Ca2  1  0.66801935  0.33502686  0.68129951  1
  Ca  Ca3  1  0.66700850  0.33502686  0.18129951  1
  Ca  Ca4  1  0.33468535  0.66836086  0.01463351  1
  Ca  Ca5  1  0.33367450  0.66836086  0.51463351  1
  Zr  Zr0  1  0.98559453  0.00800976  0.64920049  1
  Zr  Zr1  1  0.02241523  0.00800976  0.14920049  1
  Zr  Zr2  1  0.65226153  0.34134276  0.98253349  1
  Zr  Zr3  1  0.68908223  0.34134276  0.48253349  1
  Zr  Zr4  1  0.31892753  0.67467676  0.31586749  1
  Zr  Zr5  1  0.35574823  0.67467676  0.81586749  1
  Si  Si0  1  0.30541625  0.99758871  0.25411355  1
  Si  Si1  1  0.00722791  0.30429956  0.25301592  1
  Si  Si2  1  0.29707165  0.30429956  0.75301592  1
  Si  Si3  1  0.69217246  0.99758871  0.75411355  1
  Si  Si4  1  0.97208325  0.33092171  0.58744655  1
  Si  Si5  1  0.67389491  0.63763256  0.58634892  1
  Si  Si6  1  0.96373865  0.63763256  0.08634892  1
  Si  Si7  1  0.35883946  0.33092171  0.08744655  1
  Si  Si8  1  0.63874925  0.66425571  0.92078055  1
  Si  Si9  1  0.34056091  0.97096656  0.91968292  1
  Si  Si10  1  0.63040465  0.97096656  0.41968292  1
  Si  Si11  1  0.02550546  0.66425571  0.42078055  1
  S  S0  1  0.69525070  0.70621104  0.24977417  1
  S  S1  1  0.01096034  0.70621104  0.74977417  1
  S  S2  1  0.36191770  0.03954404  0.58310717  1
  S  S3  1  0.67762734  0.03954404  0.08310717  1
  S  S4  1  0.02858370  0.37287804  0.91644117  1
  S  S5  1  0.34429334  0.37287804  0.41644117  1
  O  O0  1  0.22564217  0.01783869  0.31289145  1
  O  O1  1  0.78831587  0.78116960  0.30384714  1
  O  O2  1  0.97731755  0.20177228  0.31115418  1
  O  O3  1  0.22445472  0.20177228  0.81115418  1
  O  O4  1  0.99285372  0.78116960  0.80384714  1
  O  O5  1  0.79219652  0.01783869  0.81289145  1
  O  O6  1  0.79403918  0.97716946  0.69611205  1
  O  O7  1  0.17453787  0.19705338  0.69539265  1
  O  O8  1  0.02582212  0.80824950  0.69795232  1
  O  O9  1  0.78242737  0.80824950  0.19795232  1
  O  O10  1  0.02251551  0.19705338  0.19539265  1
  O  O11  1  0.18313028  0.97716946  0.19611205  1
  O  O12  1  0.89230917  0.35117169  0.64622445  1
  O  O13  1  0.45498287  0.11450260  0.63718014  1
  O  O14  1  0.64398455  0.53510528  0.64448718  1
  O  O15  1  0.89112172  0.53510528  0.14448718  1
  O  O16  1  0.65952072  0.11450260  0.13718014  1
  O  O17  1  0.45886352  0.35117169  0.14622445  1
  O  O18  1  0.46070618  0.31050246  0.02944505  1
  O  O19  1  0.84120487  0.53038638  0.02872565  1
  O  O20  1  0.69248912  0.14158250  0.03128532  1
  O  O21  1  0.44909437  0.14158250  0.53128532  1
  O  O22  1  0.68918251  0.53038638  0.52872565  1
  O  O23  1  0.84979728  0.31050246  0.52944505  1
  O  O24  1  0.55897517  0.68450569  0.97955845  1
  O  O25  1  0.12164887  0.44783660  0.97051414  1
  O  O26  1  0.31065055  0.86843928  0.97782118  1
  O  O27  1  0.55778772  0.86843928  0.47782118  1
  O  O28  1  0.32618672  0.44783660  0.47051414  1
  O  O29  1  0.12552952  0.68450569  0.47955845  1
  O  O30  1  0.12737218  0.64383646  0.36277905  1
  O  O31  1  0.50787087  0.86372038  0.36205965  1
  O  O32  1  0.35915512  0.47491650  0.36461932  1
  O  O33  1  0.11576037  0.47491650  0.86461932  1
  O  O34  1  0.35584851  0.86372038  0.86205965  1
  O  O35  1  0.51646328  0.64383646  0.86277905  1
  O  O36  1  0.99329907  0.81654038  0.41492049  1
  O  O37  1  0.81714772  0.00647847  0.41383529  1
  O  O38  1  0.20033953  0.20664008  0.41141046  1
  O  O39  1  0.00630056  0.20664008  0.91141046  1
  O  O40  1  0.18933075  0.00647847  0.91383529  1
  O  O41  1  0.82324131  0.81654038  0.91492049  1
  O  O42  1  0.97334689  0.15326853  0.58627018  1
  O  O43  1  0.19766546  0.02790598  0.58539184  1
  O  O44  1  0.85447828  0.81250699  0.58789857  1
  O  O45  1  0.95802870  0.81250699  0.08789857  1
  O  O46  1  0.83024052  0.02790598  0.08539184  1
  O  O47  1  0.17992164  0.15326853  0.08627018  1
  O  O48  1  0.65996607  0.14987338  0.74825349  1
  O  O49  1  0.48381472  0.33981147  0.74716829  1
  O  O50  1  0.86700653  0.53997308  0.74474346  1
  O  O51  1  0.67296756  0.53997308  0.24474346  1
  O  O52  1  0.85599775  0.33981147  0.24716829  1
  O  O53  1  0.48990831  0.14987338  0.24825349  1
  O  O54  1  0.64001389  0.48660153  0.91960318  1
  O  O55  1  0.86433246  0.36123898  0.91872484  1
  O  O56  1  0.52114528  0.14583999  0.92123157  1
  O  O57  1  0.62469570  0.14583999  0.42123157  1
  O  O58  1  0.49690752  0.36123898  0.41872484  1
  O  O59  1  0.84658864  0.48660153  0.41960318  1
  O  O60  1  0.32663207  0.48320738  0.08158749  1
  O  O61  1  0.15048072  0.67314547  0.08050229  1
  O  O62  1  0.53367253  0.87330708  0.07807746  1
  O  O63  1  0.33963356  0.87330708  0.57807746  1
  O  O64  1  0.52266375  0.67314547  0.58050229  1
  O  O65  1  0.15657431  0.48320738  0.58158749  1
  O  O66  1  0.30667989  0.81993553  0.25293718  1
  O  O67  1  0.53099846  0.69457298  0.25205884  1
  O  O68  1  0.18781128  0.47917399  0.25456557  1
  O  O69  1  0.29136170  0.47917399  0.75456557  1
  O  O70  1  0.16357352  0.69457298  0.75205884  1
  O  O71  1  0.51325464  0.81993553  0.75293718  1
loop_
_geom_bond_atom_site_label_1
_geom_bond_atom_site_label_2
_geom_bond_distance
_geom_bond_site_symmetry_2
Na0 O53 2.321073 1_555
Na0 O52 2.576914 1_555
Na0 O67 2.807889 1_545
Na0 O16 2.831404 1_555
Na0 O66 2.866909 1_545
Na0 O31 2.874892 1_545
Na0 O2 2.925137 1_555
Na1 O17 2.354456 1_555
Na1 O68 2.534402 1_555
Na1 O51 2.598347 1_555
Na1 O53 2.683464 1_555
Na2 O15 2.297206 1_555
Na2 O52 2.316748 1_555
Na2 O66 2.627952 1_655
Na2 O51 2.723720 1_555
Na2 O68 2.800030 1_655
Na3 O14 2.297209 1_555
Na3 O49 2.316748 1_555
Na3 O71 2.627960 1_555
Na3 O50 2.723730 1_555
Na3 O69 2.800038 1_555
Na4 O12 2.354452 1_555
Na4 O69 2.534394 1_655
Na4 O50 2.598339 1_555
Na4 O48 2.683456 1_555
Na5 O48 2.321081 1_555
Na5 O49 2.576913 1_555
Na5 O70 2.807890 1_545
Na5 O13 2.831405 1_555
Na5 O71 2.866902 1_545
Na5 O34 2.874890 1_545
Na5 O3 2.925137 1_555
Na6 O65 2.321087 1_555
Na6 O64 2.576918 1_555
Na6 O43 2.807889 1_555
Na6 O28 2.831386 1_555
Na6 O42 2.866909 1_455
Na6 O7 2.874892 1_555
Na6 O14 2.925137 1_555
Na7 O29 2.354430 1_555
Na7 O44 2.534402 1_455
Na7 O63 2.598341 1_555
Na7 O65 2.683449 1_555
Na8 O27 2.297186 1_555
Na8 O64 2.316743 1_555
Na8 O42 2.627952 1_565
Na8 O63 2.723734 1_555
Na8 O44 2.800030 1_555
Na9 O26 2.297182 1_554
Na9 O61 2.316743 1_555
Na9 O47 2.627960 1_565
Na9 O62 2.723715 1_555
Na9 O45 2.800038 1_455
Na10 O24 2.354437 1_554
Na10 O45 2.534394 1_555
Na10 O62 2.598356 1_555
Na10 O60 2.683464 1_555
Na11 O60 2.321070 1_555
Na11 O61 2.576921 1_555
Na11 O46 2.807890 1_455
Na11 O25 2.831384 1_554
Na11 O47 2.866902 1_555
Na11 O10 2.874890 1_555
Na11 O15 2.925137 1_455
Na12 O41 2.321073 1_555
Na12 O40 2.576914 1_665
Na12 O55 2.807899 1_555
Na12 O4 2.831404 1_555
Na12 O54 2.866903 1_555
Na12 O19 2.874874 1_556
Na12 O26 2.925137 1_655
Na13 O5 2.354456 1_555
Na13 O56 2.534383 1_555
Na13 O39 2.598347 1_655
Na13 O41 2.683464 1_545
Na14 O3 2.297206 1_555
Na14 O40 2.316748 1_555
Na14 O54 2.627956 1_555
Na14 O39 2.723720 1_555
Na14 O56 2.800042 1_555
Na15 O2 2.297209 1_555
Na15 O37 2.316748 1_555
Na15 O59 2.627941 1_555
Na15 O38 2.723730 1_655
Na15 O57 2.800026 1_555
Na16 O0 2.354452 1_555
Na16 O57 2.534400 1_555
Na16 O38 2.598339 1_555
Na16 O36 2.683456 1_445
Na17 O36 2.321081 1_555
Na17 O37 2.576913 1_565
Na17 O58 2.807896 1_555
Na17 O1 2.831405 1_555
Na17 O59 2.866918 1_555
Na17 O22 2.874877 1_555
Na17 O27 2.925137 1_555
Na18 O36 2.424044 1_555
Na18 O37 2.444189 1_565
Na18 O44 2.590945 1_555
Na18 O42 2.654388 1_565
Na18 O43 2.845464 1_665
Na18 O38 2.888902 1_665
Na19 O41 2.424044 1_455
Na19 O40 2.444189 1_565
Na19 O45 2.590945 1_456
Na19 O47 2.654388 1_566
Na19 O46 2.845464 1_466
Na19 O39 2.888902 1_565
Na20 O48 2.424044 1_555
Na20 O49 2.444189 1_555
Na20 O56 2.590945 1_555
Na20 O54 2.654388 1_555
Na20 O55 2.845464 1_555
Na20 O50 2.888902 1_555
Na21 O53 2.424044 1_555
Na21 O52 2.444189 1_555
Na21 O57 2.590945 1_555
Na21 O59 2.654388 1_555
Na21 O58 2.845464 1_555
Na21 O51 2.888902 1_555
Na22 O60 2.424044 1_555
Na22 O61 2.444189 1_555
Na22 O68 2.590945 1_555
Na22 O66 2.654388 1_555
Na22 O67 2.845464 1_555
Na22 O62 2.888902 1_555
Na23 O65 2.424044 1_555
Na23 O64 2.444189 1_555
Na23 O69 2.590945 1_555
Na23 O71 2.654388 1_555
Na23 O70 2.845464 1_555
Na23 O63 2.888902 1_555
Ca0 O2 2.199267 1_455
Ca0 O0 2.200373 1_555
Ca0 O1 2.272810 1_445
Ca0 O37 2.318893 1_455
Ca0 O36 2.320382 1_445
Ca0 O38 2.380994 1_555
Ca1 O3 2.199267 1_555
Ca1 O5 2.200373 1_455
Ca1 O4 2.272810 1_445
Ca1 O40 2.318893 1_555
Ca1 O41 2.320382 1_445
Ca1 O39 2.380994 1_555
Ca2 O14 2.199267 1_555
Ca2 O12 2.200373 1_555
Ca2 O13 2.272810 1_555
Ca2 O49 2.318893 1_555
Ca2 O48 2.320382 1_555
Ca2 O50 2.380994 1_555
Ca3 O15 2.199267 1_555
Ca3 O17 2.200373 1_555
Ca3 O16 2.272810 1_555
Ca3 O52 2.318893 1_555
Ca3 O53 2.320382 1_555
Ca3 O51 2.380994 1_555
Ca4 O26 2.199267 1_554
Ca4 O24 2.200373 1_554
Ca4 O25 2.272810 1_554
Ca4 O61 2.318893 1_555
Ca4 O60 2.320382 1_555
Ca4 O62 2.380994 1_555
Ca5 O27 2.199267 1_555
Ca5 O29 2.200373 1_555
Ca5 O28 2.272810 1_555
Ca5 O64 2.318893 1_555
Ca5 O65 2.320382 1_555
Ca5 O63 2.380994 1_555
O0 Si0 1.595656 1_545
O1 S0 1.467060 1_555
O2 Si1 1.600028 1_655
O3 Si2 1.600028 1_555
O4 S1 1.467060 1_655
O5 Si3 1.595656 1_545
O6 Si3 1.702779 1_555
O6 Zr0 1.999191 1_565
O7 Si2 1.699493 1_555
O7 Zr0 2.062712 1_455
O8 S1 1.503811 1_555
O8 Zr0 2.399638 1_465
O9 S0 1.503811 1_555
O9 Zr1 2.399638 1_665
O10 Si1 1.699493 1_555
O10 Zr1 2.062712 1_555
O11 Si0 1.702779 1_555
O11 Zr1 1.999191 1_565
O12 Si4 1.595656 1_555
O13 S2 1.467060 1_555
O14 Si5 1.600028 1_555
O15 Si6 1.600028 1_555
O16 S3 1.467060 1_555
O17 Si7 1.595656 1_555
O18 Si7 1.702779 1_555
O18 Zr2 1.999191 1_554
O19 Si6 1.699493 1_555
O19 Zr2 2.062712 1_554
O20 S3 1.503811 1_555
O20 Zr2 2.399638 1_554
O21 S2 1.503811 1_555
O21 Zr3 2.399638 1_555
O22 Si5 1.699493 1_555
O22 Zr3 2.062712 1_555
O23 Si4 1.702779 1_555
O23 Zr3 1.999191 1_555
O24 Si8 1.595656 1_555
O25 S4 1.467060 1_555
O26 Si9 1.600028 1_555
O27 Si10 1.600028 1_555
O28 S5 1.467060 1_555
O29 Si11 1.595656 1_555
O30 Si11 1.702779 1_555
O30 Zr4 1.999191 1_555
O31 Si10 1.699493 1_555
O31 Zr4 2.062712 1_555
O32 S5 1.503811 1_555
O32 Zr4 2.399638 1_555
O33 S4 1.503811 1_555
O33 Zr5 2.399638 1_555
O34 Si9 1.699493 1_555
O34 Zr5 2.062712 1_555
O35 Si8 1.702779 1_555
O35 Zr5 1.999191 1_555
O36 Si11 1.623738 1_655
O37 Si10 1.629684 1_545
O38 S5 1.483302 1_555
O39 S4 1.483306 1_555
O40 Si9 1.629675 1_545
O41 Si8 1.623744 1_555
O42 Si4 1.688627 1_555
O42 Zr0 2.050276 1_555
O43 S2 1.501586 1_555
O43 Zr0 2.411203 1_455
O44 Si5 1.683905 1_555
O44 Zr0 2.132944 1_565
O45 Si6 1.683910 1_555
O45 Zr1 2.132944 1_665
O46 S3 1.501577 1_555
O46 Zr1 2.411203 1_655
O47 Si7 1.688632 1_555
O47 Zr1 2.050276 1_555
O48 Si3 1.623738 1_545
O49 Si2 1.629684 1_555
O50 S1 1.483302 1_655
O51 S0 1.483306 1_555
O52 Si1 1.629675 1_655
O53 Si0 1.623744 1_545
O54 Si8 1.688641 1_555
O54 Zr2 2.050276 1_555
O55 S4 1.501572 1_655
O55 Zr2 2.411203 1_555
O56 Si9 1.683905 1_545
O56 Zr2 2.132944 1_555
O57 Si10 1.683895 1_545
O57 Zr3 2.132944 1_555
O58 S5 1.501591 1_555
O58 Zr3 2.411203 1_555
O59 Si11 1.688632 1_655
O59 Zr3 2.050276 1_555
O60 Si7 1.623751 1_555
O61 Si6 1.629670 1_455
O62 S3 1.483299 1_565
O63 S2 1.483291 1_565
O64 Si5 1.629688 1_555
O65 Si4 1.623739 1_455
O66 Si0 1.688627 1_555
O66 Zr4 2.050276 1_555
O67 S0 1.501586 1_555
O67 Zr4 2.411203 1_555
O68 Si1 1.683905 1_555
O68 Zr4 2.132944 1_555
O69 Si2 1.683910 1_555
O69 Zr5 2.132944 1_555
O70 S1 1.501577 1_555
O70 Zr5 2.411203 1_555
O71 Si3 1.688632 1_555
O71 Zr5 2.050276 1_555
