# generated using pymatgen
data_Mo5PbO8
_symmetry_space_group_name_H-M   'P 1'
_cell_length_a   9.91999500
_cell_length_b   8.47897800
_cell_length_c   10.74420523
_cell_angle_alpha   70.68003342
_cell_angle_beta   90.00000000
_cell_angle_gamma   90.00000000
_symmetry_Int_Tables_number   1
_chemical_formula_structural   Mo5PbO8
_chemical_formula_sum   'Mo20 Pb4 O32'
_cell_volume   852.81854999
_cell_formula_units_Z   4
loop_
 _symmetry_equiv_pos_site_id
 _symmetry_equiv_pos_as_xyz
  1  'x, y, z'
loop_
 _atom_site_type_symbol
 _atom_site_label
 _atom_site_symmetry_multiplicity
 _atom_site_fract_x
 _atom_site_fract_y
 _atom_site_fract_z
 _atom_site_occupancy
  Mo  Mo0  1  0.35878500  0.60485400  0.01489000  1
  Mo  Mo1  1  0.85878500  0.39514600  0.48511000  1
  Mo  Mo2  1  0.64121500  0.39514600  0.98511000  1
  Mo  Mo3  1  0.14121500  0.60485400  0.51489000  1
  Mo  Mo4  1  0.36965800  0.41372800  0.79866000  1
  Mo  Mo5  1  0.86965800  0.58627200  0.70134000  1
  Mo  Mo6  1  0.63034200  0.58627200  0.20134000  1
  Mo  Mo7  1  0.13034200  0.41372800  0.29866000  1
  Mo  Mo8  1  0.36403200  0.79026200  0.21993200  1
  Mo  Mo9  1  0.86403200  0.20973800  0.28006800  1
  Mo  Mo10  1  0.63596800  0.20973800  0.78006800  1
  Mo  Mo11  1  0.13596800  0.79026200  0.71993200  1
  Mo  Mo12  1  0.37917400  0.20199200  0.12142000  1
  Mo  Mo13  1  0.87917400  0.79800800  0.37858000  1
  Mo  Mo14  1  0.62082600  0.79800800  0.87858000  1
  Mo  Mo15  1  0.12082600  0.20199200  0.62142000  1
  Mo  Mo16  1  0.34519900  0.00675600  0.89659900  1
  Mo  Mo17  1  0.84519900  0.99324400  0.60340100  1
  Mo  Mo18  1  0.65480100  0.99324400  0.10340100  1
  Mo  Mo19  1  0.15480100  0.00675600  0.39659900  1
  Pb  Pb0  1  0.96162400  0.69245600  0.03132600  1
  Pb  Pb1  1  0.46162400  0.30754400  0.46867400  1
  Pb  Pb2  1  0.03837600  0.30754400  0.96867400  1
  Pb  Pb3  1  0.53837600  0.69245600  0.53132600  1
  O  O0  1  0.23627700  0.61658000  0.17192900  1
  O  O1  1  0.73627700  0.38342000  0.32807100  1
  O  O2  1  0.76372300  0.38342000  0.82807100  1
  O  O3  1  0.26372300  0.61658000  0.67192900  1
  O  O4  1  0.50869200  0.40474600  0.64794200  1
  O  O5  1  0.00869200  0.59525400  0.85205800  1
  O  O6  1  0.49130800  0.59525400  0.35205800  1
  O  O7  1  0.99130800  0.40474600  0.14794200  1
  O  O8  1  0.27990300  0.00704000  0.07259800  1
  O  O9  1  0.77990300  0.99296000  0.42740200  1
  O  O10  1  0.72009700  0.99296000  0.92740200  1
  O  O11  1  0.22009700  0.00704000  0.57259800  1
  O  O12  1  0.24573100  0.21027700  0.78033700  1
  O  O13  1  0.74573100  0.78972300  0.71966300  1
  O  O14  1  0.75426900  0.78972300  0.21966300  1
  O  O15  1  0.25426900  0.21027700  0.28033700  1
  O  O16  1  0.24212000  0.80885600  0.88484300  1
  O  O17  1  0.74212000  0.19114400  0.61515700  1
  O  O18  1  0.75788000  0.19114400  0.11515700  1
  O  O19  1  0.25788000  0.80885600  0.38484300  1
  O  O20  1  0.49964300  0.01073500  0.77772900  1
  O  O21  1  0.99964300  0.98926500  0.72227100  1
  O  O22  1  0.50035700  0.98926500  0.22227100  1
  O  O23  1  0.00035700  0.01073500  0.27772900  1
  O  O24  1  0.23563100  0.39819600  0.47998900  1
  O  O25  1  0.73563100  0.60180400  0.02001100  1
  O  O26  1  0.76436900  0.60180400  0.52001100  1
  O  O27  1  0.26436900  0.39819600  0.97998900  1
  O  O28  1  0.00187300  0.41582100  0.63548000  1
  O  O29  1  0.50187300  0.58417900  0.86452000  1
  O  O30  1  0.99812700  0.58417900  0.36452000  1
  O  O31  1  0.49812700  0.41582100  0.13548000  1
loop_
_geom_bond_atom_site_label_1
_geom_bond_atom_site_label_2
_geom_bond_distance
_geom_bond_site_symmetry_2
Mo0 O0 2.108230 1_555
Mo0 O27 2.126732 1_554
Mo0 O16 2.164358 1_554
Mo0 O31 2.187294 1_555
Mo0 O29 2.200706 1_554
Mo1 O1 2.108230 1_555
Mo1 O26 2.126732 1_555
Mo1 O17 2.164358 1_555
Mo1 O30 2.187294 1_555
Mo1 O28 2.200706 1_655
Mo2 O2 2.108230 1_555
Mo2 O25 2.126732 1_556
Mo2 O18 2.164358 1_556
Mo2 O29 2.187294 1_555
Mo2 O31 2.200706 1_556
Mo3 O3 2.108230 1_555
Mo3 O24 2.126732 1_555
Mo3 O19 2.164358 1_555
Mo3 O28 2.187294 1_555
Mo3 O30 2.200706 1_455
Mo4 O3 2.089745 1_555
Mo4 O4 2.147538 1_555
Mo4 O27 2.175800 1_555
Mo4 O12 2.179588 1_555
Mo4 O29 2.233020 1_555
Mo5 O2 2.089745 1_555
Mo5 O5 2.147538 1_655
Mo5 O26 2.175800 1_555
Mo5 O13 2.179588 1_555
Mo5 O28 2.233020 1_655
Mo6 O1 2.089745 1_555
Mo6 O6 2.147538 1_555
Mo6 O25 2.175800 1_555
Mo6 O14 2.179588 1_555
Mo6 O31 2.233020 1_555
Mo7 O0 2.089745 1_555
Mo7 O7 2.147538 1_455
Mo7 O24 2.175800 1_555
Mo7 O15 2.179588 1_555
Mo7 O30 2.233020 1_455
Mo8 O19 2.111390 1_555
Mo8 O0 2.131520 1_555
Mo8 O8 2.157668 1_565
Mo8 O22 2.169019 1_555
Mo8 O6 2.188641 1_555
Mo9 O18 2.111390 1_555
Mo9 O1 2.131520 1_555
Mo9 O9 2.157668 1_545
Mo9 O23 2.169019 1_655
Mo9 O7 2.188641 1_555
Mo10 O17 2.111390 1_555
Mo10 O2 2.131520 1_555
Mo10 O10 2.157668 1_545
Mo10 O20 2.169019 1_555
Mo10 O4 2.188641 1_555
Mo11 O16 2.111390 1_555
Mo11 O3 2.131520 1_555
Mo11 O11 2.157668 1_565
Mo11 O21 2.169019 1_455
Mo11 O5 2.188641 1_555
Mo12 O15 2.129531 1_555
Mo12 O8 2.133319 1_555
Mo12 O22 2.139948 1_545
Mo12 O27 2.168171 1_554
Mo12 O31 2.209894 1_555
Mo13 O14 2.129531 1_555
Mo13 O9 2.133319 1_555
Mo13 O23 2.139948 1_665
Mo13 O26 2.168171 1_555
Mo13 O30 2.209894 1_555
Mo14 O13 2.129531 1_555
Mo14 O10 2.133319 1_555
Mo14 O20 2.139948 1_565
Mo14 O25 2.168171 1_556
Mo14 O29 2.209894 1_555
Mo15 O12 2.129531 1_555
Mo15 O11 2.133319 1_555
Mo15 O21 2.139948 1_445
Mo15 O24 2.168171 1_555
Mo15 O28 2.209894 1_555
Mo16 O20 1.987726 1_555
Mo16 O8 1.999586 1_556
Mo16 O16 2.004355 1_545
Mo16 O12 2.021268 1_555
Mo17 O21 1.987726 1_555
Mo17 O9 1.999586 1_555
Mo17 O17 2.004355 1_565
Mo17 O13 2.021268 1_555
Mo18 O22 1.987726 1_555
Mo18 O10 1.999586 1_554
Mo18 O18 2.004355 1_565
Mo18 O14 2.021268 1_555
Mo19 O23 1.987726 1_555
Mo19 O11 1.999586 1_555
Mo19 O19 2.004355 1_545
Mo19 O15 2.021268 1_555
O4 Pb3 2.363304 1_555
O4 Pb1 2.378547 1_555
O5 Pb2 2.363304 1_555
O5 Pb0 2.378547 1_456
O6 Pb1 2.363304 1_555
O6 Pb3 2.378547 1_555
O7 Pb0 2.363304 1_555
O7 Pb2 2.378547 1_654
O24 Pb1 2.386064 1_555
O25 Pb0 2.386064 1_555
O26 Pb3 2.386064 1_555
O27 Pb2 2.386064 1_555
