# generated using pymatgen
data_MgTe2Mo2W(SeS)2
_symmetry_space_group_name_H-M   'P 1'
_cell_length_a   6.70228694
_cell_length_b   6.70134813
_cell_length_c   72.82388222
_cell_angle_alpha   90.20105285
_cell_angle_beta   89.87659590
_cell_angle_gamma   120.03478974
_symmetry_Int_Tables_number   1
_chemical_formula_structural   MgTe2Mo2W(SeS)2
_chemical_formula_sum   'Mg8 Te16 Mo16 W8 Se16 S16'
_cell_volume   2831.61745732
_cell_formula_units_Z   8
loop_
 _symmetry_equiv_pos_site_id
 _symmetry_equiv_pos_as_xyz
  1  'x, y, z'
loop_
 _atom_site_type_symbol
 _atom_site_label
 _atom_site_symmetry_multiplicity
 _atom_site_fract_x
 _atom_site_fract_y
 _atom_site_fract_z
 _atom_site_occupancy
  Mg  Mg0_0  1  0.49946050  0.00170800  0.12091150  1
  Mg  Mg0_1  1  0.49946050  0.00170800  0.62091150  1
  Mg  Mg0_2  1  0.49946050  0.50170800  0.12091150  1
  Mg  Mg0_3  1  0.49946050  0.50170800  0.62091150  1
  Mg  Mg0_4  1  0.99946050  0.00170800  0.12091150  1
  Mg  Mg0_5  1  0.99946050  0.00170800  0.62091150  1
  Mg  Mg0_6  1  0.99946050  0.50170800  0.12091150  1
  Mg  Mg0_7  1  0.99946050  0.50170800  0.62091150  1
  Te  Te0_0  1  0.33343300  0.16611150  0.26318150  1
  Te  Te0_1  1  0.33343300  0.16611150  0.76318150  1
  Te  Te0_2  1  0.33343300  0.66611150  0.26318150  1
  Te  Te0_3  1  0.33343300  0.66611150  0.76318150  1
  Te  Te0_4  1  0.83343300  0.16611150  0.26318150  1
  Te  Te0_5  1  0.83343300  0.16611150  0.76318150  1
  Te  Te0_6  1  0.83343300  0.66611150  0.26318150  1
  Te  Te0_7  1  0.83343300  0.66611150  0.76318150  1
  Te  Te1_0  1  0.33315550  0.16735900  0.31552750  1
  Te  Te1_1  1  0.33315550  0.16735900  0.81552750  1
  Te  Te1_2  1  0.33315550  0.66735900  0.31552750  1
  Te  Te1_3  1  0.33315550  0.66735900  0.81552750  1
  Te  Te1_4  1  0.83315550  0.16735900  0.31552750  1
  Te  Te1_5  1  0.83315550  0.16735900  0.81552750  1
  Te  Te1_6  1  0.83315550  0.66735900  0.31552750  1
  Te  Te1_7  1  0.83315550  0.66735900  0.81552750  1
  Mo  Mo0_0  1  0.16669750  0.33362550  0.05412600  1
  Mo  Mo0_1  1  0.16669750  0.33362550  0.55412600  1
  Mo  Mo0_2  1  0.16669750  0.83362550  0.05412600  1
  Mo  Mo0_3  1  0.16669750  0.83362550  0.55412600  1
  Mo  Mo0_4  1  0.66669750  0.33362550  0.05412600  1
  Mo  Mo0_5  1  0.66669750  0.33362550  0.55412600  1
  Mo  Mo0_6  1  0.66669750  0.83362550  0.05412600  1
  Mo  Mo0_7  1  0.66669750  0.83362550  0.55412600  1
  Mo  Mo1_0  1  0.33346450  0.16588150  0.17641600  1
  Mo  Mo1_1  1  0.33346450  0.16588150  0.67641600  1
  Mo  Mo1_2  1  0.33346450  0.66588150  0.17641600  1
  Mo  Mo1_3  1  0.33346450  0.66588150  0.67641600  1
  Mo  Mo1_4  1  0.83346450  0.16588150  0.17641600  1
  Mo  Mo1_5  1  0.83346450  0.16588150  0.67641600  1
  Mo  Mo1_6  1  0.83346450  0.66588150  0.17641600  1
  Mo  Mo1_7  1  0.83346450  0.66588150  0.67641600  1
  W  W0_0  1  0.16669550  0.33329050  0.28936000  1
  W  W0_1  1  0.16669550  0.33329050  0.78936000  1
  W  W0_2  1  0.16669550  0.83329050  0.28936000  1
  W  W0_3  1  0.16669550  0.83329050  0.78936000  1
  W  W0_4  1  0.66669550  0.33329050  0.28936000  1
  W  W0_5  1  0.66669550  0.33329050  0.78936000  1
  W  W0_6  1  0.66669550  0.83329050  0.28936000  1
  W  W0_7  1  0.66669550  0.83329050  0.78936000  1
  Se  Se0_0  1  0.33337950  0.16633150  0.03131550  1
  Se  Se0_1  1  0.33337950  0.16633150  0.53131550  1
  Se  Se0_2  1  0.33337950  0.66633150  0.03131550  1
  Se  Se0_3  1  0.33337950  0.66633150  0.53131550  1
  Se  Se0_4  1  0.83337950  0.16633150  0.03131550  1
  Se  Se0_5  1  0.83337950  0.16633150  0.53131550  1
  Se  Se0_6  1  0.83337950  0.66633150  0.03131550  1
  Se  Se0_7  1  0.83337950  0.66633150  0.53131550  1
  Se  Se1_0  1  0.33325100  0.16764900  0.07714950  1
  Se  Se1_1  1  0.33325100  0.16764900  0.57714950  1
  Se  Se1_2  1  0.33325100  0.66764900  0.07714950  1
  Se  Se1_3  1  0.33325100  0.66764900  0.57714950  1
  Se  Se1_4  1  0.83325100  0.16764900  0.07714950  1
  Se  Se1_5  1  0.83325100  0.16764900  0.57714950  1
  Se  Se1_6  1  0.83325100  0.66764900  0.07714950  1
  Se  Se1_7  1  0.83325100  0.66764900  0.57714950  1
  S  S0_0  1  0.16669050  0.33355050  0.19703700  1
  S  S0_1  1  0.16669050  0.33355050  0.69703700  1
  S  S0_2  1  0.16669050  0.83355050  0.19703700  1
  S  S0_3  1  0.16669050  0.83355050  0.69703700  1
  S  S0_4  1  0.66669050  0.33355050  0.19703700  1
  S  S0_5  1  0.66669050  0.33355050  0.69703700  1
  S  S0_6  1  0.66669050  0.83355050  0.19703700  1
  S  S0_7  1  0.66669050  0.83355050  0.69703700  1
  S  S1_0  1  0.16707250  0.33109200  0.15514600  1
  S  S1_1  1  0.16707250  0.33109200  0.65514600  1
  S  S1_2  1  0.16707250  0.83109200  0.15514600  1
  S  S1_3  1  0.16707250  0.83109200  0.65514600  1
  S  S1_4  1  0.66707250  0.33109200  0.15514600  1
  S  S1_5  1  0.66707250  0.33109200  0.65514600  1
  S  S1_6  1  0.66707250  0.83109200  0.15514600  1
  S  S1_7  1  0.66707250  0.83109200  0.65514600  1
loop_
_geom_bond_atom_site_label_1
_geom_bond_atom_site_label_2
_geom_bond_distance
_geom_bond_site_symmetry_2
Mg0_0 S1_4 3.137022 1_555
Mg0_0 S1_2 3.151500 1_545
Mg0_0 S1_6 3.178459 1_545
Mg0_0 Mg0_6 3.349147 1_555
Mg0_0 Mg0_6 3.349147 1_445
Mg0_0 Mg0_2 3.350674 1_555
Mg0_0 Mg0_2 3.350674 1_545
Mg0_0 Mg0_4 3.351143 1_455
Mg0_0 Mg0_4 3.351143 1_555
Mg0_1 S1_5 3.137022 1_555
Mg0_1 S1_3 3.151500 1_545
Mg0_1 S1_7 3.178459 1_545
Mg0_1 Mg0_7 3.349147 1_555
Mg0_1 Mg0_7 3.349147 1_445
Mg0_1 Mg0_3 3.350674 1_555
Mg0_1 Mg0_3 3.350674 1_545
Mg0_1 Mg0_5 3.351143 1_455
Mg0_1 Mg0_5 3.351143 1_555
Mg0_2 S1_6 3.137022 1_555
Mg0_2 S1_0 3.151500 1_555
Mg0_2 S1_4 3.178459 1_555
Mg0_2 Mg0_4 3.349147 1_455
Mg0_2 Mg0_4 3.349147 1_565
Mg0_2 Mg0_6 3.351143 1_455
Mg0_2 Mg0_6 3.351143 1_555
Mg0_3 S1_7 3.137022 1_555
Mg0_3 S1_1 3.151500 1_555
Mg0_3 S1_5 3.178459 1_555
Mg0_3 Mg0_5 3.349147 1_455
Mg0_3 Mg0_5 3.349147 1_565
Mg0_3 Mg0_7 3.351143 1_555
Mg0_3 Mg0_7 3.351143 1_455
Mg0_4 S1_0 3.137022 1_655
Mg0_4 S1_6 3.151500 1_545
Mg0_4 S1_2 3.178459 1_645
Mg0_4 Mg0_6 3.350674 1_555
Mg0_4 Mg0_6 3.350674 1_545
Mg0_5 S1_1 3.137022 1_655
Mg0_5 S1_7 3.151500 1_545
Mg0_5 S1_3 3.178459 1_645
Mg0_5 Mg0_7 3.350674 1_545
Mg0_5 Mg0_7 3.350674 1_555
Mg0_6 S1_2 3.137022 1_655
Mg0_6 S1_4 3.151500 1_555
Mg0_6 S1_0 3.178459 1_655
Mg0_7 S1_3 3.137022 1_655
Mg0_7 S1_5 3.151500 1_555
Mg0_7 S1_1 3.178459 1_655
Te0_0 W0_0 2.714325 1_555
Te0_0 W0_4 2.716058 1_555
Te0_0 W0_2 2.717228 1_545
Te0_1 W0_1 2.714325 1_555
Te0_1 W0_5 2.716058 1_555
Te0_1 W0_3 2.717228 1_545
Te0_2 W0_2 2.714325 1_555
Te0_2 W0_6 2.716058 1_555
Te0_2 W0_0 2.717228 1_555
Te0_3 W0_3 2.714325 1_555
Te0_3 W0_7 2.716058 1_555
Te0_3 W0_1 2.717228 1_555
Te0_4 W0_4 2.714325 1_555
Te0_4 W0_0 2.716058 1_655
Te0_4 W0_6 2.717228 1_545
Te0_5 W0_5 2.714325 1_555
Te0_5 W0_1 2.716058 1_655
Te0_5 W0_7 2.717228 1_545
Te0_6 W0_6 2.714325 1_555
Te0_6 W0_2 2.716058 1_655
Te0_6 W0_4 2.717228 1_555
Te0_7 W0_7 2.714325 1_555
Te0_7 W0_3 2.716058 1_655
Te0_7 W0_5 2.717228 1_555
Te1_0 W0_2 2.714195 1_545
Te1_0 W0_4 2.715392 1_555
Te1_0 W0_0 2.716333 1_555
Te1_1 W0_3 2.714195 1_545
Te1_1 W0_5 2.715392 1_555
Te1_1 W0_1 2.716333 1_555
Te1_2 W0_0 2.714195 1_555
Te1_2 W0_6 2.715392 1_555
Te1_2 W0_2 2.716333 1_555
Te1_3 W0_1 2.714195 1_555
Te1_3 W0_7 2.715392 1_555
Te1_3 W0_3 2.716333 1_555
Te1_4 W0_6 2.714195 1_545
Te1_4 W0_0 2.715392 1_655
Te1_4 W0_4 2.716333 1_555
Te1_5 W0_7 2.714195 1_545
Te1_5 W0_1 2.715392 1_655
Te1_5 W0_5 2.716333 1_555
Te1_6 W0_4 2.714195 1_555
Te1_6 W0_2 2.715392 1_655
Te1_6 W0_6 2.716333 1_555
Te1_7 W0_5 2.714195 1_555
Te1_7 W0_3 2.715392 1_655
Te1_7 W0_7 2.716333 1_555
Mo0_0 Se0_0 2.548918 1_555
Mo0_0 Se0_4 2.550051 1_455
Mo0_0 Se0_2 2.550111 1_555
Mo0_0 Se1_2 2.558935 1_555
Mo0_0 Se1_4 2.559586 1_455
Mo0_0 Se1_0 2.560956 1_555
Mo0_1 Se0_1 2.548918 1_555
Mo0_1 Se0_5 2.550051 1_455
Mo0_1 Se0_3 2.550111 1_555
Mo0_1 Se1_3 2.558935 1_555
Mo0_1 Se1_5 2.559586 1_455
Mo0_1 Se1_1 2.560956 1_555
Mo0_2 Se0_2 2.548918 1_555
Mo0_2 Se0_6 2.550051 1_455
Mo0_2 Se0_0 2.550111 1_565
Mo0_2 Se1_0 2.558935 1_565
Mo0_2 Se1_6 2.559586 1_455
Mo0_2 Se1_2 2.560956 1_555
Mo0_3 Se0_3 2.548918 1_555
Mo0_3 Se0_7 2.550051 1_455
Mo0_3 Se0_1 2.550111 1_565
Mo0_3 Se1_1 2.558935 1_565
Mo0_3 Se1_7 2.559586 1_455
Mo0_3 Se1_3 2.560956 1_555
Mo0_4 Se0_4 2.548918 1_555
Mo0_4 Se0_0 2.550051 1_555
Mo0_4 Se0_6 2.550111 1_555
Mo0_4 Se1_6 2.558935 1_555
Mo0_4 Se1_0 2.559586 1_555
Mo0_4 Se1_4 2.560956 1_555
Mo0_5 Se0_5 2.548918 1_555
Mo0_5 Se0_1 2.550051 1_555
Mo0_5 Se0_7 2.550111 1_555
Mo0_5 Se1_7 2.558935 1_555
Mo0_5 Se1_1 2.559586 1_555
Mo0_5 Se1_5 2.560956 1_555
Mo0_6 Se0_6 2.548918 1_555
Mo0_6 Se0_2 2.550051 1_555
Mo0_6 Se0_4 2.550111 1_565
Mo0_6 Se1_4 2.558935 1_565
Mo0_6 Se1_2 2.559586 1_555
Mo0_6 Se1_6 2.560956 1_555
Mo0_7 Se0_7 2.548918 1_555
Mo0_7 Se0_3 2.550051 1_555
Mo0_7 Se0_5 2.550111 1_565
Mo0_7 Se1_5 2.558935 1_565
Mo0_7 Se1_3 2.559586 1_555
Mo0_7 Se1_7 2.560956 1_555
Mo1_0 S0_2 2.447164 1_545
Mo1_0 S0_4 2.448693 1_555
Mo1_0 S0_0 2.450548 1_555
Mo1_0 S1_0 2.474707 1_555
Mo1_0 S1_4 2.478604 1_555
Mo1_0 S1_2 2.480899 1_545
Mo1_1 S0_3 2.447164 1_545
Mo1_1 S0_5 2.448693 1_555
Mo1_1 S0_1 2.450548 1_555
Mo1_1 S1_1 2.474707 1_555
Mo1_1 S1_5 2.478604 1_555
Mo1_1 S1_3 2.480899 1_545
Mo1_2 S0_0 2.447164 1_555
Mo1_2 S0_6 2.448693 1_555
Mo1_2 S0_2 2.450548 1_555
Mo1_2 S1_2 2.474707 1_555
Mo1_2 S1_6 2.478604 1_555
Mo1_2 S1_0 2.480899 1_555
Mo1_3 S0_1 2.447164 1_555
Mo1_3 S0_7 2.448693 1_555
Mo1_3 S0_3 2.450548 1_555
Mo1_3 S1_3 2.474707 1_555
Mo1_3 S1_7 2.478604 1_555
Mo1_3 S1_1 2.480899 1_555
Mo1_4 S0_6 2.447164 1_545
Mo1_4 S0_0 2.448693 1_655
Mo1_4 S0_4 2.450548 1_555
Mo1_4 S1_4 2.474707 1_555
Mo1_4 S1_0 2.478604 1_655
Mo1_4 S1_6 2.480899 1_545
Mo1_5 S0_7 2.447164 1_545
Mo1_5 S0_1 2.448693 1_655
Mo1_5 S0_5 2.450548 1_555
Mo1_5 S1_5 2.474707 1_555
Mo1_5 S1_1 2.478604 1_655
Mo1_5 S1_7 2.480899 1_545
Mo1_6 S0_4 2.447164 1_555
Mo1_6 S0_2 2.448693 1_655
Mo1_6 S0_6 2.450548 1_555
Mo1_6 S1_6 2.474707 1_555
Mo1_6 S1_2 2.478604 1_655
Mo1_6 S1_4 2.480899 1_555
Mo1_7 S0_5 2.447164 1_555
Mo1_7 S0_3 2.448693 1_655
Mo1_7 S0_7 2.450548 1_555
Mo1_7 S1_7 2.474707 1_555
Mo1_7 S1_3 2.478604 1_655
Mo1_7 S1_5 2.480899 1_555
