# generated using pymatgen
data_Na3Sc3TaP5SO24
_symmetry_space_group_name_H-M   'P 1'
_cell_length_a   8.86312684
_cell_length_b   8.84962768
_cell_length_c   22.98597008
_cell_angle_alpha   89.95338310
_cell_angle_beta   90.10091040
_cell_angle_gamma   120.13303874
_symmetry_Int_Tables_number   1
_chemical_formula_structural   Na3Sc3TaP5SO24
_chemical_formula_sum   'Na9 Sc9 Ta3 P15 S3 O72'
_cell_volume   1559.26878918
_cell_formula_units_Z   3
loop_
 _symmetry_equiv_pos_site_id
 _symmetry_equiv_pos_as_xyz
  1  'x, y, z'
loop_
 _atom_site_type_symbol
 _atom_site_label
 _atom_site_symmetry_multiplicity
 _atom_site_fract_x
 _atom_site_fract_y
 _atom_site_fract_z
 _atom_site_occupancy
  Na  Na0  1  0.64488812  0.63939411  0.74756140  1
  Na  Na1  1  0.30068283  0.96372746  0.08496425  1
  Na  Na2  1  0.32933429  0.02333780  0.41316364  1
  Na  Na3  1  0.98427082  0.99930954  0.50096499  1
  Na  Na4  1  0.98959454  0.00036019  0.99817363  1
  Na  Na5  1  0.66604800  0.32246022  0.83041928  1
  Na  Na6  1  0.66904511  0.33621888  0.32761561  1
  Na  Na7  1  0.33287316  0.66094423  0.16717858  1
  Na  Na8  1  0.32213343  0.66053699  0.66091333  1
  Sc  Sc0  1  0.00080800  0.00228662  0.35210083  1
  Sc  Sc1  1  0.00247565  0.00233516  0.85271774  1
  Sc  Sc2  1  0.99488953  0.00137532  0.64797555  1
  Sc  Sc3  1  0.99986425  0.99823032  0.14546085  1
  Sc  Sc4  1  0.67322851  0.33391699  0.68616128  1
  Sc  Sc5  1  0.66118787  0.32882179  0.18501365  1
  Sc  Sc6  1  0.33431756  0.66113598  0.01929421  1
  Sc  Sc7  1  0.33498696  0.65877677  0.51815581  1
  Sc  Sc8  1  0.33345348  0.67225907  0.31620782  1
  Ta  Ta0  1  0.66880830  0.33546349  0.97910599  1
  Ta  Ta1  1  0.67753825  0.34321264  0.48090899  1
  Ta  Ta2  1  0.32838478  0.66594345  0.81536923  1
  P  P0  1  0.29387429  0.99912589  0.25000579  1
  P  P1  1  0.29114051  0.29150960  0.75085833  1
  P  P2  1  0.00334299  0.71214749  0.75045617  1
  P  P3  1  0.70705401  0.00016478  0.75191328  1
  P  P4  1  0.95993637  0.33398412  0.58390347  1
  P  P5  1  0.66741199  0.62621778  0.58529755  1
  P  P6  1  0.95546106  0.62134181  0.08389584  1
  P  P7  1  0.66897352  0.04523920  0.08272738  1
  P  P8  1  0.37915203  0.33561647  0.08330176  1
  P  P9  1  0.62408361  0.66661670  0.91708649  1
  P  P10  1  0.04151847  0.37532894  0.91802109  1
  P  P11  1  0.33371529  0.95786539  0.91902580  1
  P  P12  1  0.62699298  0.95926991  0.41862653  1
  P  P13  1  0.33472009  0.37466123  0.41695927  1
  P  P14  1  0.04376587  0.66751807  0.41721599  1
  S  S0  1  0.70683968  0.70737274  0.25000347  1
  S  S1  1  0.00073015  0.29356314  0.24963459  1
  S  S2  1  0.37631722  0.04297465  0.58229329  1
  O  O0  1  0.20611423  0.01973496  0.30542816  1
  O  O1  1  0.81131480  0.79197405  0.30252978  1
  O  O2  1  0.97666317  0.18770328  0.30224838  1
  O  O3  1  0.20897115  0.18366330  0.80488259  1
  O  O4  1  0.97034301  0.79270020  0.80388857  1
  O  O5  1  0.81583884  0.02396454  0.80556815  1
  O  O6  1  0.77795295  0.95358811  0.69748169  1
  O  O7  1  0.18068039  0.21652819  0.69580413  1
  O  O8  1  0.03778729  0.82184733  0.69534664  1
  O  O9  1  0.78930845  0.81363579  0.19741739  1
  O  O10  1  0.01993624  0.20794593  0.19721183  1
  O  O11  1  0.18460862  0.97859088  0.19434498  1
  O  O12  1  0.86944414  0.35405285  0.63717795  1
  O  O13  1  0.48244883  0.12770178  0.63394102  1
  O  O14  1  0.64312657  0.51898737  0.64041356  1
  O  O15  1  0.86977106  0.51177207  0.13724705  1
  O  O16  1  0.63647532  0.12812157  0.13589430  1
  O  O17  1  0.48776795  0.35846345  0.13716987  1
  O  O18  1  0.47534846  0.31092101  0.02848316  1
  O  O19  1  0.83901695  0.52508937  0.02833868  1
  O  O20  1  0.68865766  0.16303510  0.02758633  1
  O  O21  1  0.46483460  0.15016898  0.52818404  1
  O  O22  1  0.68152650  0.51981084  0.53115283  1
  O  O23  1  0.84052465  0.31536002  0.52894653  1
  O  O24  1  0.53615173  0.68894709  0.97009397  1
  O  O25  1  0.15038730  0.46226465  0.97141902  1
  O  O26  1  0.31216387  0.85428769  0.97415387  1
  O  O27  1  0.54106795  0.85045882  0.47246062  1
  O  O28  1  0.30701155  0.45545875  0.47118349  1
  O  O29  1  0.15722091  0.69982242  0.47071368  1
  O  O30  1  0.11666820  0.62918025  0.36255042  1
  O  O31  1  0.50838693  0.88732585  0.36451154  1
  O  O32  1  0.37109124  0.48609617  0.36258210  1
  O  O33  1  0.13313383  0.49482212  0.86316226  1
  O  O34  1  0.36031779  0.86292452  0.86481183  1
  O  O35  1  0.50781948  0.63720571  0.86114871  1
  O  O36  1  0.01997158  0.82737469  0.41014856  1
  O  O37  1  0.81016301  0.98862338  0.41040022  1
  O  O38  1  0.18122165  0.18516535  0.41092456  1
  O  O39  1  0.01586599  0.19454741  0.90980695  1
  O  O40  1  0.17842820  0.98247823  0.90976664  1
  O  O41  1  0.80574442  0.82173333  0.90945214  1
  O  O42  1  0.97035286  0.16611412  0.58511682  1
  O  O43  1  0.20488324  0.03182269  0.58509333  1
  O  O44  1  0.83759572  0.80280475  0.58530075  1
  O  O45  1  0.97301030  0.80468540  0.08559033  1
  O  O46  1  0.83364833  0.03168746  0.08614591  1
  O  O47  1  0.20211677  0.16245105  0.08528555  1
  O  O48  1  0.67588103  0.15374284  0.74446440  1
  O  O49  1  0.48091265  0.32965344  0.74472233  1
  O  O50  1  0.84075722  0.52750673  0.74460423  1
  O  O51  1  0.69192106  0.53354971  0.24558834  1
  O  O52  1  0.84498523  0.31350937  0.24519961  1
  O  O53  1  0.47665779  0.16454023  0.24611852  1
  O  O54  1  0.63526933  0.49470247  0.92394828  1
  O  O55  1  0.85930236  0.36500377  0.92328048  1
  O  O56  1  0.50599325  0.14128543  0.92351859  1
  O  O57  1  0.63980898  0.14475926  0.42836628  1
  O  O58  1  0.49887110  0.34834585  0.42758228  1
  O  O59  1  0.85590970  0.50201671  0.42663865  1
  O  O60  1  0.35815351  0.49490388  0.07678020  1
  O  O61  1  0.13999879  0.64867630  0.07661502  1
  O  O62  1  0.50141309  0.86744472  0.07530860  1
  O  O63  1  0.35957148  0.86996938  0.57650171  1
  O  O64  1  0.50551926  0.64335509  0.57724311  1
  O  O65  1  0.13698218  0.49931138  0.57659304  1
  O  O66  1  0.31054866  0.83314595  0.25478360  1
  O  O67  1  0.53091364  0.68783154  0.25496475  1
  O  O68  1  0.16058306  0.46743377  0.25470635  1
  O  O69  1  0.31457372  0.48234819  0.76072309  1
  O  O70  1  0.16730502  0.68939711  0.76100275  1
  O  O71  1  0.52083962  0.82805911  0.76158217  1
loop_
_geom_bond_atom_site_label_1
_geom_bond_atom_site_label_2
_geom_bond_distance
_geom_bond_site_symmetry_2
Na0 O49 2.372812 1_555
Na0 O50 2.392728 1_555
Na0 O71 2.438331 1_555
Na0 O69 2.551725 1_555
Na0 O6 2.674762 1_555
Na0 O14 2.681221 1_555
Na0 O4 2.810355 1_555
Na0 O35 2.877602 1_555
Na1 O47 2.323484 1_565
Na1 O62 2.337556 1_555
Na1 O61 2.419040 1_555
Na1 O45 2.512306 1_455
Na1 O26 2.745881 1_554
Na1 O11 2.746365 1_555
Na1 O16 2.826285 1_565
Na1 O18 2.957612 1_565
Na2 O38 2.379933 1_555
Na2 O36 2.399116 1_545
Na2 O57 2.424350 1_555
Na2 O58 2.510145 1_555
Na2 O31 2.672855 1_545
Na2 O0 2.698509 1_555
Na2 O29 2.808856 1_545
Na2 O21 2.886578 1_555
Na3 O42 2.474699 1_565
Na3 O44 2.491114 1_555
Na3 O37 2.562472 1_555
Na3 O43 2.658617 1_665
Na3 O38 2.675896 1_665
Na3 O36 2.695147 1_655
Na4 O46 2.543962 1_556
Na4 O41 2.592367 1_545
Na4 O39 2.593721 1_655
Na4 O45 2.607212 1_546
Na4 O47 2.625572 1_656
Na4 O40 2.689629 1_645
Na5 O48 2.505308 1_555
Na5 O49 2.582642 1_555
Na5 O50 2.601002 1_555
Na5 O56 2.623750 1_555
Na5 O55 2.640575 1_555
Na5 O54 2.728481 1_555
Na6 O53 2.473328 1_555
Na6 O51 2.507231 1_555
Na6 O52 2.527157 1_555
Na6 O59 2.762060 1_555
Na6 O58 2.782366 1_555
Na6 O57 2.802863 1_555
Na7 O68 2.586874 1_555
Na7 O66 2.593368 1_555
Na7 O67 2.603506 1_555
Na7 O60 2.619951 1_555
Na7 O61 2.658761 1_555
Na7 O62 2.700812 1_555
Na8 O65 2.475424 1_555
Na8 O64 2.573603 1_555
Na8 O63 2.586279 1_555
Na8 O70 2.757771 1_555
Na8 O69 2.764626 1_555
Na8 O71 2.832626 1_555
O0 P0 1.551611 1_545
O0 Sc0 2.051932 1_555
O1 S0 1.475528 1_555
O1 Sc0 2.107450 1_665
O2 S1 1.477891 1_655
O2 Sc0 2.097613 1_655
O3 P1 1.512194 1_555
O3 Sc1 2.046739 1_555
O4 P2 1.521253 1_655
O4 Sc1 2.062615 1_665
O5 P3 1.512411 1_555
O5 Sc1 2.063685 1_655
O6 P3 1.547203 1_565
O6 Sc2 2.088352 1_565
O7 P1 1.531330 1_555
O7 Sc2 2.096338 1_455
O8 P2 1.530392 1_555
O8 Sc2 2.111055 1_465
O9 S0 1.480131 1_555
O9 Sc3 2.126356 1_555
O10 S1 1.478768 1_555
O10 Sc3 2.135979 1_445
O11 P0 1.557921 1_555
O11 Sc3 2.062243 1_455
O12 P4 1.523551 1_555
O12 Sc4 2.004822 1_555
O13 S2 1.464853 1_555
O13 Sc4 2.128040 1_555
O14 P5 1.531595 1_555
O14 Sc4 2.072264 1_555
O15 P6 1.510918 1_555
O15 Sc5 2.060003 1_555
O16 P7 1.526199 1_555
O16 Sc5 2.022166 1_555
O17 P8 1.517095 1_555
O17 Sc5 2.009756 1_555
O18 P8 1.598046 1_555
O18 Ta0 1.976856 1_554
O19 P6 1.592486 1_555
O19 Ta0 1.956497 1_554
O20 P7 1.593628 1_555
O20 Ta0 1.966543 1_554
O21 S2 1.522042 1_555
O21 Ta1 2.103332 1_555
O22 P5 1.603764 1_555
O22 Ta1 1.929977 1_555
O23 P4 1.601111 1_555
O23 Ta1 1.928265 1_555
O24 P9 1.513068 1_555
O24 Sc6 2.025900 1_556
O25 P10 1.510465 1_555
O25 Sc6 2.020442 1_556
O26 P11 1.518415 1_555
O26 Sc6 2.090528 1_556
O27 P12 1.517746 1_555
O27 Sc7 2.051816 1_555
O28 P13 1.517865 1_555
O28 Sc7 2.004738 1_555
O29 P14 1.520734 1_555
O29 Sc7 2.090801 1_555
O30 P14 1.528123 1_555
O30 Sc8 2.059835 1_555
O31 P12 1.543496 1_555
O31 Sc8 2.072123 1_555
O32 P13 1.522807 1_555
O32 Sc8 2.123532 1_555
O33 P10 1.583346 1_555
O33 Ta2 1.966645 1_555
O34 P11 1.586212 1_555
O34 Ta2 1.979196 1_555
O35 P9 1.584119 1_555
O35 Ta2 2.025082 1_555
O36 P14 1.539873 1_555
O36 Sc0 2.113050 1_565
O37 P12 1.521985 1_555
O37 Sc0 2.113789 1_665
O38 P13 1.546424 1_555
O38 Sc0 2.098102 1_555
O39 P10 1.510627 1_555
O39 Sc1 2.104735 1_555
O40 P11 1.512251 1_555
O40 Sc1 2.109509 1_565
O41 P9 1.512962 1_555
O41 Sc1 2.121799 1_665
O42 P4 1.534242 1_555
O42 Sc2 2.138722 1_555
O43 S2 1.473893 1_555
O43 Sc2 2.265217 1_455
O44 P5 1.533180 1_555
O44 Sc2 2.155081 1_565
O45 P6 1.550802 1_555
O45 Sc3 2.116032 1_555
O46 P7 1.525162 1_555
O46 Sc3 2.132384 1_545
O47 P8 1.548690 1_555
O47 Sc3 2.151390 1_445
O48 P3 1.526205 1_555
O48 Sc4 2.091163 1_555
O49 P1 1.547123 1_555
O49 Sc4 2.159208 1_555
O50 P2 1.549250 1_655
O50 Sc4 2.094538 1_555
O51 S0 1.479880 1_555
O51 Sc5 2.191496 1_555
O52 S1 1.480248 1_655
O52 Sc5 2.190740 1_555
O53 P0 1.547461 1_545
O53 Sc5 2.092547 1_555
O54 P9 1.581229 1_555
O54 Ta0 2.024358 1_555
O55 P10 1.575979 1_655
O55 Ta0 2.032115 1_555
O56 P11 1.577399 1_545
O56 Ta0 2.043347 1_555
O57 P12 1.603398 1_545
O57 Ta1 2.016737 1_555
O58 P13 1.602935 1_555
O58 Ta1 2.019280 1_555
O59 P14 1.586380 1_655
O59 Ta1 1.950361 1_555
O60 P8 1.518928 1_555
O60 Sc6 2.064619 1_555
O61 P6 1.537957 1_455
O61 Sc6 2.128725 1_555
O62 P7 1.537441 1_565
O62 Sc6 2.113481 1_555
O63 S2 1.468306 1_565
O63 Sc7 2.221119 1_555
O64 P5 1.527629 1_555
O64 Sc7 2.085025 1_555
O65 P4 1.525332 1_455
O65 Sc7 2.096256 1_555
O66 P0 1.552123 1_555
O66 Sc8 2.085128 1_555
O67 S0 1.484605 1_555
O67 Sc8 2.197683 1_555
O68 S1 1.483040 1_555
O68 Sc8 2.199945 1_555
O69 P1 1.610918 1_555
O69 Ta2 2.008896 1_555
O70 P2 1.582269 1_555
O70 Ta2 1.983379 1_555
O71 P3 1.603121 1_565
O71 Ta2 2.010953 1_555
