# generated using pymatgen
data_Y2MgV2O8
_symmetry_space_group_name_H-M   'P 1'
_cell_length_a   6.08671593
_cell_length_b   6.08671593
_cell_length_c   6.23635248
_cell_angle_alpha   106.04354119
_cell_angle_beta   106.04354119
_cell_angle_gamma   115.62756357
_symmetry_Int_Tables_number   1
_chemical_formula_structural   Y2MgV2O8
_chemical_formula_sum   'Y2 Mg1 V2 O8'
_cell_volume   178.08429398
_cell_formula_units_Z   1
loop_
 _symmetry_equiv_pos_site_id
 _symmetry_equiv_pos_as_xyz
  1  'x, y, z'
loop_
 _atom_site_type_symbol
 _atom_site_label
 _atom_site_symmetry_multiplicity
 _atom_site_fract_x
 _atom_site_fract_y
 _atom_site_fract_z
 _atom_site_occupancy
  Y  Y0  1  0.84646400  0.15353600  0.25000000  1
  Y  Y1  1  0.12857300  0.87142700  0.75000000  1
  Mg  Mg0  1  0.14108000  0.85892000  0.25000000  1
  V  V0  1  0.62117500  0.37882500  0.75000000  1
  V  V1  1  0.40536100  0.59463900  0.25000000  1
  O  O0  1  0.25437300  0.18461100  0.53843600  1
  O  O1  1  0.18944900  0.23424000  0.06984000  1
  O  O2  1  0.19067700  0.63533600  0.41204500  1
  O  O3  1  0.60657300  0.19412100  0.93313100  1
  O  O4  1  0.76576000  0.81055100  0.43016000  1
  O  O5  1  0.81538900  0.74562700  0.96156400  1
  O  O6  1  0.80587900  0.39342700  0.56686900  1
  O  O7  1  0.36466400  0.80932300  0.08795500  1
loop_
_geom_bond_atom_site_label_1
_geom_bond_atom_site_label_2
_geom_bond_distance
_geom_bond_site_symmetry_2
Mg0 O0 1.949842 1_565
Mg0 O5 1.949842 1_454
Mg0 O2 1.977710 1_555
Mg0 O7 1.977710 1_555
O0 V0 1.830156 1_555
O0 Y0 2.524478 1_455
O0 Y1 2.578154 1_545
O1 V1 1.768980 1_555
O1 Y1 2.332718 1_544
O1 Y0 2.564444 1_455
O2 V1 1.913550 1_555
O2 Y1 2.426133 1_555
O2 Y0 2.426429 1_455
O3 V0 1.804301 1_555
O3 Y0 2.255000 1_556
O3 Y1 2.367960 1_545
O4 V1 1.768980 1_555
O4 Y1 2.332718 1_655
O4 Y0 2.564444 1_565
O5 V0 1.830156 1_555
O5 Y0 2.524478 1_566
O5 Y1 2.578154 1_655
O6 V0 1.804301 1_555
O6 Y0 2.255000 1_555
O6 Y1 2.367960 1_655
O7 V1 1.913550 1_555
O7 Y1 2.426133 1_554
O7 Y0 2.426429 1_565
