# generated using pymatgen
data_Na12Ta2Zn4Si3(PO6)6
_symmetry_space_group_name_H-M   'P 1'
_cell_length_a   9.11584322
_cell_length_b   9.11584290
_cell_length_c   22.06731187
_cell_angle_alpha   90.00000000
_cell_angle_beta   90.00000000
_cell_angle_gamma   120.00000115
_symmetry_Int_Tables_number   1
_chemical_formula_structural   Na12Ta2Zn4Si3(PO6)6
_chemical_formula_sum   'Na24 Ta4 Zn8 Si6 P12 O72'
_cell_volume   1588.08498275
_cell_formula_units_Z   2
loop_
 _symmetry_equiv_pos_site_id
 _symmetry_equiv_pos_as_xyz
  1  'x, y, z'
loop_
 _atom_site_type_symbol
 _atom_site_label
 _atom_site_symmetry_multiplicity
 _atom_site_fract_x
 _atom_site_fract_y
 _atom_site_fract_z
 _atom_site_occupancy
  Na  Na0  1  0.64789652  0.01350701  0.24392296  1
  Na  Na1  1  0.36561049  0.35210348  0.24392296  1
  Na  Na2  1  0.98649299  0.63438951  0.24392296  1
  Na  Na3  1  0.64789652  0.63438951  0.74392296  1
  Na  Na4  1  0.98649299  0.35210348  0.74392296  1
  Na  Na5  1  0.36561049  0.01350701  0.74392296  1
  Na  Na6  1  0.29112754  0.33731523  0.58119995  1
  Na  Na7  1  0.04618869  0.70887246  0.58119995  1
  Na  Na8  1  0.66268477  0.95381131  0.58119995  1
  Na  Na9  1  0.29112754  0.95381131  0.08119995  1
  Na  Na10  1  0.66268477  0.70887246  0.08119995  1
  Na  Na11  1  0.04618869  0.33731523  0.08119995  1
  Na  Na12  1  0.97876746  0.69035665  0.91422223  1
  Na  Na13  1  0.71158819  0.02123254  0.91422223  1
  Na  Na14  1  0.30964335  0.28841181  0.91422223  1
  Na  Na15  1  0.97876746  0.28841181  0.41422223  1
  Na  Na16  1  0.30964335  0.02123254  0.41422223  1
  Na  Na17  1  0.71158819  0.69035665  0.41422223  1
  Na  Na18  1  0.00000000  0.00000000  0.49629335  1
  Na  Na19  1  0.00000000  0.00000000  0.99629335  1
  Na  Na20  1  0.66666700  0.33333300  0.82696059  1
  Na  Na21  1  0.66666700  0.33333300  0.32696059  1
  Na  Na22  1  0.33333300  0.66666700  0.15821736  1
  Na  Na23  1  0.33333300  0.66666700  0.65821736  1
  Ta  Ta0  1  0.66666700  0.33333300  0.97917014  1
  Ta  Ta1  1  0.66666700  0.33333300  0.47917014  1
  Ta  Ta2  1  0.33333300  0.66666700  0.31717324  1
  Ta  Ta3  1  0.33333300  0.66666700  0.81717324  1
  Zn  Zn0  1  0.00000000  0.00000000  0.35067022  1
  Zn  Zn1  1  0.00000000  0.00000000  0.85067022  1
  Zn  Zn2  1  0.00000000  0.00000000  0.65212441  1
  Zn  Zn3  1  0.00000000  0.00000000  0.15212441  1
  Zn  Zn4  1  0.66666700  0.33333300  0.67964626  1
  Zn  Zn5  1  0.66666700  0.33333300  0.17964626  1
  Zn  Zn6  1  0.33333300  0.66666700  0.01048444  1
  Zn  Zn7  1  0.33333300  0.66666700  0.51048444  1
  Si  Si0  1  0.62882748  0.66805943  0.92049899  1
  Si  Si1  1  0.03923095  0.37117252  0.92049899  1
  Si  Si2  1  0.33194057  0.96076905  0.92049899  1
  Si  Si3  1  0.62882748  0.96076905  0.42049899  1
  Si  Si4  1  0.33194057  0.37117252  0.42049899  1
  Si  Si5  1  0.03923095  0.66805943  0.42049899  1
  P  P0  1  0.29549270  0.99616237  0.25012132  1
  P  P1  1  0.70066966  0.70450730  0.25012132  1
  P  P2  1  0.00383763  0.29933034  0.25012132  1
  P  P3  1  0.29549270  0.29933034  0.75012132  1
  P  P4  1  0.00383763  0.70450730  0.75012132  1
  P  P5  1  0.70066966  0.99616237  0.75012132  1
  P  P6  1  0.95928698  0.33231116  0.58578352  1
  P  P7  1  0.37302518  0.04071302  0.58578352  1
  P  P8  1  0.66768884  0.62697482  0.58578352  1
  P  P9  1  0.95928698  0.62697482  0.08578352  1
  P  P10  1  0.66768884  0.04071302  0.08578352  1
  P  P11  1  0.37302518  0.33231116  0.08578352  1
  O  O0  1  0.21417977  0.02130759  0.30683860  1
  O  O1  1  0.80712781  0.78582023  0.30683860  1
  O  O2  1  0.97869241  0.19287219  0.30683860  1
  O  O3  1  0.21417977  0.19287219  0.80683860  1
  O  O4  1  0.97869241  0.78582023  0.80683860  1
  O  O5  1  0.80712781  0.02130759  0.80683860  1
  O  O6  1  0.77508384  0.96122384  0.69244188  1
  O  O7  1  0.18614000  0.22491616  0.69244188  1
  O  O8  1  0.03877616  0.81386000  0.69244188  1
  O  O9  1  0.77508384  0.81386000  0.19244188  1
  O  O10  1  0.03877616  0.22491616  0.19244188  1
  O  O11  1  0.18614000  0.96122384  0.19244188  1
  O  O12  1  0.87621973  0.35246552  0.64318425  1
  O  O13  1  0.47624680  0.12378027  0.64318425  1
  O  O14  1  0.64753448  0.52375320  0.64318425  1
  O  O15  1  0.87621973  0.52375320  0.14318425  1
  O  O16  1  0.64753448  0.12378027  0.14318425  1
  O  O17  1  0.47624680  0.35246552  0.14318425  1
  O  O18  1  0.47662619  0.31857940  0.02908850  1
  O  O19  1  0.84195421  0.52337381  0.02908850  1
  O  O20  1  0.68142060  0.15804579  0.02908850  1
  O  O21  1  0.47662619  0.15804579  0.52908850  1
  O  O22  1  0.68142060  0.52337381  0.52908850  1
  O  O23  1  0.84195421  0.31857940  0.52908850  1
  O  O24  1  0.55154306  0.70243637  0.97997466  1
  O  O25  1  0.15089231  0.44845694  0.97997466  1
  O  O26  1  0.29756363  0.84910769  0.97997466  1
  O  O27  1  0.55154306  0.84910769  0.47997466  1
  O  O28  1  0.29756363  0.44845694  0.47997466  1
  O  O29  1  0.15089231  0.70243637  0.47997466  1
  O  O30  1  0.13584589  0.63338446  0.36103037  1
  O  O31  1  0.49753757  0.86415411  0.36103037  1
  O  O32  1  0.36661554  0.50246243  0.36103037  1
  O  O33  1  0.13584589  0.50246243  0.86103037  1
  O  O34  1  0.36661554  0.86415411  0.86103037  1
  O  O35  1  0.49753757  0.63338446  0.86103037  1
  O  O36  1  0.00616952  0.82310251  0.41024009  1
  O  O37  1  0.81693299  0.99383048  0.41024009  1
  O  O38  1  0.17689749  0.18306701  0.41024009  1
  O  O39  1  0.00616952  0.18306701  0.91024009  1
  O  O40  1  0.17689749  0.99383048  0.91024009  1
  O  O41  1  0.81693299  0.82310251  0.91024009  1
  O  O42  1  0.96618509  0.16606642  0.58344937  1
  O  O43  1  0.19988133  0.03381491  0.58344937  1
  O  O44  1  0.83393358  0.80011867  0.58344937  1
  O  O45  1  0.96618509  0.80011867  0.08344937  1
  O  O46  1  0.83393358  0.03381491  0.08344937  1
  O  O47  1  0.19988133  0.16606642  0.08344937  1
  O  O48  1  0.67232808  0.15025867  0.74628411  1
  O  O49  1  0.47793159  0.32767192  0.74628411  1
  O  O50  1  0.84974133  0.52206841  0.74628411  1
  O  O51  1  0.67232808  0.52206841  0.24628411  1
  O  O52  1  0.84974133  0.32767192  0.24628411  1
  O  O53  1  0.47793159  0.15025867  0.24628411  1
  O  O54  1  0.63391832  0.48628036  0.92342753  1
  O  O55  1  0.85236304  0.36608168  0.92342753  1
  O  O56  1  0.51371964  0.14763696  0.92342753  1
  O  O57  1  0.63391832  0.14763696  0.42342753  1
  O  O58  1  0.51371964  0.36608168  0.42342753  1
  O  O59  1  0.85236304  0.48628036  0.42342753  1
  O  O60  1  0.35547565  0.49129346  0.08164995  1
  O  O61  1  0.13581680  0.64452435  0.08164995  1
  O  O62  1  0.50870654  0.86418320  0.08164995  1
  O  O63  1  0.35547565  0.86418320  0.58164995  1
  O  O64  1  0.50870654  0.64452435  0.58164995  1
  O  O65  1  0.13581680  0.49129346  0.58164995  1
  O  O66  1  0.31192167  0.82942572  0.25639506  1
  O  O67  1  0.51750305  0.68807833  0.25639506  1
  O  O68  1  0.17057428  0.48249695  0.25639506  1
  O  O69  1  0.31192167  0.48249695  0.75639506  1
  O  O70  1  0.17057428  0.68807833  0.75639506  1
  O  O71  1  0.51750305  0.82942572  0.75639506  1
loop_
_geom_bond_atom_site_label_1
_geom_bond_atom_site_label_2
_geom_bond_distance
_geom_bond_site_symmetry_2
Na0 O53 2.426677 1_555
Na0 O16 2.440430 1_555
Na0 O52 2.514073 1_555
Na0 O67 2.600558 1_545
Na0 O66 2.670645 1_545
Na0 O9 2.838515 1_545
Na0 O31 2.923101 1_545
Na0 O2 2.960348 1_555
Na1 O51 2.426685 1_555
Na1 O17 2.440433 1_555
Na1 O53 2.514080 1_555
Na1 O68 2.600566 1_555
Na1 O67 2.670645 1_555
Na1 O10 2.838515 1_555
Na1 O32 2.923103 1_555
Na1 O0 2.960348 1_555
Na2 O52 2.426685 1_555
Na2 O15 2.440432 1_555
Na2 O51 2.514072 1_555
Na2 O66 2.600559 1_655
Na2 O68 2.670637 1_655
Na2 O11 2.838515 1_655
Na2 O30 2.923099 1_655
Na2 O1 2.960349 1_555
Na3 O49 2.426685 1_555
Na3 O14 2.440433 1_555
Na3 O50 2.514080 1_555
Na3 O71 2.600566 1_555
Na3 O69 2.670645 1_555
Na3 O6 2.838515 1_555
Na3 O35 2.923103 1_555
Na3 O4 2.960348 1_555
Na4 O50 2.426677 1_555
Na4 O12 2.440430 1_555
Na4 O48 2.514073 1_555
Na4 O69 2.600558 1_655
Na4 O70 2.670645 1_655
Na4 O7 2.838515 1_655
Na4 O33 2.923101 1_655
Na4 O5 2.960348 1_555
Na5 O48 2.426685 1_555
Na5 O13 2.440432 1_555
Na5 O49 2.514072 1_555
Na5 O70 2.600559 1_545
Na5 O71 2.670637 1_545
Na5 O8 2.838515 1_545
Na5 O34 2.923099 1_545
Na5 O3 2.960348 1_555
Na6 O28 2.441353 1_555
Na6 O65 2.441726 1_555
Na6 O43 2.459162 1_555
Na6 O64 2.494428 1_555
Na6 O42 2.567003 1_455
Na6 O7 2.647879 1_555
Na7 O29 2.441345 1_555
Na7 O63 2.441710 1_555
Na7 O44 2.459170 1_455
Na7 O65 2.494415 1_555
Na7 O43 2.567003 1_565
Na7 O8 2.647881 1_555
Na8 O27 2.441349 1_555
Na8 O64 2.441710 1_555
Na8 O42 2.459164 1_565
Na8 O63 2.494433 1_555
Na8 O44 2.566995 1_555
Na8 O6 2.647878 1_555
Na9 O26 2.441345 1_554
Na9 O61 2.441710 1_555
Na9 O47 2.459170 1_565
Na9 O62 2.494415 1_555
Na9 O45 2.567003 1_455
Na9 O11 2.647881 1_555
Na10 O24 2.441353 1_554
Na10 O62 2.441726 1_555
Na10 O45 2.459162 1_555
Na10 O60 2.494428 1_555
Na10 O46 2.567002 1_565
Na10 O9 2.647879 1_555
Na11 O25 2.441349 1_554
Na11 O60 2.441710 1_555
Na11 O46 2.459164 1_455
Na11 O61 2.494433 1_555
Na11 O47 2.566995 1_555
Na11 O10 2.647878 1_555
Na12 O41 2.331013 1_555
Na12 O40 2.434417 1_655
Na12 O4 2.524525 1_555
Na12 O55 2.588628 1_555
Na12 O54 2.745202 1_555
Na12 O19 2.898141 1_556
Na12 O26 2.905068 1_655
Na12 O33 2.968917 1_655
Na13 O39 2.331021 1_655
Na13 O41 2.434424 1_545
Na13 O5 2.524528 1_555
Na13 O56 2.588612 1_555
Na13 O55 2.745200 1_555
Na13 O20 2.898135 1_556
Na13 O24 2.905068 1_545
Na13 O34 2.968917 1_545
Na14 O40 2.331021 1_545
Na14 O39 2.434415 1_555
Na14 O3 2.524526 1_555
Na14 O54 2.588626 1_555
Na14 O56 2.745217 1_555
Na14 O18 2.898144 1_556
Na14 O25 2.905068 1_555
Na14 O35 2.968917 1_555
Na15 O37 2.331020 1_545
Na15 O38 2.434424 1_655
Na15 O2 2.524528 1_555
Na15 O59 2.588612 1_555
Na15 O57 2.745201 1_555
Na15 O23 2.898135 1_555
Na15 O28 2.905068 1_655
Na15 O30 2.968917 1_655
Na16 O38 2.331013 1_555
Na16 O36 2.434417 1_545
Na16 O0 2.524525 1_555
Na16 O57 2.588628 1_555
Na16 O58 2.745202 1_555
Na16 O21 2.898141 1_555
Na16 O29 2.905068 1_545
Na16 O31 2.968917 1_545
Na17 O36 2.331021 1_655
Na17 O37 2.434415 1_555
Na17 O1 2.524526 1_555
Na17 O58 2.588626 1_555
Na17 O59 2.745217 1_555
Na17 O22 2.898144 1_555
Na17 O27 2.905068 1_555
Na17 O32 2.968917 1_555
Na18 O38 2.510040 1_555
Na18 O36 2.510040 1_545
Na18 O37 2.510040 1_445
Na18 O44 2.559773 1_445
Na18 O42 2.559773 1_455
Na18 O43 2.559773 1_555
Na19 O39 2.510040 1_555
Na19 O41 2.510040 1_445
Na19 O40 2.510040 1_545
Na19 O45 2.559773 1_446
Na19 O47 2.559773 1_556
Na19 O46 2.559773 1_456
Na20 O50 2.458343 1_555
Na20 O48 2.458343 1_555
Na20 O49 2.458343 1_555
Na20 O56 2.642141 1_555
Na20 O54 2.642141 1_555
Na20 O55 2.642141 1_555
Na21 O51 2.458343 1_555
Na21 O53 2.458343 1_555
Na21 O52 2.458343 1_555
Na21 O57 2.642141 1_555
Na21 O59 2.642141 1_555
Na21 O58 2.642141 1_555
Na22 O60 2.402931 1_555
Na22 O62 2.402931 1_555
Na22 O61 2.402931 1_555
Na22 O68 2.687527 1_555
Na22 O66 2.687527 1_555
Na22 O67 2.687527 1_555
Na23 O64 2.402931 1_555
Na23 O65 2.402931 1_555
Na23 O63 2.402931 1_555
Na23 O69 2.687527 1_555
Na23 O71 2.687527 1_555
Na23 O70 2.687527 1_555
O0 P0 1.529175 1_545
O0 Zn0 2.099057 1_555
O1 P1 1.529175 1_555
O1 Zn0 2.099057 1_665
O2 P2 1.529175 1_655
O2 Zn0 2.099057 1_655
O3 P3 1.529175 1_555
O3 Zn1 2.099057 1_555
O4 P4 1.529175 1_655
O4 Zn1 2.099057 1_665
O5 P5 1.529175 1_545
O5 Zn1 2.099057 1_655
O6 P5 1.548464 1_555
O6 Zn2 2.096546 1_665
O7 P3 1.548464 1_555
O7 Zn2 2.096546 1_555
O8 P4 1.548464 1_555
O8 Zn2 2.096546 1_565
O9 P1 1.548464 1_555
O9 Zn3 2.096546 1_665
O10 P2 1.548464 1_555
O10 Zn3 2.096546 1_555
O11 P0 1.548464 1_555
O11 Zn3 2.096546 1_565
O12 P6 1.533215 1_555
O12 Zn4 1.998429 1_555
O13 P7 1.533215 1_555
O13 Zn4 1.998429 1_555
O14 P8 1.533215 1_555
O14 Zn4 1.998429 1_555
O15 P9 1.533215 1_555
O15 Zn5 1.998429 1_555
O16 P10 1.533215 1_555
O16 Zn5 1.998429 1_555
O17 P11 1.533215 1_555
O17 Zn5 1.998429 1_555
O18 P11 1.609679 1_555
O18 Ta0 1.999922 1_554
O19 P9 1.609679 1_555
O19 Ta0 1.999922 1_554
O20 P10 1.609679 1_555
O20 Ta0 1.999922 1_554
O21 P7 1.609679 1_555
O21 Ta1 1.999922 1_555
O22 P8 1.609679 1_555
O22 Ta1 1.999922 1_555
O23 P6 1.609679 1_555
O23 Ta1 1.999922 1_555
O24 Si0 1.593076 1_555
O24 Zn6 1.966672 1_556
O25 Si1 1.593076 1_555
O25 Zn6 1.966672 1_556
O26 Si2 1.593076 1_555
O26 Zn6 1.966672 1_556
O27 Si3 1.593076 1_555
O27 Zn7 1.966672 1_555
O28 Si4 1.593076 1_555
O28 Zn7 1.966672 1_555
O29 Si5 1.593076 1_555
O29 Zn7 1.966672 1_555
O30 Si5 1.695921 1_555
O30 Ta2 1.929624 1_555
O31 Si3 1.695921 1_555
O31 Ta2 1.929624 1_555
O32 Si4 1.695921 1_555
O32 Ta2 1.929624 1_555
O33 Si1 1.695921 1_555
O33 Ta3 1.929624 1_555
O34 Si2 1.695921 1_555
O34 Ta3 1.929624 1_555
O35 Si0 1.695921 1_555
O35 Ta3 1.929624 1_555
O36 Si5 1.601747 1_555
O36 Zn0 2.102919 1_565
O37 Si3 1.601756 1_555
O37 Zn0 2.102919 1_665
O38 Si4 1.601753 1_555
O38 Zn0 2.102919 1_555
O39 Si1 1.601756 1_555
O39 Zn1 2.102919 1_555
O40 Si2 1.601747 1_555
O40 Zn1 2.102919 1_565
O41 Si0 1.601753 1_555
O41 Zn1 2.102919 1_665
O42 P6 1.548717 1_555
O42 Zn2 2.269365 1_655
O43 P7 1.548726 1_555
O43 Zn2 2.269365 1_555
O44 P8 1.548722 1_555
O44 Zn2 2.269365 1_665
O45 P9 1.548726 1_555
O45 Zn3 2.269365 1_665
O46 P10 1.548717 1_555
O46 Zn3 2.269365 1_655
O47 P11 1.548722 1_555
O47 Zn3 2.269365 1_555
O48 P5 1.552440 1_545
O48 Zn4 2.244184 1_555
O49 P3 1.552449 1_555
O49 Zn4 2.244184 1_555
O50 P4 1.552446 1_655
O50 Zn4 2.244184 1_555
O51 P1 1.552449 1_555
O51 Zn5 2.244184 1_555
O52 P2 1.552440 1_655
O52 Zn5 2.244184 1_555
O53 P0 1.552446 1_545
O53 Zn5 2.244184 1_555
O54 Si0 1.681996 1_555
O54 Ta0 1.990574 1_555
O55 Si1 1.681977 1_655
O55 Ta0 1.990574 1_555
O56 Si2 1.681986 1_545
O56 Ta0 1.990574 1_555
O57 Si3 1.681977 1_545
O57 Ta1 1.990574 1_555
O58 Si4 1.681996 1_555
O58 Ta1 1.990574 1_555
O59 Si5 1.681986 1_655
O59 Ta1 1.990574 1_555
O60 P11 1.538217 1_555
O60 Zn6 2.320659 1_555
O61 P9 1.538199 1_455
O61 Zn6 2.320659 1_555
O62 P10 1.538207 1_565
O62 Zn6 2.320659 1_555
O63 P7 1.538199 1_565
O63 Zn7 2.320659 1_555
O64 P8 1.538217 1_555
O64 Zn7 2.320659 1_555
O65 P6 1.538207 1_455
O65 Zn7 2.320659 1_555
O66 P0 1.606070 1_555
O66 Ta2 2.080348 1_555
O67 P1 1.606079 1_555
O67 Ta2 2.080348 1_555
O68 P2 1.606076 1_555
O68 Ta2 2.080348 1_555
O69 P3 1.606079 1_555
O69 Ta3 2.080348 1_555
O70 P4 1.606070 1_555
O70 Ta3 2.080348 1_555
O71 P5 1.606076 1_555
O71 Ta3 2.080348 1_555
