# generated using pymatgen
data_Na2La2Ga2SiS5O24
_symmetry_space_group_name_H-M   'P 1'
_cell_length_a   8.98844198
_cell_length_b   8.89373287
_cell_length_c   23.99271749
_cell_angle_alpha   89.22876241
_cell_angle_beta   90.54102438
_cell_angle_gamma   119.61341123
_symmetry_Int_Tables_number   1
_chemical_formula_structural   Na2La2Ga2SiS5O24
_chemical_formula_sum   'Na6 La6 Ga6 Si3 S15 O72'
_cell_volume   1667.30727659
_cell_formula_units_Z   3
loop_
 _symmetry_equiv_pos_site_id
 _symmetry_equiv_pos_as_xyz
  1  'x, y, z'
loop_
 _atom_site_type_symbol
 _atom_site_label
 _atom_site_symmetry_multiplicity
 _atom_site_fract_x
 _atom_site_fract_y
 _atom_site_fract_z
 _atom_site_occupancy
  Na  Na0  1  0.99045958  0.98719500  0.50178635  1
  Na  Na1  1  0.99932553  0.99983868  0.99963083  1
  Na  Na2  1  0.66979346  0.32071235  0.84008460  1
  Na  Na3  1  0.64050473  0.31300313  0.31889470  1
  Na  Na4  1  0.32979144  0.67377101  0.17035530  1
  Na  Na5  1  0.38175921  0.69128619  0.67178552  1
  La  La0  1  0.01452143  -0.00027658  0.33564681  1
  La  La1  1  0.96949961  0.98227428  0.64775058  1
  La  La2  1  0.67047341  0.32851388  0.69079886  1
  La  La3  1  0.65890792  0.34291387  0.47584801  1
  La  La4  1  0.35821469  0.67060648  0.52099727  1
  La  La5  1  0.35197969  0.67876660  0.82743063  1
  Ga  Ga0  1  0.99144070  0.00113283  0.83562839  1
  Ga  Ga1  1  0.00628761  0.98565129  0.16051037  1
  Ga  Ga2  1  0.65590686  0.32085891  0.17636335  1
  Ga  Ga3  1  0.66934701  0.33296754  0.99323565  1
  Ga  Ga4  1  0.33482902  0.66182192  0.01576579  1
  Ga  Ga5  1  0.33299965  0.69366653  0.31201065  1
  Si  Si0  1  0.31779234  0.00416272  0.24299688  1
  Si  Si1  1  0.69840362  0.00385992  0.76034751  1
  Si  Si2  1  0.66897573  0.63704064  0.58467728  1
  S  S0  1  0.69458193  0.68658964  0.23868934  1
  S  S1  1  0.99459208  0.30279949  0.23774381  1
  S  S2  1  0.29034036  0.28683151  0.76051272  1
  S  S3  1  0.99659427  0.70358289  0.76367728  1
  S  S4  1  0.97309815  0.33673659  0.58037775  1
  S  S5  1  0.35664963  0.02880755  0.58247616  1
  S  S6  1  0.95488995  0.62061541  0.08383495  1
  S  S7  1  0.66441787  0.03782450  0.08204571  1
  S  S8  1  0.37765251  0.33883455  0.08165190  1
  S  S9  1  0.63940073  0.65507668  0.93063589  1
  S  S10  1  0.02351024  0.36639789  0.92927668  1
  S  S11  1  0.34141494  0.97962804  0.93003758  1
  S  S12  1  0.62833624  0.96483572  0.40331173  1
  S  S13  1  0.33534337  0.39041495  0.39982781  1
  S  S14  1  0.04242900  0.66031236  0.40729520  1
  O  O0  1  0.25796156  0.05152388  0.30063003  1
  O  O1  1  0.79189147  0.74752234  0.29134031  1
  O  O2  1  0.95163816  0.20533621  0.29126582  1
  O  O3  1  0.19924332  0.19066707  0.81447163  1
  O  O4  1  0.01860713  0.81309582  0.81508956  1
  O  O5  1  0.79617473  -0.01046140  0.81865240  1
  O  O6  1  0.79117102  0.00425987  0.70311733  1
  O  O7  1  0.20349626  0.19057943  0.71052322  1
  O  O8  1  0.01101789  0.79850032  0.71196740  1
  O  O9  1  0.78491512  0.81849863  0.19209891  1
  O  O10  1  0.02066607  0.20033295  0.19245066  1
  O  O11  1  0.17334695  0.95862255  0.19278811  1
  O  O12  1  0.87276451  0.30890922  0.63142963  1
  O  O13  1  0.44818138  0.12412965  0.63281977  1
  O  O14  1  0.69369816  0.55204271  0.64182779  1
  O  O15  1  0.87087480  0.50573288  0.13275758  1
  O  O16  1  0.63129497  0.11715851  0.13116239  1
  O  O17  1  0.48844360  0.37352611  0.13186270  1
  O  O18  1  0.45947764  0.30859017  0.03241540  1
  O  O19  1  0.84829339  0.54411153  0.03258959  1
  O  O20  1  0.69553137  0.15095492  0.03144418  1
  O  O21  1  0.46007872  0.10598676  0.53117196  1
  O  O22  1  0.64065755  0.52628222  0.52726030  1
  O  O23  1  0.87793302  0.34074710  0.52996755  1
  O  O24  1  0.53787797  0.68354653  0.97511099  1
  O  O25  1  0.14691122  0.46240990  0.97676592  1
  O  O26  1  0.31198616  0.84912739  0.97627590  1
  O  O27  1  0.54508651  0.88577976  0.45675616  1
  O  O28  1  0.34374655  0.47351927  0.45311205  1
  O  O29  1  0.12679497  0.65366878  0.45916116  1
  O  O30  1  0.14507407  0.67586352  0.35645149  1
  O  O31  1  0.53151168  0.85353415  0.35488358  1
  O  O32  1  0.32541386  0.49068538  0.35040078  1
  O  O33  1  0.08561495  0.46516623  0.87668556  1
  O  O34  1  0.37867339  0.92182911  0.87709470  1
  O  O35  1  0.54744750  0.61875680  0.87684180  1
  O  O36  1  0.01869497  0.81433644  0.40980603  1
  O  O37  1  0.80092487  0.98380620  0.40443752  1
  O  O38  1  0.17937237  0.21847630  0.40211827  1
  O  O39  1  0.00887615  0.19479522  0.92562902  1
  O  O40  1  0.18754021  0.99671273  0.92508779  1
  O  O41  1  0.80945788  0.80835667  0.92748522  1
  O  O42  1  0.01111599  0.19434221  0.57305554  1
  O  O43  1  0.19495771  0.03042460  0.57547289  1
  O  O44  1  0.83389915  0.82627077  0.57277233  1
  O  O45  1  0.97076078  0.79536654  0.09107077  1
  O  O46  1  0.81826686  0.01922189  0.08983520  1
  O  O47  1  0.20563725  0.18638424  0.08904614  1
  O  O48  1  0.68730109  0.17832065  0.76693837  1
  O  O49  1  0.46347831  0.31096217  0.76589946  1
  O  O50  1  0.82970328  0.54599696  0.76874723  1
  O  O51  1  0.68701897  0.51995108  0.22630677  1
  O  O52  1  0.84831702  0.32974546  0.22421857  1
  O  O53  1  0.50492858  0.16964236  0.22832380  1
  O  O54  1  0.65083453  0.49521742  0.94205190  1
  O  O55  1  0.85197965  0.35113190  0.93984312  1
  O  O56  1  0.49708067  0.15018497  0.94152178  1
  O  O57  1  0.63599377  0.13396417  0.39641495  1
  O  O58  1  0.49000296  0.37251112  0.39381754  1
  O  O59  1  0.87423217  0.50218031  0.40067908  1
  O  O60  1  0.36214981  0.50052621  0.07284633  1
  O  O61  1  0.12851916  0.63782094  0.07704151  1
  O  O62  1  0.50640866  0.86428289  0.07386357  1
  O  O63  1  0.32380755  0.84922998  0.58942056  1
  O  O64  1  0.49959722  0.65829439  0.59329655  1
  O  O65  1  0.13440743  0.50169662  0.58625096  1
  O  O66  1  0.33131499  0.82482425  0.25253161  1
  O  O67  1  0.52315652  0.66663886  0.24397367  1
  O  O68  1  0.15381618  0.46980139  0.24300698  1
  O  O69  1  0.29362943  0.45406872  0.75972097  1
  O  O70  1  0.13656891  0.66363289  0.76486125  1
  O  O71  1  0.50828682  0.83128922  0.75802261  1
loop_
_geom_bond_atom_site_label_1
_geom_bond_atom_site_label_2
_geom_bond_distance
_geom_bond_site_symmetry_2
Na0 O44 2.217784 1_555
Na0 O43 2.431175 1_665
Na0 O42 2.468449 1_665
Na0 O36 2.790271 1_655
Na0 O37 2.869593 1_555
Na1 O39 2.437020 1_665
Na1 O41 2.441355 1_555
Na1 O40 2.483238 1_655
Na1 O45 2.761865 1_556
Na1 O46 2.777780 1_566
Na1 O47 2.788170 1_666
Na2 O48 2.229453 1_555
Na2 O50 2.473442 1_555
Na2 O49 2.529320 1_555
Na2 O55 2.826505 1_555
Na2 O56 2.877226 1_555
Na2 O54 2.965543 1_555
Na3 O57 2.419574 1_555
Na3 O58 2.473982 1_555
Na3 O53 2.514322 1_555
Na3 O59 2.759064 1_555
Na3 O51 2.764803 1_555
Na3 O52 2.909860 1_555
Na4 O66 2.396859 1_555
Na4 O68 2.441784 1_555
Na4 O67 2.488502 1_555
Na4 O61 2.785450 1_555
Na4 O62 2.838349 1_555
Na4 O60 2.912852 1_555
Na5 O64 2.261405 1_555
Na5 O71 2.397966 1_555
Na5 O63 2.603597 1_555
Na5 O69 2.791041 1_555
Na5 O65 2.880940 1_555
La0 O0 2.175800 1_555
La0 O38 2.390403 1_555
La0 O1 2.398669 1_445
La0 O2 2.398969 1_455
La0 O36 2.422111 1_545
La0 O37 2.493005 1_445
La1 O6 2.174651 1_565
La1 O44 2.236348 1_555
La1 O8 2.389283 1_655
La1 O42 2.476564 1_665
La1 O7 2.507702 1_665
La1 O43 2.546783 1_665
La2 O14 2.215368 1_555
La2 O48 2.296329 1_555
La2 O13 2.378585 1_555
La2 O12 2.394675 1_555
La2 O49 2.549803 1_555
La2 O50 2.568700 1_555
La3 O22 2.128487 1_555
La3 O23 2.355995 1_555
La3 O21 2.375662 1_555
La3 O59 2.508523 1_555
La3 O58 2.563655 1_555
La3 O57 2.614890 1_555
La4 O64 2.174111 1_555
La4 O28 2.364269 1_555
La4 O27 2.377384 1_555
La4 O65 2.400884 1_555
La4 O63 2.424829 1_555
La4 O29 2.487709 1_555
La5 O71 2.164956 1_555
La5 O35 2.376449 1_555
La5 O34 2.387856 1_555
La5 O70 2.390322 1_555
La5 O69 2.437884 1_555
La5 O33 2.497122 1_555
Ga0 O5 1.750942 1_555
Ga0 O3 1.863091 1_655
Ga0 O4 1.878099 1_645
Ga1 O11 1.800585 1_555
Ga1 O9 1.954081 1_455
Ga1 O10 2.010753 1_565
Ga1 O45 2.296402 1_455
Ga1 O47 2.480314 1_565
Ga1 O46 2.500316 1_465
Ga2 O53 1.840545 1_555
Ga2 O52 2.036043 1_555
Ga2 O16 2.039471 1_555
Ga2 O51 2.052018 1_555
Ga2 O17 2.068355 1_555
Ga2 O15 2.093705 1_555
Ga3 O54 1.950326 1_555
Ga3 O20 1.961812 1_556
Ga3 O19 2.009718 1_556
Ga3 O56 2.027325 1_555
Ga3 O18 2.028045 1_556
Ga3 O55 2.033221 1_555
Ga4 O25 1.981973 1_554
Ga4 O24 1.999946 1_554
Ga4 O26 2.001689 1_554
Ga4 O60 2.069456 1_555
Ga4 O62 2.201427 1_555
Ga4 O61 2.301655 1_555
Ga5 O66 1.835662 1_555
Ga5 O31 1.939301 1_555
Ga5 O30 1.944319 1_555
Ga5 O32 1.986651 1_555
Ga5 O67 2.472488 1_555
Ga5 O68 2.483600 1_555
O0 Si0 1.622437 1_555
O1 S0 1.477701 1_555
O2 S1 1.482596 1_555
O3 S2 1.541457 1_555
O4 S3 1.531873 1_455
O5 Si1 1.681678 1_555
O6 Si1 1.612227 1_555
O7 S2 1.459526 1_555
O8 S3 1.461284 1_455
O9 S0 1.524980 1_555
O10 S1 1.519503 1_455
O11 Si0 1.662767 1_565
O12 S4 1.472075 1_555
O13 S5 1.474466 1_555
O14 Si2 1.622768 1_555
O15 S6 1.487919 1_555
O16 S7 1.487219 1_555
O17 S8 1.490594 1_555
O18 S8 1.493076 1_555
O19 S6 1.499557 1_555
O20 S7 1.503314 1_555
O21 S5 1.489572 1_555
O22 Si2 1.647722 1_555
O23 S4 1.485008 1_555
O24 S9 1.513108 1_555
O25 S10 1.524448 1_555
O26 S11 1.521593 1_555
O27 S12 1.473909 1_555
O28 S13 1.467930 1_555
O29 S14 1.466821 1_555
O30 S14 1.499687 1_555
O31 S12 1.499273 1_555
O32 S13 1.502584 1_555
O33 S10 1.474528 1_555
O34 S11 1.478400 1_555
O35 S9 1.476656 1_555
O36 S14 1.488926 1_555
O37 S12 1.475262 1_555
O38 S13 1.478957 1_555
O39 S10 1.469418 1_555
O40 S11 1.467736 1_555
O41 S9 1.463085 1_555
O42 S4 1.478603 1_455
O43 S5 1.468561 1_555
O44 Si2 1.625087 1_555
O45 S6 1.501225 1_555
O46 S7 1.481556 1_555
O47 S8 1.478948 1_555
O48 Si1 1.613190 1_555
O49 S2 1.466805 1_555
O50 S3 1.466425 1_555
O51 S0 1.483653 1_555
O52 S1 1.480758 1_555
O53 Si0 1.633996 1_555
O54 S9 1.496775 1_555
O55 S10 1.503132 1_655
O56 S11 1.497002 1_545
O57 S12 1.478472 1_545
O58 S13 1.483857 1_555
O59 S14 1.479493 1_655
O60 S8 1.523588 1_555
O61 S6 1.501248 1_455
O62 S7 1.508092 1_565
O63 S5 1.481046 1_565
O64 Si2 1.639438 1_555
O65 S4 1.474435 1_455
O66 Si0 1.671031 1_565
O67 S0 1.467873 1_555
O68 S1 1.473459 1_455
O69 S2 1.472846 1_555
O70 S3 1.466576 1_455
O71 Si1 1.639319 1_565
