# generated using pymatgen
data_LiV6P7O24
_symmetry_space_group_name_H-M   'P 1'
_cell_length_a   26.85238400
_cell_length_b   5.39330200
_cell_length_c   6.64849357
_cell_angle_alpha   72.58370519
_cell_angle_beta   90.00000000
_cell_angle_gamma   90.00000000
_symmetry_Int_Tables_number   1
_chemical_formula_structural   LiV6P7O24
_chemical_formula_sum   'Li2 V12 P14 O48'
_cell_volume   918.71304459
_cell_formula_units_Z   2
loop_
 _symmetry_equiv_pos_site_id
 _symmetry_equiv_pos_as_xyz
  1  'x, y, z'
loop_
 _atom_site_type_symbol
 _atom_site_label
 _atom_site_symmetry_multiplicity
 _atom_site_fract_x
 _atom_site_fract_y
 _atom_site_fract_z
 _atom_site_occupancy
  Li  Li0  1  0.75000000  0.37585500  0.96023400  1
  Li  Li1  1  0.25000000  0.62414500  0.03976600  1
  V  V0  1  0.45467400  0.32257800  0.18886100  1
  V  V1  1  0.04532600  0.32257800  0.18886100  1
  V  V2  1  0.31650400  0.38636700  0.77515300  1
  V  V3  1  0.18349600  0.38636700  0.77515300  1
  V  V4  1  0.90245300  0.29140400  0.58666500  1
  V  V5  1  0.59754700  0.29140400  0.58666500  1
  V  V6  1  0.40245300  0.70859600  0.41333500  1
  V  V7  1  0.09754700  0.70859600  0.41333500  1
  V  V8  1  0.81650400  0.61363300  0.22484700  1
  V  V9  1  0.68349600  0.61363300  0.22484700  1
  V  V10  1  0.95467400  0.67742200  0.81113900  1
  V  V11  1  0.54532600  0.67742200  0.81113900  1
  P  P0  1  0.33223700  0.26078100  0.30804900  1
  P  P1  1  0.16776300  0.26078100  0.30804900  1
  P  P2  1  0.89107700  0.17528800  0.11546600  1
  P  P3  1  0.60892300  0.17528800  0.11546600  1
  P  P4  1  0.75000000  0.02549600  0.40787300  1
  P  P5  1  0.47609200  0.21261100  0.70414700  1
  P  P6  1  0.02390800  0.21261100  0.70414700  1
  P  P7  1  0.97609200  0.78738900  0.29585300  1
  P  P8  1  0.52390800  0.78738900  0.29585300  1
  P  P9  1  0.25000000  0.97450400  0.59212700  1
  P  P10  1  0.39107700  0.82471200  0.88453400  1
  P  P11  1  0.10892300  0.82471200  0.88453400  1
  P  P12  1  0.83223700  0.73921900  0.69195100  1
  P  P13  1  0.66776300  0.73921900  0.69195100  1
  O  O0  1  0.33535000  0.44326000  0.44649400  1
  O  O1  1  0.16465000  0.44326000  0.44649400  1
  O  O2  1  0.45047300  0.36965200  0.49883100  1
  O  O3  1  0.04952700  0.36965200  0.49883100  1
  O  O4  1  0.87861600  0.34276000  0.26083800  1
  O  O5  1  0.62138400  0.34276000  0.26083800  1
  O  O6  1  0.30514600  0.38789500  0.10094400  1
  O  O7  1  0.19485400  0.38789500  0.10094400  1
  O  O8  1  0.75000000  0.31280900  0.27766900  1
  O  O9  1  0.47952000  0.36731200  0.86379300  1
  O  O10  1  0.02048000  0.36731200  0.86379300  1
  O  O11  1  0.90492200  0.34807300  0.89295400  1
  O  O12  1  0.59507800  0.34807300  0.89295400  1
  O  O13  1  0.38022400  0.11843400  0.28771800  1
  O  O14  1  0.11977600  0.11843400  0.28771800  1
  O  O15  1  0.29665800  0.01484400  0.44119900  1
  O  O16  1  0.20334200  0.01484400  0.44119900  1
  O  O17  1  0.94348600  0.04312700  0.20172600  1
  O  O18  1  0.55651400  0.04312700  0.20172600  1
  O  O19  1  0.25000000  0.16271100  0.72319400  1
  O  O20  1  0.47417800  0.90993600  0.33151900  1
  O  O21  1  0.02582200  0.90993600  0.33151900  1
  O  O22  1  0.85209900  0.97461300  0.11771100  1
  O  O23  1  0.64790100  0.97461300  0.11771100  1
  O  O24  1  0.35209900  0.02538700  0.88228900  1
  O  O25  1  0.14790100  0.02538700  0.88228900  1
  O  O26  1  0.97417800  0.09006400  0.66848100  1
  O  O27  1  0.52582200  0.09006400  0.66848100  1
  O  O28  1  0.75000000  0.83728900  0.27680600  1
  O  O29  1  0.44348600  0.95687300  0.79827400  1
  O  O30  1  0.05651400  0.95687300  0.79827400  1
  O  O31  1  0.79665800  0.98515600  0.55880100  1
  O  O32  1  0.70334200  0.98515600  0.55880100  1
  O  O33  1  0.88022400  0.88156600  0.71228200  1
  O  O34  1  0.61977600  0.88156600  0.71228200  1
  O  O35  1  0.40492200  0.65192700  0.10704600  1
  O  O36  1  0.09507800  0.65192700  0.10704600  1
  O  O37  1  0.97952000  0.63268800  0.13620700  1
  O  O38  1  0.52048000  0.63268800  0.13620700  1
  O  O39  1  0.25000000  0.68719100  0.72233100  1
  O  O40  1  0.80514600  0.61210500  0.89905600  1
  O  O41  1  0.69485400  0.61210500  0.89905600  1
  O  O42  1  0.37861600  0.65724000  0.73916200  1
  O  O43  1  0.12138400  0.65724000  0.73916200  1
  O  O44  1  0.95047300  0.63034800  0.50116900  1
  O  O45  1  0.54952700  0.63034800  0.50116900  1
  O  O46  1  0.83535000  0.55674000  0.55350600  1
  O  O47  1  0.66465000  0.55674000  0.55350600  1
loop_
_geom_bond_atom_site_label_1
_geom_bond_atom_site_label_2
_geom_bond_distance
_geom_bond_site_symmetry_2
Li0 O40 1.916109 1_555
Li0 O41 1.916109 1_555
Li0 O8 2.034723 1_556
Li1 O6 1.916109 1_555
Li1 O7 1.916109 1_555
Li1 O39 2.034723 1_554
O0 P0 1.537880 1_555
O0 V2 2.173360 1_555
O0 V6 2.270323 1_555
O1 P1 1.537880 1_555
O1 V3 2.173360 1_555
O1 V7 2.270323 1_555
O2 P5 1.536830 1_555
O2 V0 2.153468 1_555
O2 V6 2.169204 1_555
O3 P6 1.536830 1_555
O3 V1 2.153468 1_555
O3 V7 2.169204 1_555
O4 P2 1.544181 1_555
O4 V8 2.182651 1_555
O4 V4 2.195431 1_555
O5 P3 1.544181 1_555
O5 V9 2.182651 1_555
O5 V5 2.195431 1_555
O6 P0 1.526453 1_555
O6 V2 2.189843 1_554
O7 P1 1.526453 1_555
O7 V3 2.189843 1_554
O8 P4 1.532165 1_555
O8 V8 2.367191 1_555
O8 V9 2.367191 1_555
O9 P5 1.536660 1_555
O9 V0 2.205002 1_556
O9 V11 2.385755 1_555
O10 P6 1.536660 1_555
O10 V1 2.205002 1_556
O10 V10 2.385755 1_455
O11 P2 1.539445 1_556
O11 V4 2.148754 1_555
O11 V10 2.158111 1_555
O12 P3 1.539445 1_556
O12 V5 2.148754 1_555
O12 V11 2.158111 1_555
O13 P0 1.526495 1_555
O13 V6 2.198748 1_545
O13 V0 2.282028 1_555
O14 P1 1.526495 1_555
O14 V7 2.198748 1_545
O14 V1 2.282028 1_555
O15 P9 1.579003 1_545
O15 P0 1.659180 1_555
O16 P9 1.579003 1_545
O16 P1 1.659180 1_555
O17 P7 1.594962 1_545
O17 P2 1.603985 1_555
O18 P8 1.594962 1_545
O18 P3 1.603985 1_555
O19 P9 1.522882 1_545
O19 V3 2.238940 1_555
O19 V2 2.238940 1_555
O20 P8 1.539510 1_555
O20 V6 2.197925 1_555
O20 V0 2.205256 1_565
O21 P7 1.539510 1_455
O21 V7 2.197925 1_555
O21 V1 2.205256 1_565
O22 P2 1.502467 1_565
O22 V8 2.093111 1_555
O23 P3 1.502467 1_565
O23 V9 2.093111 1_555
O24 P10 1.502467 1_545
O24 V2 2.093111 1_555
O25 P11 1.502467 1_545
O25 V3 2.093111 1_555
O26 P6 1.539510 1_655
O26 V4 2.197925 1_555
O26 V10 2.205256 1_545
O27 P5 1.539510 1_555
O27 V5 2.197925 1_555
O27 V11 2.205256 1_545
O28 P4 1.522882 1_565
O28 V8 2.238940 1_555
O28 V9 2.238940 1_555
O29 P5 1.594962 1_565
O29 P10 1.603985 1_555
O30 P6 1.594962 1_565
O30 P11 1.603985 1_555
O31 P4 1.579003 1_565
O31 P12 1.659180 1_555
O32 P4 1.579003 1_565
O32 P13 1.659180 1_555
O33 P12 1.526495 1_555
O33 V4 2.198748 1_565
O33 V10 2.282028 1_555
O34 P13 1.526495 1_555
O34 V5 2.198748 1_565
O34 V11 2.282028 1_555
O35 P10 1.539445 1_554
O35 V6 2.148754 1_555
O35 V0 2.158111 1_555
O36 P11 1.539445 1_554
O36 V7 2.148754 1_555
O36 V1 2.158111 1_555
O37 P7 1.536660 1_555
O37 V10 2.205002 1_554
O37 V1 2.385755 1_655
O38 P8 1.536660 1_555
O38 V11 2.205002 1_554
O38 V0 2.385755 1_555
O39 P9 1.532165 1_555
O39 V3 2.367191 1_555
O39 V2 2.367191 1_555
O40 P12 1.526453 1_555
O40 V8 2.189843 1_556
O41 P13 1.526453 1_555
O41 V9 2.189843 1_556
O42 P10 1.544181 1_555
O42 V2 2.182651 1_555
O42 V6 2.195431 1_555
O43 P11 1.544181 1_555
O43 V3 2.182651 1_555
O43 V7 2.195431 1_555
O44 P7 1.536830 1_555
O44 V10 2.153468 1_555
O44 V4 2.169204 1_555
O45 P8 1.536830 1_555
O45 V11 2.153468 1_555
O45 V5 2.169204 1_555
O46 P12 1.537880 1_555
O46 V8 2.173360 1_555
O46 V4 2.270323 1_555
O47 P13 1.537880 1_555
O47 V9 2.173360 1_555
O47 V5 2.270323 1_555
