# generated using pymatgen
data_MgCuPtO2
_symmetry_space_group_name_H-M   'P 1'
_cell_length_a   4.49514698
_cell_length_b   2.96668932
_cell_length_c   5.71349824
_cell_angle_alpha   90.00000000
_cell_angle_beta   90.00000000
_cell_angle_gamma   90.00000000
_symmetry_Int_Tables_number   1
_chemical_formula_structural   MgCuPtO2
_chemical_formula_sum   'Mg1 Cu1 Pt1 O2'
_cell_volume   76.19352440
_cell_formula_units_Z   1
loop_
 _symmetry_equiv_pos_site_id
 _symmetry_equiv_pos_as_xyz
  1  'x, y, z'
loop_
 _atom_site_type_symbol
 _atom_site_label
 _atom_site_symmetry_multiplicity
 _atom_site_fract_x
 _atom_site_fract_y
 _atom_site_fract_z
 _atom_site_occupancy
  Mg  Mg0  1  -0.00000000  -0.00000000  0.50000000  1
  Cu  Cu0  1  0.50000000  0.50000000  0.50000000  1
  Pt  Pt0  1  -0.00000000  -0.00000000  0.00000000  1
  O  O0  1  -0.00000000  0.50000000  0.74900627  1
  O  O1  1  -0.00000000  0.50000000  0.25099373  1
loop_
_geom_bond_atom_site_label_1
_geom_bond_atom_site_label_2
_geom_bond_distance
_geom_bond_site_symmetry_2
Mg0 O0 2.055329 1_555
Mg0 O1 2.055329 1_555
Mg0 O0 2.055329 1_545
Mg0 O1 2.055329 1_545
Cu0 O0 2.660010 1_655
Cu0 O1 2.660010 1_655
Cu0 O0 2.660010 1_555
Cu0 O1 2.660010 1_555
Cu0 Mg0 2.692935 1_565
Cu0 Mg0 2.692935 1_555
Cu0 Mg0 2.692935 1_655
Cu0 Mg0 2.692935 1_665
O0 Pt0 2.063206 1_556
O0 Pt0 2.063206 1_566
O1 Pt0 2.063206 1_555
O1 Pt0 2.063206 1_565
