# generated using pymatgen
data_Na4AlZn(PO4)3
_symmetry_space_group_name_H-M   'P 1'
_cell_length_a   8.88871929
_cell_length_b   8.88871899
_cell_length_c   21.52837380
_cell_angle_alpha   90.00000000
_cell_angle_beta   90.00000000
_cell_angle_gamma   120.00000108
_symmetry_Int_Tables_number   1
_chemical_formula_structural   Na4AlZn(PO4)3
_chemical_formula_sum   'Na24 Al6 Zn6 P18 O72'
_cell_volume   1473.05926605
_cell_formula_units_Z   6
loop_
 _symmetry_equiv_pos_site_id
 _symmetry_equiv_pos_as_xyz
  1  'x, y, z'
loop_
 _atom_site_type_symbol
 _atom_site_label
 _atom_site_symmetry_multiplicity
 _atom_site_fract_x
 _atom_site_fract_y
 _atom_site_fract_z
 _atom_site_occupancy
  Na  Na0  1  0.63854894  0.00836293  0.24833235  1
  Na  Na1  1  0.36981399  0.36145106  0.24833235  1
  Na  Na2  1  0.99163707  0.63018601  0.24833235  1
  Na  Na3  1  0.63854894  0.63018601  0.74833235  1
  Na  Na4  1  0.99163707  0.36145106  0.74833235  1
  Na  Na5  1  0.36981399  0.00836293  0.74833235  1
  Na  Na6  1  0.30521594  0.34169593  0.58166535  1
  Na  Na7  1  0.03648099  0.69478406  0.58166535  1
  Na  Na8  1  0.65830407  0.96351901  0.58166535  1
  Na  Na9  1  0.30521594  0.96351901  0.08166535  1
  Na  Na10  1  0.65830407  0.69478406  0.08166535  1
  Na  Na11  1  0.03648099  0.34169593  0.08166535  1
  Na  Na12  1  0.97188194  0.67502993  0.91499935  1
  Na  Na13  1  0.70314699  0.02811806  0.91499935  1
  Na  Na14  1  0.32497007  0.29685301  0.91499935  1
  Na  Na15  1  0.97188194  0.29685301  0.41499935  1
  Na  Na16  1  0.32497007  0.02811806  0.41499935  1
  Na  Na17  1  0.70314699  0.67502993  0.41499935  1
  Na  Na18  1  -0.00000000  0.00000000  0.49737574  1
  Na  Na19  1  -0.00000000  0.00000000  0.99737574  1
  Na  Na20  1  0.66666700  0.33333300  0.83070874  1
  Na  Na21  1  0.66666700  0.33333300  0.33070874  1
  Na  Na22  1  0.33333300  0.66666700  0.16404274  1
  Na  Na23  1  0.33333300  0.66666700  0.66404274  1
  Al  Al0  1  -0.00000000  0.00000000  0.64904260  1
  Al  Al1  1  -0.00000000  -0.00000000  0.14904260  1
  Al  Al2  1  0.66666700  0.33333300  0.98237560  1
  Al  Al3  1  0.66666700  0.33333300  0.48237560  1
  Al  Al4  1  0.33333300  0.66666700  0.31570960  1
  Al  Al5  1  0.33333300  0.66666700  0.81570960  1
  Zn  Zn0  1  -0.00000000  0.00000000  0.34733478  1
  Zn  Zn1  1  -0.00000000  0.00000000  0.84733478  1
  Zn  Zn2  1  0.66666700  0.33333300  0.68066778  1
  Zn  Zn3  1  0.66666700  0.33333300  0.18066778  1
  Zn  Zn4  1  0.33333300  0.66666700  0.01400178  1
  Zn  Zn5  1  0.33333300  0.66666700  0.51400178  1
  P  P0  1  0.29067973  0.99364400  0.25057521  1
  P  P1  1  0.70296427  0.70932027  0.25057521  1
  P  P2  1  0.00635600  0.29703573  0.25057521  1
  P  P3  1  0.29067973  0.29703573  0.75057521  1
  P  P4  1  0.00635600  0.70932027  0.75057521  1
  P  P5  1  0.70296427  0.99364400  0.75057521  1
  P  P6  1  0.95734673  0.32697700  0.58390821  1
  P  P7  1  0.36963127  0.04265327  0.58390821  1
  P  P8  1  0.67302300  0.63036873  0.58390821  1
  P  P9  1  0.95734673  0.63036873  0.08390821  1
  P  P10  1  0.67302300  0.04265327  0.08390821  1
  P  P11  1  0.36963127  0.32697700  0.08390821  1
  P  P12  1  0.62401273  0.66031100  0.91724221  1
  P  P13  1  0.03629727  0.37598727  0.91724221  1
  P  P14  1  0.33968900  0.96370273  0.91724221  1
  P  P15  1  0.62401273  0.96370273  0.41724221  1
  P  P16  1  0.33968900  0.37598727  0.41724221  1
  P  P17  1  0.03629727  0.66031100  0.41724221  1
  O  O0  1  0.21661118  0.02763705  0.30965121  1
  O  O1  1  0.81102587  0.78338882  0.30965121  1
  O  O2  1  0.97236295  0.18897413  0.30965121  1
  O  O3  1  0.21661118  0.18897413  0.80965121  1
  O  O4  1  0.97236295  0.78338882  0.80965121  1
  O  O5  1  0.81102587  0.02763705  0.80965121  1
  O  O6  1  0.79490754  0.96510661  0.69322625  1
  O  O7  1  0.17019907  0.20509246  0.69322625  1
  O  O8  1  0.03489339  0.82980093  0.69322625  1
  O  O9  1  0.79490754  0.82980093  0.19322625  1
  O  O10  1  0.03489339  0.20509246  0.19322625  1
  O  O11  1  0.17019907  0.96510661  0.19322625  1
  O  O12  1  0.88327818  0.36097005  0.64298421  1
  O  O13  1  0.47769287  0.11672182  0.64298421  1
  O  O14  1  0.63902995  0.52230713  0.64298421  1
  O  O15  1  0.88327818  0.52230713  0.14298421  1
  O  O16  1  0.63902995  0.11672182  0.14298421  1
  O  O17  1  0.47769287  0.36097005  0.14298421  1
  O  O18  1  0.46157454  0.29843961  0.02655925  1
  O  O19  1  0.83686607  0.53842546  0.02655925  1
  O  O20  1  0.70156039  0.16313393  0.02655925  1
  O  O21  1  0.46157454  0.16313393  0.52655925  1
  O  O22  1  0.70156039  0.53842546  0.52655925  1
  O  O23  1  0.83686607  0.29843961  0.52655925  1
  O  O24  1  0.54994418  0.69430405  0.97631821  1
  O  O25  1  0.14435887  0.45005582  0.97631821  1
  O  O26  1  0.30569595  0.85564113  0.97631821  1
  O  O27  1  0.54994418  0.85564113  0.47631821  1
  O  O28  1  0.30569595  0.45005582  0.47631821  1
  O  O29  1  0.14435887  0.69430405  0.47631821  1
  O  O30  1  0.12824054  0.63177361  0.35989325  1
  O  O31  1  0.50353207  0.87175946  0.35989325  1
  O  O32  1  0.36822639  0.49646793  0.35989325  1
  O  O33  1  0.12824054  0.49646793  0.85989325  1
  O  O34  1  0.36822639  0.87175946  0.85989325  1
  O  O35  1  0.50353207  0.63177361  0.85989325  1
  O  O36  1  0.01002735  0.81864938  0.41147447  1
  O  O37  1  0.80862203  0.98997265  0.41147447  1
  O  O38  1  0.18135062  0.19137797  0.41147447  1
  O  O39  1  0.01002735  0.19137797  0.91147447  1
  O  O40  1  0.18135062  0.98997265  0.91147447  1
  O  O41  1  0.80862203  0.81864938  0.91147447  1
  O  O42  1  0.96923663  0.15597579  0.58882279  1
  O  O43  1  0.18673916  0.03076337  0.58882279  1
  O  O44  1  0.84402421  0.81326084  0.58882279  1
  O  O45  1  0.96923663  0.81326084  0.08882279  1
  O  O46  1  0.84402421  0.03076337  0.08882279  1
  O  O47  1  0.18673916  0.15597579  0.08882279  1
  O  O48  1  0.67669435  0.15198238  0.74480747  1
  O  O49  1  0.47528903  0.32330565  0.74480747  1
  O  O50  1  0.84801762  0.52471097  0.74480747  1
  O  O51  1  0.67669435  0.52471097  0.24480747  1
  O  O52  1  0.84801762  0.32330565  0.24480747  1
  O  O53  1  0.47528903  0.15198238  0.24480747  1
  O  O54  1  0.63590363  0.48930879  0.92215579  1
  O  O55  1  0.85340616  0.36409637  0.92215579  1
  O  O56  1  0.51069121  0.14659384  0.92215579  1
  O  O57  1  0.63590363  0.14659384  0.42215579  1
  O  O58  1  0.51069121  0.36409637  0.42215579  1
  O  O59  1  0.85340616  0.48930879  0.42215579  1
  O  O60  1  0.34336035  0.48531638  0.07814147  1
  O  O61  1  0.14195503  0.65663965  0.07814147  1
  O  O62  1  0.51468362  0.85804497  0.07814147  1
  O  O63  1  0.34336035  0.85804497  0.57814147  1
  O  O64  1  0.51468362  0.65663965  0.57814147  1
  O  O65  1  0.14195503  0.48531638  0.57814147  1
  O  O66  1  0.30256963  0.82264279  0.25548979  1
  O  O67  1  0.52007216  0.69743037  0.25548979  1
  O  O68  1  0.17735721  0.47992784  0.25548979  1
  O  O69  1  0.30256963  0.47992784  0.75548979  1
  O  O70  1  0.17735721  0.69743037  0.75548979  1
  O  O71  1  0.52007216  0.82264279  0.75548979  1
loop_
_geom_bond_atom_site_label_1
_geom_bond_atom_site_label_2
_geom_bond_distance
_geom_bond_site_symmetry_2
Na0 O53 2.365143 1_555
Na0 O67 2.420900 1_545
Na0 O16 2.463190 1_555
Na0 O52 2.469213 1_555
Na0 O66 2.595696 1_545
Na0 O31 2.688068 1_545
Na0 O9 2.839739 1_545
Na0 O2 2.891471 1_555
Na1 O51 2.365151 1_555
Na1 O68 2.420908 1_555
Na1 O17 2.463194 1_555
Na1 O53 2.469220 1_555
Na1 O67 2.595696 1_555
Na1 O32 2.688070 1_555
Na1 O10 2.839739 1_555
Na1 O0 2.891471 1_555
Na2 O52 2.365151 1_555
Na2 O66 2.420901 1_655
Na2 O15 2.463192 1_555
Na2 O51 2.469212 1_555
Na2 O68 2.595688 1_655
Na2 O30 2.688066 1_655
Na2 O11 2.839739 1_655
Na2 O1 2.891471 1_555
Na3 O49 2.365151 1_555
Na3 O71 2.420908 1_555
Na3 O14 2.463194 1_555
Na3 O50 2.469220 1_555
Na3 O69 2.595696 1_555
Na3 O35 2.688070 1_555
Na3 O6 2.839739 1_555
Na3 O4 2.891471 1_555
Na4 O50 2.365143 1_555
Na4 O69 2.420900 1_655
Na4 O12 2.463190 1_555
Na4 O48 2.469213 1_555
Na4 O70 2.595695 1_655
Na4 O33 2.688068 1_655
Na4 O7 2.839739 1_655
Na4 O5 2.891471 1_555
Na5 O48 2.365151 1_555
Na5 O70 2.420901 1_545
Na5 O13 2.463192 1_555
Na5 O49 2.469212 1_555
Na5 O71 2.595688 1_545
Na5 O34 2.688066 1_545
Na5 O8 2.839739 1_545
Na5 O3 2.891471 1_555
Na6 O65 2.365158 1_555
Na6 O43 2.420900 1_555
Na6 O28 2.463176 1_555
Na6 O64 2.469218 1_555
Na6 O42 2.595696 1_455
Na6 O7 2.688068 1_555
Na6 O21 2.839739 1_555
Na6 O14 2.891471 1_555
Na7 O63 2.365143 1_555
Na7 O44 2.420908 1_455
Na7 O29 2.463169 1_555
Na7 O65 2.469204 1_555
Na7 O43 2.595696 1_565
Na7 O8 2.688070 1_555
Na7 O22 2.839739 1_455
Na7 O12 2.891471 1_455
Na8 O64 2.365142 1_555
Na8 O42 2.420901 1_565
Na8 O27 2.463172 1_555
Na8 O63 2.469221 1_555
Na8 O44 2.595688 1_555
Na8 O6 2.688066 1_555
Na8 O23 2.839739 1_565
Na8 O13 2.891471 1_565
Na9 O61 2.365143 1_555
Na9 O47 2.420908 1_565
Na9 O26 2.463169 1_554
Na9 O62 2.469204 1_555
Na9 O45 2.595696 1_455
Na9 O11 2.688070 1_555
Na9 O18 2.839739 1_565
Na9 O16 2.891471 1_565
Na10 O62 2.365158 1_555
Na10 O45 2.420900 1_555
Na10 O24 2.463176 1_554
Na10 O60 2.469218 1_555
Na10 O46 2.595695 1_565
Na10 O9 2.688068 1_555
Na10 O19 2.839739 1_555
Na10 O17 2.891471 1_555
Na11 O60 2.365142 1_555
Na11 O46 2.420901 1_455
Na11 O25 2.463172 1_554
Na11 O61 2.469221 1_555
Na11 O47 2.595688 1_555
Na11 O10 2.688066 1_555
Na11 O20 2.839739 1_455
Na11 O15 2.891471 1_455
Na12 O41 2.365143 1_555
Na12 O55 2.420908 1_555
Na12 O4 2.463190 1_555
Na12 O40 2.469213 1_655
Na12 O54 2.595687 1_555
Na12 O19 2.688049 1_556
Na12 O33 2.839739 1_655
Na12 O26 2.891471 1_655
Na13 O39 2.365151 1_655
Na13 O56 2.420891 1_555
Na13 O5 2.463194 1_555
Na13 O41 2.469220 1_545
Na13 O55 2.595686 1_555
Na13 O20 2.688045 1_556
Na13 O34 2.839739 1_545
Na13 O24 2.891471 1_545
Na14 O40 2.365151 1_545
Na14 O54 2.420905 1_555
Na14 O3 2.463192 1_555
Na14 O39 2.469212 1_555
Na14 O56 2.595702 1_555
Na14 O18 2.688053 1_556
Na14 O35 2.839739 1_555
Na14 O25 2.891471 1_555
Na15 O37 2.365151 1_545
Na15 O59 2.420891 1_555
Na15 O2 2.463194 1_555
Na15 O38 2.469220 1_655
Na15 O57 2.595686 1_555
Na15 O23 2.688045 1_555
Na15 O30 2.839739 1_655
Na15 O28 2.891471 1_655
Na16 O38 2.365143 1_555
Na16 O57 2.420908 1_555
Na16 O0 2.463190 1_555
Na16 O36 2.469213 1_545
Na16 O58 2.595687 1_555
Na16 O21 2.688049 1_555
Na16 O31 2.839739 1_545
Na16 O29 2.891471 1_545
Na17 O36 2.365151 1_655
Na17 O58 2.420905 1_555
Na17 O1 2.463192 1_555
Na17 O37 2.469212 1_555
Na17 O59 2.595702 1_555
Na17 O22 2.688053 1_555
Na17 O32 2.839739 1_555
Na17 O27 2.891471 1_555
Na18 O38 2.483958 1_555
Na18 O36 2.483958 1_545
Na18 O37 2.483958 1_445
Na18 O44 2.500373 1_445
Na18 O42 2.500373 1_455
Na18 O43 2.500373 1_555
Na19 O39 2.483958 1_555
Na19 O41 2.483958 1_445
Na19 O40 2.483958 1_545
Na19 O45 2.500373 1_446
Na19 O47 2.500373 1_556
Na19 O46 2.500373 1_456
Na20 O50 2.483958 1_555
Na20 O48 2.483958 1_555
Na20 O49 2.483958 1_555
Na20 O56 2.500373 1_555
Na20 O54 2.500373 1_555
Na20 O55 2.500373 1_555
Na21 O51 2.483958 1_555
Na21 O53 2.483958 1_555
Na21 O52 2.483958 1_555
Na21 O57 2.500373 1_555
Na21 O59 2.500373 1_555
Na21 O58 2.500373 1_555
Na22 O62 2.483958 1_555
Na22 O60 2.483958 1_555
Na22 O61 2.483958 1_555
Na22 O68 2.500373 1_555
Na22 O66 2.500373 1_555
Na22 O67 2.500373 1_555
Na23 O63 2.483958 1_555
Na23 O65 2.483958 1_555
Na23 O64 2.483958 1_555
Na23 O69 2.500373 1_555
Na23 O71 2.500373 1_555
Na23 O70 2.500373 1_555
Al0 O7 1.938795 1_555
Al0 O8 1.938795 1_545
Al0 O6 1.938795 1_445
Al0 O44 2.014151 1_445
Al0 O42 2.014151 1_455
Al0 O43 2.014151 1_555
Al1 O10 1.938795 1_555
Al1 O9 1.938795 1_445
Al1 O11 1.938795 1_545
Al1 O45 2.014151 1_445
Al1 O47 2.014151 1_555
Al1 O46 2.014151 1_455
Al2 O19 1.938795 1_556
Al2 O20 1.938795 1_556
Al2 O18 1.938795 1_556
Al2 O56 2.014151 1_555
Al2 O54 2.014151 1_555
Al2 O55 2.014151 1_555
Al3 O22 1.938795 1_555
Al3 O21 1.938795 1_555
Al3 O23 1.938795 1_555
Al3 O57 2.014151 1_555
Al3 O59 2.014151 1_555
Al3 O58 2.014151 1_555
Al4 O31 1.938795 1_555
Al4 O32 1.938795 1_555
Al4 O30 1.938795 1_555
Al4 O68 2.014151 1_555
Al4 O66 2.014151 1_555
Al4 O67 2.014151 1_555
Al5 O34 1.938795 1_555
Al5 O33 1.938795 1_555
Al5 O35 1.938795 1_555
Al5 O69 2.014151 1_555
Al5 O71 2.014151 1_555
Al5 O70 2.014151 1_555
O0 P0 1.530094 1_545
O0 Zn0 1.988130 1_555
O1 P1 1.530094 1_555
O1 Zn0 1.988130 1_665
O2 P2 1.530094 1_655
O2 Zn0 1.988130 1_655
O3 P3 1.530094 1_555
O3 Zn1 1.988130 1_555
O4 P4 1.530094 1_655
O4 Zn1 1.988130 1_665
O5 P5 1.530094 1_545
O5 Zn1 1.988130 1_655
O6 P5 1.569672 1_555
O7 P3 1.569672 1_555
O8 P4 1.569672 1_555
O9 P1 1.569672 1_555
O10 P2 1.569672 1_555
O11 P0 1.569672 1_555
O12 P6 1.530094 1_555
O12 Zn2 1.988130 1_555
O13 P7 1.530094 1_555
O13 Zn2 1.988130 1_555
O14 P8 1.530094 1_555
O14 Zn2 1.988130 1_555
O15 P9 1.530094 1_555
O15 Zn3 1.988130 1_555
O16 P10 1.530094 1_555
O16 Zn3 1.988130 1_555
O17 P11 1.530094 1_555
O17 Zn3 1.988130 1_555
O18 P11 1.569672 1_555
O19 P9 1.569672 1_555
O20 P10 1.569672 1_555
O21 P7 1.569672 1_555
O22 P8 1.569672 1_555
O23 P6 1.569672 1_555
O24 P12 1.530094 1_555
O24 Zn4 1.988130 1_556
O25 P13 1.530094 1_555
O25 Zn4 1.988130 1_556
O26 P14 1.530094 1_555
O26 Zn4 1.988130 1_556
O27 P15 1.530094 1_555
O27 Zn5 1.988130 1_555
O28 P16 1.530094 1_555
O28 Zn5 1.988130 1_555
O29 P17 1.530094 1_555
O29 Zn5 1.988130 1_555
O30 P17 1.569672 1_555
O31 P15 1.569672 1_555
O32 P16 1.569672 1_555
O33 P13 1.569672 1_555
O34 P14 1.569672 1_555
O35 P12 1.569672 1_555
O36 P17 1.542541 1_555
O36 Zn0 2.157952 1_565
O37 P15 1.542549 1_555
O37 Zn0 2.157952 1_665
O38 P16 1.542546 1_555
O38 Zn0 2.157952 1_555
O39 P13 1.542549 1_555
O39 Zn1 2.157952 1_555
O40 P14 1.542541 1_555
O40 Zn1 2.157952 1_565
O41 P12 1.542546 1_555
O41 Zn1 2.157952 1_665
O42 P6 1.579034 1_555
O43 P7 1.579043 1_555
O44 P8 1.579039 1_555
O45 P9 1.579043 1_555
O46 P10 1.579034 1_555
O47 P11 1.579039 1_555
O48 P5 1.542541 1_545
O48 Zn2 2.157952 1_555
O49 P3 1.542549 1_555
O49 Zn2 2.157952 1_555
O50 P4 1.542546 1_655
O50 Zn2 2.157952 1_555
O51 P1 1.542549 1_555
O51 Zn3 2.157952 1_555
O52 P2 1.542541 1_655
O52 Zn3 2.157952 1_555
O53 P0 1.542546 1_545
O53 Zn3 2.157952 1_555
O54 P12 1.579046 1_555
O55 P13 1.579029 1_655
O56 P14 1.579037 1_545
O57 P15 1.579029 1_545
O58 P16 1.579047 1_555
O59 P17 1.579037 1_655
O60 P11 1.542553 1_555
O60 Zn4 2.157952 1_555
O61 P9 1.542536 1_455
O61 Zn4 2.157952 1_555
O62 P10 1.542542 1_565
O62 Zn4 2.157952 1_555
O63 P7 1.542535 1_565
O63 Zn5 2.157952 1_555
O64 P8 1.542553 1_555
O64 Zn5 2.157952 1_555
O65 P6 1.542542 1_455
O65 Zn5 2.157952 1_555
O66 P0 1.579034 1_555
O67 P1 1.579043 1_555
O68 P2 1.579039 1_555
O69 P3 1.579043 1_555
O70 P4 1.579034 1_555
O71 P5 1.579039 1_555
