# generated using pymatgen
data_Na6Sc4Ta4Si7S5O48
_symmetry_space_group_name_H-M   'P 1'
_cell_length_a   17.93549566
_cell_length_b   8.93653651
_cell_length_c   22.94443856
_cell_angle_alpha   90.06002290
_cell_angle_beta   90.06361171
_cell_angle_gamma   119.91294382
_symmetry_Int_Tables_number   1
_chemical_formula_structural   Na6Sc4Ta4Si7S5O48
_chemical_formula_sum   'Na18 Sc12 Ta12 Si21 S15 O144'
_cell_volume   3187.64526919
_cell_formula_units_Z   3
loop_
 _symmetry_equiv_pos_site_id
 _symmetry_equiv_pos_as_xyz
  1  'x, y, z'
loop_
 _atom_site_type_symbol
 _atom_site_label
 _atom_site_symmetry_multiplicity
 _atom_site_fract_x
 _atom_site_fract_y
 _atom_site_fract_z
 _atom_site_occupancy
  Na  Na0  1  0.00036123  0.61777558  0.25130724  1
  Na  Na1  1  0.50060017  0.64070978  0.25697794  1
  Na  Na2  1  0.99964668  0.36182877  0.75177275  1
  Na  Na3  1  0.50065173  0.38306614  0.74910175  1
  Na  Na4  1  0.33253793  0.97508637  0.58040637  1
  Na  Na5  1  0.83163965  0.68873782  0.08249171  1
  Na  Na6  1  0.00041261  0.98568413  0.50102301  1
  Na  Na7  1  0.50198782  0.00849107  0.49807451  1
  Na  Na8  1  0.99718388  0.99351688  0.00059093  1
  Na  Na9  1  0.50187247  0.01712622  0.00263095  1
  Na  Na10  1  0.33092141  0.35040441  0.82574359  1
  Na  Na11  1  0.83074394  0.33147730  0.83361750  1
  Na  Na12  1  0.33221695  0.33222732  0.33531443  1
  Na  Na13  1  0.82750857  0.31080228  0.32824186  1
  Na  Na14  1  0.16990481  0.66045378  0.17403260  1
  Na  Na15  1  0.66849116  0.66894661  0.16859752  1
  Na  Na16  1  0.16801061  0.66929527  0.66431795  1
  Na  Na17  1  0.66966140  0.67931738  0.66836673  1
  Sc  Sc0  1  0.50462498  0.99477714  0.64493352  1
  Sc  Sc1  1  0.00263478  0.01079381  0.14736338  1
  Sc  Sc2  1  0.33285105  0.33819639  0.68667364  1
  Sc  Sc3  1  0.82699888  0.33066686  0.68513185  1
  Sc  Sc4  1  0.32834712  0.32423880  0.18794780  1
  Sc  Sc5  1  0.83216744  0.32715643  0.18811420  1
  Sc  Sc6  1  0.66808545  0.64752334  0.01484675  1
  Sc  Sc7  1  0.16686390  0.68709955  0.51454785  1
  Sc  Sc8  1  0.16986668  0.66720590  0.31386030  1
  Sc  Sc9  1  0.66796693  0.67939199  0.31940912  1
  Sc  Sc10  1  0.16637027  0.64510090  0.81548835  1
  Sc  Sc11  1  0.66922929  0.67119065  0.81318315  1
  Ta  Ta0  1  0.99377870  0.00519228  0.35694857  1
  Ta  Ta1  1  0.50148381  0.98519418  0.35833123  1
  Ta  Ta2  1  0.99619492  0.01424493  0.85411297  1
  Ta  Ta3  1  0.49489979  0.98360532  0.85624121  1
  Ta  Ta4  1  0.99861985  0.00246763  0.64411318  1
  Ta  Ta5  1  0.49923081  0.99856231  0.14657109  1
  Ta  Ta6  1  0.34067711  0.33110831  0.97729443  1
  Ta  Ta7  1  0.83422439  0.34958954  0.98109862  1
  Ta  Ta8  1  0.33493735  0.31783956  0.48108746  1
  Ta  Ta9  1  0.83534039  0.35128180  0.47389325  1
  Ta  Ta10  1  0.16738897  0.66427562  0.02152566  1
  Ta  Ta11  1  0.66576080  0.65345867  0.51792896  1
  Si  Si0  1  0.64664952  0.00104730  0.25013495  1
  Si  Si1  1  0.35362846  0.70949319  0.24965599  1
  Si  Si2  1  0.00134764  0.29679247  0.24874455  1
  Si  Si3  1  0.14648676  0.28648311  0.74970491  1
  Si  Si4  1  0.50131763  0.70586879  0.74837528  1
  Si  Si5  1  0.85132522  0.99880800  0.74757124  1
  Si  Si6  1  0.48194880  0.33613170  0.58743498  1
  Si  Si7  1  0.18808741  0.04378659  0.58565821  1
  Si  Si8  1  0.83169797  0.62283106  0.58498348  1
  Si  Si9  1  0.98104909  0.62901056  0.08656719  1
  Si  Si10  1  0.33299064  0.04186887  0.08522961  1
  Si  Si11  1  0.68743737  0.33105634  0.08562697  1
  Si  Si12  1  0.30950396  0.66100856  0.91798230  1
  Si  Si13  1  0.81326770  0.66990307  0.91573726  1
  Si  Si14  1  0.01952992  0.37884345  0.91669558  1
  Si  Si15  1  0.52496418  0.37615579  0.91265173  1
  Si  Si16  1  0.31196741  0.95346735  0.41557303  1
  Si  Si17  1  0.80863712  0.95746660  0.41895885  1
  Si  Si18  1  0.66467804  0.37694532  0.41284288  1
  Si  Si19  1  0.02456288  0.67216948  0.41252878  1
  Si  Si20  1  0.51980578  0.65793827  0.41742721  1
  S  S0  1  0.14336134  0.00204375  0.25097945  1
  S  S1  1  0.85509519  0.71482594  0.25006564  1
  S  S2  1  0.50034345  0.28525496  0.24949877  1
  S  S3  1  0.64323817  0.28395748  0.75122375  1
  S  S4  1  0.00079901  0.71761101  0.74980658  1
  S  S5  1  0.35504039  0.99564328  0.75067546  1
  S  S6  1  0.97823206  0.33422019  0.58383381  1
  S  S7  1  0.69037999  0.04350506  0.58128551  1
  S  S8  1  0.33153512  0.62114540  0.58218174  1
  S  S9  1  0.47793263  0.62247051  0.08361958  1
  S  S10  1  0.83172607  0.04255213  0.08201309  1
  S  S11  1  0.18995546  0.33407282  0.08137431  1
  S  S12  1  0.16708836  0.95663870  0.91766993  1
  S  S13  1  0.66710556  0.96120424  0.91695860  1
  S  S14  1  0.16721261  0.37276184  0.41710923  1
  O  O0  1  0.09976886  0.02155875  0.30303299  1
  O  O1  1  0.59382144  0.01839012  0.30662303  1
  O  O2  1  0.41860558  0.80830852  0.30544611  1
  O  O3  1  0.91189899  0.80666644  0.30251703  1
  O  O4  1  0.48777476  0.18053179  0.30131045  1
  O  O5  1  0.99296136  0.16920585  0.30609724  1
  O  O6  1  0.09388123  0.16482731  0.80730083  1
  O  O7  1  0.59898506  0.17679552  0.80361489  1
  O  O8  1  0.49266514  0.81574929  0.80651571  1
  O  O9  1  0.98911301  0.79917276  0.80258471  1
  O  O10  1  0.41191377  0.01683855  0.80333897  1
  O  O11  1  0.91645835  0.02885979  0.80599335  1
  O  O12  1  0.39439316  0.97371745  0.69745060  1
  O  O13  1  0.90575254  0.98054938  0.69239432  1
  O  O14  1  0.08046434  0.18400217  0.69424457  1
  O  O15  1  0.59128182  0.20548710  0.69812307  1
  O  O16  1  0.01027860  0.82091283  0.69647151  1
  O  O17  1  0.51104940  0.82856547  0.69349178  1
  O  O18  1  0.40523113  0.83187137  0.19153077  1
  O  O19  1  0.89658454  0.81486021  0.19648993  1
  O  O20  1  0.01164179  0.19563505  0.19283902  1
  O  O21  1  0.50903522  0.19871815  0.19517175  1
  O  O22  1  0.09182945  0.97788557  0.19743594  1
  O  O23  1  0.58097492  0.97852036  0.19337867  1
  O  O24  1  0.44119692  0.36483047  0.64597226  1
  O  O25  1  0.93939887  0.35508319  0.63801679  1
  O  O26  1  0.25145940  0.13286859  0.64013196  1
  O  O27  1  0.74036342  0.11932371  0.63562782  1
  O  O28  1  0.32157030  0.52201208  0.63551166  1
  O  O29  1  0.81832546  0.50521660  0.64169345  1
  O  O30  1  0.43771490  0.52010449  0.13598913  1
  O  O31  1  0.94358166  0.51850411  0.14485521  1
  O  O32  1  0.31705366  0.13202535  0.14054068  1
  O  O33  1  0.82202399  0.12218175  0.13498180  1
  O  O34  1  0.24043500  0.36383048  0.13474588  1
  O  O35  1  0.75259104  0.37195232  0.13903639  1
  O  O36  1  0.23387140  0.31553299  0.02963192  1
  O  O37  1  0.73486745  0.30372093  0.02646932  1
  O  O38  1  0.42215287  0.53499198  0.03063432  1
  O  O39  1  0.91556790  0.52352678  0.02947226  1
  O  O40  1  0.34394854  0.16655095  0.02778463  1
  O  O41  1  0.84385726  0.14949354  0.02935884  1
  O  O42  1  0.23432582  0.16560140  0.52700948  1
  O  O43  1  0.73470478  0.15385237  0.53061968  1
  O  O44  1  0.34355873  0.53821372  0.52988849  1
  O  O45  1  0.84577449  0.52442292  0.52856362  1
  O  O46  1  0.41549785  0.30706054  0.53041182  1
  O  O47  1  0.92395969  0.30760590  0.53243577  1
  O  O48  1  0.26492692  0.69715438  0.97417607  1
  O  O49  1  0.77951076  0.70784811  0.97659274  1
  O  O50  1  0.08521264  0.48034672  0.97147197  1
  O  O51  1  0.57710740  0.45526100  0.97210810  1
  O  O52  1  0.15544928  0.84959007  0.97011704  1
  O  O53  1  0.64949931  0.85567407  0.96948821  1
  O  O54  1  0.27749781  0.84990945  0.47680706  1
  O  O55  1  0.76519875  0.83214418  0.47493149  1
  O  O56  1  0.14973627  0.44359434  0.46952213  1
  O  O57  1  0.65205493  0.46639467  0.47249665  1
  O  O58  1  0.07833825  0.70302169  0.47178728  1
  O  O59  1  0.58407226  0.69069549  0.47272602  1
  O  O60  1  0.05886101  0.63141763  0.35381316  1
  O  O61  1  0.55398099  0.62280121  0.35682137  1
  O  O62  1  0.25107308  0.87099815  0.36027517  1
  O  O63  1  0.75590495  0.88705183  0.35960726  1
  O  O64  1  0.18023542  0.47416439  0.36448859  1
  O  O65  1  0.68592473  0.49700837  0.35725769  1
  O  O66  1  0.05614167  0.48721041  0.85704695  1
  O  O67  1  0.55752150  0.48545355  0.85410478  1
  O  O68  1  0.18413600  0.88596884  0.86508237  1
  O  O69  1  0.67999207  0.88544138  0.86446693  1
  O  O70  1  0.25474427  0.63023774  0.85977205  1
  O  O71  1  0.75322801  0.63568971  0.86036959  1
  O  O72  1  0.00990206  0.84048991  0.40297718  1
  O  O73  1  0.51141833  0.83440404  0.41254506  1
  O  O74  1  0.40966735  0.98654833  0.40449211  1
  O  O75  1  0.90756678  0.98144437  0.40961588  1
  O  O76  1  0.08937711  0.19184748  0.40879037  1
  O  O77  1  0.58033044  0.18552184  0.40772531  1
  O  O78  1  0.01374586  0.18668348  0.91117998  1
  O  O79  1  0.50881767  0.17814930  0.90396894  1
  O  O80  1  0.09022568  0.97567281  0.91252341  1
  O  O81  1  0.58954953  0.98734308  0.90874317  1
  O  O82  1  0.40784482  0.83132327  0.90945324  1
  O  O83  1  0.91371137  0.83133981  0.90494590  1
  O  O84  1  0.48437630  0.15534370  0.58768014  1
  O  O85  1  0.98458049  0.17056587  0.58866056  1
  O  O86  1  0.09178518  0.02564706  0.59268715  1
  O  O87  1  0.60425490  0.02898059  0.58534652  1
  O  O88  1  0.40861935  0.79885599  0.58635996  1
  O  O89  1  0.91928337  0.81465269  0.59187119  1
  O  O90  1  0.48231653  0.79452463  0.08673734  1
  O  O91  1  0.98480834  0.81529192  0.08597115  1
  O  O92  1  0.41885544  0.02278952  0.09011481  1
  O  O93  1  0.90886589  0.01901347  0.08568482  1
  O  O94  1  0.10358604  0.18113281  0.08467074  1
  O  O95  1  0.59131853  0.15699809  0.09141215  1
  O  O96  1  0.35252592  0.15783709  0.74998682  1
  O  O97  1  0.85379882  0.18383404  0.74428733  1
  O  O98  1  0.23892320  0.30341958  0.74681814  1
  O  O99  1  0.72898027  0.29773266  0.74789301  1
  O  O100  1  0.41543868  0.51697422  0.74957138  1
  O  O101  1  0.92461617  0.54145179  0.74456770  1
  O  O102  1  0.35387264  0.52584048  0.24284317  1
  O  O103  1  0.85241831  0.54729506  0.24888375  1
  O  O104  1  0.42342381  0.30758746  0.24288085  1
  O  O105  1  0.91538405  0.31376218  0.24906497  1
  O  O106  1  0.22933943  0.16021558  0.24719868  1
  O  O107  1  0.73849039  0.17219582  0.24525566  1
  O  O108  1  0.32252964  0.49481190  0.93190345  1
  O  O109  1  0.82377757  0.49436008  0.92500397  1
  O  O110  1  0.42442627  0.34676059  0.92631575  1
  O  O111  1  0.92174819  0.33975823  0.92973571  1
  O  O112  1  0.24403372  0.13520209  0.92764043  1
  O  O113  1  0.74360561  0.13617873  0.92402533  1
  O  O114  1  0.32305283  0.15110264  0.42530839  1
  O  O115  1  0.82645482  0.15186863  0.43332761  1
  O  O116  1  0.24353958  0.35047750  0.42418497  1
  O  O117  1  0.74798402  0.34908308  0.42786850  1
  O  O118  1  0.42128495  0.49985919  0.43059696  1
  O  O119  1  0.92576006  0.50361977  0.42547113  1
  O  O120  1  0.18037266  0.49245206  0.07477377  1
  O  O121  1  0.67954150  0.50538267  0.07799934  1
  O  O122  1  0.07574583  0.64890769  0.07013900  1
  O  O123  1  0.56431138  0.64746759  0.07586006  1
  O  O124  1  0.24855668  0.85164531  0.07177383  1
  O  O125  1  0.75453060  0.86824189  0.07641800  1
  O  O126  1  0.17973863  0.85340095  0.57895253  1
  O  O127  1  0.68039711  0.86951934  0.57563107  1
  O  O128  1  0.25443698  0.64122321  0.57709479  1
  O  O129  1  0.74891872  0.64911644  0.57492827  1
  O  O130  1  0.06595932  0.48127015  0.57796563  1
  O  O131  1  0.57557200  0.50759810  0.57465097  1
  O  O132  1  0.15130978  0.84635897  0.25484112  1
  O  O133  1  0.64548572  0.81713970  0.25073944  1
  O  O134  1  0.26107535  0.69278241  0.25285316  1
  O  O135  1  0.77019633  0.69768518  0.25531958  1
  O  O136  1  0.08532947  0.48672386  0.25326457  1
  O  O137  1  0.57748017  0.45771541  0.25116884  1
  O  O138  1  0.14546419  0.47002859  0.75253371  1
  O  O139  1  0.65106981  0.45545751  0.75603232  1
  O  O140  1  0.07893097  0.70107833  0.75387363  1
  O  O141  1  0.58535845  0.68437404  0.75388468  1
  O  O142  1  0.26885177  0.84515117  0.75831406  1
  O  O143  1  0.76047653  0.82884642  0.75311541  1
loop_
_geom_bond_atom_site_label_1
_geom_bond_atom_site_label_2
_geom_bond_distance
_geom_bond_site_symmetry_2
Na0 O136 2.340096 1_555
Na0 O105 2.361440 1_455
Na0 O103 2.402754 1_455
Na0 O132 2.447934 1_555
Na0 O60 2.552195 1_555
Na0 O31 2.622727 1_455
Na1 O133 2.274650 1_555
Na1 O102 2.321098 1_555
Na1 O61 2.517731 1_555
Na1 O104 2.601932 1_555
Na1 O137 2.615788 1_555
Na1 O2 2.799935 1_555
Na1 O30 2.985699 1_555
Na1 O23 2.999082 1_555
Na2 O97 2.291470 1_555
Na2 O138 2.291899 1_655
Na2 O101 2.563098 1_555
Na2 O140 2.629734 1_655
Na2 O66 2.640673 1_655
Na2 O25 2.812857 1_555
Na2 O11 2.865636 1_555
Na2 O14 2.943811 1_655
Na3 O141 2.342968 1_555
Na3 O100 2.364758 1_555
Na3 O96 2.403476 1_555
Na3 O139 2.445441 1_555
Na3 O24 2.565748 1_555
Na3 O67 2.596363 1_555
Na4 O84 2.379538 1_565
Na4 O126 2.391976 1_555
Na4 O88 2.550365 1_555
Na4 O128 2.588564 1_555
Na4 O54 2.600764 1_555
Na4 O46 2.817689 1_565
Na4 O26 2.833047 1_565
Na4 O12 2.906872 1_555
Na5 O121 2.382880 1_555
Na5 O91 2.394346 1_555
Na5 O93 2.560718 1_565
Na5 O125 2.591925 1_555
Na5 O49 2.638613 1_554
Na5 O35 2.777829 1_555
Na5 O39 2.853503 1_555
Na5 O19 2.854172 1_555
Na6 O89 2.567806 1_455
Na6 O86 2.577531 1_565
Na6 O72 2.643536 1_555
Na6 O75 2.664996 1_455
Na6 O85 2.704797 1_465
Na6 O76 2.739063 1_565
Na7 O84 2.541302 1_555
Na7 O73 2.560629 1_545
Na7 O77 2.563361 1_555
Na7 O74 2.656691 1_545
Na7 O87 2.657743 1_555
Na7 O88 2.702554 1_545
Na8 O91 2.465482 1_555
Na8 O93 2.595949 1_565
Na8 O78 2.602706 1_664
Na8 O94 2.639792 1_665
Na8 O83 2.641921 1_554
Na8 O80 2.676834 1_654
Na9 O95 2.504595 1_555
Na9 O92 2.515998 1_555
Na9 O79 2.653190 1_554
Na9 O90 2.667951 1_545
Na9 O82 2.713573 1_544
Na9 O81 2.758268 1_544
Na10 O100 2.308467 1_555
Na10 O98 2.340737 1_555
Na10 O96 2.606379 1_555
Na10 O108 2.794462 1_555
Na10 O110 2.860856 1_555
Na10 O112 2.936250 1_555
Na11 O97 2.579379 1_555
Na11 O109 2.589711 1_555
Na11 O99 2.594756 1_555
Na11 O113 2.661929 1_555
Na11 O101 2.719390 1_555
Na11 O111 2.721114 1_555
Na12 O114 2.579348 1_555
Na12 O116 2.641834 1_555
Na12 O102 2.642997 1_555
Na12 O106 2.647908 1_555
Na12 O118 2.678462 1_555
Na12 O104 2.754703 1_555
Na13 O107 2.392643 1_555
Na13 O105 2.397900 1_555
Na13 O103 2.655132 1_555
Na13 O115 2.794946 1_555
Na13 O117 2.805154 1_555
Na13 O119 2.829485 1_555
Na14 O134 2.355658 1_555
Na14 O136 2.383158 1_555
Na14 O132 2.618503 1_555
Na14 O120 2.784053 1_555
Na14 O124 2.833034 1_555
Na14 O122 2.891680 1_555
Na15 O133 2.453100 1_555
Na15 O137 2.599675 1_555
Na15 O121 2.603922 1_555
Na15 O135 2.622270 1_555
Na15 O125 2.701960 1_555
Na15 O123 2.772791 1_555
Na16 O126 2.500001 1_555
Na16 O138 2.592797 1_555
Na16 O128 2.620033 1_555
Na16 O130 2.648899 1_555
Na16 O140 2.704471 1_555
Na16 O142 2.746195 1_555
Na17 O143 2.456928 1_555
Na17 O141 2.492560 1_555
Na17 O129 2.660458 1_555
Na17 O127 2.671268 1_555
Na17 O131 2.688587 1_555
Na17 O139 2.739306 1_555
O0 S0 1.485188 1_555
O0 Ta0 2.212184 1_455
O1 Si0 1.658427 1_555
O1 Ta1 1.937374 1_545
O2 Si1 1.656638 1_555
O2 Ta1 1.956823 1_555
O3 S1 1.523530 1_555
O3 Ta0 2.063174 1_565
O4 S2 1.460271 1_555
O4 Ta1 2.291627 1_545
O5 Si2 1.699069 1_655
O5 Ta0 1.880112 1_555
O6 Si3 1.673697 1_555
O6 Ta2 1.920912 1_455
O7 S3 1.496167 1_555
O7 Ta3 2.172222 1_545
O8 Si4 1.708088 1_555
O8 Ta3 1.868105 1_555
O9 S4 1.480781 1_655
O9 Ta2 2.204414 1_565
O10 S5 1.529882 1_545
O10 Ta3 2.052920 1_545
O11 Si5 1.707779 1_545
O11 Ta2 1.861279 1_555
O12 S5 1.472166 1_555
O12 Sc0 2.242949 1_555
O13 Si5 1.656349 1_555
O13 Ta4 1.928472 1_565
O14 Si3 1.665174 1_555
O14 Ta4 1.930513 1_455
O15 S3 1.479350 1_555
O15 Sc0 2.126691 1_545
O16 S4 1.491632 1_555
O16 Ta4 2.112164 1_465
O17 Si4 1.622037 1_555
O17 Sc0 1.906504 1_555
O18 Si1 1.681526 1_555
O18 Ta5 1.904678 1_555
O19 S1 1.484873 1_555
O19 Sc1 2.154410 1_665
O20 Si2 1.631329 1_555
O20 Sc1 1.890305 1_555
O21 S2 1.514852 1_555
O21 Ta5 2.038511 1_545
O22 S0 1.485945 1_565
O22 Sc1 2.105108 1_565
O23 Si0 1.698047 1_565
O23 Ta5 1.895736 1_555
O24 Si6 1.610077 1_555
O24 Sc2 2.061098 1_555
O25 S6 1.482011 1_555
O25 Sc3 2.201568 1_555
O26 Si7 1.606272 1_555
O26 Sc2 1.989766 1_555
O27 S7 1.485709 1_555
O27 Sc3 2.082373 1_555
O28 S8 1.469311 1_555
O28 Sc2 2.110051 1_555
O29 Si8 1.614763 1_555
O29 Sc3 1.922414 1_555
O30 S9 1.465292 1_555
O30 Sc4 2.217636 1_555
O31 Si9 1.599471 1_555
O31 Sc5 2.121848 1_555
O32 Si10 1.603045 1_555
O32 Sc4 1.955335 1_555
O33 S10 1.461464 1_555
O33 Sc5 2.130047 1_555
O34 S11 1.465177 1_555
O34 Sc4 2.157413 1_555
O35 Si11 1.603361 1_555
O35 Sc5 2.008113 1_555
O36 S11 1.479566 1_555
O36 Ta6 2.206927 1_554
O37 Si11 1.683696 1_555
O37 Ta7 1.924519 1_554
O38 S9 1.518306 1_555
O38 Ta6 2.070946 1_554
O39 Si9 1.695245 1_555
O39 Ta7 1.872840 1_554
O40 Si10 1.674099 1_555
O40 Ta6 1.896722 1_554
O41 S10 1.488573 1_555
O41 Ta7 2.182970 1_554
O42 Si7 1.669956 1_555
O42 Ta8 1.943208 1_555
O43 S7 1.475944 1_555
O43 Ta9 2.213289 1_555
O44 S8 1.481045 1_555
O44 Ta8 2.201682 1_555
O45 Si8 1.653090 1_555
O45 Ta9 1.925926 1_555
O46 Si6 1.699053 1_555
O46 Ta8 1.874352 1_555
O47 S6 1.469961 1_555
O47 Ta9 2.257872 1_555
O48 Si12 1.632463 1_555
O48 Ta10 1.954283 1_556
O49 Si13 1.623836 1_555
O49 Sc6 1.996308 1_556
O50 Si14 1.648859 1_555
O50 Ta10 1.941400 1_556
O51 Si15 1.603482 1_555
O51 Sc6 1.942410 1_556
O52 S12 1.486821 1_555
O52 Ta10 2.130018 1_556
O53 S13 1.465596 1_555
O53 Sc6 2.296980 1_556
O54 Si16 1.626854 1_555
O54 Sc7 1.982705 1_555
O55 Si17 1.626525 1_555
O55 Ta11 1.967415 1_555
O56 S14 1.463651 1_555
O56 Sc7 2.285802 1_555
O57 Si18 1.656063 1_555
O57 Ta11 1.878186 1_555
O58 Si19 1.608102 1_555
O58 Sc7 1.930272 1_555
O59 Si20 1.638168 1_555
O59 Ta11 1.953620 1_555
O60 Si19 1.596944 1_555
O60 Sc8 2.067864 1_555
O61 Si20 1.612737 1_555
O61 Sc9 2.036121 1_555
O62 Si16 1.593095 1_555
O62 Sc8 1.979690 1_555
O63 Si17 1.595840 1_555
O63 Sc9 1.963692 1_555
O64 S14 1.457822 1_555
O64 Sc8 2.164192 1_555
O65 Si18 1.587185 1_555
O65 Sc9 2.010049 1_555
O66 Si14 1.616368 1_555
O66 Sc10 2.008356 1_555
O67 Si15 1.592222 1_555
O67 Sc11 2.083616 1_555
O68 S12 1.462878 1_555
O68 Sc10 2.310784 1_555
O69 S13 1.455118 1_555
O69 Sc11 2.171153 1_555
O70 Si12 1.597187 1_555
O70 Sc10 1.941401 1_555
O71 Si13 1.592077 1_555
O71 Sc11 2.004081 1_555
O72 Si19 1.665786 1_555
O72 Ta0 1.947425 1_465
O73 Si20 1.661031 1_555
O73 Ta1 1.907200 1_555
O74 Si16 1.645315 1_555
O74 Ta1 1.964052 1_555
O75 Si17 1.691725 1_555
O75 Ta0 1.890402 1_565
O76 S14 1.531949 1_555
O76 Ta0 2.067831 1_455
O77 Si18 1.626913 1_555
O77 Ta1 1.989064 1_545
O78 Si14 1.672586 1_555
O78 Ta2 1.923352 1_455
O79 Si15 1.656111 1_555
O79 Ta3 1.961286 1_545
O80 S12 1.475429 1_555
O80 Ta2 2.309748 1_465
O81 S13 1.532506 1_555
O81 Ta3 2.067094 1_555
O82 Si12 1.670251 1_555
O82 Ta3 1.915460 1_555
O83 Si13 1.672617 1_555
O83 Ta2 1.953639 1_565
O84 Si6 1.637781 1_555
O84 Sc0 2.106931 1_545
O85 S6 1.526611 1_555
O85 Ta4 2.078326 1_555
O86 Si7 1.660429 1_555
O86 Ta4 1.971540 1_455
O87 S7 1.487276 1_555
O87 Sc0 2.148777 1_545
O88 S8 1.500753 1_555
O88 Sc0 2.195379 1_555
O89 Si8 1.656605 1_555
O89 Ta4 1.971961 1_565
O90 S9 1.501531 1_555
O90 Ta5 2.177989 1_555
O91 Si9 1.632206 1_555
O91 Sc1 2.139046 1_665
O92 Si10 1.635502 1_555
O92 Ta5 2.027483 1_545
O93 S10 1.501858 1_555
O93 Sc1 2.225915 1_655
O94 S11 1.470450 1_555
O94 Sc1 2.219482 1_555
O95 Si11 1.653949 1_555
O95 Ta5 2.002589 1_545
O96 S5 1.472560 1_545
O96 Sc2 2.324589 1_555
O97 Si5 1.633642 1_545
O97 Sc3 2.103909 1_555
O98 Si3 1.589309 1_555
O98 Sc2 2.079143 1_555
O99 S3 1.482355 1_555
O99 Sc3 2.177463 1_555
O100 Si4 1.621642 1_555
O100 Sc2 2.111734 1_555
O101 S4 1.487813 1_655
O101 Sc3 2.274506 1_555
O102 Si1 1.650663 1_555
O102 Sc4 2.052611 1_555
O103 S1 1.474011 1_555
O103 Sc5 2.286201 1_555
O104 S2 1.496785 1_555
O104 Sc4 2.183425 1_555
O105 Si2 1.622781 1_655
O105 Sc5 2.090843 1_555
O106 S0 1.486626 1_555
O106 Sc4 2.136244 1_555
O107 Si0 1.597863 1_555
O107 Sc5 2.036579 1_555
O108 Si12 1.646021 1_555
O108 Ta6 1.951449 1_555
O109 Si13 1.684412 1_555
O109 Ta7 1.900036 1_555
O110 Si15 1.716918 1_555
O110 Ta6 1.854361 1_555
O111 Si14 1.636349 1_655
O111 Ta7 2.000557 1_555
O112 S12 1.518351 1_545
O112 Ta6 2.081419 1_555
O113 S13 1.487642 1_545
O113 Ta7 2.211823 1_555
O114 Si16 1.690457 1_545
O114 Ta8 1.892683 1_555
O115 Si17 1.635178 1_545
O115 Ta9 1.944324 1_555
O116 S14 1.487128 1_555
O116 Ta8 2.224803 1_555
O117 Si18 1.668344 1_555
O117 Ta9 1.880405 1_555
O118 Si20 1.649773 1_555
O118 Ta8 1.970238 1_555
O119 Si19 1.684391 1_655
O119 Ta9 1.876938 1_555
O120 S11 1.516159 1_555
O120 Ta10 2.065093 1_555
O121 Si11 1.642623 1_555
O121 Sc6 2.004707 1_555
O122 Si9 1.660942 1_455
O122 Ta10 1.934910 1_555
O123 S9 1.461946 1_555
O123 Sc6 2.329987 1_555
O124 Si10 1.645820 1_565
O124 Ta10 1.952764 1_555
O125 S10 1.485960 1_565
O125 Sc6 2.286788 1_555
O126 Si7 1.638939 1_565
O126 Sc7 2.024362 1_555
O127 S7 1.479275 1_565
O127 Ta11 2.244593 1_555
O128 S8 1.484950 1_555
O128 Sc7 2.309343 1_555
O129 Si8 1.630917 1_555
O129 Ta11 1.997473 1_555
O130 S6 1.469466 1_455
O130 Sc7 2.338220 1_555
O131 Si6 1.639954 1_555
O131 Ta11 1.978564 1_555
O132 S0 1.470337 1_565
O132 Sc8 2.245607 1_555
O133 Si0 1.633262 1_565
O133 Sc9 2.158258 1_555
O134 Si1 1.592572 1_555
O134 Sc8 2.078587 1_555
O135 S1 1.457544 1_555
O135 Sc9 2.293137 1_555
O136 Si2 1.615516 1_555
O136 Sc8 2.094020 1_555
O137 S2 1.471034 1_555
O137 Sc9 2.406477 1_555
O138 Si3 1.650693 1_555
O138 Sc10 2.020843 1_555
O139 S3 1.471637 1_555
O139 Sc11 2.215827 1_555
O140 S4 1.483412 1_555
O140 Sc10 2.342500 1_555
O141 Si4 1.616563 1_555
O141 Sc11 2.073739 1_555
O142 S5 1.468547 1_555
O142 Sc10 2.242398 1_555
O143 Si5 1.584504 1_555
O143 Sc11 2.066935 1_555
