# generated using pymatgen
data_MgMnV4CuO12
_symmetry_space_group_name_H-M   'P 1'
_cell_length_a   6.92101610
_cell_length_b   6.92640818
_cell_length_c   5.88200132
_cell_angle_alpha   73.17477022
_cell_angle_beta   106.41285609
_cell_angle_gamma   100.56496581
_symmetry_Int_Tables_number   1
_chemical_formula_structural   MgMnV4CuO12
_chemical_formula_sum   'Mg1 Mn1 V4 Cu1 O12'
_cell_volume   257.31258529
_cell_formula_units_Z   1
loop_
 _symmetry_equiv_pos_site_id
 _symmetry_equiv_pos_as_xyz
  1  'x, y, z'
loop_
 _atom_site_type_symbol
 _atom_site_label
 _atom_site_symmetry_multiplicity
 _atom_site_fract_x
 _atom_site_fract_y
 _atom_site_fract_z
 _atom_site_occupancy
  Mg  Mg0  1  0.72340600  0.73562600  0.74348200  1
  Mn  Mn0  1  0.93181000  0.92552500  0.26102900  1
  V  V0  1  0.18553500  0.59844700  0.78146800  1
  V  V1  1  0.38987200  0.79288800  0.28695400  1
  V  V2  1  0.60909700  0.19570000  0.72227000  1
  V  V3  1  0.79358800  0.38795900  0.21666900  1
  Cu  Cu0  1  0.09989900  0.08292400  0.75589200  1
  O  O0  1  0.00156200  0.78805600  0.66283300  1
  O  O1  1  0.08121800  0.36123700  0.75890700  1
  O  O2  1  0.21618800  0.96538200  0.17190100  1
  O  O3  1  0.39919500  0.66967900  0.60725800  1
  O  O4  1  0.37354100  0.08721000  0.71771200  1
  O  O5  1  0.34203400  0.63262200  0.08978000  1
  O  O6  1  0.66869900  0.39000900  0.89816400  1
  O  O7  1  0.64044800  0.89872300  0.33287900  1
  O  O8  1  0.62447500  0.32910700  0.41563100  1
  O  O9  1  0.77127100  0.00442800  0.84500300  1
  O  O10  1  0.88680600  0.63918600  0.16584100  1
  O  O11  1  0.97135400  0.22529200  0.31632600  1
loop_
_geom_bond_atom_site_label_1
_geom_bond_atom_site_label_2
_geom_bond_distance
_geom_bond_site_symmetry_2
Mg0 O0 2.054993 1_655
Mg0 O9 2.058739 1_565
Mg0 O3 2.169244 1_555
Mg0 O6 2.302882 1_555
Mg0 O7 2.305126 1_555
Mg0 O10 2.371833 1_556
Mn0 O2 2.127174 1_655
Mn0 O7 2.139706 1_555
Mn0 O11 2.150354 1_565
Mn0 O10 2.159107 1_555
Mn0 O0 2.224058 1_655
Mn0 O9 2.330945 1_564
Cu0 O1 1.961014 1_555
Cu0 O4 1.963155 1_555
Cu0 O0 2.204781 1_545
Cu0 O2 2.296147 1_546
Cu0 O9 2.408044 1_455
Cu0 O11 2.448403 1_455
O0 V0 1.847572 1_555
O1 V0 1.695714 1_555
O2 V1 1.711513 1_555
O3 V1 1.817340 1_555
O3 V0 1.943248 1_555
O4 V2 1.661612 1_555
O5 V1 1.755131 1_555
O5 V0 1.887439 1_554
O6 V3 1.825135 1_556
O6 V2 1.847500 1_555
O7 V1 1.732525 1_555
O8 V2 1.796083 1_555
O8 V3 1.796834 1_555
O9 V2 1.752096 1_555
O10 V3 1.711644 1_555
O11 V3 1.686765 1_555
