# generated using pymatgen
data_Pb3SO6
_symmetry_space_group_name_H-M   'P 1'
_cell_length_a   8.07892169
_cell_length_b   8.07892169
_cell_length_c   6.03183100
_cell_angle_alpha   90.00000000
_cell_angle_beta   90.00000000
_cell_angle_gamma   99.96308843
_symmetry_Int_Tables_number   1
_chemical_formula_structural   Pb3SO6
_chemical_formula_sum   'Pb6 S2 O12'
_cell_volume   387.75433520
_cell_formula_units_Z   2
loop_
 _symmetry_equiv_pos_site_id
 _symmetry_equiv_pos_as_xyz
  1  'x, y, z'
loop_
 _atom_site_type_symbol
 _atom_site_label
 _atom_site_symmetry_multiplicity
 _atom_site_fract_x
 _atom_site_fract_y
 _atom_site_fract_z
 _atom_site_occupancy
  Pb  Pb0  1  0.89907900  0.10092100  0.25000000  1
  Pb  Pb1  1  0.35692100  0.17778800  0.25000000  1
  Pb  Pb2  1  0.82221200  0.64307900  0.25000000  1
  Pb  Pb3  1  0.10092100  0.89907900  0.75000000  1
  Pb  Pb4  1  0.17778800  0.35692100  0.75000000  1
  Pb  Pb5  1  0.64307900  0.82221200  0.75000000  1
  S  S0  1  0.34859600  0.65140400  0.25000000  1
  S  S1  1  0.65140400  0.34859600  0.75000000  1
  O  O0  1  0.30000600  0.46212100  0.25000000  1
  O  O1  1  0.14339600  0.14339600  0.00000000  1
  O  O2  1  0.28154600  0.71845400  0.04688200  1
  O  O3  1  0.28154600  0.71845400  0.45311800  1
  O  O4  1  0.46212100  0.30000600  0.75000000  1
  O  O5  1  0.85660400  0.85660400  0.50000000  1
  O  O6  1  0.71845400  0.28154600  0.54688200  1
  O  O7  1  0.53787900  0.69999400  0.25000000  1
  O  O8  1  0.69999400  0.53787900  0.75000000  1
  O  O9  1  0.71845400  0.28154600  0.95311800  1
  O  O10  1  0.85660400  0.85660400  0.00000000  1
  O  O11  1  0.14339600  0.14339600  0.50000000  1
loop_
_geom_bond_atom_site_label_1
_geom_bond_atom_site_label_2
_geom_bond_distance
_geom_bond_site_symmetry_2
O0 S0 1.511569 1_555
O0 Pb1 2.419421 1_555
O1 Pb1 2.271803 1_555
O1 Pb4 2.271803 1_554
O1 Pb3 2.460341 1_544
O1 Pb0 2.460341 1_455
O2 S0 1.479677 1_555
O3 S0 1.479677 1_555
O4 S1 1.511569 1_555
O4 Pb4 2.419421 1_555
O5 Pb5 2.271803 1_555
O5 Pb2 2.271803 1_555
O5 Pb0 2.460341 1_565
O5 Pb3 2.460341 1_655
O6 S1 1.479677 1_555
O7 S0 1.511569 1_555
O7 Pb2 2.419421 1_555
O8 S1 1.511569 1_555
O8 Pb5 2.419421 1_555
O9 S1 1.479677 1_555
O10 Pb5 2.271803 1_554
O10 Pb2 2.271803 1_555
O10 Pb3 2.460341 1_654
O10 Pb0 2.460341 1_565
O11 Pb1 2.271803 1_555
O11 Pb4 2.271803 1_555
O11 Pb3 2.460341 1_545
O11 Pb0 2.460341 1_455
