# generated using pymatgen
data_Na3Ti2Nb2Si3(PO8)3
_symmetry_space_group_name_H-M   'P 1'
_cell_length_a   8.83067290
_cell_length_b   8.81555505
_cell_length_c   22.48633571
_cell_angle_alpha   90.10309004
_cell_angle_beta   90.01468005
_cell_angle_gamma   119.92913506
_symmetry_Int_Tables_number   1
_chemical_formula_structural   Na3Ti2Nb2Si3(PO8)3
_chemical_formula_sum   'Na9 Ti6 Nb6 Si9 P9 O72'
_cell_volume   1517.05516309
_cell_formula_units_Z   3
loop_
 _symmetry_equiv_pos_site_id
 _symmetry_equiv_pos_as_xyz
  1  'x, y, z'
loop_
 _atom_site_type_symbol
 _atom_site_label
 _atom_site_symmetry_multiplicity
 _atom_site_fract_x
 _atom_site_fract_y
 _atom_site_fract_z
 _atom_site_occupancy
  Na  Na0  1  -0.00011502  0.63080175  0.25135071  1
  Na  Na1  1  0.66612585  0.96385178  0.58455585  1
  Na  Na2  1  0.66716340  0.70277523  0.08208256  1
  Na  Na3  1  0.01308379  0.00243487  0.50252740  1
  Na  Na4  1  0.01366685  0.01268532  0.00220563  1
  Na  Na5  1  0.66718930  0.33415939  0.83344448  1
  Na  Na6  1  0.65511292  0.32235527  0.33055262  1
  Na  Na7  1  0.33339151  0.66679991  0.16683313  1
  Na  Na8  1  0.32245698  0.65689298  0.66452676  1
  Ti  Ti0  1  0.00607144  0.99403679  0.64716583  1
  Ti  Ti1  1  0.99769361  0.99746478  0.14752106  1
  Ti  Ti2  1  0.66898784  0.33588306  0.18604632  1
  Ti  Ti3  1  0.32422229  0.66185005  0.02045701  1
  Ti  Ti4  1  0.32959457  0.67319271  0.51907254  1
  Ti  Ti5  1  0.34186937  0.67131439  0.31372760  1
  Nb  Nb0  1  0.99593365  0.99506456  0.35574800  1
  Nb  Nb1  1  0.99041274  0.99449504  0.85684733  1
  Nb  Nb2  1  0.66728918  0.33025265  0.68894464  1
  Nb  Nb3  1  0.67123511  0.33784674  0.97851312  1
  Nb  Nb4  1  0.66328228  0.33252568  0.47633024  1
  Nb  Nb5  1  0.33308875  0.66547551  0.81017430  1
  Si  Si0  1  0.70253275  0.70753476  0.24770314  1
  Si  Si1  1  0.00080429  0.71404232  0.74919277  1
  Si  Si2  1  0.71597647  0.99782863  0.74678393  1
  Si  Si3  1  0.36751168  0.03979456  0.58277087  1
  Si  Si4  1  0.96435429  0.62638278  0.08606307  1
  Si  Si5  1  0.61417009  0.66551055  0.92023710  1
  Si  Si6  1  0.05034778  0.38111379  0.91754923  1
  Si  Si7  1  0.61509822  0.94842030  0.41776888  1
  Si  Si8  1  0.05266830  0.66632397  0.41419873  1
  P  P0  1  0.29160611  0.00387272  0.24859719  1
  P  P1  1  0.00009414  0.28752084  0.24827387  1
  P  P2  1  0.28113017  0.28081122  0.74905136  1
  P  P3  1  0.96061843  0.33624587  0.58271570  1
  P  P4  1  0.66555351  0.62380008  0.58344020  1
  P  P5  1  0.66690544  0.04572770  0.08542574  1
  P  P6  1  0.37496764  0.32932372  0.08492612  1
  P  P7  1  0.33309304  0.94956091  0.91808748  1
  P  P8  1  0.33199464  0.38799279  0.41686188  1
  O  O0  1  0.20486333  0.03074489  0.30494979  1
  O  O1  1  0.83751152  0.80496558  0.30479656  1
  O  O2  1  0.97687298  0.17505314  0.30456261  1
  O  O3  1  0.20306202  0.17386670  0.80567929  1
  O  O4  1  0.97535620  0.80596993  0.80816625  1
  O  O5  1  0.83539259  0.02920283  0.80664173  1
  O  O6  1  0.80414268  0.97482560  0.68708153  1
  O  O7  1  0.17028207  0.19670655  0.69352788  1
  O  O8  1  0.02911743  0.83539783  0.69114532  1
  O  O9  1  0.80106390  0.82909639  0.18938440  1
  O  O10  1  0.02319432  0.19467602  0.19378317  1
  O  O11  1  0.16722644  0.97196251  0.19493965  1
  O  O12  1  0.86951122  0.36211397  0.63847799  1
  O  O13  1  0.50083263  0.13698148  0.63933880  1
  O  O14  1  0.64551829  0.50904956  0.63821659  1
  O  O15  1  0.86548189  0.50415741  0.14419627  1
  O  O16  1  0.64347311  0.13872894  0.13975888  1
  O  O17  1  0.49958883  0.36139125  0.13850301  1
  O  O18  1  0.46166303  0.30259539  0.02857553  1
  O  O19  1  0.82978892  0.52889350  0.02898812  1
  O  O20  1  0.68981320  0.15786977  0.02921218  1
  O  O21  1  0.47204466  0.16543587  0.52558463  1
  O  O22  1  0.69153163  0.53457007  0.52770612  1
  O  O23  1  0.83785650  0.30865203  0.52841388  1
  O  O24  1  0.53204040  0.69552077  0.98042979  1
  O  O25  1  0.16964327  0.47827377  0.97563162  1
  O  O26  1  0.30662651  0.83705965  0.97327362  1
  O  O27  1  0.53478227  0.83638517  0.47830249  1
  O  O28  1  0.30618391  0.46865044  0.47317162  1
  O  O29  1  0.17263509  0.69433824  0.47304066  1
  O  O30  1  0.13271482  0.63542739  0.35366246  1
  O  O31  1  0.49530201  0.85554196  0.35942894  1
  O  O32  1  0.36070823  0.49716341  0.36047366  1
  O  O33  1  0.13494768  0.50006835  0.85849716  1
  O  O34  1  0.36094212  0.86828971  0.86102594  1
  O  O35  1  0.49895666  0.64158132  0.86059011  1
  O  O36  1  0.03522823  0.84377145  0.40923220  1
  O  O37  1  0.81233900  0.97642859  0.40863309  1
  O  O38  1  0.17214329  0.20121419  0.40924544  1
  O  O39  1  0.03472036  0.19023101  0.91179695  1
  O  O40  1  0.17191481  0.97254033  0.91130900  1
  O  O41  1  0.81161978  0.83537771  0.91214482  1
  O  O42  1  0.96554918  0.16582949  0.58766005  1
  O  O43  1  0.17930452  0.02595372  0.58862843  1
  O  O44  1  0.82805358  0.80826972  0.58799556  1
  O  O45  1  0.97127248  0.81545250  0.09101073  1
  O  O46  1  0.83368490  0.02879118  0.08987707  1
  O  O47  1  0.19356169  0.16870548  0.09196312  1
  O  O48  1  0.69387720  0.17247372  0.74302109  1
  O  O49  1  0.46772955  0.30543237  0.74201673  1
  O  O50  1  0.82547017  0.52286530  0.74268947  1
  O  O51  1  0.69565158  0.51830731  0.24255581  1
  O  O52  1  0.83297307  0.30434687  0.24369170  1
  O  O53  1  0.47301870  0.16467121  0.24151005  1
  O  O54  1  0.63350705  0.48948162  0.92424966  1
  O  O55  1  0.85372175  0.35465388  0.92538933  1
  O  O56  1  0.49721595  0.13293441  0.92443389  1
  O  O57  1  0.63762292  0.14454955  0.42313771  1
  O  O58  1  0.49727214  0.36655199  0.42275467  1
  O  O59  1  0.85553752  0.49944819  0.42445927  1
  O  O60  1  0.36809380  0.50108130  0.07929590  1
  O  O61  1  0.15512505  0.64573302  0.07805598  1
  O  O62  1  0.50749062  0.86035977  0.08015609  1
  O  O63  1  0.36148315  0.85155698  0.57728860  1
  O  O64  1  0.50092118  0.64113604  0.57896309  1
  O  O65  1  0.14111618  0.49891040  0.57684843  1
  O  O66  1  0.29859351  0.83230888  0.25436663  1
  O  O67  1  0.51190363  0.68831081  0.25604167  1
  O  O68  1  0.15918887  0.47284183  0.25354992  1
  O  O69  1  0.30402561  0.46689547  0.75490707  1
  O  O70  1  0.17212054  0.69165933  0.75468827  1
  O  O71  1  0.52242663  0.82711701  0.75566586  1
loop_
_geom_bond_atom_site_label_1
_geom_bond_atom_site_label_2
_geom_bond_distance
_geom_bond_site_symmetry_2
Na0 O66 2.332788 1_555
Na0 O51 2.362365 1_455
Na0 O68 2.423927 1_555
Na0 O52 2.499942 1_455
Na0 O30 2.573116 1_555
Na0 O15 2.669731 1_455
Na0 O1 2.837008 1_455
Na0 O11 2.901347 1_555
Na1 O42 2.338401 1_565
Na1 O63 2.363392 1_555
Na1 O44 2.426756 1_555
Na1 O64 2.468770 1_555
Na1 O6 2.586481 1_555
Na1 O27 2.646666 1_555
Na1 O13 2.862625 1_565
Na1 O23 2.923663 1_565
Na2 O60 2.335372 1_555
Na2 O45 2.361358 1_555
Na2 O62 2.423772 1_555
Na2 O46 2.496780 1_565
Na2 O24 2.564115 1_554
Na2 O9 2.671123 1_555
Na2 O19 2.833433 1_555
Na2 O17 2.902966 1_555
Na3 O43 2.374749 1_555
Na3 O42 2.551362 1_455
Na3 O44 2.552611 1_445
Na3 O36 2.580358 1_545
Na3 O38 2.646147 1_555
Na3 O37 2.691397 1_445
Na4 O47 2.509394 1_555
Na4 O39 2.517639 1_554
Na4 O45 2.552303 1_445
Na4 O46 2.580399 1_455
Na4 O40 2.597708 1_544
Na4 O41 2.632805 1_444
Na5 O54 2.555234 1_555
Na5 O48 2.558602 1_555
Na5 O50 2.564987 1_555
Na5 O55 2.592383 1_555
Na5 O56 2.635076 1_555
Na5 O49 2.635209 1_555
Na6 O53 2.506960 1_555
Na6 O51 2.534385 1_555
Na6 O52 2.560519 1_555
Na6 O57 2.566206 1_555
Na6 O58 2.633170 1_555
Na6 O59 2.694016 1_555
Na7 O61 2.490596 1_555
Na7 O67 2.498718 1_555
Na7 O62 2.543580 1_555
Na7 O68 2.545815 1_555
Na7 O66 2.556338 1_555
Na7 O60 2.557224 1_555
Na8 O65 2.480747 1_555
Na8 O63 2.516769 1_555
Na8 O70 2.524260 1_555
Na8 O64 2.534522 1_555
Na8 O69 2.588941 1_555
Na8 O71 2.629255 1_555
Nb0 O1 1.931589 1_555
Nb0 O37 1.950788 1_555
Nb0 O36 1.952695 1_655
Nb0 O2 2.035596 1_565
Nb0 O0 2.056936 1_665
Nb0 O38 2.083377 1_665
Nb1 O5 1.913244 1_565
Nb1 O4 1.936731 1_555
Nb1 O41 1.950353 1_555
Nb1 O39 1.993903 1_665
Nb1 O3 2.096464 1_665
Nb1 O40 2.101314 1_655
Nb2 O48 1.949404 1_555
Nb2 O13 1.949632 1_555
Nb2 O50 1.979868 1_555
Nb2 O12 2.014273 1_555
Nb2 O14 2.032548 1_555
Nb2 O49 2.048130 1_555
Nb3 O19 1.929857 1_556
Nb3 O55 1.951708 1_555
Nb3 O54 1.958776 1_555
Nb3 O20 2.027322 1_556
Nb3 O18 2.053586 1_556
Nb3 O56 2.079549 1_555
Nb4 O21 1.942397 1_555
Nb4 O57 1.961144 1_555
Nb4 O59 1.980515 1_555
Nb4 O23 2.028842 1_555
Nb4 O22 2.029374 1_555
Nb4 O58 2.032145 1_555
Nb5 O35 1.944960 1_555
Nb5 O33 1.956840 1_555
Nb5 O70 1.989486 1_555
Nb5 O71 1.989546 1_555
Nb5 O34 2.029372 1_555
Nb5 O69 2.053917 1_555
O0 P0 1.558544 1_555
O1 Si0 1.667434 1_555
O2 P1 1.558491 1_655
O3 P2 1.530275 1_555
O4 Si1 1.625971 1_655
O5 Si2 1.645322 1_545
O6 Si2 1.614516 1_555
O6 Ti0 1.927174 1_655
O7 P2 1.529226 1_555
O7 Ti0 1.946529 1_545
O8 Si1 1.627589 1_555
O8 Ti0 1.806672 1_555
O9 Si0 1.643285 1_555
O9 Ti1 1.881043 1_555
O10 P1 1.541426 1_555
O10 Ti1 1.938569 1_445
O11 P0 1.559198 1_565
O11 Ti1 1.940269 1_455
O12 P3 1.566552 1_555
O13 Si3 1.651332 1_555
O14 P4 1.548468 1_555
O15 Si4 1.642857 1_555
O15 Ti2 1.879986 1_555
O16 P5 1.540608 1_555
O16 Ti2 1.938411 1_555
O17 P6 1.558868 1_555
O17 Ti2 1.940859 1_555
O18 P6 1.557769 1_555
O19 Si4 1.665529 1_555
O20 P5 1.555989 1_555
O21 Si3 1.648620 1_555
O22 P4 1.555217 1_555
O23 P3 1.568584 1_555
O24 Si5 1.618229 1_555
O24 Ti3 1.929853 1_556
O25 Si6 1.626066 1_555
O25 Ti3 1.813111 1_556
O26 P7 1.533432 1_555
O26 Ti3 1.944433 1_556
O27 Si7 1.624081 1_555
O27 Ti4 1.896770 1_555
O28 P8 1.522964 1_555
O28 Ti4 1.995155 1_555
O29 Si8 1.634328 1_555
O29 Ti4 1.812482 1_555
O30 Si8 1.618051 1_555
O30 Ti5 1.933028 1_555
O31 Si7 1.625291 1_555
O31 Ti5 1.824003 1_555
O32 P8 1.535999 1_555
O32 Ti5 1.936521 1_555
O33 Si6 1.626281 1_555
O34 P7 1.546871 1_555
O35 Si5 1.631771 1_555
O36 Si8 1.650526 1_555
O37 Si7 1.645647 1_555
O38 P8 1.553272 1_555
O39 Si6 1.623227 1_555
O40 P7 1.542011 1_555
O41 Si5 1.646648 1_555
O42 P3 1.528751 1_555
O42 Ti0 2.181705 1_645
O43 Si3 1.610057 1_555
O43 Ti0 1.929983 1_545
O44 P4 1.544331 1_555
O44 Ti0 2.084610 1_655
O45 Si4 1.640702 1_555
O45 Ti1 1.965359 1_555
O46 P5 1.555884 1_555
O46 Ti1 2.062385 1_545
O47 P6 1.527637 1_555
O47 Ti1 2.057595 1_445
O48 Si2 1.647987 1_545
O49 P2 1.559083 1_555
O50 Si1 1.629164 1_655
O51 Si0 1.642544 1_555
O51 Ti2 1.967475 1_555
O52 P1 1.558522 1_655
O52 Ti2 2.063143 1_555
O53 P0 1.528433 1_555
O53 Ti2 2.056650 1_555
O54 Si5 1.646290 1_555
O55 Si6 1.642109 1_655
O56 P7 1.547672 1_545
O57 Si7 1.643047 1_545
O58 P8 1.568032 1_555
O59 Si8 1.641272 1_655
O60 P6 1.550718 1_555
O60 Ti3 2.112730 1_555
O61 Si4 1.616484 1_455
O61 Ti3 1.928062 1_555
O62 P5 1.539433 1_565
O62 Ti3 2.155927 1_555
O63 Si3 1.637929 1_565
O63 Ti4 1.953434 1_555
O64 P4 1.539075 1_555
O64 Ti4 2.146958 1_555
O65 P3 1.527847 1_455
O65 Ti4 2.067645 1_555
O66 P0 1.549809 1_565
O66 Ti5 2.118919 1_555
O67 Si0 1.616559 1_555
O67 Ti5 1.933078 1_555
O68 P1 1.538108 1_555
O68 Ti5 2.160701 1_555
O69 P2 1.554831 1_555
O70 Si1 1.625037 1_555
O71 Si2 1.631118 1_555
