# generated using pymatgen
data_Na14Ca5Si6Ge3(SO8)6
_symmetry_space_group_name_H-M   'P 1'
_cell_length_a   18.73091168
_cell_length_b   9.29142931
_cell_length_c   22.57686839
_cell_angle_alpha   90.48166444
_cell_angle_beta   88.98561350
_cell_angle_gamma   120.30880255
_symmetry_Int_Tables_number   1
_chemical_formula_structural   Na14Ca5Si6Ge3(SO8)6
_chemical_formula_sum   'Na42 Ca15 Si18 Ge9 S18 O144'
_cell_volume   3391.62482790
_cell_formula_units_Z   3
loop_
 _symmetry_equiv_pos_site_id
 _symmetry_equiv_pos_as_xyz
  1  'x, y, z'
loop_
 _atom_site_type_symbol
 _atom_site_label
 _atom_site_symmetry_multiplicity
 _atom_site_fract_x
 _atom_site_fract_y
 _atom_site_fract_z
 _atom_site_occupancy
  Na  Na0  1  0.19421838  0.36447726  0.24812988  1
  Na  Na1  1  0.68931498  0.35767316  0.24280010  1
  Na  Na2  1  0.99640328  0.63991688  0.25683827  1
  Na  Na3  1  0.49589314  0.63416070  0.24315041  1
  Na  Na4  1  0.32184045  0.63920063  0.74791022  1
  Na  Na5  1  0.82230000  0.64040173  0.73419102  1
  Na  Na6  1  0.18694839  0.02655673  0.74367174  1
  Na  Na7  1  0.68894120  0.02432684  0.74591269  1
  Na  Na8  1  0.15367211  0.32359104  0.57639750  1
  Na  Na9  1  0.66984810  0.35551474  0.57830911  1
  Na  Na10  1  0.00399703  0.69842428  0.58405369  1
  Na  Na11  1  0.50729326  0.69616271  0.58857742  1
  Na  Na12  1  0.32541780  0.97788770  0.59889743  1
  Na  Na13  1  0.82619352  0.97189966  0.59905058  1
  Na  Na14  1  0.15648762  0.97262361  0.07671781  1
  Na  Na15  1  0.64828958  0.95973246  0.06473115  1
  Na  Na16  1  0.82076109  0.66809266  0.09762422  1
  Na  Na17  1  0.01135793  0.31935342  0.08644255  1
  Na  Na18  1  0.51182891  0.34165924  0.09437539  1
  Na  Na19  1  0.48988688  0.66813776  0.92328061  1
  Na  Na20  1  0.99806122  0.68320155  0.91354922  1
  Na  Na21  1  0.84543417  0.03478365  0.90482572  1
  Na  Na22  1  0.16700702  0.28600254  0.90460697  1
  Na  Na23  1  0.65903802  0.26783368  0.91179763  1
  Na  Na24  1  0.49589552  0.31626515  0.41647324  1
  Na  Na25  1  0.98952070  0.30537495  0.42063626  1
  Na  Na26  1  0.16007382  0.05392028  0.41223618  1
  Na  Na27  1  0.66297316  0.05570530  0.41160541  1
  Na  Na28  1  0.35039601  0.65587855  0.40321686  1
  Na  Na29  1  0.84967997  0.66212777  0.41360495  1
  Na  Na30  1  0.00739770  0.99869826  0.50684453  1
  Na  Na31  1  0.52172832  0.02999760  0.50276475  1
  Na  Na32  1  0.00931862  0.00335754  0.00080265  1
  Na  Na33  1  0.49940123  0.99693979  0.00454406  1
  Na  Na34  1  0.34232764  0.29801071  0.83499405  1
  Na  Na35  1  0.82750986  0.31094194  0.82452115  1
  Na  Na36  1  0.32419401  0.32604595  0.32427904  1
  Na  Na37  1  0.81672159  0.31887977  0.32676691  1
  Na  Na38  1  0.18572089  0.66848871  0.16468645  1
  Na  Na39  1  0.65988347  0.65840872  0.16403965  1
  Na  Na40  1  0.15550984  0.66509917  0.66898489  1
  Na  Na41  1  0.66892632  0.67362464  0.66351496  1
  Ca  Ca0  1  0.00141300  0.00369332  0.34744846  1
  Ca  Ca1  1  0.50367145  0.00705711  0.34404650  1
  Ca  Ca2  1  0.00428405  0.00931285  0.84553927  1
  Ca  Ca3  1  0.49932363  0.00351305  0.85200558  1
  Ca  Ca4  1  0.33102388  0.32913320  0.68466340  1
  Ca  Ca5  1  0.83078843  0.33206376  0.68395048  1
  Ca  Ca6  1  0.33112344  0.32928658  0.18570154  1
  Ca  Ca7  1  0.82852711  0.31987860  0.18267565  1
  Ca  Ca8  1  0.81473983  0.30676047  0.98351705  1
  Ca  Ca9  1  0.31741266  0.32149072  0.48322965  1
  Ca  Ca10  1  0.82024935  0.34403845  0.48838187  1
  Ca  Ca11  1  0.16958611  0.65850650  0.01705243  1
  Ca  Ca12  1  0.66244551  0.65297426  0.01657474  1
  Ca  Ca13  1  0.16431287  0.67253485  0.51741071  1
  Ca  Ca14  1  0.66874013  0.67619173  0.51947329  1
  Si  Si0  1  0.15375414  0.97996159  0.25911471  1
  Si  Si1  1  0.65243982  0.97598166  0.25638549  1
  Si  Si2  1  0.35760262  0.71589985  0.25161976  1
  Si  Si3  1  0.85593091  0.71152038  0.25116512  1
  Si  Si4  1  0.14556663  0.31739732  0.75261559  1
  Si  Si5  1  0.65101515  0.32080428  0.76044754  1
  Si  Si6  1  0.35479628  0.00101485  0.75156719  1
  Si  Si7  1  0.85345486  0.00182046  0.75507746  1
  Si  Si8  1  0.17049322  0.02158675  0.58910267  1
  Si  Si9  1  0.66618219  0.02566319  0.59082013  1
  Si  Si10  1  0.84281724  0.66536162  0.58806859  1
  Si  Si11  1  0.47089635  0.61420751  0.08118605  1
  Si  Si12  1  0.17372987  0.31321042  0.09379337  1
  Si  Si13  1  0.66671732  0.30550084  0.09155482  1
  Si  Si14  1  0.17514990  0.96729095  0.92070167  1
  Si  Si15  1  0.66821454  0.95436957  0.91278771  1
  Si  Si16  1  0.16845557  0.38553828  0.41206359  1
  Si  Si17  1  0.66766880  0.38313690  0.41227199  1
  Ge  Ge0  1  0.00005490  0.01851891  0.65421291  1
  Ge  Ge1  1  0.51324852  0.04710315  0.66461755  1
  Ge  Ge2  1  0.01611651  0.98674234  0.16301854  1
  Ge  Ge3  1  0.51028874  0.93668185  0.15210412  1
  Ge  Ge4  1  0.31356021  0.30456314  0.99547232  1
  Ge  Ge5  1  0.19681626  0.69561682  0.30772751  1
  Ge  Ge6  1  0.68772726  0.67647214  0.30436655  1
  Ge  Ge7  1  0.18826281  0.70007775  0.80948655  1
  Ge  Ge8  1  0.68457278  0.69137862  0.80792076  1
  S  S0  1  0.00854203  0.30200885  0.24580937  1
  S  S1  1  0.50739418  0.31628527  0.25265180  1
  S  S2  1  0.00868798  0.70872046  0.75169459  1
  S  S3  1  0.50761350  0.71454292  0.74907422  1
  S  S4  1  0.48300878  0.32202519  0.58199696  1
  S  S5  1  0.98440302  0.32437923  0.58237215  1
  S  S6  1  0.33817450  0.65180224  0.58237673  1
  S  S7  1  0.98449597  0.64224733  0.08452305  1
  S  S8  1  0.33612667  0.04244873  0.07943609  1
  S  S9  1  0.84205570  0.02668344  0.07995675  1
  S  S10  1  0.31238058  0.65027247  0.91149608  1
  S  S11  1  0.81616757  0.66135608  0.91442776  1
  S  S12  1  0.01773556  0.37685396  0.91751195  1
  S  S13  1  0.51294940  0.37288007  0.91684828  1
  S  S14  1  0.31343576  0.96671890  0.41353442  1
  S  S15  1  0.81123065  0.96760918  0.41176168  1
  S  S16  1  0.01497986  0.65931615  0.41495572  1
  S  S17  1  0.51509253  0.66159403  0.41707199  1
  O  O0  1  0.11026332  0.00391066  0.31621506  1
  O  O1  1  0.61211885  0.00647564  0.31411593  1
  O  O2  1  0.39331515  0.78694785  0.31519713  1
  O  O3  1  0.89634323  0.78271898  0.31350897  1
  O  O4  1  0.50151747  0.23313643  0.30917080  1
  O  O5  1  0.99584449  0.21658348  0.30247508  1
  O  O6  1  0.11821139  0.20971443  0.81208166  1
  O  O7  1  0.61336514  0.20339972  0.81645464  1
  O  O8  1  0.49765287  0.77773122  0.80653539  1
  O  O9  1  0.99648049  0.77319869  0.80874774  1
  O  O10  1  0.39608790  0.98370288  0.80847248  1
  O  O11  1  0.89165290  0.99707894  0.81681568  1
  O  O12  1  0.40781276  0.98048179  0.68926191  1
  O  O13  1  0.90567783  0.97695827  0.69721895  1
  O  O14  1  0.07999924  0.21151218  0.69598487  1
  O  O15  1  0.58989926  0.23081712  0.69975299  1
  O  O16  1  0.01624735  0.81978213  0.70097050  1
  O  O17  1  0.51547005  0.83209536  0.69897085  1
  O  O18  1  0.41707588  0.84883878  0.19599801  1
  O  O19  1  0.91344993  0.84168515  0.19151036  1
  O  O20  1  0.01347896  0.19664539  0.19437566  1
  O  O21  1  0.51053890  0.22362201  0.20070294  1
  O  O22  1  0.08705436  0.93968690  0.19945852  1
  O  O23  1  0.58601819  0.92054862  0.19659107  1
  O  O24  1  0.43951971  0.34759677  0.63178384  1
  O  O25  1  0.93980491  0.34195448  0.63304832  1
  O  O26  1  0.23870671  0.10665176  0.64014199  1
  O  O27  1  0.72945541  0.10631788  0.64450830  1
  O  O28  1  0.33572196  0.55836033  0.63560949  1
  O  O29  1  0.83165944  0.54530017  0.64258878  1
  O  O30  1  0.44368574  0.51367643  0.14173506  1
  O  O31  1  0.94351789  0.54018178  0.13693919  1
  O  O32  1  0.32539464  0.11808766  0.13327167  1
  O  O33  1  0.83788210  0.11989971  0.13127617  1
  O  O34  1  0.22351518  0.33677099  0.15190484  1
  O  O35  1  0.73207782  0.35102865  0.14376129  1
  O  O36  1  0.21871255  0.27050579  0.03347108  1
  O  O37  1  0.69627800  0.25590217  0.02927040  1
  O  O38  1  0.40098579  0.50227813  0.02291371  1
  O  O39  1  0.93786021  0.56377105  0.02981181  1
  O  O40  1  0.34019717  0.14880858  0.02529448  1
  O  O41  1  0.84785799  0.11923402  0.02457460  1
  O  O42  1  0.20089673  0.12408796  0.52566334  1
  O  O43  1  0.69583302  0.13843190  0.52985666  1
  O  O44  1  0.34137937  0.56096509  0.52848851  1
  O  O45  1  0.86463838  0.59891861  0.52631210  1
  O  O46  1  0.43842141  0.30237730  0.52572083  1
  O  O47  1  0.94123476  0.30988432  0.52607612  1
  O  O48  1  0.26944432  0.66487050  0.96383686  1
  O  O49  1  0.77549448  0.67018557  0.96942397  1
  O  O50  1  0.05831087  0.44542235  0.97509636  1
  O  O51  1  0.55457405  0.44360020  0.97366531  1
  O  O52  1  0.15889331  0.86069788  0.97931508  1
  O  O53  1  0.67391772  0.86983458  0.97239813  1
  O  O54  1  0.27252155  0.87718483  0.46796697  1
  O  O55  1  0.77124969  0.88039909  0.46697564  1
  O  O56  1  0.16623442  0.46948794  0.47375867  1
  O  O57  1  0.66090026  0.46626890  0.47285750  1
  O  O58  1  0.06109323  0.67367463  0.46925944  1
  O  O59  1  0.55979059  0.67508498  0.47193940  1
  O  O60  1  0.06031527  0.65497260  0.36133119  1
  O  O61  1  0.55990583  0.65365673  0.36379684  1
  O  O62  1  0.25915085  0.87837494  0.35998232  1
  O  O63  1  0.75931324  0.87630492  0.35857073  1
  O  O64  1  0.17799567  0.52022620  0.35140990  1
  O  O65  1  0.67813880  0.51438786  0.35154206  1
  O  O66  1  0.06822126  0.48504240  0.86774935  1
  O  O67  1  0.56157953  0.48163876  0.86627371  1
  O  O68  1  0.18547169  0.86175608  0.85712639  1
  O  O69  1  0.67636175  0.84044367  0.85150481  1
  O  O70  1  0.26569556  0.64429790  0.85526779  1
  O  O71  1  0.76641709  0.65086511  0.86087219  1
  O  O72  1  0.00149642  0.80521944  0.41576218  1
  O  O73  1  0.50140266  0.80739290  0.41648822  1
  O  O74  1  0.39514824  0.98199942  0.40929554  1
  O  O75  1  0.89436615  0.98533237  0.40918607  1
  O  O76  1  0.08277652  0.20615854  0.41003810  1
  O  O77  1  0.58360708  0.19993404  0.41040198  1
  O  O78  1  0.00551658  0.20498357  0.91434796  1
  O  O79  1  0.50307238  0.20412869  0.91402579  1
  O  O80  1  0.09555082  0.99080076  0.91168666  1
  O  O81  1  0.58246384  0.95916772  0.91422686  1
  O  O82  1  0.39851810  0.78570217  0.91083566  1
  O  O83  1  0.90114025  0.80924655  0.91290897  1
  O  O84  1  0.48483512  0.16188061  0.58973538  1
  O  O85  1  0.98756360  0.16486838  0.58729933  1
  O  O86  1  0.08332556  0.03188110  0.60294260  1
  O  O87  1  0.57184685  0.02358026  0.60484161  1
  O  O88  1  0.41296246  0.81963356  0.58092771  1
  O  O89  1  0.92950905  0.85495041  0.59850072  1
  O  O90  1  0.47792659  0.80342324  0.08654716  1
  O  O91  1  0.98817635  0.80955164  0.08949234  1
  O  O92  1  0.41294046  0.04071345  0.07584136  1
  O  O93  1  0.91782030  0.01230299  0.08137765  1
  O  O94  1  0.07934866  0.12204682  0.10013460  1
  O  O95  1  0.57241848  0.12205373  0.10750497  1
  O  O96  1  0.33481092  0.14931542  0.74794766  1
  O  O97  1  0.83166336  0.14650887  0.74851597  1
  O  O98  1  0.23882514  0.35989098  0.73675310  1
  O  O99  1  0.74364357  0.35664006  0.74863020  1
  O  O100  1  0.43396279  0.55028129  0.73920057  1
  O  O101  1  0.93856143  0.53942868  0.74383281  1
  O  O102  1  0.34260934  0.52989671  0.24628522  1
  O  O103  1  0.84565409  0.52939422  0.24236206  1
  O  O104  1  0.43839323  0.35077418  0.25134701  1
  O  O105  1  0.94108524  0.33676320  0.23678977  1
  O  O106  1  0.24300222  0.13768037  0.24888383  1
  O  O107  1  0.74069735  0.13783439  0.24479860  1
  O  O108  1  0.31001065  0.48661614  0.91198854  1
  O  O109  1  0.82268544  0.50780147  0.91366774  1
  O  O110  1  0.43087262  0.36581011  0.91708503  1
  O  O111  1  0.93529062  0.36667387  0.91712941  1
  O  O112  1  0.26036661  0.16824949  0.92869086  1
  O  O113  1  0.75098585  0.13868831  0.90306226  1
  O  O114  1  0.32112905  0.13385245  0.41224188  1
  O  O115  1  0.81992747  0.13634109  0.41156217  1
  O  O116  1  0.25075703  0.36736943  0.40356437  1
  O  O117  1  0.75134139  0.36946478  0.40600054  1
  O  O118  1  0.43184039  0.50323440  0.41855734  1
  O  O119  1  0.93306467  0.49991286  0.41602561  1
  O  O120  1  0.15045385  0.45452160  0.08099766  1
  O  O121  1  0.65235469  0.46436142  0.08658770  1
  O  O122  1  0.07046658  0.67264629  0.08211229  1
  O  O123  1  0.56510467  0.66258053  0.06820474  1
  O  O124  1  0.26148618  0.87387284  0.07521473  1
  O  O125  1  0.76705696  0.85572669  0.08126389  1
  O  O126  1  0.14763981  0.82680768  0.58683799  1
  O  O127  1  0.64343615  0.83305956  0.58462098  1
  O  O128  1  0.26229998  0.66784467  0.58341853  1
  O  O129  1  0.76169691  0.68899084  0.58607762  1
  O  O130  1  0.07070989  0.46583974  0.58228626  1
  O  O131  1  0.56916040  0.46278494  0.58068151  1
  O  O132  1  0.15165073  0.79162966  0.26236198  1
  O  O133  1  0.65335960  0.79438648  0.26158049  1
  O  O134  1  0.26266485  0.69985351  0.24783276  1
  O  O135  1  0.76092792  0.69122398  0.24685057  1
  O  O136  1  0.08912650  0.46164587  0.24307571  1
  O  O137  1  0.58959429  0.48368081  0.25047463  1
  O  O138  1  0.15385233  0.51144527  0.76323847  1
  O  O139  1  0.65314840  0.50667731  0.76511008  1
  O  O140  1  0.09031701  0.71274464  0.75205127  1
  O  O141  1  0.58564777  0.70771050  0.74583184  1
  O  O142  1  0.25897919  0.82012440  0.74819795  1
  O  O143  1  0.75953667  0.81534233  0.75049022  1
loop_
_geom_bond_atom_site_label_1
_geom_bond_atom_site_label_2
_geom_bond_distance
_geom_bond_site_symmetry_2
Na0 O34 2.275512 1_555
Na0 O102 2.403077 1_555
Na0 O136 2.550773 1_555
Na0 O106 2.687096 1_555
Na0 O134 2.705865 1_555
Na0 O64 2.825870 1_555
Na1 O35 2.372594 1_555
Na1 O103 2.530726 1_555
Na1 O137 2.661214 1_555
Na1 O107 2.662313 1_555
Na1 O135 2.686290 1_555
Na1 O65 2.901845 1_555
Na2 O103 2.496962 1_555
Na2 O105 2.502371 1_555
Na2 O132 2.516192 1_655
Na2 O60 2.635065 1_655
Na2 O22 2.743815 1_655
Na2 O31 2.879898 1_555
Na3 O104 2.294796 1_555
Na3 O102 2.524591 1_555
Na3 O30 2.526500 1_555
Na3 O23 2.546702 1_555
Na3 O133 2.586515 1_555
Na3 O137 2.748384 1_555
Na3 O61 2.962728 1_555
Na4 O98 2.268522 1_555
Na4 O142 2.491918 1_555
Na4 O100 2.620274 1_555
Na4 O70 2.634594 1_555
Na4 O28 2.683617 1_555
Na4 O138 2.761915 1_555
Na5 O29 2.280642 1_555
Na5 O99 2.303280 1_555
Na5 O143 2.462296 1_555
Na5 O101 2.784278 1_555
Na5 O13 2.825418 1_555
Na6 O96 2.408347 1_555
Na6 O26 2.485530 1_555
Na6 O140 2.546368 1_545
Na6 O98 2.743384 1_555
Na6 O142 2.851289 1_545
Na6 O16 2.953243 1_545
Na6 O68 2.987835 1_545
Na6 O6 3.006012 1_555
Na7 O97 2.319513 1_555
Na7 O27 2.404552 1_555
Na7 O141 2.579319 1_545
Na7 O99 2.719035 1_555
Na7 O143 2.851215 1_545
Na7 O69 2.880981 1_545
Na8 O86 2.415854 1_555
Na8 O130 2.498413 1_555
Na8 O56 2.640883 1_555
Na8 O42 2.667191 1_555
Na8 O85 2.695141 1_455
Na8 O128 2.798259 1_555
Na8 O14 2.956883 1_555
Na9 O43 2.537080 1_555
Na9 O131 2.538886 1_555
Na9 O57 2.642823 1_555
Na9 O129 2.685575 1_555
Na9 O87 2.741960 1_555
Na10 O126 2.330522 1_555
Na10 O89 2.488405 1_455
Na10 O45 2.651854 1_455
Na10 O86 2.709747 1_565
Na10 O16 2.828769 1_555
Na10 O58 2.837884 1_555
Na11 O127 2.201995 1_555
Na11 O87 2.671315 1_565
Na11 O59 2.834374 1_555
Na12 O128 2.525613 1_555
Na12 O12 2.572502 1_555
Na12 O84 2.591035 1_565
Na12 O26 2.612550 1_565
Na12 O88 2.723170 1_555
Na12 O126 2.905317 1_555
Na13 O129 2.291139 1_555
Na13 O85 2.632666 1_565
Na13 O89 2.654664 1_555
Na13 O13 2.678687 1_555
Na13 O27 2.844856 1_565
Na14 O122 2.417755 1_555
Na14 O52 2.434067 1_554
Na14 O94 2.506000 1_565
Na14 O124 2.555283 1_555
Na14 O36 2.592565 1_565
Na14 O91 2.733464 1_455
Na15 O53 2.369313 1_554
Na15 O123 2.390424 1_555
Na15 O37 2.556658 1_565
Na15 O95 2.705015 1_565
Na15 O90 2.795246 1_555
Na15 O125 2.868346 1_555
Na16 O125 2.445766 1_555
Na16 O19 2.712030 1_555
Na16 O91 2.723670 1_555
Na16 O35 2.752125 1_555
Na16 O121 2.754766 1_555
Na16 O93 2.792091 1_565
Na16 O49 3.033329 1_554
Na17 O120 2.251469 1_555
Na17 O93 2.485666 1_455
Na17 O20 2.708374 1_555
Na17 O50 2.719639 1_554
Na17 O94 2.730973 1_555
Na17 O122 2.888620 1_555
Na18 O121 2.284112 1_555
Na18 O92 2.490978 1_555
Na18 O21 2.642249 1_555
Na18 O123 2.691022 1_555
Na18 O30 2.703501 1_555
Na18 O95 2.810455 1_555
Na18 O51 2.857608 1_554
Na19 O81 2.371667 1_555
Na19 O110 2.448892 1_555
Na19 O82 2.471878 1_555
Na19 O38 2.746481 1_556
Na19 O8 2.808422 1_555
Na19 O108 2.923881 1_555
Na19 O67 2.951691 1_555
Na20 O80 2.497269 1_655
Na20 O9 2.521750 1_555
Na20 O111 2.559082 1_555
Na20 O83 2.610489 1_555
Na20 O109 2.836053 1_555
Na20 O39 2.841468 1_556
Na20 O66 2.923731 1_655
Na20 O52 3.017023 1_655
Na21 O11 2.248075 1_545
Na21 O113 2.406313 1_555
Na21 O78 2.601746 1_655
Na21 O111 2.680102 1_555
Na21 O83 2.780924 1_545
Na21 O41 2.803514 1_556
Na22 O6 2.256159 1_555
Na22 O80 2.373736 1_545
Na22 O108 2.376605 1_555
Na22 O112 2.554493 1_555
Na22 O78 2.728697 1_555
Na23 O7 2.291362 1_555
Na23 O81 2.476564 1_545
Na23 O113 2.552420 1_555
Na23 O79 2.671578 1_555
Na23 O109 2.733824 1_555
Na23 O37 2.771523 1_556
Na24 O77 2.380790 1_555
Na24 O4 2.553044 1_555
Na24 O118 2.561258 1_555
Na24 O46 2.651450 1_555
Na24 O74 2.705587 1_545
Na24 O114 2.829517 1_555
Na24 O57 2.979439 1_555
Na24 O61 2.982909 1_555
Na25 O76 2.359037 1_655
Na25 O119 2.516459 1_555
Na25 O47 2.539074 1_555
Na25 O75 2.596170 1_545
Na25 O115 2.753485 1_555
Na25 O5 2.803885 1_555
Na26 O0 2.324457 1_555
Na26 O76 2.484025 1_555
Na26 O116 2.531857 1_555
Na26 O42 2.665649 1_555
Na26 O72 2.689938 1_545
Na26 O114 2.718601 1_555
Na27 O1 2.361894 1_555
Na27 O77 2.453436 1_555
Na27 O117 2.526456 1_555
Na27 O115 2.642173 1_555
Na27 O73 2.727475 1_545
Na27 O43 2.764661 1_555
Na28 O2 2.252631 1_555
Na28 O116 2.370528 1_555
Na28 O73 2.464933 1_555
Na28 O118 2.582532 1_555
Na28 O74 2.708612 1_555
Na28 O44 2.946164 1_555
Na29 O117 2.400951 1_555
Na29 O72 2.458510 1_655
Na29 O3 2.471944 1_555
Na29 O119 2.663554 1_555
Na29 O45 2.667348 1_555
Na29 O75 2.682131 1_555
Na30 O89 2.483392 1_455
Na30 O85 2.515770 1_465
Na30 O86 2.545638 1_565
Na30 O72 2.686606 1_555
Na30 O76 2.774984 1_565
Na31 O77 2.511462 1_555
Na31 O87 2.516210 1_555
Na31 O84 2.569186 1_555
Na31 O88 2.645097 1_545
Na31 O73 2.716753 1_545
Na31 O43 2.961121 1_555
Na32 O93 2.506843 1_455
Na32 O94 2.562925 1_555
Na32 O91 2.592605 1_445
Na32 O80 2.596475 1_544
Na32 O78 2.743275 1_554
Na32 O83 2.773079 1_444
Na33 O92 2.437358 1_565
Na33 O90 2.474260 1_555
Na33 O95 2.662291 1_565
Na33 O81 2.669908 1_554
Na33 O79 2.795461 1_564
Na33 O82 2.868315 1_554
Na34 O96 2.357664 1_555
Na34 O110 2.370055 1_555
Na34 O112 2.518932 1_555
Na34 O108 2.727864 1_555
Na34 O100 3.001773 1_555
Na35 O97 2.314295 1_555
Na35 O113 2.324355 1_555
Na35 O99 2.522778 1_555
Na35 O109 2.739170 1_555
Na35 O101 2.761534 1_555
Na35 O111 2.791306 1_555
Na36 O106 2.372446 1_555
Na36 O116 2.382859 1_555
Na36 O102 2.486408 1_555
Na36 O104 2.593292 1_555
Na36 O114 2.662371 1_555
Na36 O118 2.837087 1_555
Na37 O117 2.325908 1_555
Na37 O107 2.430099 1_555
Na37 O115 2.589711 1_555
Na37 O103 2.589800 1_555
Na37 O119 2.835139 1_555
Na37 O105 3.004658 1_555
Na38 O134 2.312696 1_555
Na38 O136 2.556060 1_555
Na38 O120 2.571813 1_555
Na38 O124 2.639299 1_555
Na38 O132 2.687751 1_555
Na38 O122 2.892293 1_555
Na39 O137 2.445828 1_555
Na39 O121 2.455074 1_555
Na39 O133 2.561297 1_555
Na39 O135 2.589171 1_555
Na39 O125 2.663393 1_555
Na39 O123 2.835741 1_555
Na40 O140 2.377970 1_555
Na40 O126 2.449274 1_555
Na40 O142 2.508185 1_555
Na40 O138 2.563467 1_555
Na40 O130 2.619735 1_555
Na40 O128 2.747034 1_555
Na41 O129 2.396385 1_555
Na41 O143 2.507809 1_555
Na41 O141 2.524578 1_555
Na41 O127 2.526539 1_555
Na41 O131 2.682223 1_555
Na41 O139 2.706968 1_555
Ca0 O0 2.144570 1_555
Ca0 O3 2.150442 1_445
Ca0 O76 2.235209 1_555
Ca0 O5 2.280414 1_455
Ca0 O75 2.356280 1_445
Ca0 O72 2.414594 1_545
Ca1 O1 2.131976 1_555
Ca1 O2 2.153606 1_545
Ca1 O77 2.241374 1_555
Ca1 O4 2.269052 1_555
Ca1 O74 2.403825 1_545
Ca1 O73 2.467247 1_545
Ca2 O6 2.132499 1_555
Ca2 O11 2.165498 1_445
Ca2 O9 2.274698 1_445
Ca2 O80 2.360879 1_545
Ca2 O78 2.372891 1_555
Ca2 O83 2.412498 1_445
Ca3 O10 2.108093 1_545
Ca3 O7 2.148627 1_555
Ca3 O79 2.295117 1_555
Ca3 O81 2.302847 1_545
Ca3 O8 2.313961 1_545
Ca3 O82 2.350432 1_545
Ca4 O26 2.166190 1_555
Ca4 O98 2.206285 1_555
Ca4 O96 2.236333 1_555
Ca4 O24 2.269431 1_555
Ca4 O100 2.344906 1_555
Ca4 O28 2.370137 1_555
Ca5 O29 2.189899 1_555
Ca5 O27 2.192088 1_555
Ca5 O99 2.266084 1_555
Ca5 O97 2.273577 1_555
Ca5 O25 2.286502 1_555
Ca5 O101 2.396302 1_555
Ca6 O30 2.162052 1_555
Ca6 O34 2.201478 1_555
Ca6 O106 2.218578 1_555
Ca6 O102 2.225818 1_555
Ca6 O32 2.239722 1_555
Ca6 O104 2.443173 1_555
Ca7 O107 2.164297 1_555
Ca7 O35 2.169703 1_555
Ca7 O103 2.247058 1_555
Ca7 O33 2.261635 1_555
Ca7 O31 2.324267 1_555
Ca7 O105 2.390892 1_555
Ca8 O37 2.254457 1_556
Ca8 O113 2.304556 1_555
Ca8 O41 2.327750 1_556
Ca8 O109 2.399771 1_555
Ca8 O111 2.506099 1_555
Ca8 O39 2.568709 1_556
Ca9 O42 2.227165 1_555
Ca9 O44 2.272957 1_555
Ca9 O116 2.367495 1_555
Ca9 O114 2.384227 1_555
Ca9 O118 2.419689 1_555
Ca9 O46 2.564265 1_555
Ca10 O45 2.244267 1_555
Ca10 O43 2.327350 1_555
Ca10 O117 2.362450 1_555
Ca10 O119 2.461719 1_555
Ca10 O115 2.581570 1_555
Ca10 O47 2.599832 1_555
Ca11 O52 2.169803 1_554
Ca11 O48 2.180707 1_554
Ca11 O50 2.243805 1_554
Ca11 O120 2.268699 1_555
Ca11 O124 2.291470 1_555
Ca11 O122 2.401692 1_555
Ca12 O53 2.165663 1_554
Ca12 O123 2.185934 1_555
Ca12 O51 2.208130 1_554
Ca12 O49 2.285582 1_554
Ca12 O121 2.303719 1_555
Ca12 O125 2.418830 1_555
Ca13 O56 2.137246 1_555
Ca13 O126 2.237372 1_555
Ca13 O58 2.239468 1_555
Ca13 O54 2.243991 1_555
Ca13 O130 2.337819 1_555
Ca13 O128 2.402094 1_555
Ca14 O57 2.148358 1_555
Ca14 O55 2.229735 1_555
Ca14 O127 2.269119 1_555
Ca14 O129 2.277645 1_555
Ca14 O59 2.317870 1_555
Ca14 O131 2.354198 1_555
Ge0 O13 1.863701 1_445
Ge0 O86 1.879119 1_555
Ge0 O89 1.907264 1_445
Ge0 O14 1.912741 1_555
Ge0 O85 2.134051 1_455
Ge0 O16 2.285934 1_545
Ge1 O15 1.774339 1_555
Ge1 O87 1.805135 1_555
Ge1 O12 1.823736 1_545
Ge1 O17 2.169168 1_545
Ge1 O84 2.216694 1_555
Ge2 O22 1.806826 1_555
Ge2 O19 1.811950 1_455
Ge2 O94 1.861851 1_565
Ge2 O20 2.092867 1_565
Ge2 O91 2.203432 1_455
Ge3 O18 1.791821 1_555
Ge3 O95 1.816402 1_565
Ge3 O23 1.819593 1_555
Ge3 O90 1.826067 1_555
Ge4 O36 1.837264 1_556
Ge4 O38 1.849504 1_556
Ge4 O40 1.885113 1_556
Ge4 O112 1.901966 1_555
Ge5 O64 1.785343 1_555
Ge5 O134 1.801170 1_555
Ge5 O132 1.835301 1_555
Ge5 O62 1.911153 1_555
Ge6 O65 1.783776 1_555
Ge6 O133 1.816449 1_555
Ge6 O135 1.826251 1_555
Ge6 O63 2.061561 1_555
Ge6 O137 2.187937 1_555
Ge7 O142 1.839327 1_555
Ge7 O138 1.852122 1_555
Ge7 O68 1.861812 1_555
Ge7 O70 2.064302 1_555
Ge7 O140 2.316430 1_555
Ge7 O66 2.486573 1_555
Ge8 O69 1.759808 1_555
Ge8 O139 1.788430 1_555
Ge8 O143 1.818713 1_555
Ge8 O71 2.139139 1_555
Ge8 O141 2.408482 1_555
Ge8 O67 2.499010 1_555
O0 Si0 1.586184 1_545
O1 Si1 1.588829 1_545
O2 Si2 1.586166 1_555
O3 Si3 1.583793 1_555
O4 S1 1.470708 1_555
O5 S0 1.462540 1_655
O6 Si4 1.595885 1_555
O7 Si5 1.581559 1_555
O8 S3 1.466854 1_555
O9 S2 1.478247 1_655
O10 Si6 1.561684 1_565
O11 Si7 1.588978 1_565
O12 Si6 1.771575 1_565
O13 Si7 1.701261 1_565
O14 Si4 1.710503 1_555
O15 Si5 1.719728 1_555
O16 S2 1.504336 1_555
O17 S3 1.531937 1_555
O18 Si2 1.712118 1_555
O19 Si3 1.760176 1_555
O20 S0 1.543962 1_555
O21 S1 1.466993 1_555
O22 Si0 1.759016 1_555
O23 Si1 1.742581 1_555
O24 S4 1.463521 1_555
O25 S5 1.460886 1_555
O26 Si8 1.613248 1_555
O27 Si9 1.604550 1_555
O28 S6 1.474999 1_555
O29 Si10 1.606822 1_555
O30 Si11 1.586589 1_555
O31 S7 1.463189 1_555
O32 S8 1.459863 1_555
O33 S9 1.465248 1_555
O34 Si12 1.572021 1_555
O35 Si13 1.608414 1_555
O36 Si12 1.734883 1_555
O37 Si13 1.647848 1_555
O38 Si11 1.786226 1_555
O39 S7 1.483458 1_555
O40 S8 1.554837 1_555
O41 S9 1.494527 1_555
O42 Si8 1.652075 1_555
O43 Si9 1.646364 1_555
O44 S6 1.492455 1_555
O45 Si10 1.646875 1_555
O46 S4 1.491602 1_555
O47 S5 1.486926 1_555
O48 S10 1.461281 1_555
O49 S11 1.468567 1_555
O50 S12 1.485279 1_555
O51 S13 1.479612 1_555
O52 Si14 1.590012 1_555
O53 Si15 1.595969 1_555
O54 S14 1.459440 1_555
O55 S15 1.463823 1_555
O56 Si16 1.600845 1_555
O57 Si17 1.599561 1_555
O58 S16 1.478306 1_555
O59 S17 1.476253 1_555
O60 S16 1.478453 1_555
O61 S17 1.477145 1_555
O62 S14 1.534235 1_555
O63 S15 1.516260 1_555
O64 Si16 1.807666 1_555
O65 Si17 1.784028 1_555
O66 S12 1.479480 1_555
O67 S13 1.485980 1_555
O68 Si14 1.793580 1_555
O69 Si15 1.785780 1_555
O70 S10 1.538961 1_555
O71 S11 1.511979 1_555
O72 S16 1.498965 1_555
O73 S17 1.500705 1_555
O74 S14 1.465473 1_555
O75 S15 1.481052 1_555
O76 Si16 1.630059 1_555
O77 Si17 1.635382 1_555
O78 S12 1.495796 1_555
O79 S13 1.484144 1_555
O80 Si14 1.628596 1_555
O81 Si15 1.628891 1_555
O82 S10 1.461882 1_555
O83 S11 1.487958 1_555
O84 S4 1.517140 1_555
O85 S5 1.517898 1_555
O86 Si8 1.706355 1_555
O87 Si9 1.780059 1_555
O88 S6 1.479714 1_555
O89 Si10 1.707274 1_555
O90 Si11 1.698873 1_555
O91 S7 1.524132 1_555
O92 S8 1.447835 1_555
O93 S9 1.491948 1_555
O94 Si12 1.768228 1_555
O95 Si13 1.761781 1_555
O96 Si6 1.602838 1_555
O97 Si7 1.598499 1_555
O98 Si4 1.618524 1_555
O99 Si5 1.610696 1_555
O100 S3 1.470458 1_555
O101 S2 1.466032 1_655
O102 Si2 1.608724 1_555
O103 Si3 1.614639 1_555
O104 S1 1.481054 1_555
O105 S0 1.471148 1_655
O106 Si0 1.585826 1_545
O107 Si1 1.595282 1_545
O108 S10 1.498819 1_555
O109 S11 1.492017 1_555
O110 S13 1.505205 1_555
O111 S12 1.498938 1_655
O112 Si14 1.750176 1_545
O113 Si15 1.642925 1_545
O114 S14 1.485899 1_545
O115 S15 1.492232 1_545
O116 Si16 1.641170 1_555
O117 Si17 1.638686 1_555
O118 S17 1.510273 1_555
O119 S16 1.501341 1_655
O120 Si12 1.608125 1_555
O121 Si13 1.633492 1_555
O122 S7 1.487924 1_455
O123 Si11 1.607838 1_555
O124 S8 1.486276 1_565
O125 S9 1.498178 1_565
O126 Si8 1.636594 1_565
O127 Si9 1.622341 1_565
O128 S6 1.501715 1_555
O129 Si10 1.642639 1_555
O130 S5 1.481991 1_455
O131 S4 1.477902 1_555
O132 Si0 1.732470 1_555
O133 Si1 1.701088 1_555
O134 Si2 1.711536 1_555
O135 Si3 1.696692 1_555
O136 S0 1.490209 1_555
O137 S1 1.540676 1_555
O138 Si4 1.744698 1_555
O139 Si5 1.709602 1_555
O140 S2 1.510626 1_555
O141 S3 1.495195 1_555
O142 Si6 1.734886 1_565
O143 Si7 1.741977 1_565
