# generated using pymatgen
data_Na8Zr2In2Si5SO24
_symmetry_space_group_name_H-M   'P 1'
_cell_length_a   9.30612774
_cell_length_b   9.29448721
_cell_length_c   22.74732315
_cell_angle_alpha   90.04331474
_cell_angle_beta   89.73422271
_cell_angle_gamma   119.85454921
_symmetry_Int_Tables_number   1
_chemical_formula_structural   Na8Zr2In2Si5SO24
_chemical_formula_sum   'Na24 Zr6 In6 Si15 S3 O72'
_cell_volume   1706.41502787
_cell_formula_units_Z   3
loop_
 _symmetry_equiv_pos_site_id
 _symmetry_equiv_pos_as_xyz
  1  'x, y, z'
loop_
 _atom_site_type_symbol
 _atom_site_label
 _atom_site_symmetry_multiplicity
 _atom_site_fract_x
 _atom_site_fract_y
 _atom_site_fract_z
 _atom_site_occupancy
  Na  Na0  1  0.64398964  0.00453042  0.25297606  1
  Na  Na1  1  0.35561507  0.36064168  0.24659568  1
  Na  Na2  1  0.99984530  0.63989965  0.24969884  1
  Na  Na3  1  0.63585013  0.63525152  0.74633949  1
  Na  Na4  1  0.99409496  0.35871516  0.74959321  1
  Na  Na5  1  0.36786615  0.00916122  0.74968251  1
  Na  Na6  1  0.30142625  0.33936726  0.58689490  1
  Na  Na7  1  0.04044738  0.70191116  0.58191159  1
  Na  Na8  1  0.66208801  0.95888566  0.58236580  1
  Na  Na9  1  0.28200266  0.96295059  0.08041629  1
  Na  Na10  1  0.67131695  0.69111109  0.08815141  1
  Na  Na11  1  0.04827082  0.33813074  0.08720454  1
  Na  Na12  1  0.97678293  0.67007125  0.91637494  1
  Na  Na13  1  0.70668584  0.04737152  0.90736334  1
  Na  Na14  1  0.31753603  0.28059342  0.91900319  1
  Na  Na15  1  0.95782944  0.29185159  0.40988898  1
  Na  Na16  1  0.32542751  0.01728159  0.41546533  1
  Na  Na17  1  0.71684210  0.68550459  0.41798201  1
  Na  Na18  1  0.98865699  0.98657694  0.50058088  1
  Na  Na19  1  0.02420288  0.00995206  0.99964031  1
  Na  Na20  1  0.66686283  0.32314136  0.83210650  1
  Na  Na21  1  0.67623631  0.33066589  0.33207568  1
  Na  Na22  1  0.32224315  0.65353568  0.16546502  1
  Na  Na23  1  0.33617230  0.66780376  0.66223719  1
  Zr  Zr0  1  0.00003000  0.00093355  0.64895842  1
  Zr  Zr1  1  0.66958887  0.33515722  0.68407043  1
  Zr  Zr2  1  0.66723882  0.34208577  0.18510859  1
  Zr  Zr3  1  0.67465361  0.33153166  0.48423147  1
  Zr  Zr4  1  0.33045039  0.67416609  0.31434392  1
  Zr  Zr5  1  0.32199931  0.66885292  0.81287869  1
  In  In0  1  0.99355437  0.99153791  0.34578792  1
  In  In1  1  0.01044818  0.00737875  0.84686334  1
  In  In2  1  0.00713203  0.99906946  0.15329195  1
  In  In3  1  0.66610426  0.33501133  0.98211539  1
  In  In4  1  0.31145390  0.65202901  0.01671610  1
  In  In5  1  0.33680469  0.67917848  0.51967611  1
  Si  Si0  1  0.29899249  0.00264838  0.25066940  1
  Si  Si1  1  0.70033693  0.70306791  0.24935973  1
  Si  Si2  1  0.99979695  0.29550153  0.24990817  1
  Si  Si3  1  0.30010094  0.29917456  0.75052181  1
  Si  Si4  1  0.99547392  0.70531088  0.75159956  1
  Si  Si5  1  0.70442756  0.99916672  0.75189782  1
  Si  Si6  1  0.96682192  0.33324422  0.58341301  1
  Si  Si7  1  0.37129133  0.04125406  0.58346963  1
  Si  Si8  1  0.66611854  0.62839970  0.58248357  1
  Si  Si9  1  0.96216867  0.63357559  0.08174598  1
  Si  Si10  1  0.36913885  0.33467380  0.08101250  1
  Si  Si11  1  0.03161907  0.36159225  0.91735314  1
  Si  Si12  1  0.33475550  0.96449661  0.91906463  1
  Si  Si13  1  0.63338468  0.96413456  0.41753122  1
  Si  Si14  1  0.03448848  0.66801727  0.41814197  1
  S  S0  1  0.66722469  0.03663227  0.08303167  1
  S  S1  1  0.62428782  0.66833501  0.91688705  1
  S  S2  1  0.33504628  0.37301893  0.41722042  1
  O  O0  1  0.22554123  0.04775807  0.30856986  1
  O  O1  1  0.81521547  0.77111985  0.30749969  1
  O  O2  1  0.96231273  0.18243684  0.30890705  1
  O  O3  1  0.23285301  0.18671953  0.80974266  1
  O  O4  1  0.95575466  0.77775551  0.81067328  1
  O  O5  1  0.81596821  0.03603853  0.81066119  1
  O  O6  1  0.79458776  0.96920406  0.69448621  1
  O  O7  1  0.17605768  0.21004008  0.69415030  1
  O  O8  1  0.02871071  0.82570720  0.69456412  1
  O  O9  1  0.77494015  0.82270028  0.19191673  1
  O  O10  1  0.03797659  0.21935803  0.19124171  1
  O  O11  1  0.18362852  0.95530112  0.19266856  1
  O  O12  1  0.87763013  0.36254057  0.64045951  1
  O  O13  1  0.48886168  0.13484479  0.63998319  1
  O  O14  1  0.64247941  0.51340732  0.64009484  1
  O  O15  1  0.86632236  0.51105137  0.13843578  1
  O  O16  1  0.64547110  0.12026387  0.13536457  1
  O  O17  1  0.48603843  0.35398611  0.13860085  1
  O  O18  1  0.44765354  0.29746962  0.02236669  1
  O  O19  1  0.85287629  0.55067718  0.02246844  1
  O  O20  1  0.69107898  0.13520833  0.02910810  1
  O  O21  1  0.46051981  0.15669091  0.52463949  1
  O  O22  1  0.69369595  0.53811775  0.52417241  1
  O  O23  1  0.84709757  0.30287780  0.52548466  1
  O  O24  1  0.54800796  0.68912997  0.97125330  1
  O  O25  1  0.14538458  0.43216668  0.97651061  1
  O  O26  1  0.31298433  0.85685336  0.97897954  1
  O  O27  1  0.55576168  0.84779370  0.47557576  1
  O  O28  1  0.31196006  0.44922962  0.47063740  1
  O  O29  1  0.14486451  0.69502246  0.47665194  1
  O  O30  1  0.12447840  0.63638493  0.36055466  1
  O  O31  1  0.51371675  0.86911113  0.36042788  1
  O  O32  1  0.35482866  0.47546558  0.36435318  1
  O  O33  1  0.13047659  0.48549678  0.86086530  1
  O  O34  1  0.35958106  0.86952939  0.86143000  1
  O  O35  1  0.52175090  0.65109386  0.86470064  1
  O  O36  1  0.02095158  0.83744529  0.41300275  1
  O  O37  1  0.82264585  0.99471390  0.41256971  1
  O  O38  1  0.18711285  0.20556990  0.41259931  1
  O  O39  1  0.00347674  0.17314726  0.91240566  1
  O  O40  1  0.16309232  0.97430953  0.91492610  1
  O  O41  1  0.79110153  0.81594226  0.91283489  1
  O  O42  1  0.97703739  0.16309068  0.58759628  1
  O  O43  1  0.18856018  0.02656242  0.58754906  1
  O  O44  1  0.83468841  0.81123243  0.58718997  1
  O  O45  1  0.97386576  0.81588846  0.08665785  1
  O  O46  1  0.81733806  0.02092169  0.08805700  1
  O  O47  1  0.18120488  0.17402166  0.08660361  1
  O  O48  1  0.68046525  0.16211864  0.74442771  1
  O  O49  1  0.48588138  0.32318535  0.74238461  1
  O  O50  1  0.83647962  0.51862100  0.74452160  1
  O  O51  1  0.67831878  0.51527939  0.24234867  1
  O  O52  1  0.83411811  0.31660743  0.24320999  1
  O  O53  1  0.48728089  0.16183711  0.24278571  1
  O  O54  1  0.63713573  0.51490734  0.91806616  1
  O  O55  1  0.85185771  0.35772752  0.91915454  1
  O  O56  1  0.50317113  0.15007225  0.91864202  1
  O  O57  1  0.63865446  0.14618011  0.41986241  1
  O  O58  1  0.48800153  0.35972662  0.41960246  1
  O  O59  1  0.84707529  0.49945369  0.41997834  1
  O  O60  1  0.36902526  0.51365500  0.08024025  1
  O  O61  1  0.14778306  0.65120970  0.08372081  1
  O  O62  1  0.51706678  0.87029194  0.08036996  1
  O  O63  1  0.35527859  0.85821534  0.58314629  1
  O  O64  1  0.49742907  0.64125282  0.57976139  1
  O  O65  1  0.15034683  0.49628174  0.57872577  1
  O  O66  1  0.32053148  0.83658280  0.25784302  1
  O  O67  1  0.51180942  0.67433956  0.25766864  1
  O  O68  1  0.16581073  0.48175285  0.25676398  1
  O  O69  1  0.31871391  0.48476246  0.75590849  1
  O  O70  1  0.16580860  0.69038877  0.75510102  1
  O  O71  1  0.52058869  0.83007073  0.75620657  1
loop_
_geom_bond_atom_site_label_1
_geom_bond_atom_site_label_2
_geom_bond_distance
_geom_bond_site_symmetry_2
Na0 O53 2.538644 1_555
Na0 O52 2.545811 1_555
Na0 O66 2.613226 1_545
Na0 O67 2.680261 1_545
Na0 O31 2.736100 1_545
Na0 O2 2.878091 1_555
Na0 O9 2.881251 1_545
Na0 O16 2.881668 1_555
Na1 O68 2.532977 1_555
Na1 O67 2.541693 1_555
Na1 O51 2.606536 1_555
Na1 O53 2.678822 1_555
Na1 O17 2.749308 1_555
Na1 O10 2.866205 1_555
Na1 O32 2.884019 1_555
Na1 O0 2.897467 1_555
Na2 O52 2.610936 1_555
Na2 O68 2.614344 1_655
Na2 O66 2.618303 1_655
Na2 O51 2.622301 1_555
Na2 O30 2.787497 1_655
Na2 O15 2.815475 1_555
Na2 O11 2.862732 1_655
Na2 O1 2.869030 1_555
Na3 O49 2.517799 1_555
Na3 O71 2.531917 1_555
Na3 O69 2.568781 1_555
Na3 O50 2.584005 1_555
Na3 O14 2.681638 1_555
Na3 O35 2.920052 1_555
Na3 O6 2.938049 1_555
Na3 O4 2.978350 1_555
Na4 O50 2.558503 1_555
Na4 O48 2.562130 1_555
Na4 O69 2.645645 1_655
Na4 O70 2.677555 1_655
Na4 O12 2.720704 1_555
Na4 O33 2.818221 1_655
Na4 O7 2.945310 1_655
Na4 O5 2.950850 1_555
Na5 O48 2.525409 1_555
Na5 O49 2.561281 1_555
Na5 O70 2.604042 1_545
Na5 O71 2.677762 1_545
Na5 O13 2.743740 1_555
Na5 O34 2.838192 1_545
Na5 O3 2.865973 1_555
Na5 O8 3.019372 1_545
Na6 O64 2.475641 1_555
Na6 O65 2.486491 1_555
Na6 O43 2.552610 1_555
Na6 O42 2.621666 1_455
Na6 O7 2.709307 1_555
Na6 O28 2.819208 1_555
Na7 O63 2.541343 1_555
Na7 O44 2.578395 1_455
Na7 O65 2.578602 1_555
Na7 O29 2.592585 1_555
Na7 O43 2.623286 1_565
Na7 O8 2.832058 1_555
Na8 O63 2.523445 1_555
Na8 O64 2.562015 1_555
Na8 O42 2.582920 1_565
Na8 O44 2.583009 1_555
Na8 O27 2.635810 1_555
Na8 O6 2.818766 1_555
Na9 O45 2.491100 1_455
Na9 O61 2.521390 1_555
Na9 O47 2.564931 1_565
Na9 O26 2.579375 1_554
Na9 O11 2.697591 1_555
Na9 O62 2.720778 1_555
Na10 O45 2.453924 1_555
Na10 O60 2.459962 1_555
Na10 O9 2.615285 1_555
Na10 O46 2.663857 1_565
Na10 O62 2.692278 1_555
Na10 O24 2.897460 1_554
Na10 O17 2.952337 1_555
Na10 O19 2.993357 1_555
Na11 O47 2.394921 1_555
Na11 O61 2.578409 1_555
Na11 O10 2.593268 1_555
Na11 O60 2.597001 1_555
Na11 O46 2.646287 1_455
Na11 O25 2.667723 1_554
Na12 O40 2.474211 1_655
Na12 O55 2.534330 1_555
Na12 O4 2.650344 1_555
Na12 O19 2.662623 1_556
Na12 O41 2.676657 1_555
Na12 O54 2.744557 1_555
Na13 O39 2.407572 1_655
Na13 O5 2.443291 1_555
Na13 O55 2.517996 1_555
Na13 O56 2.521705 1_555
Na13 O41 2.634992 1_545
Na13 O20 2.909965 1_556
Na13 O34 2.995165 1_545
Na14 O40 2.470958 1_545
Na14 O56 2.557834 1_555
Na14 O39 2.580660 1_555
Na14 O18 2.618389 1_556
Na14 O3 2.624840 1_555
Na14 O54 2.672092 1_555
Na14 O25 2.913308 1_555
Na15 O37 2.398761 1_545
Na15 O2 2.519977 1_555
Na15 O57 2.587958 1_555
Na15 O59 2.610622 1_555
Na15 O38 2.627674 1_655
Na15 O23 2.840111 1_555
Na15 O30 2.993979 1_655
Na16 O36 2.472187 1_545
Na16 O57 2.543188 1_555
Na16 O38 2.639577 1_555
Na16 O0 2.672280 1_555
Na16 O58 2.763147 1_555
Na16 O21 2.798055 1_555
Na16 O29 2.950577 1_545
Na16 O31 2.985615 1_545
Na17 O36 2.456565 1_655
Na17 O37 2.535014 1_555
Na17 O59 2.558988 1_555
Na17 O1 2.654010 1_555
Na17 O58 2.698983 1_555
Na17 O22 2.732078 1_555
Na17 O27 2.910105 1_555
Na18 O44 2.498853 1_555
Na18 O36 2.526925 1_655
Na18 O37 2.558482 1_555
Na18 O42 2.605936 1_565
Na18 O43 2.618638 1_665
Na18 O38 2.790787 1_665
Na19 O40 2.428168 1_545
Na19 O47 2.485439 1_556
Na19 O45 2.558615 1_446
Na19 O39 2.564171 1_555
Na19 O46 2.814379 1_456
Na19 O41 2.827763 1_445
Na20 O56 2.514009 1_555
Na20 O48 2.532890 1_555
Na20 O55 2.543169 1_555
Na20 O50 2.623549 1_555
Na20 O49 2.652289 1_555
Na20 O54 2.749070 1_555
Na21 O52 2.534816 1_555
Na21 O57 2.540042 1_555
Na21 O59 2.555096 1_555
Na21 O53 2.638368 1_555
Na21 O51 2.661268 1_555
Na21 O58 2.746547 1_555
Na22 O61 2.467180 1_555
Na22 O60 2.487980 1_555
Na22 O68 2.577694 1_555
Na22 O67 2.691219 1_555
Na22 O66 2.707715 1_555
Na22 O62 2.725724 1_555
Na23 O63 2.467603 1_555
Na23 O64 2.484870 1_555
Na23 O65 2.534144 1_555
Na23 O69 2.681044 1_555
Na23 O71 2.690967 1_555
Na23 O70 2.705456 1_555
In0 O1 2.082222 1_555
In0 O2 2.110598 1_565
In0 O0 2.123962 1_665
In0 O36 2.196458 1_655
In0 O37 2.205107 1_555
In0 O38 2.442335 1_665
In1 O3 2.079994 1_555
In1 O4 2.100340 1_445
In1 O5 2.125755 1_455
In1 O39 2.167034 1_555
In1 O40 2.228283 1_545
In1 O41 2.438091 1_445
In2 O11 2.084473 1_555
In2 O10 2.105762 1_565
In2 O9 2.141552 1_455
In2 O45 2.183523 1_455
In2 O47 2.219903 1_565
In2 O46 2.396837 1_465
In3 O18 2.090426 1_556
In3 O19 2.103561 1_556
In3 O55 2.167505 1_555
In3 O56 2.181774 1_555
In3 O20 2.253976 1_556
In3 O54 2.333923 1_555
In4 O25 2.065631 1_554
In4 O26 2.082461 1_554
In4 O61 2.147107 1_555
In4 O60 2.173751 1_555
In4 O24 2.293077 1_554
In4 O62 2.455587 1_555
In5 O27 2.102024 1_555
In5 O29 2.109126 1_555
In5 O63 2.144055 1_555
In5 O65 2.179454 1_555
In5 O64 2.184266 1_555
In5 O28 2.317860 1_555
O0 Si0 1.629070 1_555
O1 Si1 1.621942 1_555
O2 Si2 1.630949 1_555
O3 Si3 1.625395 1_555
O4 Si4 1.624050 1_555
O5 Si5 1.624722 1_545
O6 Si5 1.645904 1_555
O6 Zr0 2.058036 1_665
O7 Si3 1.650208 1_555
O7 Zr0 2.088165 1_555
O8 Si4 1.638601 1_455
O8 Zr0 2.058597 1_565
O9 Si1 1.628183 1_555
O10 Si2 1.628658 1_455
O11 Si0 1.621379 1_565
O12 Si6 1.631409 1_555
O12 Zr1 2.071039 1_555
O13 Si7 1.634069 1_555
O13 Zr1 2.048421 1_555
O14 Si8 1.635081 1_555
O14 Zr1 2.056715 1_555
O15 Si9 1.653973 1_555
O15 Zr2 2.028170 1_555
O16 S0 1.488409 1_555
O16 Zr2 2.270442 1_555
O17 Si10 1.658376 1_555
O17 Zr2 2.043865 1_555
O18 Si10 1.635514 1_555
O19 Si9 1.636237 1_555
O20 S0 1.479863 1_555
O21 Si7 1.654206 1_555
O21 Zr3 2.053762 1_555
O22 Si8 1.654979 1_555
O22 Zr3 2.050313 1_555
O23 Si6 1.660538 1_555
O23 Zr3 1.991662 1_555
O24 S1 1.482821 1_555
O25 Si11 1.637823 1_555
O26 Si12 1.642322 1_555
O27 Si13 1.627901 1_555
O28 S2 1.473819 1_555
O29 Si14 1.626344 1_555
O30 Si14 1.654732 1_555
O30 Zr4 2.052834 1_555
O31 Si13 1.655280 1_555
O31 Zr4 2.056152 1_555
O32 S2 1.487255 1_555
O32 Zr4 2.275742 1_555
O33 Si11 1.661373 1_555
O33 Zr5 2.057476 1_555
O34 Si12 1.658240 1_555
O34 Zr5 2.042540 1_555
O35 S1 1.484389 1_555
O35 Zr5 2.280024 1_555
O36 Si14 1.645383 1_555
O37 Si13 1.641789 1_555
O38 S2 1.482047 1_555
O39 Si11 1.640820 1_555
O40 Si12 1.647944 1_555
O41 S1 1.476168 1_555
O42 Si6 1.633769 1_555
O42 Zr0 2.143056 1_655
O43 Si7 1.639022 1_555
O43 Zr0 2.155913 1_555
O44 Si8 1.645399 1_555
O44 Zr0 2.183079 1_665
O45 Si9 1.646773 1_555
O46 S0 1.480042 1_555
O47 Si10 1.644013 1_555
O48 Si5 1.646047 1_545
O48 Zr1 2.156067 1_555
O49 Si3 1.638934 1_555
O49 Zr1 2.117664 1_555
O50 Si4 1.634546 1_555
O50 Zr1 2.142503 1_555
O51 Si1 1.660618 1_555
O51 Zr2 2.032263 1_555
O52 Si2 1.655984 1_555
O52 Zr2 2.144833 1_555
O53 Si0 1.645590 1_555
O53 Zr2 2.126571 1_555
O54 S1 1.489436 1_555
O55 Si11 1.655610 1_655
O56 Si12 1.655298 1_545
O57 Si13 1.668959 1_545
O57 Zr3 2.156427 1_555
O58 S2 1.490012 1_555
O58 Zr3 2.392622 1_555
O59 Si14 1.666476 1_655
O59 Zr3 2.152954 1_555
O60 Si10 1.664171 1_555
O61 Si9 1.652714 1_455
O62 S0 1.482007 1_565
O63 Si7 1.632209 1_565
O64 Si8 1.634059 1_555
O65 Si6 1.626796 1_455
O66 Si0 1.660689 1_565
O66 Zr4 2.020389 1_555
O67 Si1 1.647952 1_555
O67 Zr4 2.118414 1_555
O68 Si2 1.657421 1_455
O68 Zr4 2.132702 1_555
O69 Si3 1.650108 1_555
O69 Zr5 2.133749 1_555
O70 Si4 1.660835 1_455
O70 Zr5 2.046449 1_555
O71 Si5 1.651764 1_555
O71 Zr5 2.132230 1_555
