# generated using pymatgen
data_Sr4MgV3O10
_symmetry_space_group_name_H-M   'P 1'
_cell_length_a   3.92290640
_cell_length_b   3.92265808
_cell_length_c   16.00460418
_cell_angle_alpha   96.96938964
_cell_angle_beta   96.97840603
_cell_angle_gamma   89.99627648
_symmetry_Int_Tables_number   1
_chemical_formula_structural   Sr4MgV3O10
_chemical_formula_sum   'Sr4 Mg1 V3 O10'
_cell_volume   242.62472505
_cell_formula_units_Z   1
loop_
 _symmetry_equiv_pos_site_id
 _symmetry_equiv_pos_as_xyz
  1  'x, y, z'
loop_
 _atom_site_type_symbol
 _atom_site_label
 _atom_site_symmetry_multiplicity
 _atom_site_fract_x
 _atom_site_fract_y
 _atom_site_fract_z
 _atom_site_occupancy
  Sr  Sr0  1  0.67918400  0.68026300  0.36175500  1
  Sr  Sr1  1  0.31987600  0.32109700  0.63828000  1
  Sr  Sr2  1  0.55768900  0.55807400  0.11627200  1
  Sr  Sr3  1  0.44165500  0.44211500  0.88363200  1
  Mg  Mg0  1  0.75169800  0.24847500  0.50004300  1
  V  V0  1  0.87647600  0.87682000  0.75248900  1
  V  V1  1  0.12322200  0.12353600  0.24745300  1
  V  V2  1  0.99958200  0.00005500  0.99986700  1
  O  O0  1  0.77992300  0.77765700  0.55792500  1
  O  O1  1  0.22260900  0.22046000  0.44228700  1
  O  O2  1  0.86766700  0.36801100  0.73473200  1
  O  O3  1  0.36923100  0.86958900  0.73781100  1
  O  O4  1  0.13056600  0.63084200  0.26222300  1
  O  O5  1  0.63207500  0.13248700  0.26526700  1
  O  O6  1  0.93925300  0.93973100  0.87854800  1
  O  O7  1  0.49970900  0.00019400  0.00013600  1
  O  O8  1  0.06007700  0.06056300  0.12145200  1
  O  O9  1  0.99951100  0.50003300  0.99982800  1
loop_
_geom_bond_atom_site_label_1
_geom_bond_atom_site_label_2
_geom_bond_distance
_geom_bond_site_symmetry_2
Mg0 O1 2.160889 1_655
Mg0 O0 2.161381 1_545
Mg0 O1 2.164181 1_555
Mg0 O0 2.165138 1_555
O2 V0 1.981138 1_545
O2 V0 1.981283 1_555
O2 Sr1 2.481887 1_555
O2 Sr1 2.481978 1_655
O2 Sr3 3.058772 1_555
O2 Sr3 3.059713 1_655
O3 V0 1.974942 1_555
O3 V0 1.975176 1_455
O3 Sr1 2.509486 1_555
O3 Sr1 2.514261 1_565
O3 Sr3 3.021203 1_555
O3 Sr3 3.022931 1_565
O4 V1 1.975084 1_555
O4 V1 1.975128 1_565
O4 Sr0 2.509792 1_555
O4 Sr0 2.514168 1_455
O4 Sr2 3.022340 1_555
O4 Sr2 3.025076 1_455
O5 V1 1.981369 1_655
O5 V1 1.981553 1_555
O5 Sr0 2.482148 1_545
O5 Sr0 2.482216 1_555
O5 Sr2 3.058667 1_555
O5 Sr2 3.061961 1_545
O6 V2 1.912827 1_565
O6 V0 1.987563 1_555
O6 Sr3 2.774379 1_665
O6 Sr3 2.774853 1_565
O6 Sr3 2.774935 1_655
O6 Sr3 2.775769 1_555
O7 V2 1.961433 1_454
O7 V2 1.961483 1_554
O7 Sr2 2.682124 1_545
O7 Sr2 2.684352 1_555
O7 Sr3 2.686040 1_554
O7 Sr3 2.688361 1_544
O8 V2 1.917021 1_454
O8 V1 1.986650 1_555
O8 Sr2 2.774412 1_445
O8 Sr2 2.774649 1_455
O8 Sr2 2.775227 1_545
O8 Sr2 2.775824 1_555
O9 V2 1.961319 1_555
O9 V2 1.961340 1_565
O9 Sr3 2.683216 1_655
O9 Sr3 2.684732 1_555
O9 Sr2 2.685317 1_556
O9 Sr2 2.687972 1_656
