# generated using pymatgen
data_SrTaNO2
_symmetry_space_group_name_H-M   'P 1'
_cell_length_a   8.11027685
_cell_length_b   5.74745837
_cell_length_c   5.74715899
_cell_angle_alpha   88.80437676
_cell_angle_beta   90.00000000
_cell_angle_gamma   90.00000000
_symmetry_Int_Tables_number   1
_chemical_formula_structural   SrTaNO2
_chemical_formula_sum   'Sr4 Ta4 N4 O8'
_cell_volume   267.83674631
_cell_formula_units_Z   4
loop_
 _symmetry_equiv_pos_site_id
 _symmetry_equiv_pos_as_xyz
  1  'x, y, z'
loop_
 _atom_site_type_symbol
 _atom_site_label
 _atom_site_symmetry_multiplicity
 _atom_site_fract_x
 _atom_site_fract_y
 _atom_site_fract_z
 _atom_site_occupancy
  Sr  Sr0  1  -0.00000000  0.00065786  0.99134147  1
  Sr  Sr1  1  -0.00000000  0.50760726  0.48505645  1
  Sr  Sr2  1  0.50000000  0.51483444  0.49222675  1
  Sr  Sr3  1  0.50000000  0.00850979  0.99945503  1
  Ta  Ta0  1  0.24209591  0.49647981  0.98749745  1
  Ta  Ta1  1  0.75790409  0.49647981  0.98749745  1
  Ta  Ta2  1  0.25787828  0.01246460  0.50349256  1
  Ta  Ta3  1  0.74212172  0.01246460  0.50349256  1
  N  N0  1  0.50000000  0.02662877  0.46252979  1
  N  N1  1  0.24972801  0.25759526  0.74231353  1
  N  N2  1  0.75027199  0.25759526  0.74231353  1
  N  N3  1  0.00000000  0.53786476  0.97380504  1
  O  O0  1  0.50000000  0.46479158  0.04901930  1
  O  O1  1  0.78711872  0.23487284  0.23991475  1
  O  O2  1  0.21288128  0.23487284  0.23991475  1
  O  O3  1  0.25030446  0.73179991  0.26805596  1
  O  O4  1  0.74969554  0.73179991  0.26805596  1
  O  O5  1  -0.00000000  0.95041594  0.53446933  1
  O  O6  1  0.28710257  0.75995788  0.76499066  1
  O  O7  1  0.71289743  0.75995788  0.76499066  1
loop_
_geom_bond_atom_site_label_1
_geom_bond_atom_site_label_2
_geom_bond_distance
_geom_bond_site_symmetry_2
N0 Ta2 1.979208 1_555
N0 Ta3 1.979208 1_555
N0 Sr3 2.665571 1_554
N0 Sr2 2.814680 1_555
N0 Sr2 2.942906 1_545
N0 Sr3 3.085379 1_555
N1 Ta2 1.988436 1_555
N1 Ta0 1.988777 1_555
N1 Sr0 2.871061 1_555
N1 Sr1 2.874747 1_555
N1 Sr3 2.874924 1_555
N1 Sr2 2.878017 1_555
N2 Ta3 1.988436 1_555
N2 Ta1 1.988777 1_555
N2 Sr0 2.871061 1_655
N2 Sr1 2.874747 1_655
N2 Sr3 2.874924 1_555
N2 Sr2 2.878017 1_555
N3 Ta1 1.979187 1_455
N3 Ta0 1.979187 1_555
N3 Sr0 2.663893 1_565
N3 Sr1 2.817913 1_555
N3 Sr1 2.939760 1_556
N3 Sr0 3.087116 1_555
O0 Ta1 2.128520 1_554
O0 Ta0 2.128520 1_554
O0 Sr2 2.569327 1_555
O0 Sr3 2.643788 1_554
O0 Sr3 3.132029 1_564
O0 Sr2 3.206892 1_554
O1 Ta3 1.995261 1_555
O1 Ta1 2.080945 1_554
O1 Sr0 2.629470 1_654
O1 Sr1 2.741371 1_655
O1 Sr3 3.016606 1_554
O1 Sr2 3.195564 1_555
O2 Ta2 1.995261 1_555
O2 Ta0 2.080945 1_554
O2 Sr0 2.629470 1_554
O2 Sr1 2.741371 1_555
O2 Sr3 3.016606 1_554
O2 Sr2 3.195564 1_555
O3 Ta0 2.127100 1_554
O3 Ta2 2.127872 1_565
O3 Sr2 2.692365 1_555
O3 Sr1 2.696233 1_555
O3 Sr3 2.985107 1_564
O3 Sr0 2.989218 1_564
O4 Ta1 2.127100 1_554
O4 Ta3 2.127872 1_565
O4 Sr2 2.692365 1_555
O4 Sr1 2.696233 1_655
O4 Sr3 2.985107 1_564
O4 Sr0 2.989218 1_664
O5 Ta2 2.128485 1_565
O5 Ta3 2.128485 1_465
O5 Sr1 2.566702 1_555
O5 Sr0 2.647530 1_565
O5 Sr0 3.128765 1_564
O5 Sr1 3.209093 1_565
O6 Ta0 1.995219 1_555
O6 Ta2 2.080858 1_565
O6 Sr3 2.630243 1_565
O6 Sr2 2.741488 1_555
O6 Sr0 3.017123 1_565
O6 Sr1 3.195483 1_555
O7 Ta1 1.995219 1_555
O7 Ta3 2.080858 1_565
O7 Sr3 2.630243 1_565
O7 Sr2 2.741488 1_555
O7 Sr0 3.017123 1_665
O7 Sr1 3.195483 1_655
