# generated using pymatgen
data_Cs4MgNb2(AgS4)2
_symmetry_space_group_name_H-M   'P 1'
_cell_length_a   6.14195400
_cell_length_b   7.76088224
_cell_length_c   12.76383750
_cell_angle_alpha   84.52537286
_cell_angle_beta   76.07090869
_cell_angle_gamma   66.69060395
_symmetry_Int_Tables_number   1
_chemical_formula_structural   Cs4MgNb2(AgS4)2
_chemical_formula_sum   'Cs4 Mg1 Nb2 Ag2 S8'
_cell_volume   542.32523725
_cell_formula_units_Z   1
loop_
 _symmetry_equiv_pos_site_id
 _symmetry_equiv_pos_as_xyz
  1  'x, y, z'
loop_
 _atom_site_type_symbol
 _atom_site_label
 _atom_site_symmetry_multiplicity
 _atom_site_fract_x
 _atom_site_fract_y
 _atom_site_fract_z
 _atom_site_occupancy
  Cs  Cs0  1  0.79857300  0.75028800  0.40197500  1
  Cs  Cs1  1  0.44348600  0.74982000  0.11320700  1
  Cs  Cs2  1  0.19827300  0.24990800  0.60254200  1
  Cs  Cs3  1  0.56987400  0.25016200  0.85919900  1
  Mg  Mg0  1  0.00100300  0.24994000  0.99730600  1
  Nb  Nb0  1  0.37851400  0.25004100  0.24203200  1
  Nb  Nb1  1  0.61870900  0.74999300  0.76233300  1
  Ag  Ag0  1  0.11982300  0.75039700  0.76024900  1
  Ag  Ag1  1  0.86655200  0.24959500  0.26591800  1
  S  S0  1  0.88288900  0.53689900  0.87137100  1
  S  S1  1  0.21672800  0.05287500  0.35203400  1
  S  S2  1  0.75674000  0.09034400  0.11853400  1
  S  S3  1  0.43046200  0.44703400  0.35202800  1
  S  S4  1  0.55083300  0.56554600  0.65038500  1
  S  S5  1  0.24543900  0.96290200  0.87151000  1
  S  S6  1  0.12378900  0.40956200  0.11853400  1
  S  S7  1  0.79831200  0.93469300  0.65042600  1
loop_
_geom_bond_atom_site_label_1
_geom_bond_atom_site_label_2
_geom_bond_distance
_geom_bond_site_symmetry_2
Cs0 S1 3.586322 1_565
Cs0 S3 3.588085 1_655
Cs0 S4 3.600064 1_555
Cs0 S7 3.600879 1_555
Cs0 S1 4.026959 1_665
Cs0 S3 4.030950 1_555
Cs1 S5 3.601767 1_554
Cs1 S0 3.602144 1_554
Cs1 S3 3.672180 1_555
Cs1 S1 3.673641 1_565
Cs1 S2 3.848612 1_565
Cs1 S6 3.852077 1_555
Cs1 S6 3.975835 1_655
Cs1 S2 3.981776 1_465
Cs2 S1 3.632640 1_555
Cs2 S3 3.632663 1_555
Cs2 S4 3.686983 1_455
Cs2 S7 3.688431 1_545
Cs2 S0 3.915450 1_455
Cs2 S5 3.916669 1_545
Cs2 S7 4.017529 1_445
Cs2 S4 4.022752 1_555
Cs3 S4 3.433236 1_555
Cs3 S7 3.433660 1_545
Cs3 S5 3.501957 1_545
Cs3 S0 3.502554 1_555
Cs3 Mg0 3.514855 1_555
Cs3 Mg0 3.515996 1_655
Cs3 S6 3.704945 1_556
Cs3 S2 3.705613 1_556
Cs3 S0 3.885784 1_455
Cs3 S5 3.890739 1_645
Mg0 S6 2.482848 1_556
Mg0 S2 2.483227 1_456
Mg0 S0 2.582555 1_455
Mg0 S5 2.582580 1_545
Nb0 S3 2.328422 1_555
Nb0 S1 2.328496 1_555
Nb0 S6 2.397339 1_555
Nb0 S2 2.397635 1_555
Nb1 S7 2.326787 1_555
Nb1 S4 2.326795 1_555
Nb1 S0 2.414363 1_555
Nb1 S5 2.414855 1_555
Ag0 S4 2.573624 1_555
Ag0 S7 2.573915 1_455
Ag0 S5 2.704314 1_555
Ag0 S0 2.709417 1_455
Ag1 S1 2.526691 1_655
Ag1 S3 2.527064 1_555
Ag1 S2 2.689879 1_555
Ag1 S6 2.692970 1_655
