# generated using pymatgen
data_EuPS3
_symmetry_space_group_name_H-M   'P 1'
_cell_length_a   7.55293914
_cell_length_b   6.64483084
_cell_length_c   11.29563194
_cell_angle_alpha   55.65330523
_cell_angle_beta   90.00000000
_cell_angle_gamma   90.00000000
_symmetry_Int_Tables_number   1
_chemical_formula_structural   EuPS3
_chemical_formula_sum   'Eu4 P4 S12'
_cell_volume   468.05891340
_cell_formula_units_Z   4
loop_
 _symmetry_equiv_pos_site_id
 _symmetry_equiv_pos_as_xyz
  1  'x, y, z'
loop_
 _atom_site_type_symbol
 _atom_site_label
 _atom_site_symmetry_multiplicity
 _atom_site_fract_x
 _atom_site_fract_y
 _atom_site_fract_z
 _atom_site_occupancy
  Eu  Eu0  1  0.38408654  0.79181666  0.24980172  1
  Eu  Eu1  1  0.11591346  0.79181666  0.74980172  1
  Eu  Eu2  1  0.88408654  0.20818334  0.25019828  1
  Eu  Eu3  1  0.61591346  0.20818334  0.75019828  1
  P  P0  1  0.60698277  0.86860759  0.56598778  1
  P  P1  1  0.89301723  0.86860759  0.06598778  1
  P  P2  1  0.39301723  0.13139241  0.43401222  1
  P  P3  1  0.10698277  0.13139241  0.93401222  1
  S  S0  1  0.50052826  0.63249439  0.76057370  1
  S  S1  1  -0.00052826  0.63249439  0.26057370  1
  S  S2  1  0.68731850  0.71963913  0.46042853  1
  S  S3  1  0.81268150  0.71963913  0.96042853  1
  S  S4  1  0.80028961  0.08576300  0.55999872  1
  S  S5  1  0.69971039  0.08576300  0.05999872  1
  S  S6  1  0.49947174  0.36750561  0.23942630  1
  S  S7  1  0.00052826  0.36750561  0.73942630  1
  S  S8  1  0.31268150  0.28036087  0.53957147  1
  S  S9  1  0.18731850  0.28036087  0.03957147  1
  S  S10  1  0.30028961  0.91423700  0.94000128  1
  S  S11  1  0.19971039  0.91423700  0.44000128  1
loop_
_geom_bond_atom_site_label_1
_geom_bond_atom_site_label_2
_geom_bond_distance
_geom_bond_site_symmetry_2
Eu0 S6 3.015882 1_555
Eu0 S11 3.031302 1_555
Eu0 S5 3.060918 1_565
Eu0 S1 3.070683 1_555
Eu0 S9 3.112480 1_565
Eu0 S2 3.138201 1_555
Eu0 S8 3.162620 1_555
Eu0 S10 3.177407 1_554
Eu1 S7 3.015882 1_555
Eu1 S10 3.031302 1_555
Eu1 S4 3.060918 1_465
Eu1 S0 3.070683 1_555
Eu1 S8 3.112480 1_565
Eu1 S3 3.138201 1_455
Eu1 S9 3.162620 1_556
Eu1 S11 3.177407 1_555
Eu2 S1 3.015882 1_655
Eu2 S5 3.031302 1_555
Eu2 S11 3.060918 1_645
Eu2 S6 3.070683 1_555
Eu2 S2 3.112480 1_545
Eu2 S9 3.138201 1_655
Eu2 S3 3.162620 1_554
Eu2 S4 3.177407 1_555
Eu3 S0 3.015882 1_555
Eu3 S4 3.031302 1_555
Eu3 S10 3.060918 1_545
Eu3 S7 3.070683 1_655
Eu3 S3 3.112480 1_545
Eu3 S8 3.138201 1_555
Eu3 S2 3.162620 1_555
Eu3 S5 3.177407 1_556
P0 S0 2.011931 1_555
P0 S2 2.025230 1_555
P0 S4 2.026885 1_565
P0 P2 2.223908 1_565
P1 S1 2.011931 1_655
P1 S3 2.025230 1_554
P1 S5 2.026885 1_565
P1 P3 2.223908 1_664
P2 S6 2.011931 1_555
P2 S8 2.025230 1_555
P2 S11 2.026885 1_545
P3 S7 2.011931 1_555
P3 S9 2.025230 1_556
P3 S10 2.026885 1_545
