# generated using pymatgen
data_Gd4B3C4
_symmetry_space_group_name_H-M   'P 1'
_cell_length_a   3.63792419
_cell_length_b   3.66418333
_cell_length_c   12.07995936
_cell_angle_alpha   92.62374786
_cell_angle_beta   99.41418789
_cell_angle_gamma   90.08686325
_symmetry_Int_Tables_number   1
_chemical_formula_structural   Gd4B3C4
_chemical_formula_sum   'Gd4 B3 C4'
_cell_volume   158.68420786
_cell_formula_units_Z   1
loop_
 _symmetry_equiv_pos_site_id
 _symmetry_equiv_pos_as_xyz
  1  'x, y, z'
loop_
 _atom_site_type_symbol
 _atom_site_label
 _atom_site_symmetry_multiplicity
 _atom_site_fract_x
 _atom_site_fract_y
 _atom_site_fract_z
 _atom_site_occupancy
  Gd  Gd0  1  0.21928933  0.98210489  0.34712488  1
  Gd  Gd1  1  0.78071067  0.01789511  0.65287512  1
  Gd  Gd2  1  0.60037520  0.45161279  0.13576322  1
  Gd  Gd3  1  0.39962480  0.54838721  0.86423678  1
  B  B0  1  -0.00000000  -0.00000000  -0.00000000  1
  B  B1  1  0.81401361  0.49556668  0.45077826  1
  B  B2  1  0.18598639  0.50443332  0.54922174  1
  C  C0  1  0.09110284  0.94985003  0.12142895  1
  C  C1  1  0.90889716  0.05014997  0.87857105  1
  C  C2  1  0.70913485  0.47806666  0.32853945  1
  C  C3  1  0.29086515  0.52193334  0.67146055  1
loop_
_geom_bond_atom_site_label_1
_geom_bond_atom_site_label_2
_geom_bond_distance
_geom_bond_site_symmetry_2
B0 C1 1.470068 1_454
B0 C0 1.470068 1_545
B1 C2 1.461881 1_555
B2 C3 1.461881 1_555
C0 Gd2 2.582664 1_455
C0 Gd2 2.584421 1_465
C0 Gd2 2.588108 1_565
C0 Gd2 2.594155 1_555
C0 Gd0 2.686835 1_555
C1 Gd3 2.582664 1_655
C1 Gd3 2.584421 1_645
C1 Gd3 2.588108 1_545
C1 Gd3 2.594155 1_555
C1 Gd1 2.686835 1_555
C2 Gd2 2.294933 1_555
C2 Gd0 2.585920 1_545
C2 Gd0 2.590099 1_645
C2 Gd0 2.592511 1_655
C2 Gd0 2.596132 1_555
C3 Gd3 2.294933 1_555
C3 Gd1 2.585920 1_565
C3 Gd1 2.590099 1_465
C3 Gd1 2.592511 1_455
C3 Gd1 2.596132 1_555
