# generated using pymatgen
data_Na9Ca4Nb8Si3(P5O24)3
_symmetry_space_group_name_H-M   'P 1'
_cell_length_a   9.01027968
_cell_length_b   8.99277613
_cell_length_c   22.94273542
_cell_angle_alpha   89.98865731
_cell_angle_beta   89.99592323
_cell_angle_gamma   119.88738580
_symmetry_Int_Tables_number   1
_chemical_formula_structural   Na9Ca4Nb8Si3(P5O24)3
_chemical_formula_sum   'Na9 Ca4 Nb8 Si3 P15 O72'
_cell_volume   1611.75703667
_cell_formula_units_Z   1
loop_
 _symmetry_equiv_pos_site_id
 _symmetry_equiv_pos_as_xyz
  1  'x, y, z'
loop_
 _atom_site_type_symbol
 _atom_site_label
 _atom_site_symmetry_multiplicity
 _atom_site_fract_x
 _atom_site_fract_y
 _atom_site_fract_z
 _atom_site_occupancy
  Na  Na0  1  0.98463224  0.63181311  0.24310860  1
  Na  Na1  1  0.36885098  0.01725678  0.74348324  1
  Na  Na2  1  0.31986766  0.03018728  0.41095633  1
  Na  Na3  1  0.99104540  0.00464780  0.49626790  1
  Na  Na4  1  0.00101409  0.00156158  0.99520736  1
  Na  Na5  1  0.68138368  0.34652994  0.82534722  1
  Na  Na6  1  0.66639467  0.32938408  0.32408252  1
  Na  Na7  1  0.34060949  0.66803254  0.16595643  1
  Na  Na8  1  0.33336027  0.66088641  0.66534170  1
  Ca  Ca0  1  0.99161526  0.00301201  0.35797420  1
  Ca  Ca1  1  0.99767935  0.00024164  0.85965699  1
  Ca  Ca2  1  0.67222476  0.33575345  0.68000185  1
  Ca  Ca3  1  0.66276148  0.32669955  0.17901332  1
  Nb  Nb0  1  0.00248889  0.00112984  0.64751066  1
  Nb  Nb1  1  0.00078134  -0.00014549  0.14724329  1
  Nb  Nb2  1  0.66895897  0.33740019  0.98131444  1
  Nb  Nb3  1  0.66452282  0.33629108  0.48239727  1
  Nb  Nb4  1  0.33140719  0.66820275  0.02030247  1
  Nb  Nb5  1  0.33152775  0.66326144  0.52057207  1
  Nb  Nb6  1  0.33762351  0.65974329  0.31182806  1
  Nb  Nb7  1  0.33464316  0.66409367  0.81197621  1
  Si  Si0  1  0.36661625  0.03538037  0.58557608  1
  Si  Si1  1  0.96315676  0.63294644  0.08572486  1
  Si  Si2  1  0.34282088  0.37950958  0.41884801  1
  P  P0  1  0.29187541  0.99532009  0.25381375  1
  P  P1  1  0.70586083  0.71164562  0.25043327  1
  P  P2  1  0.00522002  0.29627467  0.25099969  1
  P  P3  1  0.28772901  0.29384068  0.75158410  1
  P  P4  1  0.00444982  0.70956318  0.75273854  1
  P  P5  1  0.70619853  0.99448035  0.75208939  1
  P  P6  1  0.96273852  0.32972661  0.58200394  1
  P  P7  1  0.66964885  0.63439437  0.58272073  1
  P  P8  1  0.67013708  0.03684200  0.08118018  1
  P  P9  1  0.36791892  0.33139934  0.08142842  1
  P  P10  1  0.61189823  0.65377485  0.91891349  1
  P  P11  1  0.04242090  0.38770462  0.91864542  1
  P  P12  1  0.34662369  0.95953405  0.91769265  1
  P  P13  1  0.61235720  0.95547710  0.41900827  1
  P  P14  1  0.04220711  0.65182970  0.41717857  1
  O  O0  1  0.21183614  0.00660542  0.31041623  1
  O  O1  1  0.81175935  0.78950816  0.30405317  1
  O  O2  1  0.98868667  0.19944764  0.30581699  1
  O  O3  1  0.20767213  0.18638231  0.80463798  1
  O  O4  1  0.99314961  0.79624307  0.80656674  1
  O  O5  1  0.80505078  0.01316920  0.80636354  1
  O  O6  1  0.79854107  0.97337277  0.69590058  1
  O  O7  1  0.16871528  0.19887105  0.69553324  1
  O  O8  1  0.02920798  0.83123360  0.69673957  1
  O  O9  1  0.80266827  0.83140397  0.19492406  1
  O  O10  1  0.02458317  0.20232658  0.19517031  1
  O  O11  1  0.16671274  0.97620822  0.19930778  1
  O  O12  1  0.90860045  0.37808268  0.63718126  1
  O  O13  1  0.46301696  0.08724653  0.64564060  1
  O  O14  1  0.62390537  0.52917104  0.63716173  1
  O  O15  1  0.91474668  0.53716180  0.14597375  1
  O  O16  1  0.61821268  0.08821189  0.13628923  1
  O  O17  1  0.47147458  0.37840029  0.13632366  1
  O  O18  1  0.46453462  0.30265263  0.02863460  1
  O  O19  1  0.82734110  0.52186575  0.03054435  1
  O  O20  1  0.69299300  0.16100340  0.02879037  1
  O  O21  1  0.47512867  0.16977737  0.52918703  1
  O  O22  1  0.69666062  0.53593480  0.52953101  1
  O  O23  1  0.84108811  0.30779331  0.52925359  1
  O  O24  1  0.50820058  0.65876154  0.97104974  1
  O  O25  1  0.15223247  0.49222941  0.97107024  1
  O  O26  1  0.34154389  0.84626521  0.96944499  1
  O  O27  1  0.50879742  0.84854358  0.47167327  1
  O  O28  1  0.33547846  0.49269103  0.47214267  1
  O  O29  1  0.15680020  0.66613180  0.46943245  1
  O  O30  1  0.13182015  0.63545386  0.36005762  1
  O  O31  1  0.50047420  0.86746422  0.36278398  1
  O  O32  1  0.36091285  0.49957615  0.35950053  1
  O  O33  1  0.13432252  0.49712123  0.86246914  1
  O  O34  1  0.36292247  0.86882929  0.86067031  1
  O  O35  1  0.50226703  0.63686414  0.86250621  1
  O  O36  1  0.03163029  0.81443234  0.41751601  1
  O  O37  1  0.78603180  0.97115651  0.42060335  1
  O  O38  1  0.18865920  0.18843511  0.42234434  1
  O  O39  1  0.02593836  0.21323408  0.92073674  1
  O  O40  1  0.18774687  0.97418563  0.92033106  1
  O  O41  1  0.78749069  0.80929418  0.92016221  1
  O  O42  1  0.97350816  0.16250768  0.58745435  1
  O  O43  1  0.17558967  0.02247502  0.59132610  1
  O  O44  1  0.83417073  0.81292914  0.58772221  1
  O  O45  1  0.97923108  0.82538368  0.09110245  1
  O  O46  1  0.83809438  0.02813299  0.08712502  1
  O  O47  1  0.18810532  0.16726337  0.08777167  1
  O  O48  1  0.66095084  0.13537609  0.74582645  1
  O  O49  1  0.46625876  0.32195849  0.74248106  1
  O  O50  1  0.86132630  0.52842520  0.74492741  1
  O  O51  1  0.67688927  0.53263910  0.24145612  1
  O  O52  1  0.86270821  0.33897527  0.24539692  1
  O  O53  1  0.47083275  0.14200561  0.24546871  1
  O  O54  1  0.61932675  0.48281415  0.92406552  1
  O  O55  1  0.86436424  0.37904009  0.92445197  1
  O  O56  1  0.51488496  0.13577640  0.92431664  1
  O  O57  1  0.61868646  0.13300584  0.42376668  1
  O  O58  1  0.52532491  0.37467516  0.42465983  1
  O  O59  1  0.86676443  0.48609913  0.42443417  1
  O  O60  1  0.33580944  0.48277095  0.06681256  1
  O  O61  1  0.15615392  0.66945746  0.06752455  1
  O  O62  1  0.52274234  0.85163293  0.06633465  1
  O  O63  1  0.33017147  0.84289679  0.56785587  1
  O  O64  1  0.51855929  0.66621246  0.56846829  1
  O  O65  1  0.14752763  0.47935261  0.56821756  1
  O  O66  1  0.28752427  0.81554959  0.25381467  1
  O  O67  1  0.52778066  0.70822717  0.25509432  1
  O  O68  1  0.18095624  0.47965060  0.25490600  1
  O  O69  1  0.29404314  0.47355185  0.75657481  1
  O  O70  1  0.18522427  0.71160773  0.75553385  1
  O  O71  1  0.52229665  0.81790513  0.75721891  1
loop_
_geom_bond_atom_site_label_1
_geom_bond_atom_site_label_2
_geom_bond_distance
_geom_bond_site_symmetry_2
Na0 O52 2.293759 1_555
Na0 O15 2.356735 1_555
Na0 O66 2.396852 1_655
Na0 O51 2.453776 1_555
Na0 O68 2.736243 1_655
Na0 O11 2.868455 1_655
Na0 O1 2.931585 1_555
Na0 O30 2.986025 1_655
Na1 O48 2.296087 1_555
Na1 O13 2.371081 1_555
Na1 O70 2.415848 1_545
Na1 O49 2.425347 1_555
Na1 O71 2.773935 1_545
Na2 O38 2.273297 1_555
Na2 O36 2.347360 1_545
Na2 O57 2.389509 1_555
Na2 O0 2.471429 1_555
Na3 O38 2.417455 1_655
Na3 O37 2.441865 1_545
Na3 O42 2.577141 1_555
Na3 O44 2.634839 1_545
Na3 O36 2.636047 1_645
Na3 O43 2.698496 1_655
Na4 O39 2.483071 1_555
Na4 O40 2.501017 1_545
Na4 O41 2.518297 1_445
Na4 O46 2.647363 1_456
Na4 O47 2.659052 1_556
Na4 O45 2.660395 1_446
Na5 O50 2.462502 1_555
Na5 O48 2.573151 1_555
Na5 O49 2.644671 1_555
Na5 O55 2.737517 1_555
Na5 O54 2.761914 1_555
Na5 O56 2.857025 1_555
Na6 O53 2.497981 1_555
Na6 O52 2.498529 1_555
Na6 O51 2.601890 1_555
Na6 O58 2.760808 1_555
Na6 O57 2.788493 1_555
Na6 O59 2.830643 1_555
Na7 O67 2.559372 1_555
Na7 O68 2.583299 1_555
Na7 O66 2.585533 1_555
Na7 O60 2.807336 1_555
Na7 O61 2.807854 1_555
Na7 O62 2.817939 1_555
Na8 O69 2.597792 1_555
Na8 O70 2.622620 1_555
Na8 O71 2.634631 1_555
Na8 O64 2.765195 1_555
Na8 O65 2.777010 1_555
Na8 O63 2.779863 1_555
Ca0 O2 2.144474 1_555
Ca0 O1 2.177922 1_545
Ca0 O37 2.246903 1_545
Ca0 O0 2.250466 1_655
Ca0 O38 2.272567 1_655
Ca0 O36 2.341051 1_645
Ca1 O5 2.173080 1_555
Ca1 O4 2.185632 1_545
Ca1 O3 2.194947 1_655
Ca1 O39 2.283064 1_655
Ca1 O41 2.284731 1_545
Ca1 O40 2.307735 1_645
Ca2 O12 2.199485 1_555
Ca2 O14 2.221493 1_555
Ca2 O13 2.229719 1_555
Ca2 O50 2.276682 1_555
Ca2 O49 2.298760 1_555
Ca2 O48 2.313982 1_555
Ca3 O16 2.205556 1_555
Ca3 O17 2.223670 1_555
Ca3 O15 2.242391 1_555
Ca3 O53 2.282535 1_555
Ca3 O51 2.294448 1_555
Ca3 O52 2.319420 1_555
Nb0 O43 1.957629 1_555
Nb0 O7 1.991485 1_555
Nb0 O8 2.008438 1_545
Nb0 O6 2.052848 1_445
Nb0 O42 2.109426 1_455
Nb0 O44 2.118780 1_445
Nb1 O45 1.963573 1_445
Nb1 O9 1.995505 1_445
Nb1 O11 2.006075 1_545
Nb1 O10 2.044992 1_555
Nb1 O47 2.107954 1_555
Nb1 O46 2.118362 1_455
Nb2 O19 1.925036 1_556
Nb2 O20 2.022708 1_556
Nb2 O18 2.023596 1_556
Nb2 O54 2.053619 1_555
Nb2 O55 2.069902 1_555
Nb2 O56 2.101779 1_555
Nb3 O21 1.938873 1_555
Nb3 O58 1.969369 1_555
Nb3 O22 1.989778 1_555
Nb3 O23 2.039302 1_555
Nb3 O59 2.111011 1_555
Nb3 O57 2.137885 1_555
Nb4 O61 1.919611 1_555
Nb4 O26 1.946115 1_554
Nb4 O25 1.959924 1_554
Nb4 O24 1.989013 1_554
Nb4 O62 1.993821 1_555
Nb4 O60 1.996532 1_555
Nb5 O28 1.908863 1_555
Nb5 O63 1.951136 1_555
Nb5 O29 1.973973 1_555
Nb5 O27 1.983119 1_555
Nb5 O65 1.986252 1_555
Nb5 O64 2.000961 1_555
Nb6 O32 1.901453 1_555
Nb6 O68 2.010914 1_555
Nb6 O67 2.018646 1_555
Nb6 O31 2.068489 1_555
Nb6 O30 2.075245 1_555
Nb6 O66 2.137320 1_555
Nb7 O71 2.004636 1_555
Nb7 O35 2.013396 1_555
Nb7 O69 2.015374 1_555
Nb7 O33 2.037769 1_555
Nb7 O34 2.058186 1_555
Nb7 O70 2.060415 1_555
O0 P0 1.513161 1_545
O1 P1 1.499587 1_555
O2 P2 1.494108 1_655
O3 P3 1.496815 1_555
O4 P4 1.490831 1_655
O5 P5 1.491021 1_545
O6 P5 1.596086 1_555
O7 P3 1.618928 1_555
O8 P4 1.629025 1_555
O9 P1 1.614211 1_555
O10 P2 1.591277 1_555
O11 P0 1.634708 1_555
O12 P6 1.497039 1_555
O13 Si0 1.570888 1_555
O14 P7 1.495363 1_555
O15 Si1 1.570956 1_555
O16 P8 1.498806 1_555
O17 P9 1.497602 1_555
O18 P9 1.586190 1_555
O19 Si1 1.697228 1_555
O20 P8 1.582436 1_555
O21 Si0 1.706435 1_555
O22 P7 1.596101 1_555
O23 P6 1.577924 1_555
O24 P10 1.532123 1_555
O25 P11 1.543671 1_555
O26 P12 1.549991 1_555
O27 P13 1.536388 1_555
O28 Si2 1.613372 1_555
O29 P14 1.545237 1_555
O30 P14 1.584143 1_555
O31 P13 1.584948 1_555
O32 Si2 1.694198 1_555
O33 P11 1.581867 1_555
O34 P12 1.586885 1_555
O35 P10 1.588784 1_555
O36 P14 1.512017 1_555
O37 P13 1.500037 1_555
O38 Si2 1.584195 1_555
O39 P11 1.501263 1_555
O40 P12 1.502748 1_555
O41 P10 1.501593 1_555
O42 P6 1.559393 1_555
O43 Si0 1.671616 1_555
O44 P7 1.554523 1_555
O45 Si1 1.667718 1_555
O46 P8 1.559835 1_555
O47 P9 1.562503 1_555
O48 P5 1.518883 1_545
O49 P3 1.513185 1_555
O50 P4 1.501740 1_655
O51 P1 1.511047 1_555
O52 P2 1.517966 1_655
O53 P0 1.502270 1_545
O54 P10 1.576251 1_555
O55 P11 1.572613 1_655
O56 P12 1.561728 1_545
O57 P13 1.572655 1_545
O58 Si2 1.671837 1_555
O59 P14 1.549111 1_655
O60 P9 1.562522 1_555
O61 Si1 1.654378 1_455
O62 P8 1.565144 1_565
O63 Si0 1.644131 1_565
O64 P7 1.558949 1_555
O65 P6 1.565192 1_455
O66 P0 1.597462 1_555
O67 P1 1.593042 1_555
O68 P2 1.622493 1_555
O69 P3 1.592664 1_555
O70 P4 1.621019 1_555
O71 P5 1.630537 1_555
