# generated using pymatgen
data_MgH12(BrO6)2
_symmetry_space_group_name_H-M   'P 1'
_cell_length_a   10.54614500
_cell_length_b   10.54614500
_cell_length_c   10.54614500
_cell_angle_alpha   90.00000000
_cell_angle_beta   90.00000000
_cell_angle_gamma   90.00000000
_symmetry_Int_Tables_number   1
_chemical_formula_structural   MgH12(BrO6)2
_chemical_formula_sum   'Mg4 H48 Br8 O48'
_cell_volume   1172.95463188
_cell_formula_units_Z   4
loop_
 _symmetry_equiv_pos_site_id
 _symmetry_equiv_pos_as_xyz
  1  'x, y, z'
loop_
 _atom_site_type_symbol
 _atom_site_label
 _atom_site_symmetry_multiplicity
 _atom_site_fract_x
 _atom_site_fract_y
 _atom_site_fract_z
 _atom_site_occupancy
  Mg  Mg0  1  0.00000000  0.00000000  0.00000000  1
  Mg  Mg1  1  0.50000000  0.00000000  0.50000000  1
  Mg  Mg2  1  0.50000000  0.50000000  0.00000000  1
  Mg  Mg3  1  0.00000000  0.50000000  0.50000000  1
  H  H0  1  0.25880300  0.03058400  0.42610600  1
  H  H1  1  0.75880300  0.46941600  0.57389400  1
  H  H2  1  0.74119700  0.53058400  0.07389400  1
  H  H3  1  0.46941600  0.57389400  0.75880300  1
  H  H4  1  0.07389400  0.74119700  0.53058400  1
  H  H5  1  0.57389400  0.75880300  0.46941600  1
  H  H6  1  0.03058400  0.42610600  0.25880300  1
  H  H7  1  0.42610600  0.25880300  0.03058400  1
  H  H8  1  0.53058400  0.07389400  0.74119700  1
  H  H9  1  0.96941600  0.92610600  0.24119700  1
  H  H10  1  0.92610600  0.24119700  0.96941600  1
  H  H11  1  0.24119700  0.96941600  0.92610600  1
  H  H12  1  0.25880300  0.46941600  0.92610600  1
  H  H13  1  0.53058400  0.42610600  0.24119700  1
  H  H14  1  0.92610600  0.25880300  0.46941600  1
  H  H15  1  0.42610600  0.24119700  0.53058400  1
  H  H16  1  0.96941600  0.57389400  0.74119700  1
  H  H17  1  0.57389400  0.74119700  0.96941600  1
  H  H18  1  0.46941600  0.92610600  0.25880300  1
  H  H19  1  0.03058400  0.07389400  0.75880300  1
  H  H20  1  0.07389400  0.75880300  0.03058400  1
  H  H21  1  0.75880300  0.03058400  0.07389400  1
  H  H22  1  0.57888500  0.03169900  0.25471600  1
  H  H23  1  0.07888500  0.46830100  0.74528400  1
  H  H24  1  0.42111500  0.53169900  0.24528400  1
  H  H25  1  0.46830100  0.74528400  0.07888500  1
  H  H26  1  0.24528400  0.42111500  0.53169900  1
  H  H27  1  0.74528400  0.07888500  0.46830100  1
  H  H28  1  0.03169900  0.25471600  0.57888500  1
  H  H29  1  0.25471600  0.57888500  0.03169900  1
  H  H30  1  0.53169900  0.24528400  0.42111500  1
  H  H31  1  0.96830100  0.75471600  0.92111500  1
  H  H32  1  0.75471600  0.92111500  0.96830100  1
  H  H33  1  0.92111500  0.96830100  0.75471600  1
  H  H34  1  0.42111500  0.96830100  0.74528400  1
  H  H35  1  0.92111500  0.53169900  0.25471600  1
  H  H36  1  0.57888500  0.46830100  0.75471600  1
  H  H37  1  0.53169900  0.25471600  0.92111500  1
  H  H38  1  0.75471600  0.57888500  0.46830100  1
  H  H39  1  0.25471600  0.92111500  0.53169900  1
  H  H40  1  0.96830100  0.74528400  0.42111500  1
  H  H41  1  0.74528400  0.42111500  0.96830100  1
  H  H42  1  0.46830100  0.75471600  0.57888500  1
  H  H43  1  0.03169900  0.24528400  0.07888500  1
  H  H44  1  0.24528400  0.07888500  0.03169900  1
  H  H45  1  0.07888500  0.03169900  0.24528400  1
  H  H46  1  0.74119700  0.96941600  0.57389400  1
  H  H47  1  0.24119700  0.53058400  0.42610600  1
  Br  Br0  1  0.24761300  0.74761300  0.75238700  1
  Br  Br1  1  0.75238700  0.24761300  0.74761300  1
  Br  Br2  1  0.74761300  0.75238700  0.24761300  1
  Br  Br3  1  0.25238700  0.25238700  0.25238700  1
  Br  Br4  1  0.74761300  0.74761300  0.74761300  1
  Br  Br5  1  0.75238700  0.25238700  0.24761300  1
  Br  Br6  1  0.24761300  0.75238700  0.25238700  1
  Br  Br7  1  0.25238700  0.24761300  0.75238700  1
  O  O0  1  0.95981500  0.03585900  0.80785900  1
  O  O1  1  0.80785900  0.95981500  0.03585900  1
  O  O2  1  0.03585900  0.80785900  0.95981500  1
  O  O3  1  0.46414100  0.19214100  0.45981500  1
  O  O4  1  0.30785900  0.54018500  0.96414100  1
  O  O5  1  0.96414100  0.30785900  0.54018500  1
  O  O6  1  0.95981500  0.46414100  0.30785900  1
  O  O7  1  0.19214100  0.45981500  0.46414100  1
  O  O8  1  0.53585900  0.69214100  0.04018500  1
  O  O9  1  0.45981500  0.46414100  0.19214100  1
  O  O10  1  0.04018500  0.53585900  0.69214100  1
  O  O11  1  0.54018500  0.96414100  0.30785900  1
  O  O12  1  0.54018500  0.53585900  0.80785900  1
  O  O13  1  0.46414100  0.30785900  0.95981500  1
  O  O14  1  0.80785900  0.54018500  0.53585900  1
  O  O15  1  0.30785900  0.95981500  0.46414100  1
  O  O16  1  0.03585900  0.69214100  0.45981500  1
  O  O17  1  0.69214100  0.45981500  0.03585900  1
  O  O18  1  0.53585900  0.80785900  0.54018500  1
  O  O19  1  0.96414100  0.19214100  0.04018500  1
  O  O20  1  0.19214100  0.04018500  0.96414100  1
  O  O21  1  0.04018500  0.96414100  0.19214100  1
  O  O22  1  0.67098600  0.13973000  0.16735900  1
  O  O23  1  0.17098600  0.36027000  0.83264100  1
  O  O24  1  0.32901400  0.63973000  0.33264100  1
  O  O25  1  0.36027000  0.83264100  0.17098600  1
  O  O26  1  0.33264100  0.32901400  0.63973000  1
  O  O27  1  0.83264100  0.17098600  0.36027000  1
  O  O28  1  0.13973000  0.16735900  0.67098600  1
  O  O29  1  0.16735900  0.67098600  0.13973000  1
  O  O30  1  0.63973000  0.33264100  0.32901400  1
  O  O31  1  0.86027000  0.66735900  0.82901400  1
  O  O32  1  0.66735900  0.82901400  0.86027000  1
  O  O33  1  0.82901400  0.86027000  0.66735900  1
  O  O34  1  0.32901400  0.86027000  0.83264100  1
  O  O35  1  0.82901400  0.63973000  0.16735900  1
  O  O36  1  0.67098600  0.36027000  0.66735900  1
  O  O37  1  0.63973000  0.16735900  0.82901400  1
  O  O38  1  0.66735900  0.67098600  0.36027000  1
  O  O39  1  0.16735900  0.82901400  0.63973000  1
  O  O40  1  0.86027000  0.83264100  0.32901400  1
  O  O41  1  0.83264100  0.32901400  0.86027000  1
  O  O42  1  0.36027000  0.66735900  0.67098600  1
  O  O43  1  0.13973000  0.33264100  0.17098600  1
  O  O44  1  0.33264100  0.17098600  0.13973000  1
  O  O45  1  0.17098600  0.13973000  0.33264100  1
  O  O46  1  0.45981500  0.03585900  0.69214100  1
  O  O47  1  0.69214100  0.04018500  0.53585900  1
loop_
_geom_bond_atom_site_label_1
_geom_bond_atom_site_label_2
_geom_bond_distance
_geom_bond_site_symmetry_2
Mg0 O20 2.104448 1_554
Mg0 O19 2.104448 1_455
Mg0 O21 2.104448 1_545
Mg0 O0 2.104448 1_454
Mg0 O2 2.104448 1_544
Mg0 O1 2.104448 1_445
Mg1 O3 2.104448 1_555
Mg1 O46 2.104448 1_555
Mg1 O18 2.104448 1_545
Mg1 O47 2.104448 1_555
Mg1 O11 2.104448 1_545
Mg1 O15 2.104448 1_545
Mg2 O9 2.104448 1_555
Mg2 O17 2.104448 1_555
Mg2 O8 2.104448 1_555
Mg2 O12 2.104448 1_554
Mg2 O4 2.104448 1_554
Mg2 O13 2.104448 1_554
Mg3 O7 2.104448 1_555
Mg3 O16 2.104448 1_555
Mg3 O10 2.104448 1_555
Mg3 O14 2.104448 1_455
Mg3 O5 2.104448 1_455
Mg3 O6 2.104448 1_455
H0 O15 0.992762 1_545
H1 O14 0.992762 1_555
H2 O17 0.992762 1_555
H3 O12 0.992762 1_555
H4 O16 0.992762 1_555
H5 O18 0.992762 1_555
H6 O6 0.992762 1_455
H7 O13 0.992762 1_554
H8 O46 0.992762 1_555
H9 O21 0.992762 1_655
H10 O19 0.992762 1_556
H11 O20 0.992762 1_565
H12 O4 0.992762 1_555
H13 O9 0.992762 1_555
H14 O5 0.992762 1_555
H15 O3 0.992762 1_555
H16 O10 0.992762 1_655
H17 O8 0.992762 1_556
H18 O11 0.992762 1_555
H19 O0 0.992762 1_455
H20 O2 0.992762 1_554
H21 O1 0.992762 1_545
H22 O11 0.994136 1_545
H23 O10 0.994136 1_555
H24 O9 0.994136 1_555
H25 O8 0.994136 1_555
H26 O7 0.994136 1_555
H27 O47 0.994136 1_555
H28 O5 0.994136 1_455
H29 O4 0.994136 1_554
H30 O3 0.994136 1_555
H31 O2 0.994136 1_655
H32 O1 0.994136 1_556
H33 O0 0.994136 1_565
H34 O46 0.994136 1_565
H35 O6 0.994136 1_555
H36 O12 0.994136 1_555
H37 O13 0.994136 1_555
H38 O14 0.994136 1_555
H39 O15 0.994136 1_555
H40 O16 0.994136 1_655
H41 O17 0.994136 1_556
H42 O18 0.994136 1_555
H43 O19 0.994136 1_455
H44 O20 0.994136 1_554
H45 O21 0.994136 1_545
H46 O47 0.992762 1_565
H47 O7 0.992762 1_555
Br0 O39 1.692596 1_555
Br0 O42 1.692596 1_555
Br0 O34 1.692596 1_555
Br1 O37 1.692596 1_555
Br1 O36 1.692596 1_555
Br1 O41 1.692596 1_555
Br2 O35 1.692596 1_555
Br2 O38 1.692596 1_555
Br2 O40 1.692596 1_555
Br3 O45 1.692596 1_555
Br3 O44 1.692596 1_555
Br3 O43 1.692596 1_555
Br4 O33 1.692596 1_555
Br4 O32 1.692596 1_555
Br4 O31 1.692596 1_555
Br5 O30 1.692596 1_555
Br5 O22 1.692596 1_555
Br5 O27 1.692596 1_555
Br6 O24 1.692596 1_555
Br6 O29 1.692596 1_555
Br6 O25 1.692596 1_555
Br7 O26 1.692596 1_555
Br7 O28 1.692596 1_555
Br7 O23 1.692596 1_555
