# generated using pymatgen
data_Ce(CoB)4
_symmetry_space_group_name_H-M   'P 1'
_cell_length_a   5.04371900
_cell_length_b   5.04371900
_cell_length_c   7.03329000
_cell_angle_alpha   90.00000000
_cell_angle_beta   90.00000000
_cell_angle_gamma   90.00000000
_symmetry_Int_Tables_number   1
_chemical_formula_structural   Ce(CoB)4
_chemical_formula_sum   'Ce2 Co8 B8'
_cell_volume   178.92057714
_cell_formula_units_Z   2
loop_
 _symmetry_equiv_pos_site_id
 _symmetry_equiv_pos_as_xyz
  1  'x, y, z'
loop_
 _atom_site_type_symbol
 _atom_site_label
 _atom_site_symmetry_multiplicity
 _atom_site_fract_x
 _atom_site_fract_y
 _atom_site_fract_z
 _atom_site_occupancy
  Ce  Ce0  1  0.50000000  0.50000000  0.00000000  1
  Ce  Ce1  1  0.00000000  0.00000000  0.50000000  1
  Co  Co0  1  0.74786200  0.50000000  0.63751800  1
  Co  Co1  1  0.25213800  0.50000000  0.63751800  1
  Co  Co2  1  0.50000000  0.74786200  0.36248200  1
  Co  Co3  1  0.75213800  0.00000000  0.86248200  1
  Co  Co4  1  0.24786200  0.00000000  0.86248200  1
  Co  Co5  1  0.00000000  0.75213800  0.13751800  1
  Co  Co6  1  0.00000000  0.24786200  0.13751800  1
  Co  Co7  1  0.50000000  0.25213800  0.36248200  1
  B  B0  1  0.50000000  0.82678300  0.65823500  1
  B  B1  1  0.67321700  0.00000000  0.15823500  1
  B  B2  1  0.32678300  0.00000000  0.15823500  1
  B  B3  1  0.00000000  0.67321700  0.84176500  1
  B  B4  1  0.00000000  0.32678300  0.84176500  1
  B  B5  1  0.50000000  0.17321700  0.65823500  1
  B  B6  1  0.82678300  0.50000000  0.34176500  1
  B  B7  1  0.17321700  0.50000000  0.34176500  1
loop_
_geom_bond_atom_site_label_1
_geom_bond_atom_site_label_2
_geom_bond_distance
_geom_bond_site_symmetry_2
Ce0 Co2 2.839457 1_555
Ce0 Co7 2.839457 1_555
Ce0 Co0 2.839457 1_554
Ce0 Co1 2.839457 1_554
Ce0 Co6 2.985383 1_555
Ce0 Co6 2.985383 1_655
Ce0 Co5 2.985383 1_555
Ce0 Co3 2.985383 1_564
Ce0 Co4 2.985383 1_564
Ce0 Co5 2.985383 1_655
Ce0 Co4 2.985383 1_554
Ce0 Co3 2.985383 1_554
Ce1 Co6 2.839457 1_555
Ce1 Co3 2.839457 1_455
Ce1 Co4 2.839457 1_555
Ce1 Co5 2.839457 1_545
Ce1 Co1 2.985383 1_545
Ce1 Co1 2.985383 1_555
Ce1 Co0 2.985383 1_445
Ce1 Co0 2.985383 1_455
Ce1 Co7 2.985383 1_555
Ce1 Co7 2.985383 1_455
Ce1 Co2 2.985383 1_445
Ce1 Co2 2.985383 1_545
B0 B5 1.747316 1_565
B0 Co0 2.073805 1_555
B0 Co1 2.073805 1_555
B0 Co3 2.108114 1_565
B0 Co4 2.108114 1_565
B0 Co2 2.117861 1_555
B0 Ce1 2.891648 1_665
B0 Ce1 2.891648 1_565
B0 Ce0 2.914532 1_556
B1 B2 1.747316 1_555
B1 Co6 2.073805 1_655
B1 Co5 2.073805 1_645
B1 Co7 2.108114 1_555
B1 Co2 2.108114 1_545
B1 Co3 2.117861 1_554
B1 Ce0 2.891648 1_555
B1 Ce0 2.891648 1_545
B1 Ce1 2.914532 1_655
B2 Co6 2.073805 1_555
B2 Co5 2.073805 1_545
B2 Co7 2.108114 1_555
B2 Co2 2.108114 1_545
B2 Co4 2.117861 1_554
B2 Ce0 2.891648 1_555
B2 Ce0 2.891648 1_545
B2 Ce1 2.914532 1_555
B3 B4 1.747316 1_555
B3 Co4 2.073805 1_565
B3 Co3 2.073805 1_465
B3 Co1 2.108114 1_555
B3 Co0 2.108114 1_455
B3 Co5 2.117861 1_556
B3 Ce0 2.891648 1_556
B3 Ce0 2.891648 1_456
B3 Ce1 2.914532 1_565
B4 Co3 2.073805 1_455
B4 Co4 2.073805 1_555
B4 Co1 2.108114 1_555
B4 Co0 2.108114 1_455
B4 Co6 2.117861 1_556
B4 Ce0 2.891648 1_556
B4 Ce0 2.891648 1_456
B4 Ce1 2.914532 1_555
B5 Co0 2.073805 1_555
B5 Co1 2.073805 1_555
B5 Co4 2.108114 1_555
B5 Co3 2.108114 1_555
B5 Co7 2.117861 1_555
B5 Ce1 2.891648 1_555
B5 Ce1 2.891648 1_655
B5 Ce0 2.914532 1_556
B6 B7 1.747316 1_655
B6 Co2 2.073805 1_555
B6 Co7 2.073805 1_555
B6 Co5 2.108114 1_655
B6 Co6 2.108114 1_655
B6 Co0 2.117861 1_555
B6 Ce1 2.891648 1_665
B6 Ce1 2.891648 1_655
B6 Ce0 2.914532 1_555
B7 Co2 2.073805 1_555
B7 Co7 2.073805 1_555
B7 Co5 2.108114 1_555
B7 Co6 2.108114 1_555
B7 Co1 2.117861 1_555
B7 Ce1 2.891648 1_565
B7 Ce1 2.891648 1_555
B7 Ce0 2.914532 1_555
