# generated using pymatgen
data_K2Na2Pr2MgNb2O10
_symmetry_space_group_name_H-M   'P 1'
_cell_length_a   5.95256176
_cell_length_b   5.82244405
_cell_length_c   8.79039903
_cell_angle_alpha   90.00000000
_cell_angle_beta   83.29382915
_cell_angle_gamma   90.00000000
_symmetry_Int_Tables_number   1
_chemical_formula_structural   K2Na2Pr2MgNb2O10
_chemical_formula_sum   'K2 Na2 Pr2 Mg1 Nb2 O10'
_cell_volume   302.57720219
_cell_formula_units_Z   1
loop_
 _symmetry_equiv_pos_site_id
 _symmetry_equiv_pos_as_xyz
  1  'x, y, z'
loop_
 _atom_site_type_symbol
 _atom_site_label
 _atom_site_symmetry_multiplicity
 _atom_site_fract_x
 _atom_site_fract_y
 _atom_site_fract_z
 _atom_site_occupancy
  K  K0  1  0.86583890  0.25000000  0.07809153  1
  K  K1  1  0.24197783  0.75000000  0.01278376  1
  Na  Na0  1  0.14947923  0.25000000  0.71259986  1
  Na  Na1  1  0.76182314  0.75000000  0.23527582  1
  Pr  Pr0  1  0.22004286  0.75000000  0.48373062  1
  Pr  Pr1  1  0.77947630  0.25000000  0.47262261  1
  Mg  Mg0  1  0.51728736  0.25000000  0.84802366  1
  Nb  Nb0  1  0.70944445  0.75000000  0.74798593  1
  Nb  Nb1  1  0.30356838  0.25000000  0.27104660  1
  O  O0  1  0.50506872  0.48287188  0.34362972  1
  O  O1  1  0.46610487  0.98322400  0.71461106  1
  O  O2  1  0.50506872  0.01712812  0.34362972  1
  O  O3  1  0.46610487  0.51677600  0.71461106  1
  O  O4  1  0.04663203  0.49135658  0.30116257  1
  O  O5  1  0.31437161  0.25000000  0.04246124  1
  O  O6  1  0.74855088  0.75000000  0.95622692  1
  O  O7  1  0.04663203  0.00864342  0.30116257  1
  O  O8  1  0.92626392  0.52702235  0.63595337  1
  O  O9  1  0.92626392  0.97297765  0.63595337  1
loop_
_geom_bond_atom_site_label_1
_geom_bond_atom_site_label_2
_geom_bond_distance
_geom_bond_site_symmetry_2
K0 O5 2.651652 1_655
K0 O7 2.733299 1_655
K0 O4 2.733299 1_655
K0 O6 3.207004 1_554
K0 O6 3.207004 1_544
K1 O5 2.958923 1_555
K1 O5 2.958923 1_565
K1 O6 2.998286 1_554
K1 O6 3.035636 1_454
K1 O4 3.059014 1_555
K1 O7 3.059014 1_565
K1 O1 3.110807 1_554
K1 O3 3.110807 1_554
Na0 O8 2.242783 1_455
Na0 O9 2.242783 1_445
Na0 O1 2.443976 1_545
Na0 O3 2.443976 1_555
Na1 O2 2.306976 1_565
Na1 O0 2.306976 1_555
Na1 O4 2.388890 1_655
Na1 O7 2.388890 1_665
Na1 O6 2.463427 1_554
Mg0 O5 1.974358 1_556
Mg0 O3 1.991060 1_555
Mg0 O1 1.991060 1_545
Nb0 O6 1.872036 1_555
Nb0 O8 2.006052 1_555
Nb0 O9 2.006052 1_555
Nb0 O1 2.031610 1_555
Nb0 O3 2.031610 1_555
Nb1 O2 1.965428 1_555
Nb1 O0 1.965428 1_555
Nb1 O5 2.002865 1_555
Nb1 O4 2.071111 1_555
Nb1 O7 2.071111 1_555
O0 Pr1 2.494957 1_555
O0 Pr0 2.515220 1_555
O1 Pr0 2.966918 1_555
O2 Pr1 2.494957 1_555
O2 Pr0 2.515220 1_545
O3 Pr0 2.966918 1_555
O4 Pr1 2.493114 1_455
O4 Pr0 2.509143 1_555
O7 Pr1 2.493114 1_455
O7 Pr0 2.509143 1_545
O8 Pr1 2.391529 1_555
O8 Pr0 2.446956 1_655
O9 Pr1 2.391529 1_565
O9 Pr0 2.446956 1_655
