# generated using pymatgen
data_Rb2MgNi2W2(OF)6
_symmetry_space_group_name_H-M   'P 1'
_cell_length_a   7.24290651
_cell_length_b   7.57105119
_cell_length_c   7.80641108
_cell_angle_alpha   57.84321752
_cell_angle_beta   65.92976926
_cell_angle_gamma   64.61517092
_symmetry_Int_Tables_number   1
_chemical_formula_structural   Rb2MgNi2W2(OF)6
_chemical_formula_sum   'Rb2 Mg1 Ni2 W2 O6 F6'
_cell_volume   318.25215955
_cell_formula_units_Z   1
loop_
 _symmetry_equiv_pos_site_id
 _symmetry_equiv_pos_as_xyz
  1  'x, y, z'
loop_
 _atom_site_type_symbol
 _atom_site_label
 _atom_site_symmetry_multiplicity
 _atom_site_fract_x
 _atom_site_fract_y
 _atom_site_fract_z
 _atom_site_occupancy
  Rb  Rb0  1  0.27970320  0.48440694  0.43865461  1
  Rb  Rb1  1  0.55003960  0.60843513  0.82175556  1
  Mg  Mg0  1  0.73844214  0.74527160  0.25020192  1
  Ni  Ni0  1  0.95431651  0.01949944  0.50560958  1
  Ni  Ni1  1  0.50964815  0.07062600  0.89622432  1
  W  W0  1  0.01315716  0.01170938  0.96896224  1
  W  W1  1  0.00921096  0.49009089  0.98534384  1
  O  O0  1  0.04239039  0.67972896  0.08601196  1
  O  O1  1  0.97683358  0.73022869  0.72645742  1
  O  O2  1  0.71604975  0.04160625  0.00951176  1
  O  O3  1  0.02385681  0.25874535  0.24835304  1
  O  O4  1  0.29677816  0.94383273  0.95717225  1
  O  O5  1  0.95481121  0.32135595  0.88581196  1
  F  F0  1  0.06700567  0.09824624  0.66005554  1
  F  F1  1  0.49957535  0.71417228  0.46067302  1
  F  F2  1  0.32482070  0.37078603  0.86350410  1
  F  F3  1  0.69103300  0.60817246  0.11488000  1
  F  F4  1  0.64356033  0.13653418  0.60204147  1
  F  F5  1  0.91412433  0.90762249  0.29556140  1
loop_
_geom_bond_atom_site_label_1
_geom_bond_atom_site_label_2
_geom_bond_distance
_geom_bond_site_symmetry_2
Mg0 O2 2.009864 1_565
Mg0 O0 2.043100 1_655
Ni0 O3 1.911198 1_655
Ni0 O1 1.923341 1_545
Ni1 O2 1.911868 1_556
Ni1 O4 1.925997 1_545
O0 W1 2.094674 1_554
O0 W0 2.110440 1_564
O0 Rb0 3.172781 1_555
O1 W1 1.885367 1_655
O1 Rb0 3.202177 1_655
O2 W0 1.971090 1_654
O3 W1 1.866786 1_554
O4 W0 1.866405 1_565
O4 Rb1 2.865726 1_555
O4 Rb0 3.509191 1_556
O5 W0 1.962240 1_655
O5 W1 2.031959 1_655
O5 Rb1 2.853885 1_555
O5 Rb0 3.232566 1_655
F0 W0 2.041221 1_555
F0 Ni0 2.111956 1_455
F0 Rb0 3.196729 1_555
F1 Mg0 1.834916 1_555
F1 Rb1 2.628188 1_555
F1 Rb0 2.916936 1_555
F2 Ni1 2.018509 1_555
F2 W1 2.077656 1_555
F2 Rb1 2.731863 1_555
F2 Rb0 3.074472 1_555
F3 Mg0 2.019887 1_555
F3 W1 2.104190 1_654
F3 Rb1 2.859806 1_554
F3 Rb0 3.142015 1_555
F4 Ni1 1.960075 1_555
F4 Ni0 2.008930 1_555
F4 Rb0 2.953582 1_555
F5 W0 2.118958 1_664
F5 Mg0 2.329637 1_555
F5 Ni0 2.360107 1_565
F5 Rb0 3.139129 1_655
