# generated using pymatgen
data_Na3ScIn(PO4)3
_symmetry_space_group_name_H-M   'P 1'
_cell_length_a   15.76486001
_cell_length_b   9.08651758
_cell_length_c   9.08837646
_cell_angle_alpha   90.03804390
_cell_angle_beta   125.09577450
_cell_angle_gamma   89.99739623
_symmetry_Int_Tables_number   1
_chemical_formula_structural   Na3ScIn(PO4)3
_chemical_formula_sum   'Na12 Sc4 In4 P12 O48'
_cell_volume   1065.19485193
_cell_formula_units_Z   4
loop_
 _symmetry_equiv_pos_site_id
 _symmetry_equiv_pos_as_xyz
  1  'x, y, z'
loop_
 _atom_site_type_symbol
 _atom_site_label
 _atom_site_symmetry_multiplicity
 _atom_site_fract_x
 _atom_site_fract_y
 _atom_site_fract_z
 _atom_site_occupancy
  Na  Na0  1  0.24372588  0.77566744  0.99493127  1
  Na  Na1  1  0.74343425  0.72214106  0.49741931  1
  Na  Na2  1  0.74388252  0.27732490  0.99681237  1
  Na  Na3  1  0.24234975  0.21912345  0.49561258  1
  Na  Na4  1  0.50158743  0.10889964  0.74931333  1
  Na  Na5  1  0.50178930  0.89171379  0.24555684  1
  Na  Na6  1  0.00262517  0.61093456  0.74980029  1
  Na  Na7  1  0.00107892  0.38916287  0.24464319  1
  Na  Na8  1  0.81015164  0.93657740  0.21231959  1
  Na  Na9  1  0.81158890  0.06488210  0.71451115  1
  Na  Na10  1  0.30658282  0.43554359  0.20673237  1
  Na  Na11  1  0.31046213  0.56097860  0.71645971  1
  Sc  Sc0  1  0.89806827  0.74992474  0.94304170  1
  Sc  Sc1  1  0.89781136  0.24996396  0.44159933  1
  Sc  Sc2  1  0.10283607  0.24142057  0.05198798  1
  Sc  Sc3  1  0.39787896  0.24952193  0.94331030  1
  In  In0  1  0.10214998  0.75864880  0.54960064  1
  In  In1  1  0.60189356  0.25832125  0.54901958  1
  In  In2  1  0.39891685  0.74889856  0.44266069  1
  In  In3  1  0.60208893  0.74142672  0.04924443  1
  P  P0  1  0.99822959  0.95092625  0.74276357  1
  P  P1  1  -0.00015350  0.05135632  0.24608269  1
  P  P2  1  0.49740679  0.44565329  0.74276089  1
  P  P3  1  0.49900129  0.55158835  0.24482236  1
  P  P4  1  0.35407652  0.89765670  0.75791594  1
  P  P5  1  0.65156063  0.90047870  0.74353877  1
  P  P6  1  0.65099081  0.10059876  0.24540126  1
  P  P7  1  0.35519135  0.10323810  0.26005070  1
  P  P8  1  0.85600911  0.39703970  0.75701214  1
  P  P9  1  0.14930143  0.39826884  0.74418772  1
  P  P10  1  0.15059668  0.59983646  0.24588654  1
  P  P11  1  0.85532928  0.60332966  0.25922867  1
  O  O0  1  0.15766757  0.57022792  0.74671286  1
  O  O1  1  0.84889286  0.56755767  0.75352176  1
  O  O2  1  0.84855406  0.43309318  0.25380351  1
  O  O3  1  0.15800835  0.42905934  0.23791111  1
  O  O4  1  0.66127524  0.07180651  0.74478642  1
  O  O5  1  0.34553752  0.06747392  0.75974300  1
  O  O6  1  0.34793678  0.93274487  0.24792193  1
  O  O7  1  0.66036268  0.92929533  0.24368897  1
  O  O8  1  0.42826472  0.53621449  0.56765765  1
  O  O9  1  0.55920273  0.54380097  0.90964433  1
  O  O10  1  0.55988626  0.46168939  0.41939726  1
  O  O11  1  0.43901839  0.45258384  0.07581199  1
  O  O12  1  0.93349642  0.04270747  0.56776437  1
  O  O13  1  0.05578691  0.05499669  0.90652908  1
  O  O14  1  0.06654032  0.96163497  0.41988219  1
  O  O15  1  0.93553915  0.95049673  0.07907507  1
  O  O16  1  0.26367463  0.81864489  0.74766736  1
  O  O17  1  0.74522491  0.83397697  0.75313032  1
  O  O18  1  0.74292635  0.16797857  0.25033028  1
  O  O19  1  0.26009623  0.17385559  0.24147716  1
  O  O20  1  0.76502775  0.32243584  0.74946104  1
  O  O21  1  0.24315994  0.33466331  0.75160176  1
  O  O22  1  0.24038734  0.66775000  0.24413760  1
  O  O23  1  0.76289161  0.67703490  0.24747064  1
  O  O24  1  0.35807428  0.85914935  0.59680163  1
  O  O25  1  0.65429899  0.86618048  0.91362510  1
  O  O26  1  0.65760365  0.13313383  0.41991173  1
  O  O27  1  0.36439386  0.15773329  0.10824422  1
  O  O28  1  0.85868722  0.34710705  0.59651166  1
  O  O29  1  0.15265801  0.35782353  0.91356543  1
  O  O30  1  0.15959709  0.63088052  0.42273331  1
  O  O31  1  0.86168544  0.65440248  0.10331198  1
  O  O32  1  0.45406344  0.84447672  0.93620840  1
  O  O33  1  0.55080937  0.84593322  0.56896957  1
  O  O34  1  0.54719662  0.15564640  0.07740424  1
  O  O35  1  0.45325401  0.15309706  0.44348282  1
  O  O36  1  0.95782840  0.34568046  0.93317256  1
  O  O37  1  0.04683700  0.34388905  0.57194382  1
  O  O38  1  0.04638260  0.65762452  0.08080176  1
  O  O39  1  0.95408923  0.65548611  0.44060248  1
  O  O40  1  0.07730781  0.84593256  0.74750056  1
  O  O41  1  0.91994786  0.85264837  0.75256549  1
  O  O42  1  0.91925203  0.14838967  0.25093664  1
  O  O43  1  0.07297107  0.15838964  0.23592094  1
  O  O44  1  0.57556715  0.34111870  0.74397714  1
  O  O45  1  0.41970467  0.34610388  0.75260093  1
  O  O46  1  0.41422309  0.64703437  0.23977881  1
  O  O47  1  0.57576578  0.65936836  0.24607321  1
loop_
_geom_bond_atom_site_label_1
_geom_bond_atom_site_label_2
_geom_bond_distance
_geom_bond_site_symmetry_2
Na0 O40 2.359084 1_555
Na0 O6 2.382243 1_556
Na0 O16 2.472908 1_555
Na0 O22 2.496807 1_556
Na0 O46 2.582250 1_556
Na0 O0 2.624827 1_555
Na1 O47 2.363394 1_555
Na1 O1 2.389347 1_555
Na1 O23 2.494467 1_555
Na1 O17 2.521081 1_555
Na1 O41 2.665257 1_555
Na1 O7 2.666218 1_555
Na2 O44 2.376442 1_555
Na2 O2 2.396972 1_556
Na2 O20 2.489114 1_555
Na2 O18 2.517761 1_556
Na2 O4 2.644668 1_555
Na2 O42 2.647857 1_556
Na3 O43 2.399305 1_555
Na3 O5 2.412759 1_555
Na3 O19 2.514725 1_555
Na3 O21 2.545127 1_555
Na3 O45 2.662969 1_555
Na3 O3 2.704995 1_555
Na4 O44 2.424938 1_555
Na4 O35 2.456343 1_555
Na4 O45 2.521276 1_555
Na4 O5 2.543829 1_555
Na4 O4 2.563568 1_555
Na4 O34 2.668637 1_556
Na4 O24 2.929206 1_545
Na4 O25 2.959720 1_545
Na5 O47 2.410564 1_555
Na5 O6 2.466210 1_555
Na5 O32 2.494142 1_554
Na5 O7 2.532829 1_555
Na5 O46 2.601578 1_555
Na5 O33 2.607561 1_555
Na6 O40 2.444333 1_555
Na6 O1 2.474781 1_455
Na6 O39 2.484965 1_455
Na6 O0 2.488089 1_555
Na6 O41 2.561386 1_455
Na6 O38 2.705108 1_556
Na7 O43 2.406404 1_555
Na7 O2 2.485580 1_455
Na7 O36 2.532457 1_454
Na7 O3 2.535717 1_555
Na7 O42 2.557154 1_455
Na7 O37 2.659360 1_555
Na8 O18 2.466453 1_565
Na8 O42 2.467978 1_565
Na8 O25 2.478613 1_554
Na8 O7 2.536938 1_555
Na8 O23 2.548287 1_555
Na8 O12 2.814178 1_565
Na8 O15 2.853533 1_555
Na9 O26 2.444280 1_555
Na9 O17 2.458315 1_545
Na9 O41 2.465356 1_545
Na9 O20 2.526559 1_555
Na9 O4 2.538649 1_555
Na9 O15 2.904500 1_546
Na9 O12 2.908576 1_555
Na10 O29 2.459532 1_554
Na10 O22 2.462368 1_555
Na10 O46 2.465007 1_555
Na10 O3 2.516577 1_555
Na10 O19 2.560886 1_555
Na10 O8 2.834971 1_555
Na10 O11 2.942039 1_555
Na10 O27 2.989798 1_555
Na11 O21 2.418126 1_555
Na11 O30 2.426456 1_555
Na11 O45 2.497204 1_555
Na11 O16 2.519058 1_555
Na11 O0 2.578067 1_555
Na11 O11 2.852505 1_556
Na11 O8 2.866368 1_555
In0 O14 2.085363 1_555
In0 O39 2.156023 1_455
In0 O30 2.167110 1_555
In0 O16 2.179390 1_555
In0 O40 2.196670 1_555
In0 O0 2.259980 1_555
In1 O10 2.084905 1_555
In1 O26 2.150640 1_555
In1 O44 2.172904 1_555
In1 O35 2.177072 1_555
In1 O20 2.209872 1_555
In1 O4 2.236691 1_555
In2 O24 2.101416 1_555
In2 O8 2.153563 1_555
In2 O33 2.160352 1_555
In2 O46 2.196388 1_555
In2 O22 2.204165 1_555
In2 O6 2.221968 1_555
In3 O9 2.074167 1_554
In3 O32 2.149942 1_554
In3 O25 2.156426 1_554
In3 O23 2.182669 1_555
In3 O47 2.187138 1_555
In3 O7 2.238376 1_555
O0 P9 1.567114 1_555
O1 P8 1.552493 1_555
O1 Sc0 2.185076 1_555
O2 P11 1.549343 1_555
O2 Sc1 2.182794 1_555
O3 P10 1.560919 1_555
O3 Sc2 2.196592 1_555
O4 P5 1.563690 1_545
O5 P4 1.549809 1_545
O5 Sc3 2.148024 1_555
O6 P7 1.552583 1_565
O7 P6 1.564454 1_565
O8 P2 1.550754 1_555
O9 P2 1.531022 1_555
O10 P3 1.535049 1_555
O11 P3 1.546255 1_555
O11 Sc3 2.091496 1_554
O12 P0 1.549784 1_545
O12 Sc1 2.106863 1_555
O13 P0 1.542097 1_445
O13 Sc2 2.009195 1_556
O14 P1 1.535266 1_565
O15 P1 1.549294 1_665
O15 Sc0 2.087168 1_554
O16 P4 1.550031 1_555
O17 P5 1.550831 1_555
O17 Sc0 2.141877 1_555
O18 P6 1.550116 1_555
O18 Sc1 2.157900 1_555
O19 P7 1.548153 1_555
O19 Sc2 2.140291 1_555
O20 P8 1.551878 1_555
O21 P9 1.553483 1_555
O21 Sc3 2.167582 1_555
O22 P10 1.552666 1_555
O23 P11 1.550650 1_555
O24 P4 1.541400 1_555
O25 P5 1.553196 1_555
O26 P6 1.556589 1_555
O27 P7 1.549457 1_555
O27 Sc3 2.032937 1_554
O28 P8 1.550918 1_555
O28 Sc1 2.034353 1_555
O29 P9 1.553898 1_555
O29 Sc2 2.111006 1_556
O30 P10 1.555674 1_555
O31 P11 1.548396 1_555
O31 Sc0 2.041184 1_554
O32 P4 1.551695 1_555
O33 P5 1.544968 1_555
O34 P6 1.544985 1_555
O34 Sc3 2.111028 1_554
O35 P7 1.552395 1_555
O36 P8 1.550297 1_555
O36 Sc2 2.109992 1_656
O37 P9 1.547692 1_555
O37 Sc1 2.109457 1_455
O38 P10 1.546772 1_555
O38 Sc0 2.091155 1_454
O39 P11 1.553626 1_555
O40 P0 1.550615 1_455
O41 P0 1.566850 1_555
O41 Sc0 2.162354 1_555
O42 P1 1.567787 1_655
O42 Sc1 2.154087 1_555
O43 P1 1.551126 1_555
O43 Sc2 2.119439 1_555
O44 P2 1.550767 1_555
O45 P2 1.566184 1_555
O45 Sc3 2.140207 1_555
O46 P3 1.571636 1_555
O47 P3 1.551792 1_555
