# generated using pymatgen
data_Na2La6Nb2Si3(S3O16)3
_symmetry_space_group_name_H-M   'P 1'
_cell_length_a   18.74051785
_cell_length_b   9.38244300
_cell_length_c   24.74997013
_cell_angle_alpha   89.90701785
_cell_angle_beta   90.16811455
_cell_angle_gamma   120.19713607
_symmetry_Int_Tables_number   1
_chemical_formula_structural   Na2La6Nb2Si3(S3O16)3
_chemical_formula_sum   'Na6 La18 Nb6 Si9 S27 O144'
_cell_volume   3761.27260116
_cell_formula_units_Z   3
loop_
 _symmetry_equiv_pos_site_id
 _symmetry_equiv_pos_as_xyz
  1  'x, y, z'
loop_
 _atom_site_type_symbol
 _atom_site_label
 _atom_site_symmetry_multiplicity
 _atom_site_fract_x
 _atom_site_fract_y
 _atom_site_fract_z
 _atom_site_occupancy
  Na  Na0  1  -0.00002376  0.98929053  0.49922819  1
  Na  Na1  1  0.50251838  0.01316026  0.99659182  1
  Na  Na2  1  0.34035375  0.33581142  0.83458469  1
  Na  Na3  1  0.83940640  0.35767163  0.82989846  1
  Na  Na4  1  0.33999604  0.32346971  0.33613986  1
  Na  Na5  1  0.84063145  0.34308565  0.34275123  1
  La  La0  1  0.00691646  0.98595962  0.36049309  1
  La  La1  1  0.50544722  0.02376972  0.85731514  1
  La  La2  1  0.00172417  0.99515999  0.64927185  1
  La  La3  1  0.50240497  0.00811188  0.15002550  1
  La  La4  1  0.32451572  0.34061885  0.68005710  1
  La  La5  1  0.84130545  0.33739709  0.68431073  1
  La  La6  1  0.34789781  0.34356285  0.18894102  1
  La  La7  1  0.82269949  0.30555942  0.18038705  1
  La  La8  1  0.33395200  0.33276812  0.98174809  1
  La  La9  1  0.84123435  0.33425043  0.98395220  1
  La  La10  1  0.34214396  0.34986754  0.48521613  1
  La  La11  1  0.82689390  0.32349558  0.48555528  1
  La  La12  1  0.16004268  0.65914041  0.01815798  1
  La  La13  1  0.66147184  0.67557586  0.52301796  1
  La  La14  1  0.16027188  0.67220235  0.31280781  1
  La  La15  1  0.66835803  0.66287415  0.30785727  1
  La  La16  1  0.16815221  0.67540039  0.80606813  1
  La  La17  1  0.65912054  0.64661477  0.81064157  1
  Nb  Nb0  1  0.49096745  0.00397294  0.35587631  1
  Nb  Nb1  1  0.99089866  0.97767057  0.85340143  1
  Nb  Nb2  1  0.49738051  0.98830269  0.64369400  1
  Nb  Nb3  1  0.99424509  0.00056653  0.14669896  1
  Nb  Nb4  1  0.67768112  0.66940131  0.01258751  1
  Nb  Nb5  1  0.17592826  0.68456788  0.51385095  1
  Si  Si0  1  0.49496166  0.27949450  0.25487644  1
  Si  Si1  1  0.99258411  0.70345590  0.75379855  1
  Si  Si2  1  0.68228341  0.04042620  0.58751479  1
  Si  Si3  1  0.32969826  0.63901091  0.58220520  1
  Si  Si4  1  0.82975761  0.02132677  0.08231247  1
  Si  Si5  1  0.81337090  0.66580417  0.91372775  1
  Si  Si6  1  0.52307225  0.37862078  0.92123610  1
  Si  Si7  1  0.31247106  0.96191000  0.41490364  1
  Si  Si8  1  0.02066212  0.66022077  0.42131643  1
  S  S0  1  0.14127320  0.00583475  0.24361324  1
  S  S1  1  0.64363290  0.00958358  0.25655978  1
  S  S2  1  0.35962220  0.71405388  0.25606765  1
  S  S3  1  0.86190535  0.71754619  0.24509196  1
  S  S4  1  0.99885917  0.27572467  0.24585228  1
  S  S5  1  0.14324768  0.27660661  0.75699877  1
  S  S6  1  0.64155331  0.27800166  0.74416696  1
  S  S7  1  0.49815874  0.72146456  0.74635690  1
  S  S8  1  0.36115667  0.00865480  0.74595047  1
  S  S9  1  0.86026583  0.00576290  0.75668293  1
  S  S10  1  0.48109706  0.31451598  0.58867072  1
  S  S11  1  0.99409063  0.34906973  0.57843904  1
  S  S12  1  0.18346087  0.02056073  0.57802253  1
  S  S13  1  0.83456228  0.63605362  0.58210170  1
  S  S14  1  0.49209151  0.63725308  0.07885901  1
  S  S15  1  0.98223306  0.64888032  0.08876338  1
  S  S16  1  0.33290275  0.03218396  0.08231440  1
  S  S17  1  0.17659600  0.31652052  0.08843226  1
  S  S18  1  0.68354579  0.34656019  0.07780987  1
  S  S19  1  0.31463228  0.66810185  0.91706899  1
  S  S20  1  0.01928360  0.35676000  0.91126053  1
  S  S21  1  0.15870344  0.96461850  0.91254750  1
  S  S22  1  0.66629738  0.94852038  0.92076779  1
  S  S23  1  0.81571066  0.96322128  0.41579013  1
  S  S24  1  0.16718370  0.38402394  0.42081223  1
  S  S25  1  0.65883596  0.35255218  0.41196283  1
  S  S26  1  0.51792099  0.68176180  0.41019138  1
  O  O0  1  0.10642901  0.02540532  0.29506005  1
  O  O1  1  0.59521723  0.01784268  0.30233632  1
  O  O2  1  0.41395215  0.80954902  0.30347442  1
  O  O3  1  0.90891460  0.79209693  0.29517302  1
  O  O4  1  0.48956526  0.15474404  0.30757926  1
  O  O5  1  0.98907480  0.18019777  0.29513298  1
  O  O6  1  0.09392372  0.17082619  0.80311977  1
  O  O7  1  0.60554519  0.18838882  0.79594425  1
  O  O8  1  0.48917742  0.79758403  0.79605204  1
  O  O9  1  0.98942787  0.82264329  0.80750699  1
  O  O10  1  0.40689165  0.02692524  0.79725387  1
  O  O11  1  0.91498806  0.01553043  0.80442784  1
  O  O12  1  0.40772202  0.99824133  0.69894295  1
  O  O13  1  0.89777506  0.99369805  0.70599820  1
  O  O14  1  0.10168738  0.21051822  0.70461050  1
  O  O15  1  0.58754348  0.17994167  0.69822859  1
  O  O16  1  0.00296453  0.81052715  0.70035532  1
  O  O17  1  0.50007090  0.82214834  0.69774610  1
  O  O18  1  0.39685048  0.80115834  0.20507216  1
  O  O19  1  0.91106580  0.82481697  0.19730437  1
  O  O20  1  0.00120189  0.17600464  0.19685380  1
  O  O21  1  0.50248636  0.19586039  0.19997541  1
  O  O22  1  0.08726503  0.99720860  0.19733546  1
  O  O23  1  0.60229745  0.99288171  0.20389146  1
  O  O24  1  0.43973049  0.34340421  0.63440375  1
  O  O25  1  0.95928213  0.37547053  0.62866231  1
  O  O26  1  0.23007493  0.08865795  0.62872526  1
  O  O27  1  0.74091525  0.13021458  0.63907278  1
  O  O28  1  0.30959947  0.52289735  0.63536618  1
  O  O29  1  0.82911633  0.54304729  0.63146260  1
  O  O30  1  0.45487622  0.53954429  0.12919683  1
  O  O31  1  0.94173740  0.53773802  0.13472001  1
  O  O32  1  0.32543103  0.11363540  0.13134998  1
  O  O33  1  0.81118884  0.09596959  0.13608630  1
  O  O34  1  0.23195930  0.34731280  0.13463547  1
  O  O35  1  0.73024317  0.37192038  0.12869017  1
  O  O36  1  0.20647141  0.27623613  0.03928189  1
  O  O37  1  0.72584799  0.31970474  0.03231716  1
  O  O38  1  0.43351089  0.55344779  0.03341018  1
  O  O39  1  0.93238233  0.58944531  0.03919688  1
  O  O40  1  0.34245613  0.13307392  0.03392025  1
  O  O41  1  0.85782819  0.14594832  0.03200480  1
  O  O42  1  0.22545563  0.13125440  0.53214245  1
  O  O43  1  0.71455039  0.14979432  0.53325513  1
  O  O44  1  0.35541362  0.56728177  0.53147455  1
  O  O45  1  0.84598461  0.55740225  0.53353840  1
  O  O46  1  0.43122275  0.27669851  0.53893712  1
  O  O47  1  0.93649661  0.31563154  0.53259148  1
  O  O48  1  0.27217584  0.68040535  0.96651892  1
  O  O49  1  0.76416203  0.68775425  0.96918254  1
  O  O50  1  0.06584655  0.42727903  0.96283935  1
  O  O51  1  0.58738282  0.49942499  0.97172097  1
  O  O52  1  0.14495377  0.86642383  0.96251204  1
  O  O53  1  0.66341017  0.84639201  0.96896266  1
  O  O54  1  0.26350849  0.84113990  0.46946879  1
  O  O55  1  0.77507783  0.86704030  0.46498260  1
  O  O56  1  0.16353615  0.47873406  0.46851388  1
  O  O57  1  0.64399286  0.41771303  0.46150957  1
  O  O58  1  0.08685784  0.67249609  0.47116654  1
  O  O59  1  0.56305630  0.70728692  0.46140184  1
  O  O60  1  0.06097968  0.64933507  0.36445534  1
  O  O61  1  0.56110188  0.65673198  0.36484665  1
  O  O62  1  0.26046904  0.87061843  0.36212615  1
  O  O63  1  0.76885310  0.87809143  0.36668919  1
  O  O64  1  0.17397644  0.46927669  0.36954505  1
  O  O65  1  0.67149542  0.46013351  0.36523606  1
  O  O66  1  0.06235953  0.47009080  0.86636367  1
  O  O67  1  0.56024925  0.47299003  0.86467972  1
  O  O68  1  0.17381506  0.88522156  0.86644837  1
  O  O69  1  0.67338546  0.87657119  0.87000759  1
  O  O70  1  0.26794624  0.65776737  0.86807824  1
  O  O71  1  0.75848594  0.64929487  0.86239493  1
  O  O72  1  0.01929962  0.83566332  0.42469768  1
  O  O73  1  0.51016777  0.83154652  0.39910820  1
  O  O74  1  0.40630605  0.97186709  0.40246971  1
  O  O75  1  0.89987254  0.98284276  0.41373990  1
  O  O76  1  0.08975222  0.21971152  0.42149313  1
  O  O77  1  0.58256787  0.18328929  0.40082757  1
  O  O78  1  0.01189386  0.19271001  0.90164834  1
  O  O79  1  0.51880111  0.19909400  0.92501011  1
  O  O80  1  0.08320147  0.97932886  0.90234623  1
  O  O81  1  0.58899668  0.95669875  0.92202625  1
  O  O82  1  0.39847972  0.81656410  0.91620623  1
  O  O83  1  0.90638953  0.84295532  0.90157060  1
  O  O84  1  0.49021675  0.16671939  0.60162290  1
  O  O85  1  0.00416345  0.20182546  0.58433469  1
  O  O86  1  0.09912844  0.99600550  0.58230454  1
  O  O87  1  0.58595201  0.01247933  0.60449647  1
  O  O88  1  0.41080097  0.82379355  0.60305227  1
  O  O89  1  0.90814876  0.80632928  0.58425676  1
  O  O90  1  0.50121730  0.80364805  0.08434162  1
  O  O91  1  0.99356037  0.81706089  0.10240193  1
  O  O92  1  0.40653423  0.01197727  0.08500947  1
  O  O93  1  0.91211188  0.99857051  0.10421239  1
  O  O94  1  0.09109560  0.16751843  0.10195130  1
  O  O95  1  0.59925192  0.20165538  0.08233216  1
  O  O96  1  0.34976612  0.15385839  0.74123174  1
  O  O97  1  0.85729930  0.15976344  0.75861172  1
  O  O98  1  0.22553605  0.28671890  0.75697830  1
  O  O99  1  0.72469433  0.29813918  0.74063766  1
  O  O100  1  0.42465648  0.55284905  0.74107833  1
  O  O101  1  0.90931293  0.52611632  0.75728310  1
  O  O102  1  0.35478368  0.55059417  0.25591671  1
  O  O103  1  0.85193979  0.55269582  0.23784067  1
  O  O104  1  0.41049389  0.29094945  0.25638663  1
  O  O105  1  0.92560538  0.29537473  0.23862080  1
  O  O106  1  0.22423633  0.15399951  0.23772604  1
  O  O107  1  0.72653793  0.16446136  0.25567178  1
  O  O108  1  0.32160345  0.51739827  0.91987041  1
  O  O109  1  0.83269398  0.52067577  0.92642936  1
  O  O110  1  0.42993154  0.35312463  0.92700888  1
  O  O111  1  0.93552813  0.33567814  0.91612970  1
  O  O112  1  0.23015175  0.13366276  0.91848585  1
  O  O113  1  0.73849047  0.11668232  0.92661637  1
  O  O114  1  0.33274561  0.14744943  0.42544718  1
  O  O115  1  0.82342015  0.12867606  0.41700426  1
  O  O116  1  0.23908163  0.35973589  0.42599155  1
  O  O117  1  0.73024304  0.32620010  0.41523036  1
  O  O118  1  0.43338132  0.53603331  0.41380540  1
  O  O119  1  0.92773181  0.50207437  0.42558601  1
  O  O120  1  0.16309172  0.45722985  0.07914981  1
  O  O121  1  0.67721269  0.49769226  0.06748436  1
  O  O122  1  0.06559319  0.67350682  0.07996269  1
  O  O123  1  0.57288495  0.65072652  0.06861347  1
  O  O124  1  0.25788448  0.86745381  0.07612209  1
  O  O125  1  0.75196204  0.83977840  0.06395428  1
  O  O126  1  0.17678063  0.85598910  0.56801536  1
  O  O127  1  0.66330293  0.85368329  0.57722335  1
  O  O128  1  0.25166114  0.66424033  0.56338297  1
  O  O129  1  0.75962048  0.64825811  0.57658725  1
  O  O130  1  0.07595041  0.49746699  0.56741414  1
  O  O131  1  0.56415670  0.45535279  0.58061054  1
  O  O132  1  0.14565576  0.85413477  0.24419589  1
  O  O133  1  0.65528898  0.86632437  0.26170066  1
  O  O134  1  0.27791436  0.69532853  0.26176347  1
  O  O135  1  0.78258396  0.71265675  0.24509006  1
  O  O136  1  0.07532660  0.43423953  0.24421969  1
  O  O137  1  0.57561708  0.45625028  0.26401949  1
  O  O138  1  0.15480546  0.44285206  0.76257241  1
  O  O139  1  0.64591787  0.43903678  0.74505318  1
  O  O140  1  0.07529675  0.69629762  0.76423889  1
  O  O141  1  0.57434513  0.71418622  0.74628954  1
  O  O142  1  0.28032062  0.85547776  0.74792330  1
  O  O143  1  0.77927227  0.85975815  0.76305426  1
loop_
_geom_bond_atom_site_label_1
_geom_bond_atom_site_label_2
_geom_bond_distance
_geom_bond_site_symmetry_2
Na0 O72 2.479728 1_555
Na0 O89 2.715661 1_455
Na0 O86 2.746757 1_555
Na0 O76 2.748195 1_565
Na0 O75 2.804055 1_455
Na0 O85 2.876575 1_565
Na1 O79 2.394328 1_555
Na1 O81 2.682789 1_545
Na1 O82 2.744716 1_545
Na1 O95 2.771597 1_556
Na1 O92 2.833288 1_556
Na1 O90 2.918851 1_546
Na2 O98 2.740998 1_555
Na2 O110 2.789539 1_555
Na2 O108 2.846047 1_555
Na2 O112 2.871688 1_555
Na2 O96 2.932912 1_555
Na2 O100 2.961153 1_555
Na3 O101 2.316435 1_555
Na3 O97 2.704395 1_555
Na3 O111 2.862229 1_555
Na3 O109 2.875752 1_555
Na3 O99 2.929550 1_555
Na4 O104 2.481450 1_555
Na4 O118 2.686418 1_555
Na4 O114 2.719514 1_555
Na4 O102 2.820568 1_555
Na5 O119 2.575582 1_555
Na5 O115 2.620502 1_555
Na5 O117 2.685861 1_555
Na5 O107 2.899205 1_555
La0 O72 2.210711 1_555
La0 O0 2.357758 1_565
La0 O75 2.391286 1_455
La0 O3 2.434498 1_455
La0 O76 2.464001 1_565
La0 O5 2.578780 1_465
La1 O79 2.273334 1_555
La1 O7 2.303510 1_555
La1 O10 2.379223 1_555
La1 O82 2.451541 1_545
La1 O8 2.500491 1_545
La1 O81 2.527038 1_545
La2 O16 2.152474 1_555
La2 O14 2.377865 1_565
La2 O89 2.381329 1_455
La2 O13 2.399038 1_455
La2 O86 2.466256 1_555
La2 O85 2.499227 1_565
La3 O21 2.153071 1_555
La3 O23 2.357148 1_545
La3 O18 2.383874 1_545
La3 O92 2.422203 1_555
La3 O95 2.468026 1_555
La3 O90 2.508070 1_545
La4 O28 2.167811 1_555
La4 O24 2.428361 1_555
La4 O100 2.449870 1_555
La4 O26 2.474410 1_555
La4 O98 2.528815 1_555
La4 O96 2.531420 1_555
La5 O27 2.210785 1_555
La5 O101 2.397530 1_555
La5 O29 2.432988 1_555
La5 O99 2.461991 1_555
La5 O25 2.476813 1_555
La5 O97 2.595879 1_555
La6 O104 2.230394 1_555
La6 O106 2.419714 1_555
La6 O30 2.426335 1_555
La6 O32 2.440407 1_555
La6 O102 2.508911 1_555
La6 O34 2.566745 1_555
La7 O33 2.166700 1_555
La7 O105 2.444218 1_555
La7 O107 2.466542 1_555
La7 O35 2.469129 1_555
La7 O31 2.473410 1_555
La7 O103 2.535115 1_555
La8 O110 2.185215 1_555
La8 O40 2.344039 1_556
La8 O38 2.347669 1_556
La8 O108 2.406727 1_555
La8 O112 2.461997 1_555
La8 O36 2.599877 1_556
La9 O41 2.275123 1_556
La9 O109 2.320375 1_555
La9 O37 2.417700 1_556
La9 O113 2.434672 1_555
La9 O111 2.436003 1_555
La9 O39 2.530392 1_556
La10 O44 2.242618 1_555
La10 O114 2.344623 1_555
La10 O42 2.415199 1_555
La10 O116 2.459770 1_555
La10 O118 2.470140 1_555
La10 O46 2.482502 1_555
La11 O43 2.244795 1_555
La11 O119 2.324800 1_555
La11 O45 2.360257 1_555
La11 O47 2.391189 1_555
La11 O115 2.472586 1_555
La11 O117 2.517633 1_555
La12 O124 2.372511 1_555
La12 O48 2.383788 1_554
La12 O122 2.397420 1_555
La12 O50 2.419837 1_554
La12 O120 2.443339 1_555
La12 O52 2.510244 1_554
La13 O127 2.131398 1_555
La13 O129 2.380253 1_555
La13 O131 2.417050 1_555
La13 O55 2.446471 1_555
La13 O59 2.519887 1_555
La13 O57 2.736788 1_555
La14 O60 2.180368 1_555
La14 O62 2.226874 1_555
La14 O134 2.457229 1_555
La14 O64 2.478700 1_555
La14 O132 2.516083 1_555
La14 O136 2.611852 1_555
La15 O137 2.136005 1_555
La15 O133 2.338875 1_555
La15 O65 2.396212 1_555
La15 O63 2.431547 1_555
La15 O61 2.435751 1_555
La15 O135 2.495041 1_555
La16 O140 2.114326 1_555
La16 O138 2.332181 1_555
La16 O142 2.404471 1_555
La16 O68 2.432796 1_555
La16 O66 2.456537 1_555
La16 O70 2.484758 1_555
La17 O67 2.201543 1_555
La17 O71 2.246767 1_555
La17 O143 2.436127 1_555
La17 O139 2.452063 1_555
La17 O69 2.512595 1_555
La17 O141 2.541230 1_555
Nb0 O4 1.860745 1_555
Nb0 O74 1.861908 1_545
Nb0 O77 2.026009 1_555
Nb0 O2 2.107364 1_545
Nb0 O73 2.114064 1_545
Nb0 O1 2.312718 1_555
Nb1 O9 1.836169 1_555
Nb1 O83 1.876067 1_555
Nb1 O11 2.028788 1_565
Nb1 O80 2.102521 1_655
Nb1 O78 2.204062 1_665
Nb1 O6 2.246713 1_665
Nb2 O87 1.837875 1_565
Nb2 O88 1.871628 1_555
Nb2 O84 2.030779 1_565
Nb2 O17 2.072293 1_555
Nb2 O15 2.201832 1_565
Nb2 O12 2.207542 1_555
Nb3 O93 1.853875 1_545
Nb3 O20 2.014236 1_655
Nb3 O94 2.029951 1_655
Nb3 O19 2.033894 1_545
Nb3 O91 2.037235 1_545
Nb3 O22 2.157041 1_645
Nb4 O49 1.881289 1_554
Nb4 O51 1.926242 1_554
Nb4 O125 1.966509 1_555
Nb4 O121 2.102463 1_555
Nb4 O53 2.105747 1_554
Nb4 O123 2.340843 1_555
Nb5 O54 1.907456 1_555
Nb5 O58 1.927448 1_555
Nb5 O128 1.953180 1_555
Nb5 O126 2.089305 1_555
Nb5 O56 2.144058 1_555
Nb5 O130 2.246765 1_555
O0 S0 1.485829 1_555
O1 S1 1.479839 1_555
O2 S2 1.514870 1_555
O3 S3 1.475897 1_555
O4 Si0 1.720000 1_555
O5 S4 1.468684 1_555
O6 S5 1.490673 1_555
O7 S6 1.495101 1_555
O8 S7 1.475184 1_555
O9 Si1 1.758647 1_555
O10 S8 1.490908 1_555
O11 S9 1.534657 1_555
O12 S8 1.488878 1_565
O13 S9 1.471821 1_565
O14 S5 1.477553 1_555
O15 S6 1.491152 1_555
O16 Si1 1.611594 1_455
O17 S7 1.517783 1_555
O18 S2 1.475090 1_555
O19 S3 1.526561 1_555
O20 S4 1.547027 1_455
O21 Si0 1.611788 1_555
O22 S0 1.501317 1_565
O23 S1 1.482051 1_565
O24 S10 1.474158 1_555
O25 S11 1.483342 1_555
O26 S12 1.476754 1_555
O27 Si2 1.615380 1_555
O28 Si3 1.626453 1_555
O29 S13 1.473797 1_555
O30 S14 1.495734 1_555
O31 S15 1.470445 1_555
O32 S16 1.479249 1_555
O33 Si4 1.622886 1_555
O34 S17 1.469755 1_555
O35 S18 1.480983 1_555
O36 S17 1.467818 1_555
O37 S18 1.472010 1_555
O38 S14 1.488645 1_555
O39 S15 1.469741 1_555
O40 S16 1.479799 1_555
O41 Si4 1.604544 1_555
O42 S12 1.471949 1_555
O43 Si2 1.611882 1_555
O44 Si3 1.610654 1_555
O45 S13 1.482678 1_555
O46 S10 1.475020 1_555
O47 S11 1.484701 1_555
O48 S19 1.497616 1_555
O49 Si5 1.725118 1_555
O50 S20 1.498091 1_555
O51 Si6 1.708819 1_555
O52 S21 1.484518 1_555
O53 S22 1.512758 1_555
O54 Si7 1.704733 1_555
O55 S23 1.478902 1_555
O56 S24 1.501046 1_555
O57 S25 1.459596 1_555
O58 Si8 1.709443 1_555
O59 S26 1.473158 1_555
O60 Si8 1.626708 1_555
O61 S26 1.472032 1_555
O62 Si7 1.595656 1_555
O63 S23 1.475545 1_555
O64 S24 1.470117 1_555
O65 S25 1.472926 1_555
O66 S20 1.467999 1_555
O67 Si6 1.615509 1_555
O68 S21 1.467577 1_555
O69 S22 1.464790 1_555
O70 S19 1.467620 1_555
O71 Si5 1.590216 1_555
O72 Si8 1.661317 1_555
O73 S26 1.508404 1_555
O74 Si7 1.741732 1_555
O75 S23 1.494152 1_555
O76 S24 1.494096 1_555
O77 S25 1.535136 1_555
O78 S20 1.493803 1_555
O79 Si6 1.648102 1_555
O80 S21 1.509672 1_555
O81 S22 1.489145 1_555
O82 S19 1.485981 1_555
O83 Si5 1.725902 1_555
O84 S10 1.513781 1_555
O85 S11 1.492321 1_455
O86 S12 1.482128 1_565
O87 Si2 1.741385 1_555
O88 Si3 1.711615 1_555
O89 S13 1.496833 1_555
O90 S14 1.488940 1_555
O91 S15 1.520941 1_555
O92 S16 1.485625 1_555
O93 Si4 1.745720 1_565
O94 S17 1.543387 1_555
O95 S18 1.482047 1_555
O96 S8 1.485641 1_555
O97 S9 1.474502 1_555
O98 S5 1.496655 1_555
O99 S6 1.475001 1_555
O100 S7 1.491558 1_555
O101 Si1 1.612308 1_555
O102 S2 1.490116 1_555
O103 S3 1.472919 1_555
O104 Si0 1.640197 1_555
O105 S4 1.484486 1_555
O106 S0 1.482396 1_555
O107 S1 1.501651 1_555
O108 S19 1.485474 1_555
O109 Si5 1.605628 1_555
O110 Si6 1.644913 1_555
O111 S20 1.485285 1_655
O112 S21 1.480975 1_545
O113 S22 1.480881 1_545
O114 Si7 1.605745 1_545
O115 S23 1.485306 1_545
O116 S24 1.480415 1_555
O117 S25 1.480068 1_555
O118 S26 1.486223 1_555
O119 Si8 1.626937 1_655
O120 S17 1.481393 1_555
O121 S18 1.502674 1_555
O122 S15 1.476504 1_455
O123 S14 1.477301 1_555
O124 S16 1.484069 1_565
O125 Si4 1.653456 1_565
O126 S12 1.505927 1_565
O127 Si2 1.623345 1_565
O128 Si3 1.660035 1_555
O129 S13 1.471332 1_555
O130 S11 1.489639 1_455
O131 S10 1.463108 1_555
O132 S0 1.466392 1_565
O133 S1 1.471465 1_565
O134 S2 1.458087 1_555
O135 S3 1.463987 1_555
O136 S4 1.457163 1_455
O137 Si0 1.601181 1_555
O138 S5 1.469540 1_555
O139 S6 1.471658 1_555
O140 Si1 1.605098 1_455
O141 S7 1.463317 1_555
O142 S8 1.474063 1_565
O143 S9 1.454090 1_565
