# generated using pymatgen
data_In2SiGe2S5O24
_symmetry_space_group_name_H-M   'P 1'
_cell_length_a   8.64590441
_cell_length_b   8.69857750
_cell_length_c   22.44722756
_cell_angle_alpha   89.49353664
_cell_angle_beta   89.87022758
_cell_angle_gamma   120.07521337
_symmetry_Int_Tables_number   1
_chemical_formula_structural   In2SiGe2S5O24
_chemical_formula_sum   'In6 Si3 Ge6 S15 O72'
_cell_volume   1460.80548889
_cell_formula_units_Z   3
loop_
 _symmetry_equiv_pos_site_id
 _symmetry_equiv_pos_as_xyz
  1  'x, y, z'
loop_
 _atom_site_type_symbol
 _atom_site_label
 _atom_site_symmetry_multiplicity
 _atom_site_fract_x
 _atom_site_fract_y
 _atom_site_fract_z
 _atom_site_occupancy
  In  In0  1  0.99041109  0.00231558  0.36129016  1
  In  In1  1  0.00504121  0.00317662  0.85821675  1
  In  In2  1  0.67880118  0.33714851  0.68018722  1
  In  In3  1  0.65860479  0.33362749  0.18200779  1
  In  In4  1  0.65640212  0.32995912  0.98713332  1
  In  In5  1  0.32839353  0.66316890  0.80752633  1
  Si  Si0  1  0.97172333  0.33835664  0.58186325  1
  Si  Si1  1  0.35965450  0.33374442  0.08407751  1
  Si  Si2  1  0.60415811  0.94965051  0.41914908  1
  Ge  Ge0  1  0.99827023  0.00660554  0.64133920  1
  Ge  Ge1  1  0.00549987  0.00429139  0.14758050  1
  Ge  Ge2  1  0.67898824  0.31110436  0.47890126  1
  Ge  Ge3  1  0.33387908  0.65992652  0.02126878  1
  Ge  Ge4  1  0.33763488  0.66298943  0.52052077  1
  Ge  Ge5  1  0.33861625  0.67627190  0.31651691  1
  S  S0  1  0.28312437  0.98549803  0.25222079  1
  S  S1  1  0.70619114  0.71424135  0.25001638  1
  S  S2  1  0.01037359  0.30374263  0.25052690  1
  S  S3  1  0.28801992  0.28436541  0.74616078  1
  S  S4  1  0.99790513  0.72030543  0.74633074  1
  S  S5  1  0.71614796  0.99928677  0.74758253  1
  S  S6  1  0.36660969  0.03474844  0.58202707  1
  S  S7  1  0.66906509  0.63066199  0.58100855  1
  S  S8  1  0.97597813  0.64264775  0.08361832  1
  S  S9  1  0.66710940  0.02397381  0.08381916  1
  S  S10  1  0.61877013  0.66717981  0.91814301  1
  S  S11  1  0.04297058  0.38091808  0.91960590  1
  S  S12  1  0.33657834  0.94825710  0.91945444  1
  S  S13  1  0.34973258  0.39000308  0.41858055  1
  S  S14  1  0.04401377  0.65479560  0.41822066  1
  O  O0  1  0.20319674  0.01625868  0.30509633  1
  O  O1  1  0.81656188  0.79576562  0.30217920  1
  O  O2  1  0.97545565  0.19364132  0.30411525  1
  O  O3  1  0.21620163  0.18428826  0.80246247  1
  O  O4  1  0.97550112  0.79682199  0.80156343  1
  O  O5  1  0.81855571  0.02617767  0.80224150  1
  O  O6  1  0.80342365  0.97249269  0.69357004  1
  O  O7  1  0.17151134  0.19605526  0.69360588  1
  O  O8  1  0.02679859  0.83495962  0.69158122  1
  O  O9  1  0.78805828  0.83105683  0.19428909  1
  O  O10  1  0.04530527  0.22223293  0.19686216  1
  O  O11  1  0.16989879  0.95487907  0.19735213  1
  O  O12  1  0.90743255  0.39084787  0.64095716  1
  O  O13  1  0.47213765  0.10411793  0.63616314  1
  O  O14  1  0.62377084  0.52259314  0.63587047  1
  O  O15  1  0.90754131  0.52455135  0.13621074  1
  O  O16  1  0.62895063  0.09754241  0.13694422  1
  O  O17  1  0.48414642  0.38572412  0.14199219  1
  O  O18  1  0.42692858  0.27971734  0.02515961  1
  O  O19  1  0.86609042  0.57075510  0.03021010  1
  O  O20  1  0.71839117  0.14116237  0.03093081  1
  O  O21  1  0.44689962  0.15988601  0.52957970  1
  O  O22  1  0.70444651  0.54932983  0.52880769  1
  O  O23  1  0.83284445  0.29264953  0.52499994  1
  O  O24  1  0.53075633  0.69477549  0.97175539  1
  O  O25  1  0.15953267  0.47038005  0.97195883  1
  O  O26  1  0.30804093  0.83300838  0.97394931  1
  O  O27  1  0.50870603  0.82413170  0.47713713  1
  O  O28  1  0.30637609  0.46545851  0.47047554  1
  O  O29  1  0.15487419  0.68071040  0.47053789  1
  O  O30  1  0.11510165  0.61173478  0.36229159  1
  O  O31  1  0.48188213  0.86546638  0.35774668  1
  O  O32  1  0.38019425  0.50067441  0.36180525  1
  O  O33  1  0.11556109  0.48191369  0.86344351  1
  O  O34  1  0.35806952  0.87000570  0.86437249  1
  O  O35  1  0.51528601  0.64059876  0.86355286  1
  O  O36  1  0.03490263  0.81557121  0.41079413  1
  O  O37  1  0.79705788  0.96855029  0.41668502  1
  O  O38  1  0.19539590  0.21301402  0.41153057  1
  O  O39  1  0.03240593  0.20637427  0.91689472  1
  O  O40  1  0.17232571  0.96126852  0.91790083  1
  O  O41  1  0.79392656  0.83312272  0.91591277  1
  O  O42  1  0.98796707  0.15857849  0.59158268  1
  O  O43  1  0.18415163  0.01321711  0.58991142  1
  O  O44  1  0.83332669  0.80936909  0.58965525  1
  O  O45  1  0.98560011  0.81655716  0.09546936  1
  O  O46  1  0.82025469  0.99302236  0.09494571  1
  O  O47  1  0.16173575  0.15484605  0.09769848  1
  O  O48  1  0.69268633  0.15449592  0.74177321  1
  O  O49  1  0.46593617  0.30348433  0.73865088  1
  O  O50  1  0.83586164  0.54567054  0.74228553  1
  O  O51  1  0.68909934  0.54108912  0.24324367  1
  O  O52  1  0.85626614  0.32714654  0.24048541  1
  O  O53  1  0.46392615  0.13417716  0.24434077  1
  O  O54  1  0.64200356  0.51275484  0.92443862  1
  O  O55  1  0.86590645  0.36215894  0.92779892  1
  O  O56  1  0.49836965  0.12152547  0.92423798  1
  O  O57  1  0.61344943  0.14333007  0.42581001  1
  O  O58  1  0.51672140  0.38504947  0.42763351  1
  O  O59  1  0.85998022  0.49700994  0.42540416  1
  O  O60  1  0.33586203  0.50760838  0.07134915  1
  O  O61  1  0.16076992  0.67646249  0.07280263  1
  O  O62  1  0.50380534  0.85022215  0.07261449  1
  O  O63  1  0.34462476  0.85730517  0.57185872  1
  O  O64  1  0.51229971  0.65613223  0.57258127  1
  O  O65  1  0.16772170  0.51009648  0.56636794  1
  O  O66  1  0.28708809  0.81315403  0.25785693  1
  O  O67  1  0.52484614  0.69964780  0.25628789  1
  O  O68  1  0.17891144  0.48267077  0.25876955  1
  O  O69  1  0.29965325  0.45961514  0.74930045  1
  O  O70  1  0.16167622  0.70634332  0.74833372  1
  O  O71  1  0.54038652  0.83403102  0.75012808  1
loop_
_geom_bond_atom_site_label_1
_geom_bond_atom_site_label_2
_geom_bond_distance
_geom_bond_site_symmetry_2
In0 O37 1.979671 1_545
In0 O38 2.135861 1_655
In0 O1 2.142995 1_545
In0 O2 2.147632 1_555
In0 O36 2.148909 1_645
In0 O0 2.180266 1_655
In1 O41 2.108640 1_445
In1 O3 2.110308 1_555
In1 O4 2.118210 1_445
In1 O39 2.130371 1_555
In1 O5 2.132247 1_455
In1 O40 2.132661 1_545
In2 O12 1.990100 1_555
In2 O14 2.135672 1_555
In2 O48 2.145454 1_555
In2 O49 2.153422 1_555
In2 O50 2.159088 1_555
In2 O13 2.165955 1_555
In3 O17 1.992823 1_555
In3 O52 2.179959 1_555
In3 O51 2.187293 1_555
In3 O16 2.194641 1_555
In3 O53 2.195546 1_555
In3 O15 2.196477 1_555
In4 O18 1.993132 1_556
In4 O55 2.146479 1_555
In4 O54 2.164251 1_555
In4 O56 2.172202 1_555
In4 O20 2.192450 1_556
In4 O19 2.201545 1_556
In5 O71 2.110349 1_555
In5 O33 2.119935 1_555
In5 O69 2.122864 1_555
In5 O34 2.123810 1_555
In5 O70 2.127588 1_555
In5 O35 2.134008 1_555
Ge0 O42 1.759351 1_555
Ge0 O6 1.945380 1_545
Ge0 O43 1.953604 1_655
Ge0 O8 1.975508 1_645
Ge0 O7 1.975828 1_655
Ge0 O44 1.978298 1_545
Ge1 O47 1.728491 1_555
Ge1 O45 1.953908 1_445
Ge1 O46 1.955502 1_445
Ge1 O9 2.007020 1_445
Ge1 O11 2.016010 1_545
Ge1 O10 2.078717 1_555
Ge2 O57 1.753900 1_555
Ge2 O23 1.755956 1_555
Ge2 O59 1.981598 1_555
Ge2 O21 2.090118 1_555
Ge2 O58 2.145936 1_555
Ge2 O22 2.276520 1_555
Ge3 O60 1.736681 1_555
Ge3 O24 1.921697 1_554
Ge3 O26 1.937727 1_554
Ge3 O25 1.940279 1_554
Ge3 O61 1.951870 1_555
Ge3 O62 1.957255 1_555
Ge4 O27 1.729798 1_555
Ge4 O65 1.731117 1_555
Ge4 O64 1.935657 1_555
Ge4 O28 1.964034 1_555
Ge4 O29 2.007115 1_555
Ge4 O63 2.030037 1_555
Ge5 O31 1.757333 1_555
Ge5 O66 1.963833 1_555
Ge5 O30 1.999729 1_555
Ge5 O32 2.005077 1_555
Ge5 O67 2.029488 1_555
Ge5 O68 2.034459 1_555
O0 S0 1.464623 1_545
O1 S1 1.458087 1_555
O2 S2 1.464093 1_655
O3 S3 1.475072 1_555
O4 S4 1.469830 1_555
O5 S5 1.465082 1_545
O6 S5 1.506923 1_555
O7 S3 1.497449 1_555
O8 S4 1.514820 1_455
O9 S1 1.533291 1_555
O10 S2 1.507685 1_555
O11 S0 1.515306 1_555
O12 Si0 1.593357 1_555
O13 S6 1.462691 1_555
O14 S7 1.470378 1_555
O15 S8 1.471489 1_555
O16 S9 1.470975 1_555
O17 Si1 1.606853 1_555
O18 Si1 1.609276 1_555
O19 S8 1.467627 1_555
O20 S9 1.472538 1_555
O21 S6 1.506349 1_555
O22 S7 1.482252 1_555
O23 Si0 1.663288 1_555
O24 S10 1.506322 1_555
O25 S11 1.495913 1_555
O26 S12 1.513700 1_555
O27 Si2 1.623091 1_555
O28 S13 1.478663 1_555
O29 S14 1.463523 1_555
O30 S14 1.526361 1_555
O31 Si2 1.673964 1_555
O32 S13 1.530690 1_555
O33 S11 1.476226 1_555
O34 S12 1.472149 1_555
O35 S10 1.469083 1_555
O36 S14 1.447828 1_555
O37 Si2 1.592555 1_555
O38 S13 1.456737 1_555
O39 S11 1.476446 1_555
O40 S12 1.480539 1_555
O41 S10 1.478821 1_555
O42 Si0 1.651384 1_555
O43 S6 1.502324 1_555
O44 S7 1.504978 1_555
O45 S8 1.499075 1_555
O46 S9 1.498553 1_565
O47 Si1 1.662398 1_555
O48 S5 1.467110 1_545
O49 S3 1.471124 1_555
O50 S4 1.465812 1_555
O51 S1 1.447271 1_555
O52 S2 1.462858 1_655
O53 S0 1.454619 1_545
O54 S10 1.460114 1_555
O55 S11 1.466923 1_655
O56 S12 1.459563 1_545
O57 Si2 1.654089 1_545
O58 S13 1.480253 1_555
O59 S14 1.499204 1_655
O60 Si1 1.647923 1_555
O61 S8 1.491325 1_455
O62 S9 1.486804 1_565
O63 S6 1.477499 1_565
O64 S7 1.491079 1_555
O65 Si0 1.635596 1_455
O66 S0 1.520784 1_555
O67 S1 1.514403 1_555
O68 S2 1.520921 1_555
O69 S3 1.478920 1_555
O70 S4 1.481295 1_455
O71 S5 1.479065 1_555
