# generated using pymatgen
data_MgMnCo5O12
_symmetry_space_group_name_H-M   'P 1'
_cell_length_a   4.93609067
_cell_length_b   4.97235591
_cell_length_c   9.97807534
_cell_angle_alpha   92.78484227
_cell_angle_beta   97.16901431
_cell_angle_gamma   59.63990020
_symmetry_Int_Tables_number   1
_chemical_formula_structural   MgMnCo5O12
_chemical_formula_sum   'Mg1 Mn1 Co5 O12'
_cell_volume   209.63542322
_cell_formula_units_Z   1
loop_
 _symmetry_equiv_pos_site_id
 _symmetry_equiv_pos_as_xyz
  1  'x, y, z'
loop_
 _atom_site_type_symbol
 _atom_site_label
 _atom_site_symmetry_multiplicity
 _atom_site_fract_x
 _atom_site_fract_y
 _atom_site_fract_z
 _atom_site_occupancy
  Mg  Mg0  1  0.75535398  0.65055890  0.25111353  1
  Mn  Mn0  1  0.01599909  0.99797910  0.00178884  1
  Co  Co0  1  0.15862751  0.65447949  0.50146928  1
  Co  Co1  1  0.67888733  0.66521338  0.98963584  1
  Co  Co2  1  0.34915442  0.33119355  0.00217349  1
  Co  Co3  1  0.82911850  0.31828779  0.50692979  1
  Co  Co4  1  0.49702104  0.98399453  0.50143706  1
  O  O0  1  0.03165581  0.65801339  0.10190794  1
  O  O1  1  0.31507518  0.66145384  0.90283688  1
  O  O2  1  0.12191316  0.33390076  0.40065124  1
  O  O3  1  0.47655393  0.65708305  0.39972643  1
  O  O4  1  0.51454376  0.31180846  0.59368422  1
  O  O5  1  0.19197097  0.97246171  0.59427069  1
  O  O6  1  0.85403005  0.67976469  0.60080913  1
  O  O7  1  0.70693772  0.34361319  0.10230338  1
  O  O8  1  0.39049271  0.98314142  0.10220768  1
  O  O9  1  0.00272038  0.32654109  0.90276832  1
  O  O10  1  0.64933166  0.01476626  0.90316957  1
  O  O11  1  0.79811280  0.95574539  0.39111668  1
loop_
_geom_bond_atom_site_label_1
_geom_bond_atom_site_label_2
_geom_bond_distance
_geom_bond_site_symmetry_2
Mg0 O11 2.083993 1_555
Mg0 O3 2.133864 1_555
Mg0 O0 2.154345 1_655
Mg0 O7 2.156667 1_555
Mg0 O2 2.157294 1_655
Mg0 O8 2.178556 1_555
Mn0 O1 1.913213 1_554
Mn0 O10 1.913576 1_464
Mn0 O9 1.918857 1_564
Mn0 O8 1.957938 1_555
Mn0 O7 1.962375 1_465
Mn0 O0 1.968321 1_555
Co0 O6 1.851399 1_455
Co0 O5 1.862048 1_555
Co0 O4 1.886591 1_555
Co0 O11 1.897284 1_455
Co0 O2 1.917408 1_555
Co0 O3 1.978130 1_555
Co1 O1 1.902512 1_555
Co1 O9 1.903984 1_655
Co1 O10 1.909089 1_565
Co1 O8 1.933635 1_556
Co1 O0 1.934522 1_656
Co1 O7 1.937055 1_556
Co2 O10 1.872046 1_554
Co2 O9 1.876956 1_554
Co2 O1 1.882760 1_554
Co2 O0 1.935185 1_555
Co2 O7 1.945459 1_555
Co2 O8 1.947587 1_545
Co3 O4 1.884207 1_555
Co3 O5 1.888664 1_645
Co3 O2 1.929592 1_655
Co3 O3 1.938465 1_555
Co3 O6 2.038204 1_555
Co3 O11 2.154259 1_545
Co4 O6 1.841700 1_555
Co4 O4 1.867750 1_565
Co4 O5 1.889231 1_555
Co4 O11 1.903307 1_555
Co4 O3 1.913794 1_555
Co4 O2 1.978771 1_565
