# generated using pymatgen
data_UMn5P3
_symmetry_space_group_name_H-M   'P 1'
_cell_length_a   3.58976253
_cell_length_b   10.92256434
_cell_length_c   12.40821338
_cell_angle_alpha   90.00000000
_cell_angle_beta   90.00000000
_cell_angle_gamma   90.00000000
_symmetry_Int_Tables_number   1
_chemical_formula_structural   UMn5P3
_chemical_formula_sum   'U4 Mn20 P12'
_cell_volume   486.51875307
_cell_formula_units_Z   4
loop_
 _symmetry_equiv_pos_site_id
 _symmetry_equiv_pos_as_xyz
  1  'x, y, z'
loop_
 _atom_site_type_symbol
 _atom_site_label
 _atom_site_symmetry_multiplicity
 _atom_site_fract_x
 _atom_site_fract_y
 _atom_site_fract_z
 _atom_site_occupancy
  U  U0  1  0.25000000  0.58874594  0.70398327  1
  U  U1  1  0.75000000  0.41125406  0.29601673  1
  U  U2  1  0.75000000  0.08874594  0.79601673  1
  U  U3  1  0.25000000  0.91125406  0.20398327  1
  Mn  Mn0  1  0.25000000  0.40849675  0.48943902  1
  Mn  Mn1  1  0.75000000  0.71275868  0.31557695  1
  Mn  Mn2  1  0.75000000  0.78724132  0.81557695  1
  Mn  Mn3  1  0.25000000  0.28724132  0.68442305  1
  Mn  Mn4  1  0.25000000  0.61371968  0.19285479  1
  Mn  Mn5  1  0.75000000  0.38628032  0.80714521  1
  Mn  Mn6  1  0.75000000  0.11371968  0.30714521  1
  Mn  Mn7  1  0.25000000  0.88628032  0.69285479  1
  Mn  Mn8  1  0.25000000  0.03369048  0.43595758  1
  Mn  Mn9  1  0.75000000  0.96630952  0.56404242  1
  Mn  Mn10  1  0.75000000  0.53369048  0.06404242  1
  Mn  Mn11  1  0.25000000  0.46630952  0.93595758  1
  Mn  Mn12  1  0.75000000  0.90849675  0.01056098  1
  Mn  Mn13  1  0.25000000  0.09150325  0.98943902  1
  Mn  Mn14  1  0.25000000  0.71314240  0.97665789  1
  Mn  Mn15  1  0.75000000  0.28685760  0.02334211  1
  Mn  Mn16  1  0.75000000  0.21314240  0.52334211  1
  Mn  Mn17  1  0.25000000  0.78685760  0.47665789  1
  Mn  Mn18  1  0.25000000  0.21275868  0.18442305  1
  Mn  Mn19  1  0.75000000  0.59150325  0.51056098  1
  P  P0  1  0.25000000  0.59216219  0.38212176  1
  P  P1  1  0.75000000  0.40783781  0.61787824  1
  P  P2  1  0.75000000  0.09216219  0.11787824  1
  P  P3  1  0.25000000  0.90783781  0.88212176  1
  P  P4  1  0.75000000  0.77005703  0.62406333  1
  P  P5  1  0.25000000  0.22994297  0.37593667  1
  P  P6  1  0.25000000  0.41207925  0.11618281  1
  P  P7  1  0.75000000  0.58792075  0.88381719  1
  P  P8  1  0.75000000  0.91207925  0.38381719  1
  P  P9  1  0.25000000  0.08792075  0.61618281  1
  P  P10  1  0.25000000  0.27005703  0.87593667  1
  P  P11  1  0.75000000  0.72994297  0.12406333  1
loop_
_geom_bond_atom_site_label_1
_geom_bond_atom_site_label_2
_geom_bond_distance
_geom_bond_site_symmetry_2
Mn0 P1 2.400320 1_455
Mn0 P1 2.400320 1_555
Mn0 P5 2.405622 1_555
Mn0 P0 2.407826 1_555
Mn1 P8 2.335957 1_555
Mn1 P0 2.374544 1_655
Mn1 P0 2.374544 1_555
Mn1 P11 2.383743 1_555
Mn2 P7 2.335957 1_555
Mn2 P3 2.374544 1_655
Mn2 P3 2.374544 1_555
Mn2 P4 2.383743 1_555
Mn3 P9 2.335957 1_555
Mn3 P1 2.374544 1_455
Mn3 P1 2.374544 1_555
Mn3 P10 2.383743 1_555
Mn4 P11 2.358329 1_455
Mn4 P11 2.358329 1_555
Mn4 P0 2.360239 1_555
Mn4 P6 2.399123 1_555
Mn5 P10 2.358329 1_655
Mn5 P10 2.358329 1_555
Mn5 P1 2.360239 1_555
Mn5 P7 2.399123 1_555
Mn6 P5 2.358329 1_655
Mn6 P5 2.358329 1_555
Mn6 P2 2.360239 1_555
Mn6 P8 2.399123 1_545
Mn7 P4 2.358329 1_555
Mn7 P4 2.358329 1_455
Mn7 P3 2.360239 1_555
Mn7 P9 2.399123 1_565
Mn8 P5 2.269271 1_555
Mn8 P9 2.313391 1_555
Mn8 P8 2.324772 1_445
Mn8 P8 2.324772 1_545
Mn9 P4 2.269271 1_555
Mn9 P8 2.313391 1_555
Mn9 P9 2.324772 1_565
Mn9 P9 2.324772 1_665
Mn10 P11 2.269271 1_555
Mn10 P7 2.313391 1_554
Mn10 P6 2.324772 1_655
Mn10 P6 2.324772 1_555
Mn11 P10 2.269271 1_555
Mn11 P6 2.313391 1_556
Mn11 P7 2.324772 1_555
Mn11 P7 2.324772 1_455
Mn12 P3 2.400320 1_654
Mn12 P3 2.400320 1_554
Mn12 P11 2.405622 1_555
Mn12 P2 2.407826 1_565
Mn13 P2 2.400320 1_556
Mn13 P2 2.400320 1_456
Mn13 P10 2.405622 1_555
Mn13 P3 2.407826 1_545
Mn14 P3 2.428642 1_555
Mn14 P7 2.533652 1_455
Mn14 P7 2.533652 1_555
Mn14 P11 2.569174 1_556
Mn14 P11 2.569174 1_456
Mn15 P2 2.428642 1_555
Mn15 P6 2.533652 1_655
Mn15 P6 2.533652 1_555
Mn15 P10 2.569174 1_554
Mn15 P10 2.569174 1_654
Mn16 P1 2.428642 1_555
Mn16 P9 2.533652 1_655
Mn16 P9 2.533652 1_555
Mn16 P5 2.569174 1_655
Mn16 P5 2.569174 1_555
Mn17 P0 2.428642 1_555
Mn17 P8 2.533652 1_455
Mn17 P8 2.533652 1_555
Mn17 P4 2.569174 1_555
Mn17 P4 2.569174 1_455
Mn18 P6 2.335957 1_555
Mn18 P2 2.374544 1_455
Mn18 P2 2.374544 1_555
Mn18 P5 2.383743 1_555
Mn19 P0 2.400320 1_555
Mn19 P0 2.400320 1_655
Mn19 P4 2.405622 1_555
Mn19 P1 2.407826 1_555
P0 U1 2.875343 1_455
P0 U1 2.875343 1_555
P1 U0 2.875343 1_655
P1 U0 2.875343 1_555
P2 U3 2.875343 1_545
P2 U3 2.875343 1_645
P3 U2 2.875343 1_465
P3 U2 2.875343 1_565
P4 U0 2.850773 1_555
P4 U0 2.850773 1_655
P5 U1 2.850773 1_555
P5 U1 2.850773 1_455
P6 U1 2.863722 1_455
P6 U1 2.863722 1_555
P7 U0 2.863722 1_555
P7 U0 2.863722 1_655
P8 U3 2.863722 1_555
P8 U3 2.863722 1_655
P9 U2 2.863722 1_555
P9 U2 2.863722 1_455
P10 U2 2.850773 1_455
P10 U2 2.850773 1_555
P11 U3 2.850773 1_555
P11 U3 2.850773 1_655
