# generated using pymatgen
data_LiVP2O7
_symmetry_space_group_name_H-M   'P 1'
_cell_length_a   6.35227000
_cell_length_b   6.47630462
_cell_length_c   6.86148409
_cell_angle_alpha   85.58941028
_cell_angle_beta   67.01537005
_cell_angle_gamma   81.98972940
_symmetry_Int_Tables_number   1
_chemical_formula_structural   LiVP2O7
_chemical_formula_sum   'Li2 V2 P4 O14'
_cell_volume   257.25239883
_cell_formula_units_Z   2
loop_
 _symmetry_equiv_pos_site_id
 _symmetry_equiv_pos_as_xyz
  1  'x, y, z'
loop_
 _atom_site_type_symbol
 _atom_site_label
 _atom_site_symmetry_multiplicity
 _atom_site_fract_x
 _atom_site_fract_y
 _atom_site_fract_z
 _atom_site_occupancy
  Li  Li0  1  0.70924300  0.00183400  0.83178100  1
  Li  Li1  1  0.29075700  0.99816600  0.16821900  1
  V  V0  1  0.90749800  0.35570400  0.21346300  1
  V  V1  1  0.09250200  0.64429600  0.78653700  1
  P  P0  1  0.21481300  0.13091800  0.76861300  1
  P  P1  1  0.34366000  0.38978100  0.35811300  1
  P  P2  1  0.65634000  0.61021900  0.64188700  1
  P  P3  1  0.78518700  0.86908200  0.23138700  1
  O  O0  1  0.39031400  0.04883000  0.85965000  1
  O  O1  1  0.93711800  0.02850800  0.24438700  1
  O  O2  1  0.35318800  0.20977800  0.53151700  1
  O  O3  1  0.21571400  0.31052500  0.23560000  1
  O  O4  1  0.05562800  0.33037900  0.88807200  1
  O  O5  1  0.59439300  0.40450300  0.21558100  1
  O  O6  1  0.77919800  0.40904500  0.52288600  1
  O  O7  1  0.22080200  0.59095500  0.47711400  1
  O  O8  1  0.40560700  0.59549700  0.78441900  1
  O  O9  1  0.94437200  0.66962100  0.11192800  1
  O  O10  1  0.78428600  0.68947500  0.76440000  1
  O  O11  1  0.64681200  0.79022200  0.46848300  1
  O  O12  1  0.06288200  0.97149200  0.75561300  1
  O  O13  1  0.60968600  0.95117000  0.14035000  1
loop_
_geom_bond_atom_site_label_1
_geom_bond_atom_site_label_2
_geom_bond_distance
_geom_bond_site_symmetry_2
Li0 O0 1.941164 1_555
Li0 O13 1.973729 1_546
Li0 O10 2.058208 1_545
Li0 O12 2.081826 1_645
Li1 O13 1.941164 1_555
Li1 O0 1.973729 1_564
Li1 O3 2.058208 1_565
Li1 O1 2.081826 1_465
O0 P0 1.497749 1_555
O1 P3 1.537705 1_545
O1 V0 2.102755 1_555
O2 P0 1.600189 1_555
O2 P1 1.612927 1_555
O3 P1 1.531947 1_555
O3 V0 2.001924 1_455
O4 P0 1.585728 1_555
O4 V0 2.066328 1_456
O4 V1 2.112069 1_555
O5 P1 1.521121 1_555
O5 V0 1.964401 1_555
O6 P2 1.534865 1_555
O6 V0 1.993522 1_555
O7 P1 1.534865 1_555
O7 V1 1.993522 1_555
O8 P2 1.521121 1_555
O8 V1 1.964401 1_555
O9 P3 1.585728 1_555
O9 V1 2.066328 1_654
O9 V0 2.112069 1_555
O10 P2 1.531947 1_555
O10 V1 2.001924 1_655
O11 P3 1.600189 1_555
O11 P2 1.612927 1_555
O12 P0 1.537705 1_565
O12 V1 2.102755 1_555
O13 P3 1.497749 1_555
