# generated using pymatgen
data_MgHg2(SbO3)4
_symmetry_space_group_name_H-M   'P 1'
_cell_length_a   5.22699611
_cell_length_b   5.12722561
_cell_length_c   9.84633300
_cell_angle_alpha   89.99996576
_cell_angle_beta   89.99987030
_cell_angle_gamma   90.37255412
_symmetry_Int_Tables_number   1
_chemical_formula_structural   MgHg2(SbO3)4
_chemical_formula_sum   'Mg1 Hg2 Sb4 O12'
_cell_volume   263.87603080
_cell_formula_units_Z   1
loop_
 _symmetry_equiv_pos_site_id
 _symmetry_equiv_pos_as_xyz
  1  'x, y, z'
loop_
 _atom_site_type_symbol
 _atom_site_label
 _atom_site_symmetry_multiplicity
 _atom_site_fract_x
 _atom_site_fract_y
 _atom_site_fract_z
 _atom_site_occupancy
  Mg  Mg0  1  0.99999500  0.50000200  0.08242400  1
  Hg  Hg0  1  0.00000100  0.99999900  0.98182800  1
  Hg  Hg1  1  0.50000000  0.50000000  0.50410100  1
  Sb  Sb0  1  0.00000100  0.99999900  0.33757500  1
  Sb  Sb1  1  0.00000000  0.00000000  0.66560600  1
  Sb  Sb2  1  0.49999900  0.50000000  0.18384800  1
  Sb  Sb3  1  0.50000000  0.50000000  0.82356500  1
  O  O0  1  0.17130200  0.82543000  0.50025100  1
  O  O1  1  0.20972000  0.78227900  0.81170700  1
  O  O2  1  0.19476700  0.77430400  0.18386300  1
  O  O3  1  0.28411500  0.28088900  0.31380900  1
  O  O4  1  0.28784000  0.28385500  0.68681800  1
  O  O5  1  0.31209900  0.34869900  0.00470200  1
  O  O6  1  0.68789900  0.65130000  0.00470400  1
  O  O7  1  0.71589100  0.71911200  0.31380800  1
  O  O8  1  0.71215800  0.71614500  0.68681900  1
  O  O9  1  0.80523300  0.22569300  0.18386400  1
  O  O10  1  0.79027900  0.21772400  0.81170700  1
  O  O11  1  0.82869900  0.17457000  0.50025200  1
loop_
_geom_bond_atom_site_label_1
_geom_bond_atom_site_label_2
_geom_bond_distance
_geom_bond_site_symmetry_2
Mg0 O6 1.965978 1_555
Mg0 O5 1.966029 1_655
Mg0 O2 1.998361 1_655
Mg0 O9 1.998362 1_555
Hg0 O1 2.295548 1_555
Hg0 O10 2.295571 1_465
Hg0 O5 2.422913 1_566
Hg0 O6 2.422925 1_456
Hg0 O2 2.519554 1_556
Hg0 O9 2.519561 1_466
Hg1 O4 2.383001 1_555
Hg1 O8 2.383008 1_555
Hg1 O0 2.403053 1_555
Hg1 O11 2.403057 1_555
Hg1 O3 2.455534 1_555
Hg1 O7 2.455554 1_555
O0 Sb0 2.044239 1_555
O0 Sb1 2.064975 1_565
O1 Sb3 2.106910 1_555
O1 Sb1 2.129125 1_565
O2 Sb2 2.133692 1_555
O2 Sb0 2.163675 1_555
O3 Sb2 2.038731 1_555
O3 Sb0 2.075209 1_545
O4 Sb3 2.062747 1_555
O4 Sb1 2.096888 1_555
O5 Sb2 2.160549 1_555
O5 Sb3 2.176582 1_554
O6 Sb2 2.160527 1_555
O6 Sb3 2.176596 1_554
O7 Sb2 2.038755 1_555
O7 Sb0 2.075186 1_655
O8 Sb3 2.062730 1_555
O8 Sb1 2.096896 1_665
O9 Sb2 2.133710 1_555
O9 Sb0 2.163673 1_645
O10 Sb3 2.106895 1_555
O10 Sb1 2.129134 1_655
O11 Sb0 2.044251 1_645
O11 Sb1 2.064967 1_655
