# generated using pymatgen
data_Na15Ca7Nb5(PO4)18
_symmetry_space_group_name_H-M   'P 1'
_cell_length_a   9.21200050
_cell_length_b   9.17332190
_cell_length_c   22.94520338
_cell_angle_alpha   89.96725695
_cell_angle_beta   90.08997649
_cell_angle_gamma   120.00487680
_symmetry_Int_Tables_number   1
_chemical_formula_structural   Na15Ca7Nb5(PO4)18
_chemical_formula_sum   'Na15 Ca7 Nb5 P18 O72'
_cell_volume   1679.11807505
_cell_formula_units_Z   1
loop_
 _symmetry_equiv_pos_site_id
 _symmetry_equiv_pos_as_xyz
  1  'x, y, z'
loop_
 _atom_site_type_symbol
 _atom_site_label
 _atom_site_symmetry_multiplicity
 _atom_site_fract_x
 _atom_site_fract_y
 _atom_site_fract_z
 _atom_site_occupancy
  Na  Na0  1  0.98443963  0.63498774  0.24495481  1
  Na  Na1  1  0.65363880  0.64292793  0.74961491  1
  Na  Na2  1  0.98897968  0.34566646  0.74984495  1
  Na  Na3  1  0.35759738  0.01092793  0.74972438  1
  Na  Na4  1  0.29622564  0.33658063  0.58354064  1
  Na  Na5  1  0.04298610  0.70567658  0.58417058  1
  Na  Na6  1  0.66100925  0.95867933  0.58362886  1
  Na  Na7  1  0.65263576  0.68395902  0.07900957  1
  Na  Na8  1  0.31671117  0.01903423  0.41069216  1
  Na  Na9  1  0.98583458  0.99851675  0.49465597  1
  Na  Na10  1  0.01247694  0.01028181  0.98876019  1
  Na  Na11  1  0.66712281  0.33368393  0.83480277  1
  Na  Na12  1  0.66261479  0.32894419  0.32438082  1
  Na  Na13  1  0.32896717  0.66856577  0.15705818  1
  Na  Na14  1  0.33368979  0.66759536  0.66478812  1
  Ca  Ca0  1  0.99284809  0.00319850  0.35213024  1
  Ca  Ca1  1  0.99901125  0.99895017  0.85246640  1
  Ca  Ca2  1  0.99988666  0.00008710  0.65305026  1
  Ca  Ca3  1  0.66680802  0.33276993  0.68349290  1
  Ca  Ca4  1  0.65953282  0.32164514  0.18560621  1
  Ca  Ca5  1  0.32553742  0.66738515  0.01932752  1
  Ca  Ca6  1  0.33333792  0.66349426  0.51249548  1
  Nb  Nb0  1  0.00487066  0.00871365  0.14692593  1
  Nb  Nb1  1  0.66620513  0.32990265  0.98191521  1
  Nb  Nb2  1  0.67155953  0.33868064  0.47757058  1
  Nb  Nb3  1  0.33937997  0.66372128  0.31390939  1
  Nb  Nb4  1  0.33273273  0.66630911  0.82517124  1
  P  P0  1  0.28771924  0.98848518  0.25380385  1
  P  P1  1  0.70450572  0.71319070  0.24974114  1
  P  P2  1  0.01330979  0.30261240  0.25100749  1
  P  P3  1  0.30422090  0.31582501  0.75140004  1
  P  P4  1  0.01215497  0.69548227  0.75135030  1
  P  P5  1  0.68329751  0.98732260  0.75145177  1
  P  P6  1  0.95836451  0.33171836  0.58103284  1
  P  P7  1  0.37350449  0.04203457  0.57983158  1
  P  P8  1  0.66842876  0.62702550  0.58119587  1
  P  P9  1  0.95454987  0.63309827  0.08731510  1
  P  P10  1  0.67995551  0.04370160  0.08419915  1
  P  P11  1  0.37140099  0.32380111  0.08409002  1
  P  P12  1  0.62654677  0.65428269  0.92241388  1
  P  P13  1  0.02733887  0.37289185  0.92041044  1
  P  P14  1  0.34551892  0.97339682  0.92001709  1
  P  P15  1  0.62424596  0.96814360  0.41865063  1
  P  P16  1  0.34503846  0.37418954  0.41817983  1
  P  P17  1  0.03500872  0.65773265  0.41686644  1
  O  O0  1  0.21240169  0.00256792  0.31019244  1
  O  O1  1  0.81078637  0.79170757  0.30251245  1
  O  O2  1  0.98855262  0.20324179  0.30489343  1
  O  O3  1  0.21107976  0.19057791  0.79908546  1
  O  O4  1  0.98020826  0.78825325  0.79920084  1
  O  O5  1  0.80809063  0.01930073  0.79923217  1
  O  O6  1  0.73978897  0.94614725  0.69275630  1
  O  O7  1  0.20647234  0.26011969  0.69264684  1
  O  O8  1  0.05305927  0.79368957  0.69269724  1
  O  O9  1  0.79241860  0.82871660  0.19359374  1
  O  O10  1  0.03020573  0.20214995  0.19605324  1
  O  O11  1  0.16281962  0.96710420  0.20043173  1
  O  O12  1  0.88422381  0.34900154  0.63791951  1
  O  O13  1  0.46642776  0.11889546  0.63643918  1
  O  O14  1  0.65220665  0.53583487  0.63814927  1
  O  O15  1  0.87883651  0.54322880  0.14374042  1
  O  O16  1  0.65505067  0.11767018  0.13826985  1
  O  O17  1  0.47567165  0.35238332  0.13744900  1
  O  O18  1  0.46651985  0.29864924  0.02934102  1
  O  O19  1  0.82911778  0.53047155  0.03414344  1
  O  O20  1  0.69637972  0.16077177  0.02949130  1
  O  O21  1  0.48503408  0.15631916  0.52590188  1
  O  O22  1  0.67042122  0.51157559  0.52824055  1
  O  O23  1  0.84118720  0.32964410  0.52801445  1
  O  O24  1  0.54880077  0.67215311  0.97729814  1
  O  O25  1  0.13081025  0.45580348  0.97281932  1
  O  O26  1  0.32775488  0.87149170  0.97266367  1
  O  O27  1  0.55194031  0.88146854  0.47595832  1
  O  O28  1  0.32260497  0.44046144  0.47536396  1
  O  O29  1  0.12878439  0.68044269  0.47336930  1
  O  O30  1  0.13256880  0.63464919  0.36311266  1
  O  O31  1  0.49717386  0.86045202  0.36628940  1
  O  O32  1  0.36015803  0.49695166  0.36564467  1
  O  O33  1  0.12807774  0.49370530  0.86458936  1
  O  O34  1  0.36407112  0.87220002  0.86425855  1
  O  O35  1  0.50217556  0.63600276  0.86812595  1
  O  O36  1  0.01381996  0.81007203  0.40893944  1
  O  O37  1  0.79973318  0.00128593  0.41096067  1
  O  O38  1  0.20713913  0.19380250  0.40914010  1
  O  O39  1  0.99395197  0.19722828  0.90925928  1
  O  O40  1  0.20357630  0.00681718  0.90947469  1
  O  O41  1  0.79997587  0.79835623  0.91036449  1
  O  O42  1  0.95859784  0.16420219  0.57620613  1
  O  O43  1  0.20500414  0.03992904  0.57568068  1
  O  O44  1  0.83484673  0.79518061  0.57624168  1
  O  O45  1  0.95541721  0.81011773  0.09027998  1
  O  O46  1  0.85363248  0.04067437  0.09012163  1
  O  O47  1  0.19346639  0.15495698  0.09164261  1
  O  O48  1  0.64932009  0.13585909  0.74899250  1
  O  O49  1  0.48592374  0.34930313  0.74882138  1
  O  O50  1  0.86405804  0.51296837  0.74876819  1
  O  O51  1  0.67659855  0.53649696  0.24216314  1
  O  O52  1  0.87856640  0.35011481  0.24251649  1
  O  O53  1  0.46470046  0.13014249  0.24567236  1
  O  O54  1  0.62950751  0.48233048  0.92431538  1
  O  O55  1  0.85391746  0.37205091  0.92445987  1
  O  O56  1  0.51842802  0.14765363  0.92340762  1
  O  O57  1  0.62114155  0.14166167  0.41878002  1
  O  O58  1  0.51645757  0.36992203  0.42005712  1
  O  O59  1  0.85658529  0.49076688  0.42161155  1
  O  O60  1  0.34568335  0.47310704  0.07506659  1
  O  O61  1  0.13134392  0.66824923  0.07914236  1
  O  O62  1  0.54506939  0.86062336  0.07605160  1
  O  O63  1  0.35058617  0.86441587  0.57620098  1
  O  O64  1  0.51423048  0.64855460  0.57628467  1
  O  O65  1  0.13443582  0.48615580  0.57639853  1
  O  O66  1  0.28754546  0.81160140  0.25660818  1
  O  O67  1  0.52525240  0.70210355  0.25954653  1
  O  O68  1  0.18663027  0.47970481  0.25681624  1
  O  O69  1  0.31911971  0.49369719  0.76470557  1
  O  O70  1  0.17538528  0.68199781  0.76429120  1
  O  O71  1  0.50672177  0.82357092  0.76447477  1
loop_
_geom_bond_atom_site_label_1
_geom_bond_atom_site_label_2
_geom_bond_distance
_geom_bond_site_symmetry_2
Na0 O52 2.287848 1_555
Na0 O66 2.442642 1_655
Na0 O15 2.494900 1_555
Na0 O51 2.509844 1_555
Na1 O49 2.340993 1_555
Na1 O71 2.634208 1_555
Na1 O69 2.696992 1_555
Na1 O50 2.736841 1_555
Na1 O14 2.737958 1_555
Na1 O6 2.803588 1_555
Na1 O4 2.846369 1_555
Na2 O50 2.333772 1_555
Na2 O69 2.660132 1_655
Na2 O70 2.697801 1_655
Na2 O48 2.733456 1_555
Na2 O12 2.747588 1_555
Na2 O7 2.816808 1_655
Na2 O5 2.834881 1_555
Na2 O33 2.944662 1_655
Na3 O48 2.335679 1_555
Na3 O70 2.639862 1_545
Na3 O71 2.704592 1_545
Na3 O49 2.713470 1_555
Na3 O13 2.784747 1_555
Na3 O8 2.820236 1_545
Na3 O3 2.837600 1_555
Na3 O34 2.932760 1_545
Na4 O43 2.420128 1_555
Na4 O65 2.484975 1_555
Na4 O64 2.550154 1_555
Na4 O7 2.620571 1_555
Na4 O28 2.625970 1_555
Na4 O42 2.698533 1_455
Na5 O44 2.440655 1_455
Na5 O63 2.461244 1_555
Na5 O65 2.548372 1_555
Na5 O8 2.605385 1_555
Na5 O43 2.662774 1_565
Na5 O29 2.707734 1_555
Na6 O42 2.435281 1_565
Na6 O64 2.470341 1_555
Na6 O63 2.545529 1_555
Na6 O6 2.624321 1_555
Na6 O27 2.626235 1_555
Na6 O44 2.691834 1_555
Na7 O62 2.284423 1_555
Na7 O45 2.440414 1_555
Na7 O24 2.502582 1_554
Na7 O60 2.504849 1_555
Na7 O19 2.825171 1_555
Na7 O46 2.853207 1_565
Na7 O9 2.935491 1_555
Na7 O17 2.958072 1_555
Na8 O38 2.282253 1_555
Na8 O57 2.451127 1_555
Na8 O36 2.472216 1_545
Na8 O0 2.472244 1_555
Na8 O58 2.805101 1_555
Na9 O42 2.502093 1_565
Na9 O44 2.515476 1_555
Na9 O37 2.580855 1_565
Na9 O43 2.626577 1_665
Na9 O36 2.715543 1_655
Na9 O38 2.751612 1_665
Na10 O40 2.544739 1_555
Na10 O39 2.566280 1_455
Na10 O41 2.652146 1_445
Na10 O47 2.809272 1_556
Na10 O46 2.836813 1_456
Na10 O45 2.847374 1_446
Na11 O56 2.566845 1_555
Na11 O54 2.583772 1_555
Na11 O55 2.588615 1_555
Na11 O48 2.627202 1_555
Na11 O50 2.629919 1_555
Na11 O49 2.632012 1_555
Na12 O53 2.565034 1_555
Na12 O51 2.636638 1_555
Na12 O57 2.670389 1_555
Na12 O52 2.673668 1_555
Na12 O58 2.699983 1_555
Na12 O59 2.777065 1_555
Na13 O61 2.548520 1_555
Na13 O62 2.649881 1_555
Na13 O60 2.656847 1_555
Na13 O66 2.755303 1_555
Na13 O68 2.773636 1_555
Na13 O67 2.885370 1_555
Na14 O63 2.670477 1_555
Na14 O65 2.681290 1_555
Na14 O64 2.687371 1_555
Na14 O71 2.744290 1_555
Na14 O70 2.749587 1_555
Na14 O69 2.757088 1_555
Ca0 O2 2.148018 1_555
Ca0 O1 2.148287 1_545
Ca0 O37 2.227897 1_555
Ca0 O0 2.243755 1_655
Ca0 O38 2.282013 1_655
Ca0 O36 2.283401 1_645
Ca1 O4 2.219601 1_555
Ca1 O5 2.222937 1_565
Ca1 O3 2.230962 1_665
Ca1 O39 2.257492 1_565
Ca1 O40 2.263573 1_665
Ca1 O41 2.267850 1_555
Ca2 O8 2.361452 1_645
Ca2 O7 2.365155 1_655
Ca2 O6 2.374106 1_545
Ca2 O42 2.467303 1_555
Ca2 O44 2.467354 1_545
Ca2 O43 2.484873 1_655
Ca3 O13 2.190046 1_555
Ca3 O14 2.195098 1_555
Ca3 O12 2.198891 1_555
Ca3 O48 2.292182 1_555
Ca3 O50 2.295140 1_555
Ca3 O49 2.303772 1_555
Ca4 O16 2.146495 1_555
Ca4 O17 2.154210 1_555
Ca4 O15 2.243352 1_555
Ca4 O53 2.249100 1_555
Ca4 O51 2.299049 1_555
Ca4 O52 2.304281 1_555
Ca5 O26 2.147558 1_554
Ca5 O25 2.153581 1_554
Ca5 O24 2.253478 1_554
Ca5 O61 2.259608 1_555
Ca5 O60 2.274584 1_555
Ca5 O62 2.309775 1_555
Ca6 O29 2.160658 1_555
Ca6 O28 2.172785 1_555
Ca6 O27 2.175420 1_555
Ca6 O64 2.271215 1_555
Ca6 O65 2.275561 1_555
Ca6 O63 2.295312 1_555
Nb0 O10 2.015212 1_555
Nb0 O47 2.025109 1_555
Nb0 O46 2.031794 1_455
Nb0 O11 2.078307 1_545
Nb0 O45 2.094416 1_445
Nb0 O9 2.115614 1_445
Nb1 O20 2.025961 1_556
Nb1 O18 2.031895 1_556
Nb1 O56 2.042309 1_555
Nb1 O55 2.053174 1_555
Nb1 O54 2.070127 1_555
Nb1 O19 2.075768 1_556
Nb2 O22 1.971311 1_555
Nb2 O23 1.977893 1_555
Nb2 O21 2.027252 1_555
Nb2 O59 2.031438 1_555
Nb2 O58 2.065981 1_555
Nb2 O57 2.112604 1_555
Nb3 O67 2.003737 1_555
Nb3 O32 2.018972 1_555
Nb3 O68 2.041257 1_555
Nb3 O31 2.046368 1_555
Nb3 O66 2.107307 1_555
Nb3 O30 2.115077 1_555
Nb4 O33 1.974220 1_555
Nb4 O34 1.977550 1_555
Nb4 O35 1.978384 1_555
Nb4 O69 2.061844 1_555
Nb4 O70 2.067634 1_555
Nb4 O71 2.069257 1_555
O0 P0 1.504919 1_545
O1 P1 1.495151 1_555
O2 P2 1.484375 1_655
O3 P3 1.506310 1_555
O4 P4 1.506281 1_655
O5 P5 1.506218 1_545
O6 P5 1.557778 1_555
O7 P3 1.557596 1_555
O8 P4 1.557393 1_555
O9 P1 1.606873 1_555
O10 P2 1.615206 1_555
O11 P0 1.622396 1_555
O12 P6 1.518778 1_555
O13 P7 1.520153 1_555
O14 P8 1.517953 1_555
O15 P9 1.506274 1_555
O16 P10 1.486555 1_555
O17 P11 1.495046 1_555
O18 P11 1.614038 1_555
O19 P9 1.618280 1_555
O20 P10 1.608876 1_555
O21 P7 1.615897 1_555
O22 P8 1.618432 1_555
O23 P6 1.618895 1_555
O24 P12 1.498738 1_555
O25 P13 1.485087 1_555
O26 P14 1.485332 1_555
O27 P15 1.508900 1_555
O28 P16 1.503767 1_555
O29 P17 1.512379 1_555
O30 P17 1.602471 1_555
O31 P15 1.621732 1_555
O32 P16 1.607093 1_555
O33 P13 1.644214 1_555
O34 P14 1.639673 1_555
O35 P12 1.641953 1_555
O36 P17 1.515414 1_555
O37 P15 1.498733 1_545
O38 P16 1.513978 1_555
O39 P13 1.503753 1_655
O40 P14 1.504031 1_545
O41 P12 1.504909 1_555
O42 P6 1.541802 1_555
O43 P7 1.545445 1_555
O44 P8 1.542009 1_555
O45 P9 1.621342 1_555
O46 P10 1.619477 1_555
O47 P11 1.605361 1_555
O48 P5 1.544074 1_545
O49 P3 1.544585 1_555
O50 P4 1.543783 1_655
O51 P1 1.518870 1_555
O52 P2 1.519429 1_655
O53 P0 1.504410 1_545
O54 P12 1.591760 1_555
O55 P13 1.596566 1_655
O56 P14 1.597384 1_545
O57 P15 1.606234 1_545
O58 P16 1.599562 1_555
O59 P17 1.594316 1_655
O60 P11 1.516224 1_555
O61 P9 1.505731 1_455
O62 P10 1.520506 1_565
O63 P7 1.536997 1_565
O64 P8 1.532807 1_555
O65 P6 1.533402 1_455
O66 P0 1.623051 1_555
O67 P1 1.618909 1_555
O68 P2 1.616015 1_555
O69 P3 1.597147 1_555
O70 P4 1.596590 1_555
O71 P5 1.596513 1_555
