# generated using pymatgen
data_SiAs2
_symmetry_space_group_name_H-M   'P 1'
_cell_length_a   6.10401400
_cell_length_b   6.10401400
_cell_length_c   6.10401400
_cell_angle_alpha   90.00000000
_cell_angle_beta   90.00000000
_cell_angle_gamma   90.00000000
_symmetry_Int_Tables_number   1
_chemical_formula_structural   SiAs2
_chemical_formula_sum   'Si4 As8'
_cell_volume   227.42937774
_cell_formula_units_Z   4
loop_
 _symmetry_equiv_pos_site_id
 _symmetry_equiv_pos_as_xyz
  1  'x, y, z'
loop_
 _atom_site_type_symbol
 _atom_site_label
 _atom_site_symmetry_multiplicity
 _atom_site_fract_x
 _atom_site_fract_y
 _atom_site_fract_z
 _atom_site_occupancy
  Si  Si0  1  0.00000000  0.00000000  0.00000000  1
  Si  Si1  1  0.50000000  0.00000000  0.50000000  1
  Si  Si2  1  0.50000000  0.50000000  0.00000000  1
  Si  Si3  1  0.00000000  0.50000000  0.50000000  1
  As  As0  1  0.38428700  0.38428700  0.38428700  1
  As  As1  1  0.11571300  0.61571300  0.88428700  1
  As  As2  1  0.88428700  0.11571300  0.61571300  1
  As  As3  1  0.61571300  0.88428700  0.11571300  1
  As  As4  1  0.61571300  0.61571300  0.61571300  1
  As  As5  1  0.88428700  0.38428700  0.11571300  1
  As  As6  1  0.11571300  0.88428700  0.38428700  1
  As  As7  1  0.38428700  0.11571300  0.88428700  1
loop_
_geom_bond_atom_site_label_1
_geom_bond_atom_site_label_2
_geom_bond_distance
_geom_bond_site_symmetry_2
As0 As4 2.446743 1_555
As0 Si3 2.549517 1_555
As0 Si2 2.549517 1_555
As0 Si1 2.549517 1_555
As1 As5 2.446743 1_456
As1 Si2 2.549517 1_556
As1 Si0 2.549517 1_566
As1 Si3 2.549517 1_555
As2 As6 2.446743 1_645
As2 Si3 2.549517 1_655
As2 Si0 2.549517 1_656
As2 Si1 2.549517 1_555
As3 As7 2.446743 1_564
As3 Si1 2.549517 1_565
As3 Si2 2.549517 1_555
As3 Si0 2.549517 1_665
As4 Si1 2.549517 1_565
As4 Si3 2.549517 1_655
As4 Si2 2.549517 1_556
As5 Si3 2.549517 1_655
As5 Si0 2.549517 1_655
As5 Si2 2.549517 1_555
As6 Si1 2.549517 1_565
As6 Si0 2.549517 1_565
As6 Si3 2.549517 1_555
As7 Si0 2.549517 1_556
As7 Si2 2.549517 1_556
As7 Si1 2.549517 1_555
