# generated using pymatgen
data_NaZr2Zn2PS5O24
_symmetry_space_group_name_H-M   'P 1'
_cell_length_a   9.42055841
_cell_length_b   9.26434681
_cell_length_c   23.03759805
_cell_angle_alpha   88.89524195
_cell_angle_beta   90.20297590
_cell_angle_gamma   120.99321985
_symmetry_Int_Tables_number   1
_chemical_formula_structural   NaZr2Zn2PS5O24
_chemical_formula_sum   'Na3 Zr6 Zn6 P3 S15 O72'
_cell_volume   1723.18667561
_cell_formula_units_Z   3
loop_
 _symmetry_equiv_pos_site_id
 _symmetry_equiv_pos_as_xyz
  1  'x, y, z'
loop_
 _atom_site_type_symbol
 _atom_site_label
 _atom_site_symmetry_multiplicity
 _atom_site_fract_x
 _atom_site_fract_y
 _atom_site_fract_z
 _atom_site_occupancy
  Na  Na0  1  0.74026213  0.43519495  0.83228948  1
  Na  Na1  1  0.60366935  0.29632870  0.30330586  1
  Na  Na2  1  0.30316303  0.71525500  0.16188887  1
  Zr  Zr0  1  0.01691399  0.01892987  0.35412927  1
  Zr  Zr1  1  0.98452453  0.01215473  0.63871077  1
  Zr  Zr2  1  0.00491236  0.00930259  0.14108466  1
  Zr  Zr3  1  0.66944777  0.33147030  0.98410479  1
  Zr  Zr4  1  0.34425616  0.66165922  0.31265936  1
  Zr  Zr5  1  0.31742166  0.65587709  0.80838627  1
  Zn  Zn0  1  0.05645242  0.14529849  0.78769011  1
  Zn  Zn1  1  0.66175009  0.35045515  0.65060563  1
  Zn  Zn2  1  0.62589665  0.31073749  0.15797554  1
  Zn  Zn3  1  0.63333544  0.34394350  0.49276912  1
  Zn  Zn4  1  0.26601136  0.61794728  0.01806724  1
  Zn  Zn5  1  0.27295779  0.67829359  0.54431630  1
  P  P0  1  0.15093334  0.85261010  0.25588086  1
  P  P1  1  0.72798943  0.86186984  0.26326079  1
  P  P2  1  0.02440891  0.51737641  0.90425505  1
  S  S0  1  0.24056764  0.31931359  0.23504288  1
  S  S1  1  0.30960707  0.38152480  0.70096945  1
  S  S2  1  0.02891188  0.73161969  0.73891712  1
  S  S3  1  0.64134895  0.96536419  0.72175538  1
  S  S4  1  0.91449878  0.31763093  0.58161432  1
  S  S5  1  0.34902960  0.05503845  0.57813806  1
  S  S6  1  0.69431737  0.63978273  0.57332856  1
  S  S7  1  0.93249693  0.62002644  0.08603820  1
  S  S8  1  0.70319851  0.02124812  0.05304639  1
  S  S9  1  0.27704198  0.26355743  0.03221510  1
  S  S10  1  0.40789477  0.40486411  0.89487249  1
  S  S11  1  0.56343057  0.00676830  0.89422412  1
  S  S12  1  0.70206559  0.02062080  0.33458601  1
  S  S13  1  0.39975694  0.34967070  0.38660398  1
  S  S14  1  0.96371144  0.61038031  0.34906658  1
  O  O0  1  0.19009898  0.98709087  0.30087720  1
  O  O1  1  0.81769808  0.80296456  0.30320651  1
  O  O2  1  0.00342124  0.16415532  0.30140264  1
  O  O3  1  0.20392865  0.13252085  0.84288351  1
  O  O4  1  0.01047911  0.66893663  0.89163596  1
  O  O5  1  0.87450692  0.08871488  0.84658537  1
  O  O6  1  0.81186646  0.96467588  0.70239643  1
  O  O7  1  0.13995079  0.20425585  0.70454294  1
  O  O8  1  0.05744486  0.86802438  0.69471382  1
  O  O9  1  0.81010876  0.92300044  0.20308887  1
  O  O10  1  0.10972028  0.23114924  0.18841952  1
  O  O11  1  0.11533051  0.90018810  0.19563465  1
  O  O12  1  0.84652961  0.31237546  0.64089347  1
  O  O13  1  0.47294303  0.12326189  0.62525534  1
  O  O14  1  0.64931221  0.54943233  0.63319933  1
  O  O15  1  0.82703059  0.51686728  0.13590827  1
  O  O16  1  0.57342413  0.08315337  0.17816368  1
  O  O17  1  0.40330857  0.38890143  0.18886205  1
  O  O18  1  0.46610565  0.30788066  0.02890820  1
  O  O19  1  0.84346773  0.54928079  0.02957495  1
  O  O20  1  0.71693134  0.20286638  0.04703767  1
  O  O21  1  0.42297621  0.13158830  0.52100494  1
  O  O22  1  0.76315301  0.55207688  0.53783009  1
  O  O23  1  0.78724382  0.25303602  0.53703185  1
  O  O24  1  0.60578864  0.65536540  0.09973008  1
  O  O25  1  0.13909175  0.51407590  0.95087581  1
  O  O26  1  0.39776533  0.84755927  0.03180574  1
  O  O27  1  0.35309684  0.44818343  0.57102655  1
  O  O28  1  0.04879385  0.49285235  0.56938290  1
  O  O29  1  0.60350183  0.90672421  0.57844081  1
  O  O30  1  0.12242988  0.60249817  0.35704585  1
  O  O31  1  0.51184506  0.89366495  0.34739346  1
  O  O32  1  0.37393151  0.49969101  0.36628964  1
  O  O33  1  0.08915627  0.47678779  0.84501812  1
  O  O34  1  0.40768111  0.86231984  0.86838378  1
  O  O35  1  0.44541314  0.56636483  0.86195598  1
  O  O36  1  0.98562372  0.75157308  0.38519977  1
  O  O37  1  0.78497650  0.98420836  0.38663469  1
  O  O38  1  0.22301598  0.20606544  0.40320817  1
  O  O39  1  0.73273913  0.97651955  0.99582303  1
  O  O40  1  0.83761186  0.96808429  0.88290151  1
  O  O41  1  0.37489284  0.27381366  0.83978635  1
  O  O42  1  0.98467015  0.20195501  0.58644608  1
  O  O43  1  0.21273509  0.08818478  0.59232930  1
  O  O44  1  0.85778641  0.81468103  0.58742367  1
  O  O45  1  0.95625918  0.79133010  0.08946582  1
  O  O46  1  0.86919113  0.07495793  0.08931265  1
  O  O47  1  0.21695758  0.14605204  0.08715057  1
  O  O48  1  0.70374939  0.09845869  0.76511298  1
  O  O49  1  0.53464406  0.23128595  0.75681121  1
  O  O50  1  0.66729100  0.37504745  0.73602218  1
  O  O51  1  0.99102707  0.67632744  0.27613447  1
  O  O52  1  0.54037727  0.38580147  0.21937120  1
  O  O53  1  0.63702928  0.12337107  0.23140309  1
  O  O54  1  0.58000155  0.43956892  0.91248082  1
  O  O55  1  0.84041081  0.36328879  0.91950172  1
  O  O56  1  0.51179362  0.09551715  0.93582675  1
  O  O57  1  0.68929015  0.26052826  0.39512416  1
  O  O58  1  0.49667832  0.41212885  0.44154409  1
  O  O59  1  0.79606381  0.38219796  0.42837325  1
  O  O60  1  0.28854557  0.42520467  0.05099785  1
  O  O61  1  0.08975467  0.62305586  0.08724511  1
  O  O62  1  0.51591605  0.71051397  0.11307743  1
  O  O63  1  0.26762731  0.86779724  0.57645237  1
  O  O64  1  0.53984237  0.85050892  0.52903271  1
  O  O65  1  0.32084816  0.49927602  0.52272922  1
  O  O66  1  0.28872386  0.80967725  0.25204462  1
  O  O67  1  0.54230091  0.73018161  0.25509397  1
  O  O68  1  0.23235644  0.47898068  0.24441678  1
  O  O69  1  0.27340331  0.47367076  0.74855816  1
  O  O70  1  0.19689721  0.75525770  0.75557279  1
  O  O71  1  0.53797506  0.79366127  0.75651988  1
loop_
_geom_bond_atom_site_label_1
_geom_bond_atom_site_label_2
_geom_bond_distance
_geom_bond_site_symmetry_2
Na0 O50 2.311689 1_555
Na0 O54 2.404073 1_555
Na0 O55 2.439844 1_555
Na0 O49 2.584293 1_555
Na1 O52 2.284870 1_555
Na1 O57 2.339092 1_555
Na1 O53 2.456580 1_555
Na2 O66 2.300462 1_555
Na2 O62 2.322065 1_555
Na2 O61 2.447874 1_555
Na2 O68 2.682511 1_555
O0 P0 1.528586 1_555
O0 Zr0 2.185769 1_565
O1 P1 1.519530 1_555
O1 Zr0 2.260374 1_665
O2 Zr0 1.847648 1_555
O3 O41 1.462363 1_555
O3 Zn0 1.926659 1_555
O4 P2 1.498999 1_555
O5 Zn0 2.029115 1_655
O6 S3 1.671856 1_555
O6 Zr1 2.060793 1_565
O7 S1 1.597126 1_555
O7 Zn0 2.028328 1_555
O7 Zr1 2.239639 1_455
O8 S2 1.519438 1_555
O8 Zr1 2.188919 1_465
O9 P1 1.538479 1_555
O9 Zr2 2.123888 1_665
O10 S0 1.525714 1_555
O10 Zr2 2.092135 1_555
O11 P0 1.535737 1_555
O11 Zr2 2.169760 1_565
O12 S4 1.499629 1_555
O12 Zn1 1.960330 1_555
O13 S5 1.482573 1_555
O13 Zn1 2.029622 1_555
O14 S6 1.541732 1_555
O14 Zn1 1.940680 1_555
O15 S7 1.486033 1_555
O15 Zn2 1.933487 1_555
O16 O53 1.335916 1_555
O16 Zn2 1.948469 1_555
O17 O52 1.480938 1_555
O17 S0 1.692669 1_555
O18 S9 1.610351 1_555
O18 Zr3 2.087294 1_554
O19 S7 1.511304 1_555
O19 Zr3 2.125823 1_554
O20 S8 1.622936 1_555
O20 Zr3 2.049210 1_554
O21 S5 1.477275 1_555
O21 Zn3 2.040912 1_555
O22 S6 1.523665 1_555
O22 Zn3 1.982654 1_555
O23 S4 1.458180 1_555
O23 Zn3 2.250625 1_555
O24 O62 1.235230 1_555
O25 P2 1.531739 1_555
O25 Zn4 1.900282 1_556
O26 Zn4 1.862732 1_555
O27 O65 1.296047 1_555
O28 S4 1.478153 1_455
O28 Zn5 1.994616 1_555
O29 O64 1.273909 1_555
O30 S14 1.544272 1_455
O30 Zr4 2.127662 1_555
O31 S12 1.581568 1_565
O31 Zr4 2.077328 1_555
O32 S13 1.591292 1_555
O32 Zr4 2.052880 1_555
O33 P2 1.624094 1_555
O33 Zr5 2.091313 1_555
O34 S11 1.516708 1_565
O34 Zr5 2.170286 1_555
O35 S10 1.533658 1_555
O35 Zr5 2.155072 1_555
O36 S14 1.486352 1_555
O36 Zr0 2.432162 1_665
O37 S12 1.552665 1_565
O37 Zr0 2.171830 1_665
O38 S13 1.546647 1_555
O38 Zr0 2.155740 1_555
O39 S8 1.459270 1_566
O40 O5 1.278939 1_565
O41 S10 1.687917 1_555
O42 S4 1.523912 1_555
O42 Zr1 2.111283 1_555
O43 S5 1.504216 1_555
O43 Zr1 2.165069 1_455
O44 S6 1.596666 1_555
O44 Zr1 1.998071 1_565
O45 S7 1.487885 1_555
O45 Zr2 2.199456 1_665
O46 S8 1.611321 1_555
O46 Zr2 2.046803 1_655
O47 S9 1.557085 1_555
O47 Zr2 2.118905 1_555
O48 S3 1.469861 1_545
O49 O50 1.352909 1_555
O50 Zn1 1.982713 1_555
O51 P0 1.611227 1_655
O51 S14 1.750446 1_555
O52 Zn2 1.938095 1_555
O53 Zn2 2.441022 1_555
O54 S10 1.536289 1_555
O54 Zr3 2.287162 1_555
O55 P2 1.613192 1_655
O55 Zr3 2.099281 1_555
O56 S11 1.508913 1_555
O56 Zr3 2.227037 1_555
O57 O59 1.314995 1_555
O58 S13 1.498799 1_555
O58 Zn3 2.060839 1_555
O59 Zn3 2.028011 1_555
O60 S9 1.516302 1_555
O60 Zn4 2.036198 1_555
O61 S7 1.467375 1_455
O61 Zn4 2.324163 1_555
O63 S5 1.493672 1_565
O63 Zn5 1.942686 1_555
O64 Zn5 2.200943 1_555
O65 Zn5 2.001349 1_555
O66 P0 1.544303 1_555
O66 Zr4 2.182636 1_555
O67 P1 1.546754 1_555
O67 Zr4 2.099485 1_555
O68 S0 1.539793 1_555
O68 Zr4 2.168088 1_555
O69 S1 1.544541 1_555
O69 Zr5 2.070229 1_555
O70 S2 1.530220 1_555
O70 Zr5 2.154250 1_555
O71 S3 1.575178 1_555
O71 Zr5 2.145105 1_555
