# generated using pymatgen
data_Na6Hf4Mg4Si3(S3O16)3
_symmetry_space_group_name_H-M   'P 1'
_cell_length_a   17.78927538
_cell_length_b   8.83950794
_cell_length_c   22.96776232
_cell_angle_alpha   90.02010629
_cell_angle_beta   90.25722826
_cell_angle_gamma   119.87027439
_symmetry_Int_Tables_number   1
_chemical_formula_structural   Na6Hf4Mg4Si3(S3O16)3
_chemical_formula_sum   'Na18 Hf12 Mg12 Si9 S27 O144'
_cell_volume   3131.81127668
_cell_formula_units_Z   3
loop_
 _symmetry_equiv_pos_site_id
 _symmetry_equiv_pos_as_xyz
  1  'x, y, z'
loop_
 _atom_site_type_symbol
 _atom_site_label
 _atom_site_symmetry_multiplicity
 _atom_site_fract_x
 _atom_site_fract_y
 _atom_site_fract_z
 _atom_site_occupancy
  Na  Na0  1  0.99912160  0.63405656  0.25242853  1
  Na  Na1  1  0.49768289  0.62370561  0.24144906  1
  Na  Na2  1  0.00359145  0.36829154  0.74132855  1
  Na  Na3  1  0.49953332  0.36773344  0.75200545  1
  Na  Na4  1  0.67364313  0.32155290  0.90911389  1
  Na  Na5  1  0.17158750  0.02959899  0.41411671  1
  Na  Na6  1  0.99117661  0.01337244  0.50201244  1
  Na  Na7  1  0.50640115  0.01486399  0.49969785  1
  Na  Na8  1  0.00381133  0.99318610  0.99174879  1
  Na  Na9  1  0.49118679  0.96806108  0.99489627  1
  Na  Na10  1  0.30524690  0.30065814  0.82973056  1
  Na  Na11  1  0.83648320  0.35944838  0.83621012  1
  Na  Na12  1  0.33131253  0.30972471  0.33935428  1
  Na  Na13  1  0.81840629  0.32893091  0.33827929  1
  Na  Na14  1  0.17669992  0.65080948  0.16461379  1
  Na  Na15  1  0.66439408  0.66157617  0.16414080  1
  Na  Na16  1  0.16312103  0.64974915  0.67365452  1
  Na  Na17  1  0.67967422  0.70649105  0.66763615  1
  Hf  Hf0  1  0.50029081  0.01314470  0.36008132  1
  Hf  Hf1  1  0.00723185  0.99567088  0.85669343  1
  Hf  Hf2  1  0.00349116  0.01931450  0.64806188  1
  Hf  Hf3  1  0.50350513  0.99582845  0.64667716  1
  Hf  Hf4  1  0.00364562  0.01053208  0.14549759  1
  Hf  Hf5  1  0.49895298  0.99196739  0.14420913  1
  Hf  Hf6  1  0.32629310  0.33594415  0.98283563  1
  Hf  Hf7  1  0.82591148  0.31773483  0.48507404  1
  Hf  Hf8  1  0.16522542  0.66400490  0.01636966  1
  Hf  Hf9  1  0.66836245  0.67241594  0.01658656  1
  Hf  Hf10  1  0.16874408  0.66443961  0.51902569  1
  Hf  Hf11  1  0.66521483  0.66114127  0.51870734  1
  Mg  Mg0  1  0.99597210  0.00041479  0.35063024  1
  Mg  Mg1  1  0.49624331  0.99097902  0.84952512  1
  Mg  Mg2  1  0.32193666  0.32741886  0.68779560  1
  Mg  Mg3  1  0.83493025  0.32275008  0.67906412  1
  Mg  Mg4  1  0.33268412  0.34351523  0.17802554  1
  Mg  Mg5  1  0.83018752  0.32953075  0.18338678  1
  Mg  Mg6  1  0.83869681  0.34275456  0.98030245  1
  Mg  Mg7  1  0.33755945  0.33341462  0.48234380  1
  Mg  Mg8  1  0.17346762  0.67374035  0.31835365  1
  Mg  Mg9  1  0.67334885  0.66311816  0.31732318  1
  Mg  Mg10  1  0.17158036  0.67597591  0.81289064  1
  Mg  Mg11  1  0.67655005  0.67753932  0.81697194  1
  Si  Si0  1  0.15179286  0.30690166  0.75323318  1
  Si  Si1  1  0.98103221  0.33781613  0.58591666  1
  Si  Si2  1  0.68588633  0.03452008  0.58724449  1
  Si  Si3  1  0.48236891  0.61876859  0.08734998  1
  Si  Si4  1  0.18706571  0.34033607  0.08723152  1
  Si  Si5  1  0.81331279  0.66107848  0.91538536  1
  Si  Si6  1  0.17325226  0.96043142  0.91399747  1
  Si  Si7  1  0.31034168  0.96579051  0.41572760  1
  Si  Si8  1  0.67386419  0.38149201  0.41381813  1
  S  S0  1  0.14692453  0.99967541  0.25218057  1
  S  S1  1  0.64756116  0.00093006  0.25048702  1
  S  S2  1  0.35370608  0.70732252  0.25126839  1
  S  S3  1  0.85333471  0.70744450  0.24907690  1
  S  S4  1  0.99881531  0.29529074  0.25141286  1
  S  S5  1  0.49899723  0.29397210  0.24997702  1
  S  S6  1  0.64687257  0.29436077  0.75239002  1
  S  S7  1  0.99555067  0.70226534  0.74879978  1
  S  S8  1  0.50195913  0.70519943  0.75156798  1
  S  S9  1  0.35638675  0.00230062  0.74910259  1
  S  S10  1  0.85209823  0.99901242  0.75135694  1
  S  S11  1  0.47711381  0.33368615  0.58652338  1
  S  S12  1  0.18794163  0.04262900  0.58206535  1
  S  S13  1  0.33424795  0.61929385  0.58310111  1
  S  S14  1  0.83330209  0.62386134  0.58461897  1
  S  S15  1  0.97793662  0.62116631  0.08673172  1
  S  S16  1  0.33276914  0.04283687  0.08490422  1
  S  S17  1  0.83287289  0.04726362  0.08431102  1
  S  S18  1  0.68869781  0.33373391  0.08379343  1
  S  S19  1  0.31529768  0.67335189  0.91452407  1
  S  S20  1  0.01798205  0.37347959  0.91439425  1
  S  S21  1  0.51949733  0.37187127  0.91341438  1
  S  S22  1  0.66461768  0.96094236  0.91490583  1
  S  S23  1  0.81402446  0.95712724  0.41419353  1
  S  S24  1  0.16485968  0.36964163  0.41456539  1
  S  S25  1  0.01997408  0.66746003  0.41279153  1
  S  S26  1  0.52001338  0.66256853  0.41293295  1
  O  O0  1  0.10508559  0.01814714  0.30536835  1
  O  O1  1  0.60468951  0.02232555  0.30223409  1
  O  O2  1  0.41065798  0.80245427  0.30162326  1
  O  O3  1  0.90863398  0.78967143  0.30105479  1
  O  O4  1  0.49473804  0.18935895  0.30221436  1
  O  O5  1  0.98796569  0.18857025  0.30278916  1
  O  O6  1  0.09573771  0.17928892  0.80755539  1
  O  O7  1  0.60517653  0.19240020  0.80573611  1
  O  O8  1  0.49045304  0.78956271  0.80293212  1
  O  O9  1  0.98706347  0.79017654  0.80180666  1
  O  O10  1  0.41131345  0.02869555  0.80109216  1
  O  O11  1  0.90561034  0.01280706  0.80254883  1
  O  O12  1  0.40159049  0.98116875  0.69690911  1
  O  O13  1  0.89410176  0.97732891  0.69725107  1
  O  O14  1  0.08753570  0.20395875  0.69481708  1
  O  O15  1  0.58812059  0.19424589  0.70096868  1
  O  O16  1  0.00180609  0.80764451  0.69647736  1
  O  O17  1  0.51129579  0.81381988  0.69813486  1
  O  O18  1  0.39844741  0.81462110  0.19753095  1
  O  O19  1  0.89887978  0.81462589  0.19658393  1
  O  O20  1  0.00784707  0.20615949  0.19794512  1
  O  O21  1  0.50792809  0.20397130  0.19750443  1
  O  O22  1  0.08787251  0.98203364  0.20078578  1
  O  O23  1  0.59062724  0.97818416  0.19783983  1
  O  O24  1  0.44021867  0.35850980  0.64020262  1
  O  O25  1  0.94659266  0.36622178  0.64709277  1
  O  O26  1  0.24213013  0.12536721  0.63327359  1
  O  O27  1  0.73992501  0.11783594  0.64482264  1
  O  O28  1  0.32513069  0.51828294  0.63528266  1
  O  O29  1  0.81892158  0.51926763  0.63665163  1
  O  O30  1  0.44755007  0.52475522  0.14921034  1
  O  O31  1  0.94097591  0.52324250  0.14127375  1
  O  O32  1  0.32053762  0.11954462  0.13758219  1
  O  O33  1  0.82235326  0.12771394  0.13720107  1
  O  O34  1  0.24006897  0.36506189  0.14551441  1
  O  O35  1  0.74108002  0.35662663  0.13593908  1
  O  O36  1  0.22922213  0.30798965  0.02821670  1
  O  O37  1  0.72283291  0.29991492  0.03060506  1
  O  O38  1  0.42098741  0.52390428  0.03106941  1
  O  O39  1  0.92454593  0.53737248  0.03560619  1
  O  O40  1  0.34639315  0.14758181  0.03211582  1
  O  O41  1  0.84581371  0.15007942  0.03183751  1
  O  O42  1  0.22274186  0.14372133  0.52814999  1
  O  O43  1  0.72678642  0.14991730  0.52754740  1
  O  O44  1  0.34716177  0.54464528  0.52983553  1
  O  O45  1  0.84342436  0.54098927  0.53110354  1
  O  O46  1  0.42544715  0.31141118  0.53434635  1
  O  O47  1  0.92070221  0.31612330  0.52891617  1
  O  O48  1  0.27171586  0.68860144  0.96862957  1
  O  O49  1  0.76559815  0.68844027  0.97445012  1
  O  O50  1  0.07497573  0.46117753  0.96732212  1
  O  O51  1  0.57837430  0.46505290  0.96491599  1
  O  O52  1  0.16117841  0.84893628  0.97493907  1
  O  O53  1  0.65020188  0.84966679  0.96844871  1
  O  O54  1  0.26486368  0.84220055  0.47320342  1
  O  O55  1  0.76962516  0.85234639  0.46719278  1
  O  O56  1  0.15132682  0.45284212  0.46751726  1
  O  O57  1  0.65878416  0.46964486  0.47261570  1
  O  O58  1  0.07861848  0.69222351  0.46369296  1
  O  O59  1  0.57686072  0.69037940  0.46488985  1
  O  O60  1  0.05619924  0.64018304  0.35845663  1
  O  O61  1  0.55918458  0.64250340  0.35919960  1
  O  O62  1  0.24837771  0.88140288  0.35976495  1
  O  O63  1  0.76179652  0.88142387  0.36142409  1
  O  O64  1  0.17299247  0.47131648  0.36217547  1
  O  O65  1  0.68241252  0.48622754  0.35588867  1
  O  O66  1  0.05687226  0.47425550  0.86168810  1
  O  O67  1  0.55589563  0.47216370  0.85967499  1
  O  O68  1  0.18107358  0.86538996  0.85840049  1
  O  O69  1  0.67229847  0.87412565  0.86308028  1
  O  O70  1  0.26345028  0.64695345  0.86248650  1
  O  O71  1  0.74585696  0.61324742  0.86189732  1
  O  O72  1  0.01651229  0.83282070  0.40965573  1
  O  O73  1  0.51307046  0.82472279  0.40911069  1
  O  O74  1  0.40649934  0.97809606  0.41002648  1
  O  O75  1  0.90040011  0.97074642  0.41078474  1
  O  O76  1  0.08787931  0.18942568  0.41085723  1
  O  O77  1  0.58709852  0.18196192  0.41158354  1
  O  O78  1  0.01057147  0.19804608  0.91253876  1
  O  O79  1  0.51651428  0.20000097  0.91093784  1
  O  O80  1  0.08635801  0.98363062  0.91347975  1
  O  O81  1  0.58785825  0.98734745  0.91148551  1
  O  O82  1  0.40222167  0.83208607  0.91195278  1
  O  O83  1  0.90661647  0.84016086  0.90942539  1
  O  O84  1  0.48755705  0.17424027  0.59194816  1
  O  O85  1  0.98791682  0.15608898  0.58650145  1
  O  O86  1  0.09769670  0.01391122  0.59025918  1
  O  O87  1  0.58690535  0.01185553  0.59002095  1
  O  O88  1  0.41072404  0.80190599  0.59021302  1
  O  O89  1  0.91211874  0.79902278  0.58869869  1
  O  O90  1  0.49161232  0.81904950  0.09031506  1
  O  O91  1  0.98716472  0.80012686  0.09263243  1
  O  O92  1  0.41273041  0.02393279  0.09047012  1
  O  O93  1  0.90957423  0.01994697  0.09209735  1
  O  O94  1  0.08762865  0.16464139  0.09085203  1
  O  O95  1  0.59814257  0.18005438  0.09292673  1
  O  O96  1  0.35336086  0.16638373  0.74149328  1
  O  O97  1  0.84917133  0.16337273  0.74792522  1
  O  O98  1  0.24420816  0.31927549  0.74774549  1
  O  O99  1  0.73354652  0.31864834  0.74542863  1
  O  O100  1  0.42641818  0.52916387  0.74324934  1
  O  O101  1  0.91728782  0.52704921  0.74635823  1
  O  O102  1  0.34997408  0.53680438  0.24817496  1
  O  O103  1  0.84672359  0.53230670  0.24253790  1
  O  O104  1  0.41871857  0.30364747  0.24820811  1
  O  O105  1  0.92156770  0.31755534  0.24400069  1
  O  O106  1  0.23375906  0.14914944  0.24514093  1
  O  O107  1  0.73361728  0.15492807  0.24305013  1
  O  O108  1  0.32702976  0.51765748  0.92172738  1
  O  O109  1  0.82221033  0.48818560  0.92463288  1
  O  O110  1  0.43326919  0.34917409  0.92405240  1
  O  O111  1  0.93191734  0.35258994  0.92435448  1
  O  O112  1  0.25904149  0.15611713  0.92226126  1
  O  O113  1  0.74335209  0.13243864  0.92355424  1
  O  O114  1  0.32152460  0.15781842  0.42434735  1
  O  O115  1  0.82577162  0.13612346  0.42090347  1
  O  O116  1  0.24366178  0.35513425  0.42249987  1
  O  O117  1  0.75888869  0.35819017  0.42154412  1
  O  O118  1  0.43346881  0.51251361  0.42203735  1
  O  O119  1  0.93307178  0.51656132  0.42199924  1
  O  O120  1  0.17222128  0.50739440  0.07734490  1
  O  O121  1  0.67747411  0.49026856  0.07837325  1
  O  O122  1  0.06722418  0.64706026  0.08016207  1
  O  O123  1  0.58082255  0.65285028  0.07674839  1
  O  O124  1  0.25798996  0.86290555  0.07754710  1
  O  O125  1  0.75455955  0.86873037  0.07881919  1
  O  O126  1  0.17763908  0.86389808  0.57599263  1
  O  O127  1  0.67116722  0.83796063  0.57551409  1
  O  O128  1  0.25551295  0.63990474  0.57764570  1
  O  O129  1  0.75694471  0.65133227  0.57649348  1
  O  O130  1  0.07897226  0.50227691  0.57375070  1
  O  O131  1  0.56712379  0.48747090  0.57926826  1
  O  O132  1  0.14623910  0.83002481  0.25186516  1
  O  O133  1  0.65080881  0.83634907  0.25383810  1
  O  O134  1  0.26785320  0.69146599  0.25446150  1
  O  O135  1  0.76775405  0.69440058  0.25190784  1
  O  O136  1  0.07759121  0.47102423  0.25453422  1
  O  O137  1  0.57585613  0.47140914  0.25295270  1
  O  O138  1  0.15136951  0.48986286  0.75566457  1
  O  O139  1  0.64599941  0.46244974  0.75219190  1
  O  O140  1  0.07435943  0.68736851  0.75214882  1
  O  O141  1  0.58168307  0.69070065  0.75498968  1
  O  O142  1  0.27022390  0.84801954  0.75174108  1
  O  O143  1  0.76438554  0.84466525  0.75417839  1
loop_
_geom_bond_atom_site_label_1
_geom_bond_atom_site_label_2
_geom_bond_distance
_geom_bond_site_symmetry_2
Na0 O132 2.309712 1_655
Na0 O103 2.403306 1_555
Na0 O105 2.433231 1_555
Na0 O136 2.455811 1_655
Na0 O60 2.624344 1_655
Na0 O31 2.740878 1_555
Na0 O3 2.819800 1_555
Na0 O22 2.922851 1_655
Na1 O30 2.291999 1_555
Na1 O102 2.347677 1_555
Na1 O137 2.382804 1_555
Na1 O133 2.434508 1_555
Na1 O104 2.458689 1_555
Na2 O138 2.313479 1_555
Na2 O25 2.382187 1_455
Na2 O97 2.428526 1_455
Na2 O140 2.462040 1_555
Na2 O101 2.547024 1_455
Na2 O14 2.766802 1_555
Na2 O66 2.916833 1_555
Na3 O139 2.305809 1_555
Na3 O96 2.317712 1_555
Na3 O100 2.369595 1_555
Na3 O141 2.476672 1_555
Na3 O67 2.650853 1_555
Na3 O24 2.757492 1_555
Na3 O10 2.837073 1_555
Na3 O15 2.938000 1_555
Na4 O109 2.322746 1_555
Na4 O79 2.445187 1_555
Na4 O71 2.487929 1_555
Na4 O113 2.550263 1_555
Na4 O81 2.563092 1_545
Na4 O7 2.647919 1_555
Na4 O51 2.878115 1_555
Na4 O37 2.955281 1_556
Na5 O114 2.331762 1_555
Na5 O72 2.421579 1_545
Na5 O116 2.506750 1_555
Na5 O76 2.512695 1_555
Na5 O62 2.633837 1_545
Na5 O0 2.739038 1_555
Na5 O42 2.787065 1_555
Na5 O58 2.834070 1_545
Na6 O85 2.330804 1_555
Na6 O75 2.550091 1_545
Na6 O89 2.627835 1_545
Na6 O76 2.670667 1_655
Na6 O86 2.766819 1_655
Na6 O72 2.823583 1_645
Na7 O77 2.500869 1_555
Na7 O87 2.523208 1_555
Na7 O74 2.626230 1_545
Na7 O84 2.657264 1_555
Na7 O73 2.714080 1_545
Na7 O88 2.757819 1_545
Na8 O80 2.354189 1_555
Na8 O83 2.456326 1_455
Na8 O78 2.528005 1_565
Na8 O94 2.723486 1_566
Na8 O91 2.806132 1_456
Na8 O93 2.933878 1_466
Na9 O82 2.378038 1_555
Na9 O81 2.528714 1_555
Na9 O90 2.559252 1_556
Na9 O79 2.686150 1_565
Na9 O92 2.779159 1_566
Na9 O95 2.933984 1_566
Na10 O98 2.216238 1_555
Na10 O112 2.407520 1_555
Na10 O96 2.697095 1_555
Na10 O108 2.746554 1_555
Na10 O100 2.894133 1_555
Na10 O110 3.007639 1_555
Na11 O109 2.403062 1_555
Na11 O101 2.535257 1_555
Na11 O111 2.656339 1_555
Na11 O99 2.671711 1_555
Na11 O113 2.741730 1_555
Na11 O97 2.749160 1_555
Na12 O114 2.327245 1_555
Na12 O118 2.616099 1_555
Na12 O116 2.624655 1_555
Na12 O104 2.629703 1_555
Na12 O106 2.686862 1_555
Na12 O102 2.805424 1_555
Na13 O117 2.266229 1_555
Na13 O115 2.597227 1_555
Na13 O107 2.661170 1_555
Na13 O119 2.683603 1_555
Na13 O103 2.726125 1_555
Na13 O105 2.878560 1_555
Na14 O120 2.350987 1_555
Na14 O134 2.531007 1_555
Na14 O124 2.633083 1_555
Na14 O136 2.672726 1_555
Na14 O122 2.730913 1_555
Na14 O132 2.771590 1_555
Na15 O123 2.470611 1_555
Na15 O121 2.565272 1_555
Na15 O137 2.619406 1_555
Na15 O125 2.621296 1_555
Na15 O135 2.638826 1_555
Na15 O133 2.657720 1_555
Na16 O138 2.302211 1_555
Na16 O140 2.530260 1_555
Na16 O142 2.561112 1_555
Na16 O130 2.688594 1_555
Na16 O128 2.783220 1_555
Na16 O126 2.864025 1_555
Na17 O143 2.419014 1_555
Na17 O127 2.454432 1_555
Na17 O141 2.621591 1_555
Na17 O129 2.683656 1_555
Na17 O139 2.740467 1_555
Na17 O131 2.824176 1_555
Hf0 O77 1.922955 1_555
Hf0 O74 1.923088 1_545
Hf0 O4 2.087102 1_555
Hf0 O73 2.114246 1_545
Hf0 O2 2.198808 1_545
Hf0 O1 2.256775 1_555
Hf1 O80 1.956163 1_555
Hf1 O6 1.964393 1_565
Hf1 O83 2.032236 1_455
Hf1 O9 2.088693 1_455
Hf1 O78 2.177315 1_565
Hf1 O11 2.256144 1_465
Hf2 O14 1.898982 1_555
Hf2 O85 1.966965 1_455
Hf2 O13 2.121679 1_445
Hf2 O86 2.161696 1_555
Hf2 O16 2.164298 1_545
Hf2 O89 2.262385 1_445
Hf3 O87 1.929410 1_565
Hf3 O17 2.055829 1_555
Hf3 O15 2.061256 1_565
Hf3 O12 2.102296 1_555
Hf3 O88 2.122611 1_555
Hf3 O84 2.142792 1_565
Hf4 O94 1.911497 1_555
Hf4 O22 2.068837 1_545
Hf4 O20 2.077487 1_555
Hf4 O93 2.105239 1_455
Hf4 O91 2.114579 1_445
Hf4 O19 2.157610 1_445
Hf5 O90 1.919377 1_555
Hf5 O95 2.088759 1_565
Hf5 O92 2.090658 1_565
Hf5 O23 2.090854 1_555
Hf5 O18 2.093613 1_555
Hf5 O21 2.175860 1_565
Hf6 O36 1.928906 1_556
Hf6 O112 1.995720 1_555
Hf6 O38 2.004885 1_556
Hf6 O108 2.128586 1_555
Hf6 O40 2.184488 1_556
Hf6 O110 2.293363 1_555
Hf7 O43 1.916388 1_555
Hf7 O47 1.966296 1_555
Hf7 O117 2.021870 1_555
Hf7 O45 2.119537 1_555
Hf7 O115 2.178014 1_555
Hf7 O119 2.347540 1_555
Hf8 O52 1.923699 1_554
Hf8 O120 2.016097 1_555
Hf8 O50 2.043586 1_554
Hf8 O48 2.108745 1_554
Hf8 O124 2.208212 1_555
Hf8 O122 2.229683 1_555
Hf9 O49 1.928673 1_554
Hf9 O123 2.028680 1_555
Hf9 O53 2.069748 1_554
Hf9 O51 2.095116 1_554
Hf9 O125 2.175717 1_555
Hf9 O121 2.211791 1_555
Hf10 O54 1.959970 1_555
Hf10 O130 1.980911 1_555
Hf10 O56 2.100460 1_555
Hf10 O128 2.134784 1_555
Hf10 O126 2.136389 1_555
Hf10 O58 2.149426 1_555
Hf11 O57 1.950356 1_555
Hf11 O127 1.997235 1_555
Hf11 O59 2.110091 1_555
Hf11 O129 2.133868 1_555
Hf11 O55 2.144900 1_555
Hf11 O131 2.165957 1_555
Mg0 O5 2.056630 1_555
Mg0 O3 2.068908 1_545
Mg0 O75 2.108409 1_545
Mg0 O0 2.141988 1_655
Mg0 O76 2.152944 1_655
Mg0 O72 2.168464 1_645
Mg1 O10 2.029315 1_565
Mg1 O8 2.034872 1_555
Mg1 O82 2.123454 1_555
Mg1 O7 2.125753 1_565
Mg1 O81 2.171098 1_555
Mg1 O79 2.205299 1_565
Mg2 O98 1.931593 1_555
Mg2 O28 2.052055 1_555
Mg2 O26 2.056790 1_555
Mg2 O96 2.155805 1_555
Mg2 O100 2.220944 1_555
Mg2 O24 2.267755 1_555
Mg3 O27 1.921871 1_555
Mg3 O25 1.971196 1_555
Mg3 O29 2.130504 1_555
Mg3 O97 2.214460 1_555
Mg3 O101 2.266917 1_555
Mg3 O99 2.353081 1_555
Mg4 O34 1.899976 1_555
Mg4 O30 1.982962 1_555
Mg4 O32 2.097593 1_555
Mg4 O102 2.253863 1_555
Mg4 O106 2.332280 1_555
Mg4 O104 2.362293 1_555
Mg5 O33 2.019133 1_555
Mg5 O35 2.029910 1_555
Mg5 O31 2.099673 1_555
Mg5 O107 2.143065 1_555
Mg5 O103 2.148158 1_555
Mg5 O105 2.177855 1_555
Mg6 O109 1.935663 1_555
Mg6 O39 2.066240 1_556
Mg6 O111 2.069886 1_555
Mg6 O41 2.128996 1_556
Mg6 O113 2.206674 1_555
Mg6 O37 2.229511 1_556
Mg7 O114 1.954255 1_555
Mg7 O46 2.048189 1_555
Mg7 O44 2.093925 1_555
Mg7 O118 2.160579 1_555
Mg7 O42 2.167824 1_555
Mg7 O116 2.239466 1_555
Mg8 O62 1.897588 1_555
Mg8 O64 2.049649 1_555
Mg8 O60 2.165486 1_555
Mg8 O134 2.181154 1_555
Mg8 O132 2.266380 1_555
Mg8 O136 2.280335 1_555
Mg9 O65 1.872515 1_555
Mg9 O63 2.045824 1_555
Mg9 O135 2.171305 1_555
Mg9 O61 2.175286 1_555
Mg9 O137 2.261226 1_555
Mg9 O133 2.289012 1_555
Mg10 O68 1.907878 1_555
Mg10 O138 1.992078 1_555
Mg10 O70 2.106045 1_555
Mg10 O142 2.174870 1_555
Mg10 O66 2.235440 1_555
Mg10 O140 2.258209 1_555
Mg11 O71 1.895961 1_555
Mg11 O69 2.068150 1_555
Mg11 O143 2.103904 1_555
Mg11 O67 2.236839 1_555
Mg11 O141 2.249958 1_555
Mg11 O139 2.255098 1_555
O0 S0 1.483918 1_545
O1 S1 1.477035 1_555
O2 S2 1.487058 1_555
O3 S3 1.482519 1_555
O4 S5 1.494031 1_555
O5 S4 1.463228 1_555
O6 Si0 1.647787 1_555
O7 S6 1.485511 1_555
O8 S8 1.464014 1_555
O9 S7 1.492214 1_555
O10 S9 1.482315 1_555
O11 S10 1.475706 1_545
O12 S9 1.508873 1_565
O13 S10 1.513331 1_555
O14 Si0 1.698262 1_555
O15 S6 1.528803 1_555
O16 S7 1.490961 1_455
O17 S8 1.516378 1_555
O18 S2 1.521215 1_555
O19 S3 1.500872 1_555
O20 S4 1.510568 1_455
O21 S5 1.495847 1_555
O22 S0 1.531931 1_555
O23 S1 1.521297 1_565
O24 S11 1.466111 1_555
O25 Si1 1.604166 1_555
O26 S12 1.460962 1_555
O27 Si2 1.580525 1_555
O28 S13 1.455399 1_555
O29 S14 1.454778 1_555
O30 Si3 1.609017 1_555
O31 S15 1.480576 1_555
O32 S16 1.455920 1_555
O33 S17 1.466421 1_555
O34 Si4 1.584905 1_555
O35 S18 1.464811 1_555
O36 Si4 1.644325 1_555
O37 S18 1.462080 1_555
O38 Si3 1.625090 1_555
O39 S15 1.455400 1_555
O40 S16 1.471705 1_555
O41 S17 1.458201 1_555
O42 S12 1.473713 1_555
O43 Si2 1.649395 1_555
O44 S13 1.462129 1_555
O45 S14 1.487467 1_555
O46 S11 1.459231 1_555
O47 Si1 1.638518 1_555
O48 S19 1.508686 1_555
O49 Si5 1.683419 1_555
O50 S20 1.520543 1_555
O51 S21 1.517735 1_555
O52 Si6 1.664157 1_555
O53 S22 1.515919 1_555
O54 Si7 1.649512 1_555
O55 S23 1.498066 1_555
O56 S24 1.502102 1_555
O57 Si8 1.647302 1_555
O58 S25 1.504808 1_555
O59 S26 1.499494 1_555
O60 S25 1.480734 1_555
O61 S26 1.473361 1_555
O62 Si7 1.609708 1_555
O63 S23 1.466282 1_555
O64 S24 1.466076 1_555
O65 Si8 1.585230 1_555
O66 S20 1.460133 1_555
O67 S21 1.471325 1_555
O68 Si6 1.572579 1_555
O69 S22 1.459355 1_555
O70 S19 1.452287 1_555
O71 Si5 1.615235 1_555
O72 S25 1.495080 1_555
O73 S26 1.501274 1_555
O74 Si7 1.664851 1_555
O75 S23 1.482724 1_555
O76 S24 1.498729 1_555
O77 Si8 1.668351 1_555
O78 S20 1.490060 1_555
O79 S21 1.494582 1_555
O80 Si6 1.657478 1_555
O81 S22 1.497245 1_555
O82 S19 1.484273 1_555
O83 Si5 1.632364 1_555
O84 S11 1.515664 1_555
O85 Si1 1.670807 1_555
O86 S12 1.507964 1_555
O87 Si2 1.671603 1_555
O88 S13 1.514448 1_555
O89 S14 1.486042 1_555
O90 Si3 1.695814 1_555
O91 S15 1.512870 1_555
O92 S16 1.517492 1_555
O93 S17 1.509324 1_555
O94 Si4 1.677176 1_555
O95 S18 1.519180 1_555
O96 S9 1.488289 1_555
O97 S10 1.481598 1_545
O98 Si0 1.597920 1_555
O99 S6 1.456545 1_555
O100 S8 1.475913 1_555
O101 S7 1.480438 1_555
O102 S2 1.477026 1_555
O103 S3 1.500474 1_555
O104 S5 1.472947 1_555
O105 S4 1.491105 1_555
O106 S0 1.458588 1_545
O107 S1 1.467161 1_555
O108 S19 1.500327 1_555
O109 Si5 1.626869 1_555
O110 S21 1.466207 1_555
O111 S20 1.466988 1_655
O112 Si6 1.650716 1_545
O113 S22 1.477040 1_545
O114 Si7 1.619599 1_545
O115 S23 1.497027 1_545
O116 S24 1.480397 1_555
O117 Si8 1.633886 1_555
O118 S26 1.463679 1_555
O119 S25 1.470710 1_655
O120 Si4 1.640154 1_555
O121 S18 1.498346 1_555
O122 S15 1.496025 1_455
O123 Si3 1.641898 1_555
O124 S16 1.489352 1_565
O125 S17 1.501873 1_565
O126 S12 1.503431 1_565
O127 Si2 1.644959 1_565
O128 S13 1.504428 1_555
O129 S14 1.505057 1_555
O130 Si1 1.645834 1_455
O131 S11 1.507980 1_555
O132 S0 1.493607 1_555
O133 S1 1.486441 1_565
O134 S2 1.464696 1_555
O135 S3 1.470144 1_555
O136 S4 1.487513 1_455
O137 S5 1.482277 1_555
O138 Si0 1.621994 1_555
O139 S6 1.493629 1_555
O140 S7 1.473651 1_455
O141 S8 1.487964 1_555
O142 S9 1.460028 1_565
O143 S10 1.476752 1_555
