# generated using pymatgen
data_Fe2(PO4)3
_symmetry_space_group_name_H-M   'P 1'
_cell_length_a   8.94535602
_cell_length_b   8.94535602
_cell_length_c   8.94535647
_cell_angle_alpha   58.61300889
_cell_angle_beta   58.61300889
_cell_angle_gamma   58.61301137
_symmetry_Int_Tables_number   1
_chemical_formula_structural   Fe2(PO4)3
_chemical_formula_sum   'Fe4 P6 O24'
_cell_volume   490.09930288
_cell_formula_units_Z   2
loop_
 _symmetry_equiv_pos_site_id
 _symmetry_equiv_pos_as_xyz
  1  'x, y, z'
loop_
 _atom_site_type_symbol
 _atom_site_label
 _atom_site_symmetry_multiplicity
 _atom_site_fract_x
 _atom_site_fract_y
 _atom_site_fract_z
 _atom_site_occupancy
  Fe  Fe0  1  0.35790100  0.35790100  0.35790100  1
  Fe  Fe1  1  0.85790100  0.85790100  0.85790100  1
  Fe  Fe2  1  0.14209900  0.14209900  0.14209900  1
  Fe  Fe3  1  0.64209900  0.64209900  0.64209900  1
  P  P0  1  0.53389600  0.96610400  0.25000000  1
  P  P1  1  0.25000000  0.53389600  0.96610400  1
  P  P2  1  0.75000000  0.46610400  0.03389600  1
  P  P3  1  0.46610400  0.03389600  0.75000000  1
  P  P4  1  0.96610400  0.25000000  0.53389600  1
  P  P5  1  0.03389600  0.75000000  0.46610400  1
  O  O0  1  0.07811300  0.71003500  0.94109000  1
  O  O1  1  0.49350000  0.86344600  0.72361100  1
  O  O2  1  0.72361100  0.49350000  0.86344600  1
  O  O3  1  0.86344600  0.72361100  0.49350000  1
  O  O4  1  0.50650000  0.13655400  0.27638900  1
  O  O5  1  0.27638900  0.50650000  0.13655400  1
  O  O6  1  0.13655400  0.27638900  0.50650000  1
  O  O7  1  0.94109000  0.07811300  0.71003500  1
  O  O8  1  0.99350000  0.22361100  0.36344600  1
  O  O9  1  0.78996500  0.42188700  0.55891000  1
  O  O10  1  0.71003500  0.94109000  0.07811300  1
  O  O11  1  0.55891000  0.78996500  0.42188700  1
  O  O12  1  0.77638900  0.63655400  0.00650000  1
  O  O13  1  0.42188700  0.55891000  0.78996500  1
  O  O14  1  0.00650000  0.77638900  0.63655400  1
  O  O15  1  0.63655400  0.00650000  0.77638900  1
  O  O16  1  0.36344600  0.99350000  0.22361100  1
  O  O17  1  0.05891000  0.92188700  0.28996500  1
  O  O18  1  0.57811300  0.44109000  0.21003500  1
  O  O19  1  0.22361100  0.36344600  0.99350000  1
  O  O20  1  0.44109000  0.21003500  0.57811300  1
  O  O21  1  0.28996500  0.05891000  0.92188700  1
  O  O22  1  0.21003500  0.57811300  0.44109000  1
  O  O23  1  0.92188700  0.28996500  0.05891000  1
loop_
_geom_bond_atom_site_label_1
_geom_bond_atom_site_label_2
_geom_bond_distance
_geom_bond_site_symmetry_2
Fe0 O18 1.992819 1_555
Fe0 O22 1.992819 1_555
Fe0 O20 1.992819 1_555
Fe0 O6 1.992944 1_555
Fe0 O4 1.992944 1_555
Fe0 O5 1.992944 1_555
Fe1 O7 1.992819 1_565
Fe1 O0 1.992819 1_655
Fe1 O10 1.992819 1_556
Fe1 O12 1.992944 1_556
Fe1 O15 1.992944 1_565
Fe1 O14 1.992944 1_655
Fe2 O17 1.992819 1_545
Fe2 O23 1.992819 1_455
Fe2 O21 1.992819 1_554
Fe2 O19 1.992944 1_554
Fe2 O16 1.992944 1_545
Fe2 O8 1.992944 1_455
Fe3 O13 1.992819 1_555
Fe3 O9 1.992819 1_555
Fe3 O11 1.992819 1_555
Fe3 O3 1.992944 1_555
Fe3 O1 1.992944 1_555
Fe3 O2 1.992944 1_555
O0 P1 1.537679 1_555
O1 P3 1.538192 1_565
O2 P2 1.538193 1_556
O3 P5 1.538192 1_655
O4 P0 1.538192 1_545
O5 P1 1.538193 1_554
O6 P4 1.538192 1_455
O7 P4 1.537679 1_555
O8 P4 1.538193 1_555
O9 P4 1.537679 1_555
O10 P0 1.537679 1_555
O11 P0 1.537679 1_555
O12 P2 1.538192 1_555
O13 P1 1.537679 1_555
O14 P5 1.538193 1_555
O15 P3 1.538192 1_555
O16 P0 1.538192 1_555
O17 P5 1.537679 1_555
O18 P2 1.537679 1_555
O19 P1 1.538192 1_555
O20 P3 1.537679 1_555
O21 P3 1.537679 1_555
O22 P5 1.537679 1_555
O23 P2 1.537679 1_555
