# generated using pymatgen
data_Cu(PtS2)2
_symmetry_space_group_name_H-M   'P 1'
_cell_length_a   6.93133140
_cell_length_b   6.23295809
_cell_length_c   6.40655260
_cell_angle_alpha   64.88880548
_cell_angle_beta   90.00000000
_cell_angle_gamma   90.00000000
_symmetry_Int_Tables_number   1
_chemical_formula_structural   Cu(PtS2)2
_chemical_formula_sum   'Cu2 Pt4 S8'
_cell_volume   250.62071217
_cell_formula_units_Z   2
loop_
 _symmetry_equiv_pos_site_id
 _symmetry_equiv_pos_as_xyz
  1  'x, y, z'
loop_
 _atom_site_type_symbol
 _atom_site_label
 _atom_site_symmetry_multiplicity
 _atom_site_fract_x
 _atom_site_fract_y
 _atom_site_fract_z
 _atom_site_occupancy
  Cu  Cu0  1  0.00000000  0.34084737  0.35628424  1
  Cu  Cu1  1  0.00000000  0.65915263  0.64371576  1
  Pt  Pt0  1  0.24828716  0.00000000  0.00000000  1
  Pt  Pt1  1  0.75171284  0.00000000  0.00000000  1
  Pt  Pt2  1  0.50000000  0.00000000  0.50000000  1
  Pt  Pt3  1  0.50000000  0.50000000  0.00000000  1
  S  S0  1  0.00000000  0.74745890  0.24519676  1
  S  S1  1  0.00000000  0.25254110  0.75480324  1
  S  S2  1  0.50000000  0.73752010  0.21772684  1
  S  S3  1  0.50000000  0.26247990  0.78227316  1
  S  S4  1  0.26759211  0.21721186  0.23077934  1
  S  S5  1  0.26759211  0.78278814  0.76922066  1
  S  S6  1  0.73240789  0.78278814  0.76922066  1
  S  S7  1  0.73240789  0.21721186  0.23077934  1
loop_
_geom_bond_atom_site_label_1
_geom_bond_atom_site_label_2
_geom_bond_distance
_geom_bond_site_symmetry_2
Cu0 S7 2.281758 1_455
Cu0 S4 2.281758 1_555
Cu0 S0 2.323522 1_555
Cu0 S1 2.372491 1_555
Cu1 S6 2.281758 1_455
Cu1 S5 2.281758 1_555
Cu1 S1 2.323522 1_555
Cu1 S0 2.372491 1_555
Pt0 S2 2.393608 1_545
Pt0 S3 2.393608 1_554
Pt0 S5 2.394950 1_544
Pt0 S4 2.394950 1_555
Pt0 S1 2.410055 1_554
Pt0 S0 2.410055 1_545
Pt1 S3 2.393608 1_554
Pt1 S2 2.393608 1_545
Pt1 S7 2.394950 1_555
Pt1 S6 2.394950 1_544
Pt1 S1 2.410055 1_654
Pt1 S0 2.410055 1_645
Pt2 S5 2.328275 1_545
Pt2 S4 2.328275 1_555
Pt2 S7 2.328275 1_555
Pt2 S6 2.328275 1_545
Pt2 S3 2.908263 1_555
Pt2 S2 2.908263 1_545
Pt3 S4 2.382408 1_555
Pt3 S5 2.382408 1_554
Pt3 S6 2.382408 1_554
Pt3 S7 2.382408 1_555
Pt3 S2 2.426962 1_555
Pt3 S3 2.426962 1_554
