# generated using pymatgen
data_Fe7Pb7F34
_symmetry_space_group_name_H-M   'P 1'
_cell_length_a   9.87263307
_cell_length_b   9.87263307
_cell_length_c   7.64343401
_cell_angle_alpha   79.73128196
_cell_angle_beta   79.73128196
_cell_angle_gamma   68.80221856
_symmetry_Int_Tables_number   1
_chemical_formula_structural   Fe7Pb7F34
_chemical_formula_sum   'Fe7 Pb7 F34'
_cell_volume   678.18395789
_cell_formula_units_Z   1
loop_
 _symmetry_equiv_pos_site_id
 _symmetry_equiv_pos_as_xyz
  1  'x, y, z'
loop_
 _atom_site_type_symbol
 _atom_site_label
 _atom_site_symmetry_multiplicity
 _atom_site_fract_x
 _atom_site_fract_y
 _atom_site_fract_z
 _atom_site_occupancy
  Fe  Fe0  1  0.50000000  0.50000000  0.50000000  1
  Fe  Fe1  1  0.16362999  0.16362999  0.46486637  1
  Fe  Fe2  1  0.83637001  0.83637001  0.53513363  1
  Fe  Fe3  1  0.86040875  0.35178421  0.19793225  1
  Fe  Fe4  1  0.35178421  0.86040875  0.19793225  1
  Fe  Fe5  1  0.13959125  0.64821579  0.80206775  1
  Fe  Fe6  1  0.64821579  0.13959125  0.80206775  1
  Pb  Pb0  1  0.00000000  -0.00000000  0.00000000  1
  Pb  Pb1  1  0.26004219  0.26004219  0.90279375  1
  Pb  Pb2  1  0.73995781  0.73995781  0.09720625  1
  Pb  Pb3  1  0.84466522  0.45257025  0.70666307  1
  Pb  Pb4  1  0.45257025  0.84466522  0.70666307  1
  Pb  Pb5  1  0.15533478  0.54742975  0.29333693  1
  Pb  Pb6  1  0.54742975  0.15533478  0.29333693  1
  F  F0  1  0.74181101  0.98988031  0.99256425  1
  F  F1  1  0.98988031  0.74181101  0.99256425  1
  F  F2  1  0.25818899  0.01011969  0.00743575  1
  F  F3  1  0.01011969  0.25818899  0.00743575  1
  F  F4  1  0.24544246  0.50413913  0.98636102  1
  F  F5  1  0.50413913  0.24544246  0.98636102  1
  F  F6  1  0.75455754  0.49586087  0.01363898  1
  F  F7  1  0.49586087  0.75455754  0.01363898  1
  F  F8  1  0.03835450  0.51356533  0.80500858  1
  F  F9  1  0.51356533  0.03835450  0.80500858  1
  F  F10  1  0.96164550  0.48643467  0.19499142  1
  F  F11  1  0.48643467  0.96164550  0.19499142  1
  F  F12  1  0.79157099  0.22392352  0.81193279  1
  F  F13  1  0.22392352  0.79157099  0.81193279  1
  F  F14  1  0.20842901  0.77607648  0.18806721  1
  F  F15  1  0.77607648  0.20842901  0.18806721  1
  F  F16  1  0.29245757  0.54843086  0.61979183  1
  F  F17  1  0.54843086  0.29245757  0.61979183  1
  F  F18  1  0.70754243  0.45156914  0.38020817  1
  F  F19  1  0.45156914  0.70754243  0.38020817  1
  F  F20  1  0.02766711  0.77876351  0.61275042  1
  F  F21  1  0.77876351  0.02766711  0.61275042  1
  F  F22  1  0.97233289  0.22123649  0.38724958  1
  F  F23  1  0.22123649  0.97233289  0.38724958  1
  F  F24  1  0.11258399  0.35602675  0.53587117  1
  F  F25  1  0.35602675  0.11258399  0.53587117  1
  F  F26  1  0.88741601  0.64397325  0.46412883  1
  F  F27  1  0.64397325  0.88741601  0.46412883  1
  F  F28  1  0.75256135  0.75256135  0.77161845  1
  F  F29  1  0.24743865  0.24743865  0.22838155  1
  F  F30  1  0.10048245  0.10048245  0.70261806  1
  F  F31  1  0.89951755  0.89951755  0.29738194  1
  F  F32  1  0.56923587  0.56923587  0.67951330  1
  F  F33  1  0.43076413  0.43076413  0.32048670  1
loop_
_geom_bond_atom_site_label_1
_geom_bond_atom_site_label_2
_geom_bond_distance
_geom_bond_site_symmetry_2
F0 Fe6 1.970591 1_565
F0 Pb2 2.460062 1_556
F0 Pb0 2.597784 1_666
F1 Fe5 1.970591 1_655
F1 Pb2 2.460062 1_556
F1 Pb0 2.597784 1_666
F2 Fe4 1.970591 1_545
F2 Pb1 2.460062 1_554
F2 Pb0 2.597784 1_555
F3 Fe3 1.970591 1_455
F3 Pb1 2.460062 1_554
F3 Pb0 2.597784 1_555
F4 Fe5 1.958340 1_555
F4 Pb5 2.412011 1_556
F4 Pb1 2.549718 1_555
F5 Fe6 1.958340 1_555
F5 Pb6 2.412011 1_556
F5 Pb1 2.549718 1_555
F6 Fe3 1.958340 1_555
F6 Pb3 2.412011 1_554
F6 Pb2 2.549718 1_555
F7 Fe4 1.958340 1_555
F7 Pb4 2.412011 1_554
F7 Pb2 2.549718 1_555
F8 Fe5 1.925831 1_555
F8 Pb3 2.467971 1_455
F9 Fe6 1.925831 1_555
F9 Pb4 2.467971 1_545
F10 Fe3 1.925831 1_555
F10 Pb5 2.467971 1_655
F11 Fe4 1.925831 1_555
F11 Pb6 2.467971 1_565
F12 Fe6 1.901188 1_555
F12 Pb3 2.464863 1_555
F13 Fe5 1.901188 1_555
F13 Pb4 2.464863 1_555
F14 Fe4 1.901188 1_555
F14 Pb5 2.464863 1_555
F15 Fe3 1.901188 1_555
F15 Pb6 2.464863 1_555
F16 Fe5 1.963086 1_555
F16 Fe0 2.010981 1_555
F17 Fe6 1.963086 1_555
F17 Fe0 2.010981 1_555
F18 Fe3 1.963086 1_555
F18 Fe0 2.010981 1_555
F19 Fe4 1.963086 1_555
F19 Fe0 2.010981 1_555
F20 Fe2 1.935109 1_455
F20 Fe5 1.962462 1_555
F21 Fe2 1.935109 1_545
F21 Fe6 1.962462 1_555
F22 Fe1 1.935109 1_655
F22 Fe3 1.962462 1_555
F23 Fe1 1.935109 1_565
F23 Fe4 1.962462 1_555
F24 Fe1 1.932419 1_555
F24 Pb5 2.496869 1_555
F24 Pb3 2.645434 1_455
F25 Fe1 1.932419 1_555
F25 Pb6 2.496869 1_555
F25 Pb4 2.645434 1_545
F26 Fe2 1.932419 1_555
F26 Pb3 2.496869 1_555
F26 Pb5 2.645434 1_655
F27 Fe2 1.932419 1_555
F27 Pb4 2.496869 1_555
F27 Pb6 2.645434 1_565
F28 Fe2 2.016216 1_555
F28 Pb2 2.452454 1_556
F29 Fe1 2.016216 1_555
F29 Pb1 2.452454 1_554
F30 Fe1 1.884921 1_555
F30 Pb0 2.497732 1_556
F31 Fe2 1.884921 1_555
F31 Pb0 2.497732 1_665
F32 Fe0 1.955445 1_555
F32 Pb3 2.571927 1_555
F32 Pb4 2.571927 1_555
F33 Fe0 1.955445 1_555
F33 Pb5 2.571927 1_555
F33 Pb6 2.571927 1_555
