# generated using pymatgen
data_Na4BeAlSi4ClO12
_symmetry_space_group_name_H-M   'P 1'
_cell_length_a   7.62803000
_cell_length_b   7.62803000
_cell_length_c   7.62803000
_cell_angle_alpha   110.17446254
_cell_angle_beta   110.17446254
_cell_angle_gamma   108.07371070
_symmetry_Int_Tables_number   1
_chemical_formula_structural   Na4BeAlSi4ClO12
_chemical_formula_sum   'Na4 Be1 Al1 Si4 Cl1 O12'
_cell_volume   341.52463853
_cell_formula_units_Z   1
loop_
 _symmetry_equiv_pos_site_id
 _symmetry_equiv_pos_as_xyz
  1  'x, y, z'
loop_
 _atom_site_type_symbol
 _atom_site_label
 _atom_site_symmetry_multiplicity
 _atom_site_fract_x
 _atom_site_fract_y
 _atom_site_fract_z
 _atom_site_occupancy
  Na  Na0  1  0.66264300  0.01609800  0.04109600  1
  Na  Na1  1  0.97500200  0.62154700  0.95890400  1
  Na  Na2  1  0.98390200  0.02499800  0.64654500  1
  Na  Na3  1  0.37845300  0.33735700  0.35345500  1
  Be  Be0  1  0.75000000  0.25000000  0.50000000  1
  Al  Al0  1  0.25000000  0.75000000  0.50000000  1
  Si  Si0  1  0.51740000  0.25095900  0.75933300  1
  Si  Si1  1  0.74904100  0.50837400  0.26644100  1
  Si  Si2  1  0.49162600  0.75806700  0.24066700  1
  Si  Si3  1  0.24193300  0.48260000  0.73355900  1
  Cl  Cl0  1  0.00000000  0.00000000  0.00000000  1
  O  O0  1  0.69800500  0.31198200  0.30904800  1
  O  O1  1  0.70849900  0.42398600  0.01663500  1
  O  O2  1  0.30813600  0.29150100  0.71548700  1
  O  O3  1  0.68801800  0.99706600  0.38602300  1
  O  O4  1  0.00293400  0.38895700  0.69095200  1
  O  O5  1  0.40735100  0.69186400  0.98336500  1
  O  O6  1  0.61104300  0.30199500  0.61397700  1
  O  O7  1  0.28622300  0.56226600  0.57264000  1
  O  O8  1  0.43773400  0.01037400  0.72395700  1
  O  O9  1  0.28641700  0.71377700  0.27604300  1
  O  O10  1  0.98962600  0.71358300  0.42736000  1
  O  O11  1  0.57601400  0.59264900  0.28451300  1
loop_
_geom_bond_atom_site_label_1
_geom_bond_atom_site_label_2
_geom_bond_distance
_geom_bond_site_symmetry_2
Na0 O0 2.324763 1_555
Na0 O5 2.402498 1_544
Na0 O8 2.411523 1_554
Na0 O3 2.628864 1_545
Na1 O4 2.324763 1_655
Na1 O1 2.402498 1_556
Na1 O9 2.411523 1_656
Na1 O6 2.628864 1_555
Na2 O3 2.324763 1_545
Na2 O2 2.402498 1_655
Na2 O10 2.411523 1_545
Na2 O4 2.628864 1_655
Na3 O6 2.324763 1_555
Na3 O11 2.402498 1_555
Na3 O7 2.411523 1_555
Na3 O0 2.628864 1_555
Be0 O6 1.641763 1_555
Be0 O0 1.641763 1_555
Be0 O4 1.641763 1_655
Be0 O3 1.641763 1_545
Al0 O8 1.766733 1_565
Al0 O10 1.766733 1_455
Al0 O9 1.766733 1_555
Al0 O7 1.766733 1_555
Cl0 Na3 2.731580 1_555
Cl0 Na1 2.731580 1_444
Cl0 Na0 2.731580 1_455
Cl0 Na2 2.731580 1_454
O0 Si1 1.600838 1_555
O1 Si1 1.662823 1_555
O1 Si0 1.662863 1_554
O2 Si0 1.662823 1_555
O2 Si3 1.662863 1_555
O3 Si2 1.600838 1_555
O4 Si3 1.600838 1_555
O5 Si3 1.662823 1_555
O5 Si2 1.662863 1_556
O6 Si0 1.600838 1_555
O7 Si3 1.631979 1_555
O8 Si0 1.631979 1_555
O9 Si2 1.631979 1_555
O10 Si1 1.631979 1_555
O11 Si2 1.662823 1_555
O11 Si1 1.662863 1_555
