# generated using pymatgen
data_MgMn6O7F5
_symmetry_space_group_name_H-M   'P 1'
_cell_length_a   5.12421360
_cell_length_b   7.83748282
_cell_length_c   5.75666452
_cell_angle_alpha   96.01608496
_cell_angle_beta   95.43042440
_cell_angle_gamma   85.76599355
_symmetry_Int_Tables_number   1
_chemical_formula_structural   MgMn6O7F5
_chemical_formula_sum   'Mg1 Mn6 O7 F5'
_cell_volume   228.41040189
_cell_formula_units_Z   1
loop_
 _symmetry_equiv_pos_site_id
 _symmetry_equiv_pos_as_xyz
  1  'x, y, z'
loop_
 _atom_site_type_symbol
 _atom_site_label
 _atom_site_symmetry_multiplicity
 _atom_site_fract_x
 _atom_site_fract_y
 _atom_site_fract_z
 _atom_site_occupancy
  Mg  Mg0  1  0.01712000  0.83309100  0.35000500  1
  Mn  Mn0  1  0.53197100  0.02654300  0.48608700  1
  Mn  Mn1  1  0.54584600  0.65012300  0.16862000  1
  Mn  Mn2  1  0.48448800  0.33496600  0.82954800  1
  Mn  Mn3  1  0.97603000  0.64686500  0.73247600  1
  Mn  Mn4  1  0.99380300  0.31729100  0.32885200  1
  Mn  Mn5  1  0.96674300  0.01115300  0.96834300  1
  O  O0  1  0.85310200  0.78391700  0.00871800  1
  O  O1  1  0.85667400  0.07667200  0.27881500  1
  O  O2  1  0.67054400  0.11277500  0.78192100  1
  O  O3  1  0.69917800  0.77513300  0.48748400  1
  O  O4  1  0.70587000  0.41615700  0.12352400  1
  O  O5  1  0.30698800  0.56199400  0.89298300  1
  O  O6  1  0.31491700  0.24390200  0.51660100  1
  F  F0  1  0.80856000  0.42295900  0.62434600  1
  F  F1  1  0.33037200  0.89771100  0.20360800  1
  F  F2  1  0.15405800  0.58958200  0.39761300  1
  F  F3  1  0.17772800  0.21666200  0.01276100  1
  F  F4  1  0.16156200  0.90750100  0.68270000  1
loop_
_geom_bond_atom_site_label_1
_geom_bond_atom_site_label_2
_geom_bond_distance
_geom_bond_site_symmetry_2
Mg0 O3 1.978804 1_455
Mg0 O0 2.071578 1_455
Mg0 O1 2.087313 1_465
Mn0 O2 1.860633 1_555
Mn0 O6 1.965824 1_555
Mn0 O3 2.090327 1_545
Mn0 O1 2.217435 1_555
Mn1 O4 1.954672 1_555
Mn1 O5 2.005103 1_554
Mn1 O3 2.100091 1_555
Mn1 O0 2.268525 1_555
Mn2 O2 1.928964 1_555
Mn2 O5 1.953032 1_555
Mn2 O6 2.008902 1_555
Mn2 O4 2.018229 1_556
Mn3 O0 1.952189 1_556
Mn3 O5 1.959069 1_655
Mn3 O3 2.172591 1_555
Mn4 O6 1.964806 1_655
Mn4 O4 1.966602 1_555
Mn4 O1 2.043684 1_555
Mn5 O1 1.931796 1_556
Mn5 O2 1.944759 1_555
Mn5 O0 1.957154 1_546
F0 Mn3 2.023787 1_555
F0 Mn4 2.091588 1_555
F0 Mn2 2.310807 1_555
F1 Mg0 2.002215 1_555
F1 Mn0 2.054972 1_565
F1 Mn1 2.160762 1_555
F1 Mn5 2.372090 1_464
F2 Mg0 2.021225 1_555
F2 Mn3 2.200166 1_455
F2 Mn4 2.324968 1_455
F2 Mn1 2.601163 1_555
F3 Mn5 1.986699 1_454
F3 Mn4 2.176083 1_455
F3 Mn2 2.275295 1_554
F4 Mg0 2.029109 1_555
F4 Mn5 2.066729 1_465
F4 Mn3 2.370593 1_455
F4 Mn0 2.577515 1_565
