# generated using pymatgen
data_CdH20C4S4(NO6)2
_symmetry_space_group_name_H-M   'P 1'
_cell_length_a   7.69405200
_cell_length_b   8.16279067
_cell_length_c   8.56449358
_cell_angle_alpha   70.60981971
_cell_angle_beta   75.21333035
_cell_angle_gamma   64.08141646
_symmetry_Int_Tables_number   1
_chemical_formula_structural   CdH20C4S4(NO6)2
_chemical_formula_sum   'Cd1 H20 C4 S4 N2 O12'
_cell_volume   452.48893734
_cell_formula_units_Z   1
loop_
 _symmetry_equiv_pos_site_id
 _symmetry_equiv_pos_as_xyz
  1  'x, y, z'
loop_
 _atom_site_type_symbol
 _atom_site_label
 _atom_site_symmetry_multiplicity
 _atom_site_fract_x
 _atom_site_fract_y
 _atom_site_fract_z
 _atom_site_occupancy
  Cd  Cd0  1  0.50000000  0.00000000  0.50000000  1
  H  H0  1  0.81616300  0.16318500  0.94775200  1
  H  H1  1  0.99538300  0.47901800  0.81181900  1
  H  H2  1  0.00461700  0.52098200  0.18818100  1
  H  H3  1  0.18383700  0.83681500  0.05224800  1
  H  H4  1  0.85495500  0.94269600  0.90965400  1
  H  H5  1  0.14504500  0.05730400  0.09034600  1
  H  H6  1  0.62917100  0.06914900  0.02154100  1
  H  H7  1  0.19567100  0.28798500  0.73812200  1
  H  H8  1  0.80432900  0.71201500  0.26187800  1
  H  H9  1  0.14268300  0.52848000  0.61508700  1
  H  H10  1  0.85731700  0.47152000  0.38491300  1
  H  H11  1  0.20940400  0.87716900  0.71651300  1
  H  H12  1  0.59832100  0.60243700  0.67813400  1
  H  H13  1  0.33663000  0.30214700  0.22721900  1
  H  H14  1  0.66337000  0.69785300  0.77278100  1
  H  H15  1  0.37082900  0.93085100  0.97845900  1
  H  H16  1  0.07887800  0.08157400  0.62004900  1
  H  H17  1  0.79059600  0.12283100  0.28348700  1
  H  H18  1  0.92112200  0.91842600  0.37995100  1
  H  H19  1  0.40167900  0.39756300  0.32186600  1
  C  C0  1  0.74877900  0.08211200  0.92316000  1
  C  C1  1  0.14137800  0.43538600  0.74119200  1
  C  C2  1  0.85862200  0.56461400  0.25880800  1
  C  C3  1  0.25122100  0.91788800  0.07684000  1
  S  S0  1  0.65299000  0.20498900  0.73069100  1
  S  S1  1  0.34701000  0.79501100  0.26930900  1
  S  S2  1  0.29382200  0.45965900  0.84900700  1
  S  S3  1  0.70617800  0.54034100  0.15099300  1
  N  N0  1  0.50758300  0.41532300  0.74068200  1
  N  N1  1  0.49241700  0.58467700  0.25931800  1
  O  O0  1  0.18573900  0.77859700  0.39879900  1
  O  O1  1  0.55083800  0.09843700  0.70991300  1
  O  O2  1  0.34886200  0.29944700  0.34016200  1
  O  O3  1  0.29598600  0.32875700  0.01483300  1
  O  O4  1  0.70401400  0.67124300  0.98516700  1
  O  O5  1  0.21908800  0.65801400  0.84908400  1
  O  O6  1  0.78091200  0.34198600  0.15091600  1
  O  O7  1  0.65113800  0.70055300  0.65983800  1
  O  O8  1  0.81426100  0.22140300  0.60120100  1
  O  O9  1  0.79326100  0.99430200  0.33905500  1
  O  O10  1  0.20673900  0.00569800  0.66094500  1
  O  O11  1  0.44916200  0.90156300  0.29008700  1
loop_
_geom_bond_atom_site_label_1
_geom_bond_atom_site_label_2
_geom_bond_distance
_geom_bond_site_symmetry_2
Cd0 O2 2.303668 1_555
Cd0 O7 2.303668 1_545
Cd0 O9 2.314437 1_545
Cd0 O10 2.314437 1_555
Cd0 O11 2.371417 1_545
Cd0 O1 2.371417 1_555
H11 O10 0.991098 1_565
H12 O7 0.999911 1_555
H13 O2 0.987680 1_555
H14 O7 0.987680 1_555
H16 O10 0.986548 1_555
H17 O9 0.991098 1_545
H18 O9 0.986548 1_555
H19 O2 0.999911 1_555
C0 H6 1.094609 1_556
C0 H0 1.095143 1_555
C0 H4 1.096495 1_545
C0 S0 1.772711 1_555
C1 H7 1.094947 1_555
C1 H9 1.095533 1_555
C1 H1 1.095905 1_455
C1 S2 1.773438 1_555
C2 H8 1.094947 1_555
C2 H10 1.095533 1_555
C2 H2 1.095905 1_655
C2 S3 1.773438 1_555
C3 H15 1.094609 1_554
C3 H3 1.095143 1_555
C3 H5 1.096495 1_565
C3 S1 1.772711 1_555
N0 S0 1.605078 1_555
N0 S2 1.618777 1_555
N1 S1 1.605078 1_555
N1 S3 1.618777 1_555
O0 S1 1.460060 1_555
O1 S0 1.475686 1_555
O3 S2 1.465576 1_554
O4 S3 1.465576 1_556
O5 S2 1.462482 1_555
O6 S3 1.462482 1_555
O8 S0 1.460060 1_555
O11 S1 1.475686 1_555
