# generated using pymatgen
data_PW6Cl17
_symmetry_space_group_name_H-M   'P 1'
_cell_length_a   10.26780546
_cell_length_b   10.26773529
_cell_length_c   10.26006418
_cell_angle_alpha   141.15304667
_cell_angle_beta   119.25282786
_cell_angle_gamma   74.53979485
_symmetry_Int_Tables_number   1
_chemical_formula_structural   PW6Cl17
_chemical_formula_sum   'P1 W6 Cl17'
_cell_volume   578.96593589
_cell_formula_units_Z   1
loop_
 _symmetry_equiv_pos_site_id
 _symmetry_equiv_pos_as_xyz
  1  'x, y, z'
loop_
 _atom_site_type_symbol
 _atom_site_label
 _atom_site_symmetry_multiplicity
 _atom_site_fract_x
 _atom_site_fract_y
 _atom_site_fract_z
 _atom_site_occupancy
  P  P0  1  0.81605094  0.50897219  0.32501657  1
  W  W0  1  0.62395491  0.29778642  0.92174063  1
  W  W1  1  0.62198811  0.71134372  0.33332996  1
  W  W2  1  0.61681037  0.35750737  0.25479950  1
  W  W3  1  0.89729139  0.63798537  0.25479210  1
  W  W4  1  0.94013482  0.42458783  0.51743631  1
  W  W5  1  0.09284240  0.57728657  0.51743355  1
  Cl  Cl0  1  0.46680816  0.00104196  0.46783963  1
  Cl  Cl1  1  0.76715936  0.00700732  0.77415504  1
  Cl  Cl2  1  0.43691921  0.49919627  0.93611257  1
  Cl  Cl3  1  0.44781013  0.10615097  0.84401210  1
  Cl  Cl4  1  0.73722954  0.88649685  0.33267937  1
  Cl  Cl5  1  0.44618844  0.59546598  0.33269519  1
  Cl  Cl6  1  0.73785843  0.39620503  0.84400586  1
  Cl  Cl7  1  0.76392531  0.08589231  0.15627636  1
  Cl  Cl8  1  0.07297662  0.91467619  0.67807125  1
  Cl  Cl9  1  0.76339290  0.60511156  0.67808319  1
  Cl  Cl10  1  0.07039230  0.39235021  0.15627299  1
  Cl  Cl11  1  0.13452122  0.75153066  0.88606640  1
  Cl  Cl12  1  0.13310456  0.24993894  0.38305099  1
  Cl  Cl13  1  0.47150958  0.21565771  0.25345911  1
  Cl  Cl14  1  0.03778861  0.78194051  0.25342880  1
  Cl  Cl15  1  0.02251644  0.32973268  0.68866798  1
  Cl  Cl16  1  0.35892924  0.66613338  0.68867353  1
loop_
_geom_bond_atom_site_label_1
_geom_bond_atom_site_label_2
_geom_bond_distance
_geom_bond_site_symmetry_2
P0 W3 2.373373 1_555
P0 W2 2.373479 1_555
P0 W5 2.426715 1_655
P0 W4 2.426767 1_555
P0 W1 2.444996 1_555
P0 W0 2.457889 1_554
Cl0 W1 2.553292 1_545
Cl0 W0 2.598071 1_555
Cl1 W0 2.482436 1_555
Cl1 W1 2.516077 1_545
Cl2 W0 2.381380 1_555
Cl2 W1 2.403177 1_556
Cl3 W2 2.394186 1_556
Cl3 W0 2.412916 1_555
Cl4 W3 2.392108 1_555
Cl4 W1 2.407380 1_555
Cl5 W2 2.392140 1_555
Cl5 W1 2.407369 1_555
Cl6 W3 2.394185 1_556
Cl6 W0 2.412935 1_555
Cl7 W4 2.414118 1_555
Cl7 W2 2.436496 1_555
Cl8 W5 2.411889 1_555
Cl8 W3 2.458297 1_455
Cl9 W4 2.411829 1_555
Cl9 W2 2.458291 1_555
Cl10 W5 2.414172 1_555
Cl10 W3 2.436542 1_455
Cl11 W5 2.444415 1_555
Cl11 W4 2.444432 1_455
Cl12 W5 2.442708 1_555
Cl12 W4 2.442753 1_455
Cl13 W2 2.335500 1_555
Cl14 W3 2.335546 1_455
Cl15 W4 2.350372 1_455
Cl16 W5 2.350414 1_555
