# generated using pymatgen
data_Gd2O3
_symmetry_space_group_name_H-M   'P 1'
_cell_length_a   3.72852599
_cell_length_b   3.72852584
_cell_length_c   5.89412876
_cell_angle_alpha   90.00000000
_cell_angle_beta   90.00000000
_cell_angle_gamma   119.99999233
_symmetry_Int_Tables_number   1
_chemical_formula_structural   Gd2O3
_chemical_formula_sum   'Gd2 O3'
_cell_volume   70.96179896
_cell_formula_units_Z   1
loop_
 _symmetry_equiv_pos_site_id
 _symmetry_equiv_pos_as_xyz
  1  'x, y, z'
loop_
 _atom_site_type_symbol
 _atom_site_label
 _atom_site_symmetry_multiplicity
 _atom_site_fract_x
 _atom_site_fract_y
 _atom_site_fract_z
 _atom_site_occupancy
  Gd  Gd0  1  0.66666700  0.33333300  0.75212325  1
  Gd  Gd1  1  0.33333300  0.66666700  0.24787675  1
  O  O0  1  0.00000000  0.00000000  -0.00000000  1
  O  O1  1  0.66666700  0.33333300  0.35431087  1
  O  O2  1  0.33333300  0.66666700  0.64568913  1
loop_
_geom_bond_atom_site_label_1
_geom_bond_atom_site_label_2
_geom_bond_distance
_geom_bond_site_symmetry_2
Gd0 O2 2.242211 1_545
Gd0 O2 2.242211 1_655
Gd0 O2 2.242217 1_555
Gd0 O1 2.344757 1_555
Gd0 O0 2.601640 1_656
Gd0 O0 2.601643 1_666
Gd0 O0 2.601643 1_556
Gd1 O1 2.242211 1_565
Gd1 O1 2.242211 1_455
Gd1 O1 2.242217 1_555
Gd1 O2 2.344757 1_555
Gd1 O0 2.601640 1_565
Gd1 O0 2.601643 1_555
Gd1 O0 2.601643 1_665
