# generated using pymatgen
data_Na3AlSiGe(PO6)2
_symmetry_space_group_name_H-M   'P 1'
_cell_length_a   14.94180688
_cell_length_b   8.68320709
_cell_length_c   8.76326462
_cell_angle_alpha   90.00000000
_cell_angle_beta   125.20370906
_cell_angle_gamma   90.00000000
_symmetry_Int_Tables_number   1
_chemical_formula_structural   Na3AlSiGe(PO6)2
_chemical_formula_sum   'Na12 Al4 Si4 Ge4 P8 O48'
_cell_volume   929.02723081
_cell_formula_units_Z   4
loop_
 _symmetry_equiv_pos_site_id
 _symmetry_equiv_pos_as_xyz
  1  'x, y, z'
loop_
 _atom_site_type_symbol
 _atom_site_label
 _atom_site_symmetry_multiplicity
 _atom_site_fract_x
 _atom_site_fract_y
 _atom_site_fract_z
 _atom_site_occupancy
  Na  Na0  1  0.25095786  0.72652915  0.99657531  1
  Na  Na1  1  0.75095786  0.77347085  0.49657531  1
  Na  Na2  1  0.75095786  0.22652915  0.99657531  1
  Na  Na3  1  0.25095786  0.27347085  0.49657531  1
  Na  Na4  1  0.50391602  0.11583458  0.75869180  1
  Na  Na5  1  0.50391602  0.88416542  0.25869180  1
  Na  Na6  1  0.00391602  0.61583458  0.75869180  1
  Na  Na7  1  0.00391602  0.38416542  0.25869180  1
  Na  Na8  1  0.18787364  0.93571453  0.27532072  1
  Na  Na9  1  0.18787364  0.06428547  0.77532072  1
  Na  Na10  1  0.68787364  0.43571453  0.27532072  1
  Na  Na11  1  0.68787364  0.56428547  0.77532072  1
  Al  Al0  1  0.10588845  0.74182446  0.56483662  1
  Al  Al1  1  0.10588845  0.25817554  0.06483662  1
  Al  Al2  1  0.60588845  0.24182446  0.56483662  1
  Al  Al3  1  0.60588845  0.75817554  0.06483662  1
  Si  Si0  1  0.64541417  0.89357962  0.75111737  1
  Si  Si1  1  0.64541417  0.10642038  0.25111737  1
  Si  Si2  1  0.14541417  0.39357962  0.75111737  1
  Si  Si3  1  0.14541417  0.60642038  0.25111737  1
  Ge  Ge0  1  0.89733009  0.75863596  0.94142806  1
  Ge  Ge1  1  0.89733009  0.24136404  0.44142806  1
  Ge  Ge2  1  0.39733009  0.25863596  0.94142806  1
  Ge  Ge3  1  0.39733009  0.74136404  0.44142806  1
  P  P0  1  0.99801597  0.96336397  0.75564203  1
  P  P1  1  0.99801597  0.03663603  0.25564203  1
  P  P2  1  0.49801597  0.46336397  0.75564203  1
  P  P3  1  0.49801597  0.53663603  0.25564203  1
  P  P4  1  0.35604618  0.88955542  0.75765378  1
  P  P5  1  0.35604618  0.11044458  0.25765378  1
  P  P6  1  0.85604618  0.38955542  0.75765378  1
  P  P7  1  0.85604618  0.61044458  0.25765378  1
  O  O0  1  0.14661188  0.57927985  0.73259679  1
  O  O1  1  0.85092267  0.57087286  0.76450363  1
  O  O2  1  0.85092267  0.42912714  0.26450363  1
  O  O3  1  0.14661188  0.42072015  0.23259679  1
  O  O4  1  0.64661188  0.07927985  0.73259679  1
  O  O5  1  0.35092267  0.07087286  0.76450363  1
  O  O6  1  0.35092267  0.92912714  0.26450363  1
  O  O7  1  0.64661188  0.92072015  0.23259679  1
  O  O8  1  0.42468432  0.56075190  0.57507575  1
  O  O9  1  0.56694478  0.56123951  0.93204750  1
  O  O10  1  0.56694478  0.43876049  0.43204750  1
  O  O11  1  0.42468432  0.43924810  0.07507575  1
  O  O12  1  0.92468432  0.06075190  0.57507575  1
  O  O13  1  0.06694478  0.06123951  0.93204750  1
  O  O14  1  0.06694478  0.93876049  0.43204750  1
  O  O15  1  0.92468432  0.93924810  0.07507575  1
  O  O16  1  0.25219898  0.82816412  0.73503176  1
  O  O17  1  0.74994817  0.80637677  0.76847010  1
  O  O18  1  0.74994817  0.19362323  0.26847010  1
  O  O19  1  0.25219898  0.17183588  0.23503176  1
  O  O20  1  0.75219898  0.32816412  0.73503176  1
  O  O21  1  0.24994817  0.30637677  0.76847010  1
  O  O22  1  0.24994817  0.69362323  0.26847010  1
  O  O23  1  0.75219898  0.67183588  0.23503176  1
  O  O24  1  0.35799462  0.86536851  0.58175690  1
  O  O25  1  0.63605492  0.85215953  0.91903659  1
  O  O26  1  0.63605492  0.14784047  0.41903659  1
  O  O27  1  0.35799462  0.13463149  0.08175690  1
  O  O28  1  0.85799462  0.36536851  0.58175690  1
  O  O29  1  0.13605492  0.35215953  0.91903659  1
  O  O30  1  0.13605492  0.64784047  0.41903659  1
  O  O31  1  0.85799462  0.63463149  0.08175690  1
  O  O32  1  0.45651659  0.82317605  0.93584501  1
  O  O33  1  0.53919669  0.81077545  0.55641935  1
  O  O34  1  0.53919669  0.18922455  0.05641935  1
  O  O35  1  0.45651659  0.17682395  0.43584501  1
  O  O36  1  0.95651659  0.32317605  0.93584501  1
  O  O37  1  0.03919669  0.31077545  0.55641935  1
  O  O38  1  0.03919669  0.68922455  0.05641935  1
  O  O39  1  0.95651659  0.67682395  0.43584501  1
  O  O40  1  0.07807567  0.86050091  0.74087091  1
  O  O41  1  0.91540833  0.85385673  0.75708002  1
  O  O42  1  0.91540833  0.14614327  0.25708002  1
  O  O43  1  0.07807567  0.13949909  0.24087091  1
  O  O44  1  0.57807567  0.36050091  0.74087091  1
  O  O45  1  0.41540833  0.35385673  0.75708002  1
  O  O46  1  0.41540833  0.64614327  0.25708002  1
  O  O47  1  0.57807567  0.63949909  0.24087091  1
loop_
_geom_bond_atom_site_label_1
_geom_bond_atom_site_label_2
_geom_bond_distance
_geom_bond_site_symmetry_2
Na0 O0 2.293169 1_555
Na0 O46 2.295422 1_556
Na0 O22 2.408424 1_556
Na0 O16 2.466037 1_555
Na0 O40 2.524565 1_555
Na0 O6 2.606740 1_556
Na1 O7 2.293169 1_555
Na1 O41 2.295422 1_555
Na1 O17 2.408424 1_555
Na1 O23 2.466037 1_555
Na1 O47 2.524565 1_555
Na1 O1 2.606740 1_555
Na2 O4 2.293169 1_555
Na2 O42 2.295422 1_556
Na2 O18 2.408424 1_556
Na2 O20 2.466037 1_555
Na2 O44 2.524565 1_555
Na2 O2 2.606740 1_556
Na3 O3 2.293169 1_555
Na3 O45 2.295422 1_555
Na3 O21 2.408424 1_555
Na3 O19 2.466037 1_555
Na3 O43 2.524565 1_555
Na3 O5 2.606740 1_555
Na4 O4 2.293729 1_555
Na4 O5 2.348411 1_555
Na4 O34 2.430110 1_556
Na4 O44 2.442376 1_555
Na4 O45 2.449331 1_555
Na4 O35 2.544826 1_555
Na4 O25 2.813536 1_545
Na4 O24 2.826683 1_545
Na5 O7 2.293729 1_555
Na5 O6 2.348411 1_555
Na5 O33 2.430110 1_555
Na5 O47 2.442376 1_555
Na5 O46 2.449331 1_555
Na5 O32 2.544826 1_554
Na5 O26 2.813536 1_565
Na5 O27 2.826683 1_565
Na6 O0 2.293729 1_555
Na6 O1 2.348411 1_455
Na6 O38 2.430110 1_556
Na6 O40 2.442376 1_555
Na6 O41 2.449331 1_455
Na6 O39 2.544826 1_455
Na6 O29 2.813536 1_555
Na6 O28 2.826683 1_455
Na7 O3 2.293729 1_555
Na7 O2 2.348411 1_455
Na7 O37 2.430110 1_555
Na7 O43 2.442376 1_555
Na7 O42 2.449331 1_455
Na7 O36 2.544826 1_454
Na7 O30 2.813536 1_555
Na7 O31 2.826683 1_455
Na8 O43 2.311437 1_565
Na8 O22 2.312362 1_555
Na8 O19 2.375580 1_565
Na8 O24 2.485061 1_555
Na8 O6 2.492754 1_555
Na8 O13 2.689824 1_564
Na8 O14 2.830757 1_555
Na8 O38 2.877938 1_555
Na9 O40 2.311437 1_545
Na9 O21 2.312362 1_555
Na9 O16 2.375580 1_545
Na9 O27 2.485061 1_556
Na9 O5 2.492754 1_555
Na9 O14 2.689824 1_545
Na9 O13 2.830757 1_555
Na9 O37 2.877938 1_555
Na10 O47 2.311437 1_555
Na10 O18 2.312362 1_555
Na10 O23 2.375580 1_555
Na10 O28 2.485061 1_555
Na10 O2 2.492754 1_555
Na10 O9 2.689824 1_554
Na10 O10 2.830757 1_555
Na10 O34 2.877938 1_555
Na11 O44 2.311437 1_555
Na11 O17 2.312362 1_555
Na11 O20 2.375580 1_555
Na11 O31 2.485061 1_556
Na11 O1 2.492754 1_555
Na11 O10 2.689824 1_555
Na11 O9 2.830757 1_555
Na11 O33 2.877938 1_555
Al0 O30 1.779224 1_555
Al0 O0 1.868746 1_555
Al0 O39 1.915418 1_455
Al0 O16 1.951006 1_555
Al0 O14 1.958631 1_555
Al0 O40 2.086500 1_555
Al1 O29 1.779224 1_554
Al1 O3 1.868746 1_555
Al1 O36 1.915418 1_454
Al1 O19 1.951006 1_555
Al1 O13 1.958631 1_554
Al1 O43 2.086500 1_555
Al2 O26 1.779224 1_555
Al2 O4 1.868746 1_555
Al2 O35 1.915418 1_555
Al2 O20 1.951006 1_555
Al2 O10 1.958631 1_555
Al2 O44 2.086500 1_555
Al3 O25 1.779224 1_554
Al3 O7 1.868746 1_555
Al3 O32 1.915418 1_554
Al3 O23 1.951006 1_555
Al3 O9 1.958631 1_554
Al3 O47 2.086500 1_555
Ge0 O38 1.846406 1_656
Ge0 O15 1.856439 1_556
Ge0 O17 1.862866 1_555
Ge0 O31 1.962253 1_556
Ge0 O41 1.967115 1_555
Ge0 O1 2.074435 1_555
Ge1 O37 1.846406 1_655
Ge1 O12 1.856439 1_555
Ge1 O18 1.862866 1_555
Ge1 O28 1.962253 1_555
Ge1 O42 1.967115 1_555
Ge1 O2 2.074435 1_555
Ge2 O34 1.846406 1_556
Ge2 O11 1.856439 1_556
Ge2 O21 1.862866 1_555
Ge2 O27 1.962253 1_556
Ge2 O45 1.967115 1_555
Ge2 O5 2.074435 1_555
Ge3 O33 1.846406 1_555
Ge3 O8 1.856439 1_555
Ge3 O22 1.862866 1_555
Ge3 O24 1.962253 1_555
Ge3 O46 1.967115 1_555
Ge3 O6 2.074435 1_555
O0 Si2 1.621753 1_555
O1 P6 1.579098 1_555
O2 P7 1.579098 1_555
O3 Si3 1.621753 1_555
O4 Si0 1.621753 1_545
O5 P4 1.579098 1_545
O6 P5 1.579098 1_565
O7 Si1 1.621753 1_565
O8 P2 1.555796 1_555
O9 P2 1.528757 1_555
O10 P3 1.528757 1_555
O11 P3 1.555796 1_555
O12 P0 1.555796 1_545
O13 P0 1.528757 1_445
O14 P1 1.528757 1_465
O15 P1 1.555796 1_565
O16 P4 1.541580 1_555
O17 Si0 1.661999 1_555
O18 Si1 1.661999 1_555
O19 P5 1.541580 1_555
O20 P6 1.541580 1_555
O21 Si2 1.661999 1_555
O22 Si3 1.661999 1_555
O23 P7 1.541580 1_555
O24 P4 1.572484 1_555
O25 Si0 1.597356 1_555
O26 Si1 1.597356 1_555
O27 P5 1.572484 1_555
O28 P6 1.572484 1_555
O29 Si2 1.597356 1_555
O30 Si3 1.597356 1_555
O31 P7 1.572484 1_555
O32 P4 1.523634 1_555
O33 Si0 1.680713 1_555
O34 Si1 1.680713 1_555
O35 P5 1.523634 1_555
O36 P6 1.523634 1_555
O37 Si2 1.680713 1_555
O38 Si3 1.680713 1_555
O39 P7 1.523634 1_555
O40 P0 1.556933 1_455
O41 P0 1.563895 1_555
O42 P1 1.563895 1_555
O43 P1 1.556933 1_455
O44 P2 1.556933 1_555
O45 P2 1.563895 1_555
O46 P3 1.563895 1_555
O47 P3 1.556933 1_555
