# generated using pymatgen
data_ThHg2
_symmetry_space_group_name_H-M   'P 1'
_cell_length_a   4.87849922
_cell_length_b   4.87850018
_cell_length_c   7.56121989
_cell_angle_alpha   90.00000000
_cell_angle_beta   90.00000000
_cell_angle_gamma   119.99999352
_symmetry_Int_Tables_number   1
_chemical_formula_structural   ThHg2
_chemical_formula_sum   'Th2 Hg4'
_cell_volume   155.84579652
_cell_formula_units_Z   2
loop_
 _symmetry_equiv_pos_site_id
 _symmetry_equiv_pos_as_xyz
  1  'x, y, z'
loop_
 _atom_site_type_symbol
 _atom_site_label
 _atom_site_symmetry_multiplicity
 _atom_site_fract_x
 _atom_site_fract_y
 _atom_site_fract_z
 _atom_site_occupancy
  Th  Th0  1  -0.00000000  -0.00000000  0.25000000  1
  Th  Th1  1  0.00000000  -0.00000000  0.75000000  1
  Hg  Hg0  1  0.33333300  0.66666700  0.04387316  1
  Hg  Hg1  1  0.66666700  0.33333300  0.54387316  1
  Hg  Hg2  1  0.66666700  0.33333300  0.95612684  1
  Hg  Hg3  1  0.33333300  0.66666700  0.45612684  1
loop_
_geom_bond_atom_site_label_1
_geom_bond_atom_site_label_2
_geom_bond_distance
_geom_bond_site_symmetry_2
Hg0 Hg2 2.893688 1_454
Hg0 Hg2 2.893688 1_564
Hg0 Hg2 2.893696 1_554
Hg0 Hg3 3.117141 1_555
Hg0 Th0 3.219065 1_565
Hg0 Th0 3.219069 1_665
Hg0 Th0 3.219069 1_555
Hg0 Th1 3.587575 1_564
Hg0 Th1 3.587579 1_664
Hg0 Th1 3.587579 1_554
Hg1 Hg3 2.893688 1_655
Hg1 Hg3 2.893688 1_545
Hg1 Hg3 2.893696 1_555
Hg1 Hg2 3.117141 1_555
Hg1 Th1 3.219065 1_655
Hg1 Th1 3.219069 1_555
Hg1 Th1 3.219069 1_665
Hg1 Th0 3.587575 1_655
Hg1 Th0 3.587579 1_555
Hg1 Th0 3.587579 1_665
Hg2 Th1 3.219065 1_655
Hg2 Th1 3.219069 1_555
Hg2 Th1 3.219069 1_665
Hg2 Th0 3.587575 1_656
Hg2 Th0 3.587579 1_556
Hg2 Th0 3.587579 1_666
Hg3 Th0 3.219065 1_565
Hg3 Th0 3.219069 1_665
Hg3 Th0 3.219069 1_555
Hg3 Th1 3.587575 1_565
Hg3 Th1 3.587579 1_665
Hg3 Th1 3.587579 1_555
