# generated using pymatgen
data_Na7Ca3NbSi3(SO8)3
_symmetry_space_group_name_H-M   'P 1'
_cell_length_a   9.42850896
_cell_length_b   9.45598289
_cell_length_c   23.06152940
_cell_angle_alpha   89.45694931
_cell_angle_beta   90.41202308
_cell_angle_gamma   119.88806975
_symmetry_Int_Tables_number   1
_chemical_formula_structural   Na7Ca3NbSi3(SO8)3
_chemical_formula_sum   'Na21 Ca9 Nb3 Si9 S9 O72'
_cell_volume   1782.52609064
_cell_formula_units_Z   3
loop_
 _symmetry_equiv_pos_site_id
 _symmetry_equiv_pos_as_xyz
  1  'x, y, z'
loop_
 _atom_site_type_symbol
 _atom_site_label
 _atom_site_symmetry_multiplicity
 _atom_site_fract_x
 _atom_site_fract_y
 _atom_site_fract_z
 _atom_site_occupancy
  Na  Na0  1  0.63563402  0.99730315  0.23608902  1
  Na  Na1  1  0.37675372  0.34297830  0.25849782  1
  Na  Na2  1  0.98578700  0.66469003  0.25255856  1
  Na  Na3  1  0.67885408  0.64774256  0.75542457  1
  Na  Na4  1  0.98132852  0.33321869  0.75669973  1
  Na  Na5  1  0.35072207  0.01448054  0.75599312  1
  Na  Na6  1  0.29140913  0.32897857  0.58843879  1
  Na  Na7  1  0.04047839  0.70994727  0.58838724  1
  Na  Na8  1  0.67353882  0.96781979  0.59700699  1
  Na  Na9  1  0.31347764  0.96913636  0.09420172  1
  Na  Na10  1  0.66477096  0.72482445  0.07714271  1
  Na  Na11  1  0.02459584  0.31810965  0.07718102  1
  Na  Na12  1  0.98806463  0.31559876  0.41919309  1
  Na  Na13  1  0.31140983  0.03807553  0.40628919  1
  Na  Na14  1  0.71365675  0.65912904  0.40156141  1
  Na  Na15  1  0.01981927  0.99832378  0.49092890  1
  Na  Na16  1  0.95714359  0.98093864  0.98936775  1
  Na  Na17  1  0.66615137  0.33497067  0.81877421  1
  Na  Na18  1  0.65420148  0.34340007  0.33129248  1
  Na  Na19  1  0.36920401  0.70412759  0.16734576  1
  Na  Na20  1  0.32578983  0.66837262  0.67275201  1
  Ca  Ca0  1  0.00131155  0.99604421  0.34634252  1
  Ca  Ca1  1  0.99338112  0.99119589  0.84779344  1
  Ca  Ca2  1  0.00311058  0.99516986  0.67046808  1
  Ca  Ca3  1  0.98763445  0.98566274  0.15325546  1
  Ca  Ca4  1  0.66744504  0.33567875  0.68478789  1
  Ca  Ca5  1  0.66062269  0.32863189  0.18385559  1
  Ca  Ca6  1  0.66633448  0.34191298  0.47763434  1
  Ca  Ca7  1  0.34374161  0.67429009  0.01137317  1
  Ca  Ca8  1  0.32776611  0.66011495  0.51396156  1
  Nb  Nb0  1  0.66660019  0.32654740  0.97494901  1
  Nb  Nb1  1  0.32915913  0.66326100  0.31860817  1
  Nb  Nb2  1  0.35008773  0.66186262  0.81454214  1
  Si  Si0  1  0.30669369  0.99391610  0.25091717  1
  Si  Si1  1  0.68364091  0.69301069  0.25167527  1
  Si  Si2  1  0.30623278  0.30566395  0.74827241  1
  Si  Si3  1  0.01089589  0.69249605  0.74965880  1
  Si  Si4  1  0.69374266  0.99979468  0.74816641  1
  Si  Si5  1  0.66745566  0.03800221  0.08323657  1
  Si  Si6  1  0.63479185  0.66315551  0.92404736  1
  Si  Si7  1  0.32911332  0.36437514  0.42009423  1
  Si  Si8  1  0.03277583  0.66614452  0.41923127  1
  S  S0  1  0.01124124  0.31532027  0.25102520  1
  S  S1  1  0.96694859  0.32727203  0.58197494  1
  S  S2  1  0.36461593  0.03189452  0.58119686  1
  S  S3  1  0.67366285  0.64408485  0.58183855  1
  S  S4  1  0.95454336  0.62024976  0.07941232  1
  S  S5  1  0.37116482  0.32904156  0.07993604  1
  S  S6  1  0.02802331  0.36961751  0.92098177  1
  S  S7  1  0.34377309  0.97509289  0.91926757  1
  S  S8  1  0.62449290  0.95967298  0.41540224  1
  O  O0  1  0.22347979  0.02998206  0.30554438  1
  O  O1  1  0.79428246  0.77876942  0.30810845  1
  O  O2  1  0.98517751  0.21572820  0.30325124  1
  O  O3  1  0.21460651  0.17199029  0.79780227  1
  O  O4  1  0.95573441  0.78691496  0.79335635  1
  O  O5  1  0.83257569  0.05116663  0.79641583  1
  O  O6  1  0.73810612  0.93931857  0.68833053  1
  O  O7  1  0.20564514  0.25992718  0.68683966  1
  O  O8  1  0.07260241  0.79237370  0.68759203  1
  O  O9  1  0.74925869  0.80661373  0.19276650  1
  O  O10  1  0.03753934  0.24015993  0.19890976  1
  O  O11  1  0.19393193  0.94876612  0.19156042  1
  O  O12  1  0.87737103  0.33407471  0.63324782  1
  O  O13  1  0.45809918  0.12061814  0.63312380  1
  O  O14  1  0.66040188  0.54642896  0.63408947  1
  O  O15  1  0.88316822  0.53581287  0.13467291  1
  O  O16  1  0.65891909  0.12114276  0.14258184  1
  O  O17  1  0.46330421  0.35489658  0.13460355  1
  O  O18  1  0.47129603  0.32233631  0.03028995  1
  O  O19  1  0.84530136  0.52120529  0.02952302  1
  O  O20  1  0.67088773  0.16915668  0.02818202  1
  O  O21  1  0.45003790  0.12232454  0.52766483  1
  O  O22  1  0.68014140  0.55853277  0.52904842  1
  O  O23  1  0.87679344  0.32147978  0.52788355  1
  O  O24  1  0.55522281  0.66810085  0.98443553  1
  O  O25  1  0.10964276  0.44573427  0.97555496  1
  O  O26  1  0.33107607  0.88974469  0.97380894  1
  O  O27  1  0.55553815  0.86836626  0.46937576  1
  O  O28  1  0.32101955  0.44508364  0.48015067  1
  O  O29  1  0.13172453  0.68745124  0.47859828  1
  O  O30  1  0.15818836  0.66517465  0.36359093  1
  O  O31  1  0.51948427  0.86163681  0.36415304  1
  O  O32  1  0.33520811  0.49501648  0.36477817  1
  O  O33  1  0.11066004  0.47393176  0.86994771  1
  O  O34  1  0.36750337  0.89389527  0.86873994  1
  O  O35  1  0.50116603  0.64156044  0.86941089  1
  O  O36  1  0.00413364  0.82141922  0.41308487  1
  O  O37  1  0.79229452  0.98921175  0.40863306  1
  O  O38  1  0.16089305  0.19025748  0.41361160  1
  O  O39  1  0.00129192  0.20401791  0.91633207  1
  O  O40  1  0.20949885  0.00903491  0.91331775  1
  O  O41  1  0.81603586  0.81080596  0.91530811  1
  O  O42  1  0.98325672  0.17782626  0.58348689  1
  O  O43  1  0.19728944  0.01388661  0.58121685  1
  O  O44  1  0.82630006  0.80765372  0.58337751  1
  O  O45  1  0.96703203  0.78351728  0.07746073  1
  O  O46  1  0.83775330  0.03203640  0.07536835  1
  O  O47  1  0.21300784  0.17172179  0.08105088  1
  O  O48  1  0.63555884  0.13467301  0.74433564  1
  O  O49  1  0.49947818  0.36236323  0.74611107  1
  O  O50  1  0.86727504  0.50171555  0.74582632  1
  O  O51  1  0.66210235  0.51072770  0.24726729  1
  O  O52  1  0.87422493  0.34813477  0.24434730  1
  O  O53  1  0.49475754  0.14528695  0.24851191  1
  O  O54  1  0.64142904  0.48205821  0.92829210  1
  O  O55  1  0.85512732  0.35725766  0.92334959  1
  O  O56  1  0.50497173  0.14664772  0.92279022  1
  O  O57  1  0.62474434  0.11690130  0.41416016  1
  O  O58  1  0.49556402  0.35434579  0.40951555  1
  O  O59  1  0.86497566  0.48984639  0.41030199  1
  O  O60  1  0.33511949  0.46487992  0.07428768  1
  O  O61  1  0.11905705  0.63672638  0.07392790  1
  O  O62  1  0.49973038  0.85856228  0.08029246  1
  O  O63  1  0.35179115  0.86651293  0.58265019  1
  O  O64  1  0.52704154  0.66734478  0.58110220  1
  O  O65  1  0.13374900  0.47781364  0.58341280  1
  O  O66  1  0.32122834  0.82219065  0.26194922  1
  O  O67  1  0.49441905  0.66973320  0.26246853  1
  O  O68  1  0.16643591  0.48061765  0.25690336  1
  O  O69  1  0.30929982  0.48673893  0.76651287  1
  O  O70  1  0.18105695  0.68770779  0.77469768  1
  O  O71  1  0.51318633  0.82306305  0.76777045  1
loop_
_geom_bond_atom_site_label_1
_geom_bond_atom_site_label_2
_geom_bond_distance
_geom_bond_site_symmetry_2
Na0 O53 2.381159 1_565
Na0 O16 2.402574 1_565
Na0 O66 2.645713 1_555
Na0 O9 2.715141 1_555
Na0 O67 2.757366 1_555
Na0 O52 2.944584 1_565
Na1 O51 2.360210 1_555
Na1 O53 2.621088 1_555
Na1 O67 2.715444 1_555
Na1 O0 2.779267 1_555
Na1 O68 2.863164 1_555
Na1 O17 2.962759 1_555
Na1 O32 2.978175 1_555
Na2 O52 2.640515 1_555
Na2 O51 2.649199 1_555
Na2 O66 2.751298 1_655
Na2 O11 2.785718 1_655
Na2 O1 2.840004 1_555
Na2 O15 2.943135 1_555
Na2 O68 2.981542 1_655
Na2 O30 3.021874 1_655
Na3 O49 2.376108 1_555
Na3 O4 2.424302 1_555
Na3 O50 2.750993 1_555
Na4 O50 2.335379 1_555
Na4 O5 2.482635 1_555
Na4 O69 2.691309 1_655
Na4 O48 2.851519 1_555
Na4 O33 2.912261 1_655
Na4 O70 2.945984 1_655
Na4 O12 3.005574 1_555
Na4 O7 3.013298 1_655
Na5 O48 2.353512 1_555
Na5 O3 2.597119 1_555
Na5 O70 2.711334 1_545
Na5 O34 2.864173 1_545
Na5 O49 2.869249 1_555
Na5 O8 2.879255 1_545
Na5 O71 2.905914 1_545
Na5 O13 3.005992 1_555
Na6 O7 2.387871 1_555
Na6 O65 2.506643 1_555
Na6 O42 2.521321 1_455
Na6 O43 2.657983 1_555
Na6 O28 2.678122 1_555
Na6 O64 2.848257 1_555
Na7 O8 2.392048 1_555
Na7 O43 2.496610 1_565
Na7 O63 2.548700 1_555
Na7 O44 2.607469 1_455
Na7 O29 2.723939 1_555
Na7 O65 2.744956 1_555
Na8 O6 2.238983 1_555
Na8 O64 2.493296 1_555
Na8 O44 2.580043 1_555
Na8 O42 2.605797 1_565
Na8 O63 2.706545 1_555
Na9 O62 2.474745 1_555
Na9 O11 2.482030 1_555
Na9 O47 2.540153 1_565
Na9 O61 2.780661 1_555
Na9 O45 2.860139 1_455
Na9 O26 2.910332 1_554
Na10 O24 2.315877 1_554
Na10 O62 2.447554 1_555
Na10 O46 2.525372 1_565
Na10 O45 2.617881 1_555
Na10 O9 2.781594 1_555
Na10 O60 2.844785 1_555
Na11 O46 2.382124 1_455
Na11 O60 2.540461 1_555
Na11 O25 2.569258 1_554
Na11 O61 2.682995 1_555
Na11 O47 2.743341 1_555
Na11 O10 2.912791 1_555
Na12 O59 2.449424 1_555
Na12 O38 2.450990 1_655
Na12 O37 2.705913 1_545
Na12 O23 2.735917 1_555
Na12 O2 2.839537 1_555
Na13 O0 2.450199 1_555
Na13 O38 2.481258 1_555
Na13 O36 2.588509 1_545
Na13 O58 2.606054 1_555
Na13 O57 2.667686 1_555
Na14 O1 2.371235 1_555
Na14 O36 2.394794 1_655
Na14 O58 2.580161 1_555
Na14 O59 2.627601 1_555
Na14 O37 2.831978 1_555
Na15 O38 2.410253 1_565
Na15 O36 2.418564 1_555
Na15 O43 2.620549 1_565
Na15 O44 2.798185 1_455
Na15 O37 2.823406 1_455
Na15 O42 2.866800 1_465
Na16 O41 2.271895 1_555
Na16 O46 2.454880 1_566
Na16 O39 2.554905 1_665
Na16 O45 2.778446 1_556
Na16 O40 2.868609 1_665
Na17 O49 2.388359 1_555
Na17 O50 2.434728 1_555
Na17 O48 2.475373 1_555
Na17 O56 2.917036 1_555
Na17 O55 2.934082 1_555
Na17 O54 2.960724 1_555
Na18 O58 2.387199 1_555
Na18 O51 2.467877 1_555
Na18 O59 2.537720 1_555
Na18 O53 2.575594 1_555
Na18 O57 2.766524 1_555
Na18 O52 2.879491 1_555
Na19 O62 2.422057 1_555
Na19 O67 2.577534 1_555
Na19 O66 2.602773 1_555
Na19 O68 2.886974 1_555
Na19 O61 3.010798 1_555
Na19 O60 3.030594 1_555
Na20 O69 2.705139 1_555
Na20 O63 2.713649 1_555
Na20 O71 2.737237 1_555
Na20 O65 2.745057 1_555
Na20 O70 2.779542 1_555
Na20 O64 2.853823 1_555
Ca0 O0 2.174562 1_565
Ca0 O1 2.195807 1_455
Ca0 O36 2.256421 1_555
Ca0 O38 2.304286 1_565
Ca0 O2 2.366348 1_465
Ca0 O37 2.421476 1_455
Ca1 O4 2.188522 1_555
Ca1 O5 2.200562 1_565
Ca1 O3 2.246302 1_665
Ca1 O41 2.296589 1_555
Ca1 O40 2.466156 1_665
Ca1 O39 2.542205 1_665
Ca2 O7 2.302131 1_565
Ca2 O6 2.321026 1_455
Ca2 O8 2.344502 1_555
Ca2 O44 2.651490 1_455
Ca2 O42 2.700575 1_465
Ca2 O43 2.709991 1_565
Ca3 O9 2.226211 1_555
Ca3 O11 2.308933 1_655
Ca3 O46 2.445765 1_565
Ca3 O10 2.456349 1_665
Ca3 O45 2.536771 1_555
Ca3 O47 2.579325 1_665
Ca4 O48 2.230670 1_555
Ca4 O49 2.238060 1_555
Ca4 O50 2.247656 1_555
Ca4 O12 2.322642 1_555
Ca4 O14 2.330120 1_555
Ca4 O13 2.337265 1_555
Ca5 O16 2.181632 1_555
Ca5 O53 2.226463 1_555
Ca5 O51 2.264319 1_555
Ca5 O17 2.288601 1_555
Ca5 O15 2.328646 1_555
Ca5 O52 2.372854 1_555
Ca6 O58 2.285356 1_555
Ca6 O59 2.294620 1_555
Ca6 O22 2.323063 1_555
Ca6 O21 2.360066 1_555
Ca6 O23 2.379600 1_555
Ca6 O57 2.458234 1_555
Ca7 O24 2.121319 1_554
Ca7 O26 2.263399 1_554
Ca7 O62 2.278215 1_555
Ca7 O25 2.340608 1_554
Ca7 O60 2.412394 1_555
Ca7 O61 2.445279 1_555
Ca8 O29 2.144508 1_555
Ca8 O28 2.155668 1_555
Ca8 O27 2.307754 1_555
Ca8 O65 2.393802 1_555
Ca8 O64 2.400920 1_555
Ca8 O63 2.445921 1_555
Nb0 O54 1.921091 1_555
Nb0 O20 1.936059 1_556
Nb0 O56 2.022834 1_555
Nb0 O55 2.041906 1_555
Nb0 O19 2.175661 1_556
Nb0 O18 2.231816 1_556
Nb1 O32 1.930132 1_555
Nb1 O30 1.930929 1_555
Nb1 O67 2.010031 1_555
Nb1 O66 2.011166 1_555
Nb1 O31 2.120758 1_555
Nb1 O68 2.176243 1_555
Nb2 O71 1.873042 1_555
Nb2 O69 1.873746 1_555
Nb2 O70 1.951106 1_555
Nb2 O35 1.977127 1_555
Nb2 O33 2.426322 1_555
Nb2 O34 2.468442 1_555
O0 Si0 1.614921 1_545
O1 Si1 1.611512 1_555
O2 S0 1.466284 1_655
O3 Si2 1.596025 1_555
O4 Si3 1.603285 1_655
O5 Si4 1.594716 1_545
O6 Si4 1.633333 1_555
O7 Si2 1.636196 1_555
O8 Si3 1.648628 1_555
O9 Si1 1.644505 1_555
O10 S0 1.485655 1_555
O11 Si0 1.650504 1_555
O12 S1 1.478361 1_555
O13 S2 1.477052 1_555
O14 S3 1.478634 1_555
O15 S4 1.473772 1_555
O16 Si5 1.607059 1_555
O17 S5 1.477261 1_555
O18 S5 1.510871 1_555
O19 S4 1.517805 1_555
O20 Si5 1.755525 1_555
O21 S2 1.487232 1_555
O22 S3 1.486364 1_555
O23 S1 1.490395 1_555
O24 Si6 1.598654 1_555
O25 S6 1.464723 1_555
O26 S7 1.460951 1_555
O27 S8 1.466043 1_555
O28 Si7 1.608126 1_555
O29 Si8 1.607767 1_555
O30 Si8 1.754312 1_555
O31 S8 1.525025 1_555
O32 Si7 1.748470 1_555
O33 S6 1.480009 1_555
O34 S7 1.479626 1_555
O35 Si6 1.715305 1_555
O36 Si8 1.624662 1_555
O37 S8 1.472344 1_555
O38 Si7 1.627107 1_555
O39 S6 1.461694 1_555
O40 S7 1.458161 1_545
O41 Si6 1.591214 1_555
O42 S1 1.495798 1_555
O43 S2 1.500072 1_555
O44 S3 1.498865 1_555
O45 S4 1.488948 1_555
O46 Si5 1.645869 1_555
O47 S5 1.492084 1_555
O48 Si4 1.621692 1_545
O49 Si2 1.623859 1_555
O50 Si3 1.631765 1_655
O51 Si1 1.636083 1_555
O52 S0 1.478050 1_655
O53 Si0 1.632924 1_545
O54 Si6 1.746290 1_555
O55 S6 1.576489 1_655
O56 S7 1.578511 1_545
O57 S8 1.485573 1_545
O58 Si7 1.638825 1_555
O59 Si8 1.642516 1_655
O60 S5 1.487824 1_555
O61 S4 1.485880 1_455
O62 Si5 1.646492 1_565
O63 S2 1.507304 1_565
O64 S3 1.504118 1_555
O65 S1 1.506589 1_455
O66 Si0 1.712830 1_555
O67 Si1 1.705089 1_555
O68 S0 1.524592 1_555
O69 Si2 1.753194 1_555
O70 Si3 1.722801 1_555
O71 Si4 1.748345 1_555
