# generated using pymatgen
data_ThSi
_symmetry_space_group_name_H-M   'P 1'
_cell_length_a   4.14291393
_cell_length_b   5.92058138
_cell_length_c   7.96498443
_cell_angle_alpha   90.00000000
_cell_angle_beta   90.00000000
_cell_angle_gamma   90.00000000
_symmetry_Int_Tables_number   1
_chemical_formula_structural   ThSi
_chemical_formula_sum   'Th4 Si4'
_cell_volume   195.36879461
_cell_formula_units_Z   4
loop_
 _symmetry_equiv_pos_site_id
 _symmetry_equiv_pos_as_xyz
  1  'x, y, z'
loop_
 _atom_site_type_symbol
 _atom_site_label
 _atom_site_symmetry_multiplicity
 _atom_site_fract_x
 _atom_site_fract_y
 _atom_site_fract_z
 _atom_site_occupancy
  Th  Th0  1  0.25000000  0.12381104  0.17986721  1
  Th  Th1  1  0.75000000  0.87618896  0.82013279  1
  Th  Th2  1  0.75000000  0.62381104  0.32013279  1
  Th  Th3  1  0.25000000  0.37618896  0.67986721  1
  Si  Si0  1  0.25000000  0.62865403  0.03860205  1
  Si  Si1  1  0.75000000  0.37134597  0.96139795  1
  Si  Si2  1  0.75000000  0.12865403  0.46139795  1
  Si  Si3  1  0.25000000  0.87134597  0.53860205  1
loop_
_geom_bond_atom_site_label_1
_geom_bond_atom_site_label_2
_geom_bond_distance
_geom_bond_site_symmetry_2
Si0 Si1 2.643834 1_554
Si0 Si1 2.643834 1_454
Si0 Th2 3.052877 1_455
Si0 Th2 3.052877 1_555
Si0 Th1 3.076806 1_554
Si0 Th1 3.076806 1_454
Si0 Th0 3.140127 1_565
Si0 Th0 3.193732 1_555
Si0 Th3 3.224672 1_554
Si1 Th3 3.052877 1_555
Si1 Th3 3.052877 1_655
Si1 Th0 3.076806 1_656
Si1 Th0 3.076806 1_556
Si1 Th1 3.140127 1_545
Si1 Th1 3.193732 1_555
Si1 Th2 3.224672 1_556
Si2 Si3 2.643834 1_645
Si2 Si3 2.643834 1_545
Si2 Th0 3.052877 1_655
Si2 Th0 3.052877 1_555
Si2 Th3 3.076806 1_555
Si2 Th3 3.076806 1_655
Si2 Th2 3.140127 1_555
Si2 Th2 3.193732 1_545
Si2 Th1 3.224672 1_545
Si3 Th1 3.052877 1_455
Si3 Th1 3.052877 1_555
Si3 Th2 3.076806 1_555
Si3 Th2 3.076806 1_455
Si3 Th3 3.140127 1_555
Si3 Th3 3.193732 1_565
Si3 Th0 3.224672 1_565
