# generated using pymatgen
data_Al2Fe3Si4
_symmetry_space_group_name_H-M   'P 1'
_cell_length_a   6.37445554
_cell_length_b   6.37445554
_cell_length_c   10.08008800
_cell_angle_alpha   90.00000000
_cell_angle_beta   90.00000000
_cell_angle_gamma   146.72968291
_symmetry_Int_Tables_number   1
_chemical_formula_structural   Al2Fe3Si4
_chemical_formula_sum   'Al4 Fe6 Si8'
_cell_volume   224.69747830
_cell_formula_units_Z   2
loop_
 _symmetry_equiv_pos_site_id
 _symmetry_equiv_pos_as_xyz
  1  'x, y, z'
loop_
 _atom_site_type_symbol
 _atom_site_label
 _atom_site_symmetry_multiplicity
 _atom_site_fract_x
 _atom_site_fract_y
 _atom_site_fract_z
 _atom_site_occupancy
  Al  Al0  1  0.94248200  0.05751800  0.89088200  1
  Al  Al1  1  0.05751800  0.94248200  0.10911800  1
  Al  Al2  1  0.94248200  0.05751800  0.60911800  1
  Al  Al3  1  0.05751800  0.94248200  0.39088200  1
  Fe  Fe0  1  0.85065000  0.14935000  0.37476300  1
  Fe  Fe1  1  0.14935000  0.85065000  0.62523700  1
  Fe  Fe2  1  0.85065000  0.14935000  0.12523700  1
  Fe  Fe3  1  0.14935000  0.85065000  0.87476300  1
  Fe  Fe4  1  0.64771400  0.35228600  0.25000000  1
  Fe  Fe5  1  0.35228600  0.64771400  0.75000000  1
  Si  Si0  1  0.68056000  0.31944000  0.48643800  1
  Si  Si1  1  0.31944000  0.68056000  0.51356200  1
  Si  Si2  1  0.68056000  0.31944000  0.01356200  1
  Si  Si3  1  0.31944000  0.68056000  0.98643800  1
  Si  Si4  1  0.45490900  0.54509100  0.25000000  1
  Si  Si5  1  0.54509100  0.45490900  0.75000000  1
  Si  Si6  1  0.25996900  0.74003100  0.25000000  1
  Si  Si7  1  0.74003100  0.25996900  0.75000000  1
loop_
_geom_bond_atom_site_label_1
_geom_bond_atom_site_label_2
_geom_bond_distance
_geom_bond_site_symmetry_2
Al0 Fe3 2.532180 1_645
Al0 Si3 2.552819 1_545
Al0 Si3 2.552819 1_655
Al0 Fe5 2.561386 1_545
Al0 Fe5 2.561386 1_655
Al0 Al1 2.610342 1_646
Al0 Fe2 2.615128 1_556
Al0 Si5 2.630173 1_655
Al0 Si5 2.630173 1_545
Al0 Al2 2.840206 1_555
Al0 Si7 2.851745 1_555
Al1 Fe2 2.532180 1_465
Al1 Si2 2.552819 1_455
Al1 Si2 2.552819 1_565
Al1 Fe4 2.561386 1_455
Al1 Fe4 2.561386 1_565
Al1 Fe3 2.615128 1_554
Al1 Si4 2.630173 1_455
Al1 Si4 2.630173 1_565
Al1 Al3 2.840206 1_555
Al1 Si6 2.851745 1_555
Al2 Fe1 2.532180 1_645
Al2 Si1 2.552819 1_545
Al2 Si1 2.552819 1_655
Al2 Fe5 2.561386 1_545
Al2 Fe5 2.561386 1_655
Al2 Al3 2.610342 1_645
Al2 Fe0 2.615128 1_555
Al2 Si5 2.630173 1_655
Al2 Si5 2.630173 1_545
Al2 Si7 2.851745 1_555
Al3 Fe0 2.532180 1_465
Al3 Si0 2.552819 1_455
Al3 Si0 2.552819 1_565
Al3 Fe4 2.561386 1_455
Al3 Fe4 2.561386 1_565
Al3 Fe1 2.615128 1_555
Al3 Si4 2.630173 1_565
Al3 Si4 2.630173 1_455
Al3 Si6 2.851745 1_555
Fe0 Si1 2.330867 1_545
Fe0 Si1 2.330867 1_655
Fe0 Si0 2.363059 1_555
Fe0 Si6 2.477642 1_545
Fe0 Si6 2.477642 1_655
Fe0 Fe2 2.515244 1_555
Fe0 Si4 2.556103 1_655
Fe0 Si4 2.556103 1_545
Fe1 Si0 2.330867 1_455
Fe1 Si0 2.330867 1_565
Fe1 Si1 2.363059 1_555
Fe1 Si7 2.477642 1_455
Fe1 Si7 2.477642 1_565
Fe1 Fe3 2.515244 1_555
Fe1 Si5 2.556103 1_565
Fe1 Si5 2.556103 1_455
Fe2 Si3 2.330867 1_544
Fe2 Si3 2.330867 1_654
Fe2 Si2 2.363059 1_555
Fe2 Si6 2.477642 1_545
Fe2 Si6 2.477642 1_655
Fe2 Si4 2.556103 1_655
Fe2 Si4 2.556103 1_545
Fe3 Si2 2.330867 1_456
Fe3 Si2 2.330867 1_566
Fe3 Si3 2.363059 1_555
Fe3 Si7 2.477642 1_455
Fe3 Si7 2.477642 1_565
Fe3 Si5 2.556103 1_565
Fe3 Si5 2.556103 1_455
Fe4 Si6 2.282625 1_655
Fe4 Si6 2.282625 1_545
Fe4 Si4 2.355177 1_555
Fe4 Si2 2.416852 1_555
Fe4 Si0 2.416852 1_555
Fe5 Si7 2.282625 1_565
Fe5 Si7 2.282625 1_455
Fe5 Si5 2.355177 1_555
Fe5 Si3 2.416852 1_555
Fe5 Si1 2.416852 1_555
Si0 Si1 2.506561 1_655
Si0 Si1 2.506561 1_545
Si0 Si7 2.754260 1_555
Si1 Si6 2.754260 1_555
Si2 Si3 2.506561 1_654
Si2 Si3 2.506561 1_544
Si2 Si7 2.754260 1_554
Si3 Si6 2.754260 1_556
Si4 Si6 2.381257 1_555
Si5 Si7 2.381257 1_555
