# generated using pymatgen
data_MgCr2(HgO4)2
_symmetry_space_group_name_H-M   'P 1'
_cell_length_a   5.32750341
_cell_length_b   5.32750343
_cell_length_c   7.78421995
_cell_angle_alpha   91.33123699
_cell_angle_beta   88.66876305
_cell_angle_gamma   100.85382496
_symmetry_Int_Tables_number   1
_chemical_formula_structural   MgCr2(HgO4)2
_chemical_formula_sum   'Mg1 Cr2 Hg2 O8'
_cell_volume   216.88309473
_cell_formula_units_Z   1
loop_
 _symmetry_equiv_pos_site_id
 _symmetry_equiv_pos_as_xyz
  1  'x, y, z'
loop_
 _atom_site_type_symbol
 _atom_site_label
 _atom_site_symmetry_multiplicity
 _atom_site_fract_x
 _atom_site_fract_y
 _atom_site_fract_z
 _atom_site_occupancy
  Mg  Mg0  1  0.50000000  0.50000000  0.00000000  1
  Cr  Cr0  1  0.65294262  0.34705738  0.26969851  1
  Cr  Cr1  1  0.34705738  0.65294262  0.73030149  1
  Hg  Hg0  1  0.00000000  -0.00000000  0.50000000  1
  Hg  Hg1  1  0.00000000  -0.00000000  0.00000000  1
  O  O0  1  0.66475189  0.73184714  0.77079635  1
  O  O1  1  0.33524811  0.26815286  0.22920365  1
  O  O2  1  0.73184714  0.66475189  0.22920365  1
  O  O3  1  0.26815286  0.33524811  0.77079635  1
  O  O4  1  0.24681184  0.75318816  0.93962873  1
  O  O5  1  0.75570721  0.24429279  0.46098151  1
  O  O6  1  0.75318816  0.24681184  0.06037127  1
  O  O7  1  0.24429279  0.75570721  0.53901849  1
loop_
_geom_bond_atom_site_label_1
_geom_bond_atom_site_label_2
_geom_bond_distance
_geom_bond_site_symmetry_2
Mg0 O6 2.145650 1_555
Mg0 O4 2.145650 1_554
Mg0 O3 2.258458 1_554
Mg0 O2 2.258458 1_555
Mg0 O0 2.258458 1_554
Mg0 O1 2.258458 1_555
Cr0 O1 1.700404 1_555
Cr0 O2 1.700404 1_555
Cr0 O5 1.733549 1_555
Cr0 O6 1.803355 1_555
Cr1 O0 1.700404 1_555
Cr1 O3 1.700404 1_555
Cr1 O7 1.733549 1_555
Cr1 O4 1.803355 1_555
Hg0 O7 2.038270 1_545
Hg0 O5 2.038270 1_455
Hg1 O6 2.066986 1_455
Hg1 O4 2.066986 1_544
