# generated using pymatgen
data_Ni(C2N3)2
_symmetry_space_group_name_H-M   'P 1'
_cell_length_a   6.04918500
_cell_length_b   7.05977700
_cell_length_c   7.26975900
_cell_angle_alpha   90.00000000
_cell_angle_beta   90.00000000
_cell_angle_gamma   90.00000000
_symmetry_Int_Tables_number   1
_chemical_formula_structural   Ni(C2N3)2
_chemical_formula_sum   'Ni2 C8 N12'
_cell_volume   310.46158003
_cell_formula_units_Z   2
loop_
 _symmetry_equiv_pos_site_id
 _symmetry_equiv_pos_as_xyz
  1  'x, y, z'
loop_
 _atom_site_type_symbol
 _atom_site_label
 _atom_site_symmetry_multiplicity
 _atom_site_fract_x
 _atom_site_fract_y
 _atom_site_fract_z
 _atom_site_occupancy
  Ni  Ni0  1  0.50000000  0.50000000  0.50000000  1
  Ni  Ni1  1  0.00000000  0.00000000  0.00000000  1
  C  C0  1  0.74317600  0.15553600  0.65545300  1
  C  C1  1  0.24317600  0.34446400  0.84454700  1
  C  C2  1  0.74317600  0.15553600  0.34454700  1
  C  C3  1  0.24317600  0.34446400  0.15545300  1
  C  C4  1  0.75682400  0.65553600  0.15545300  1
  C  C5  1  0.25682400  0.84446400  0.34454700  1
  C  C6  1  0.25682400  0.84446400  0.65545300  1
  C  C7  1  0.75682400  0.65553600  0.84454700  1
  N  N0  1  0.82737700  0.72728000  0.00000000  1
  N  N1  1  0.32737700  0.77272000  0.50000000  1
  N  N2  1  0.79825600  0.09683800  0.20068100  1
  N  N3  1  0.29825600  0.40316200  0.29931900  1
  N  N4  1  0.70174400  0.59683800  0.29931900  1
  N  N5  1  0.20174400  0.90316200  0.20068100  1
  N  N6  1  0.20174400  0.90316200  0.79931900  1
  N  N7  1  0.70174400  0.59683800  0.70068100  1
  N  N8  1  0.29825600  0.40316200  0.70068100  1
  N  N9  1  0.79825600  0.09683800  0.79931900  1
  N  N10  1  0.67262300  0.22728000  0.50000000  1
  N  N11  1  0.17262300  0.27272000  0.00000000  1
loop_
_geom_bond_atom_site_label_1
_geom_bond_atom_site_label_2
_geom_bond_distance
_geom_bond_site_symmetry_2
C0 N9 1.173279 1_555
C0 N10 1.309895 1_555
C1 N8 1.173279 1_555
C1 N11 1.309895 1_556
C2 N2 1.173279 1_555
C2 N10 1.309895 1_555
C3 N3 1.173279 1_555
C3 N11 1.309895 1_555
C4 N4 1.173279 1_555
C4 N0 1.309895 1_555
C5 N5 1.173279 1_555
C5 N1 1.309895 1_555
C6 N6 1.173279 1_555
C6 N1 1.309895 1_555
C7 N7 1.173279 1_555
C7 N0 1.309895 1_556
N0 Ni1 2.190287 1_665
N1 Ni0 2.190287 1_555
N2 Ni1 2.021169 1_655
N3 Ni0 2.021169 1_555
N4 Ni0 2.021169 1_555
N5 Ni1 2.021169 1_565
N6 Ni1 2.021169 1_566
N7 Ni0 2.021169 1_555
N8 Ni0 2.021169 1_555
N9 Ni1 2.021169 1_656
N10 Ni0 2.190287 1_555
N11 Ni1 2.190287 1_555
