# generated using pymatgen
data_K2HBrO
_symmetry_space_group_name_H-M   'P 1'
_cell_length_a   4.31704500
_cell_length_b   6.83197000
_cell_length_c   8.59334752
_cell_angle_alpha   108.14503564
_cell_angle_beta   90.00000000
_cell_angle_gamma   90.00000000
_symmetry_Int_Tables_number   1
_chemical_formula_structural   K2HBrO
_chemical_formula_sum   'K4 H2 Br2 O2'
_cell_volume   240.84769090
_cell_formula_units_Z   2
loop_
 _symmetry_equiv_pos_site_id
 _symmetry_equiv_pos_as_xyz
  1  'x, y, z'
loop_
 _atom_site_type_symbol
 _atom_site_label
 _atom_site_symmetry_multiplicity
 _atom_site_fract_x
 _atom_site_fract_y
 _atom_site_fract_z
 _atom_site_occupancy
  K  K0  1  0.25000000  0.29089100  0.03544600  1
  K  K1  1  0.75000000  0.70910900  0.96455400  1
  K  K2  1  0.75000000  0.70576600  0.38376900  1
  K  K3  1  0.25000000  0.29423400  0.61623100  1
  H  H0  1  0.75000000  0.16381700  0.78866900  1
  H  H1  1  0.25000000  0.83618300  0.21133100  1
  Br  Br0  1  0.75000000  0.18057900  0.30009200  1
  Br  Br1  1  0.25000000  0.81942100  0.69990800  1
  O  O0  1  0.75000000  0.31418700  0.82719100  1
  O  O1  1  0.25000000  0.68581300  0.17280900  1
loop_
_geom_bond_atom_site_label_1
_geom_bond_atom_site_label_2
_geom_bond_distance
_geom_bond_site_symmetry_2
K0 O1 2.586388 1_555
K1 O0 2.586388 1_555
K2 O1 2.794694 1_555
K2 O1 2.794694 1_655
K3 O0 2.794694 1_455
K3 O0 2.794694 1_555
H0 O0 0.976299 1_555
H0 K3 2.910541 1_655
H0 K3 2.910541 1_555
H1 O1 0.976299 1_555
H1 K2 2.910541 1_455
H1 K2 2.910541 1_555
Br0 K3 3.365812 1_655
Br0 K3 3.365812 1_555
Br0 K0 3.386250 1_555
Br0 K0 3.386250 1_655
Br0 K2 3.432822 1_555
Br0 K2 3.534521 1_545
Br0 K1 3.592282 1_544
Br1 K2 3.365812 1_455
Br1 K2 3.365812 1_555
Br1 K1 3.386250 1_555
Br1 K1 3.386250 1_455
Br1 K3 3.432822 1_555
Br1 K3 3.534521 1_565
Br1 K0 3.592282 1_566
