# generated using pymatgen
data_KC8
_symmetry_space_group_name_H-M   'P 1'
_cell_length_a   4.95510727
_cell_length_b   4.95510644
_cell_length_c   10.81736660
_cell_angle_alpha   96.55307009
_cell_angle_beta   96.55306915
_cell_angle_gamma   119.99020679
_symmetry_Int_Tables_number   1
_chemical_formula_structural   KC8
_chemical_formula_sum   'K2 C16'
_cell_volume   223.96834402
_cell_formula_units_Z   2
loop_
 _symmetry_equiv_pos_site_id
 _symmetry_equiv_pos_as_xyz
  1  'x, y, z'
loop_
 _atom_site_type_symbol
 _atom_site_label
 _atom_site_symmetry_multiplicity
 _atom_site_fract_x
 _atom_site_fract_y
 _atom_site_fract_z
 _atom_site_occupancy
  K  K0  1  0.87498849  0.12501151  0.25000000  1
  K  K1  1  0.12501151  0.87498849  0.75000000  1
  C  C0  1  0.08406012  0.16762028  0.00007627  1
  C  C1  1  0.16753202  0.58396760  0.49991828  1
  C  C2  1  0.83237972  0.91593988  0.49992373  1
  C  C3  1  0.41603240  0.83246698  0.00008172  1
  C  C4  1  0.91593988  0.83237972  0.99992373  1
  C  C5  1  0.83246698  0.41603240  0.50008272  1
  C  C6  1  0.16762028  0.08406012  0.50007627  1
  C  C7  1  0.58396760  0.16753302  0.99991828  1
  C  C8  1  0.58271375  0.66620437  0.99761621  1
  C  C9  1  0.66855846  0.08506397  0.50239213  1
  C  C10  1  0.33379563  0.41728625  0.50238379  1
  C  C11  1  0.91493603  0.33144154  0.99760787  1
  C  C12  1  0.41728625  0.33379563  0.00238379  1
  C  C13  1  0.33144154  0.91493603  0.49760787  1
  C  C14  1  0.66620437  0.58271375  0.49761621  1
  C  C15  1  0.08506397  0.66855846  0.00239213  1
loop_
_geom_bond_atom_site_label_1
_geom_bond_atom_site_label_2
_geom_bond_distance
_geom_bond_site_symmetry_2
C0 C12 1.425379 1_555
C0 C11 1.428935 1_454
C0 C4 1.438419 1_444
C0 K0 2.996282 1_455
C0 K1 2.997632 1_544
C1 C13 1.425562 1_555
C1 C10 1.428933 1_555
C1 C5 1.438344 1_455
C1 K1 2.997590 1_555
C1 K0 2.998075 1_455
C2 C9 1.428935 1_565
C2 C6 1.438420 1_665
C2 K0 2.996282 1_565
C2 K1 2.997632 1_655
C3 C8 1.428928 1_554
C3 C7 1.438346 1_564
C3 K1 2.997593 1_554
C3 K0 2.998075 1_565
C4 C8 1.425379 1_555
C4 K1 2.996282 1_655
C4 K0 2.997632 1_566
C5 C9 1.425560 1_555
C5 K0 2.997602 1_555
C5 K1 2.998067 1_655
C6 K1 2.996282 1_545
C6 K0 2.997632 1_455
C7 K0 2.997593 1_556
C7 K1 2.998075 1_545
C8 K0 3.018091 1_566
C9 K0 3.016277 1_555
C10 C6 1.425379 1_555
C10 C14 1.437661 1_555
C10 K0 3.018091 1_455
C11 C7 1.425563 1_555
C11 C15 1.437452 1_656
C11 K0 3.016277 1_556
C12 C7 1.428928 1_554
C12 C8 1.437660 1_554
C12 K1 3.018091 1_544
C13 C6 1.428935 1_565
C13 C9 1.437452 1_565
C13 K1 3.016277 1_555
C14 C2 1.425379 1_555
C14 C5 1.428929 1_555
C14 K1 3.018091 1_655
C15 C3 1.425563 1_555
C15 C4 1.428935 1_454
C15 K1 3.016277 1_554
