# generated using pymatgen
data_MgCo6(OF)6
_symmetry_space_group_name_H-M   'P 1'
_cell_length_a   5.06785592
_cell_length_b   5.12987084
_cell_length_c   8.62518088
_cell_angle_alpha   89.70122481
_cell_angle_beta   89.04985547
_cell_angle_gamma   96.63629606
_symmetry_Int_Tables_number   1
_chemical_formula_structural   MgCo6(OF)6
_chemical_formula_sum   'Mg1 Co6 O6 F6'
_cell_volume   222.69389767
_cell_formula_units_Z   1
loop_
 _symmetry_equiv_pos_site_id
 _symmetry_equiv_pos_as_xyz
  1  'x, y, z'
loop_
 _atom_site_type_symbol
 _atom_site_label
 _atom_site_symmetry_multiplicity
 _atom_site_fract_x
 _atom_site_fract_y
 _atom_site_fract_z
 _atom_site_occupancy
  Mg  Mg0  1  0.51292902  0.05552343  0.65674294  1
  Co  Co0  1  0.97365861  0.93516886  0.99294059  1
  Co  Co1  1  0.04112179  0.01149645  0.32444693  1
  Co  Co2  1  0.02542924  0.02825366  0.66761732  1
  Co  Co3  1  0.58972458  0.39806206  0.16499616  1
  Co  Co4  1  0.42562668  0.55228784  0.84871078  1
  Co  Co5  1  0.40100712  0.55834100  0.47693094  1
  O  O0  1  0.21068819  0.84516080  0.83198069  1
  O  O1  1  0.22929550  0.88387876  0.49386584  1
  O  O2  1  0.32372380  0.31240943  0.31171467  1
  O  O3  1  0.29938770  0.35729749  0.67355608  1
  O  O4  1  0.67881743  0.65251880  0.99616648  1
  O  O5  1  0.83421795  0.13696528  0.16107909  1
  F  F0  1  0.17989120  0.79399255  0.15915759  1
  F  F1  1  0.30367412  0.27932242  -0.00094706  1
  F  F2  1  0.68258120  0.73274977  0.66458787  1
  F  F3  1  0.73087155  0.66552849  0.33874004  1
  F  F4  1  0.77160024  0.15276750  0.82935035  1
  F  F5  1  0.79964408  0.17605043  0.50121870  1
loop_
_geom_bond_atom_site_label_1
_geom_bond_atom_site_label_2
_geom_bond_distance
_geom_bond_site_symmetry_2
Mg0 O3 1.993246 1_555
Mg0 O1 2.145318 1_545
Mg0 O0 2.306370 1_545
Co0 O0 1.913929 1_655
Co0 O5 1.955734 1_566
Co0 O4 1.957873 1_555
Co0 F0 1.971298 1_656
Co0 F4 2.140373 1_565
Co0 F1 2.288718 1_666
Co1 O1 1.911505 1_545
Co1 O5 1.922180 1_455
Co1 O2 1.981940 1_555
Co1 F0 1.984111 1_545
Co1 F5 2.173748 1_455
Co1 F3 2.232368 1_445
Co2 O1 1.999739 1_545
Co2 O0 2.001872 1_545
Co2 F4 2.036758 1_455
Co2 F5 2.046367 1_455
Co2 O3 2.059370 1_555
Co2 F2 2.170413 1_445
Co3 O2 1.847283 1_555
Co3 O5 1.926926 1_555
Co3 O4 1.962237 1_554
Co3 F1 2.096414 1_555
Co3 F3 2.114264 1_555
Co4 O4 1.853865 1_555
Co4 O3 1.895280 1_555
Co4 F1 1.943890 1_556
Co4 O0 1.961062 1_555
Co4 F2 2.170770 1_555
Co5 O2 1.923216 1_555
Co5 O1 1.975248 1_555
Co5 O3 2.008745 1_555
Co5 F3 2.057242 1_555
Co5 F2 2.291973 1_555
F2 Mg0 1.953259 1_565
F4 Mg0 2.026102 1_555
F5 Mg0 2.003012 1_555
