# generated using pymatgen
data_Eu2SnS4
_symmetry_space_group_name_H-M   'P 1'
_cell_length_a   7.25098848
_cell_length_b   8.14677789
_cell_length_c   11.55067437
_cell_angle_alpha   90.00000000
_cell_angle_beta   90.00000000
_cell_angle_gamma   89.99957595
_symmetry_Int_Tables_number   1
_chemical_formula_structural   Eu2SnS4
_chemical_formula_sum   'Eu8 Sn4 S16'
_cell_volume   682.32366138
_cell_formula_units_Z   4
loop_
 _symmetry_equiv_pos_site_id
 _symmetry_equiv_pos_as_xyz
  1  'x, y, z'
loop_
 _atom_site_type_symbol
 _atom_site_label
 _atom_site_symmetry_multiplicity
 _atom_site_fract_x
 _atom_site_fract_y
 _atom_site_fract_z
 _atom_site_occupancy
  Eu  Eu0  1  0.90860898  0.00002921  0.31798127  1
  Eu  Eu1  1  0.59139102  0.49997079  0.81798127  1
  Eu  Eu2  1  0.09139158  0.50002091  0.68201403  1
  Eu  Eu3  1  0.40860842  -0.00002091  0.18201403  1
  Eu  Eu4  1  0.09139102  -0.00002921  0.68201873  1
  Eu  Eu5  1  0.40860898  0.50002921  0.18201873  1
  Eu  Eu6  1  0.90860842  0.49997909  0.31798597  1
  Eu  Eu7  1  0.59139158  0.00002091  0.81798597  1
  Sn  Sn0  1  0.99961911  0.25000018  0.00013004  1
  Sn  Sn1  1  0.50038089  0.24999982  0.50013004  1
  Sn  Sn2  1  0.00038089  0.74999982  0.99986996  1
  Sn  Sn3  1  0.49961911  0.75000018  0.49986996  1
  S  S0  1  0.12695581  0.25000338  0.20452241  1
  S  S1  1  0.37304419  0.24999662  0.70452241  1
  S  S2  1  0.87304419  0.74999662  0.79547759  1
  S  S3  1  0.62695581  0.75000338  0.29547759  1
  S  S4  1  0.87308355  0.24999841  0.79550956  1
  S  S5  1  0.62691645  0.25000159  0.29550956  1
  S  S6  1  0.12691645  0.75000159  0.20449044  1
  S  S7  1  0.37308355  0.74999841  0.70449044  1
  S  S8  1  0.76870707  0.00003396  0.05355631  1
  S  S9  1  0.73129293  0.49996604  0.55355631  1
  S  S10  1  0.23127626  0.50003263  0.94643506  1
  S  S11  1  0.26872374  0.99996737  0.44643506  1
  S  S12  1  0.23129293  0.99996604  0.94644369  1
  S  S13  1  0.26870707  0.50003396  0.44644369  1
  S  S14  1  0.76872374  0.49996737  0.05356494  1
  S  S15  1  0.73127626  0.00003263  0.55356494  1
loop_
_geom_bond_atom_site_label_1
_geom_bond_atom_site_label_2
_geom_bond_distance
_geom_bond_site_symmetry_2
Eu0 S0 2.893339 1_655
Eu0 S6 2.893640 1_645
Eu0 S5 2.895950 1_555
Eu0 S3 2.896109 1_545
Eu0 S11 3.003290 1_645
Eu0 S15 3.009657 1_555
Eu0 S8 3.218343 1_555
Eu1 S1 2.893339 1_555
Eu1 S7 2.893640 1_555
Eu1 S4 2.895950 1_555
Eu1 S2 2.896109 1_555
Eu1 S10 3.003290 1_555
Eu1 S14 3.009657 1_556
Eu1 S9 3.218343 1_555
Eu2 S2 2.893359 1_455
Eu2 S4 2.893654 1_455
Eu2 S7 2.896003 1_555
Eu2 S1 2.896081 1_555
Eu2 S9 3.003211 1_455
Eu2 S13 3.009465 1_555
Eu2 S10 3.218260 1_555
Eu3 S3 2.893359 1_545
Eu3 S5 2.893654 1_555
Eu3 S6 2.896003 1_545
Eu3 S0 2.896081 1_555
Eu3 S8 3.003211 1_555
Eu3 S12 3.009465 1_544
Eu3 S11 3.218260 1_545
Eu4 S2 2.893339 1_445
Eu4 S4 2.893640 1_455
Eu4 S7 2.895950 1_545
Eu4 S1 2.896109 1_555
Eu4 S15 3.003290 1_455
Eu4 S11 3.009657 1_545
Eu4 S12 3.218343 1_545
Eu5 S3 2.893339 1_555
Eu5 S5 2.893640 1_555
Eu5 S6 2.895950 1_555
Eu5 S0 2.896109 1_555
Eu5 S14 3.003290 1_555
Eu5 S10 3.009657 1_554
Eu5 S13 3.218343 1_555
Eu6 S0 2.893359 1_655
Eu6 S6 2.893654 1_655
Eu6 S5 2.896003 1_555
Eu6 S3 2.896081 1_555
Eu6 S13 3.003211 1_655
Eu6 S9 3.009465 1_555
Eu6 S14 3.218260 1_555
Eu7 S1 2.893359 1_555
Eu7 S7 2.893654 1_545
Eu7 S4 2.896003 1_555
Eu7 S2 2.896081 1_545
Eu7 S12 3.003211 1_545
Eu7 S8 3.009465 1_556
Eu7 S15 3.218260 1_555
S0 Sn0 2.534999 1_455
S1 Sn1 2.534999 1_555
S2 Sn2 2.534999 1_655
S3 Sn3 2.534999 1_555
S4 Sn0 2.535345 1_556
S5 Sn1 2.535345 1_555
S6 Sn2 2.535345 1_554
S7 Sn3 2.535345 1_555
S8 Sn0 2.707636 1_555
S8 Sn2 2.712138 1_644
S9 Sn1 2.707636 1_555
S9 Sn3 2.712138 1_555
S10 Sn2 2.707572 1_555
S10 Sn0 2.712094 1_456
S11 Sn3 2.707572 1_555
S11 Sn1 2.712094 1_565
S12 Sn2 2.707636 1_555
S12 Sn0 2.712138 1_466
S13 Sn3 2.707636 1_555
S13 Sn1 2.712138 1_555
S14 Sn0 2.707572 1_555
S14 Sn2 2.712094 1_654
S15 Sn1 2.707572 1_555
S15 Sn3 2.712094 1_545
