# generated using pymatgen
data_Na5Zr4Si3(PO8)3
_symmetry_space_group_name_H-M   'P 1'
_cell_length_a   9.13886370
_cell_length_b   9.14487626
_cell_length_c   23.29216782
_cell_angle_alpha   90.01744383
_cell_angle_beta   89.97775006
_cell_angle_gamma   119.97176952
_symmetry_Int_Tables_number   1
_chemical_formula_structural   Na5Zr4Si3(PO8)3
_chemical_formula_sum   'Na15 Zr12 Si9 P9 O72'
_cell_volume   1686.29678647
_cell_formula_units_Z   3
loop_
 _symmetry_equiv_pos_site_id
 _symmetry_equiv_pos_as_xyz
  1  'x, y, z'
loop_
 _atom_site_type_symbol
 _atom_site_label
 _atom_site_symmetry_multiplicity
 _atom_site_fract_x
 _atom_site_fract_y
 _atom_site_fract_z
 _atom_site_occupancy
  Na  Na0  1  0.00068540  0.63025674  0.25005783  1
  Na  Na1  1  0.36857107  0.00021303  0.75051154  1
  Na  Na2  1  0.03147677  0.70128940  0.58135629  1
  Na  Na3  1  0.66176959  0.96441727  0.58459409  1
  Na  Na4  1  0.29789242  0.96890480  0.08139540  1
  Na  Na5  1  0.03464431  0.33828088  0.08513889  1
  Na  Na6  1  0.97168699  0.66866524  0.91840294  1
  Na  Na7  1  0.96495309  0.30199864  0.41447036  1
  Na  Na8  1  0.33535721  0.02815793  0.41745326  1
  Na  Na9  1  0.99814466  0.99290928  0.49989775  1
  Na  Na10  1  0.99839664  0.99873581  0.99933789  1
  Na  Na11  1  0.66541228  0.32616936  0.83355924  1
  Na  Na12  1  0.66555916  0.33166088  0.33271706  1
  Na  Na13  1  0.34363846  0.65983278  0.16759105  1
  Na  Na14  1  0.33895507  0.65454733  0.66698995  1
  Zr  Zr0  1  0.98872579  0.99459621  0.35145042  1
  Zr  Zr1  1  0.99922370  0.00841463  0.85247600  1
  Zr  Zr2  1  0.99941066  0.00137815  0.64884028  1
  Zr  Zr3  1  0.99914376  0.00066206  0.14836863  1
  Zr  Zr4  1  0.66648944  0.33466848  0.68593146  1
  Zr  Zr5  1  0.66628484  0.33301586  0.18537981  1
  Zr  Zr6  1  0.65498143  0.32787853  0.98094540  1
  Zr  Zr7  1  0.66559839  0.34099801  0.48165778  1
  Zr  Zr8  1  0.33421493  0.66602728  0.01795929  1
  Zr  Zr9  1  0.34044111  0.67146899  0.51835780  1
  Zr  Zr10  1  0.33376400  0.66543885  0.31455654  1
  Zr  Zr11  1  0.34151218  0.67110306  0.81425482  1
  Si  Si0  1  0.00017321  0.29580801  0.24987908  1
  Si  Si1  1  0.70616226  0.00141497  0.74928478  1
  Si  Si2  1  0.37180355  0.04167602  0.58328121  1
  Si  Si3  1  0.66491828  0.62642575  0.58485981  1
  Si  Si4  1  0.95740209  0.62634016  0.08216225  1
  Si  Si5  1  0.37401224  0.33556880  0.08457922  1
  Si  Si6  1  0.33398946  0.96155814  0.91602054  1
  Si  Si7  1  0.62778430  0.96094138  0.41683770  1
  Si  Si8  1  0.04029730  0.66731677  0.41657627  1
  P  P0  1  0.29284359  0.00104358  0.25085288  1
  P  P1  1  0.70631485  0.70699316  0.24910804  1
  P  P2  1  0.29043851  0.29211985  0.75020910  1
  P  P3  1  -0.00064218  0.70768032  0.75131685  1
  P  P4  1  0.95781104  0.33366835  0.58281040  1
  P  P5  1  0.66642476  0.04302377  0.08303847  1
  P  P6  1  0.62697625  0.66708583  0.91629261  1
  P  P7  1  0.04229033  0.37619914  0.91678010  1
  P  P8  1  0.33304922  0.37487684  0.41596958  1
  O  O0  1  0.20657154  0.02164179  0.30507538  1
  O  O1  1  0.82179112  0.79083612  0.30247442  1
  O  O2  1  0.97788367  0.18104613  0.30725263  1
  O  O3  1  0.20619121  0.17607737  0.80306525  1
  O  O4  1  0.97863064  0.79526846  0.80511871  1
  O  O5  1  0.82652090  0.02329667  0.80428854  1
  O  O6  1  0.79290285  0.97601311  0.69110357  1
  O  O7  1  0.18168335  0.20499478  0.69656596  1
  O  O8  1  0.03071645  0.82047273  0.69692008  1
  O  O9  1  0.79529552  0.81769803  0.19618499  1
  O  O10  1  0.02205091  0.20381449  0.19233056  1
  O  O11  1  0.17961543  0.97104709  0.19670390  1
  O  O12  1  0.87197523  0.36308316  0.63535418  1
  O  O13  1  0.49366154  0.12666732  0.63980295  1
  O  O14  1  0.64392443  0.50853263  0.64002629  1
  O  O15  1  0.87389575  0.50595296  0.13935443  1
  O  O16  1  0.63416277  0.12410128  0.13636356  1
  O  O17  1  0.49158192  0.35785554  0.13998764  1
  O  O18  1  0.45982090  0.29482851  0.02917500  1
  O  O19  1  0.84667481  0.53625100  0.02444324  1
  O  O20  1  0.69908251  0.15750547  0.03007426  1
  O  O21  1  0.46126937  0.15255336  0.52525397  1
  O  O22  1  0.70521788  0.54171388  0.52905198  1
  O  O23  1  0.84783406  0.30178532  0.52801332  1
  O  O24  1  0.54071908  0.69051657  0.96972220  1
  O  O25  1  0.14881481  0.45626306  0.97222697  1
  O  O26  1  0.30313882  0.84224137  0.97337021  1
  O  O27  1  0.54346116  0.84752302  0.47506640  1
  O  O28  1  0.30091177  0.45606227  0.46916613  1
  O  O29  1  0.15687836  0.69562710  0.47411841  1
  O  O30  1  0.12821179  0.63483677  0.35966003  1
  O  O31  1  0.50206695  0.86704520  0.36260716  1
  O  O32  1  0.35917345  0.48556183  0.36283764  1
  O  O33  1  0.13188135  0.49072829  0.86466244  1
  O  O34  1  0.35409117  0.86547172  0.85917572  1
  O  O35  1  0.51509560  0.64100366  0.86329472  1
  O  O36  1  0.03725686  0.84452665  0.40994298  1
  O  O37  1  0.82086010  0.99128145  0.41193878  1
  O  O38  1  0.17371977  0.19606207  0.40943434  1
  O  O39  1  0.02349564  0.19901697  0.91089649  1
  O  O40  1  0.15600397  0.96555134  0.90992697  1
  O  O41  1  0.80718875  0.82353364  0.91000765  1
  O  O42  1  0.96973332  0.17148401  0.58998463  1
  O  O43  1  0.17967048  0.01055205  0.58946901  1
  O  O44  1  0.83620893  0.81575936  0.59001257  1
  O  O45  1  0.98981366  0.81888338  0.08942934  1
  O  O46  1  0.82776864  0.02946719  0.08999568  1
  O  O47  1  0.18453353  0.16406688  0.08981100  1
  O  O48  1  0.67650138  0.16456798  0.74574444  1
  O  O49  1  0.46476912  0.30165259  0.74448687  1
  O  O50  1  0.84269491  0.53165362  0.74459275  1
  O  O51  1  0.69820313  0.53355630  0.24405759  1
  O  O52  1  0.83449297  0.32227559  0.24571816  1
  O  O53  1  0.46891108  0.15745533  0.24425317  1
  O  O54  1  0.65315910  0.51178922  0.92174171  1
  O  O55  1  0.86864851  0.36661474  0.92257541  1
  O  O56  1  0.50390893  0.14709101  0.92065011  1
  O  O57  1  0.64424479  0.14835639  0.42221093  1
  O  O58  1  0.48762468  0.34895980  0.42166964  1
  O  O59  1  0.85805106  0.49201066  0.42158366  1
  O  O60  1  0.34383400  0.49641185  0.07742637  1
  O  O61  1  0.14832616  0.64553070  0.07689789  1
  O  O62  1  0.50490418  0.86838331  0.07603973  1
  O  O63  1  0.35203237  0.85097845  0.57847572  1
  O  O64  1  0.50132179  0.65290110  0.57941864  1
  O  O65  1  0.13187658  0.49497937  0.57689933  1
  O  O66  1  0.30191803  0.83558650  0.25565644  1
  O  O67  1  0.53144791  0.68959845  0.25583680  1
  O  O68  1  0.16596742  0.48784487  0.25410598  1
  O  O69  1  0.30804058  0.46723313  0.75712767  1
  O  O70  1  0.16318196  0.69556817  0.75692559  1
  O  O71  1  0.51397121  0.83420051  0.75498548  1
loop_
_geom_bond_atom_site_label_1
_geom_bond_atom_site_label_2
_geom_bond_distance
_geom_bond_site_symmetry_2
Na0 O68 2.439720 1_555
Na0 O66 2.440644 1_555
Na0 O52 2.444450 1_455
Na0 O51 2.449675 1_455
Na0 O30 2.798330 1_555
Na0 O15 2.822778 1_455
Na0 O1 2.952286 1_455
Na0 O11 2.973179 1_555
Na1 O48 2.442235 1_555
Na1 O49 2.443424 1_555
Na1 O70 2.466216 1_545
Na1 O71 2.469246 1_545
Na1 O34 2.789376 1_545
Na1 O13 2.823512 1_555
Na1 O3 2.944317 1_555
Na1 O8 2.953676 1_545
Na2 O43 2.457911 1_565
Na2 O65 2.478235 1_555
Na2 O44 2.487382 1_455
Na2 O63 2.540385 1_555
Na2 O29 2.758998 1_555
Na2 O22 2.856268 1_455
Na2 O8 2.905021 1_555
Na2 O12 2.961226 1_455
Na3 O64 2.471119 1_555
Na3 O63 2.485014 1_555
Na3 O42 2.489540 1_565
Na3 O44 2.563413 1_555
Na3 O6 2.734439 1_555
Na3 O27 2.768702 1_555
Na3 O13 2.913813 1_565
Na3 O23 2.984250 1_565
Na4 O45 2.446340 1_455
Na4 O47 2.478692 1_565
Na4 O62 2.485369 1_555
Na4 O61 2.566258 1_555
Na4 O26 2.780035 1_554
Na4 O18 2.854262 1_565
Na4 O11 2.898461 1_555
Na4 O16 2.956647 1_565
Na5 O60 2.454551 1_555
Na5 O61 2.468705 1_555
Na5 O46 2.495580 1_455
Na5 O47 2.570432 1_555
Na5 O10 2.760297 1_555
Na5 O25 2.836243 1_554
Na5 O15 2.889974 1_455
Na5 O20 2.952748 1_455
Na6 O40 2.382900 1_655
Na6 O55 2.434594 1_555
Na6 O54 2.522956 1_555
Na6 O41 2.536074 1_555
Na6 O19 2.736672 1_556
Na6 O4 2.869700 1_555
Na6 O26 2.920944 1_655
Na6 O33 2.955582 1_655
Na7 O59 2.386869 1_555
Na7 O37 2.464323 1_545
Na7 O38 2.537485 1_655
Na7 O57 2.545994 1_555
Na7 O2 2.757312 1_555
Na7 O23 2.852293 1_555
Na7 O30 2.929824 1_655
Na7 O28 2.952046 1_655
Na8 O36 2.387807 1_545
Na8 O57 2.467607 1_555
Na8 O58 2.544336 1_555
Na8 O38 2.615571 1_555
Na8 O21 2.759616 1_555
Na8 O0 2.858746 1_555
Na8 O31 2.892067 1_545
Na8 O29 2.948695 1_545
Na9 O37 2.607885 1_555
Na9 O44 2.612370 1_555
Na9 O36 2.615605 1_655
Na9 O43 2.620277 1_665
Na9 O38 2.736278 1_665
Na9 O42 2.749242 1_565
Na10 O40 2.633977 1_655
Na10 O45 2.643434 1_556
Na10 O47 2.655468 1_666
Na10 O41 2.674563 1_555
Na10 O39 2.689409 1_665
Na10 O46 2.721103 1_566
Na11 O48 2.554510 1_555
Na11 O56 2.561242 1_555
Na11 O55 2.683577 1_555
Na11 O54 2.701911 1_555
Na11 O49 2.703477 1_555
Na11 O50 2.721768 1_555
Na12 O52 2.574297 1_555
Na12 O57 2.620810 1_555
Na12 O59 2.636847 1_555
Na12 O53 2.674638 1_555
Na12 O51 2.685867 1_555
Na12 O58 2.686310 1_555
Na13 O68 2.572675 1_555
Na13 O60 2.577737 1_555
Na13 O67 2.603923 1_555
Na13 O61 2.726720 1_555
Na13 O66 2.746969 1_555
Na13 O62 2.747411 1_555
Na14 O64 2.526353 1_555
Na14 O71 2.614050 1_555
Na14 O69 2.634420 1_555
Na14 O63 2.698006 1_555
Na14 O65 2.712215 1_555
Na14 O70 2.776382 1_555
O0 P0 1.549077 1_555
O0 Zr0 2.167487 1_445
O1 P1 1.561620 1_555
O1 Zr0 2.064129 1_555
O2 Si0 1.647967 1_655
O2 Zr0 2.036368 1_545
O3 P2 1.555097 1_555
O3 Zr1 2.086808 1_455
O4 P3 1.548764 1_655
O4 Zr1 2.164218 1_565
O5 Si1 1.634716 1_555
O5 Zr1 1.996352 1_555
O6 Si1 1.643712 1_565
O6 Zr2 2.036139 1_565
O7 P2 1.546917 1_555
O7 Zr2 2.092563 1_455
O8 P3 1.567344 1_555
O8 Zr2 2.132410 1_465
O9 P1 1.543744 1_555
O9 Zr3 2.096584 1_565
O10 Si0 1.646701 1_555
O10 Zr3 2.038183 1_455
O11 P0 1.566508 1_565
O11 Zr3 2.123435 1_465
O12 P4 1.547715 1_555
O12 Zr4 2.119618 1_555
O13 Si2 1.647178 1_555
O13 Zr4 2.065313 1_555
O14 Si3 1.626105 1_555
O14 Zr4 2.010617 1_555
O15 Si4 1.652167 1_555
O15 Zr5 2.061946 1_555
O16 P5 1.548208 1_555
O16 Zr5 2.116179 1_555
O17 Si5 1.625949 1_555
O17 Zr5 2.020484 1_555
O18 Si5 1.646192 1_555
O18 Zr6 1.998600 1_554
O19 Si4 1.636323 1_555
O19 Zr6 2.095567 1_554
O20 P5 1.547683 1_555
O20 Zr6 2.127966 1_554
O21 Si2 1.641656 1_555
O21 Zr7 2.066932 1_555
O22 Si3 1.646071 1_555
O22 Zr7 2.013432 1_555
O23 P4 1.559549 1_555
O23 Zr7 2.160179 1_555
O24 P6 1.543993 1_555
O24 Zr8 2.109575 1_556
O25 P7 1.562034 1_555
O25 Zr8 2.106643 1_556
O26 Si6 1.657604 1_555
O26 Zr8 2.052949 1_556
O27 Si7 1.646375 1_555
O27 Zr9 2.016483 1_555
O28 P8 1.545886 1_555
O28 Zr9 2.147471 1_555
O29 Si8 1.650393 1_555
O29 Zr9 2.072815 1_555
O30 Si8 1.651846 1_555
O30 Zr10 2.045530 1_555
O31 Si7 1.633287 1_555
O31 Zr10 2.045538 1_555
O32 P8 1.540188 1_555
O32 Zr10 2.099390 1_555
O33 P7 1.544071 1_555
O33 Zr11 2.147476 1_555
O34 Si6 1.649038 1_555
O34 Zr11 2.015489 1_555
O35 P6 1.543789 1_555
O35 Zr11 2.082040 1_555
O36 Si8 1.641954 1_555
O36 Zr0 2.132146 1_455
O37 Si7 1.647468 1_555
O37 Zr0 2.071541 1_555
O38 P8 1.561529 1_555
O38 Zr0 2.228178 1_445
O39 P7 1.547739 1_555
O39 Zr1 2.133418 1_455
O40 Si6 1.651299 1_555
O40 Zr1 2.135454 1_465
O41 P6 1.557693 1_555
O41 Zr1 2.183824 1_565
O42 P4 1.549571 1_555
O42 Zr2 2.189948 1_555
O43 Si2 1.638713 1_555
O43 Zr2 2.119777 1_455
O44 Si3 1.659726 1_555
O44 Zr2 2.110451 1_565
O45 Si4 1.641797 1_555
O45 Zr3 2.124237 1_565
O46 P5 1.548748 1_555
O46 Zr3 2.187458 1_555
O47 Si5 1.661199 1_555
O47 Zr3 2.105623 1_455
O48 Si1 1.646380 1_555
O48 Zr4 2.124303 1_555
O49 P2 1.557136 1_555
O49 Zr4 2.189059 1_555
O50 P3 1.537176 1_655
O50 Zr4 2.192474 1_555
O51 P1 1.554777 1_555
O51 Zr5 2.186456 1_555
O52 Si0 1.651322 1_655
O52 Zr5 2.121444 1_555
O53 P0 1.535906 1_555
O53 Zr5 2.194894 1_555
O54 P6 1.558816 1_555
O54 Zr6 2.181713 1_555
O55 P7 1.550803 1_655
O55 Zr6 2.256977 1_555
O56 Si6 1.633797 1_545
O56 Zr6 2.081180 1_555
O57 Si7 1.648631 1_545
O57 Zr7 2.171195 1_555
O58 P8 1.550500 1_555
O58 Zr7 2.173292 1_555
O59 Si8 1.640068 1_655
O59 Zr7 2.128587 1_555
O60 Si5 1.634882 1_555
O60 Zr8 2.114206 1_555
O61 Si4 1.668581 1_455
O61 Zr8 2.117992 1_555
O62 P5 1.549418 1_565
O62 Zr8 2.191756 1_555
O63 Si2 1.664767 1_565
O63 Zr9 2.119384 1_555
O64 Si3 1.634565 1_555
O64 Zr9 2.112934 1_555
O65 P4 1.543022 1_455
O65 Zr9 2.241172 1_555
O66 P0 1.560226 1_565
O66 Zr10 2.200450 1_555
O67 P1 1.532831 1_555
O67 Zr10 2.186945 1_555
O68 Si0 1.652549 1_555
O68 Zr10 2.117457 1_555
O69 P2 1.535829 1_555
O69 Zr11 2.183795 1_555
O70 P3 1.560991 1_555
O70 Zr11 2.203488 1_555
O71 Si1 1.660521 1_565
O71 Zr11 2.065252 1_555
