# generated using pymatgen
data_MgFe8(OF)8
_symmetry_space_group_name_H-M   'P 1'
_cell_length_a   9.75712401
_cell_length_b   9.91446704
_cell_length_c   3.18319900
_cell_angle_alpha   90.00000000
_cell_angle_beta   90.00000000
_cell_angle_gamma   82.92705904
_symmetry_Int_Tables_number   1
_chemical_formula_structural   MgFe8(OF)8
_chemical_formula_sum   'Mg1 Fe8 O8 F8'
_cell_volume   305.58881540
_cell_formula_units_Z   1
loop_
 _symmetry_equiv_pos_site_id
 _symmetry_equiv_pos_as_xyz
  1  'x, y, z'
loop_
 _atom_site_type_symbol
 _atom_site_label
 _atom_site_symmetry_multiplicity
 _atom_site_fract_x
 _atom_site_fract_y
 _atom_site_fract_z
 _atom_site_occupancy
  Mg  Mg0  1  0.75253700  0.00089000  0.50000000  1
  Fe  Fe0  1  0.06085200  0.01467400  0.00000000  1
  Fe  Fe1  1  0.01557500  0.52887800  0.00000000  1
  Fe  Fe2  1  0.22641200  0.25999000  0.50000000  1
  Fe  Fe3  1  0.22558400  0.73141700  0.50000000  1
  Fe  Fe4  1  0.50697000  0.46555200  0.00000000  1
  Fe  Fe5  1  0.46932000  0.97132200  0.00000000  1
  Fe  Fe6  1  0.79671100  0.34049500  0.50000000  1
  Fe  Fe7  1  0.71434700  0.64980400  0.50000000  1
  O  O0  1  0.11463900  0.42380200  0.50000000  1
  O  O1  1  0.12165900  0.92003400  0.50000000  1
  O  O2  1  0.15013700  0.16955600  0.00000000  1
  O  O3  1  0.14890700  0.66618400  0.00000000  1
  O  O4  1  0.60116000  0.36895900  0.50000000  1
  O  O5  1  0.61054900  0.61308600  0.00000000  1
  O  O6  1  0.87579000  0.38695300  0.00000000  1
  O  O7  1  0.90988000  0.61685900  0.50000000  1
  F  F0  1  0.35562600  0.32807100  0.00000000  1
  F  F1  1  0.35028500  0.81935300  0.00000000  1
  F  F2  1  0.38360600  0.08743100  0.50000000  1
  F  F3  1  0.38317100  0.56638400  0.50000000  1
  F  F4  1  0.60420800  0.87878100  0.50000000  1
  F  F5  1  0.64101400  0.08218900  0.00000000  1
  F  F6  1  0.87205200  0.93230400  0.00000000  1
  F  F7  1  0.87984500  0.14230900  0.50000000  1
loop_
_geom_bond_atom_site_label_1
_geom_bond_atom_site_label_2
_geom_bond_distance
_geom_bond_site_symmetry_2
Fe0 O2 1.856435 1_555
Fe0 O1 1.904867 1_544
Fe0 O1 1.904867 1_545
Fe1 O3 1.995432 1_555
Fe1 O7 2.033734 1_455
Fe1 O7 2.033734 1_454
Fe1 O0 2.074796 1_555
Fe1 O0 2.074796 1_554
Fe1 O6 2.076729 1_455
Fe2 O0 1.841442 1_555
Fe2 O2 2.013774 1_555
Fe2 O2 2.013774 1_556
Fe3 O3 1.905350 1_555
Fe3 O3 1.905350 1_556
Fe3 O1 2.014516 1_555
Fe4 O5 1.877493 1_555
Fe4 O4 2.019450 1_554
Fe4 O4 2.019450 1_555
Fe6 O6 1.851543 1_555
Fe6 O6 1.851543 1_556
Fe6 O4 1.894086 1_555
Fe7 O7 1.895542 1_555
Fe7 O5 1.944791 1_556
Fe7 O5 1.944791 1_555
F0 Fe4 2.129361 1_555
F0 Fe2 2.188121 1_555
F0 Fe2 2.188121 1_554
F1 Fe5 2.012463 1_555
F1 Fe3 2.243868 1_555
F1 Fe3 2.243868 1_554
F2 Fe5 2.078630 1_545
F2 Fe5 2.078630 1_546
F2 Fe2 2.152478 1_555
F3 Fe3 2.102816 1_555
F3 Fe4 2.166628 1_556
F3 Fe4 2.166628 1_555
F4 Mg0 1.997930 1_565
F4 Fe5 2.193121 1_556
F4 Fe5 2.193121 1_555
F4 Fe7 2.389099 1_555
F5 Mg0 2.037387 1_554
F5 Mg0 2.037387 1_555
F5 Fe5 2.113791 1_545
F6 Mg0 2.039643 1_565
F6 Mg0 2.039643 1_564
F6 Fe0 2.104971 1_665
F7 Mg0 1.984372 1_555
F7 Fe6 2.031335 1_555
F7 Fe0 2.589067 1_656
F7 Fe0 2.589067 1_655
