# generated using pymatgen
data_Zr6BCl14
_symmetry_space_group_name_H-M   'P 1'
_cell_length_a   9.60613111
_cell_length_b   9.60613111
_cell_length_c   11.60367963
_cell_angle_alpha   90.00000000
_cell_angle_beta   90.00000000
_cell_angle_gamma   96.68040345
_symmetry_Int_Tables_number   1
_chemical_formula_structural   Zr6BCl14
_chemical_formula_sum   'Zr12 B2 Cl28'
_cell_volume   1063.49156575
_cell_formula_units_Z   2
loop_
 _symmetry_equiv_pos_site_id
 _symmetry_equiv_pos_as_xyz
  1  'x, y, z'
loop_
 _atom_site_type_symbol
 _atom_site_label
 _atom_site_symmetry_multiplicity
 _atom_site_fract_x
 _atom_site_fract_y
 _atom_site_fract_z
 _atom_site_occupancy
  Zr  Zr0  1  0.65018006  0.65018006  0.10978576  1
  Zr  Zr1  1  0.84981994  0.84981994  0.60978576  1
  Zr  Zr2  1  0.15018006  0.15018006  0.39021424  1
  Zr  Zr3  1  0.34981994  0.34981994  0.89021424  1
  Zr  Zr4  1  0.45167141  0.68862839  0.88303284  1
  Zr  Zr5  1  0.04832859  0.81137161  0.38303284  1
  Zr  Zr6  1  0.18862839  0.95167141  0.61696716  1
  Zr  Zr7  1  0.31137161  0.54832859  0.11696716  1
  Zr  Zr8  1  0.54832859  0.31137161  0.11696716  1
  Zr  Zr9  1  0.95167141  0.18862839  0.61696716  1
  Zr  Zr10  1  0.81137161  0.04832859  0.38303284  1
  Zr  Zr11  1  0.68862839  0.45167141  0.88303284  1
  B  B0  1  0.50000000  0.50000000  0.00000000  1
  B  B1  1  -0.00000000  -0.00000000  0.50000000  1
  Cl  Cl0  1  0.25149112  0.74850888  0.50000000  1
  Cl  Cl1  1  0.24850888  0.75149112  0.00000000  1
  Cl  Cl2  1  0.74850888  0.25149112  0.50000000  1
  Cl  Cl3  1  0.75149112  0.24850888  0.00000000  1
  Cl  Cl4  1  0.84137535  0.84137535  0.23960071  1
  Cl  Cl5  1  0.65862465  0.65862465  0.73960071  1
  Cl  Cl6  1  0.34137535  0.34137535  0.26039929  1
  Cl  Cl7  1  0.15862465  0.15862465  0.76039929  1
  Cl  Cl8  1  0.59895396  0.09895396  0.25000000  1
  Cl  Cl9  1  0.90104604  0.40104604  0.75000000  1
  Cl  Cl10  1  0.96483025  0.20926229  0.24974902  1
  Cl  Cl11  1  0.53516975  0.29073771  0.74974902  1
  Cl  Cl12  1  0.70926229  0.46483025  0.25025098  1
  Cl  Cl13  1  0.79073771  0.03516975  0.75025098  1
  Cl  Cl14  1  0.03516975  0.79073771  0.75025098  1
  Cl  Cl15  1  0.46483025  0.70926229  0.25025098  1
  Cl  Cl16  1  0.29073771  0.53516975  0.74974902  1
  Cl  Cl17  1  0.20926229  0.96483025  0.24974902  1
  Cl  Cl18  1  0.13437909  0.38080900  0.00828653  1
  Cl  Cl19  1  0.36562091  0.11919100  0.50828653  1
  Cl  Cl20  1  0.88080900  0.63437909  0.49171347  1
  Cl  Cl21  1  0.61919100  0.86562091  0.99171347  1
  Cl  Cl22  1  0.86562091  0.61919100  0.99171347  1
  Cl  Cl23  1  0.63437909  0.88080900  0.49171347  1
  Cl  Cl24  1  0.11919100  0.36562091  0.50828653  1
  Cl  Cl25  1  0.38080900  0.13437909  0.00828653  1
  Cl  Cl26  1  0.09895396  0.59895396  0.25000000  1
  Cl  Cl27  1  0.40104604  0.90104604  0.75000000  1
loop_
_geom_bond_atom_site_label_1
_geom_bond_atom_site_label_2
_geom_bond_distance
_geom_bond_site_symmetry_2
B0 Zr3 2.302416 1_554
B0 Zr0 2.302416 1_555
B0 Zr7 2.353015 1_555
B0 Zr4 2.353015 1_554
B0 Zr11 2.353015 1_554
B0 Zr8 2.353015 1_555
B1 Zr1 2.302416 1_445
B1 Zr2 2.302416 1_555
B1 Zr6 2.353015 1_545
B1 Zr9 2.353015 1_455
B1 Zr5 2.353015 1_545
B1 Zr10 2.353015 1_455
Cl0 Zr6 2.507936 1_555
Cl0 Zr5 2.507936 1_555
Cl1 Zr7 2.507936 1_555
Cl1 Zr4 2.507936 1_554
Cl2 Zr9 2.507936 1_555
Cl2 Zr10 2.507936 1_555
Cl3 Zr11 2.507936 1_554
Cl3 Zr8 2.507936 1_555
Cl4 Zr5 2.634129 1_655
Cl4 Zr10 2.634129 1_565
Cl4 Zr0 2.868928 1_555
Cl5 Zr4 2.634129 1_555
Cl5 Zr11 2.634129 1_555
Cl5 Zr1 2.868928 1_555
Cl6 Zr7 2.634129 1_555
Cl6 Zr8 2.634129 1_555
Cl6 Zr2 2.868928 1_555
Cl7 Zr9 2.634129 1_455
Cl7 Zr6 2.634129 1_545
Cl7 Zr3 2.868928 1_555
Cl8 Zr10 2.648393 1_555
Cl8 Zr8 2.648393 1_555
Cl9 Zr9 2.648393 1_555
Cl9 Zr11 2.648393 1_555
Cl10 Zr2 2.526659 1_655
Cl10 Zr10 2.534710 1_555
Cl11 Zr3 2.526659 1_555
Cl11 Zr11 2.534710 1_555
Cl12 Zr0 2.526659 1_555
Cl12 Zr8 2.534710 1_555
Cl13 Zr1 2.526659 1_545
Cl13 Zr9 2.534710 1_555
Cl14 Zr1 2.526659 1_455
Cl14 Zr6 2.534710 1_555
Cl15 Zr0 2.526659 1_555
Cl15 Zr7 2.534710 1_555
Cl16 Zr3 2.526659 1_555
Cl16 Zr4 2.534710 1_555
Cl17 Zr2 2.526659 1_565
Cl17 Zr5 2.534710 1_555
Cl18 Zr3 2.528261 1_554
Cl18 Zr7 2.536552 1_555
Cl19 Zr2 2.528261 1_555
Cl19 Zr6 2.536552 1_545
Cl20 Zr1 2.528261 1_555
Cl20 Zr5 2.536552 1_655
Cl21 Zr0 2.528261 1_556
Cl21 Zr4 2.536552 1_555
Cl22 Zr0 2.528261 1_556
Cl22 Zr11 2.536552 1_555
Cl23 Zr1 2.528261 1_555
Cl23 Zr10 2.536552 1_565
Cl24 Zr2 2.528261 1_555
Cl24 Zr9 2.536552 1_455
Cl25 Zr3 2.528261 1_554
Cl25 Zr8 2.536552 1_555
Cl26 Zr7 2.648393 1_555
Cl26 Zr5 2.648393 1_555
Cl27 Zr4 2.648393 1_555
Cl27 Zr6 2.648393 1_555
