# generated using pymatgen
data_NbCrP
_symmetry_space_group_name_H-M   'P 1'
_cell_length_a   3.53608222
_cell_length_b   6.28845471
_cell_length_c   7.42136660
_cell_angle_alpha   90.00156999
_cell_angle_beta   90.00000000
_cell_angle_gamma   90.00000000
_symmetry_Int_Tables_number   1
_chemical_formula_structural   NbCrP
_chemical_formula_sum   'Nb4 Cr4 P4'
_cell_volume   165.02516561
_cell_formula_units_Z   4
loop_
 _symmetry_equiv_pos_site_id
 _symmetry_equiv_pos_as_xyz
  1  'x, y, z'
loop_
 _atom_site_type_symbol
 _atom_site_label
 _atom_site_symmetry_multiplicity
 _atom_site_fract_x
 _atom_site_fract_y
 _atom_site_fract_z
 _atom_site_occupancy
  Nb  Nb0  1  0.25000000  0.53005180  0.32669837  1
  Nb  Nb1  1  0.25000000  0.03005973  0.17328682  1
  Nb  Nb2  1  0.75000000  0.96994027  0.82671318  1
  Nb  Nb3  1  0.75000000  0.46994820  0.67330163  1
  Cr  Cr0  1  0.75000000  0.35701760  0.06219922  1
  Cr  Cr1  1  0.25000000  0.14299176  0.56220191  1
  Cr  Cr2  1  0.75000000  0.85700824  0.43779809  1
  Cr  Cr3  1  0.25000000  0.64298240  0.93780078  1
  P  P0  1  0.25000000  0.26990336  0.87057300  1
  P  P1  1  0.25000000  0.76988006  0.62945783  1
  P  P2  1  0.75000000  0.73009664  0.12942700  1
  P  P3  1  0.75000000  0.23011994  0.37054217  1
loop_
_geom_bond_atom_site_label_1
_geom_bond_atom_site_label_2
_geom_bond_distance
_geom_bond_site_symmetry_2
Nb0 P3 2.605624 1_455
Nb0 P3 2.605624 1_555
Nb0 P2 2.617619 1_455
Nb0 P2 2.617619 1_555
Nb0 P1 2.706074 1_555
Nb1 P2 2.605769 1_545
Nb1 P2 2.605769 1_445
Nb1 P3 2.617561 1_455
Nb1 P3 2.617561 1_555
Nb1 P0 2.705916 1_554
Nb2 P0 2.605769 1_665
Nb2 P0 2.605769 1_565
Nb2 P1 2.617561 1_655
Nb2 P1 2.617561 1_555
Nb2 P2 2.705916 1_556
Nb3 P1 2.605624 1_555
Nb3 P1 2.605624 1_655
Nb3 P0 2.617619 1_555
Nb3 P0 2.617619 1_655
Nb3 P3 2.706074 1_555
Cr0 P0 2.334197 1_554
Cr0 P0 2.334197 1_654
Cr0 P2 2.398541 1_555
Cr0 P3 2.423494 1_555
Cr1 P3 2.334388 1_455
Cr1 P3 2.334388 1_555
Cr1 P1 2.398812 1_545
Cr1 P0 2.423679 1_555
Cr2 P1 2.334388 1_655
Cr2 P1 2.334388 1_555
Cr2 P3 2.398812 1_565
Cr2 P2 2.423679 1_555
Cr3 P2 2.334197 1_456
Cr3 P2 2.334197 1_556
Cr3 P0 2.398541 1_555
Cr3 P1 2.423494 1_555
