# generated using pymatgen
data_Na14La4Mg4Si5S7O48
_symmetry_space_group_name_H-M   'P 1'
_cell_length_a   18.88887787
_cell_length_b   9.38205173
_cell_length_c   23.21538884
_cell_angle_alpha   89.90769901
_cell_angle_beta   90.32589327
_cell_angle_gamma   119.81559794
_symmetry_Int_Tables_number   1
_chemical_formula_structural   Na14La4Mg4Si5S7O48
_chemical_formula_sum   'Na42 La12 Mg12 Si15 S21 O144'
_cell_volume   3569.49777074
_cell_formula_units_Z   3
loop_
 _symmetry_equiv_pos_site_id
 _symmetry_equiv_pos_as_xyz
  1  'x, y, z'
loop_
 _atom_site_type_symbol
 _atom_site_label
 _atom_site_symmetry_multiplicity
 _atom_site_fract_x
 _atom_site_fract_y
 _atom_site_fract_z
 _atom_site_occupancy
  Na  Na0  1  0.80691235  0.98947523  0.25303160  1
  Na  Na1  1  0.18284990  0.34961552  0.25600684  1
  Na  Na2  1  0.68566208  0.35292137  0.25310521  1
  Na  Na3  1  0.00137966  0.65172498  0.24547047  1
  Na  Na4  1  0.51540068  0.66004839  0.24202584  1
  Na  Na5  1  0.31755219  0.62022021  0.75558473  1
  Na  Na6  1  0.01429713  0.36829599  0.74281537  1
  Na  Na7  1  0.49941948  0.36907685  0.74403508  1
  Na  Na8  1  0.18886733  0.02648200  0.75198515  1
  Na  Na9  1  0.66665900  0.99400567  0.75286293  1
  Na  Na10  1  0.15005463  0.32971490  0.58208197  1
  Na  Na11  1  0.65218323  0.32265703  0.58063436  1
  Na  Na12  1  0.32957263  0.98388880  0.59298930  1
  Na  Na13  1  0.83252603  0.99676210  0.58291338  1
  Na  Na14  1  0.15883814  0.99312111  0.07028498  1
  Na  Na15  1  0.64734605  0.96803299  0.07521003  1
  Na  Na16  1  0.33484420  0.67119800  0.07663164  1
  Na  Na17  1  0.82735464  0.67318232  0.08520437  1
  Na  Na18  1  0.48518173  0.68370629  0.91640521  1
  Na  Na19  1  0.99603987  0.68929932  0.91227071  1
  Na  Na20  1  0.33803894  0.03035840  0.90835823  1
  Na  Na21  1  0.83872748  0.03457413  0.91063855  1
  Na  Na22  1  0.17226341  0.28413717  0.91076618  1
  Na  Na23  1  0.66245296  0.28359772  0.91412868  1
  Na  Na24  1  0.49708838  0.30343242  0.41742145  1
  Na  Na25  1  0.98608024  0.29236558  0.43455503  1
  Na  Na26  1  0.16878960  0.05043575  0.42536599  1
  Na  Na27  1  0.67182522  0.06094879  0.41959896  1
  Na  Na28  1  0.34287120  0.64490594  0.41774920  1
  Na  Na29  1  0.83526705  0.64353440  0.41486229  1
  Na  Na30  1  0.01515301  0.02109827  0.50490662  1
  Na  Na31  1  0.51741033  0.01311152  0.49763304  1
  Na  Na32  1  0.01832601  0.02601279  0.99078144  1
  Na  Na33  1  0.51450702  0.00627192  0.99871342  1
  Na  Na34  1  0.32745387  0.33507419  0.82649148  1
  Na  Na35  1  0.81614461  0.32169487  0.83559321  1
  Na  Na36  1  0.31960137  0.31052159  0.33699177  1
  Na  Na37  1  0.81403078  0.31560128  0.33540060  1
  Na  Na38  1  0.16903439  0.66857924  0.16336057  1
  Na  Na39  1  0.65014550  0.64709116  0.16223552  1
  Na  Na40  1  0.15390102  0.65278176  0.66728870  1
  Na  Na41  1  0.65516324  0.66619422  0.67288407  1
  La  La0  1  0.01164855  0.01439198  0.65018106  1
  La  La1  1  0.50748446  0.99386412  0.65138900  1
  La  La2  1  0.00847677  0.01300864  0.14768590  1
  La  La3  1  0.51210417  0.00934385  0.14877470  1
  La  La4  1  0.83047567  0.33368353  0.68365867  1
  La  La5  1  0.33205524  0.32800842  0.18207987  1
  La  La6  1  0.15723336  0.65205583  0.00928229  1
  La  La7  1  0.65503221  0.64942888  0.01708593  1
  La  La8  1  0.15590821  0.66496968  0.51996025  1
  La  La9  1  0.65755818  0.66365414  0.51118495  1
  La  La10  1  0.17155447  0.67764526  0.32387960  1
  La  La11  1  0.66614842  0.66269203  0.82124321  1
  Mg  Mg0  1  0.00967105  0.01333456  0.35017575  1
  Mg  Mg1  1  0.51843436  0.02206500  0.34635127  1
  Mg  Mg2  1  0.01579521  0.01244455  0.84582855  1
  Mg  Mg3  1  0.51234117  0.98629216  0.84411535  1
  Mg  Mg4  1  0.32592337  0.33766366  0.68734286  1
  Mg  Mg5  1  0.81832996  0.30859695  0.18269610  1
  Mg  Mg6  1  0.32925494  0.33251953  0.98616376  1
  Mg  Mg7  1  0.82287992  0.32254012  0.98603541  1
  Mg  Mg8  1  0.32326076  0.32675605  0.48755029  1
  Mg  Mg9  1  0.82968762  0.32952288  0.48814746  1
  Mg  Mg10  1  0.66846528  0.66365044  0.31917088  1
  Mg  Mg11  1  0.17179329  0.67800514  0.81849551  1
  Si  Si0  1  0.14854090  0.99546027  0.25328281  1
  Si  Si1  1  0.65635068  0.99305481  0.25413520  1
  Si  Si2  1  0.15460406  0.32023365  0.75453437  1
  Si  Si3  1  0.64989702  0.29944814  0.75316700  1
  Si  Si4  1  0.49226791  0.67966268  0.75440030  1
  Si  Si5  1  0.97915808  0.32719617  0.58015544  1
  Si  Si6  1  0.19500808  0.05034547  0.58495189  1
  Si  Si7  1  0.68438066  0.03411611  0.57791299  1
  Si  Si8  1  0.47929212  0.63046778  0.08093664  1
  Si  Si9  1  0.18472432  0.33747543  0.08063238  1
  Si  Si10  1  0.69276702  0.34231766  0.08487306  1
  Si  Si11  1  0.16706539  0.97298344  0.91588200  1
  Si  Si12  1  0.66916842  0.98699244  0.91721942  1
  Si  Si13  1  0.16747726  0.35241604  0.41469321  1
  Si  Si14  1  0.66730650  0.36214561  0.41417770  1
  S  S0  1  0.35395376  0.70776807  0.25422497  1
  S  S1  1  0.84941280  0.69937174  0.25367941  1
  S  S2  1  0.99386854  0.29900917  0.25393071  1
  S  S3  1  0.50551876  0.31029414  0.25961173  1
  S  S4  1  0.00622292  0.70086999  0.75974068  1
  S  S5  1  0.34617489  0.99537806  0.75342951  1
  S  S6  1  0.85593444  0.00224377  0.75483640  1
  S  S7  1  0.47228497  0.33123524  0.58220610  1
  S  S8  1  0.33404872  0.62000338  0.58093474  1
  S  S9  1  0.83348243  0.63446159  0.57577350  1
  S  S10  1  0.97275911  0.60997692  0.08513852  1
  S  S11  1  0.33188850  0.02949836  0.07660746  1
  S  S12  1  0.83387571  0.05042437  0.08279772  1
  S  S13  1  0.32019212  0.67135458  0.91330567  1
  S  S14  1  0.83013711  0.67140742  0.92122356  1
  S  S15  1  0.00874409  0.35025654  0.90992230  1
  S  S16  1  0.50167723  0.33708617  0.91470714  1
  S  S17  1  0.33045965  0.98928708  0.42020426  1
  S  S18  1  0.82190320  0.96949828  0.41024125  1
  S  S19  1  0.00354152  0.66887804  0.41202881  1
  S  S20  1  0.51008126  0.66893079  0.40829240  1
  O  O0  1  0.09313325  0.00225001  0.30554984  1
  O  O1  1  0.61057767  0.03092722  0.30692408  1
  O  O2  1  0.40004665  0.81041096  0.30439644  1
  O  O3  1  0.90190720  0.79269821  0.30313393  1
  O  O4  1  0.49753738  0.20469966  0.30969755  1
  O  O5  1  0.98437764  0.19560618  0.30490569  1
  O  O6  1  0.10664814  0.19285063  0.80769184  1
  O  O7  1  0.59577627  0.18531055  0.80662658  1
  O  O8  1  0.47958681  0.76540014  0.81181976  1
  O  O9  1  0.99741744  0.78927452  0.80994402  1
  O  O10  1  0.39943327  0.01091990  0.80303481  1
  O  O11  1  0.90322312  0.99203793  0.80454131  1
  O  O12  1  0.38015142  0.96956113  0.69868254  1
  O  O13  1  0.89179298  0.99156785  0.69931008  1
  O  O14  1  0.09693746  0.24839309  0.69516911  1
  O  O15  1  0.60411250  0.22853441  0.68987444  1
  O  O16  1  0.01102964  0.79025292  0.70564920  1
  O  O17  1  0.51173696  0.80361411  0.69935286  1
  O  O18  1  0.39012047  0.79058841  0.19914193  1
  O  O19  1  0.88396448  0.79521752  0.19923893  1
  O  O20  1  0.00566081  0.22240908  0.20165543  1
  O  O21  1  0.51049219  0.23209776  0.20542249  1
  O  O22  1  0.10107838  0.97553302  0.19077722  1
  O  O23  1  0.59986254  0.95270892  0.19482453  1
  O  O24  1  0.43193956  0.33720313  0.63560419  1
  O  O25  1  0.93889191  0.33633332  0.64161413  1
  O  O26  1  0.24676565  0.14675132  0.64218545  1
  O  O27  1  0.73102100  0.11389430  0.63962042  1
  O  O28  1  0.33473666  0.53157696  0.63310149  1
  O  O29  1  0.82756905  0.54428497  0.62914291  1
  O  O30  1  0.44185719  0.54527946  0.14428806  1
  O  O31  1  0.93266469  0.52142109  0.13888108  1
  O  O32  1  0.32585894  0.10615430  0.13102082  1
  O  O33  1  0.83524062  0.13913808  0.13613068  1
  O  O34  1  0.22724619  0.34735304  0.14418037  1
  O  O35  1  0.74121820  0.35304677  0.14490216  1
  O  O36  1  0.23596912  0.32422653  0.02695997  1
  O  O37  1  0.73939206  0.33789739  0.02674295  1
  O  O38  1  0.42528790  0.52263434  0.02602796  1
  O  O39  1  0.93121825  0.51792841  0.03232221  1
  O  O40  1  0.33537826  0.12771142  0.02606034  1
  O  O41  1  0.84060961  0.14572393  0.03025503  1
  O  O42  1  0.23546444  0.13766294  0.52320844  1
  O  O43  1  0.73470811  0.14197586  0.52215767  1
  O  O44  1  0.34017965  0.53985099  0.52722230  1
  O  O45  1  0.83793303  0.54521921  0.52417520  1
  O  O46  1  0.43104553  0.34368427  0.52920389  1
  O  O47  1  0.92939199  0.33203793  0.52272926  1
  O  O48  1  0.28426085  0.69213675  0.96821683  1
  O  O49  1  0.79318270  0.70134528  0.97349955  1
  O  O50  1  0.06050276  0.40901006  0.96328730  1
  O  O51  1  0.56152202  0.41350743  0.96311791  1
  O  O52  1  0.14674275  0.86698891  0.97809098  1
  O  O53  1  0.65684087  0.86904448  0.97352546  1
  O  O54  1  0.29186093  0.88329447  0.47110650  1
  O  O55  1  0.78758566  0.87345704  0.46451569  1
  O  O56  1  0.15338432  0.45354632  0.46741971  1
  O  O57  1  0.64862072  0.43439061  0.47473265  1
  O  O58  1  0.06372915  0.71079880  0.45983628  1
  O  O59  1  0.56200444  0.71296457  0.46133759  1
  O  O60  1  0.03930165  0.63667771  0.35926053  1
  O  O61  1  0.55457505  0.64515622  0.35996195  1
  O  O62  1  0.27251576  0.91906200  0.37034544  1
  O  O63  1  0.76527885  0.88029562  0.36165686  1
  O  O64  1  0.18289540  0.46079564  0.35447262  1
  O  O65  1  0.67956980  0.49169869  0.36186717  1
  O  O66  1  0.05351054  0.46283051  0.86179969  1
  O  O67  1  0.53843402  0.44177333  0.86258413  1
  O  O68  1  0.17857954  0.86185325  0.86573357  1
  O  O69  1  0.68790840  0.90558712  0.86005934  1
  O  O70  1  0.26363270  0.64802936  0.86490090  1
  O  O71  1  0.77118217  0.62750421  0.87235977  1
  O  O72  1  0.98927659  0.80700080  0.40539167  1
  O  O73  1  0.49351794  0.80642018  0.39920915  1
  O  O74  1  0.40838796  0.99250364  0.40877351  1
  O  O75  1  0.90349786  0.98612591  0.40220095  1
  O  O76  1  0.08322081  0.17004627  0.41223857  1
  O  O77  1  0.58451997  0.17597948  0.40946431  1
  O  O78  1  0.99215805  0.17886400  0.90131191  1
  O  O79  1  0.48811730  0.16927153  0.90753878  1
  O  O80  1  0.08400843  0.99252314  0.90901428  1
  O  O81  1  0.58376569  0.99497787  0.91230589  1
  O  O82  1  0.40066483  0.82170381  0.90709378  1
  O  O83  1  0.90829522  0.82525482  0.90962935  1
  O  O84  1  0.47240202  0.17063173  0.57885875  1
  O  O85  1  0.97992034  0.15040124  0.57730982  1
  O  O86  1  0.10319856  0.03427550  0.58345366  1
  O  O87  1  0.59532428  0.02807190  0.57558212  1
  O  O88  1  0.40124741  0.79408366  0.58036460  1
  O  O89  1  0.90452215  0.80206776  0.57702541  1
  O  O90  1  0.48117650  0.81013513  0.07794221  1
  O  O91  1  0.97194348  0.77054535  0.08297506  1
  O  O92  1  0.40248516  0.00314266  0.07813425  1
  O  O93  1  0.90199748  0.01320771  0.08313826  1
  O  O94  1  0.09445661  0.16471997  0.07676129  1
  O  O95  1  0.60206985  0.17340255  0.08203892  1
  O  O96  1  0.34090493  0.14862068  0.74946001  1
  O  O97  1  0.85788414  0.16351696  0.75876629  1
  O  O98  1  0.24370913  0.32891572  0.74751295  1
  O  O99  1  0.73730440  0.29789617  0.75606471  1
  O  O100  1  0.41312789  0.49688922  0.74415027  1
  O  O101  1  0.93553793  0.53121307  0.75885121  1
  O  O102  1  0.35335411  0.54750193  0.25830586  1
  O  O103  1  0.84712919  0.53778051  0.25022770  1
  O  O104  1  0.43464368  0.33823770  0.25917216  1
  O  O105  1  0.92138519  0.31929794  0.24765478  1
  O  O106  1  0.23753749  0.16660910  0.25594148  1
  O  O107  1  0.74871380  0.16026147  0.24734583  1
  O  O108  1  0.32904940  0.52224636  0.91670021  1
  O  O109  1  0.84632815  0.53330989  0.92832849  1
  O  O110  1  0.42377319  0.33394334  0.92538001  1
  O  O111  1  0.93045319  0.34822113  0.91897772  1
  O  O112  1  0.25153682  0.15539484  0.91982797  1
  O  O113  1  0.75247225  0.17109238  0.92261799  1
  O  O114  1  0.34584003  0.16029037  0.42731684  1
  O  O115  1  0.83024261  0.13600853  0.41444022  1
  O  O116  1  0.25230042  0.34112294  0.42219087  1
  O  O117  1  0.75231823  0.34959882  0.41871320  1
  O  O118  1  0.43150024  0.51403383  0.41723001  1
  O  O119  1  0.92493670  0.51509626  0.42308048  1
  O  O120  1  0.17990106  0.50918654  0.08021936  1
  O  O121  1  0.68649300  0.51361088  0.08582875  1
  O  O122  1  0.06033611  0.65161921  0.08616769  1
  O  O123  1  0.57567598  0.67401292  0.08336362  1
  O  O124  1  0.25496837  0.86460410  0.07566065  1
  O  O125  1  0.75591218  0.88944056  0.08273239  1
  O  O126  1  0.18895825  0.86609998  0.58735081  1
  O  O127  1  0.68046172  0.85328256  0.57888890  1
  O  O128  1  0.25529335  0.62317173  0.58064831  1
  O  O129  1  0.75718486  0.64584590  0.57392538  1
  O  O130  1  0.07598130  0.47558837  0.58373224  1
  O  O131  1  0.55986448  0.46640958  0.58347699  1
  O  O132  1  0.15300835  0.82238865  0.25362043  1
  O  O133  1  0.66521698  0.82624217  0.26312631  1
  O  O134  1  0.26687418  0.66994410  0.25363091  1
  O  O135  1  0.76539849  0.67334718  0.25923617  1
  O  O136  1  0.06866346  0.46469389  0.25813764  1
  O  O137  1  0.58200348  0.47361532  0.26253958  1
  O  O138  1  0.16563245  0.50629638  0.76292472  1
  O  O139  1  0.66064565  0.48467579  0.75375826  1
  O  O140  1  0.08272858  0.69223374  0.76285280  1
  O  O141  1  0.57692277  0.66605562  0.75606018  1
  O  O142  1  0.26260813  0.85146823  0.75965264  1
  O  O143  1  0.76976045  0.86803733  0.75478551  1
loop_
_geom_bond_atom_site_label_1
_geom_bond_atom_site_label_2
_geom_bond_distance
_geom_bond_site_symmetry_2
Na0 O133 2.343867 1_555
Na0 O107 2.354278 1_565
Na0 O135 2.668245 1_555
Na0 O63 2.690770 1_555
Na0 O105 2.759453 1_565
Na0 O33 2.979981 1_565
Na1 O106 2.403916 1_555
Na1 O64 2.514012 1_555
Na1 O134 2.609847 1_555
Na1 O34 2.736064 1_555
Na1 O102 2.806168 1_555
Na1 O136 2.852585 1_555
Na2 O135 2.612017 1_555
Na2 O107 2.616647 1_555
Na2 O103 2.656376 1_555
Na2 O137 2.715585 1_555
Na2 O35 2.727636 1_555
Na2 O65 2.871717 1_555
Na2 O1 2.906226 1_555
Na3 O132 2.497416 1_555
Na3 O103 2.559317 1_455
Na3 O136 2.644346 1_555
Na3 O105 2.706840 1_455
Na3 O60 2.754874 1_555
Na3 O31 2.774480 1_455
Na3 O22 2.951872 1_555
Na4 O133 2.505630 1_555
Na4 O30 2.592720 1_555
Na4 O23 2.634255 1_555
Na4 O104 2.650342 1_555
Na4 O137 2.654740 1_555
Na4 O102 2.724822 1_555
Na4 O61 2.853396 1_555
Na5 O98 2.378648 1_555
Na5 O138 2.522097 1_555
Na5 O100 2.598505 1_555
Na5 O70 2.800298 1_555
Na5 O142 2.834425 1_555
Na5 O8 2.956672 1_555
Na5 O28 3.028043 1_555
Na6 O138 2.524275 1_555
Na6 O14 2.587571 1_555
Na6 O97 2.631112 1_455
Na6 O101 2.637691 1_455
Na6 O25 2.679157 1_455
Na6 O140 2.686096 1_555
Na6 O66 2.880405 1_555
Na7 O141 2.434346 1_555
Na7 O100 2.457313 1_555
Na7 O96 2.665323 1_555
Na7 O139 2.685158 1_555
Na7 O24 2.763620 1_555
Na7 O67 2.840038 1_555
Na8 O98 2.492458 1_555
Na8 O96 2.508607 1_555
Na8 O142 2.634103 1_545
Na8 O140 2.769181 1_545
Na8 O26 2.786070 1_555
Na9 O99 2.476139 1_565
Na9 O141 2.675828 1_555
Na9 O69 2.712103 1_555
Na9 O143 2.734773 1_555
Na9 O17 2.839895 1_555
Na9 O27 2.884728 1_565
Na10 O130 2.395234 1_555
Na10 O86 2.455171 1_555
Na10 O128 2.467974 1_555
Na10 O14 2.782729 1_555
Na10 O85 2.791116 1_455
Na10 O56 2.891170 1_555
Na11 O87 2.419449 1_555
Na11 O129 2.678379 1_555
Na11 O131 2.684117 1_555
Na11 O57 2.684747 1_555
Na11 O15 2.693966 1_555
Na12 O126 2.317469 1_555
Na12 O84 2.400756 1_565
Na12 O12 2.655463 1_555
Na12 O88 2.737440 1_555
Na12 O26 2.913457 1_565
Na12 O54 2.953248 1_555
Na12 O128 2.963214 1_555
Na13 O85 2.420482 1_565
Na13 O127 2.494683 1_555
Na13 O89 2.770887 1_555
Na13 O129 2.871892 1_555
Na13 O13 2.928634 1_555
Na13 O55 2.936175 1_555
Na13 O27 2.957282 1_565
Na14 O52 2.401519 1_554
Na14 O94 2.458295 1_565
Na14 O124 2.634509 1_555
Na14 O122 2.817667 1_555
Na14 O36 2.879287 1_565
Na14 O22 2.982699 1_555
Na15 O123 2.401164 1_555
Na15 O95 2.471881 1_565
Na15 O125 2.505734 1_555
Na15 O53 2.577759 1_554
Na15 O90 2.725530 1_555
Na15 O23 2.904323 1_555
Na16 O90 2.399241 1_555
Na16 O120 2.541952 1_555
Na16 O92 2.715812 1_565
Na16 O48 2.728360 1_554
Na17 O121 2.315205 1_555
Na17 O91 2.411786 1_555
Na17 O49 2.712904 1_554
Na17 O93 2.773928 1_565
Na17 O19 2.867559 1_555
Na18 O82 2.514379 1_555
Na18 O108 2.559291 1_555
Na18 O8 2.562304 1_555
Na18 O81 2.568753 1_555
Na18 O38 2.891458 1_556
Na18 O110 2.893532 1_555
Na19 O80 2.481929 1_655
Na19 O109 2.484443 1_555
Na19 O83 2.545311 1_555
Na19 O9 2.548133 1_555
Na19 O111 2.803113 1_555
Na19 O52 2.908081 1_655
Na20 O112 2.455362 1_555
Na20 O79 2.462042 1_555
Na20 O110 2.510135 1_555
Na20 O82 2.745141 1_545
Na20 O10 2.756943 1_555
Na20 O68 2.790461 1_545
Na20 O40 2.891121 1_556
Na21 O78 2.526545 1_555
Na21 O113 2.540434 1_555
Na21 O111 2.574220 1_555
Na21 O69 2.738102 1_545
Na21 O83 2.854940 1_545
Na21 O11 2.868966 1_545
Na21 O41 2.961668 1_556
Na22 O112 2.353617 1_555
Na22 O80 2.393773 1_545
Na22 O6 2.629248 1_555
Na22 O108 2.682808 1_555
Na22 O36 2.895196 1_556
Na23 O81 2.353880 1_545
Na23 O113 2.413403 1_555
Na23 O7 2.735294 1_555
Na23 O37 2.903692 1_556
Na23 O79 2.915505 1_555
Na23 O51 2.958620 1_555
Na23 O71 2.998638 1_555
Na24 O77 2.481804 1_555
Na24 O114 2.491871 1_555
Na24 O74 2.548528 1_545
Na24 O4 2.669815 1_555
Na24 O118 2.805899 1_555
Na24 O57 2.817316 1_555
Na24 O46 2.990263 1_555
Na25 O47 2.428791 1_555
Na25 O115 2.593709 1_555
Na25 O75 2.605624 1_545
Na25 O76 2.656855 1_655
Na25 O56 2.842492 1_655
Na25 O119 2.857661 1_555
Na26 O116 2.377859 1_555
Na26 O76 2.400330 1_555
Na26 O42 2.522671 1_555
Na26 O58 2.907555 1_545
Na27 O117 2.356209 1_555
Na27 O77 2.388345 1_555
Na27 O43 2.594872 1_555
Na27 O115 2.715254 1_555
Na27 O1 2.811409 1_555
Na28 O116 2.492564 1_555
Na28 O73 2.510492 1_555
Na28 O118 2.520860 1_555
Na28 O44 2.715998 1_555
Na28 O74 2.863152 1_555
Na28 O2 2.975562 1_555
Na28 O64 3.006639 1_555
Na29 O117 2.402496 1_555
Na29 O119 2.526356 1_555
Na29 O72 2.536274 1_555
Na29 O45 2.707523 1_555
Na29 O75 2.821429 1_555
Na29 O65 2.826746 1_555
Na29 O3 2.923105 1_555
Na29 O55 2.957199 1_555
Na30 O85 2.358395 1_455
Na30 O86 2.422405 1_555
Na30 O76 2.543463 1_555
Na30 O89 2.674187 1_445
Na30 O72 2.938852 1_445
Na31 O87 2.285924 1_555
Na31 O77 2.494939 1_555
Na31 O84 2.781956 1_555
Na31 O74 2.844426 1_545
Na31 O88 2.877074 1_545
Na31 O73 2.883988 1_545
Na32 O80 2.378595 1_545
Na32 O94 2.420837 1_556
Na32 O78 2.701603 1_455
Na32 O83 2.736914 1_445
Na32 O91 3.001640 1_446
Na32 O93 3.038099 1_456
Na33 O81 2.432082 1_545
Na33 O90 2.452735 1_546
Na33 O95 2.516094 1_556
Na33 O79 2.793382 1_555
Na33 O92 2.803597 1_556
Na33 O82 2.898899 1_545
Na34 O98 2.396626 1_555
Na34 O100 2.482043 1_555
Na34 O96 2.603836 1_555
Na34 O112 2.685708 1_555
Na34 O108 2.725611 1_555
Na34 O110 2.924415 1_555
Na35 O99 2.305590 1_555
Na35 O113 2.419333 1_555
Na35 O97 2.681993 1_555
Na35 O101 2.783905 1_555
Na35 O109 2.788531 1_555
Na35 O111 2.809075 1_555
Na36 O106 2.379085 1_555
Na36 O116 2.450318 1_555
Na36 O102 2.697646 1_555
Na36 O114 2.702352 1_555
Na36 O104 2.744945 1_555
Na36 O118 2.745271 1_555
Na37 O117 2.366179 1_555
Na37 O107 2.453143 1_555
Na37 O115 2.607019 1_555
Na37 O103 2.711206 1_555
Na37 O119 2.846009 1_555
Na37 O105 2.870471 1_555
Na38 O120 2.514555 1_555
Na38 O132 2.648802 1_555
Na38 O122 2.662062 1_555
Na38 O124 2.686875 1_555
Na38 O134 2.782062 1_555
Na38 O136 2.919292 1_555
Na39 O123 2.391168 1_555
Na39 O121 2.462132 1_555
Na39 O137 2.768882 1_555
Na39 O133 2.814500 1_555
Na39 O125 2.842357 1_555
Na40 O130 2.497501 1_555
Na40 O126 2.563596 1_555
Na40 O138 2.674831 1_555
Na40 O140 2.719877 1_555
Na40 O128 2.892318 1_555
Na40 O142 2.906110 1_555
Na41 O141 2.437886 1_555
Na41 O139 2.568842 1_555
Na41 O127 2.690069 1_555
Na41 O131 2.770675 1_555
Na41 O143 2.788440 1_555
La0 O14 2.230950 1_555
La0 O86 2.265760 1_555
La0 O85 2.364619 1_455
La0 O13 2.453287 1_445
La0 O16 2.459160 1_545
La0 O89 2.628786 1_445
La1 O17 2.137167 1_555
La1 O15 2.229065 1_565
La1 O87 2.335594 1_565
La1 O88 2.547707 1_555
La1 O12 2.554648 1_555
La1 O84 2.663828 1_565
La2 O22 2.185041 1_545
La2 O94 2.258048 1_555
La2 O20 2.354767 1_555
La2 O93 2.502033 1_455
La2 O91 2.519126 1_445
La2 O19 2.526708 1_445
La3 O23 2.242087 1_545
La3 O95 2.253549 1_555
La3 O90 2.334882 1_545
La3 O21 2.484077 1_555
La3 O18 2.491764 1_545
La3 O92 2.611895 1_555
La4 O27 2.226936 1_555
La4 O25 2.262547 1_555
La4 O99 2.340887 1_555
La4 O29 2.368095 1_555
La4 O97 2.580676 1_555
La4 O101 2.594943 1_555
La5 O30 2.244405 1_555
La5 O34 2.250191 1_555
La5 O32 2.348468 1_555
La5 O106 2.399743 1_555
La5 O102 2.591118 1_555
La5 O104 2.596824 1_555
La6 O52 2.240749 1_554
La6 O120 2.290776 1_555
La6 O50 2.349630 1_554
La6 O48 2.436198 1_554
La6 O124 2.464967 1_555
La6 O122 2.562339 1_555
La7 O123 2.244708 1_555
La7 O53 2.278805 1_554
La7 O121 2.293338 1_555
La7 O51 2.384283 1_554
La7 O125 2.595248 1_555
La7 O49 2.614415 1_554
La8 O130 2.231044 1_555
La8 O126 2.285860 1_555
La8 O56 2.310361 1_555
La8 O58 2.424801 1_555
La8 O128 2.522524 1_555
La8 O54 2.621349 1_555
La9 O57 2.239292 1_555
La9 O127 2.249163 1_555
La9 O59 2.369755 1_555
La9 O129 2.443652 1_555
La9 O131 2.505162 1_555
La9 O55 2.509295 1_555
La10 O132 2.255384 1_555
La10 O64 2.261965 1_555
La10 O62 2.370604 1_555
La10 O134 2.463692 1_555
La10 O60 2.475975 1_555
La10 O136 2.492594 1_555
La11 O139 2.255813 1_555
La11 O141 2.270489 1_555
La11 O69 2.290224 1_555
La11 O71 2.465083 1_555
La11 O67 2.466661 1_555
La11 O143 2.489499 1_555
Mg0 O0 1.936870 1_555
Mg0 O76 2.029919 1_555
Mg0 O72 2.189763 1_445
Mg0 O5 2.249025 1_455
Mg0 O75 2.250195 1_445
Mg0 O3 2.326580 1_445
Mg1 O1 1.935969 1_555
Mg1 O77 1.995931 1_555
Mg1 O4 2.116597 1_555
Mg1 O73 2.207329 1_545
Mg1 O2 2.336276 1_545
Mg1 O74 2.440790 1_545
Mg2 O6 1.928141 1_555
Mg2 O80 2.015918 1_545
Mg2 O9 2.116138 1_445
Mg2 O78 2.236636 1_455
Mg2 O11 2.247078 1_445
Mg2 O83 2.425063 1_445
Mg3 O7 1.952367 1_565
Mg3 O8 1.991113 1_555
Mg3 O81 2.049315 1_555
Mg3 O82 2.400105 1_555
Mg3 O10 2.444901 1_565
Mg3 O79 2.474144 1_565
Mg4 O26 1.966699 1_555
Mg4 O100 2.053974 1_555
Mg4 O98 2.065710 1_555
Mg4 O28 2.148740 1_555
Mg4 O24 2.342827 1_555
Mg4 O96 2.406569 1_555
Mg5 O35 1.911444 1_555
Mg5 O107 2.028413 1_555
Mg5 O33 2.076736 1_555
Mg5 O31 2.327220 1_555
Mg5 O105 2.417904 1_555
Mg5 O103 2.493039 1_555
Mg6 O36 1.972394 1_556
Mg6 O38 2.024145 1_556
Mg6 O40 2.185760 1_556
Mg6 O112 2.201102 1_555
Mg6 O110 2.276789 1_555
Mg6 O108 2.401378 1_555
Mg7 O37 1.908955 1_556
Mg7 O113 2.015070 1_555
Mg7 O41 2.112111 1_556
Mg7 O39 2.225703 1_556
Mg7 O109 2.242437 1_555
Mg7 O111 2.481590 1_555
Mg8 O42 1.915218 1_555
Mg8 O116 2.067108 1_555
Mg8 O44 2.077179 1_555
Mg8 O46 2.182178 1_555
Mg8 O114 2.291867 1_555
Mg8 O118 2.527615 1_555
Mg9 O43 1.952082 1_555
Mg9 O47 2.032387 1_555
Mg9 O45 2.123588 1_555
Mg9 O117 2.239540 1_555
Mg9 O119 2.336128 1_555
Mg9 O115 2.500704 1_555
Mg10 O65 1.989493 1_555
Mg10 O133 2.027157 1_555
Mg10 O137 2.159186 1_555
Mg10 O63 2.176709 1_555
Mg10 O135 2.271483 1_555
Mg10 O61 2.281720 1_555
Mg11 O68 1.994714 1_555
Mg11 O138 2.022799 1_555
Mg11 O142 2.168092 1_555
Mg11 O70 2.170704 1_555
Mg11 O140 2.171353 1_555
Mg11 O66 2.368900 1_555
O0 Si0 1.628722 1_545
O1 Si1 1.641532 1_545
O2 S0 1.483361 1_555
O3 S1 1.481530 1_555
O4 S3 1.485253 1_555
O5 S2 1.483073 1_555
O6 Si2 1.644140 1_555
O7 Si3 1.628991 1_555
O8 Si4 1.637084 1_555
O9 S4 1.488780 1_655
O10 S5 1.483567 1_545
O11 S6 1.487120 1_565
O12 S5 1.500257 1_555
O13 S6 1.486037 1_565
O14 Si2 1.672129 1_555
O15 Si3 1.663161 1_555
O16 S4 1.486807 1_555
O17 Si4 1.641966 1_555
O18 S0 1.478038 1_555
O19 S1 1.501337 1_555
O20 S2 1.484577 1_455
O21 S3 1.484094 1_555
O22 Si0 1.662455 1_555
O23 Si1 1.661628 1_555
O24 S7 1.474467 1_555
O25 Si5 1.642904 1_555
O26 Si6 1.627601 1_555
O27 Si7 1.649839 1_555
O28 S8 1.470523 1_555
O29 S9 1.472273 1_555
O30 Si8 1.657671 1_555
O31 S10 1.483977 1_555
O32 S11 1.487268 1_555
O33 S12 1.485947 1_555
O34 Si9 1.656240 1_555
O35 Si10 1.638339 1_555
O36 Si9 1.624450 1_555
O37 Si10 1.627436 1_555
O38 Si8 1.628537 1_555
O39 S10 1.477688 1_555
O40 S11 1.472218 1_555
O41 S12 1.479416 1_555
O42 Si6 1.641906 1_555
O43 Si7 1.629820 1_555
O44 S8 1.491666 1_555
O45 S9 1.489085 1_555
O46 S7 1.487813 1_555
O47 Si5 1.640448 1_555
O48 S13 1.505312 1_555
O49 S14 1.498226 1_555
O50 S15 1.499012 1_555
O51 S16 1.495712 1_555
O52 Si11 1.686440 1_555
O53 Si12 1.652277 1_555
O54 S17 1.483894 1_555
O55 S18 1.498171 1_555
O56 Si13 1.651682 1_555
O57 Si14 1.675382 1_555
O58 S19 1.490435 1_555
O59 S20 1.494680 1_555
O60 S19 1.503918 1_555
O61 S20 1.487598 1_555
O62 S17 1.497582 1_555
O63 S18 1.488538 1_555
O64 Si13 1.666987 1_555
O65 Si14 1.650541 1_555
O66 S15 1.482385 1_555
O67 S16 1.496185 1_555
O68 Si11 1.649867 1_555
O69 Si12 1.657400 1_555
O70 S13 1.485488 1_555
O71 S14 1.492515 1_555
O72 S19 1.456621 1_655
O73 S20 1.485250 1_555
O74 S17 1.482665 1_555
O75 S18 1.482788 1_555
O76 Si13 1.659843 1_555
O77 Si14 1.670507 1_555
O78 S15 1.491031 1_655
O79 S16 1.473608 1_555
O80 Si11 1.674332 1_555
O81 Si12 1.654986 1_555
O82 S13 1.480109 1_555
O83 S14 1.489838 1_555
O84 S7 1.510018 1_555
O85 Si5 1.667323 1_555
O86 Si6 1.664526 1_555
O87 Si7 1.655286 1_555
O88 S8 1.489085 1_555
O89 S9 1.474983 1_555
O90 Si8 1.669580 1_555
O91 S10 1.514930 1_555
O92 S11 1.472388 1_555
O93 S12 1.491425 1_555
O94 Si9 1.671190 1_555
O95 Si10 1.658311 1_555
O96 S5 1.492400 1_545
O97 S6 1.498021 1_555
O98 Si2 1.653106 1_555
O99 Si3 1.659297 1_555
O100 Si4 1.637053 1_555
O101 S4 1.484291 1_655
O102 S0 1.500870 1_555
O103 S1 1.497342 1_555
O104 S3 1.486588 1_555
O105 S2 1.479452 1_555
O106 Si0 1.650146 1_545
O107 Si1 1.676385 1_545
O108 S13 1.491132 1_555
O109 S14 1.480604 1_555
O110 S16 1.479395 1_555
O111 S15 1.485574 1_655
O112 Si11 1.663290 1_545
O113 Si12 1.664568 1_545
O114 S17 1.490790 1_545
O115 S18 1.493458 1_545
O116 Si13 1.665591 1_555
O117 Si14 1.670169 1_555
O118 S20 1.488508 1_555
O119 S19 1.491601 1_655
O120 Si9 1.658196 1_555
O121 Si10 1.669367 1_555
O122 S10 1.498861 1_455
O123 Si8 1.656465 1_555
O124 S11 1.506448 1_565
O125 S12 1.496007 1_565
O126 Si6 1.675575 1_565
O127 Si7 1.661149 1_565
O128 S8 1.502579 1_555
O129 S9 1.497527 1_555
O130 Si5 1.660310 1_455
O131 S7 1.503052 1_555
O132 Si0 1.667336 1_555
O133 Si1 1.667386 1_555
O134 S0 1.500307 1_555
O135 S1 1.487125 1_555
O136 S2 1.495632 1_455
O137 S3 1.495852 1_555
O138 Si2 1.663626 1_555
O139 Si3 1.646389 1_555
O140 S4 1.488404 1_555
O141 Si4 1.666426 1_555
O142 S5 1.489320 1_555
O143 S6 1.482164 1_565
