# generated using pymatgen
data_MgTe2MoW2(SeS)2
_symmetry_space_group_name_H-M   'P 1'
_cell_length_a   6.67086200
_cell_length_b   6.67095600
_cell_length_c   61.94219200
_cell_angle_alpha   90.00103018
_cell_angle_beta   89.99994530
_cell_angle_gamma   119.99926754
_symmetry_Int_Tables_number   1
_chemical_formula_structural   MgTe2MoW2(SeS)2
_chemical_formula_sum   'Mg8 Te16 Mo8 W16 Se16 S16'
_cell_volume   2387.20897993
_cell_formula_units_Z   8
loop_
 _symmetry_equiv_pos_site_id
 _symmetry_equiv_pos_as_xyz
  1  'x, y, z'
loop_
 _atom_site_type_symbol
 _atom_site_label
 _atom_site_symmetry_multiplicity
 _atom_site_fract_x
 _atom_site_fract_y
 _atom_site_fract_z
 _atom_site_occupancy
  Mg  Mg0_0  1  0.35930300  0.17278050  0.41821450  1
  Mg  Mg0_1  1  0.35930300  0.17278050  0.91821450  1
  Mg  Mg0_2  1  0.35930300  0.67278050  0.41821450  1
  Mg  Mg0_3  1  0.35930300  0.67278050  0.91821450  1
  Mg  Mg0_4  1  0.85930300  0.17278050  0.41821450  1
  Mg  Mg0_5  1  0.85930300  0.17278050  0.91821450  1
  Mg  Mg0_6  1  0.85930300  0.67278050  0.41821450  1
  Mg  Mg0_7  1  0.85930300  0.67278050  0.91821450  1
  Te  Te0_0  1  0.33332200  0.16664250  0.02721750  1
  Te  Te0_1  1  0.33332200  0.16664250  0.52721750  1
  Te  Te0_2  1  0.33332200  0.66664250  0.02721750  1
  Te  Te0_3  1  0.33332200  0.66664250  0.52721750  1
  Te  Te0_4  1  0.83332200  0.16664250  0.02721750  1
  Te  Te0_5  1  0.83332200  0.16664250  0.52721750  1
  Te  Te0_6  1  0.83332200  0.66664250  0.02721750  1
  Te  Te0_7  1  0.83332200  0.66664250  0.52721750  1
  Te  Te1_0  1  0.33332650  0.16665100  0.08842250  1
  Te  Te1_1  1  0.33332650  0.16665100  0.58842250  1
  Te  Te1_2  1  0.33332650  0.66665100  0.08842250  1
  Te  Te1_3  1  0.33332650  0.66665100  0.58842250  1
  Te  Te1_4  1  0.83332650  0.16665100  0.08842250  1
  Te  Te1_5  1  0.83332650  0.16665100  0.58842250  1
  Te  Te1_6  1  0.83332650  0.66665100  0.08842250  1
  Te  Te1_7  1  0.83332650  0.66665100  0.58842250  1
  Mo  Mo0_0  1  0.16665700  0.33331700  0.05779450  1
  Mo  Mo0_1  1  0.16665700  0.33331700  0.55779450  1
  Mo  Mo0_2  1  0.16665700  0.83331700  0.05779450  1
  Mo  Mo0_3  1  0.16665700  0.83331700  0.55779450  1
  Mo  Mo0_4  1  0.66665700  0.33331700  0.05779450  1
  Mo  Mo0_5  1  0.66665700  0.33331700  0.55779450  1
  Mo  Mo0_6  1  0.66665700  0.83331700  0.05779450  1
  Mo  Mo0_7  1  0.66665700  0.83331700  0.55779450  1
  W  W0_0  1  0.16665300  0.33330950  0.28917100  1
  W  W0_1  1  0.16665300  0.33330950  0.78917100  1
  W  W0_2  1  0.16665300  0.83330950  0.28917100  1
  W  W0_3  1  0.16665300  0.83330950  0.78917100  1
  W  W0_4  1  0.66665300  0.33330950  0.28917100  1
  W  W0_5  1  0.66665300  0.33330950  0.78917100  1
  W  W0_6  1  0.66665300  0.83330950  0.28917100  1
  W  W0_7  1  0.66665300  0.83330950  0.78917100  1
  W  W1_0  1  0.33334950  0.16669500  0.17350250  1
  W  W1_1  1  0.33334950  0.16669500  0.67350250  1
  W  W1_2  1  0.33334950  0.66669500  0.17350250  1
  W  W1_3  1  0.33334950  0.66669500  0.67350250  1
  W  W1_4  1  0.83334950  0.16669500  0.17350250  1
  W  W1_5  1  0.83334950  0.16669500  0.67350250  1
  W  W1_6  1  0.83334950  0.66669500  0.17350250  1
  W  W1_7  1  0.83334950  0.66669500  0.67350250  1
  Se  Se0_0  1  0.33331800  0.16663600  0.26210800  1
  Se  Se0_1  1  0.33331800  0.16663600  0.76210800  1
  Se  Se0_2  1  0.33331800  0.66663600  0.26210800  1
  Se  Se0_3  1  0.33331800  0.66663600  0.76210800  1
  Se  Se0_4  1  0.83331800  0.16663600  0.26210800  1
  Se  Se0_5  1  0.83331800  0.16663600  0.76210800  1
  Se  Se0_6  1  0.83331800  0.66663600  0.26210800  1
  Se  Se0_7  1  0.83331800  0.66663600  0.76210800  1
  Se  Se1_0  1  0.33332050  0.16664050  0.31621100  1
  Se  Se1_1  1  0.33332050  0.16664050  0.81621100  1
  Se  Se1_2  1  0.33332050  0.66664050  0.31621100  1
  Se  Se1_3  1  0.33332050  0.66664050  0.81621100  1
  Se  Se1_4  1  0.83332050  0.16664050  0.31621100  1
  Se  Se1_5  1  0.83332050  0.16664050  0.81621100  1
  Se  Se1_6  1  0.83332050  0.66664050  0.31621100  1
  Se  Se1_7  1  0.83332050  0.66664050  0.81621100  1
  S  S0_0  1  0.16667900  0.33335950  0.19808450  1
  S  S0_1  1  0.16667900  0.33335950  0.69808450  1
  S  S0_2  1  0.16667900  0.83335950  0.19808450  1
  S  S0_3  1  0.16667900  0.83335950  0.69808450  1
  S  S0_4  1  0.66667900  0.33335950  0.19808450  1
  S  S0_5  1  0.66667900  0.33335950  0.69808450  1
  S  S0_6  1  0.66667900  0.83335950  0.19808450  1
  S  S0_7  1  0.66667900  0.83335950  0.69808450  1
  S  S1_0  1  0.16667750  0.33335650  0.14891150  1
  S  S1_1  1  0.16667750  0.33335650  0.64891150  1
  S  S1_2  1  0.16667750  0.83335650  0.14891150  1
  S  S1_3  1  0.16667750  0.83335650  0.64891150  1
  S  S1_4  1  0.66667750  0.33335650  0.14891150  1
  S  S1_5  1  0.66667750  0.33335650  0.64891150  1
  S  S1_6  1  0.66667750  0.83335650  0.14891150  1
  S  S1_7  1  0.66667750  0.83335650  0.64891150  1
loop_
_geom_bond_atom_site_label_1
_geom_bond_atom_site_label_2
_geom_bond_distance
_geom_bond_site_symmetry_2
Mg0_0 Mg0_4 3.335431 1_455
Mg0_0 Mg0_4 3.335431 1_555
Mg0_0 Mg0_2 3.335478 1_545
Mg0_0 Mg0_2 3.335478 1_555
Mg0_0 Mg0_6 3.335491 1_445
Mg0_0 Mg0_6 3.335491 1_555
Mg0_1 Mg0_5 3.335431 1_455
Mg0_1 Mg0_5 3.335431 1_555
Mg0_1 Mg0_3 3.335478 1_555
Mg0_1 Mg0_3 3.335478 1_545
Mg0_1 Mg0_7 3.335491 1_555
Mg0_1 Mg0_7 3.335491 1_445
Mg0_2 Mg0_6 3.335431 1_455
Mg0_2 Mg0_6 3.335431 1_555
Mg0_2 Mg0_4 3.335491 1_565
Mg0_2 Mg0_4 3.335491 1_455
Mg0_3 Mg0_7 3.335431 1_555
Mg0_3 Mg0_7 3.335431 1_455
Mg0_3 Mg0_5 3.335491 1_565
Mg0_3 Mg0_5 3.335491 1_455
Mg0_4 Mg0_6 3.335478 1_555
Mg0_4 Mg0_6 3.335478 1_545
Mg0_5 Mg0_7 3.335478 1_545
Mg0_5 Mg0_7 3.335478 1_555
Mo0_0 Te0_4 2.701046 1_455
Mo0_0 Te0_0 2.701057 1_555
Mo0_0 Te0_2 2.701066 1_555
Mo0_0 Te1_2 2.703263 1_555
Mo0_0 Te1_4 2.703269 1_455
Mo0_0 Te1_0 2.703286 1_555
Mo0_1 Te0_5 2.701046 1_455
Mo0_1 Te0_1 2.701057 1_555
Mo0_1 Te0_3 2.701066 1_555
Mo0_1 Te1_3 2.703263 1_555
Mo0_1 Te1_5 2.703269 1_455
Mo0_1 Te1_1 2.703286 1_555
Mo0_2 Te0_6 2.701046 1_455
Mo0_2 Te0_2 2.701057 1_555
Mo0_2 Te0_0 2.701066 1_565
Mo0_2 Te1_0 2.703263 1_565
Mo0_2 Te1_6 2.703269 1_455
Mo0_2 Te1_2 2.703286 1_555
Mo0_3 Te0_7 2.701046 1_455
Mo0_3 Te0_3 2.701057 1_555
Mo0_3 Te0_1 2.701066 1_565
Mo0_3 Te1_1 2.703263 1_565
Mo0_3 Te1_7 2.703269 1_455
Mo0_3 Te1_3 2.703286 1_555
Mo0_4 Te0_0 2.701046 1_555
Mo0_4 Te0_4 2.701057 1_555
Mo0_4 Te0_6 2.701066 1_555
Mo0_4 Te1_6 2.703263 1_555
Mo0_4 Te1_0 2.703269 1_555
Mo0_4 Te1_4 2.703286 1_555
Mo0_5 Te0_1 2.701046 1_555
Mo0_5 Te0_5 2.701057 1_555
Mo0_5 Te0_7 2.701066 1_555
Mo0_5 Te1_7 2.703263 1_555
Mo0_5 Te1_1 2.703269 1_555
Mo0_5 Te1_5 2.703286 1_555
Mo0_6 Te0_2 2.701046 1_555
Mo0_6 Te0_6 2.701057 1_555
Mo0_6 Te0_4 2.701066 1_565
Mo0_6 Te1_4 2.703263 1_565
Mo0_6 Te1_2 2.703269 1_555
Mo0_6 Te1_6 2.703286 1_555
Mo0_7 Te0_3 2.701046 1_555
Mo0_7 Te0_7 2.701057 1_555
Mo0_7 Te0_5 2.701066 1_565
Mo0_7 Te1_5 2.703263 1_565
Mo0_7 Te1_3 2.703269 1_555
Mo0_7 Te1_7 2.703286 1_555
Se0_0 W0_4 2.553139 1_555
Se0_0 W0_0 2.553146 1_555
Se0_0 W0_2 2.553160 1_545
Se0_1 W0_5 2.553139 1_555
Se0_1 W0_1 2.553146 1_555
Se0_1 W0_3 2.553160 1_545
Se0_2 W0_6 2.553139 1_555
Se0_2 W0_2 2.553146 1_555
Se0_2 W0_0 2.553160 1_555
Se0_3 W0_7 2.553139 1_555
Se0_3 W0_3 2.553146 1_555
Se0_3 W0_1 2.553160 1_555
Se0_4 W0_0 2.553139 1_655
Se0_4 W0_4 2.553146 1_555
Se0_4 W0_6 2.553160 1_545
Se0_5 W0_1 2.553139 1_655
Se0_5 W0_5 2.553146 1_555
Se0_5 W0_7 2.553160 1_545
Se0_6 W0_2 2.553139 1_655
Se0_6 W0_6 2.553146 1_555
Se0_6 W0_4 2.553160 1_555
Se0_7 W0_3 2.553139 1_655
Se0_7 W0_7 2.553146 1_555
Se0_7 W0_5 2.553160 1_555
Se1_0 W0_2 2.552193 1_545
Se1_0 W0_4 2.552217 1_555
Se1_0 W0_0 2.552230 1_555
Se1_1 W0_3 2.552193 1_545
Se1_1 W0_5 2.552217 1_555
Se1_1 W0_1 2.552230 1_555
Se1_2 W0_0 2.552193 1_555
Se1_2 W0_6 2.552217 1_555
Se1_2 W0_2 2.552230 1_555
Se1_3 W0_1 2.552193 1_555
Se1_3 W0_7 2.552217 1_555
Se1_3 W0_3 2.552230 1_555
Se1_4 W0_6 2.552193 1_545
Se1_4 W0_0 2.552217 1_655
Se1_4 W0_4 2.552230 1_555
Se1_5 W0_7 2.552193 1_545
Se1_5 W0_1 2.552217 1_655
Se1_5 W0_5 2.552230 1_555
Se1_6 W0_4 2.552193 1_555
Se1_6 W0_2 2.552217 1_655
Se1_6 W0_6 2.552230 1_555
Se1_7 W0_5 2.552193 1_555
Se1_7 W0_3 2.552217 1_655
Se1_7 W0_7 2.552230 1_555
S0_0 W1_4 2.454951 1_455
S0_0 W1_0 2.454968 1_555
S0_0 W1_2 2.455035 1_555
S0_1 W1_5 2.454951 1_455
S0_1 W1_1 2.454968 1_555
S0_1 W1_3 2.455035 1_555
S0_2 W1_6 2.454951 1_455
S0_2 W1_2 2.454968 1_555
S0_2 W1_0 2.455035 1_565
S0_3 W1_7 2.454951 1_455
S0_3 W1_3 2.454968 1_555
S0_3 W1_1 2.455035 1_565
S0_4 W1_0 2.454951 1_555
S0_4 W1_4 2.454968 1_555
S0_4 W1_6 2.455035 1_555
S0_5 W1_1 2.454951 1_555
S0_5 W1_5 2.454968 1_555
S0_5 W1_7 2.455035 1_555
S0_6 W1_2 2.454951 1_555
S0_6 W1_6 2.454968 1_555
S0_6 W1_4 2.455035 1_565
S0_7 W1_3 2.454951 1_555
S0_7 W1_7 2.454968 1_555
S0_7 W1_5 2.455035 1_565
S1_0 W1_4 2.455312 1_455
S1_0 W1_0 2.455333 1_555
S1_0 W1_2 2.455346 1_555
S1_1 W1_5 2.455312 1_455
S1_1 W1_1 2.455333 1_555
S1_1 W1_3 2.455346 1_555
S1_2 W1_6 2.455312 1_455
S1_2 W1_2 2.455333 1_555
S1_2 W1_0 2.455346 1_565
S1_3 W1_7 2.455312 1_455
S1_3 W1_3 2.455333 1_555
S1_3 W1_1 2.455346 1_565
S1_4 W1_0 2.455312 1_555
S1_4 W1_4 2.455333 1_555
S1_4 W1_6 2.455346 1_555
S1_5 W1_1 2.455312 1_555
S1_5 W1_5 2.455333 1_555
S1_5 W1_7 2.455346 1_555
S1_6 W1_2 2.455312 1_555
S1_6 W1_6 2.455333 1_555
S1_6 W1_4 2.455346 1_565
S1_7 W1_3 2.455312 1_555
S1_7 W1_7 2.455333 1_555
S1_7 W1_5 2.455346 1_565
