# generated using pymatgen
data_CrCuPPb2O9
_symmetry_space_group_name_H-M   'P 1'
_cell_length_a   5.72571064
_cell_length_b   9.52479283
_cell_length_c   13.73060887
_cell_angle_alpha   88.85777784
_cell_angle_beta   90.00000000
_cell_angle_gamma   90.00000000
_symmetry_Int_Tables_number   1
_chemical_formula_structural   CrCuPPb2O9
_chemical_formula_sum   'Cr4 Cu4 P4 Pb8 O36'
_cell_volume   748.66654219
_cell_formula_units_Z   4
loop_
 _symmetry_equiv_pos_site_id
 _symmetry_equiv_pos_as_xyz
  1  'x, y, z'
loop_
 _atom_site_type_symbol
 _atom_site_label
 _atom_site_symmetry_multiplicity
 _atom_site_fract_x
 _atom_site_fract_y
 _atom_site_fract_z
 _atom_site_occupancy
  Cr  Cr0  1  0.25021655  0.31774029  0.36912629  1
  Cr  Cr1  1  0.24978345  0.81774029  0.86912629  1
  Cr  Cr2  1  0.74978345  0.68225971  0.63087371  1
  Cr  Cr3  1  0.75021655  0.18225971  0.13087371  1
  Cu  Cu0  1  0.50000000  0.00000000  0.50000000  1
  Cu  Cu1  1  0.00000000  0.50000000  -0.00000000  1
  Cu  Cu2  1  0.00000000  0.00000000  0.50000000  1
  Cu  Cu3  1  0.50000000  0.50000000  -0.00000000  1
  P  P0  1  0.24946079  0.17000774  0.65724401  1
  P  P1  1  0.25053921  0.67000774  0.15724401  1
  P  P2  1  0.75053921  0.82999226  0.34275599  1
  P  P3  1  0.74946079  0.32999226  0.84275599  1
  Pb  Pb0  1  0.25303206  0.01695130  0.23020942  1
  Pb  Pb1  1  0.24696794  0.51695130  0.73020942  1
  Pb  Pb2  1  0.74696794  0.98304870  0.76979058  1
  Pb  Pb3  1  0.75303206  0.48304870  0.26979058  1
  Pb  Pb4  1  0.74949152  0.32634146  0.54963540  1
  Pb  Pb5  1  0.75050848  0.82634146  0.04963540  1
  Pb  Pb6  1  0.25050848  0.67365854  0.45036460  1
  Pb  Pb7  1  0.24949152  0.17365854  0.95036460  1
  O  O0  1  0.47533691  0.10047041  0.61566130  1
  O  O1  1  0.02466309  0.60047041  0.11566130  1
  O  O2  1  0.52466309  0.89952959  0.38433870  1
  O  O3  1  0.97533691  0.39952959  0.88433870  1
  O  O4  1  0.02380964  0.09991187  0.61596763  1
  O  O5  1  0.47619036  0.59991187  0.11596763  1
  O  O6  1  0.97619036  0.90008813  0.38403237  1
  O  O7  1  0.52380964  0.40008813  0.88403237  1
  O  O8  1  0.24882479  0.32402983  0.62272625  1
  O  O9  1  0.25117521  0.82402983  0.12272625  1
  O  O10  1  0.75117521  0.67597017  0.37727375  1
  O  O11  1  0.74882479  0.17597017  0.87727375  1
  O  O12  1  0.25043930  0.14902350  0.76634819  1
  O  O13  1  0.24956070  0.64902350  0.26634819  1
  O  O14  1  0.74956070  0.85097650  0.23365181  1
  O  O15  1  0.75043930  0.35097650  0.73365181  1
  O  O16  1  0.48882570  0.40719502  0.40275450  1
  O  O17  1  0.01117430  0.90719502  0.90275450  1
  O  O18  1  0.51117430  0.59280498  0.59724550  1
  O  O19  1  0.98882570  0.09280498  0.09724550  1
  O  O20  1  0.01292083  0.40753871  0.40391332  1
  O  O21  1  0.48707917  0.90753871  0.90391332  1
  O  O22  1  0.98707917  0.59246129  0.59608668  1
  O  O23  1  0.51292083  0.09246129  0.09608668  1
  O  O24  1  0.25067638  0.15993085  0.41826772  1
  O  O25  1  0.24932362  0.65993085  0.91826772  1
  O  O26  1  0.74932362  0.84006915  0.58173228  1
  O  O27  1  0.75067638  0.34006915  0.08173228  1
  O  O28  1  0.24775065  0.30259467  0.25187124  1
  O  O29  1  0.25224935  0.80259467  0.75187124  1
  O  O30  1  0.75224935  0.69740533  0.74812876  1
  O  O31  1  0.74775065  0.19740533  0.24812876  1
  O  O32  1  0.75004399  0.10686485  0.46634972  1
  O  O33  1  0.74995601  0.60686485  0.96634972  1
  O  O34  1  0.24995601  0.89313515  0.53365028  1
  O  O35  1  0.25004399  0.39313515  0.03365028  1
loop_
_geom_bond_atom_site_label_1
_geom_bond_atom_site_label_2
_geom_bond_distance
_geom_bond_site_symmetry_2
Cr0 O28 1.619357 1_555
Cr0 O24 1.635287 1_555
Cr0 O16 1.679695 1_555
Cr0 O20 1.679887 1_555
Cr1 O29 1.619357 1_555
Cr1 O25 1.635287 1_555
Cr1 O17 1.679695 1_555
Cr1 O21 1.679887 1_555
Cr2 O30 1.619357 1_555
Cr2 O26 1.635287 1_555
Cr2 O18 1.679695 1_555
Cr2 O22 1.679887 1_555
Cr3 O31 1.619357 1_555
Cr3 O27 1.635287 1_555
Cr3 O19 1.679695 1_555
Cr3 O23 1.679887 1_555
Cu0 O32 1.811211 1_555
Cu0 O34 1.811211 1_545
Cu0 O0 1.875731 1_555
Cu0 O2 1.875731 1_545
Cu0 O24 2.355766 1_555
Cu0 O26 2.355766 1_545
Cu1 O35 1.811211 1_555
Cu1 O33 1.811211 1_454
Cu1 O1 1.875731 1_555
Cu1 O3 1.875731 1_454
Cu1 O25 2.355766 1_554
Cu1 O27 2.355766 1_455
Cu2 O32 1.810813 1_455
Cu2 O34 1.810813 1_545
Cu2 O4 1.876181 1_555
Cu2 O6 1.876181 1_445
Cu2 O26 2.360468 1_445
Cu2 O24 2.360468 1_555
Cu3 O35 1.810813 1_555
Cu3 O33 1.810813 1_554
Cu3 O7 1.876181 1_554
Cu3 O5 1.876181 1_555
Cu3 O27 2.360468 1_555
Cu3 O25 2.360468 1_554
O0 P0 1.566006 1_555
O1 P1 1.566006 1_555
O2 P2 1.566006 1_555
O3 P3 1.566006 1_555
O4 P0 1.565677 1_555
O5 P1 1.565677 1_555
O6 P2 1.565677 1_555
O7 P3 1.565677 1_555
O8 P0 1.532675 1_555
O8 Pb1 2.379661 1_555
O9 P1 1.532675 1_555
O9 Pb0 2.379661 1_565
O10 P2 1.532675 1_555
O10 Pb3 2.379661 1_555
O11 P3 1.532675 1_555
O11 Pb2 2.379661 1_545
O12 P0 1.507397 1_555
O12 Pb7 2.542188 1_555
O13 P1 1.507397 1_555
O13 Pb6 2.542188 1_555
O14 P2 1.507397 1_555
O14 Pb5 2.542188 1_555
O15 P3 1.507397 1_555
O15 Pb4 2.542188 1_555
O16 Pb3 2.467988 1_555
O16 Pb4 2.612669 1_555
O17 Pb2 2.467988 1_455
O17 Pb5 2.612669 1_456
O18 Pb1 2.467988 1_555
O18 Pb6 2.612669 1_555
O19 Pb0 2.467988 1_655
O19 Pb7 2.612669 1_654
O20 Pb3 2.463777 1_455
O20 Pb4 2.610532 1_455
O21 Pb2 2.463777 1_555
O21 Pb5 2.610532 1_556
O22 Pb1 2.463777 1_655
O22 Pb6 2.610532 1_655
O23 Pb0 2.463777 1_555
O23 Pb7 2.610532 1_554
O32 Pb4 2.402731 1_555
O33 Pb5 2.402731 1_556
O34 Pb6 2.402731 1_555
O35 Pb7 2.402731 1_554
