# generated using pymatgen
data_MgCo5BiO12
_symmetry_space_group_name_H-M   'P 1'
_cell_length_a   5.21340894
_cell_length_b   5.10505065
_cell_length_c   9.78005912
_cell_angle_alpha   93.17465393
_cell_angle_beta   96.22640465
_cell_angle_gamma   59.29535239
_symmetry_Int_Tables_number   1
_chemical_formula_structural   MgCo5BiO12
_chemical_formula_sum   'Mg1 Co5 Bi1 O12'
_cell_volume   222.48298369
_cell_formula_units_Z   1
loop_
 _symmetry_equiv_pos_site_id
 _symmetry_equiv_pos_as_xyz
  1  'x, y, z'
loop_
 _atom_site_type_symbol
 _atom_site_label
 _atom_site_symmetry_multiplicity
 _atom_site_fract_x
 _atom_site_fract_y
 _atom_site_fract_z
 _atom_site_occupancy
  Mg  Mg0  1  0.89867000  0.00000000  0.74844900  1
  Co  Co0  1  0.18641400  0.66763900  0.49595100  1
  Co  Co1  1  0.63656000  0.66618500  0.98198200  1
  Co  Co2  1  0.30274500  0.33381500  0.98198200  1
  Co  Co3  1  0.85405300  0.33236100  0.49595100  1
  Co  Co4  1  0.51465800  0.00000000  0.48433100  1
  Bi  Bi0  1  0.99018900  0.00000000  0.05665400  1
  O  O0  1  0.02911600  0.59079400  0.10846600  1
  O  O1  1  0.24909000  0.68250100  0.89096500  1
  O  O2  1  0.15288600  0.34653900  0.40546300  1
  O  O3  1  0.49942500  0.65346100  0.40546300  1
  O  O4  1  0.56159100  0.32353800  0.59506000  1
  O  O5  1  0.17664800  0.00000000  0.59988100  1
  O  O6  1  0.88512900  0.67646200  0.59506000  1
  O  O7  1  0.61991100  0.40920600  0.10846600  1
  O  O8  1  0.40064200  0.00000000  0.09850200  1
  O  O9  1  0.93159100  0.31749900  0.89096500  1
  O  O10  1  0.63073600  0.00000000  0.89151400  1
  O  O11  1  0.86119700  0.00000000  0.39614500  1
loop_
_geom_bond_atom_site_label_1
_geom_bond_atom_site_label_2
_geom_bond_distance
_geom_bond_site_symmetry_2
Mg0 O10 2.081551 1_555
Mg0 O9 2.140398 1_555
Mg0 O1 2.140398 1_645
Mg0 O5 2.160602 1_655
Mg0 O6 2.192065 1_545
Mg0 O4 2.192065 1_555
Co0 O11 1.895507 1_465
Co0 O2 1.897156 1_555
Co0 O3 1.907071 1_555
Co0 O5 1.909605 1_565
Co0 O6 1.913606 1_455
Co0 O4 2.029677 1_555
Co1 O7 1.891596 1_556
Co1 O9 1.911079 1_555
Co1 O8 1.914140 1_566
Co1 O10 1.948383 1_565
Co1 O1 2.079954 1_555
Co1 O0 2.136805 1_656
Co2 O0 1.891598 1_556
Co2 O1 1.911079 1_555
Co2 O8 1.914139 1_556
Co2 O10 1.948384 1_555
Co2 O9 2.079954 1_455
Co2 O7 2.136809 1_556
Co3 O11 1.895507 1_555
Co3 O3 1.897156 1_555
Co3 O2 1.907071 1_655
Co3 O5 1.909605 1_655
Co3 O4 1.913606 1_555
Co3 O6 2.029677 1_555
Co4 O3 1.926142 1_545
Co4 O2 1.926143 1_555
Co4 O4 2.029232 1_555
Co4 O6 2.029232 1_545
Co4 O11 2.084663 1_555
Co4 O5 2.194164 1_555
Bi0 O7 2.079406 1_555
Bi0 O0 2.079408 1_645
Bi0 O8 2.134604 1_655
Bi0 O9 2.241470 1_554
Bi0 O1 2.241470 1_644
Bi0 O10 2.337466 1_554
