# generated using pymatgen
data_SrMg(SbO3)2
_symmetry_space_group_name_H-M   'P 1'
_cell_length_a   5.70671253
_cell_length_b   5.71382666
_cell_length_c   5.39178118
_cell_angle_alpha   90.02993371
_cell_angle_beta   89.98500984
_cell_angle_gamma   120.04125287
_symmetry_Int_Tables_number   1
_chemical_formula_structural   SrMg(SbO3)2
_chemical_formula_sum   'Sr1 Mg1 Sb2 O6'
_cell_volume   152.19318487
_cell_formula_units_Z   1
loop_
 _symmetry_equiv_pos_site_id
 _symmetry_equiv_pos_as_xyz
  1  'x, y, z'
loop_
 _atom_site_type_symbol
 _atom_site_label
 _atom_site_symmetry_multiplicity
 _atom_site_fract_x
 _atom_site_fract_y
 _atom_site_fract_z
 _atom_site_occupancy
  Sr  Sr0  1  0.00155200  0.00077600  0.00000000  1
  Mg  Mg0  1  0.66924400  0.33462200  0.00000000  1
  Sb  Sb0  1  0.33407700  0.66703900  0.50000000  1
  Sb  Sb1  1  0.66667100  0.33333500  0.50000000  1
  O  O0  1  0.39986000  0.35367600  0.73333900  1
  O  O1  1  0.64733300  0.04683700  0.73319800  1
  O  O2  1  0.95453500  0.60087000  0.73309900  1
  O  O3  1  0.39986000  0.04618500  0.26666100  1
  O  O4  1  0.95453500  0.35366500  0.26690100  1
  O  O5  1  0.64733300  0.60049600  0.26680200  1
loop_
_geom_bond_atom_site_label_1
_geom_bond_atom_site_label_2
_geom_bond_distance
_geom_bond_site_symmetry_2
Mg0 O2 2.134733 1_554
Mg0 O4 2.134733 1_555
Mg0 O1 2.140253 1_554
Mg0 O5 2.140253 1_555
Mg0 O3 2.147376 1_555
Mg0 O0 2.147379 1_554
O0 Sb1 2.022558 1_555
O0 Sb0 2.367546 1_555
O0 Sr0 2.590757 1_556
O1 Sb1 2.023384 1_555
O1 Sb0 2.366450 1_545
O1 Sr0 2.599886 1_656
O2 Sb1 2.024785 1_555
O2 Sb0 2.364948 1_655
O2 Sr0 2.597503 1_666
O3 Sb1 2.022553 1_555
O3 Sb0 2.367546 1_545
O3 Sr0 2.590755 1_555
O4 Sb1 2.024783 1_555
O4 Sb0 2.364949 1_655
O4 Sr0 2.597503 1_655
O5 Sb1 2.023388 1_555
O5 Sb0 2.366454 1_555
O5 Sr0 2.599886 1_665
