# generated using pymatgen
data_Na14Mg4Zr4Si7S5O48
_symmetry_space_group_name_H-M   'P 1'
_cell_length_a   18.36122642
_cell_length_b   9.18968682
_cell_length_c   22.56140844
_cell_angle_alpha   90.07424893
_cell_angle_beta   89.74031677
_cell_angle_gamma   119.94469447
_symmetry_Int_Tables_number   1
_chemical_formula_structural   Na14Mg4Zr4Si7S5O48
_chemical_formula_sum   'Na42 Mg12 Zr12 Si21 S15 O144'
_cell_volume   3298.65021899
_cell_formula_units_Z   3
loop_
 _symmetry_equiv_pos_site_id
 _symmetry_equiv_pos_as_xyz
  1  'x, y, z'
loop_
 _atom_site_type_symbol
 _atom_site_label
 _atom_site_symmetry_multiplicity
 _atom_site_fract_x
 _atom_site_fract_y
 _atom_site_fract_z
 _atom_site_occupancy
  Na  Na0  1  0.80604760  0.98410786  0.25849344  1
  Na  Na1  1  0.18356360  0.35529937  0.25681098  1
  Na  Na2  1  0.69232046  0.36759016  0.25676187  1
  Na  Na3  1  0.99006513  0.64107466  0.24460406  1
  Na  Na4  1  0.50261570  0.64950774  0.25296713  1
  Na  Na5  1  0.30718913  0.62900022  0.74491304  1
  Na  Na6  1  0.00176147  0.35298369  0.74700486  1
  Na  Na7  1  0.49279566  0.34457583  0.73805172  1
  Na  Na8  1  0.19113883  0.01604564  0.75171451  1
  Na  Na9  1  0.68595090  0.01318370  0.75187132  1
  Na  Na10  1  0.14773071  0.33051685  0.58671780  1
  Na  Na11  1  0.65753300  0.33586385  0.58027119  1
  Na  Na12  1  0.33811758  0.99300179  0.57925500  1
  Na  Na13  1  0.83588564  0.98149166  0.57738841  1
  Na  Na14  1  0.15637055  0.98072825  0.08657471  1
  Na  Na15  1  0.64819735  0.96470771  0.09100390  1
  Na  Na16  1  0.33589988  0.68937342  0.08682958  1
  Na  Na17  1  0.83669577  0.68757190  0.08397441  1
  Na  Na18  1  0.48322262  0.67737404  0.92557541  1
  Na  Na19  1  0.97405005  0.66455374  0.92274691  1
  Na  Na20  1  0.35350987  0.04137684  0.91512527  1
  Na  Na21  1  0.84933691  0.03035289  0.90834729  1
  Na  Na22  1  0.16768250  0.28716438  0.91363417  1
  Na  Na23  1  0.67241110  0.29195647  0.90664075  1
  Na  Na24  1  0.47669064  0.28756912  0.42387502  1
  Na  Na25  1  0.97435955  0.27253623  0.42546221  1
  Na  Na26  1  0.17010737  0.05361601  0.40702759  1
  Na  Na27  1  0.67721913  0.04095603  0.41167617  1
  Na  Na28  1  0.35107112  0.66965204  0.40911709  1
  Na  Na29  1  0.85020584  0.67918257  0.41745152  1
  Na  Na30  1  0.99032283  0.99599471  0.49317205  1
  Na  Na31  1  0.50315541  0.00272115  0.49761002  1
  Na  Na32  1  0.99880621  0.99816203  0.00048189  1
  Na  Na33  1  0.49994193  0.00119774  0.00099201  1
  Na  Na34  1  0.32537668  0.31806034  0.82196921  1
  Na  Na35  1  0.82302940  0.33292646  0.83296573  1
  Na  Na36  1  0.32454292  0.31508489  0.33627866  1
  Na  Na37  1  0.82355274  0.31524664  0.33092314  1
  Na  Na38  1  0.16921635  0.67813266  0.17076383  1
  Na  Na39  1  0.66288717  0.66544862  0.17873153  1
  Na  Na40  1  0.16111212  0.65683160  0.67442497  1
  Na  Na41  1  0.66839176  0.65939091  0.66274107  1
  Mg  Mg0  1  0.99830009  0.99772898  0.35134277  1
  Mg  Mg1  1  0.49838171  0.99276404  0.34684938  1
  Mg  Mg2  1  0.99687964  0.00090141  0.84555171  1
  Mg  Mg3  1  0.50510848  0.00811937  0.84669680  1
  Mg  Mg4  1  0.33569790  0.32598580  0.68588727  1
  Mg  Mg5  1  0.83554879  0.34169406  0.18756816  1
  Mg  Mg6  1  0.33555423  0.33453897  0.99641582  1
  Mg  Mg7  1  0.83196904  0.33970240  0.98004279  1
  Mg  Mg8  1  0.33354797  0.32704360  0.47990940  1
  Mg  Mg9  1  0.83295900  0.32185357  0.48895527  1
  Mg  Mg10  1  0.67400954  0.68770438  0.31366078  1
  Mg  Mg11  1  0.16870571  0.66297598  0.81117934  1
  Zr  Zr0  1  0.99399041  0.00073887  0.64878160  1
  Zr  Zr1  1  0.50074749  0.01492720  0.64897607  1
  Zr  Zr2  1  0.00031318  0.98809323  0.14972176  1
  Zr  Zr3  1  0.49426318  0.98824253  0.15022578  1
  Zr  Zr4  1  0.83093145  0.33349391  0.68115375  1
  Zr  Zr5  1  0.33014206  0.32638052  0.18216661  1
  Zr  Zr6  1  0.16363381  0.66318440  0.02587124  1
  Zr  Zr7  1  0.66572528  0.67255324  0.01662844  1
  Zr  Zr8  1  0.16548044  0.65981700  0.51642037  1
  Zr  Zr9  1  0.67097661  0.67547674  0.52241397  1
  Zr  Zr10  1  0.17832211  0.68159451  0.31457282  1
  Zr  Zr11  1  0.67868194  0.67633772  0.81325927  1
  Si  Si0  1  0.14733739  0.99816124  0.25417841  1
  Si  Si1  1  0.64997251  0.00377804  0.25132792  1
  Si  Si2  1  0.35153798  0.69607469  0.25294396  1
  Si  Si3  1  0.84912958  0.69883698  0.25367180  1
  Si  Si4  1  0.15011813  0.29462263  0.75300901  1
  Si  Si5  1  0.64946524  0.30011303  0.75382640  1
  Si  Si6  1  0.34968990  0.99667232  0.75568874  1
  Si  Si7  1  0.85243557  0.00899743  0.75356717  1
  Si  Si8  1  0.47707473  0.33717519  0.58277039  1
  Si  Si9  1  0.98514226  0.34238829  0.58377444  1
  Si  Si10  1  0.68201453  0.03706823  0.58118513  1
  Si  Si11  1  0.83878134  0.62903450  0.57596164  1
  Si  Si12  1  0.48403536  0.62933756  0.08207227  1
  Si  Si13  1  0.97384992  0.61709248  0.08292118  1
  Si  Si14  1  0.33915094  0.04452756  0.07582715  1
  Si  Si15  1  0.18293380  0.32561328  0.07938747  1
  Si  Si16  1  0.82115006  0.67069755  0.91947837  1
  Si  Si17  1  0.66369546  0.96796824  0.91563506  1
  Si  Si18  1  0.32136977  0.97219635  0.41993124  1
  Si  Si19  1  0.81635642  0.97247108  0.41361170  1
  Si  Si20  1  0.16673314  0.36332982  0.41581709  1
  S  S0  1  0.99898982  0.29126173  0.25163668  1
  S  S1  1  0.50000202  0.29280381  0.25338700  1
  S  S2  1  0.00109970  0.70757255  0.75408463  1
  S  S3  1  0.49819968  0.70641751  0.75308154  1
  S  S4  1  0.18804913  0.04188545  0.58366843  1
  S  S5  1  0.33285018  0.62303348  0.58299857  1
  S  S6  1  0.83317097  0.04417334  0.08159014  1
  S  S7  1  0.68769725  0.33455059  0.08255326  1
  S  S8  1  0.31236504  0.66272065  0.91459167  1
  S  S9  1  0.02282553  0.37727263  0.91503057  1
  S  S10  1  0.51728854  0.37312596  0.91537177  1
  S  S11  1  0.16709003  0.95768167  0.91421777  1
  S  S12  1  0.66477967  0.37258988  0.41355158  1
  S  S13  1  0.01907140  0.66438942  0.41497117  1
  S  S14  1  0.52121333  0.66702585  0.41506183  1
  O  O0  1  0.10635019  0.03510187  0.31142725  1
  O  O1  1  0.60721781  0.04171350  0.30871373  1
  O  O2  1  0.40715531  0.78426532  0.31088914  1
  O  O3  1  0.91121498  0.79374295  0.30894917  1
  O  O4  1  0.48801158  0.19333795  0.30708435  1
  O  O5  1  0.99011760  0.19501919  0.30572005  1
  O  O6  1  0.10944914  0.17512109  0.81180607  1
  O  O7  1  0.61063904  0.18525154  0.81248190  1
  O  O8  1  0.48821206  0.78351994  0.80798187  1
  O  O9  1  0.99015142  0.78412373  0.80835827  1
  O  O10  1  0.40817334  0.02163798  0.81346039  1
  O  O11  1  0.90665170  0.03081637  0.81236147  1
  O  O12  1  0.39575575  0.96432796  0.69637768  1
  O  O13  1  0.89704072  0.98431010  0.69390382  1
  O  O14  1  0.08993146  0.19301695  0.69459081  1
  O  O15  1  0.58968169  0.20570676  0.69526999  1
  O  O16  1  0.01198094  0.81375314  0.70113734  1
  O  O17  1  0.51268271  0.81603911  0.70130834  1
  O  O18  1  0.39498550  0.80814571  0.19223520  1
  O  O19  1  0.89510804  0.82167090  0.19281736  1
  O  O20  1  0.01388573  0.21071205  0.19890765  1
  O  O21  1  0.50969411  0.20723886  0.19993250  1
  O  O22  1  0.09065900  0.97432258  0.19335138  1
  O  O23  1  0.59083092  0.98738552  0.19169703  1
  O  O24  1  0.43768425  0.35834662  0.64418241  1
  O  O25  1  0.94070809  0.35828388  0.64464134  1
  O  O26  1  0.23888736  0.12010549  0.63707075  1
  O  O27  1  0.74198093  0.12424256  0.64047550  1
  O  O28  1  0.32120730  0.52345020  0.63685623  1
  O  O29  1  0.82186970  0.50705783  0.63381733  1
  O  O30  1  0.43603981  0.51782073  0.14068833  1
  O  O31  1  0.93575930  0.51465864  0.14329666  1
  O  O32  1  0.31838624  0.13190305  0.13171898  1
  O  O33  1  0.82152952  0.12076441  0.13500356  1
  O  O34  1  0.24362847  0.35992996  0.13765974  1
  O  O35  1  0.73848784  0.35720652  0.13556615  1
  O  O36  1  0.22347417  0.29422025  0.02005076  1
  O  O37  1  0.72492727  0.30634729  0.02860397  1
  O  O38  1  0.42849903  0.55433609  0.02225189  1
  O  O39  1  0.92023342  0.53903972  0.02319097  1
  O  O40  1  0.34839905  0.14045948  0.01409330  1
  O  O41  1  0.83949673  0.13659579  0.02690073  1
  O  O42  1  0.22572147  0.14481317  0.53012180  1
  O  O43  1  0.72090238  0.15399596  0.52321329  1
  O  O44  1  0.33913452  0.54166846  0.52876670  1
  O  O45  1  0.84690148  0.54535395  0.51552599  1
  O  O46  1  0.41900568  0.29975596  0.52466254  1
  O  O47  1  0.92869497  0.30590523  0.52522261  1
  O  O48  1  0.27069374  0.68179890  0.96916721  1
  O  O49  1  0.77114056  0.69103370  0.97833894  1
  O  O50  1  0.07700854  0.46929868  0.96689938  1
  O  O51  1  0.57183762  0.46200583  0.96811506  1
  O  O52  1  0.16079253  0.85906584  0.96887229  1
  O  O53  1  0.65095423  0.84224561  0.97340871  1
  O  O54  1  0.27149499  0.85236346  0.47894395  1
  O  O55  1  0.76667114  0.85005744  0.47271656  1
  O  O56  1  0.15420402  0.46355180  0.47404269  1
  O  O57  1  0.65495208  0.45435585  0.46835671  1
  O  O58  1  0.07408863  0.68335028  0.46752391  1
  O  O59  1  0.57436860  0.68212718  0.46691501  1
  O  O60  1  0.06140927  0.64449254  0.36123434  1
  O  O61  1  0.55735412  0.63861570  0.36052034  1
  O  O62  1  0.25656922  0.86758308  0.36451178  1
  O  O63  1  0.75578379  0.88477269  0.35669630  1
  O  O64  1  0.17654986  0.48494479  0.35855216  1
  O  O65  1  0.66943292  0.47293857  0.36096640  1
  O  O66  1  0.06116856  0.47923154  0.86117015  1
  O  O67  1  0.55950443  0.47408533  0.86167826  1
  O  O68  1  0.17336303  0.86761429  0.86182957  1
  O  O69  1  0.67347537  0.86558575  0.85869689  1
  O  O70  1  0.26009338  0.64433149  0.86251351  1
  O  O71  1  0.75644162  0.64623257  0.86416318  1
  O  O72  1  0.01522328  0.82023557  0.41343374  1
  O  O73  1  0.51694925  0.82484180  0.41323231  1
  O  O74  1  0.41262675  0.98286325  0.41500333  1
  O  O75  1  0.90761940  0.97997517  0.41307397  1
  O  O76  1  0.08296542  0.18021468  0.41505070  1
  O  O77  1  0.58854345  0.20109721  0.41264047  1
  O  O78  1  0.01863693  0.21133989  0.91369660  1
  O  O79  1  0.50975240  0.20548011  0.91440999  1
  O  O80  1  0.08971529  0.97202394  0.91401166  1
  O  O81  1  0.57756812  0.97945938  0.91485752  1
  O  O82  1  0.39723025  0.81589034  0.91211507  1
  O  O83  1  0.91274751  0.84227770  0.91484362  1
  O  O84  1  0.48538505  0.15891528  0.58785628  1
  O  O85  1  0.99907605  0.17498792  0.58919527  1
  O  O86  1  0.10200304  0.01862237  0.58968013  1
  O  O87  1  0.58794008  0.01137302  0.59174194  1
  O  O88  1  0.40686924  0.79676899  0.58674556  1
  O  O89  1  0.91750892  0.82105666  0.58675638  1
  O  O90  1  0.49774615  0.82333323  0.08786133  1
  O  O91  1  0.98591160  0.81292519  0.08717393  1
  O  O92  1  0.41745932  0.01051194  0.08593612  1
  O  O93  1  0.90713482  0.01740070  0.08507446  1
  O  O94  1  0.08953906  0.16294614  0.08899330  1
  O  O95  1  0.60113662  0.18493119  0.08800628  1
  O  O96  1  0.34286930  0.16760965  0.74778537  1
  O  O97  1  0.84424534  0.17878606  0.74826115  1
  O  O98  1  0.24612784  0.32806280  0.74282818  1
  O  O99  1  0.74311133  0.32265329  0.74501166  1
  O  O100  1  0.42131794  0.53955969  0.74633614  1
  O  O101  1  0.92691251  0.53617088  0.74776890  1
  O  O102  1  0.34380274  0.51009544  0.24672130  1
  O  O103  1  0.84158249  0.51340716  0.24672564  1
  O  O104  1  0.42559936  0.31626683  0.24628986  1
  O  O105  1  0.92222808  0.30370080  0.24438905  1
  O  O106  1  0.24134371  0.16359701  0.24475210  1
  O  O107  1  0.74558479  0.16142138  0.24155910  1
  O  O108  1  0.32115767  0.51020380  0.91815354  1
  O  O109  1  0.82553965  0.49810517  0.91893936  1
  O  O110  1  0.43438315  0.36225504  0.91987954  1
  O  O111  1  0.93727330  0.35350308  0.92231677  1
  O  O112  1  0.24347064  0.12746320  0.91558401  1
  O  O113  1  0.75105836  0.14677286  0.92172271  1
  O  O114  1  0.32552371  0.15301955  0.41940673  1
  O  O115  1  0.82701747  0.16141212  0.42028672  1
  O  O116  1  0.25500429  0.36238099  0.42162018  1
  O  O117  1  0.74219953  0.36055660  0.41572481  1
  O  O118  1  0.43483737  0.52068132  0.42259049  1
  O  O119  1  0.93635803  0.51410074  0.41948968  1
  O  O120  1  0.17947359  0.50221337  0.07615861  1
  O  O121  1  0.68055223  0.48936660  0.07694019  1
  O  O122  1  0.07461982  0.66449037  0.07596545  1
  O  O123  1  0.58062157  0.65637020  0.08085610  1
  O  O124  1  0.25281571  0.85166195  0.07452677  1
  O  O125  1  0.75522631  0.86816619  0.07872363  1
  O  O126  1  0.18142565  0.87289726  0.57821890  1
  O  O127  1  0.67795695  0.85404789  0.57897189  1
  O  O128  1  0.25517993  0.64343329  0.58024251  1
  O  O129  1  0.75189887  0.64669864  0.57674669  1
  O  O130  1  0.08242912  0.50722305  0.58235871  1
  O  O131  1  0.57612222  0.48634065  0.57482671  1
  O  O132  1  0.14686124  0.81800098  0.25568695  1
  O  O133  1  0.64810207  0.82299415  0.25196596  1
  O  O134  1  0.25440370  0.66473877  0.25177379  1
  O  O135  1  0.75449737  0.67567831  0.25393548  1
  O  O136  1  0.07425352  0.46438512  0.25449811  1
  O  O137  1  0.57675006  0.46076763  0.25618740  1
  O  O138  1  0.15124675  0.47563069  0.75506030  1
  O  O139  1  0.64709966  0.47737346  0.75549651  1
  O  O140  1  0.07802291  0.69267776  0.75716736  1
  O  O141  1  0.57314110  0.68297587  0.75661473  1
  O  O142  1  0.25450142  0.83122951  0.75603760  1
  O  O143  1  0.75522013  0.84589806  0.75242134  1
loop_
_geom_bond_atom_site_label_1
_geom_bond_atom_site_label_2
_geom_bond_distance
_geom_bond_site_symmetry_2
Na0 O63 2.395738 1_555
Na0 O107 2.417641 1_565
Na0 O135 2.502390 1_555
Na0 O133 2.518120 1_555
Na0 O105 2.649373 1_565
Na1 O134 2.469419 1_555
Na1 O106 2.482962 1_555
Na1 O102 2.558963 1_555
Na1 O64 2.616945 1_555
Na1 O136 2.654375 1_555
Na1 O0 2.831177 1_555
Na1 O34 2.893305 1_555
Na2 O103 2.384701 1_555
Na2 O135 2.469059 1_555
Na2 O107 2.551246 1_555
Na2 O65 2.651862 1_555
Na2 O137 2.655292 1_555
Na2 O1 2.846858 1_555
Na2 O35 2.874613 1_555
Na3 O103 2.370086 1_555
Na3 O132 2.515337 1_655
Na3 O31 2.534823 1_555
Na3 O105 2.703416 1_555
Na3 O136 2.754202 1_655
Na3 O3 2.859261 1_555
Na3 O22 2.910333 1_655
Na3 O60 2.937843 1_655
Na4 O133 2.329374 1_555
Na4 O102 2.537308 1_555
Na4 O61 2.651697 1_555
Na4 O104 2.660452 1_555
Na4 O137 2.687884 1_555
Na4 O30 2.814073 1_555
Na4 O2 2.907839 1_555
Na5 O98 2.410820 1_555
Na5 O138 2.490660 1_555
Na5 O142 2.498812 1_555
Na5 O100 2.605398 1_555
Na5 O28 2.681035 1_555
Na5 O70 2.811960 1_555
Na5 O12 2.886063 1_555
Na6 O138 2.398442 1_555
Na6 O97 2.511062 1_455
Na6 O25 2.582817 1_455
Na6 O101 2.651869 1_455
Na6 O140 2.719448 1_555
Na6 O66 2.815057 1_555
Na6 O14 2.921355 1_555
Na6 O11 2.969105 1_455
Na7 O24 2.381832 1_555
Na7 O96 2.407726 1_555
Na7 O139 2.495670 1_555
Na7 O100 2.704199 1_555
Na7 O141 2.728505 1_555
Na7 O15 2.823572 1_555
Na8 O96 2.415284 1_555
Na8 O142 2.494337 1_545
Na8 O98 2.527984 1_555
Na8 O140 2.645097 1_545
Na8 O26 2.742642 1_555
Na8 O68 2.774185 1_545
Na8 O6 2.896597 1_555
Na9 O143 2.435831 1_545
Na9 O99 2.496650 1_555
Na9 O97 2.520443 1_555
Na9 O141 2.689603 1_545
Na9 O27 2.711349 1_555
Na9 O69 2.719242 1_545
Na9 O7 2.905626 1_555
Na9 O17 2.996404 1_545
Na10 O85 2.366472 1_455
Na10 O130 2.455517 1_555
Na10 O128 2.552932 1_555
Na10 O86 2.553838 1_555
Na10 O14 2.700361 1_555
Na10 O56 2.798450 1_555
Na11 O129 2.495237 1_555
Na11 O131 2.495489 1_555
Na11 O87 2.605168 1_555
Na11 O84 2.743903 1_555
Na11 O57 2.760987 1_555
Na11 O43 2.779655 1_555
Na11 O15 2.864518 1_555
Na11 O29 2.885879 1_555
Na12 O84 2.358415 1_565
Na12 O126 2.515270 1_555
Na12 O54 2.593802 1_555
Na12 O88 2.673844 1_555
Na12 O46 2.735353 1_565
Na12 O128 2.784827 1_555
Na12 O12 2.911625 1_555
Na12 O26 2.912825 1_565
Na13 O127 2.527901 1_555
Na13 O89 2.583423 1_555
Na13 O85 2.626398 1_565
Na13 O129 2.665998 1_555
Na13 O55 2.671749 1_555
Na13 O47 2.845361 1_565
Na13 O13 2.858219 1_555
Na13 O27 2.991770 1_565
Na14 O94 2.522568 1_565
Na14 O122 2.530321 1_555
Na14 O124 2.590027 1_555
Na14 O22 2.676895 1_555
Na14 O91 2.712075 1_455
Na14 O32 2.777558 1_565
Na14 O52 2.896452 1_554
Na14 O36 2.919087 1_565
Na15 O90 2.396398 1_555
Na15 O123 2.472208 1_555
Na15 O125 2.541811 1_555
Na15 O23 2.551493 1_555
Na15 O95 2.567807 1_565
Na15 O53 2.890672 1_554
Na15 O33 2.939285 1_565
Na16 O120 2.517746 1_555
Na16 O92 2.557377 1_565
Na16 O90 2.587541 1_555
Na16 O18 2.618811 1_555
Na16 O124 2.627688 1_555
Na16 O34 2.867389 1_555
Na16 O48 2.903528 1_554
Na16 O38 2.938152 1_555
Na17 O91 2.385242 1_555
Na17 O121 2.520419 1_555
Na17 O93 2.635707 1_565
Na17 O49 2.682223 1_554
Na17 O19 2.719503 1_555
Na17 O125 2.736149 1_555
Na17 O39 2.857044 1_555
Na17 O35 2.889337 1_555
Na18 O38 2.428543 1_556
Na18 O81 2.441904 1_555
Na18 O82 2.493470 1_555
Na18 O110 2.571802 1_555
Na18 O108 2.585153 1_555
Na18 O8 2.813182 1_555
Na18 O53 2.883164 1_555
Na19 O109 2.370753 1_555
Na19 O83 2.409154 1_555
Na19 O39 2.508174 1_556
Na19 O80 2.557310 1_655
Na19 O111 2.588408 1_555
Na19 O9 2.762477 1_555
Na20 O40 2.429337 1_556
Na20 O79 2.486985 1_555
Na20 O112 2.510719 1_555
Na20 O10 2.541885 1_555
Na20 O110 2.557537 1_555
Na20 O82 2.569560 1_545
Na21 O11 2.402521 1_555
Na21 O83 2.524960 1_545
Na21 O113 2.532494 1_555
Na21 O111 2.596247 1_555
Na21 O78 2.699129 1_655
Na21 O41 2.881846 1_556
Na22 O78 2.463957 1_555
Na22 O112 2.476250 1_555
Na22 O80 2.509487 1_545
Na22 O108 2.527525 1_555
Na22 O6 2.529517 1_555
Na22 O36 2.602604 1_556
Na23 O7 2.380542 1_555
Na23 O113 2.431095 1_555
Na23 O109 2.501860 1_555
Na23 O81 2.513914 1_545
Na23 O79 2.684822 1_555
Na23 O37 2.900816 1_556
Na23 O71 2.979658 1_555
Na24 O114 2.412266 1_555
Na24 O74 2.444784 1_545
Na24 O46 2.530013 1_555
Na24 O77 2.556886 1_555
Na24 O118 2.612356 1_555
Na24 O4 2.811572 1_555
Na25 O75 2.349492 1_545
Na25 O115 2.370657 1_555
Na25 O47 2.469948 1_555
Na25 O76 2.536888 1_655
Na25 O119 2.642152 1_555
Na25 O5 2.843105 1_555
Na26 O76 2.408646 1_555
Na26 O0 2.423760 1_555
Na26 O116 2.485156 1_555
Na26 O114 2.541625 1_555
Na26 O72 2.572200 1_545
Na26 O42 2.936517 1_555
Na26 O62 3.009074 1_545
Na27 O115 2.406856 1_555
Na27 O117 2.561239 1_555
Na27 O73 2.601913 1_545
Na27 O1 2.661641 1_555
Na27 O77 2.684949 1_555
Na27 O43 2.689720 1_555
Na27 O63 2.779523 1_545
Na28 O2 2.446164 1_555
Na28 O116 2.487862 1_555
Na28 O74 2.516424 1_555
Na28 O118 2.537623 1_555
Na28 O73 2.642876 1_555
Na28 O44 2.909286 1_555
Na28 O64 3.008154 1_555
Na29 O75 2.419189 1_555
Na29 O45 2.518645 1_555
Na29 O117 2.590617 1_555
Na29 O72 2.635482 1_655
Na29 O3 2.675855 1_555
Na29 O119 2.683733 1_555
Na29 O55 2.958895 1_555
Na30 O75 2.322571 1_555
Na30 O76 2.443698 1_665
Na30 O89 2.582126 1_555
Na30 O72 2.603168 1_655
Na30 O85 2.674858 1_565
Na30 O86 2.933026 1_665
Na31 O74 2.448286 1_545
Na31 O77 2.566106 1_555
Na31 O73 2.600217 1_545
Na31 O84 2.601223 1_555
Na31 O87 2.616499 1_555
Na31 O88 2.718281 1_545
Na32 O83 2.458203 1_554
Na32 O91 2.526138 1_555
Na32 O94 2.561271 1_665
Na32 O93 2.602689 1_565
Na32 O80 2.649424 1_654
Na32 O78 2.663742 1_664
Na33 O92 2.465051 1_555
Na33 O81 2.471040 1_544
Na33 O90 2.540917 1_545
Na33 O79 2.653528 1_554
Na33 O95 2.655136 1_555
Na33 O82 2.701226 1_544
Na34 O96 2.290945 1_555
Na34 O98 2.339106 1_555
Na34 O100 2.561307 1_555
Na34 O112 2.672364 1_555
Na34 O108 2.821005 1_555
Na34 O110 2.876945 1_555
Na35 O99 2.446933 1_555
Na35 O109 2.447853 1_555
Na35 O97 2.519419 1_555
Na35 O113 2.531944 1_555
Na35 O101 2.690891 1_555
Na35 O111 2.853257 1_555
Na36 O114 2.402124 1_555
Na36 O116 2.460893 1_555
Na36 O106 2.536499 1_555
Na36 O102 2.605655 1_555
Na36 O104 2.740597 1_555
Na36 O118 2.769354 1_555
Na37 O107 2.472076 1_555
Na37 O115 2.483110 1_555
Na37 O103 2.536871 1_555
Na37 O117 2.580333 1_555
Na37 O105 2.695327 1_555
Na37 O119 2.805635 1_555
Na38 O132 2.450468 1_555
Na38 O134 2.453748 1_555
Na38 O136 2.651052 1_555
Na38 O124 2.673674 1_555
Na38 O122 2.724437 1_555
Na38 O120 2.737911 1_555
Na39 O133 2.298243 1_555
Na39 O135 2.363181 1_555
Na39 O137 2.471184 1_555
Na39 O123 2.658701 1_555
Na39 O125 2.873849 1_555
Na39 O121 2.916390 1_555
Na40 O138 2.412267 1_555
Na40 O142 2.485287 1_555
Na40 O130 2.515712 1_555
Na40 O140 2.528879 1_555
Na40 O128 2.773427 1_555
Na40 O126 2.838552 1_555
Na41 O129 2.505949 1_555
Na41 O127 2.548490 1_555
Na41 O131 2.581853 1_555
Na41 O139 2.584355 1_555
Na41 O143 2.620197 1_555
Na41 O141 2.816903 1_555
Mg0 O3 2.000600 1_555
Mg0 O0 2.041888 1_665
Mg0 O75 2.108786 1_555
Mg0 O5 2.155766 1_565
Mg0 O76 2.169396 1_665
Mg0 O72 2.288085 1_655
Mg1 O2 1.984790 1_555
Mg1 O1 2.006011 1_565
Mg1 O4 2.143544 1_565
Mg1 O74 2.165016 1_555
Mg1 O73 2.297056 1_555
Mg1 O77 2.336668 1_565
Mg2 O11 1.961480 1_555
Mg2 O6 2.024923 1_655
Mg2 O9 2.106861 1_545
Mg2 O83 2.165907 1_545
Mg2 O78 2.343022 1_655
Mg2 O80 2.416231 1_645
Mg3 O7 1.959848 1_555
Mg3 O10 1.994659 1_555
Mg3 O8 2.116081 1_545
Mg3 O81 2.138624 1_545
Mg3 O79 2.338848 1_555
Mg3 O82 2.389449 1_545
Mg4 O24 1.977165 1_555
Mg4 O96 2.069807 1_555
Mg4 O98 2.089885 1_555
Mg4 O26 2.146433 1_555
Mg4 O28 2.253279 1_555
Mg4 O100 2.261792 1_555
Mg5 O31 1.994341 1_555
Mg5 O103 2.026090 1_555
Mg5 O107 2.052297 1_555
Mg5 O35 2.201344 1_555
Mg5 O105 2.207424 1_555
Mg5 O33 2.251554 1_555
Mg6 O40 1.954047 1_556
Mg6 O36 1.971303 1_556
Mg6 O38 1.974010 1_556
Mg6 O110 2.418835 1_555
Mg6 O108 2.496238 1_555
Mg6 O112 2.571504 1_555
Mg7 O39 1.993914 1_556
Mg7 O109 2.052226 1_555
Mg7 O113 2.112789 1_555
Mg7 O37 2.130046 1_556
Mg7 O41 2.210089 1_556
Mg7 O111 2.276742 1_555
Mg8 O46 1.988040 1_555
Mg8 O114 2.050235 1_555
Mg8 O116 2.097754 1_555
Mg8 O42 2.163826 1_555
Mg8 O44 2.215645 1_555
Mg8 O118 2.231134 1_555
Mg9 O43 2.007571 1_555
Mg9 O47 2.012837 1_555
Mg9 O45 2.028961 1_555
Mg9 O115 2.102620 1_555
Mg9 O119 2.411133 1_555
Mg9 O117 2.500295 1_555
Mg10 O63 1.941881 1_555
Mg10 O135 2.038776 1_555
Mg10 O133 2.076142 1_555
Mg10 O65 2.209173 1_555
Mg10 O61 2.219274 1_555
Mg10 O137 2.348542 1_555
Mg11 O142 1.993894 1_555
Mg11 O138 2.029025 1_555
Mg11 O70 2.119320 1_555
Mg11 O66 2.162925 1_555
Mg11 O68 2.164360 1_555
Mg11 O140 2.191987 1_555
O0 Si0 1.610895 1_545
O1 Si1 1.636122 1_555
O2 Si2 1.609933 1_555
O3 Si3 1.622660 1_555
O4 S1 1.466707 1_555
O5 S0 1.467926 1_555
O6 Si4 1.643001 1_555
O7 Si5 1.617863 1_555
O8 S3 1.481640 1_555
O9 S2 1.473563 1_655
O10 Si6 1.634191 1_545
O11 Si7 1.613301 1_555
O12 Si6 1.683475 1_555
O12 Zr1 2.040578 1_565
O13 Si7 1.645876 1_565
O13 Zr0 1.985859 1_565
O14 Si4 1.676331 1_555
O14 Zr0 2.048869 1_455
O15 Si5 1.662047 1_555
O15 Zr1 1.995929 1_555
O16 S2 1.491729 1_555
O16 Zr0 2.243335 1_465
O17 S3 1.477410 1_555
O17 Zr1 2.278248 1_565
O18 Si2 1.657296 1_555
O18 Zr3 1.984142 1_555
O19 Si3 1.707067 1_555
O19 Zr2 2.013274 1_655
O20 S0 1.494950 1_455
O20 Zr2 2.228559 1_545
O21 S1 1.496567 1_555
O21 Zr3 2.194516 1_545
O22 Si0 1.672994 1_555
O22 Zr2 1.990343 1_555
O23 Si1 1.691535 1_565
O23 Zr3 2.012062 1_555
O24 Si8 1.615976 1_555
O25 Si9 1.637399 1_555
O25 Zr4 2.078532 1_555
O26 S4 1.475717 1_555
O27 Si10 1.665369 1_555
O27 Zr4 2.020180 1_555
O28 S5 1.471353 1_555
O29 Si11 1.646012 1_555
O29 Zr4 1.995806 1_555
O30 Si12 1.633121 1_555
O30 Zr5 2.079487 1_555
O31 Si13 1.602546 1_555
O32 Si14 1.636722 1_555
O32 Zr5 2.036638 1_555
O33 S6 1.462524 1_555
O34 Si15 1.652634 1_555
O34 Zr5 2.032450 1_555
O35 S7 1.469422 1_555
O36 Si15 1.622910 1_555
O37 S7 1.478003 1_555
O38 Si12 1.626281 1_555
O39 Si13 1.613767 1_555
O40 Si14 1.611681 1_555
O41 S6 1.469771 1_555
O42 S4 1.474729 1_555
O43 Si10 1.613796 1_555
O44 S5 1.466952 1_555
O45 Si11 1.607065 1_555
O46 Si8 1.618410 1_555
O47 Si9 1.611225 1_555
O48 S8 1.502364 1_555
O48 Zr6 2.274242 1_556
O49 Si16 1.673686 1_555
O49 Zr7 2.044146 1_556
O50 S9 1.497479 1_555
O50 Zr6 2.158353 1_556
O51 S10 1.509269 1_555
O51 Zr7 2.143641 1_556
O52 S11 1.500713 1_555
O52 Zr6 2.235428 1_556
O53 Si17 1.679245 1_555
O53 Zr7 1.970972 1_556
O54 Si18 1.676289 1_555
O54 Zr8 2.045804 1_555
O55 Si19 1.686493 1_555
O55 Zr9 2.022615 1_555
O56 Si20 1.683006 1_555
O56 Zr8 1.958198 1_555
O57 S12 1.502326 1_555
O57 Zr9 2.259007 1_555
O58 S13 1.513680 1_555
O58 Zr8 2.111720 1_555
O59 S14 1.488341 1_555
O59 Zr9 2.201511 1_555
O60 S13 1.496794 1_555
O60 Zr10 2.254428 1_555
O61 S14 1.479003 1_555
O62 Si18 1.664834 1_555
O62 Zr10 1.952706 1_555
O63 Si19 1.628124 1_555
O64 Si20 1.658691 1_555
O64 Zr10 2.048665 1_555
O65 S12 1.479357 1_555
O66 S9 1.478798 1_555
O67 S10 1.485112 1_555
O67 Zr11 2.315066 1_555
O68 S11 1.478767 1_555
O69 Si17 1.652612 1_555
O69 Zr11 2.060362 1_555
O70 S8 1.475815 1_555
O71 Si16 1.663041 1_555
O71 Zr11 1.960623 1_555
O72 S13 1.469184 1_555
O73 S14 1.491538 1_555
O74 Si18 1.632157 1_555
O75 Si19 1.642355 1_555
O76 Si20 1.616775 1_555
O77 S12 1.497112 1_555
O78 S9 1.488245 1_555
O79 S10 1.476558 1_555
O80 S11 1.490894 1_555
O81 Si17 1.636847 1_555
O82 S8 1.490716 1_555
O83 Si16 1.636190 1_555
O84 Si8 1.723422 1_555
O84 Zr1 2.028006 1_555
O85 Si9 1.685421 1_555
O85 Zr0 2.057987 1_555
O86 S4 1.490357 1_555
O86 Zr0 2.321522 1_455
O87 Si10 1.638705 1_555
O87 Zr1 2.065167 1_555
O88 S5 1.495909 1_555
O88 Zr1 2.350828 1_565
O89 Si11 1.648727 1_555
O89 Zr0 2.086560 1_565
O90 Si12 1.676397 1_555
O90 Zr3 2.090662 1_555
O91 Si13 1.702590 1_555
O91 Zr2 2.055510 1_655
O92 Si14 1.633699 1_555
O92 Zr3 2.107572 1_545
O93 S6 1.498548 1_555
O93 Zr2 2.368666 1_645
O94 Si15 1.631124 1_555
O94 Zr2 2.121430 1_545
O95 S7 1.499574 1_555
O95 Zr3 2.351376 1_545
O96 Si6 1.646939 1_545
O97 Si7 1.645112 1_555
O97 Zr4 2.174685 1_555
O98 Si4 1.646372 1_555
O99 Si5 1.637201 1_555
O99 Zr4 2.122419 1_555
O100 S3 1.485770 1_555
O101 S2 1.488627 1_655
O101 Zr4 2.360825 1_555
O102 Si2 1.648666 1_555
O102 Zr5 2.146770 1_555
O103 Si3 1.646598 1_555
O104 S1 1.494846 1_555
O104 Zr5 2.315076 1_555
O105 S0 1.479631 1_555
O106 Si0 1.647307 1_545
O106 Zr5 2.107037 1_555
O107 Si1 1.639384 1_555
O108 S8 1.491061 1_555
O109 Si16 1.627828 1_555
O110 S10 1.477957 1_555
O111 S9 1.482392 1_655
O112 S11 1.489269 1_545
O113 Si17 1.631559 1_545
O114 Si18 1.625037 1_545
O115 Si19 1.654099 1_545
O116 Si20 1.630993 1_555
O117 S12 1.480858 1_555
O118 S14 1.490506 1_555
O119 S13 1.459216 1_655
O120 Si15 1.657236 1_555
O120 Zr6 1.999225 1_555
O121 S7 1.498101 1_555
O121 Zr7 2.286137 1_555
O122 Si13 1.682492 1_455
O122 Zr6 1.987856 1_555
O123 Si12 1.663524 1_555
O123 Zr7 2.076461 1_555
O124 Si14 1.688336 1_565
O124 Zr6 2.016505 1_555
O125 S6 1.535629 1_565
O125 Zr7 2.227078 1_555
O126 S4 1.500883 1_565
O126 Zr8 2.299628 1_555
O127 Si10 1.646679 1_565
O127 Zr9 2.030684 1_555
O128 S5 1.529892 1_555
O128 Zr8 2.253493 1_555
O129 Si11 1.682203 1_555
O129 Zr9 2.046929 1_555
O130 Si9 1.668754 1_455
O130 Zr8 2.086860 1_555
O131 Si8 1.651513 1_555
O131 Zr9 2.101715 1_555
O132 Si0 1.651664 1_555
O132 Zr10 2.098631 1_555
O133 Si1 1.644554 1_565
O134 Si2 1.658971 1_555
O134 Zr10 2.044603 1_555
O135 Si3 1.641704 1_555
O136 S0 1.500221 1_455
O136 Zr10 2.383551 1_555
O137 S1 1.483699 1_555
O138 Si4 1.653751 1_555
O139 Si5 1.651455 1_555
O139 Zr11 2.078439 1_555
O140 S2 1.487407 1_555
O141 S3 1.497714 1_555
O141 Zr11 2.352216 1_555
O142 Si6 1.647237 1_555
O143 Si7 1.662154 1_565
O143 Zr11 2.022101 1_555
