# generated using pymatgen
data_MgFe6(OF)6
_symmetry_space_group_name_H-M   'P 1'
_cell_length_a   5.13536318
_cell_length_b   14.58188415
_cell_length_c   3.07173100
_cell_angle_alpha   90.00000000
_cell_angle_beta   90.00000000
_cell_angle_gamma   90.14709564
_symmetry_Int_Tables_number   1
_chemical_formula_structural   MgFe6(OF)6
_chemical_formula_sum   'Mg1 Fe6 O6 F6'
_cell_volume   230.02050689
_cell_formula_units_Z   1
loop_
 _symmetry_equiv_pos_site_id
 _symmetry_equiv_pos_as_xyz
  1  'x, y, z'
loop_
 _atom_site_type_symbol
 _atom_site_label
 _atom_site_symmetry_multiplicity
 _atom_site_fract_x
 _atom_site_fract_y
 _atom_site_fract_z
 _atom_site_occupancy
  Mg  Mg0  1  0.93663600  0.83425700  0.50000000  1
  Fe  Fe0  1  0.06143200  0.02651700  0.00000000  1
  Fe  Fe1  1  0.03746100  0.33528400  0.00000000  1
  Fe  Fe2  1  0.99777300  0.64624000  0.00000000  1
  Fe  Fe3  1  0.61441300  0.17800700  0.50000000  1
  Fe  Fe4  1  0.42716500  0.49887900  0.50000000  1
  Fe  Fe5  1  0.41033600  0.82396600  0.50000000  1
  O  O0  1  0.18823100  0.59185900  0.50000000  1
  O  O1  1  0.17660800  0.94600100  0.50000000  1
  O  O2  1  0.16239500  0.78043600  0.00000000  1
  O  O3  1  0.31394600  0.42208200  0.00000000  1
  O  O4  1  0.74139300  0.24334700  0.00000000  1
  O  O5  1  0.85977600  0.07801300  0.50000000  1
  F  F0  1  0.21579900  0.26260400  0.50000000  1
  F  F1  1  0.37470700  0.11279400  0.00000000  1
  F  F2  1  0.67040300  0.55149000  0.00000000  1
  F  F3  1  0.69744000  0.88356300  0.00000000  1
  F  F4  1  0.85244100  0.39527900  0.50000000  1
  F  F5  1  0.71071600  0.72580800  0.50000000  1
loop_
_geom_bond_atom_site_label_1
_geom_bond_atom_site_label_2
_geom_bond_distance
_geom_bond_site_symmetry_2
Mg0 O1 2.040448 1_655
Mg0 O2 2.079324 1_655
Mg0 O2 2.079324 1_656
Fe0 O5 1.999790 1_455
Fe0 O5 1.999790 1_454
Fe0 O1 2.022557 1_545
Fe0 O1 2.022557 1_544
Fe1 O3 1.899656 1_555
Fe1 O4 2.024463 1_455
Fe2 O0 1.987033 1_655
Fe2 O0 1.987033 1_654
Fe2 O2 2.129644 1_655
Fe3 O4 1.920599 1_555
Fe3 O4 1.920599 1_556
Fe3 O5 1.929550 1_555
Fe4 O0 1.830945 1_555
Fe4 O3 1.986867 1_556
Fe4 O3 1.986867 1_555
Fe5 O2 2.092570 1_555
Fe5 O2 2.092570 1_556
Fe5 O1 2.149013 1_555
F0 Fe1 2.079859 1_556
F0 Fe1 2.079859 1_555
F0 Fe3 2.392701 1_555
F1 Fe0 2.039743 1_555
F1 Fe3 2.184592 1_555
F1 Fe3 2.184592 1_554
F2 Fe4 2.121980 1_554
F2 Fe4 2.121980 1_555
F2 Fe2 2.173315 1_555
F3 Mg0 2.095043 1_554
F3 Mg0 2.095043 1_555
F3 Fe5 2.298115 1_555
F3 Fe5 2.298115 1_554
F4 Fe1 2.007803 1_655
F4 Fe1 2.007803 1_656
F5 Mg0 1.958927 1_555
F5 Fe5 2.107019 1_555
F5 Fe2 2.426302 1_555
F5 Fe2 2.426302 1_556
