# generated using pymatgen
data_Ba2Mg(VS3)2
_symmetry_space_group_name_H-M   'P 1'
_cell_length_a   6.14062375
_cell_length_b   7.27930949
_cell_length_c   6.81844572
_cell_angle_alpha   118.38139696
_cell_angle_beta   89.63530610
_cell_angle_gamma   103.09294229
_symmetry_Int_Tables_number   1
_chemical_formula_structural   Ba2Mg(VS3)2
_chemical_formula_sum   'Ba2 Mg1 V2 S6'
_cell_volume   259.34474442
_cell_formula_units_Z   1
loop_
 _symmetry_equiv_pos_site_id
 _symmetry_equiv_pos_as_xyz
  1  'x, y, z'
loop_
 _atom_site_type_symbol
 _atom_site_label
 _atom_site_symmetry_multiplicity
 _atom_site_fract_x
 _atom_site_fract_y
 _atom_site_fract_z
 _atom_site_occupancy
  Ba  Ba0  1  0.68888756  0.41859928  0.70786937  1
  Ba  Ba1  1  0.31321094  0.58076669  0.29162068  1
  Mg  Mg0  1  0.99995345  0.99850277  0.50040584  1
  V  V0  1  0.49956271  0.99990906  0.00111543  1
  V  V1  1  0.00051525  0.00021286  0.00090022  1
  S  S0  1  0.71497120  0.84947650  0.17150853  1
  S  S1  1  0.18212021  0.69176187  0.84755315  1
  S  S2  1  0.28562898  0.15011636  0.82947569  1
  S  S3  1  0.28242876  0.15468840  0.32337750  1
  S  S4  1  0.81614011  0.30948203  0.15618121  1
  S  S5  1  0.71658083  0.84648418  0.67925139  1
loop_
_geom_bond_atom_site_label_1
_geom_bond_atom_site_label_2
_geom_bond_distance
_geom_bond_site_symmetry_2
Ba0 S1 3.089026 1_655
Ba0 S3 3.148979 1_555
Ba0 S2 3.156068 1_555
Ba0 S5 3.178961 1_555
Ba0 S0 3.195237 1_556
Ba0 S4 3.576988 1_555
Ba0 S4 3.633914 1_556
Ba0 Mg0 3.674331 1_545
Ba1 S4 3.104913 1_455
Ba1 S0 3.145477 1_555
Ba1 S5 3.148774 1_555
Ba1 S3 3.174050 1_555
Ba1 S2 3.187575 1_554
Ba1 S1 3.607440 1_555
Ba1 S1 3.622171 1_554
Mg0 S5 2.474460 1_555
Mg0 S3 2.478477 1_665
Mg0 S0 2.478996 1_555
Mg0 S2 2.479623 1_665
S0 V1 2.438751 1_665
S0 V0 2.486742 1_555
S1 V0 2.395776 1_556
S1 V1 2.503193 1_566
S2 V1 2.437840 1_556
S2 V0 2.485520 1_546
S3 V1 2.431443 1_555
S3 V0 2.482979 1_545
S4 V0 2.398218 1_545
S4 V1 2.518836 1_655
S5 V1 2.435897 1_666
S5 V0 2.479209 1_556
