# generated using pymatgen
data_NaCaSnP(SO6)2
_symmetry_space_group_name_H-M   'P 1'
_cell_length_a   8.94319006
_cell_length_b   8.96814259
_cell_length_c   23.53545097
_cell_angle_alpha   89.22925020
_cell_angle_beta   90.00000000
_cell_angle_gamma   119.90800312
_symmetry_Int_Tables_number   1
_chemical_formula_structural   NaCaSnP(SO6)2
_chemical_formula_sum   'Na6 Ca6 Sn6 P6 S12 O72'
_cell_volume   1636.05415993
_cell_formula_units_Z   6
loop_
 _symmetry_equiv_pos_site_id
 _symmetry_equiv_pos_as_xyz
  1  'x, y, z'
loop_
 _atom_site_type_symbol
 _atom_site_label
 _atom_site_symmetry_multiplicity
 _atom_site_fract_x
 _atom_site_fract_y
 _atom_site_fract_z
 _atom_site_occupancy
  Na  Na0  1  0.97771465  0.98252532  0.50284119  1
  Na  Na1  1  0.00481067  0.98252532  0.00284119  1
  Na  Na2  1  0.65433270  0.31015179  0.83636288  1
  Na  Na3  1  0.65582010  0.31015179  0.33636288  1
  Na  Na4  1  0.32254459  0.67905876  0.16981569  1
  Na  Na5  1  0.35651316  0.67905876  0.66981569  1
  Ca  Ca0  1  0.99244630  0.99499112  0.64618913  1
  Ca  Ca1  1  0.00254482  0.99499112  0.14618913  1
  Ca  Ca2  1  0.66414470  0.33093937  0.97992706  1
  Ca  Ca3  1  0.66679568  0.33093937  0.47992706  1
  Ca  Ca4  1  0.33765652  0.67630666  0.31337372  1
  Ca  Ca5  1  0.33864913  0.67630666  0.81337372  1
  Sn  Sn0  1  0.00386428  0.99950998  0.34786797  1
  Sn  Sn1  1  0.99564570  0.99950998  0.84786797  1
  Sn  Sn2  1  0.66775808  0.33255487  0.68163332  1
  Sn  Sn3  1  0.66479779  0.33255487  0.18163332  1
  Sn  Sn4  1  0.31733339  0.67167265  0.01492304  1
  Sn  Sn5  1  0.35433826  0.67167265  0.51492304  1
  P  P0  1  0.30633704  0.01814319  0.24837985  1
  P  P1  1  0.71180615  0.01814319  0.74837985  1
  P  P2  1  0.65471078  0.61960861  0.58215881  1
  P  P3  1  0.96489883  0.61960861  0.08215881  1
  P  P4  1  0.31705216  0.96239344  0.91346293  1
  P  P5  1  0.64534027  0.96239344  0.41346293  1
  S  S0  1  0.70859872  0.69307936  0.24954341  1
  S  S1  1  0.98691771  0.29059462  0.24866137  1
  S  S2  1  0.30367691  0.29059462  0.74866137  1
  S  S3  1  0.98448064  0.69307936  0.74954341  1
  S  S4  1  0.97782935  0.35280103  0.58158452  1
  S  S5  1  0.37502349  0.02614925  0.58277649  1
  S  S6  1  0.65112676  0.02614925  0.08277649  1
  S  S7  1  0.37497268  0.35280103  0.08158452  1
  S  S8  1  0.63345770  0.68086702  0.91734188  1
  S  S9  1  0.04373013  0.36099005  0.91558342  1
  S  S10  1  0.31725892  0.36099005  0.41558342  1
  S  S11  1  0.04740832  0.68086702  0.41734188  1
  O  O0  1  0.22240528  0.04366907  0.30562599  1
  O  O1  1  0.81366144  0.77414065  0.30286567  1
  O  O2  1  0.95953469  0.18385812  0.30288190  1
  O  O3  1  0.22432343  0.18385812  0.80288190  1
  O  O4  1  0.96047921  0.77414065  0.80286567  1
  O  O5  1  0.82126379  0.04366907  0.80562599  1
  O  O6  1  0.80454639  0.00833372  0.69722124  1
  O  O7  1  0.20458750  0.20527247  0.69874689  1
  O  O8  1  0.00798040  0.79775952  0.69932489  1
  O  O9  1  0.78977912  0.79775952  0.19932489  1
  O  O10  1  0.00068497  0.20527247  0.19874689  1
  O  O11  1  0.20378733  0.00833372  0.19722124  1
  O  O12  1  0.89645423  0.37481315  0.63555904  1
  O  O13  1  0.48186557  0.10461579  0.63608414  1
  O  O14  1  0.62839883  0.50890495  0.63960999  1
  O  O15  1  0.88050712  0.50890495  0.13960999  1
  O  O16  1  0.62275122  0.10461579  0.13608414  1
  O  O17  1  0.47835991  0.37481315  0.13555904  1
  O  O18  1  0.45876012  0.33097755  0.03235985  1
  O  O19  1  0.86457639  0.52964461  0.03065367  1
  O  O20  1  0.66675333  0.12606606  0.03214226  1
  O  O21  1  0.45931373  0.12606606  0.53214226  1
  O  O22  1  0.66506921  0.52964461  0.53065367  1
  O  O23  1  0.87221843  0.33097755  0.53235985  1
  O  O24  1  0.54789797  0.70039449  0.97059792  1
  O  O25  1  0.14990973  0.43992033  0.96915137  1
  O  O26  1  0.28592886  0.85256316  0.97166115  1
  O  O27  1  0.56663330  0.85256316  0.47166115  1
  O  O28  1  0.29000960  0.43992033  0.46915137  1
  O  O29  1  0.15249552  0.70039449  0.47059792  1
  O  O30  1  0.12925657  0.66339242  0.36677696  1
  O  O31  1  0.53794501  0.87209638  0.36316819  1
  O  O32  1  0.33089506  0.46141348  0.36521408  1
  O  O33  1  0.13051742  0.46141348  0.86521408  1
  O  O34  1  0.33415037  0.87209638  0.86316819  1
  O  O35  1  0.53413485  0.66339242  0.86677696  1
  O  O36  1  0.03830404  0.84568440  0.41346207  1
  O  O37  1  0.82812141  0.97169766  0.40900852  1
  O  O38  1  0.15603943  0.18576635  0.41318789  1
  O  O39  1  0.02972692  0.18576635  0.91318789  1
  O  O40  1  0.14357625  0.97169766  0.90900852  1
  O  O41  1  0.80738036  0.84568440  0.91346207  1
  O  O42  1  0.00918133  0.20860652  0.58763030  1
  O  O43  1  0.20359280  0.00561038  0.58886144  1
  O  O44  1  0.80745245  0.80054402  0.58668912  1
  O  O45  1  0.99309157  0.80054402  0.08668912  1
  O  O46  1  0.80201758  0.00561038  0.08886144  1
  O  O47  1  0.19942519  0.20860652  0.08763030  1
  O  O48  1  0.69861481  0.18968757  0.74446843  1
  O  O49  1  0.47996234  0.30458846  0.74586093  1
  O  O50  1  0.81875877  0.52189445  0.74597249  1
  O  O51  1  0.70313668  0.52189445  0.24597249  1
  O  O52  1  0.82462712  0.30458846  0.24586093  1
  O  O53  1  0.49107376  0.18968757  0.24446843  1
  O  O54  1  0.66321640  0.53602282  0.92294025  1
  O  O55  1  0.87117299  0.33886673  0.92082055  1
  O  O56  1  0.46961281  0.14278628  0.91944432  1
  O  O57  1  0.67317446  0.14278628  0.41944432  1
  O  O58  1  0.46769474  0.33886673  0.42082055  1
  O  O59  1  0.87280742  0.53602282  0.42294025  1
  O  O60  1  0.36947493  0.51858560  0.07632639  1
  O  O61  1  0.14932755  0.63046961  0.08065295  1
  O  O62  1  0.49048660  0.84989523  0.07939915  1
  O  O63  1  0.35940764  0.84989523  0.57939915  1
  O  O64  1  0.48114105  0.63046961  0.58065295  1
  O  O65  1  0.14910967  0.51858560  0.57632639  1
  O  O66  1  0.33402324  0.86515739  0.25371005  1
  O  O67  1  0.53290637  0.66198996  0.25525324  1
  O  O68  1  0.13697839  0.46197357  0.25424004  1
  O  O69  1  0.32499418  0.46197357  0.75424004  1
  O  O70  1  0.12908259  0.66198996  0.75525324  1
  O  O71  1  0.53113315  0.86515739  0.75371005  1
loop_
_geom_bond_atom_site_label_1
_geom_bond_atom_site_label_2
_geom_bond_distance
_geom_bond_site_symmetry_2
Na0 O44 2.512291 1_555
Na0 O37 2.559780 1_555
Na0 O36 2.637665 1_655
Na0 O38 2.704738 1_665
Na0 O42 2.777076 1_665
Na0 O43 2.795796 1_665
Na1 O45 2.512291 1_455
Na1 O40 2.559780 1_554
Na1 O41 2.637665 1_454
Na1 O39 2.704738 1_564
Na1 O47 2.777076 1_565
Na1 O46 2.795796 1_465
Na2 O56 2.500748 1_555
Na2 O48 2.547761 1_555
Na2 O49 2.626117 1_555
Na2 O55 2.700722 1_555
Na2 O50 2.720435 1_555
Na2 O54 2.865671 1_555
Na3 O57 2.500747 1_555
Na3 O53 2.547761 1_555
Na3 O52 2.626117 1_555
Na3 O58 2.700722 1_555
Na3 O51 2.720435 1_555
Na3 O59 2.865671 1_555
Na4 O61 2.518873 1_555
Na4 O66 2.571456 1_555
Na4 O62 2.597894 1_555
Na4 O68 2.677012 1_555
Na4 O60 2.788584 1_555
Na4 O67 2.808025 1_555
Na5 O64 2.518873 1_555
Na5 O71 2.571456 1_555
Na5 O63 2.597894 1_555
Na5 O69 2.677012 1_555
Na5 O65 2.788584 1_555
Na5 O70 2.808025 1_555
Ca0 O6 2.117801 1_565
Ca0 O8 2.213013 1_655
Ca0 O44 2.219859 1_555
Ca0 O7 2.276132 1_665
Ca0 O43 2.283084 1_665
Ca0 O42 2.287999 1_665
Ca1 O11 2.117801 1_565
Ca1 O9 2.213013 1_455
Ca1 O45 2.219859 1_455
Ca1 O10 2.276132 1_565
Ca1 O46 2.283084 1_465
Ca1 O47 2.287999 1_565
Ca2 O19 2.164678 1_556
Ca2 O20 2.206479 1_556
Ca2 O18 2.212979 1_556
Ca2 O56 2.244427 1_555
Ca2 O54 2.265060 1_555
Ca2 O55 2.287862 1_555
Ca3 O22 2.164678 1_555
Ca3 O21 2.206480 1_555
Ca3 O23 2.212979 1_555
Ca3 O57 2.244427 1_555
Ca3 O59 2.265060 1_555
Ca3 O58 2.287862 1_555
Ca4 O31 2.141014 1_555
Ca4 O66 2.198222 1_555
Ca4 O30 2.201719 1_555
Ca4 O32 2.242068 1_555
Ca4 O67 2.272658 1_555
Ca4 O68 2.341895 1_555
Ca5 O34 2.141014 1_555
Ca5 O71 2.198222 1_555
Ca5 O35 2.201719 1_555
Ca5 O33 2.242068 1_555
Ca5 O70 2.272658 1_555
Ca5 O69 2.341895 1_555
O0 P0 1.615777 1_555
O0 Sn0 2.045159 1_545
O1 S0 1.526318 1_555
O1 Sn0 2.174728 1_655
O2 S1 1.529076 1_555
O2 Sn0 2.148940 1_645
O3 S2 1.529076 1_555
O3 Sn1 2.148940 1_445
O4 S3 1.526318 1_555
O4 Sn1 2.174728 1_555
O5 P1 1.615777 1_555
O5 Sn1 2.045159 1_545
O6 P1 1.490288 1_555
O7 S2 1.448743 1_555
O8 S3 1.447692 1_455
O9 S0 1.447692 1_555
O10 S1 1.448743 1_455
O11 P0 1.490288 1_555
O12 S4 1.527189 1_555
O12 Sn2 2.172241 1_555
O13 S5 1.528232 1_555
O13 Sn2 2.182145 1_555
O14 P2 1.612523 1_555
O14 Sn2 2.028893 1_555
O15 P3 1.612523 1_555
O15 Sn3 2.028893 1_555
O16 S6 1.528232 1_555
O16 Sn3 2.182145 1_555
O17 S7 1.527189 1_555
O17 Sn3 2.172241 1_555
O18 S7 1.447178 1_555
O19 P3 1.493248 1_555
O20 S6 1.445341 1_555
O21 S5 1.445341 1_555
O22 P2 1.493248 1_555
O23 S4 1.447178 1_555
O24 S8 1.525360 1_555
O24 Sn4 2.206702 1_556
O25 S9 1.531653 1_555
O25 Sn4 2.163102 1_556
O26 P4 1.616815 1_555
O26 Sn4 2.038922 1_556
O27 P5 1.616815 1_555
O27 Sn5 2.038922 1_555
O28 S10 1.531653 1_555
O28 Sn5 2.163102 1_555
O29 S11 1.525360 1_555
O29 Sn5 2.206702 1_555
O30 S11 1.447769 1_555
O31 P5 1.493182 1_555
O32 S10 1.446739 1_555
O33 S9 1.446739 1_555
O34 P4 1.493182 1_555
O35 S8 1.447769 1_555
O36 S11 1.521889 1_555
O36 Sn0 2.178913 1_555
O37 P5 1.598052 1_555
O37 Sn0 2.050002 1_655
O38 S10 1.514722 1_555
O38 Sn0 2.192675 1_545
O39 S9 1.514726 1_555
O39 Sn1 2.192675 1_445
O40 P4 1.598043 1_555
O40 Sn1 2.050002 1_455
O41 S8 1.521894 1_555
O41 Sn1 2.178913 1_555
O42 S4 1.458678 1_455
O43 S5 1.456924 1_555
O44 P2 1.518093 1_555
O45 P3 1.518096 1_555
O46 S6 1.456915 1_555
O47 S7 1.458684 1_555
O48 P1 1.601983 1_555
O48 Sn2 2.050947 1_555
O49 S2 1.519240 1_555
O49 Sn2 2.176777 1_555
O50 S3 1.514924 1_555
O50 Sn2 2.186869 1_555
O51 S0 1.514929 1_555
O51 Sn3 2.186869 1_555
O52 S1 1.519231 1_555
O52 Sn3 2.176777 1_555
O53 P0 1.601988 1_555
O53 Sn3 2.050947 1_555
O54 S8 1.454541 1_555
O55 S9 1.459476 1_655
O56 P4 1.517755 1_545
O57 P5 1.517748 1_545
O58 S10 1.459494 1_555
O59 S11 1.454530 1_655
O60 S7 1.515320 1_555
O60 Sn4 2.185369 1_555
O61 P3 1.603403 1_455
O61 Sn4 2.053825 1_555
O62 S6 1.519082 1_565
O62 Sn4 2.202821 1_555
O63 S5 1.519075 1_565
O63 Sn5 2.202821 1_555
O64 P2 1.603421 1_555
O64 Sn5 2.053825 1_555
O65 S4 1.515310 1_455
O65 Sn5 2.185369 1_555
O66 P0 1.514450 1_565
O67 S0 1.458337 1_555
O68 S1 1.459118 1_455
O69 S2 1.459121 1_555
O70 S3 1.458328 1_455
O71 P1 1.514456 1_565
