# generated using pymatgen
data_La6MgWO12
_symmetry_space_group_name_H-M   'P 1'
_cell_length_a   6.90721017
_cell_length_b   6.90721049
_cell_length_c   6.90721122
_cell_angle_alpha   99.51495754
_cell_angle_beta   99.51495256
_cell_angle_gamma   99.51495251
_symmetry_Int_Tables_number   1
_chemical_formula_structural   La6MgWO12
_chemical_formula_sum   'La6 Mg1 W1 O12'
_cell_volume   314.18634970
_cell_formula_units_Z   1
loop_
 _symmetry_equiv_pos_site_id
 _symmetry_equiv_pos_as_xyz
  1  'x, y, z'
loop_
 _atom_site_type_symbol
 _atom_site_label
 _atom_site_symmetry_multiplicity
 _atom_site_fract_x
 _atom_site_fract_y
 _atom_site_fract_z
 _atom_site_occupancy
  La  La0  1  0.40589000  0.86243900  0.68445500  1
  La  La1  1  0.29685300  0.64865800  0.13594500  1
  La  La2  1  0.13594500  0.29685300  0.64865800  1
  La  La3  1  0.86243900  0.68445500  0.40589000  1
  La  La4  1  0.68445500  0.40589000  0.86243900  1
  La  La5  1  0.64865800  0.13594500  0.29685300  1
  Mg  Mg0  1  0.25623800  0.25623800  0.25623800  1
  W  W0  1  0.98540200  0.98540200  0.98540200  1
  O  O0  1  0.05394800  0.92629300  0.70075700  1
  O  O1  1  0.29631400  0.98394400  0.08001500  1
  O  O2  1  0.18739900  0.54686800  0.41685600  1
  O  O3  1  0.57787200  0.83021800  0.41067200  1
  O  O4  1  0.08001500  0.29631400  0.98394400  1
  O  O5  1  0.41067200  0.57787200  0.83021800  1
  O  O6  1  0.54686800  0.41685600  0.18739900  1
  O  O7  1  0.92629300  0.70075700  0.05394800  1
  O  O8  1  0.41685600  0.18739900  0.54686800  1
  O  O9  1  0.83021800  0.41067200  0.57787200  1
  O  O10  1  0.70075700  0.05394800  0.92629300  1
  O  O11  1  0.98394400  0.08001500  0.29631400  1
loop_
_geom_bond_atom_site_label_1
_geom_bond_atom_site_label_2
_geom_bond_distance
_geom_bond_site_symmetry_2
La0 O5 2.354346 1_555
La0 O3 2.393283 1_555
La0 O10 2.437675 1_565
La0 O0 2.558361 1_555
La0 O8 2.572895 1_565
La0 O2 2.665219 1_555
La0 O1 2.979561 1_556
La1 O2 2.364523 1_555
La1 O5 2.377202 1_554
La1 O1 2.410554 1_555
La1 O3 2.476285 1_555
La1 O6 2.563473 1_555
La1 O4 2.588196 1_554
La1 O7 2.625667 1_455
La2 O8 2.364523 1_555
La2 O9 2.377201 1_455
La2 O4 2.410555 1_555
La2 O5 2.476285 1_555
La2 O2 2.563474 1_555
La2 O11 2.588196 1_455
La2 O0 2.625667 1_545
La3 O3 2.354346 1_555
La3 O9 2.393283 1_555
La3 O0 2.437675 1_655
La3 O7 2.558362 1_555
La3 O2 2.572894 1_655
La3 O6 2.665219 1_555
La3 O11 2.979561 1_565
La4 O9 2.354346 1_555
La4 O5 2.393283 1_555
La4 O7 2.437675 1_556
La4 O10 2.558361 1_555
La4 O6 2.572895 1_556
La4 O8 2.665219 1_555
La4 O4 2.979561 1_655
La5 O6 2.364523 1_555
La5 O3 2.377202 1_545
La5 O11 2.410554 1_555
La5 O9 2.476285 1_555
La5 O8 2.563473 1_555
La5 O1 2.588196 1_545
La5 O10 2.625668 1_554
Mg0 O11 2.149942 1_455
Mg0 O1 2.149942 1_545
Mg0 O4 2.149942 1_554
Mg0 O2 2.289192 1_555
Mg0 O6 2.289192 1_555
Mg0 O8 2.289192 1_555
O0 W0 2.088707 1_455
O1 W0 2.141126 1_454
O4 W0 2.141126 1_445
O7 W0 2.088707 1_554
O10 W0 2.088707 1_545
O11 W0 2.141126 1_544
