# generated using pymatgen
data_NaAl2Sn2P3(SO8)3
_symmetry_space_group_name_H-M   'P 1'
_cell_length_a   8.53118818
_cell_length_b   8.53650370
_cell_length_c   22.18317288
_cell_angle_alpha   90.15539985
_cell_angle_beta   89.66787403
_cell_angle_gamma   120.00484048
_symmetry_Int_Tables_number   1
_chemical_formula_structural   NaAl2Sn2P3(SO8)3
_chemical_formula_sum   'Na3 Al6 Sn6 P9 S9 O72'
_cell_volume   1398.99240891
_cell_formula_units_Z   3
loop_
 _symmetry_equiv_pos_site_id
 _symmetry_equiv_pos_as_xyz
  1  'x, y, z'
loop_
 _atom_site_type_symbol
 _atom_site_label
 _atom_site_symmetry_multiplicity
 _atom_site_fract_x
 _atom_site_fract_y
 _atom_site_fract_z
 _atom_site_occupancy
  Na  Na0  1  0.67841689  0.33519882  0.83403705  1
  Na  Na1  1  0.66246795  0.34006768  0.33065871  1
  Na  Na2  1  0.34478952  0.67375133  0.17002796  1
  Al  Al0  1  0.67418247  0.33336281  0.68866068  1
  Al  Al1  1  0.64901039  0.32649336  0.18605133  1
  Al  Al2  1  0.67056431  0.32604466  0.98315025  1
  Al  Al3  1  0.66592705  0.34132132  0.47496524  1
  Al  Al4  1  0.33248405  0.66304780  0.31366120  1
  Al  Al5  1  0.32270970  0.66702333  0.81137854  1
  Sn  Sn0  1  0.00714460  0.99423759  0.35243023  1
  Sn  Sn1  1  0.99355473  0.00201073  0.85245339  1
  Sn  Sn2  1  0.99453391  0.99371576  0.64819634  1
  Sn  Sn3  1  -0.00012842  0.99889750  0.14488200  1
  Sn  Sn4  1  0.33455767  0.66233619  0.02198681  1
  Sn  Sn5  1  0.32875273  0.66313636  0.51864308  1
  P  P0  1  0.30104253  0.99658103  0.24929040  1
  P  P1  1  0.69905446  0.69856454  0.24969166  1
  P  P2  1  -0.00047248  0.70059603  0.75007690  1
  P  P3  1  0.69344434  0.99660232  0.75009769  1
  P  P4  1  0.66720717  0.05481707  0.08406967  1
  P  P5  1  0.38838761  0.33145683  0.08252522  1
  P  P6  1  0.04033122  0.38315379  0.91517358  1
  P  P7  1  0.33813853  0.37959637  0.41490517  1
  P  P8  1  0.04076904  0.65792230  0.41569259  1
  S  S0  1  0.99836538  0.29991524  0.25038619  1
  S  S1  1  0.30214229  0.30175803  0.74925249  1
  S  S2  1  0.94558028  0.33155416  0.58311266  1
  S  S3  1  0.38835022  0.05513600  0.58314635  1
  S  S4  1  0.66500396  0.61191366  0.58318087  1
  S  S5  1  0.94398566  0.61103555  0.08361071  1
  S  S6  1  0.61962472  0.65762183  0.91495741  1
  S  S7  1  0.33873091  0.96046879  0.91557904  1
  S  S8  1  0.62301674  0.96243257  0.41617637  1
  O  O0  1  0.22710466  0.04830476  0.30547644  1
  O  O1  1  0.81868143  0.77976528  0.30668119  1
  O  O2  1  0.95778899  0.18284101  0.30471054  1
  O  O3  1  0.22756319  0.17959846  0.80257650  1
  O  O4  1  0.95342855  0.78193614  0.80569348  1
  O  O5  1  0.82545697  0.05211241  0.80426670  1
  O  O6  1  0.77390697  0.95534774  0.69272833  1
  O  O7  1  0.18421847  0.22563702  0.69490007  1
  O  O8  1  0.04694683  0.82402378  0.69318154  1
  O  O9  1  0.77918279  0.82373614  0.19375063  1
  O  O10  1  0.04090224  0.22436002  0.19624789  1
  O  O11  1  0.17732161  0.95440834  0.19339117  1
  O  O12  1  0.86255656  0.35684984  0.63790292  1
  O  O13  1  0.49478300  0.13837357  0.63783763  1
  O  O14  1  0.63997045  0.50450137  0.63776582  1
  O  O15  1  0.86493670  0.50448386  0.13817884  1
  O  O16  1  0.64142408  0.14128098  0.14048554  1
  O  O17  1  0.50023427  0.36440673  0.13915461  1
  O  O18  1  0.47727561  0.31356539  0.02478011  1
  O  O19  1  0.84294979  0.53096463  0.02786663  1
  O  O20  1  0.69234431  0.16086115  0.02599531  1
  O  O21  1  0.47203446  0.16226178  0.52853729  1
  O  O22  1  0.69073029  0.52899882  0.52874257  1
  O  O23  1  0.83790413  0.30622776  0.52906395  1
  O  O24  1  0.55038925  0.70008409  0.97058721  1
  O  O25  1  0.15400380  0.45707202  0.97307071  1
  O  O26  1  0.30233824  0.85149524  0.97124336  1
  O  O27  1  0.55469799  0.85370064  0.47321483  1
  O  O28  1  0.30036621  0.44902397  0.47549472  1
  O  O29  1  0.15317414  0.70458231  0.47511152  1
  O  O30  1  0.13522891  0.63073351  0.36157482  1
  O  O31  1  0.50664575  0.87741019  0.36408998  1
  O  O32  1  0.37203269  0.50517293  0.36165128  1
  O  O33  1  0.13562165  0.50262977  0.86015789  1
  O  O34  1  0.36886756  0.87436588  0.86251152  1
  O  O35  1  0.50691374  0.63325715  0.86196028  1
  O  O36  1  0.01368692  0.82194567  0.41110638  1
  O  O37  1  0.80439226  0.98497750  0.40929725  1
  O  O38  1  0.16707624  0.19393430  0.40866753  1
  O  O39  1  0.02311614  0.19441916  0.90889009  1
  O  O40  1  0.17544991  0.97807141  0.90870229  1
  O  O41  1  0.80311633  0.81964040  0.91028009  1
  O  O42  1  0.96773530  0.16891226  0.58831319  1
  O  O43  1  0.20435156  0.03597545  0.58804959  1
  O  O44  1  0.82983222  0.79528005  0.58670230  1
  O  O45  1  0.96390903  0.79296053  0.08625462  1
  O  O46  1  0.83336084  0.02966975  0.08860461  1
  O  O47  1  0.19860914  0.16250147  0.08759362  1
  O  O48  1  0.67576636  0.16473963  0.73906449  1
  O  O49  1  0.47976269  0.31741503  0.73879598  1
  O  O50  1  0.82817486  0.51695442  0.73927457  1
  O  O51  1  0.68796973  0.51544176  0.24000438  1
  O  O52  1  0.83867966  0.31853730  0.24131577  1
  O  O53  1  0.48756057  0.16468782  0.24109182  1
  O  O54  1  0.63525084  0.49488650  0.92245717  1
  O  O55  1  0.85221413  0.36498834  0.92371368  1
  O  O56  1  0.50105954  0.14090248  0.92213939  1
  O  O57  1  0.63654854  0.14040615  0.42543776  1
  O  O58  1  0.50660460  0.35940169  0.42431289  1
  O  O59  1  0.85573211  0.48530163  0.42536306  1
  O  O60  1  0.36484467  0.50249867  0.08075639  1
  O  O61  1  0.13014582  0.63367061  0.08042732  1
  O  O62  1  0.49176450  0.86279912  0.07977083  1
  O  O63  1  0.36883476  0.87144904  0.57902333  1
  O  O64  1  0.50334880  0.63491063  0.57908305  1
  O  O65  1  0.12892317  0.49542163  0.58034797  1
  O  O66  1  0.31405365  0.82669353  0.26081254  1
  O  O67  1  0.51311575  0.68131431  0.26010007  1
  O  O68  1  0.16223510  0.47716736  0.25910112  1
  O  O69  1  0.31809015  0.47725332  0.76041205  1
  O  O70  1  0.16470854  0.68334989  0.76111250  1
  O  O71  1  0.51504612  0.82870818  0.76426168  1
loop_
_geom_bond_atom_site_label_1
_geom_bond_atom_site_label_2
_geom_bond_distance
_geom_bond_site_symmetry_2
Na0 O55 2.423792 1_555
Na0 O54 2.514020 1_555
Na0 O56 2.516614 1_555
Na0 O50 2.542157 1_555
Na0 O48 2.550979 1_555
Na0 O49 2.672341 1_555
Na1 O51 2.453205 1_555
Na1 O53 2.489897 1_555
Na1 O58 2.509412 1_555
Na1 O52 2.541941 1_555
Na1 O59 2.578889 1_555
Na1 O57 2.647929 1_555
Na2 O67 2.449186 1_555
Na2 O62 2.479909 1_555
Na2 O66 2.480139 1_555
Na2 O60 2.513691 1_555
Na2 O68 2.552319 1_555
Na2 O61 2.613958 1_555
Al0 O48 1.830505 1_555
Al0 O50 1.841486 1_555
Al0 O12 1.883778 1_555
Al0 O49 1.939096 1_555
Al0 O13 1.961129 1_555
Al0 O14 1.983275 1_555
Al1 O17 1.796094 1_555
Al1 O53 1.839197 1_555
Al1 O16 1.848083 1_555
Al1 O51 1.898030 1_555
Al1 O15 2.004118 1_555
Al1 O52 2.063775 1_555
Al2 O20 1.788177 1_556
Al2 O18 1.841331 1_556
Al2 O19 1.908232 1_556
Al2 O55 1.927150 1_555
Al2 O56 2.036178 1_555
Al2 O54 2.104845 1_555
Al3 O59 1.827451 1_555
Al3 O58 1.833652 1_555
Al3 O22 1.920460 1_555
Al3 O57 1.942824 1_555
Al3 O21 1.985742 1_555
Al3 O23 2.035800 1_555
Al4 O32 1.878874 1_555
Al4 O67 1.884190 1_555
Al4 O30 1.885275 1_555
Al4 O66 1.892441 1_555
Al4 O68 1.948641 1_555
Al4 O31 2.023976 1_555
Al5 O70 1.812700 1_555
Al5 O71 1.847360 1_555
Al5 O33 1.853589 1_555
Al5 O69 1.957254 1_555
Al5 O34 1.967667 1_555
Al5 O35 2.070481 1_555
O0 P0 1.553309 1_545
O0 Sn0 1.983173 1_545
O1 P1 1.556576 1_555
O1 Sn0 2.007921 1_655
O2 S0 1.492166 1_555
O2 Sn0 2.140664 1_645
O3 S1 1.491944 1_555
O3 Sn1 2.112927 1_455
O4 P2 1.556211 1_655
O4 Sn1 2.018136 1_565
O5 P3 1.554257 1_545
O5 Sn1 2.003944 1_555
O6 P3 1.563344 1_555
O6 Sn2 1.997371 1_555
O7 S1 1.498023 1_555
O7 Sn2 2.101361 1_445
O8 P2 1.562610 1_555
O8 Sn2 1.988712 1_455
O9 P1 1.554291 1_555
O9 Sn3 2.031067 1_655
O10 S0 1.488228 1_455
O10 Sn3 2.108112 1_545
O11 P0 1.553714 1_555
O11 Sn3 2.046972 1_555
O12 S2 1.472114 1_555
O13 S3 1.471083 1_555
O14 S4 1.469604 1_555
O15 S5 1.459601 1_555
O16 P4 1.521038 1_555
O17 P5 1.520271 1_555
O18 P5 1.530612 1_555
O19 S5 1.468953 1_555
O20 P4 1.527767 1_555
O21 S3 1.468494 1_555
O22 S4 1.468042 1_555
O23 S2 1.463162 1_555
O24 S6 1.485394 1_555
O24 Sn4 2.044144 1_556
O25 P6 1.544723 1_555
O25 Sn4 1.982444 1_556
O26 S7 1.483054 1_555
O26 Sn4 2.099391 1_556
O27 S8 1.502985 1_555
O27 Sn5 2.056126 1_555
O28 P7 1.563101 1_555
O28 Sn5 1.966231 1_555
O29 P8 1.563782 1_555
O29 Sn5 1.962152 1_555
O30 P8 1.522766 1_555
O31 S8 1.461345 1_555
O32 P7 1.523555 1_555
O33 P6 1.535096 1_555
O34 S7 1.474098 1_555
O35 S6 1.470289 1_555
O36 P8 1.532595 1_555
O36 Sn0 1.988425 1_555
O37 S8 1.467718 1_555
O37 Sn0 2.104287 1_655
O38 P7 1.532538 1_555
O38 Sn0 2.001473 1_545
O39 P6 1.548908 1_555
O39 Sn1 1.976607 1_455
O40 S7 1.482626 1_555
O40 Sn1 2.085123 1_465
O41 S6 1.485817 1_555
O41 Sn1 2.041009 1_565
O42 S2 1.496746 1_555
O42 Sn2 2.099976 1_545
O43 S3 1.497984 1_555
O43 Sn2 2.107965 1_445
O44 S4 1.494262 1_555
O44 Sn2 2.081777 1_555
O45 S5 1.476404 1_555
O45 Sn3 2.080583 1_655
O46 P4 1.539995 1_555
O46 Sn3 2.010225 1_645
O47 P5 1.541890 1_555
O47 Sn3 2.014088 1_545
O48 P3 1.536742 1_545
O49 S1 1.470162 1_555
O50 P2 1.536872 1_655
O51 P1 1.532765 1_555
O52 S0 1.463416 1_555
O53 P0 1.529270 1_545
O54 S6 1.470385 1_555
O55 P6 1.543779 1_655
O56 S7 1.476211 1_545
O57 S8 1.478814 1_545
O58 P7 1.546071 1_555
O59 P8 1.542939 1_655
O60 P5 1.570820 1_555
O60 Sn4 1.998569 1_555
O61 S5 1.502150 1_455
O61 Sn4 2.080947 1_555
O62 P4 1.575823 1_565
O62 Sn4 2.020600 1_555
O63 S3 1.494371 1_565
O63 Sn5 2.111263 1_555
O64 S4 1.490328 1_555
O64 Sn5 2.111437 1_555
O65 S2 1.489331 1_455
O65 Sn5 2.090974 1_555
O66 P0 1.531079 1_555
O67 P1 1.534141 1_555
O68 S0 1.472141 1_455
O69 S1 1.455565 1_555
O70 P2 1.509672 1_555
O71 P3 1.511448 1_555
