# generated using pymatgen
data_Na5Y3TiSi3(SO8)3
_symmetry_space_group_name_H-M   'P 1'
_cell_length_a   9.28089969
_cell_length_b   9.24312672
_cell_length_c   23.37189015
_cell_angle_alpha   91.19985547
_cell_angle_beta   89.67403647
_cell_angle_gamma   119.92085857
_symmetry_Int_Tables_number   1
_chemical_formula_structural   Na5Y3TiSi3(SO8)3
_chemical_formula_sum   'Na15 Y9 Ti3 Si9 S9 O72'
_cell_volume   1737.31059040
_cell_formula_units_Z   3
loop_
 _symmetry_equiv_pos_site_id
 _symmetry_equiv_pos_as_xyz
  1  'x, y, z'
loop_
 _atom_site_type_symbol
 _atom_site_label
 _atom_site_symmetry_multiplicity
 _atom_site_fract_x
 _atom_site_fract_y
 _atom_site_fract_z
 _atom_site_occupancy
  Na  Na0  1  0.65307047  0.01232977  0.25797169  1
  Na  Na1  1  -0.00142222  0.62027432  0.24697943  1
  Na  Na2  1  0.63378746  0.64158949  0.74497019  1
  Na  Na3  1  0.36336928  0.01005916  0.76078815  1
  Na  Na4  1  0.66560497  0.94857569  0.58321432  1
  Na  Na5  1  0.98475924  0.68590232  0.92115862  1
  Na  Na6  1  0.69087094  0.01847461  0.91369621  1
  Na  Na7  1  0.96025722  0.30574157  0.41118994  1
  Na  Na8  1  0.70072278  0.68675757  0.42749418  1
  Na  Na9  1  0.00012163  0.97131177  0.50173146  1
  Na  Na10  1  0.01094136  0.98174419  0.99751135  1
  Na  Na11  1  0.64501449  0.31323595  0.83297252  1
  Na  Na12  1  0.66631237  0.31390210  0.33674337  1
  Na  Na13  1  0.29191335  0.62661606  0.16003745  1
  Na  Na14  1  0.32866241  0.62977614  0.67109732  1
  Y  Y0  1  0.99820558  0.00483610  0.35219362  1
  Y  Y1  1  0.01210040  0.01534885  0.85051691  1
  Y  Y2  1  0.99829762  0.00436563  0.65135565  1
  Y  Y3  1  0.00326518  0.00364953  0.14098909  1
  Y  Y4  1  0.66280942  0.33751682  0.68597643  1
  Y  Y5  1  0.67588720  0.33687133  0.18022452  1
  Y  Y6  1  0.33063755  0.67316133  0.01817911  1
  Y  Y7  1  0.33547548  0.67261676  0.51722613  1
  Y  Y8  1  0.32082578  0.66310777  0.32138733  1
  Ti  Ti0  1  0.65911181  0.35114112  0.97733089  1
  Ti  Ti1  1  0.68060274  0.34869635  0.48136354  1
  Ti  Ti2  1  0.37323966  0.68167931  0.81707818  1
  Si  Si0  1  0.00103275  0.30153323  0.25104430  1
  Si  Si1  1  0.29813251  0.31008326  0.75141870  1
  Si  Si2  1  0.69739526  0.99957290  0.75273008  1
  Si  Si3  1  0.66990116  0.63154210  0.58318176  1
  Si  Si4  1  0.95733678  0.62510316  0.08097864  1
  Si  Si5  1  0.63148137  0.66710670  0.91826426  1
  Si  Si6  1  0.34317571  0.96557783  0.91658687  1
  Si  Si7  1  0.63228443  0.97700851  0.41825023  1
  Si  Si8  1  0.02614446  0.66473972  0.41852379  1
  S  S0  1  0.29704999  0.99869630  0.24936140  1
  S  S1  1  0.70139578  0.70458434  0.24961156  1
  S  S2  1  0.01197574  0.70545112  0.75163447  1
  S  S3  1  0.95458651  0.33234580  0.57938067  1
  S  S4  1  0.37764563  0.04906015  0.58026437  1
  S  S5  1  0.66772361  0.03992311  0.08027374  1
  S  S6  1  0.37894710  0.33279629  0.07934563  1
  S  S7  1  0.03271627  0.37904038  0.91667184  1
  S  S8  1  0.34598913  0.36991987  0.41820891  1
  O  O0  1  0.21719454  0.01558068  0.30178866  1
  O  O1  1  0.80188025  0.77936585  0.30293739  1
  O  O2  1  0.97978893  0.20167806  0.31086752  1
  O  O3  1  0.22266196  0.17715344  0.80238631  1
  O  O4  1  0.97901162  0.77771809  0.80410191  1
  O  O5  1  0.80141668  0.01761914  0.81002630  1
  O  O6  1  0.77198467  0.95727381  0.69454602  1
  O  O7  1  0.18928047  0.22628114  0.69307630  1
  O  O8  1  0.03418289  0.81276662  0.70165680  1
  O  O9  1  0.79073246  0.80776655  0.20020712  1
  O  O10  1  0.00857962  0.19178449  0.19700647  1
  O  O11  1  0.19336786  0.97538517  0.19850128  1
  O  O12  1  0.87323473  0.34764710  0.63156750  1
  O  O13  1  0.46888516  0.12134403  0.63507093  1
  O  O14  1  0.66238250  0.53731184  0.64150708  1
  O  O15  1  0.87418275  0.53657284  0.14179054  1
  O  O16  1  0.65241764  0.11621553  0.13555599  1
  O  O17  1  0.46924493  0.34280146  0.13235483  1
  O  O18  1  0.47006236  0.31884777  0.02787113  1
  O  O19  1  0.82381641  0.50234120  0.02593398  1
  O  O20  1  0.67550833  0.13974207  0.03093264  1
  O  O21  1  0.47265296  0.15128708  0.53131447  1
  O  O22  1  0.67515712  0.51080078  0.52696831  1
  O  O23  1  0.85274051  0.31964444  0.52724011  1
  O  O24  1  0.54018061  0.69544951  0.97105178  1
  O  O25  1  0.12732812  0.44969244  0.96979100  1
  O  O26  1  0.30167796  0.84403984  0.96977200  1
  O  O27  1  0.54908112  0.84557148  0.47011894  1
  O  O28  1  0.31496409  0.44626710  0.46926024  1
  O  O29  1  0.14118202  0.67869630  0.47142088  1
  O  O30  1  0.08931074  0.61573223  0.35913804  1
  O  O31  1  0.53140476  0.89956899  0.35754096  1
  O  O32  1  0.37392349  0.47549287  0.36740127  1
  O  O33  1  0.11776278  0.48077341  0.86660348  1
  O  O34  1  0.37389153  0.86650925  0.85936776  1
  O  O35  1  0.51940415  0.64554994  0.85868857  1
  O  O36  1  0.98674126  0.81655657  0.41348939  1
  O  O37  1  0.82362063  0.00741066  0.41441459  1
  O  O38  1  0.19860022  0.20253146  0.41056830  1
  O  O39  1  -0.00160090  0.20320336  0.91216775  1
  O  O40  1  0.17880404  0.98271668  0.90928195  1
  O  O41  1  0.82064888  0.82047420  0.91153394  1
  O  O42  1  0.95803654  0.17242440  0.58026663  1
  O  O43  1  0.20942788  0.02950266  0.58235142  1
  O  O44  1  0.83574825  0.81852468  0.57891378  1
  O  O45  1  0.96830107  0.80684734  0.07802087  1
  O  O46  1  0.82258899  0.02902437  0.08257769  1
  O  O47  1  0.21275155  0.17880483  0.07966472  1
  O  O48  1  0.65240341  0.14811882  0.74691166  1
  O  O49  1  0.49232820  0.34830493  0.74691955  1
  O  O50  1  0.86264997  0.53755762  0.74393437  1
  O  O51  1  0.67853985  0.53380620  0.24496287  1
  O  O52  1  0.82692319  0.31559230  0.24908126  1
  O  O53  1  0.46699737  0.14597843  0.24520233  1
  O  O54  1  0.64508002  0.49178861  0.92538553  1
  O  O55  1  0.86282566  0.36753334  0.92087236  1
  O  O56  1  0.52128881  0.14835458  0.92754656  1
  O  O57  1  0.65296373  0.16445064  0.43198998  1
  O  O58  1  0.49880029  0.35699199  0.42461560  1
  O  O59  1  0.83597187  0.49107781  0.42913560  1
  O  O60  1  0.36093989  0.48135961  0.07671854  1
  O  O61  1  0.13600283  0.63402092  0.07892437  1
  O  O62  1  0.52123147  0.86949896  0.07936687  1
  O  O63  1  0.36467333  0.88081032  0.57683275  1
  O  O64  1  0.50560450  0.65463368  0.57940240  1
  O  O65  1  0.12360644  0.47592762  0.57606931  1
  O  O66  1  0.31450186  0.84568495  0.25280166  1
  O  O67  1  0.53899037  0.69827533  0.25454918  1
  O  O68  1  0.16219253  0.49293368  0.25115115  1
  O  O69  1  0.31296494  0.49579843  0.76503889  1
  O  O70  1  0.16469770  0.69514485  0.75733595  1
  O  O71  1  0.50901525  0.82079727  0.75952794  1
loop_
_geom_bond_atom_site_label_1
_geom_bond_atom_site_label_2
_geom_bond_distance
_geom_bond_site_symmetry_2
Na0 O52 2.452042 1_555
Na0 O67 2.545399 1_545
Na0 O31 2.583493 1_545
Na0 O53 2.597481 1_555
Na0 O66 2.725587 1_545
Na0 O2 2.905815 1_555
Na1 O68 2.343124 1_555
Na1 O52 2.449608 1_455
Na1 O66 2.618168 1_555
Na1 O15 2.652743 1_455
Na1 O51 2.663663 1_455
Na1 O30 2.765390 1_555
Na2 O49 2.351275 1_555
Na2 O71 2.466981 1_555
Na2 O69 2.628564 1_555
Na2 O14 2.645195 1_555
Na2 O50 2.733643 1_555
Na2 O6 2.818050 1_555
Na2 O35 2.862666 1_555
Na3 O48 2.349871 1_555
Na3 O70 2.552772 1_545
Na3 O3 2.640214 1_555
Na3 O71 2.691604 1_545
Na3 O34 2.708930 1_545
Na3 O49 2.759943 1_555
Na4 O64 2.358239 1_555
Na4 O44 2.415651 1_555
Na4 O42 2.460387 1_565
Na4 O63 2.543736 1_555
Na4 O6 2.773640 1_555
Na4 O27 2.821833 1_555
Na5 O41 2.413133 1_555
Na5 O40 2.438099 1_655
Na5 O55 2.572431 1_555
Na5 O54 2.743813 1_555
Na5 O26 2.785347 1_655
Na5 O4 2.889972 1_555
Na5 O19 2.951370 1_556
Na5 O33 2.993347 1_655
Na6 O56 2.426087 1_555
Na6 O39 2.490489 1_655
Na6 O5 2.627245 1_555
Na6 O41 2.645218 1_545
Na6 O55 2.797919 1_555
Na6 O34 2.843459 1_545
Na6 O24 2.940787 1_545
Na6 O20 2.968314 1_556
Na7 O37 2.395163 1_555
Na7 O57 2.524028 1_555
Na7 O59 2.525229 1_555
Na7 O2 2.555474 1_555
Na7 O30 2.798246 1_655
Na7 O38 2.812056 1_655
Na7 O23 2.907127 1_555
Na8 O36 2.328603 1_555
Na8 O37 2.615389 1_565
Na8 O58 2.664876 1_555
Na8 O27 2.666792 1_555
Na8 O59 2.667734 1_555
Na8 O22 2.806012 1_555
Na9 O44 2.345596 1_455
Na9 O36 2.452981 1_455
Na9 O43 2.563208 1_565
Na9 O42 2.747816 1_465
Na9 O37 2.751580 1_465
Na9 O38 2.952813 1_565
Na10 O45 2.406518 1_456
Na10 O40 2.574810 1_555
Na10 O41 2.582171 1_455
Na10 O47 2.646418 1_566
Na10 O46 2.808154 1_466
Na10 O39 2.931483 1_565
Na11 O48 2.520717 1_555
Na11 O49 2.583820 1_555
Na11 O56 2.625515 1_555
Na11 O54 2.690450 1_555
Na11 O55 2.747861 1_555
Na11 O50 2.943522 1_555
Na12 O52 2.522545 1_555
Na12 O57 2.614196 1_555
Na12 O59 2.672509 1_555
Na12 O58 2.709352 1_555
Na12 O53 2.729475 1_555
Na12 O51 2.948805 1_555
Na13 O61 2.414092 1_555
Na13 O68 2.471434 1_555
Na13 O60 2.596050 1_555
Na13 O66 2.870971 1_555
Na13 O62 2.913670 1_555
Na13 O67 3.009564 1_555
Na14 O69 2.511108 1_555
Na14 O64 2.635627 1_555
Na14 O71 2.670026 1_555
Na14 O70 2.752198 1_555
Na14 O65 2.791556 1_555
O0 S0 1.473803 1_545
O0 Y0 2.303191 1_455
O1 S1 1.494956 1_555
O1 Y0 2.263558 1_565
O2 Si0 1.647736 1_655
O2 Y0 2.158281 1_555
O3 Si1 1.616325 1_555
O3 Y1 2.109702 1_555
O4 S2 1.486204 1_655
O4 Y1 2.307945 1_665
O5 Si2 1.611768 1_545
O5 Y1 2.186814 1_655
O6 Si2 1.648746 1_555
O6 Y2 2.168474 1_565
O7 Si1 1.634228 1_555
O7 Y2 2.146812 1_455
O8 S2 1.494200 1_555
O8 Y2 2.304222 1_465
O9 S1 1.475357 1_555
O9 Y3 2.365492 1_665
O10 Si0 1.626426 1_555
O10 Y3 2.135488 1_555
O11 S0 1.476762 1_555
O11 Y3 2.342947 1_565
O12 S3 1.471924 1_555
O12 Y4 2.287815 1_555
O13 S4 1.488732 1_555
O13 Y4 2.232589 1_555
O14 Si3 1.615466 1_555
O14 Y4 2.139713 1_555
O15 Si4 1.640574 1_555
O15 Y5 2.064643 1_555
O16 S5 1.498846 1_555
O16 Y5 2.183425 1_555
O17 S6 1.474960 1_555
O17 Y5 2.250475 1_555
O18 S6 1.506570 1_555
O18 Ti0 2.007870 1_554
O19 Si4 1.741400 1_555
O19 Ti0 1.844520 1_554
O20 S5 1.470868 1_555
O20 Ti0 2.410807 1_554
O21 S4 1.477090 1_555
O21 Ti1 2.228807 1_555
O22 Si3 1.722260 1_555
O22 Ti1 1.841668 1_555
O23 S3 1.512839 1_555
O23 Ti1 2.057571 1_555
O24 Si5 1.582652 1_555
O24 Y6 2.150148 1_556
O25 S7 1.464651 1_555
O25 Y6 2.268073 1_556
O26 Si6 1.605269 1_555
O26 Y6 2.085350 1_556
O27 Si7 1.630025 1_555
O27 Y7 2.141301 1_555
O28 S8 1.472442 1_555
O28 Y7 2.275322 1_555
O29 Si8 1.598722 1_555
O29 Y7 2.127537 1_555
O30 Si8 1.644575 1_555
O30 Y8 2.154752 1_555
O31 Si7 1.645052 1_555
O31 Y8 2.233984 1_555
O32 S8 1.490697 1_555
O32 Y8 2.311567 1_555
O33 S7 1.473675 1_555
O33 Ti2 2.465043 1_555
O34 Si6 1.706749 1_555
O34 Ti2 1.953110 1_555
O35 Si5 1.690721 1_555
O35 Ti2 1.837945 1_555
O36 Si8 1.623598 1_655
O36 Y0 2.238354 1_565
O37 Si7 1.655837 1_545
O37 Y0 2.179661 1_555
O38 S8 1.475369 1_555
O38 Y0 2.278942 1_455
O39 S7 1.493613 1_555
O39 Y1 2.284888 1_555
O40 Si6 1.620689 1_555
O40 Y1 2.208645 1_565
O41 Si5 1.624798 1_555
O41 Y1 2.306785 1_665
O42 S3 1.494978 1_555
O42 Y2 2.450994 1_555
O43 S4 1.479998 1_555
O43 Y2 2.453586 1_455
O44 Si3 1.648566 1_555
O44 Y2 2.327061 1_565
O45 Si4 1.634440 1_555
O45 Y3 2.210116 1_665
O46 S5 1.491443 1_555
O46 Y3 2.272076 1_655
O47 S6 1.488376 1_555
O47 Y3 2.319634 1_555
O48 Si2 1.630486 1_545
O48 Y4 2.244210 1_555
O49 Si1 1.657825 1_555
O49 Y4 2.160545 1_555
O50 S2 1.485569 1_655
O50 Y4 2.279514 1_555
O51 S1 1.485792 1_555
O51 Y5 2.333193 1_555
O52 Si0 1.685431 1_655
O52 Y5 2.215274 1_555
O53 S0 1.487350 1_545
O53 Y5 2.417496 1_555
O54 Si5 1.698579 1_555
O54 Ti0 1.848717 1_555
O55 S7 1.529191 1_655
O55 Ti0 2.243415 1_555
O56 Si6 1.689090 1_545
O56 Ti0 2.009251 1_555
O57 Si7 1.669542 1_545
O57 Ti1 1.944969 1_555
O58 S8 1.490064 1_555
O58 Ti1 2.184195 1_555
O59 Si8 1.714240 1_655
O59 Ti1 1.858863 1_555
O60 S6 1.466267 1_555
O60 Y6 2.386910 1_555
O61 Si4 1.619127 1_455
O61 Y6 2.179434 1_555
O62 S5 1.480776 1_565
O62 Y6 2.277085 1_555
O63 S4 1.499178 1_565
O63 Y7 2.255920 1_555
O64 Si3 1.644821 1_555
O64 Y7 2.220469 1_555
O65 S3 1.467670 1_455
O65 Y7 2.360238 1_555
O66 S0 1.505453 1_555
O66 Y8 2.373624 1_555
O67 S1 1.482968 1_555
O67 Y8 2.444234 1_555
O68 Si0 1.651386 1_555
O68 Y8 2.223851 1_555
O69 Si1 1.675959 1_555
O69 Ti2 1.924982 1_555
O70 S2 1.474187 1_555
O70 Ti2 2.447336 1_555
O71 Si2 1.714123 1_555
O71 Ti2 1.867416 1_555
