# generated using pymatgen
data_Co9Se8
_symmetry_space_group_name_H-M   'P 1'
_cell_length_a   7.23290554
_cell_length_b   7.23294298
_cell_length_c   7.23291486
_cell_angle_alpha   60.00013328
_cell_angle_beta   59.99996206
_cell_angle_gamma   60.00011814
_symmetry_Int_Tables_number   1
_chemical_formula_structural   Co9Se8
_chemical_formula_sum   'Co9 Se8'
_cell_volume   267.56351391
_cell_formula_units_Z   1
loop_
 _symmetry_equiv_pos_site_id
 _symmetry_equiv_pos_as_xyz
  1  'x, y, z'
loop_
 _atom_site_type_symbol
 _atom_site_label
 _atom_site_symmetry_multiplicity
 _atom_site_fract_x
 _atom_site_fract_y
 _atom_site_fract_z
 _atom_site_occupancy
  Co  Co0  1  0.50000574  0.50001041  0.49999142  1
  Co  Co1  1  0.12328988  0.12328973  0.12329241  1
  Co  Co2  1  0.87671282  0.87670298  0.36987232  1
  Co  Co3  1  0.36986990  0.87670057  0.87671277  1
  Co  Co4  1  0.87670896  0.36987700  0.87670602  1
  Co  Co5  1  0.63012245  0.12329498  0.12329178  1
  Co  Co6  1  0.12329394  0.63012024  0.12329391  1
  Co  Co7  1  0.12328988  0.12328973  0.63012997  1
  Co  Co8  1  0.87671282  0.87670298  0.87670988  1
  Se  Se0  1  0.24998956  0.25001573  0.24999736  1
  Se  Se1  1  0.74999543  0.74999263  0.75000547  1
  Se  Se2  1  0.73640622  0.26359991  0.26359069  1
  Se  Se3  1  0.73643583  0.73641211  0.26357703  1
  Se  Se4  1  0.26360194  0.26358559  0.73640573  1
  Se  Se5  1  0.73640622  0.26359991  0.73640319  1
  Se  Se6  1  0.26357969  0.73640225  0.26358071  1
  Se  Se7  1  0.26357969  0.73640225  0.73643935  1
loop_
_geom_bond_atom_site_label_1
_geom_bond_atom_site_label_2
_geom_bond_distance
_geom_bond_site_symmetry_2
Co0 Se2 2.418170 1_555
Co0 Se5 2.418175 1_555
Co0 Se4 2.418258 1_555
Co0 Se3 2.418274 1_555
Co0 Se6 2.418300 1_555
Co0 Se7 2.418316 1_555
Co1 Se0 2.244919 1_555
Co1 Se2 2.289212 1_455
Co1 Se4 2.289232 1_554
Co1 Se6 2.289237 1_545
Co2 Se1 2.244934 1_555
Co2 Se3 2.289084 1_555
Co2 Se6 2.289105 1_655
Co2 Se2 2.289305 1_565
Co3 Se1 2.244886 1_555
Co3 Se7 2.289079 1_555
Co3 Se6 2.289115 1_556
Co3 Se4 2.289239 1_565
Co4 Se1 2.244843 1_555
Co4 Se5 2.289208 1_555
Co4 Se2 2.289220 1_556
Co4 Se4 2.289261 1_655
Co5 Se0 2.244930 1_555
Co5 Se3 2.289208 1_545
Co5 Se2 2.289236 1_555
Co5 Se5 2.289242 1_554
Co6 Se0 2.244778 1_555
Co6 Se6 2.289037 1_555
Co6 Se7 2.289037 1_554
Co6 Se3 2.289051 1_455
Co7 Se0 2.244931 1_555
Co7 Se5 2.289213 1_455
Co7 Se4 2.289215 1_555
Co7 Se7 2.289237 1_545
Co8 Se1 2.244928 1_555
Co8 Se7 2.289103 1_655
Co8 Se3 2.289107 1_556
Co8 Se5 2.289304 1_565
