# generated using pymatgen
data_Ta
_symmetry_space_group_name_H-M   'P 1'
_cell_length_a   5.80074400
_cell_length_b   5.80074429
_cell_length_c   10.33254800
_cell_angle_alpha   90.00000000
_cell_angle_beta   90.00000000
_cell_angle_gamma   119.99999834
_symmetry_Int_Tables_number   1
_chemical_formula_structural   Ta
_chemical_formula_sum   Ta16
_cell_volume   301.09635018
_cell_formula_units_Z   16
loop_
 _symmetry_equiv_pos_site_id
 _symmetry_equiv_pos_as_xyz
  1  'x, y, z'
loop_
 _atom_site_type_symbol
 _atom_site_label
 _atom_site_symmetry_multiplicity
 _atom_site_fract_x
 _atom_site_fract_y
 _atom_site_fract_z
 _atom_site_occupancy
  Ta  Ta0_0  1  0.00000000  0.00000000  0.00000000  1
  Ta  Ta0_1  1  0.00000000  0.00000000  0.50000000  1
  Ta  Ta0_2  1  0.00000000  0.50000000  0.00000000  1
  Ta  Ta0_3  1  0.00000000  0.50000000  0.50000000  1
  Ta  Ta0_4  1  0.50000000  0.00000000  0.00000000  1
  Ta  Ta0_5  1  0.50000000  0.00000000  0.50000000  1
  Ta  Ta0_6  1  0.50000000  0.50000000  0.00000000  1
  Ta  Ta0_7  1  0.50000000  0.50000000  0.50000000  1
  Ta  Ta1_0  1  0.33333350  0.16666650  0.25000000  1
  Ta  Ta1_1  1  0.33333350  0.16666650  0.75000000  1
  Ta  Ta1_2  1  0.33333350  0.66666650  0.25000000  1
  Ta  Ta1_3  1  0.33333350  0.66666650  0.75000000  1
  Ta  Ta1_4  1  0.83333350  0.16666650  0.25000000  1
  Ta  Ta1_5  1  0.83333350  0.16666650  0.75000000  1
  Ta  Ta1_6  1  0.83333350  0.66666650  0.25000000  1
  Ta  Ta1_7  1  0.83333350  0.66666650  0.75000000  1
loop_
_geom_bond_atom_site_label_1
_geom_bond_atom_site_label_2
_geom_bond_distance
_geom_bond_site_symmetry_2
Ta0_0 Ta0_4 2.900372 1_455
Ta0_0 Ta0_4 2.900372 1_555
Ta0_0 Ta0_2 2.900372 1_545
Ta0_0 Ta0_6 2.900372 1_555
Ta0_0 Ta0_6 2.900372 1_445
Ta0_0 Ta0_2 2.900372 1_555
Ta0_0 Ta1_4 3.078416 1_455
Ta0_0 Ta1_5 3.078416 1_454
Ta0_0 Ta1_1 3.078417 1_554
Ta0_0 Ta1_0 3.078417 1_555
Ta0_0 Ta1_7 3.078417 1_444
Ta0_0 Ta1_6 3.078417 1_445
Ta0_1 Ta0_5 2.900372 1_555
Ta0_1 Ta0_5 2.900372 1_455
Ta0_1 Ta0_7 2.900372 1_445
Ta0_1 Ta0_3 2.900372 1_545
Ta0_1 Ta0_3 2.900372 1_555
Ta0_1 Ta0_7 2.900372 1_555
Ta0_1 Ta1_4 3.078416 1_455
Ta0_1 Ta1_5 3.078416 1_455
Ta0_1 Ta1_0 3.078417 1_555
Ta0_1 Ta1_1 3.078417 1_555
Ta0_1 Ta1_7 3.078417 1_445
Ta0_1 Ta1_6 3.078417 1_445
Ta0_2 Ta0_6 2.900372 1_555
Ta0_2 Ta0_6 2.900372 1_455
Ta0_2 Ta0_4 2.900372 1_565
Ta0_2 Ta0_4 2.900372 1_455
Ta0_2 Ta1_6 3.078416 1_455
Ta0_2 Ta1_7 3.078416 1_454
Ta0_2 Ta1_3 3.078417 1_554
Ta0_2 Ta1_2 3.078417 1_555
Ta0_2 Ta1_4 3.078417 1_455
Ta0_2 Ta1_5 3.078417 1_454
Ta0_3 Ta0_7 2.900372 1_455
Ta0_3 Ta0_7 2.900372 1_555
Ta0_3 Ta0_5 2.900372 1_565
Ta0_3 Ta0_5 2.900372 1_455
Ta0_3 Ta1_7 3.078416 1_455
Ta0_3 Ta1_6 3.078416 1_455
Ta0_3 Ta1_2 3.078417 1_555
Ta0_3 Ta1_3 3.078417 1_555
Ta0_3 Ta1_4 3.078417 1_455
Ta0_3 Ta1_5 3.078417 1_455
Ta0_4 Ta0_6 2.900372 1_555
Ta0_4 Ta0_6 2.900372 1_545
Ta0_4 Ta1_1 3.078416 1_554
Ta0_4 Ta1_0 3.078416 1_555
Ta0_4 Ta1_4 3.078417 1_555
Ta0_4 Ta1_5 3.078417 1_554
Ta0_4 Ta1_3 3.078417 1_544
Ta0_4 Ta1_2 3.078417 1_545
Ta0_5 Ta0_7 2.900372 1_545
Ta0_5 Ta0_7 2.900372 1_555
Ta0_5 Ta1_1 3.078416 1_555
Ta0_5 Ta1_0 3.078416 1_555
Ta0_5 Ta1_4 3.078417 1_555
Ta0_5 Ta1_5 3.078417 1_555
Ta0_5 Ta1_2 3.078417 1_545
Ta0_5 Ta1_3 3.078417 1_545
Ta0_6 Ta1_3 3.078416 1_554
Ta0_6 Ta1_2 3.078416 1_555
Ta0_6 Ta1_7 3.078417 1_554
Ta0_6 Ta1_6 3.078417 1_555
Ta0_6 Ta1_0 3.078417 1_555
Ta0_6 Ta1_1 3.078417 1_554
Ta0_7 Ta1_2 3.078416 1_555
Ta0_7 Ta1_3 3.078416 1_555
Ta0_7 Ta1_7 3.078417 1_555
Ta0_7 Ta1_6 3.078417 1_555
Ta0_7 Ta1_0 3.078417 1_555
Ta0_7 Ta1_1 3.078417 1_555
Ta1_0 Ta1_4 2.900372 1_455
Ta1_0 Ta1_4 2.900372 1_555
Ta1_0 Ta1_2 2.900372 1_555
Ta1_0 Ta1_6 2.900372 1_555
Ta1_0 Ta1_2 2.900372 1_545
Ta1_0 Ta1_6 2.900372 1_445
Ta1_1 Ta1_5 2.900372 1_455
Ta1_1 Ta1_5 2.900372 1_555
Ta1_1 Ta1_3 2.900372 1_555
Ta1_1 Ta1_7 2.900372 1_555
Ta1_1 Ta1_3 2.900372 1_545
Ta1_1 Ta1_7 2.900372 1_445
Ta1_2 Ta1_6 2.900372 1_455
Ta1_2 Ta1_6 2.900372 1_555
Ta1_2 Ta1_4 2.900372 1_455
Ta1_2 Ta1_4 2.900372 1_565
Ta1_3 Ta1_7 2.900372 1_455
Ta1_3 Ta1_7 2.900372 1_555
Ta1_3 Ta1_5 2.900372 1_455
Ta1_3 Ta1_5 2.900372 1_565
Ta1_4 Ta1_6 2.900372 1_545
Ta1_4 Ta1_6 2.900372 1_555
Ta1_5 Ta1_7 2.900372 1_545
Ta1_5 Ta1_7 2.900372 1_555
