# generated using pymatgen
data_Sr3MgMn2O7
_symmetry_space_group_name_H-M   'P 1'
_cell_length_a   3.77905617
_cell_length_b   3.77905562
_cell_length_c   13.01065664
_cell_angle_alpha   98.35055135
_cell_angle_beta   98.35055005
_cell_angle_gamma   90.00000524
_symmetry_Int_Tables_number   1
_chemical_formula_structural   Sr3MgMn2O7
_chemical_formula_sum   'Sr3 Mg1 Mn2 O7'
_cell_volume   181.84740567
_cell_formula_units_Z   1
loop_
 _symmetry_equiv_pos_site_id
 _symmetry_equiv_pos_as_xyz
  1  'x, y, z'
loop_
 _atom_site_type_symbol
 _atom_site_label
 _atom_site_symmetry_multiplicity
 _atom_site_fract_x
 _atom_site_fract_y
 _atom_site_fract_z
 _atom_site_occupancy
  Sr  Sr0  1  0.49999900  0.50000000  0.00000000  1
  Sr  Sr1  1  0.34223100  0.34223300  0.68446500  1
  Sr  Sr2  1  0.65776900  0.65776700  0.31553400  1
  Mg  Mg0  1  0.75000000  0.25000000  0.50000000  1
  Mn  Mn0  1  0.08097000  0.08097000  0.16194000  1
  Mn  Mn1  1  0.91903000  0.91903000  0.83806000  1
  O  O0  1  0.90578800  0.40578900  0.81157900  1
  O  O1  1  0.40802500  0.90802500  0.81605000  1
  O  O2  1  0.09197600  0.59197500  0.18395000  1
  O  O3  1  0.59421100  0.09421100  0.18842100  1
  O  O4  1  0.79074800  0.79075000  0.58149800  1
  O  O5  1  0.00000000  0.00000000  0.00000000  1
  O  O6  1  0.20925000  0.20925000  0.41850200  1
loop_
_geom_bond_atom_site_label_1
_geom_bond_atom_site_label_2
_geom_bond_distance
_geom_bond_site_symmetry_2
Mg0 O4 2.155736 1_545
Mg0 O6 2.155737 1_655
Mg0 O4 2.155743 1_555
Mg0 O6 2.155743 1_555
Mn0 O2 1.910199 1_545
Mn0 O2 1.910199 1_555
Mn0 O3 1.919377 1_455
Mn0 O3 1.919380 1_555
Mn0 O5 2.062028 1_555
Mn1 O1 1.910199 1_655
Mn1 O1 1.910199 1_555
Mn1 O0 1.919376 1_565
Mn1 O0 1.919380 1_555
Mn1 O5 2.062028 1_666
O0 Sr1 2.487994 1_655
O0 Sr1 2.487994 1_555
O0 Sr0 3.053941 1_556
O0 Sr0 3.053944 1_656
O1 Sr1 2.525399 1_555
O1 Sr1 2.525402 1_565
O1 Sr0 3.009423 1_556
O1 Sr0 3.009423 1_566
O2 Sr2 2.525389 1_455
O2 Sr2 2.525395 1_555
O2 Sr0 3.009418 1_555
O2 Sr0 3.009428 1_455
O3 Sr2 2.487984 1_555
O3 Sr2 2.487987 1_545
O3 Sr0 3.053941 1_555
O3 Sr0 3.053944 1_545
O4 Sr1 2.976512 1_665
O4 Sr1 2.976514 1_565
O4 Sr1 2.976514 1_655
O4 Sr1 2.976516 1_555
O5 Sr0 2.672193 1_555
O5 Sr0 2.672193 1_545
O5 Sr0 2.672199 1_445
O5 Sr0 2.672199 1_455
O6 Sr2 2.976510 1_445
O6 Sr2 2.976515 1_455
O6 Sr2 2.976525 1_545
O6 Sr2 2.976529 1_555
