# generated using pymatgen
data_LuFe2
_symmetry_space_group_name_H-M   'P 1'
_cell_length_a   5.09379281
_cell_length_b   5.09377418
_cell_length_c   5.09381271
_cell_angle_alpha   59.99990740
_cell_angle_beta   60.00005817
_cell_angle_gamma   60.00016947
_symmetry_Int_Tables_number   1
_chemical_formula_structural   LuFe2
_chemical_formula_sum   'Lu2 Fe4'
_cell_volume   93.45647202
_cell_formula_units_Z   2
loop_
 _symmetry_equiv_pos_site_id
 _symmetry_equiv_pos_as_xyz
  1  'x, y, z'
loop_
 _atom_site_type_symbol
 _atom_site_label
 _atom_site_symmetry_multiplicity
 _atom_site_fract_x
 _atom_site_fract_y
 _atom_site_fract_z
 _atom_site_occupancy
  Lu  Lu0  1  0.87500000  0.87500000  0.87500000  1
  Lu  Lu1  1  0.12500100  0.12500000  0.12500000  1
  Fe  Fe0  1  0.50000000  0.50000000  0.50000000  1
  Fe  Fe1  1  0.50000000  0.50000000  0.00000000  1
  Fe  Fe2  1  -0.00000000  0.49999900  0.50000000  1
  Fe  Fe3  1  0.49999900  0.00000100  0.50000000  1
loop_
_geom_bond_atom_site_label_1
_geom_bond_atom_site_label_2
_geom_bond_distance
_geom_bond_site_symmetry_2
Lu0 Lu1 3.119288 1_656
Lu0 Lu1 3.119300 1_566
Lu0 Lu1 3.119302 1_666
Lu0 Lu1 3.119308 1_665
Fe0 Fe3 2.546885 1_555
Fe0 Fe3 2.546890 1_565
Fe0 Fe2 2.546894 1_655
Fe0 Fe2 2.546899 1_555
Fe0 Fe1 2.546906 1_556
Fe0 Fe1 2.546906 1_555
Fe0 Lu1 2.986497 1_556
Fe0 Lu1 2.986498 1_565
Fe0 Lu0 2.986499 1_554
Fe0 Lu0 2.986500 1_545
Fe0 Lu0 2.986510 1_455
Fe0 Lu1 2.986512 1_655
Fe1 Fe3 2.546891 1_555
Fe1 Fe3 2.546896 1_564
Fe1 Fe2 2.546904 1_555
Fe1 Fe2 2.546904 1_654
Fe1 Lu1 2.986486 1_555
Fe1 Lu0 2.986490 1_554
Fe1 Lu1 2.986498 1_565
Fe1 Lu0 2.986498 1_544
Fe1 Lu0 2.986506 1_454
Fe1 Lu1 2.986510 1_655
Fe2 Fe3 2.546891 1_555
Fe2 Fe3 2.546906 1_465
Fe2 Lu0 2.986482 1_445
Fe2 Lu1 2.986493 1_565
Fe2 Lu1 2.986498 1_555
Fe2 Lu0 2.986509 1_455
Fe2 Lu0 2.986509 1_454
Fe2 Lu1 2.986511 1_556
Fe3 Lu0 2.986497 1_445
Fe3 Lu1 2.986501 1_555
Fe3 Lu1 2.986506 1_655
Fe3 Lu0 2.986510 1_545
Fe3 Lu1 2.986512 1_556
Fe3 Lu0 2.986516 1_544
