# generated using pymatgen
data_BaPrMg(CoO3)2
_symmetry_space_group_name_H-M   'P 1'
_cell_length_a   3.74186266
_cell_length_b   4.02766867
_cell_length_c   9.76462585
_cell_angle_alpha   101.84314383
_cell_angle_beta   83.48938218
_cell_angle_gamma   89.65622765
_symmetry_Int_Tables_number   1
_chemical_formula_structural   BaPrMg(CoO3)2
_chemical_formula_sum   'Ba1 Pr1 Mg1 Co2 O6'
_cell_volume   143.03616481
_cell_formula_units_Z   1
loop_
 _symmetry_equiv_pos_site_id
 _symmetry_equiv_pos_as_xyz
  1  'x, y, z'
loop_
 _atom_site_type_symbol
 _atom_site_label
 _atom_site_symmetry_multiplicity
 _atom_site_fract_x
 _atom_site_fract_y
 _atom_site_fract_z
 _atom_site_occupancy
  Ba  Ba0  1  0.15061983  0.82698707  0.05507006  1
  Pr  Pr0  1  0.06371793  0.03584978  0.44655287  1
  Mg  Mg0  1  0.73836295  0.21230610  0.81882796  1
  Co  Co0  1  0.29919367  0.65819260  0.69391747  1
  Co  Co1  1  0.59805915  0.43046858  0.25544930  1
  O  O0  1  0.77338622  0.69668088  0.79230444  1
  O  O1  1  0.26451886  0.15499397  0.71054026  1
  O  O2  1  0.08809169  0.44304804  0.28386888  1
  O  O3  1  0.59359777  0.94179534  0.28105362  1
  O  O4  1  0.50602629  0.53150185  0.49568801  1
  O  O5  1  0.65775864  0.31817580  0.03339613  1
loop_
_geom_bond_atom_site_label_1
_geom_bond_atom_site_label_2
_geom_bond_distance
_geom_bond_site_symmetry_2
Ba0 O5 2.744048 1_555
Ba0 O5 2.752521 1_465
Ba0 O5 2.757081 1_455
Ba0 O5 2.772278 1_565
Ba0 O3 2.820285 1_455
Ba0 O3 2.872360 1_555
Ba0 O2 2.956565 1_555
Ba0 O2 2.966809 1_565
Ba0 O0 3.021388 1_454
Ba0 O0 3.219599 1_554
Mg0 O0 2.023125 1_555
Mg0 O5 2.037401 1_556
Mg0 O0 2.040950 1_545
Mg0 O1 2.114191 1_655
Mg0 O1 2.155222 1_555
Co0 O4 1.963713 1_555
Co0 O1 1.976305 1_565
Co0 O1 2.069825 1_555
Co0 O0 2.079570 1_455
Co0 O0 2.103356 1_555
Co1 O2 1.884815 1_655
Co1 O2 1.895757 1_555
Co1 O3 2.022729 1_555
Co1 O3 2.034228 1_545
Co1 O5 2.107666 1_555
Co1 O4 2.282640 1_555
O1 Pr0 2.715765 1_555
O2 Pr0 2.501986 1_555
O2 Pr0 2.576855 1_565
O3 Pr0 2.387344 1_565
O3 Pr0 2.500200 1_665
O4 Pr0 2.604091 1_555
O4 Pr0 2.763251 1_565
O4 Pr0 2.810705 1_655
O4 Pr0 2.989177 1_665
