# generated using pymatgen
data_Na4TiZnSi2SO12
_symmetry_space_group_name_H-M   'P 1'
_cell_length_a   9.12807728
_cell_length_b   9.11267273
_cell_length_c   21.99793556
_cell_angle_alpha   90.47450559
_cell_angle_beta   90.00000000
_cell_angle_gamma   120.05593552
_symmetry_Int_Tables_number   1
_chemical_formula_structural   Na4TiZnSi2SO12
_chemical_formula_sum   'Na24 Ti6 Zn6 Si12 S6 O72'
_cell_volume   1583.69919156
_cell_formula_units_Z   6
loop_
 _symmetry_equiv_pos_site_id
 _symmetry_equiv_pos_as_xyz
  1  'x, y, z'
loop_
 _atom_site_type_symbol
 _atom_site_label
 _atom_site_symmetry_multiplicity
 _atom_site_fract_x
 _atom_site_fract_y
 _atom_site_fract_z
 _atom_site_occupancy
  Na  Na0  1  0.64579617  0.02070816  0.25255146  1
  Na  Na1  1  0.36899420  0.35745410  0.24540077  1
  Na  Na2  1  0.98904986  0.61961830  0.24103592  1
  Na  Na3  1  0.63056844  0.61961830  0.74103592  1
  Na  Na4  1  0.98845990  0.35745410  0.74540077  1
  Na  Na5  1  0.37491199  0.02070816  0.75255146  1
  Na  Na6  1  0.31246317  0.35404116  0.58588446  1
  Na  Na7  1  0.03566120  0.69078710  0.57873377  1
  Na  Na8  1  0.65571686  0.95295130  0.57436892  1
  Na  Na9  1  0.29723544  0.95295130  0.07436892  1
  Na  Na10  1  0.65512690  0.69078710  0.07873377  1
  Na  Na11  1  0.04157899  0.35404116  0.08588446  1
  Na  Na12  1  0.97912917  0.68737516  0.91921846  1
  Na  Na13  1  0.70232720  0.02412110  0.91206777  1
  Na  Na14  1  0.32238286  0.28628530  0.90770292  1
  Na  Na15  1  0.96390144  0.28628530  0.40770292  1
  Na  Na16  1  0.32179290  0.02412110  0.41206777  1
  Na  Na17  1  0.70824499  0.68737516  0.41921846  1
  Na  Na18  1  0.98600720  0.98828271  0.49469134  1
  Na  Na19  1  0.00227551  0.98828271  0.99469134  1
  Na  Na20  1  0.65267420  0.32161571  0.82802434  1
  Na  Na21  1  0.66894251  0.32161571  0.32802434  1
  Na  Na22  1  0.31934020  0.65494971  0.16135834  1
  Na  Na23  1  0.33560851  0.65494971  0.66135834  1
  Ti  Ti0  1  0.98267112  0.01108904  0.64705254  1
  Ti  Ti1  1  0.02841791  0.01108904  0.14705254  1
  Ti  Ti2  1  0.64933812  0.34442204  0.98038554  1
  Ti  Ti3  1  0.69508491  0.34442204  0.48038554  1
  Ti  Ti4  1  0.31600412  0.67775604  0.31371954  1
  Ti  Ti5  1  0.36175091  0.67775604  0.81371954  1
  Zn  Zn0  1  -0.00025836  0.00176139  0.34852407  1
  Zn  Zn1  1  0.00201975  0.00176139  0.84852407  1
  Zn  Zn2  1  0.66640864  0.33509439  0.68185707  1
  Zn  Zn3  1  0.66868675  0.33509439  0.18185707  1
  Zn  Zn4  1  0.33307464  0.66842839  0.01519107  1
  Zn  Zn5  1  0.33535275  0.66842839  0.51519107  1
  Si  Si0  1  0.29809327  0.00329674  0.25333585  1
  Si  Si1  1  0.00377109  0.29413362  0.25235973  1
  Si  Si2  1  0.29036254  0.29413362  0.75235973  1
  Si  Si3  1  0.70520347  0.00329674  0.75333585  1
  Si  Si4  1  0.96476027  0.33662974  0.58666885  1
  Si  Si5  1  0.67043809  0.62746662  0.58569273  1
  Si  Si6  1  0.95702954  0.62746662  0.08569273  1
  Si  Si7  1  0.37187047  0.33662974  0.08666885  1
  Si  Si8  1  0.63142627  0.66996374  0.92000285  1
  Si  Si9  1  0.33710409  0.96080062  0.91902673  1
  Si  Si10  1  0.62369554  0.96080062  0.41902673  1
  Si  Si11  1  0.03853647  0.66996374  0.42000285  1
  S  S0  1  0.70322554  0.70966104  0.25056921  1
  S  S1  1  0.00643550  0.70966104  0.75056921  1
  S  S2  1  0.36989254  0.04299404  0.58390221  1
  S  S3  1  0.67310250  0.04299404  0.08390221  1
  S  S4  1  0.03655854  0.37632804  0.91723621  1
  S  S5  1  0.33976850  0.37632804  0.41723621  1
  O  O0  1  0.21202735  0.02862376  0.31264691  1
  O  O1  1  0.80070836  0.78691985  0.30703021  1
  O  O2  1  0.96960783  0.18136593  0.31200174  1
  O  O3  1  0.21175811  0.18136593  0.81200174  1
  O  O4  1  0.98621150  0.78691985  0.80703021  1
  O  O5  1  0.81659641  0.02862376  0.81264691  1
  O  O6  1  0.79901191  0.97166641  0.69199857  1
  O  O7  1  0.15992692  0.18903374  0.69238098  1
  O  O8  1  0.02486500  0.81459033  0.69611363  1
  O  O9  1  0.78972533  0.81459033  0.19611363  1
  O  O10  1  0.02910682  0.18903374  0.19238098  1
  O  O11  1  0.17265450  0.97166641  0.19199857  1
  O  O12  1  0.87869435  0.36195676  0.64597991  1
  O  O13  1  0.46737536  0.12025285  0.64036321  1
  O  O14  1  0.63627483  0.51469893  0.64533474  1
  O  O15  1  0.87842511  0.51469893  0.14533474  1
  O  O16  1  0.65287850  0.12025285  0.14036321  1
  O  O17  1  0.48326341  0.36195676  0.14597991  1
  O  O18  1  0.46567891  0.30499941  0.02533157  1
  O  O19  1  0.82659392  0.52236674  0.02571398  1
  O  O20  1  0.69153200  0.14792333  0.02944663  1
  O  O21  1  0.45639233  0.14792333  0.52944663  1
  O  O22  1  0.69577382  0.52236674  0.52571398  1
  O  O23  1  0.83932150  0.30499941  0.52533157  1
  O  O24  1  0.54536035  0.69529076  0.97931391  1
  O  O25  1  0.13404136  0.45358685  0.97369721  1
  O  O26  1  0.30294083  0.84803293  0.97866874  1
  O  O27  1  0.54509111  0.84803293  0.47866874  1
  O  O28  1  0.31954450  0.45358685  0.47369721  1
  O  O29  1  0.14992941  0.69529076  0.47931391  1
  O  O30  1  0.13234491  0.63833341  0.35866557  1
  O  O31  1  0.49325992  0.85570074  0.35904798  1
  O  O32  1  0.35819800  0.48125733  0.36278063  1
  O  O33  1  0.12305833  0.48125733  0.86278063  1
  O  O34  1  0.36243982  0.85570074  0.85904798  1
  O  O35  1  0.50598750  0.63833341  0.85866557  1
  O  O36  1  0.00714901  0.82827219  0.41255838  1
  O  O37  1  0.81429093  0.99110706  0.41253956  1
  O  O38  1  0.18973698  0.20398700  0.41389335  1
  O  O39  1  0.01425002  0.20398700  0.91389335  1
  O  O40  1  0.17681613  0.99110706  0.91253956  1
  O  O41  1  0.82112318  0.82827219  0.91255838  1
  O  O42  1  0.97061650  0.15433121  0.58770120  1
  O  O43  1  0.19857733  0.02955887  0.58614272  1
  O  O44  1  0.85302034  0.81453853  0.58947185  1
  O  O45  1  0.96151819  0.81453853  0.08947185  1
  O  O46  1  0.83098154  0.02955887  0.08614272  1
  O  O47  1  0.18371471  0.15433121  0.08770120  1
  O  O48  1  0.67381601  0.16160519  0.74589138  1
  O  O49  1  0.48095793  0.32444006  0.74587256  1
  O  O50  1  0.85640398  0.53732000  0.74722635  1
  O  O51  1  0.68091702  0.53732000  0.24722635  1
  O  O52  1  0.84348313  0.32444006  0.24587256  1
  O  O53  1  0.48779018  0.16160519  0.24589138  1
  O  O54  1  0.63728350  0.48766421  0.92103420  1
  O  O55  1  0.86524433  0.36289187  0.91947572  1
  O  O56  1  0.51968734  0.14787153  0.92280485  1
  O  O57  1  0.62818519  0.14787153  0.42280485  1
  O  O58  1  0.49764854  0.36289187  0.41947572  1
  O  O59  1  0.85038171  0.48766421  0.42103420  1
  O  O60  1  0.34048201  0.49493919  0.07922538  1
  O  O61  1  0.14762393  0.65777406  0.07920656  1
  O  O62  1  0.52306998  0.87065400  0.08056035  1
  O  O63  1  0.34758302  0.87065400  0.58056035  1
  O  O64  1  0.51014913  0.65777406  0.57920656  1
  O  O65  1  0.15445618  0.49493919  0.57922538  1
  O  O66  1  0.30394950  0.82099821  0.25436820  1
  O  O67  1  0.53191033  0.69622587  0.25280972  1
  O  O68  1  0.18635334  0.48120553  0.25613885  1
  O  O69  1  0.29485119  0.48120553  0.75613885  1
  O  O70  1  0.16431454  0.69622587  0.75280972  1
  O  O71  1  0.51704771  0.82099821  0.75436820  1
loop_
_geom_bond_atom_site_label_1
_geom_bond_atom_site_label_2
_geom_bond_distance
_geom_bond_site_symmetry_2
Na0 O53 2.368178 1_555
Na0 O52 2.437695 1_555
Na0 O67 2.597150 1_545
Na0 O16 2.626016 1_555
Na0 O66 2.713545 1_545
Na0 O31 2.765699 1_545
Na0 O2 2.867739 1_555
Na1 O17 2.414844 1_555
Na1 O68 2.446584 1_555
Na1 O51 2.473700 1_555
Na1 O53 2.509993 1_555
Na1 O67 2.676074 1_555
Na1 O32 2.830712 1_555
Na1 O10 2.922688 1_555
Na1 O0 2.998844 1_555
Na2 O15 2.316324 1_555
Na2 O52 2.331695 1_555
Na2 O51 2.526022 1_555
Na2 O66 2.534415 1_655
Na2 O68 2.688362 1_655
Na2 O30 2.864426 1_655
Na2 O11 2.989308 1_655
Na3 O14 2.316326 1_555
Na3 O49 2.331695 1_555
Na3 O50 2.526031 1_555
Na3 O71 2.534422 1_555
Na3 O69 2.688370 1_555
Na3 O35 2.864429 1_555
Na3 O6 2.989308 1_555
Na4 O12 2.414841 1_555
Na4 O69 2.446576 1_655
Na4 O50 2.473693 1_555
Na4 O48 2.509985 1_555
Na4 O70 2.676073 1_655
Na4 O33 2.830710 1_655
Na4 O7 2.922688 1_655
Na4 O5 2.998844 1_555
Na5 O48 2.368186 1_555
Na5 O49 2.437693 1_555
Na5 O70 2.597151 1_545
Na5 O13 2.626017 1_555
Na5 O71 2.713538 1_545
Na5 O34 2.765697 1_545
Na5 O3 2.867739 1_555
Na6 O65 2.368192 1_555
Na6 O64 2.437699 1_555
Na6 O43 2.597150 1_555
Na6 O28 2.626000 1_555
Na6 O42 2.713545 1_455
Na6 O7 2.765699 1_555
Na6 O14 2.867739 1_555
Na7 O29 2.414819 1_555
Na7 O44 2.446584 1_455
Na7 O63 2.473694 1_555
Na7 O65 2.509977 1_555
Na7 O43 2.676074 1_565
Na7 O8 2.830712 1_555
Na7 O22 2.922688 1_455
Na7 O12 2.998844 1_455
Na8 O27 2.316304 1_555
Na8 O64 2.331688 1_555
Na8 O63 2.526035 1_555
Na8 O42 2.534415 1_565
Na8 O44 2.688362 1_555
Na8 O6 2.864426 1_555
Na8 O23 2.989308 1_565
Na9 O26 2.316300 1_554
Na9 O61 2.331688 1_555
Na9 O62 2.526017 1_555
Na9 O47 2.534422 1_565
Na9 O45 2.688370 1_455
Na9 O11 2.864429 1_555
Na9 O18 2.989308 1_565
Na10 O24 2.414827 1_554
Na10 O45 2.446576 1_555
Na10 O62 2.473709 1_555
Na10 O60 2.509991 1_555
Na10 O46 2.676073 1_565
Na10 O9 2.830710 1_555
Na10 O19 2.922688 1_555
Na10 O17 2.998844 1_555
Na11 O60 2.368176 1_555
Na11 O61 2.437702 1_555
Na11 O46 2.597151 1_455
Na11 O25 2.625997 1_554
Na11 O47 2.713538 1_555
Na11 O10 2.765697 1_555
Na11 O15 2.867739 1_455
Na12 O41 2.368178 1_555
Na12 O40 2.437695 1_655
Na12 O55 2.597160 1_555
Na12 O4 2.626016 1_555
Na12 O54 2.713538 1_555
Na12 O19 2.765681 1_556
Na12 O26 2.867739 1_655
Na13 O5 2.414844 1_555
Na13 O56 2.446566 1_555
Na13 O39 2.473700 1_655
Na13 O41 2.509993 1_545
Na13 O55 2.676064 1_555
Na13 O20 2.830686 1_556
Na13 O34 2.922688 1_545
Na13 O24 2.998844 1_545
Na14 O3 2.316324 1_555
Na14 O40 2.331695 1_545
Na14 O39 2.526022 1_555
Na14 O54 2.534418 1_555
Na14 O56 2.688375 1_555
Na14 O18 2.864411 1_556
Na14 O35 2.989308 1_555
Na15 O2 2.316326 1_555
Na15 O37 2.331695 1_545
Na15 O38 2.526031 1_655
Na15 O59 2.534404 1_555
Na15 O57 2.688358 1_555
Na15 O23 2.864403 1_555
Na15 O30 2.989308 1_655
Na16 O0 2.414841 1_555
Na16 O57 2.446583 1_555
Na16 O38 2.473693 1_555
Na16 O36 2.509985 1_545
Na16 O58 2.676065 1_555
Na16 O21 2.830691 1_555
Na16 O31 2.922688 1_545
Na16 O29 2.998844 1_545
Na17 O36 2.368186 1_655
Na17 O37 2.437693 1_555
Na17 O58 2.597157 1_555
Na17 O1 2.626017 1_555
Na17 O59 2.713553 1_555
Na17 O22 2.765685 1_555
Na17 O27 2.867739 1_555
Na18 O36 2.380329 1_655
Na18 O37 2.400952 1_555
Na18 O44 2.541050 1_555
Na18 O42 2.580160 1_565
Na18 O38 2.622491 1_665
Na18 O43 2.685137 1_665
Na19 O41 2.380329 1_455
Na19 O40 2.400952 1_555
Na19 O45 2.541050 1_456
Na19 O47 2.580160 1_566
Na19 O39 2.622491 1_565
Na19 O46 2.685137 1_466
Na20 O48 2.380329 1_555
Na20 O49 2.400952 1_555
Na20 O56 2.541050 1_555
Na20 O54 2.580160 1_555
Na20 O50 2.622491 1_555
Na20 O55 2.685137 1_555
Na21 O53 2.380329 1_555
Na21 O52 2.400952 1_555
Na21 O57 2.541050 1_555
Na21 O59 2.580160 1_555
Na21 O51 2.622491 1_555
Na21 O58 2.685137 1_555
Na22 O60 2.380329 1_555
Na22 O61 2.400952 1_555
Na22 O68 2.541050 1_555
Na22 O66 2.580160 1_555
Na22 O62 2.622491 1_555
Na22 O67 2.685137 1_555
Na23 O65 2.380329 1_555
Na23 O64 2.400952 1_555
Na23 O69 2.541050 1_555
Na23 O71 2.580160 1_555
Na23 O63 2.622491 1_555
Na23 O70 2.685137 1_555
O0 Si0 1.596682 1_555
O0 Zn0 1.991424 1_555
O1 S0 1.479215 1_555
O1 Zn0 2.091485 1_665
O2 Si1 1.604967 1_655
O2 Zn0 1.967887 1_655
O3 Si2 1.604967 1_555
O3 Zn1 1.967888 1_555
O4 S1 1.479215 1_655
O4 Zn1 2.091485 1_665
O5 Si3 1.596682 1_555
O5 Zn1 1.991424 1_655
O6 Si3 1.696378 1_565
O6 Ti0 1.822013 1_565
O7 Si2 1.706613 1_555
O7 Ti0 1.893871 1_455
O8 S1 1.495134 1_555
O8 Ti0 2.289604 1_465
O9 S0 1.495134 1_555
O9 Ti1 2.289604 1_665
O10 Si1 1.706613 1_555
O10 Ti1 1.893871 1_555
O11 Si0 1.696378 1_565
O11 Ti1 1.822014 1_565
O12 Si4 1.596682 1_555
O12 Zn2 1.991424 1_555
O13 S2 1.479215 1_555
O13 Zn2 2.091485 1_555
O14 Si5 1.604967 1_555
O14 Zn2 1.967887 1_555
O15 Si6 1.604967 1_555
O15 Zn3 1.967888 1_555
O16 S3 1.479215 1_555
O16 Zn3 2.091485 1_555
O17 Si7 1.596682 1_555
O17 Zn3 1.991424 1_555
O18 Si7 1.696378 1_555
O18 Ti2 1.822013 1_554
O19 Si6 1.706613 1_555
O19 Ti2 1.893871 1_554
O20 S3 1.495134 1_555
O20 Ti2 2.289604 1_554
O21 S2 1.495134 1_555
O21 Ti3 2.289604 1_555
O22 Si5 1.706613 1_555
O22 Ti3 1.893871 1_555
O23 Si4 1.696378 1_555
O23 Ti3 1.822014 1_555
O24 Si8 1.596682 1_555
O24 Zn4 1.991424 1_556
O25 S4 1.479215 1_555
O25 Zn4 2.091485 1_556
O26 Si9 1.604967 1_555
O26 Zn4 1.967887 1_556
O27 Si10 1.604967 1_555
O27 Zn5 1.967888 1_555
O28 S5 1.479215 1_555
O28 Zn5 2.091485 1_555
O29 Si11 1.596682 1_555
O29 Zn5 1.991424 1_555
O30 Si11 1.696378 1_555
O30 Ti4 1.822013 1_555
O31 Si10 1.706613 1_555
O31 Ti4 1.893871 1_555
O32 S5 1.495134 1_555
O32 Ti4 2.289604 1_555
O33 S4 1.495134 1_555
O33 Ti5 2.289604 1_555
O34 Si9 1.706613 1_555
O34 Ti5 1.893871 1_555
O35 Si8 1.696378 1_555
O35 Ti5 1.822014 1_555
O36 Si11 1.614920 1_555
O36 Zn0 2.152244 1_565
O37 Si10 1.625668 1_555
O37 Zn0 2.166959 1_665
O38 S5 1.480215 1_555
O38 Zn0 2.286105 1_555
O39 S4 1.480219 1_555
O39 Zn1 2.286105 1_555
O40 Si9 1.625659 1_555
O40 Zn1 2.166959 1_565
O41 Si8 1.614926 1_555
O41 Zn1 2.152244 1_665
O42 Si4 1.688972 1_555
O42 Ti0 1.895436 1_555
O43 S2 1.507031 1_555
O43 Ti0 2.319308 1_455
O44 Si5 1.685927 1_555
O44 Ti0 2.013003 1_565
O45 Si6 1.685931 1_555
O45 Ti1 2.013003 1_665
O46 S3 1.507022 1_555
O46 Ti1 2.319308 1_655
O47 Si7 1.688977 1_555
O47 Ti1 1.895436 1_555
O48 Si3 1.614920 1_555
O48 Zn2 2.152244 1_555
O49 Si2 1.625668 1_555
O49 Zn2 2.166959 1_555
O50 S1 1.480215 1_655
O50 Zn2 2.286105 1_555
O51 S0 1.480219 1_555
O51 Zn3 2.286105 1_555
O52 Si1 1.625659 1_655
O52 Zn3 2.166959 1_555
O53 Si0 1.614926 1_555
O53 Zn3 2.152244 1_555
O54 Si8 1.688985 1_555
O54 Ti2 1.895436 1_555
O55 S4 1.507018 1_655
O55 Ti2 2.319308 1_555
O56 Si9 1.685926 1_545
O56 Ti2 2.013003 1_555
O57 Si10 1.685917 1_545
O57 Ti3 2.013003 1_555
O58 S5 1.507036 1_555
O58 Ti3 2.319308 1_555
O59 Si11 1.688976 1_655
O59 Ti3 1.895436 1_555
O60 Si7 1.614933 1_555
O60 Zn4 2.152244 1_555
O61 Si6 1.625654 1_455
O61 Zn4 2.166959 1_555
O62 S3 1.480212 1_565
O62 Zn4 2.286105 1_555
O63 S2 1.480205 1_565
O63 Zn5 2.286105 1_555
O64 Si5 1.625672 1_555
O64 Zn5 2.166959 1_555
O65 Si4 1.614921 1_455
O65 Zn5 2.152244 1_555
O66 Si0 1.688972 1_565
O66 Ti4 1.895436 1_555
O67 S0 1.507031 1_555
O67 Ti4 2.319308 1_555
O68 Si1 1.685927 1_555
O68 Ti4 2.013003 1_555
O69 Si2 1.685931 1_555
O69 Ti5 2.013003 1_555
O70 S1 1.507022 1_555
O70 Ti5 2.319308 1_555
O71 Si3 1.688977 1_565
O71 Ti5 1.895436 1_555
