# generated using pymatgen
data_Ca4In2N
_symmetry_space_group_name_H-M   'P 1'
_cell_length_a   14.98903524
_cell_length_b   14.98903524
_cell_length_c   14.98903524
_cell_angle_alpha   161.04840055
_cell_angle_beta   161.04840055
_cell_angle_gamma   26.92670933
_symmetry_Int_Tables_number   1
_chemical_formula_structural   Ca4In2N
_chemical_formula_sum   'Ca8 In4 N2'
_cell_volume   355.06055092
_cell_formula_units_Z   2
loop_
 _symmetry_equiv_pos_site_id
 _symmetry_equiv_pos_as_xyz
  1  'x, y, z'
loop_
 _atom_site_type_symbol
 _atom_site_label
 _atom_site_symmetry_multiplicity
 _atom_site_fract_x
 _atom_site_fract_y
 _atom_site_fract_z
 _atom_site_occupancy
  Ca  Ca0  1  0.16883200  0.66883200  0.50000000  1
  Ca  Ca1  1  0.00079600  0.50079600  0.50000000  1
  Ca  Ca2  1  0.33116800  0.83116800  0.50000000  1
  Ca  Ca3  1  0.41883200  0.41883200  0.00000000  1
  Ca  Ca4  1  0.58116800  0.58116800  0.00000000  1
  Ca  Ca5  1  0.49920400  0.99920400  0.50000000  1
  Ca  Ca6  1  0.74920400  0.74920400  0.00000000  1
  Ca  Ca7  1  0.25079600  0.25079600  0.00000000  1
  In  In0  1  0.90950200  0.90950200  0.00000000  1
  In  In1  1  0.65950200  0.15950200  0.50000000  1
  In  In2  1  0.09049800  0.09049800  0.00000000  1
  In  In3  1  0.84049800  0.34049800  0.50000000  1
  N  N0  1  0.25000000  0.75000000  0.50000000  1
  N  N1  1  0.50000000  0.50000000  0.00000000  1
loop_
_geom_bond_atom_site_label_1
_geom_bond_atom_site_label_2
_geom_bond_distance
_geom_bond_site_symmetry_2
Ca0 N0 2.366392 1_555
Ca0 In2 3.362283 1_566
Ca0 In2 3.362283 1_555
Ca0 In1 3.500383 1_454
Ca0 In1 3.500383 1_555
Ca0 In1 3.500383 1_566
Ca0 In1 3.500383 1_465
Ca1 N1 2.467769 1_455
Ca1 N1 2.467769 1_556
Ca1 In2 3.595634 1_566
Ca1 In2 3.595634 1_555
Ca1 In0 3.629532 1_456
Ca1 In0 3.629532 1_445
Ca2 N0 2.366392 1_555
Ca2 In0 3.362283 1_556
Ca2 In0 3.362283 1_455
Ca2 In3 3.500383 1_465
Ca2 In3 3.500383 1_454
Ca2 In3 3.500383 1_566
Ca2 In3 3.500383 1_555
Ca3 N1 2.366392 1_555
Ca3 In3 3.362283 1_454
Ca3 In3 3.362283 1_555
Ca3 In0 3.500383 1_444
Ca3 In0 3.500383 1_455
Ca3 In0 3.500383 1_545
Ca3 In0 3.500383 1_556
Ca4 N1 2.366392 1_555
Ca4 In1 3.362283 1_554
Ca4 In1 3.362283 1_565
Ca4 In2 3.500383 1_655
Ca4 In2 3.500383 1_666
Ca4 In2 3.500383 1_554
Ca4 In2 3.500383 1_565
Ca5 N1 2.467769 1_555
Ca5 N1 2.467769 1_566
Ca5 In0 3.595634 1_455
Ca5 In0 3.595634 1_556
Ca5 In2 3.629532 1_565
Ca5 In2 3.629532 1_666
Ca6 N0 2.467769 1_655
Ca6 N0 2.467769 1_554
Ca6 In1 3.595634 1_554
Ca6 In1 3.595634 1_565
Ca6 In3 3.629532 1_565
Ca6 In3 3.629532 1_554
Ca7 N0 2.467769 1_555
Ca7 N0 2.467769 1_544
Ca7 In3 3.595634 1_454
Ca7 In3 3.595634 1_555
Ca7 In1 3.629532 1_555
Ca7 In1 3.629532 1_454
In0 In3 3.183791 1_565
In0 In3 3.183791 1_554
In1 In2 3.183791 1_555
In1 In2 3.183791 1_656
