# generated using pymatgen
data_NaAl2P(SO6)2
_symmetry_space_group_name_H-M   'P 1'
_cell_length_a   8.30027813
_cell_length_b   8.30049358
_cell_length_c   21.70995186
_cell_angle_alpha   89.99878290
_cell_angle_beta   89.99998854
_cell_angle_gamma   119.99915464
_symmetry_Int_Tables_number   1
_chemical_formula_structural   NaAl2P(SO6)2
_chemical_formula_sum   'Na6 Al12 P6 S12 O72'
_cell_volume   1295.35783068
_cell_formula_units_Z   6
loop_
 _symmetry_equiv_pos_site_id
 _symmetry_equiv_pos_as_xyz
  1  'x, y, z'
loop_
 _atom_site_type_symbol
 _atom_site_label
 _atom_site_symmetry_multiplicity
 _atom_site_fract_x
 _atom_site_fract_y
 _atom_site_fract_z
 _atom_site_occupancy
  Na  Na0  1  0.99214788  0.99489779  0.49995913  1
  Na  Na1  1  0.00275006  0.99489680  0.99995927  1
  Na  Na2  1  0.66362953  0.32544110  0.83334428  1
  Na  Na3  1  0.66181260  0.32544132  0.33334421  1
  Na  Na4  1  0.32795456  0.66925961  0.16669230  1
  Na  Na5  1  0.34130432  0.66926006  0.66669226  1
  Al  Al0  1  0.00136225  0.00167285  0.35260144  1
  Al  Al1  1  0.00031045  0.00167286  0.85260146  1
  Al  Al2  1  0.98538803  0.99034638  0.64705937  1
  Al  Al3  1  0.00495843  0.99034641  0.14705937  1
  Al  Al4  1  0.66542640  0.33252481  0.68608872  1
  Al  Al5  1  0.66709943  0.33252478  0.18608871  1
  Al  Al6  1  0.66632263  0.33393728  0.98064363  1
  Al  Al7  1  0.66761551  0.33393721  0.48064366  1
  Al  Al8  1  0.32297344  0.67181246  0.01946199  1
  Al  Al9  1  0.34883815  0.67181245  0.51946200  1
  Al  Al10  1  0.33826802  0.68166427  0.31400402  1
  Al  Al11  1  0.34339532  0.68166433  0.81400404  1
  P  P0  1  0.28933716  0.00201180  0.25036909  1
  P  P1  1  0.71267442  0.00201131  0.75036917  1
  P  P2  1  0.66668633  0.61814496  0.58336203  1
  P  P3  1  0.95145862  0.61814517  0.08336208  1
  P  P4  1  0.33326367  0.95845787  0.91669340  1
  P  P5  1  0.62519363  0.95845714  0.41669339  1
  S  S0  1  0.71135532  0.71151595  0.24997185  1
  S  S1  1  0.00153427  0.28821114  0.24963002  1
  S  S2  1  0.28667738  0.28821126  0.74963000  1
  S  S3  1  0.00016045  0.71151621  0.74997186  1
  S  S4  1  0.95709942  0.33515228  0.58316472  1
  S  S5  1  0.37634973  0.04468209  0.58355223  1
  S  S6  1  0.66833230  0.04468183  0.08355219  1
  S  S7  1  0.37805345  0.33515282  0.08316466  1
  S  S8  1  0.61962622  0.66639801  0.91719518  1
  S  S9  1  0.04708028  0.38006649  0.91617587  1
  S  S10  1  0.33298665  0.38006685  0.41617588  1
  S  S11  1  0.04677150  0.66639832  0.41719512  1
  O  O0  1  0.20199383  0.03538625  0.30798161  1
  O  O1  1  0.82597538  0.79230868  0.30561942  1
  O  O2  1  0.96544087  0.17318268  0.30548266  1
  O  O3  1  0.20774186  0.17318255  0.80548267  1
  O  O4  1  0.96633334  0.79230883  0.80561949  1
  O  O5  1  0.83339254  0.03538634  0.80798171  1
  O  O6  1  0.79759419  0.96690596  0.69288487  1
  O  O7  1  0.17364990  0.20570174  0.69388235  1
  O  O8  1  0.03772381  0.82777582  0.69456097  1
  O  O9  1  0.79005177  0.82777571  0.19456104  1
  O  O10  1  0.03205173  0.20570178  0.19388238  1
  O  O11  1  0.16931195  0.96690610  0.19288487  1
  O  O12  1  0.87582671  0.36765017  0.63888508  1
  O  O13  1  0.49291746  0.12383141  0.63894406  1
  O  O14  1  0.63339880  0.49849263  0.64113692  1
  O  O15  1  0.86509470  0.49849246  0.14113703  1
  O  O16  1  0.63091502  0.12383135  0.13894397  1
  O  O17  1  0.49182416  0.36765014  0.13888491  1
  O  O18  1  0.45727060  0.29765842  0.02774593  1
  O  O19  1  0.83186310  0.53188148  0.02548911  1
  O  O20  1  0.70106245  0.15856365  0.02778176  1
  O  O21  1  0.45750216  0.15856377  0.52778167  1
  O  O22  1  0.70001920  0.53188159  0.52548920  1
  O  O23  1  0.84038824  0.29765825  0.52774572  1
  O  O24  1  0.53764306  0.69804763  0.97281032  1
  O  O25  1  0.16171139  0.45843704  0.97199620  1
  O  O26  1  0.29816145  0.83741116  0.97395817  1
  O  O27  1  0.53924899  0.83741149  0.47395804  1
  O  O28  1  0.29672481  0.45843722  0.47199622  1
  O  O29  1  0.16040369  0.69804770  0.47281036  1
  O  O30  1  0.12508378  0.63001591  0.36130009  1
  O  O31  1  0.50408442  0.87248228  0.35943657  1
  O  O32  1  0.36471666  0.49376183  0.36047413  1
  O  O33  1  0.12904428  0.49376195  0.86047416  1
  O  O34  1  0.36839708  0.87248218  0.85943645  1
  O  O35  1  0.50493118  0.63001588  0.86130007  1
  O  O36  1  0.02751033  0.83335187  0.40957075  1
  O  O37  1  0.81859214  0.97777345  0.40729095  1
  O  O38  1  0.16683279  0.19285669  0.40951185  1
  O  O39  1  0.02602398  0.19285700  0.90951188  1
  O  O40  1  0.15918062  0.97777375  0.90729087  1
  O  O41  1  0.80584159  0.83335202  0.90957079  1
  O  O42  1  0.97920824  0.16994580  0.59067861  1
  O  O43  1  0.19189937  0.02820399  0.59185664  1
  O  O44  1  0.84079454  0.81263565  0.59061219  1
  O  O45  1  0.97184094  0.81263551  0.09061225  1
  O  O46  1  0.83630476  0.02820377  0.09185657  1
  O  O47  1  0.19073800  0.16994610  0.09067861  1
  O  O48  1  0.69100490  0.17485608  0.74110795  1
  O  O49  1  0.47360437  0.30823779  0.74281810  1
  O  O50  1  0.83262054  0.52615853  0.74256944  1
  O  O51  1  0.69353892  0.52615911  0.24256946  1
  O  O52  1  0.83463393  0.30823785  0.24281805  1
  O  O53  1  0.48385173  0.17485578  0.24110792  1
  O  O54  1  0.64067867  0.50018910  0.92385379  1
  O  O55  1  0.86086726  0.36081418  0.92367496  1
  O  O56  1  0.50750151  0.15185038  0.92606176  1
  O  O57  1  0.64434968  0.15185049  0.42606180  1
  O  O58  1  0.49994689  0.36081428  0.42367489  1
  O  O59  1  0.85951079  0.50018863  0.42385379  1
  O  O60  1  0.36152032  0.50298309  0.07482608  1
  O  O61  1  0.14590023  0.63848578  0.07609800  1
  O  O62  1  0.50328986  0.85743956  0.07591963  1
  O  O63  1  0.35414877  0.85743897  0.57591962  1
  O  O64  1  0.49258543  0.63848551  0.57609804  1
  O  O65  1  0.14146307  0.50298414  0.57482599  1
  O  O66  1  0.30723945  0.82663668  0.25771057  1
  O  O67  1  0.52382031  0.68845346  0.25743635  1
  O  O68  1  0.16877954  0.47343510  0.25806304  1
  O  O69  1  0.30465475  0.47343516  0.75806300  1
  O  O70  1  0.16463293  0.68845347  0.75743642  1
  O  O71  1  0.51939647  0.82663699  0.75771055  1
loop_
_geom_bond_atom_site_label_1
_geom_bond_atom_site_label_2
_geom_bond_distance
_geom_bond_site_symmetry_2
Na0 O44 2.416537 1_555
Na0 O37 2.436822 1_555
Na0 O36 2.475602 1_655
Na0 O42 2.481504 1_565
Na0 O38 2.505090 1_665
Na0 O43 2.519410 1_665
Na1 O45 2.416531 1_456
Na1 O40 2.436818 1_555
Na1 O41 2.475602 1_455
Na1 O47 2.481506 1_566
Na1 O39 2.505099 1_565
Na1 O46 2.519409 1_466
Na2 O48 2.430609 1_555
Na2 O56 2.437198 1_555
Na2 O55 2.476200 1_555
Na2 O49 2.478995 1_555
Na2 O54 2.505536 1_555
Na2 O50 2.507976 1_555
Na3 O53 2.430610 1_555
Na3 O57 2.437200 1_555
Na3 O58 2.476204 1_555
Na3 O52 2.478992 1_555
Na3 O59 2.505534 1_555
Na3 O51 2.507977 1_555
Na4 O61 2.414748 1_555
Na4 O66 2.421838 1_555
Na4 O62 2.483556 1_555
Na4 O68 2.484933 1_555
Na4 O67 2.508090 1_555
Na4 O60 2.518892 1_555
Na5 O64 2.414752 1_555
Na5 O71 2.421838 1_555
Na5 O63 2.483551 1_555
Na5 O69 2.484935 1_555
Na5 O70 2.508088 1_555
Na5 O65 2.518889 1_555
Al0 O0 1.823152 1_555
Al0 O37 1.857288 1_445
Al0 O2 1.893777 1_455
Al0 O1 1.910475 1_445
Al0 O38 1.936952 1_555
Al0 O36 1.957537 1_545
Al1 O5 1.823149 1_455
Al1 O40 1.857283 1_545
Al1 O3 1.893777 1_555
Al1 O4 1.910474 1_445
Al1 O39 1.936953 1_555
Al1 O41 1.957536 1_445
Al2 O6 1.775955 1_555
Al2 O44 1.829705 1_555
Al2 O8 1.912913 1_655
Al2 O42 1.949264 1_565
Al2 O7 1.969098 1_665
Al2 O43 1.983565 1_665
Al3 O11 1.775955 1_555
Al3 O45 1.829704 1_455
Al3 O9 1.912915 1_455
Al3 O47 1.949265 1_565
Al3 O10 1.969099 1_565
Al3 O46 1.983565 1_465
Al4 O14 1.813017 1_555
Al4 O48 1.860745 1_555
Al4 O13 1.902186 1_555
Al4 O12 1.917257 1_555
Al4 O49 1.942037 1_555
Al4 O50 1.944827 1_555
Al5 O15 1.813014 1_555
Al5 O53 1.860747 1_555
Al5 O16 1.902188 1_555
Al5 O17 1.917261 1_555
Al5 O52 1.942033 1_555
Al5 O51 1.944832 1_555
Al6 O19 1.810512 1_556
Al6 O56 1.853111 1_555
Al6 O18 1.903872 1_556
Al6 O20 1.915496 1_556
Al6 O54 1.939931 1_555
Al6 O55 1.956186 1_555
Al7 O22 1.810514 1_555
Al7 O57 1.853110 1_555
Al7 O23 1.903867 1_555
Al7 O21 1.915493 1_555
Al7 O59 1.939928 1_555
Al7 O58 1.956194 1_555
Al8 O26 1.786265 1_554
Al8 O61 1.828102 1_555
Al8 O25 1.902591 1_554
Al8 O62 1.952046 1_555
Al8 O24 1.964702 1_554
Al8 O60 1.989766 1_555
Al9 O27 1.786267 1_555
Al9 O64 1.828109 1_555
Al9 O28 1.902590 1_555
Al9 O63 1.952042 1_555
Al9 O29 1.964702 1_555
Al9 O65 1.989757 1_555
Al10 O31 1.787737 1_555
Al10 O66 1.821484 1_555
Al10 O30 1.900157 1_555
Al10 O67 1.948482 1_555
Al10 O32 1.959830 1_555
Al10 O68 2.002512 1_555
Al11 O34 1.787734 1_555
Al11 O71 1.821486 1_555
Al11 O35 1.900157 1_555
Al11 O70 1.948477 1_555
Al11 O33 1.959829 1_555
Al11 O69 2.002513 1_555
O0 P0 1.538697 1_555
O1 S0 1.475266 1_555
O2 S1 1.478376 1_655
O3 S2 1.478377 1_555
O4 S3 1.475266 1_655
O5 P1 1.538698 1_555
O6 P1 1.531206 1_565
O7 S2 1.473601 1_555
O8 S3 1.474677 1_555
O9 S0 1.474676 1_555
O10 S1 1.473598 1_555
O11 P0 1.531204 1_565
O12 S4 1.474161 1_555
O13 S5 1.475904 1_555
O14 P2 1.536724 1_555
O15 P3 1.536725 1_555
O16 S6 1.475900 1_555
O17 S7 1.474160 1_555
O18 S7 1.476951 1_555
O19 P3 1.538170 1_555
O20 S6 1.475289 1_555
O21 S5 1.475291 1_555
O22 P2 1.538169 1_555
O23 S4 1.476955 1_555
O24 S8 1.472640 1_555
O25 S9 1.475861 1_555
O26 P4 1.532059 1_555
O27 P5 1.532053 1_555
O28 S10 1.475865 1_555
O29 S11 1.472640 1_555
O30 S11 1.477348 1_555
O31 P5 1.532194 1_555
O32 S10 1.474365 1_555
O33 S9 1.474365 1_555
O34 P4 1.532197 1_555
O35 S8 1.477351 1_555
O36 S11 1.481529 1_555
O37 P5 1.544948 1_555
O38 S10 1.481427 1_555
O39 S9 1.481421 1_555
O40 P4 1.544953 1_555
O41 S8 1.481533 1_555
O42 S4 1.480664 1_555
O43 S5 1.478425 1_555
O44 P2 1.544824 1_555
O45 P3 1.544822 1_555
O46 S6 1.478427 1_555
O47 S7 1.480665 1_555
O48 P1 1.545691 1_555
O49 S2 1.482865 1_555
O50 S3 1.478966 1_655
O51 S0 1.478964 1_555
O52 S1 1.482865 1_655
O53 P0 1.545689 1_555
O54 S8 1.481834 1_555
O55 S9 1.481213 1_655
O56 P4 1.545407 1_545
O57 P5 1.545410 1_545
O58 S10 1.481211 1_555
O59 S11 1.481834 1_655
O60 S7 1.477638 1_555
O61 P3 1.544548 1_455
O62 S6 1.480065 1_565
O63 S5 1.480068 1_565
O64 P2 1.544547 1_555
O65 S4 1.477645 1_455
O66 P0 1.543645 1_565
O67 S0 1.479160 1_555
O68 S1 1.479908 1_555
O69 S2 1.479912 1_555
O70 S3 1.479162 1_555
O71 P1 1.543644 1_565
