# generated using pymatgen
data_Ba8Ni6N7
_symmetry_space_group_name_H-M   'P 1'
_cell_length_a   9.67205720
_cell_length_b   9.67205720
_cell_length_c   12.09413008
_cell_angle_alpha   81.60373956
_cell_angle_beta   81.60373956
_cell_angle_gamma   120.47804745
_symmetry_Int_Tables_number   1
_chemical_formula_structural   Ba8Ni6N7
_chemical_formula_sum   'Ba16 Ni12 N14'
_cell_volume   931.91676813
_cell_formula_units_Z   2
loop_
 _symmetry_equiv_pos_site_id
 _symmetry_equiv_pos_as_xyz
  1  'x, y, z'
loop_
 _atom_site_type_symbol
 _atom_site_label
 _atom_site_symmetry_multiplicity
 _atom_site_fract_x
 _atom_site_fract_y
 _atom_site_fract_z
 _atom_site_occupancy
  Ba  Ba0  1  0.91740700  0.08259300  0.75000000  1
  Ba  Ba1  1  0.08259300  0.91740700  0.25000000  1
  Ba  Ba2  1  0.24718600  0.75281400  0.75000000  1
  Ba  Ba3  1  0.75281400  0.24718600  0.25000000  1
  Ba  Ba4  1  0.88310700  0.70363400  0.59889300  1
  Ba  Ba5  1  0.29636600  0.11689300  0.90110700  1
  Ba  Ba6  1  0.11689300  0.29636600  0.40110700  1
  Ba  Ba7  1  0.70363400  0.88310700  0.09889300  1
  Ba  Ba8  1  0.23199000  0.63645200  0.10334600  1
  Ba  Ba9  1  0.36354800  0.76801000  0.39665400  1
  Ba  Ba10  1  0.76801000  0.36354800  0.89665400  1
  Ba  Ba11  1  0.63645200  0.23199000  0.60334600  1
  Ba  Ba12  1  0.61795600  0.55351200  0.35716400  1
  Ba  Ba13  1  0.44648800  0.38204400  0.14283600  1
  Ba  Ba14  1  0.38204400  0.44648800  0.64283600  1
  Ba  Ba15  1  0.55351200  0.61795600  0.85716400  1
  Ni  Ni0  1  0.21757900  0.05940900  0.61418700  1
  Ni  Ni1  1  0.94059100  0.78242100  0.88581300  1
  Ni  Ni2  1  0.87198300  0.63399600  0.10106700  1
  Ni  Ni3  1  0.36600400  0.12801700  0.39893300  1
  Ni  Ni4  1  0.12801700  0.36600400  0.89893300  1
  Ni  Ni5  1  0.63399600  0.87198300  0.60106700  1
  Ni  Ni6  1  0.45719900  0.04084900  0.13246700  1
  Ni  Ni7  1  0.95915100  0.54280100  0.36753300  1
  Ni  Ni8  1  0.54280100  0.95915100  0.86753300  1
  Ni  Ni9  1  0.04084900  0.45719900  0.63246700  1
  Ni  Ni10  1  0.05940900  0.21757900  0.11418700  1
  Ni  Ni11  1  0.78242100  0.94059100  0.38581300  1
  N  N0  1  0.00000000  0.50000000  0.50000000  1
  N  N1  1  0.50000000  0.00000000  0.00000000  1
  N  N2  1  0.59303800  0.40696200  0.75000000  1
  N  N3  1  0.40696200  0.59303800  0.25000000  1
  N  N4  1  0.08494800  0.91505200  0.75000000  1
  N  N5  1  0.91505200  0.08494800  0.25000000  1
  N  N6  1  0.63754000  0.75365400  0.49992900  1
  N  N7  1  0.24634600  0.36246000  0.00007100  1
  N  N8  1  0.36246000  0.24634600  0.50007100  1
  N  N9  1  0.75365400  0.63754000  0.99992900  1
  N  N10  1  0.59262600  0.93110200  0.72881500  1
  N  N11  1  0.06889800  0.40737400  0.77118500  1
  N  N12  1  0.40737400  0.06889800  0.27118500  1
  N  N13  1  0.93110200  0.59262600  0.22881500  1
loop_
_geom_bond_atom_site_label_1
_geom_bond_atom_site_label_2
_geom_bond_distance
_geom_bond_site_symmetry_2
Ba0 N11 2.784943 1_655
Ba0 N10 2.784943 1_545
Ba0 N4 2.813465 1_645
Ba1 N12 2.784943 1_565
Ba1 N13 2.784943 1_455
Ba1 N5 2.813465 1_465
Ba2 N4 2.724414 1_555
Ba2 N10 2.824669 1_555
Ba2 N11 2.824669 1_555
Ba3 N5 2.724414 1_555
Ba3 N13 2.824669 1_555
Ba3 N12 2.824669 1_555
Ba4 N2 2.872182 1_555
Ba4 N6 3.022351 1_555
Ba4 N0 3.023210 1_655
Ba4 N4 3.068556 1_655
Ba5 N2 2.872182 1_555
Ba5 N7 3.022351 1_556
Ba5 N1 3.023210 1_556
Ba5 N4 3.068556 1_545
Ba6 N3 2.872182 1_555
Ba6 N8 3.022351 1_555
Ba6 N0 3.023210 1_555
Ba6 N5 3.068556 1_455
Ba7 N3 2.872182 1_555
Ba7 N9 3.022351 1_554
Ba7 N1 3.023210 1_565
Ba7 N5 3.068556 1_565
Ba8 N3 2.750659 1_555
Ba8 N13 2.867528 1_455
Ba8 N1 3.028180 1_565
Ba8 N7 3.145067 1_555
Ba9 N3 2.750659 1_555
Ba9 N12 2.867528 1_565
Ba9 N0 3.028180 1_555
Ba9 N6 3.145067 1_555
Ba10 N2 2.750659 1_555
Ba10 N11 2.867528 1_655
Ba10 N1 3.028180 1_556
Ba10 N9 3.145067 1_555
Ba11 N2 2.750659 1_555
Ba11 N10 2.867528 1_545
Ba11 N0 3.028180 1_655
Ba11 N8 3.145067 1_555
Ba12 N3 2.722075 1_555
Ba12 N6 2.732032 1_555
Ba12 N8 2.779550 1_555
Ba12 N13 3.003206 1_555
Ba13 N3 2.722075 1_555
Ba13 N7 2.732032 1_555
Ba13 N9 2.779550 1_554
Ba13 N12 3.003206 1_555
Ba14 N2 2.722075 1_555
Ba14 N8 2.732032 1_555
Ba14 N6 2.779550 1_555
Ba14 N11 3.003206 1_555
Ba15 N2 2.722075 1_555
Ba15 N9 2.732032 1_555
Ba15 N7 2.779550 1_556
Ba15 N10 3.003206 1_555
N0 Ni9 1.746767 1_555
N0 Ni7 1.746767 1_455
N1 Ni6 1.746767 1_555
N1 Ni8 1.746767 1_544
N4 Ni1 1.786335 1_455
N4 Ni0 1.786335 1_565
N5 Ni11 1.786335 1_545
N5 Ni10 1.786335 1_655
N6 Ni5 1.800988 1_555
N6 Ni11 1.809366 1_555
N7 Ni4 1.800988 1_554
N7 Ni10 1.809366 1_555
N8 Ni3 1.800988 1_555
N8 Ni0 1.809366 1_555
N9 Ni2 1.800988 1_556
N9 Ni1 1.809366 1_555
N10 Ni8 1.774784 1_555
N10 Ni5 1.784277 1_555
N11 Ni9 1.774784 1_555
N11 Ni4 1.784277 1_555
N12 Ni6 1.774784 1_555
N12 Ni3 1.784277 1_555
N13 Ni7 1.774784 1_555
N13 Ni2 1.784277 1_555
