# generated using pymatgen
data_Na2ScAlSi(SO6)2
_symmetry_space_group_name_H-M   'P 1'
_cell_length_a   8.74465609
_cell_length_b   8.78592786
_cell_length_c   22.34140658
_cell_angle_alpha   89.56501258
_cell_angle_beta   89.67001100
_cell_angle_gamma   119.91714655
_symmetry_Int_Tables_number   1
_chemical_formula_structural   Na2ScAlSi(SO6)2
_chemical_formula_sum   'Na12 Sc6 Al6 Si6 S12 O72'
_cell_volume   1487.62899493
_cell_formula_units_Z   6
loop_
 _symmetry_equiv_pos_site_id
 _symmetry_equiv_pos_as_xyz
  1  'x, y, z'
loop_
 _atom_site_type_symbol
 _atom_site_label
 _atom_site_symmetry_multiplicity
 _atom_site_fract_x
 _atom_site_fract_y
 _atom_site_fract_z
 _atom_site_occupancy
  Na  Na0  1  0.00007978  0.62880764  0.25018832  1
  Na  Na1  1  0.37424967  0.00335673  0.74821058  1
  Na  Na2  1  0.66014365  0.96560866  0.59092309  1
  Na  Na3  1  0.03093071  0.33813728  0.09254269  1
  Na  Na4  1  0.98279711  0.67466139  0.92437241  1
  Na  Na5  1  0.32518567  0.02050729  0.42153633  1
  Na  Na6  1  0.00899178  0.98966066  0.50041685  1
  Na  Na7  1  0.01221045  0.98757137  0.00148568  1
  Na  Na8  1  0.66328879  0.31148386  0.83178806  1
  Na  Na9  1  0.68387271  0.33677157  0.33540573  1
  Na  Na10  1  0.33583774  0.66193477  0.17018073  1
  Na  Na11  1  0.33264512  0.66215112  0.66525562  1
  Sc  Sc0  1  0.99598628  0.00721286  0.84951681  1
  Sc  Sc1  1  0.00052634  0.99556811  0.15203050  1
  Sc  Sc2  1  0.66114297  0.33102574  0.98109776  1
  Sc  Sc3  1  0.32633907  0.68109183  0.02180222  1
  Sc  Sc4  1  0.31601986  0.67838480  0.51817144  1
  Sc  Sc5  1  0.35265381  0.68647318  0.81016381  1
  Al  Al0  1  0.98371051  0.99411879  0.35087952  1
  Al  Al1  1  0.00933091  0.00079646  0.64749279  1
  Al  Al2  1  0.66515716  0.32089116  0.68272322  1
  Al  Al3  1  0.68294433  0.32787578  0.18782882  1
  Al  Al4  1  0.66869347  0.34757633  0.48353546  1
  Al  Al5  1  0.30449682  0.63779225  0.31720533  1
  Si  Si0  1  -0.00022027  0.28884821  0.25151042  1
  Si  Si1  1  0.71898502  0.01171225  0.74161736  1
  Si  Si2  1  0.37480847  0.05766153  0.58269858  1
  Si  Si3  1  0.95157610  0.62591397  0.08521177  1
  Si  Si4  1  0.33561900  0.97089496  0.91300741  1
  Si  Si5  1  0.02354226  0.66507933  0.41327336  1
  S  S0  1  0.30471562  0.00403998  0.25318313  1
  S  S1  1  0.69542015  0.70319211  0.25436634  1
  S  S2  1  0.29561839  0.29213400  0.74455472  1
  S  S3  1  0.98685602  0.69972884  0.74594516  1
  S  S4  1  0.94960670  0.33141290  0.58347934  1
  S  S5  1  0.67289544  0.61784521  0.58525196  1
  S  S6  1  0.66435425  0.04360120  0.08753508  1
  S  S7  1  0.38317697  0.33362630  0.08844425  1
  S  S8  1  0.62450890  0.66622615  0.91685005  1
  S  S9  1  0.04583284  0.37371737  0.91740840  1
  S  S10  1  0.62665183  0.95544381  0.41451451  1
  S  S11  1  0.33176404  0.37487642  0.41559748  1
  O  O0  1  0.22218059  0.03132253  0.30720480  1
  O  O1  1  0.82141897  0.78687746  0.30468661  1
  O  O2  1  0.97552829  0.15602650  0.30646741  1
  O  O3  1  0.22509616  0.18149894  0.79958552  1
  O  O4  1  0.96315048  0.77145758  0.80278279  1
  O  O5  1  0.82640525  0.03216015  0.80269925  1
  O  O6  1  0.81846160  0.98500591  0.68368680  1
  O  O7  1  0.18324283  0.20047846  0.69267806  1
  O  O8  1  0.02689187  0.82683701  0.69538723  1
  O  O9  1  0.77082713  0.80876050  0.19878673  1
  O  O10  1  0.02944297  0.21484754  0.18828516  1
  O  O11  1  0.18432471  0.96038754  0.20110112  1
  O  O12  1  0.87068529  0.35946340  0.63801010  1
  O  O13  1  0.50110828  0.14488954  0.64053219  1
  O  O14  1  0.65484533  0.51074383  0.63877914  1
  O  O15  1  0.85123430  0.49736507  0.14339657  1
  O  O16  1  0.63938105  0.12801140  0.14103024  1
  O  O17  1  0.48721895  0.34259274  0.14151557  1
  O  O18  1  0.45859566  0.31124962  0.03244658  1
  O  O19  1  0.85278035  0.54075764  0.02212985  1
  O  O20  1  0.68710502  0.14661359  0.03250887  1
  O  O21  1  0.47312312  0.17224652  0.52089827  1
  O  O22  1  0.69703217  0.53874593  0.53005555  1
  O  O23  1  0.83890448  0.30788925  0.53001022  1
  O  O24  1  0.53821523  0.67833232  0.97140533  1
  O  O25  1  0.14300749  0.45015637  0.97350214  1
  O  O26  1  0.30086463  0.83937083  0.97049185  1
  O  O27  1  0.55743915  0.85552559  0.47198481  1
  O  O28  1  0.30688063  0.45480376  0.46973142  1
  O  O29  1  0.15992467  0.71986721  0.47018852  1
  O  O30  1  0.12312441  0.63601233  0.35553864  1
  O  O31  1  0.50667136  0.86182097  0.36443188  1
  O  O32  1  0.35980028  0.48808919  0.36196107  1
  O  O33  1  0.13654555  0.48351536  0.86441888  1
  O  O34  1  0.35438371  0.87892298  0.85156960  1
  O  O35  1  0.52139278  0.64475774  0.86262636  1
  O  O36  1  0.01486065  0.84834934  0.40200189  1
  O  O37  1  0.80548416  0.97787769  0.40689951  1
  O  O38  1  0.17541608  0.19544515  0.40871999  1
  O  O39  1  0.02145891  0.19611042  0.91380691  1
  O  O40  1  0.15135311  0.97512925  0.90996893  1
  O  O41  1  0.80207422  0.82603526  0.91276019  1
  O  O42  1  0.96354518  0.16956222  0.58731024  1
  O  O43  1  0.17531191  0.02943676  0.59235587  1
  O  O44  1  0.83044734  0.79808468  0.58887166  1
  O  O45  1  0.97874877  0.82183683  0.09055486  1
  O  O46  1  0.82765660  0.03277774  0.09115949  1
  O  O47  1  0.20081742  0.17971114  0.09101179  1
  O  O48  1  0.68818938  0.18290253  0.73853101  1
  O  O49  1  0.47635337  0.31736308  0.73747780  1
  O  O50  1  0.82775571  0.52803129  0.73629512  1
  O  O51  1  0.67778910  0.52646773  0.24756913  1
  O  O52  1  0.82381757  0.31616773  0.24583366  1
  O  O53  1  0.47645867  0.16585271  0.24174543  1
  O  O54  1  0.65332192  0.51295197  0.91833508  1
  O  O55  1  0.87008207  0.36322707  0.91959577  1
  O  O56  1  0.50951344  0.16116637  0.91903194  1
  O  O57  1  0.63873124  0.13063265  0.41939152  1
  O  O58  1  0.49126123  0.35432081  0.41995310  1
  O  O59  1  0.83343729  0.48866915  0.42819722  1
  O  O60  1  0.36811305  0.49473524  0.08497038  1
  O  O61  1  0.14513997  0.63271460  0.08441412  1
  O  O62  1  0.51007119  0.86567315  0.08436757  1
  O  O63  1  0.36403233  0.86242519  0.57852179  1
  O  O64  1  0.51315432  0.63650603  0.58095299  1
  O  O65  1  0.12894950  0.48523964  0.57820645  1
  O  O66  1  0.32914388  0.84873907  0.26039817  1
  O  O67  1  0.52234438  0.68991125  0.26523165  1
  O  O68  1  0.17285843  0.49043957  0.25874327  1
  O  O69  1  0.30425890  0.46270235  0.75051120  1
  O  O70  1  0.14551764  0.67849464  0.74956193  1
  O  O71  1  0.51764990  0.83619224  0.74502416  1
loop_
_geom_bond_atom_site_label_1
_geom_bond_atom_site_label_2
_geom_bond_distance
_geom_bond_site_symmetry_2
Na0 O68 2.372593 1_555
Na0 O52 2.390162 1_455
Na0 O51 2.495953 1_455
Na0 O66 2.556172 1_555
Na0 O30 2.581671 1_555
Na0 O15 2.701569 1_455
Na0 O11 2.744940 1_555
Na0 O1 2.831987 1_455
Na1 O71 2.360568 1_545
Na1 O48 2.395837 1_555
Na1 O49 2.448731 1_555
Na1 O34 2.515025 1_545
Na1 O70 2.539987 1_545
Na1 O13 2.666848 1_555
Na1 O3 2.741280 1_555
Na1 O8 2.897341 1_545
Na2 O63 2.296537 1_555
Na2 O42 2.347272 1_565
Na2 O6 2.458437 1_555
Na2 O64 2.523525 1_555
Na2 O44 2.563788 1_555
Na2 O13 2.799539 1_565
Na2 O27 2.828970 1_555
Na2 O23 2.926321 1_565
Na3 O61 2.267442 1_555
Na3 O46 2.367137 1_455
Na3 O10 2.387337 1_555
Na3 O47 2.491670 1_555
Na3 O60 2.561176 1_555
Na3 O15 2.813102 1_455
Na3 O25 2.823183 1_554
Na3 O20 2.950323 1_455
Na4 O40 2.312017 1_655
Na4 O55 2.405271 1_555
Na4 O19 2.458640 1_556
Na4 O54 2.502396 1_555
Na4 O41 2.535679 1_555
Na4 O26 2.633001 1_655
Na4 O4 2.871949 1_555
Na4 O33 2.947502 1_655
Na5 O36 2.402444 1_545
Na5 O57 2.409924 1_555
Na5 O38 2.482975 1_555
Na5 O29 2.525390 1_545
Na5 O58 2.541892 1_555
Na5 O21 2.595469 1_555
Na5 O0 2.730046 1_555
Na5 O31 2.881131 1_545
Na6 O43 2.448441 1_565
Na6 O44 2.543370 1_455
Na6 O36 2.546016 1_555
Na6 O38 2.620791 1_565
Na6 O42 2.662565 1_465
Na6 O37 2.721261 1_455
Na7 O45 2.385382 1_455
Na7 O40 2.404225 1_554
Na7 O41 2.608350 1_454
Na7 O47 2.623459 1_565
Na7 O39 2.645102 1_564
Na7 O46 2.718509 1_465
Na8 O56 2.347525 1_555
Na8 O48 2.437311 1_555
Na8 O55 2.561167 1_555
Na8 O54 2.661475 1_555
Na8 O49 2.690105 1_555
Na8 O50 2.722756 1_555
Na9 O52 2.394434 1_555
Na9 O59 2.474166 1_555
Na9 O57 2.486653 1_555
Na9 O58 2.579827 1_555
Na9 O51 2.582934 1_555
Na9 O53 2.701465 1_555
Na10 O68 2.448795 1_555
Na10 O61 2.477016 1_555
Na10 O60 2.512293 1_555
Na10 O62 2.528829 1_555
Na10 O67 2.622569 1_555
Na10 O66 2.627624 1_555
Na11 O71 2.395513 1_555
Na11 O69 2.504057 1_555
Na11 O63 2.527203 1_555
Na11 O64 2.533123 1_555
Na11 O70 2.539478 1_555
Na11 O65 2.587495 1_555
Al0 O2 1.759001 1_565
Al0 O36 1.829837 1_655
Al0 O37 1.941333 1_555
Al0 O1 1.965272 1_555
Al0 O0 2.167804 1_665
Al0 O38 2.170436 1_665
Al1 O6 1.791854 1_445
Al1 O43 1.815990 1_555
Al1 O8 1.927619 1_545
Al1 O7 1.947563 1_555
Al1 O44 2.148074 1_445
Al1 O42 2.175972 1_455
Al2 O13 1.778362 1_555
Al2 O48 1.813411 1_555
Al2 O12 1.926024 1_555
Al2 O14 1.969906 1_555
Al2 O49 2.036763 1_555
Al2 O50 2.058589 1_555
Al3 O15 1.772959 1_555
Al3 O52 1.830376 1_555
Al3 O16 1.920157 1_555
Al3 O53 2.030454 1_555
Al3 O17 2.062973 1_555
Al3 O51 2.222817 1_555
Al4 O59 1.820840 1_555
Al4 O21 1.825016 1_555
Al4 O22 1.891285 1_555
Al4 O23 1.986233 1_555
Al4 O58 2.131811 1_555
Al4 O57 2.302826 1_555
Al5 O30 1.791265 1_555
Al5 O68 1.806536 1_555
Al5 O32 1.893078 1_555
Al5 O67 2.069620 1_555
Al5 O66 2.157507 1_555
Al5 O31 2.166791 1_555
O0 S0 1.483897 1_555
O1 S1 1.495732 1_555
O2 Si0 1.625637 1_655
O3 S2 1.487252 1_555
O3 Sc0 2.119266 1_455
O4 S3 1.480552 1_555
O4 Sc0 2.214956 1_565
O5 Si1 1.620832 1_555
O5 Sc0 1.918275 1_555
O6 Si1 1.637708 1_565
O7 S2 1.481674 1_555
O8 S3 1.493945 1_455
O9 S1 1.483237 1_555
O9 Sc1 2.116823 1_655
O10 Si0 1.631938 1_555
O10 Sc1 1.992938 1_545
O11 S0 1.492479 1_565
O11 Sc1 2.095564 1_555
O12 S4 1.478447 1_555
O13 Si2 1.632113 1_555
O14 S5 1.474131 1_555
O15 Si3 1.646625 1_555
O16 S6 1.482598 1_555
O17 S7 1.477217 1_555
O18 S7 1.470489 1_555
O18 Sc2 2.037162 1_554
O19 Si3 1.636358 1_555
O19 Sc2 2.001820 1_554
O20 S6 1.473338 1_555
O20 Sc2 2.082698 1_554
O21 Si2 1.661586 1_555
O22 S5 1.484772 1_555
O23 S4 1.491425 1_555
O24 S8 1.462108 1_555
O24 Sc3 2.173091 1_556
O25 S9 1.483055 1_555
O25 Sc3 2.158676 1_556
O26 Si4 1.643085 1_555
O26 Sc3 1.893495 1_556
O27 S10 1.493148 1_555
O27 Sc4 2.148709 1_555
O28 S11 1.471559 1_555
O28 Sc4 2.216528 1_555
O29 Si5 1.650770 1_555
O29 Sc4 1.911130 1_555
O30 Si5 1.643534 1_555
O31 S10 1.481896 1_555
O32 S11 1.490206 1_555
O33 S9 1.473059 1_555
O33 Sc5 2.190823 1_555
O34 Si4 1.646343 1_555
O34 Sc5 1.927003 1_555
O35 S8 1.470590 1_555
O35 Sc5 2.058703 1_555
O36 Si5 1.666707 1_555
O37 S10 1.484019 1_555
O38 S11 1.494745 1_555
O39 S9 1.468749 1_555
O39 Sc0 2.130304 1_455
O40 Si4 1.632002 1_555
O40 Sc0 2.036366 1_465
O41 S8 1.487448 1_555
O41 Sc0 2.156722 1_565
O42 S4 1.488440 1_555
O43 Si2 1.647651 1_555
O44 S5 1.496445 1_555
O45 Si3 1.621497 1_555
O45 Sc1 1.999349 1_655
O46 S6 1.480378 1_555
O46 Sc1 2.179774 1_645
O47 S7 1.490526 1_555
O47 Sc1 2.157788 1_545
O48 Si1 1.655945 1_555
O49 S2 1.489679 1_555
O50 S3 1.473992 1_555
O51 S1 1.490883 1_555
O52 Si0 1.676777 1_655
O53 S0 1.484000 1_555
O54 S8 1.488603 1_555
O54 Sc2 2.145188 1_555
O55 S9 1.493538 1_655
O55 Sc2 2.180799 1_555
O56 Si4 1.610951 1_545
O56 Sc2 1.996704 1_555
O57 S10 1.494208 1_545
O58 S11 1.496651 1_555
O59 Si5 1.640929 1_655
O60 S7 1.487090 1_555
O60 Sc3 2.318055 1_555
O61 Si3 1.663642 1_455
O61 Sc3 1.985388 1_555
O62 S6 1.472411 1_565
O62 Sc3 2.150920 1_555
O63 Si2 1.673693 1_565
O63 Sc4 1.992796 1_555
O64 S5 1.489005 1_555
O64 Sc4 2.393157 1_555
O65 S4 1.476888 1_455
O65 Sc4 2.127404 1_555
O66 S0 1.490360 1_565
O67 S1 1.477284 1_555
O68 Si0 1.669450 1_555
O69 S2 1.469496 1_555
O69 Sc5 2.244300 1_555
O70 S3 1.491840 1_455
O70 Sc5 2.240985 1_555
O71 Si1 1.664949 1_565
O71 Sc5 1.995896 1_555
