# generated using pymatgen
data_SmAsS
_symmetry_space_group_name_H-M   'P 1'
_cell_length_a   3.88810000
_cell_length_b   3.92681300
_cell_length_c   8.68478400
_cell_angle_alpha   90.00000000
_cell_angle_beta   90.00000000
_cell_angle_gamma   90.00000000
_symmetry_Int_Tables_number   1
_chemical_formula_structural   SmAsS
_chemical_formula_sum   'Sm2 As2 S2'
_cell_volume   132.59790666
_cell_formula_units_Z   2
loop_
 _symmetry_equiv_pos_site_id
 _symmetry_equiv_pos_as_xyz
  1  'x, y, z'
loop_
 _atom_site_type_symbol
 _atom_site_label
 _atom_site_symmetry_multiplicity
 _atom_site_fract_x
 _atom_site_fract_y
 _atom_site_fract_z
 _atom_site_occupancy
  Sm  Sm0  1  0.25000000  0.25000000  0.70807200  1
  Sm  Sm1  1  0.75000000  0.75000000  0.29192800  1
  As  As0  1  0.25000000  0.75000000  0.99786800  1
  As  As1  1  0.75000000  0.25000000  0.00213200  1
  S  S0  1  0.25000000  0.25000000  0.37317000  1
  S  S1  1  0.75000000  0.75000000  0.62683000  1
loop_
_geom_bond_atom_site_label_1
_geom_bond_atom_site_label_2
_geom_bond_distance
_geom_bond_site_symmetry_2
As0 As1 2.763271 1_556
As0 As1 2.763271 1_466
As0 As1 2.763271 1_566
As0 As1 2.763271 1_456
As0 Sm0 3.192072 1_565
As0 Sm0 3.192072 1_555
As0 Sm1 3.209590 1_456
As0 Sm1 3.209590 1_556
As1 Sm1 3.192072 1_555
As1 Sm1 3.192072 1_545
As1 Sm0 3.209590 1_554
As1 Sm0 3.209590 1_654
S0 Sm1 2.851688 1_455
S0 Sm1 2.851688 1_445
S0 Sm1 2.851688 1_555
S0 Sm1 2.851688 1_545
S0 Sm0 2.908552 1_555
S1 Sm0 2.851688 1_665
S1 Sm0 2.851688 1_655
S1 Sm0 2.851688 1_555
S1 Sm0 2.851688 1_565
S1 Sm1 2.908552 1_555
