# generated using pymatgen
data_LiMn4(PO4)3
_symmetry_space_group_name_H-M   'P 1'
_cell_length_a   8.94278416
_cell_length_b   8.94278416
_cell_length_c   6.62553350
_cell_angle_alpha   72.25244687
_cell_angle_beta   72.25244687
_cell_angle_gamma   96.57501779
_symmetry_Int_Tables_number   1
_chemical_formula_structural   LiMn4(PO4)3
_chemical_formula_sum   'Li2 Mn8 P6 O24'
_cell_volume   467.89783487
_cell_formula_units_Z   2
loop_
 _symmetry_equiv_pos_site_id
 _symmetry_equiv_pos_as_xyz
  1  'x, y, z'
loop_
 _atom_site_type_symbol
 _atom_site_label
 _atom_site_symmetry_multiplicity
 _atom_site_fract_x
 _atom_site_fract_y
 _atom_site_fract_z
 _atom_site_occupancy
  Li  Li0  1  0.95081300  0.99185000  0.22751000  1
  Li  Li1  1  0.99185000  0.95081300  0.72751000  1
  Mn  Mn0  1  0.35257300  0.05684500  0.89612800  1
  Mn  Mn1  1  0.05684500  0.35257300  0.39612800  1
  Mn  Mn2  1  0.73578400  0.27630500  0.23948000  1
  Mn  Mn3  1  0.49032300  0.47092800  0.44173100  1
  Mn  Mn4  1  0.27630500  0.73578400  0.73948000  1
  Mn  Mn5  1  0.47092800  0.49032300  0.94173100  1
  Mn  Mn6  1  0.63881300  0.94216100  0.11916400  1
  Mn  Mn7  1  0.94216100  0.63881300  0.61916400  1
  P  P0  1  0.67236200  0.88794400  0.62217000  1
  P  P1  1  0.88794400  0.67236200  0.12217000  1
  P  P2  1  0.69161500  0.30992900  0.75113700  1
  P  P3  1  0.30992900  0.69161500  0.25113700  1
  P  P4  1  0.11528600  0.32923700  0.88937900  1
  P  P5  1  0.32923700  0.11528600  0.38937900  1
  O  O0  1  0.84507100  0.85444100  0.58962200  1
  O  O1  1  0.62134700  0.96547800  0.80120900  1
  O  O2  1  0.85444100  0.84507100  0.08962200  1
  O  O3  1  0.96547800  0.62134700  0.30120900  1
  O  O4  1  0.32813700  0.99466400  0.61733900  1
  O  O5  1  0.54170500  0.73037900  0.68741400  1
  O  O6  1  0.71606900  0.48191600  0.76691900  1
  O  O7  1  0.99466400  0.32813700  0.11733900  1
  O  O8  1  0.15596300  0.14375600  0.43430500  1
  O  O9  1  0.38172300  0.04295000  0.20408900  1
  O  O10  1  0.14375600  0.15596300  0.93430500  1
  O  O11  1  0.04295000  0.38172300  0.70408900  1
  O  O12  1  0.69199100  0.01006500  0.38195700  1
  O  O13  1  0.45869300  0.27876000  0.31597500  1
  O  O14  1  0.28957800  0.51534900  0.24350800  1
  O  O15  1  0.29223800  0.80029400  0.03433900  1
  O  O16  1  0.01006500  0.69199100  0.88195700  1
  O  O17  1  0.27876000  0.45869300  0.81597500  1
  O  O18  1  0.19770400  0.70902200  0.46740400  1
  O  O19  1  0.51534900  0.28957800  0.74350800  1
  O  O20  1  0.48191600  0.71606900  0.26691900  1
  O  O21  1  0.80029400  0.29223800  0.53433900  1
  O  O22  1  0.73037900  0.54170500  0.18741400  1
  O  O23  1  0.70902200  0.19770400  0.96740400  1
loop_
_geom_bond_atom_site_label_1
_geom_bond_atom_site_label_2
_geom_bond_distance
_geom_bond_site_symmetry_2
Li0 O2 2.062125 1_555
Li0 O10 2.131523 1_664
Li0 O0 2.171110 1_555
Li0 O12 2.274862 1_565
Li1 O0 2.062125 1_555
Li1 O8 2.131523 1_665
Li1 O2 2.171110 1_556
Li1 O16 2.274862 1_655
Mn0 O9 2.103276 1_556
Mn0 O15 2.127878 1_546
Mn0 O10 2.136506 1_555
Mn0 O19 2.144522 1_555
Mn0 O4 2.147856 1_545
Mn0 O1 2.584924 1_545
Mn1 O11 2.103276 1_555
Mn1 O21 2.127878 1_455
Mn1 O8 2.136506 1_555
Mn1 O14 2.144522 1_555
Mn1 O7 2.147856 1_455
Mn1 O3 2.584924 1_455
Mn2 O7 2.147756 1_555
Mn2 O23 2.190406 1_554
Mn2 O12 2.214533 1_555
Mn2 O21 2.237773 1_555
Mn2 O22 2.300375 1_555
Mn2 O13 2.377237 1_555
Mn3 O13 2.152401 1_555
Mn3 O22 2.163744 1_555
Mn3 O20 2.167010 1_555
Mn3 O19 2.248785 1_555
Mn3 O14 2.527467 1_555
Mn3 O17 2.582040 1_555
Mn4 O4 2.147756 1_555
Mn4 O18 2.190406 1_555
Mn4 O16 2.214533 1_555
Mn4 O15 2.237773 1_556
Mn4 O5 2.300375 1_555
Mn4 O17 2.377237 1_555
Mn5 O17 2.152401 1_555
Mn5 O5 2.163744 1_555
Mn5 O6 2.167010 1_555
Mn5 O14 2.248785 1_556
Mn5 O19 2.527467 1_555
Mn5 O13 2.582040 1_556
Mn6 O20 2.078776 1_555
Mn6 O1 2.108552 1_554
Mn6 O23 2.124463 1_564
Mn6 O12 2.170194 1_565
Mn6 O2 2.183461 1_555
Mn6 O9 2.531788 1_565
Mn7 O6 2.078776 1_555
Mn7 O3 2.108552 1_555
Mn7 O18 2.124463 1_655
Mn7 O16 2.170194 1_655
Mn7 O0 2.183461 1_555
Mn7 O11 2.531788 1_655
O0 P0 1.569731 1_555
O1 P0 1.529699 1_555
O2 P1 1.569731 1_555
O3 P1 1.529699 1_555
O4 P5 1.562090 1_565
O5 P0 1.575208 1_555
O6 P2 1.568213 1_555
O7 P4 1.562090 1_654
O8 P5 1.552382 1_555
O9 P5 1.532407 1_555
O10 P4 1.552382 1_555
O11 P4 1.532407 1_555
O12 P0 1.575637 1_545
O13 P5 1.596775 1_555
O14 P3 1.583954 1_555
O15 P3 1.534772 1_555
O16 P1 1.575637 1_456
O17 P4 1.596775 1_555
O18 P3 1.542618 1_555
O19 P2 1.583954 1_555
O20 P3 1.568213 1_555
O21 P2 1.534772 1_555
O22 P1 1.575208 1_555
O23 P2 1.542618 1_555
