# generated using pymatgen
data_In2(Ni7B2)3
_symmetry_space_group_name_H-M   'P 1'
_cell_length_a   7.41666175
_cell_length_b   7.41666175
_cell_length_c   7.41666175
_cell_angle_alpha   60.00000000
_cell_angle_beta   60.00000000
_cell_angle_gamma   60.00000000
_symmetry_Int_Tables_number   1
_chemical_formula_structural   In2(Ni7B2)3
_chemical_formula_sum   'In2 Ni21 B6'
_cell_volume   288.47648718
_cell_formula_units_Z   1
loop_
 _symmetry_equiv_pos_site_id
 _symmetry_equiv_pos_as_xyz
  1  'x, y, z'
loop_
 _atom_site_type_symbol
 _atom_site_label
 _atom_site_symmetry_multiplicity
 _atom_site_fract_x
 _atom_site_fract_y
 _atom_site_fract_z
 _atom_site_occupancy
  In  In0  1  0.25000000  0.25000000  0.25000000  1
  In  In1  1  0.75000000  0.75000000  0.75000000  1
  Ni  Ni0  1  0.84156860  0.38614380  0.38614380  1
  Ni  Ni1  1  0.15843140  0.61385620  0.61385620  1
  Ni  Ni2  1  0.61385620  0.61385620  0.61385620  1
  Ni  Ni3  1  0.61385620  0.61385620  0.15843140  1
  Ni  Ni4  1  0.38614380  0.84156860  0.38614380  1
  Ni  Ni5  1  0.66394049  0.33605951  -0.00000000  1
  Ni  Ni6  1  0.00000000  0.33605951  0.66394049  1
  Ni  Ni7  1  0.38614380  0.38614380  0.38614380  1
  Ni  Ni8  1  -0.00000000  0.00000000  0.33605951  1
  Ni  Ni9  1  0.00000000  -0.00000000  0.66394049  1
  Ni  Ni10  1  -0.00000000  0.33605951  0.00000000  1
  Ni  Ni11  1  0.66394049  0.00000000  0.33605951  1
  Ni  Ni12  1  0.33605951  0.00000000  -0.00000000  1
  Ni  Ni13  1  -0.00000000  0.66394049  -0.00000000  1
  Ni  Ni14  1  0.33605951  -0.00000000  0.66394049  1
  Ni  Ni15  1  -0.00000000  0.66394049  0.33605951  1
  Ni  Ni16  1  0.33605951  0.66394049  0.00000000  1
  Ni  Ni17  1  0.61385620  0.15843140  0.61385620  1
  Ni  Ni18  1  -0.00000000  -0.00000000  -0.00000000  1
  Ni  Ni19  1  0.66394049  -0.00000000  0.00000000  1
  Ni  Ni20  1  0.38614380  0.38614380  0.84156860  1
  B  B0  1  0.72727926  0.72727926  0.27272074  1
  B  B1  1  0.72727926  0.27272074  0.72727926  1
  B  B2  1  0.27272074  0.72727926  0.72727926  1
  B  B3  1  0.27272074  0.27272074  0.72727926  1
  B  B4  1  0.27272074  0.72727926  0.27272074  1
  B  B5  1  0.72727926  0.27272074  0.27272074  1
loop_
_geom_bond_atom_site_label_1
_geom_bond_atom_site_label_2
_geom_bond_distance
_geom_bond_site_symmetry_2
In0 Ni7 2.473329 1_555
In0 Ni4 2.473329 1_545
In0 Ni20 2.473329 1_554
In0 Ni0 2.473329 1_455
In1 Ni1 2.473329 1_655
In1 Ni17 2.473329 1_565
In1 Ni3 2.473329 1_556
In1 Ni2 2.473329 1_555
Ni10 Ni18 2.492440 1_555
Ni11 Ni18 2.492440 1_655
Ni12 Ni18 2.492440 1_555
Ni13 Ni18 2.492440 1_565
Ni14 Ni18 2.492440 1_556
Ni15 Ni18 2.492440 1_565
Ni16 Ni18 2.492440 1_565
Ni18 Ni6 2.492440 1_554
Ni18 Ni5 2.492440 1_455
Ni18 Ni9 2.492440 1_554
Ni18 Ni8 2.492440 1_555
Ni18 Ni19 2.492440 1_455
B0 Ni2 2.065810 1_555
B0 Ni0 2.065810 1_555
B0 Ni4 2.065810 1_555
B0 Ni3 2.065810 1_555
B0 Ni13 2.076512 1_655
B0 Ni19 2.076512 1_565
B0 Ni15 2.076512 1_655
B0 Ni11 2.076512 1_565
B1 Ni2 2.065810 1_555
B1 Ni0 2.065810 1_555
B1 Ni20 2.065810 1_555
B1 Ni17 2.065810 1_555
B1 Ni9 2.076512 1_655
B1 Ni5 2.076512 1_556
B1 Ni19 2.076512 1_556
B1 Ni6 2.076512 1_655
B2 Ni2 2.065810 1_555
B2 Ni4 2.065810 1_555
B2 Ni1 2.065810 1_555
B2 Ni20 2.065810 1_555
B2 Ni13 2.076512 1_556
B2 Ni16 2.076512 1_556
B2 Ni14 2.076512 1_565
B2 Ni9 2.076512 1_565
B3 Ni20 2.065810 1_555
B3 Ni1 2.065810 1_555
B3 Ni17 2.065810 1_555
B3 Ni7 2.065810 1_555
B3 Ni10 2.076512 1_556
B3 Ni6 2.076512 1_555
B3 Ni14 2.076512 1_555
B3 Ni12 2.076512 1_556
B4 Ni4 2.065810 1_555
B4 Ni1 2.065810 1_555
B4 Ni3 2.065810 1_555
B4 Ni7 2.065810 1_555
B4 Ni15 2.076512 1_555
B4 Ni16 2.076512 1_555
B4 Ni8 2.076512 1_565
B4 Ni12 2.076512 1_565
B5 Ni17 2.065810 1_555
B5 Ni3 2.065810 1_555
B5 Ni0 2.065810 1_555
B5 Ni7 2.065810 1_555
B5 Ni8 2.076512 1_655
B5 Ni11 2.076512 1_555
B5 Ni5 2.076512 1_555
B5 Ni10 2.076512 1_655
