# generated using pymatgen
data_MgMo2(PO5)2
_symmetry_space_group_name_H-M   'P 1'
_cell_length_a   5.60865093
_cell_length_b   5.21673717
_cell_length_c   7.52008238
_cell_angle_alpha   69.06520953
_cell_angle_beta   68.34152597
_cell_angle_gamma   89.92597118
_symmetry_Int_Tables_number   1
_chemical_formula_structural   MgMo2(PO5)2
_chemical_formula_sum   'Mg1 Mo2 P2 O10'
_cell_volume   188.82246900
_cell_formula_units_Z   1
loop_
 _symmetry_equiv_pos_site_id
 _symmetry_equiv_pos_as_xyz
  1  'x, y, z'
loop_
 _atom_site_type_symbol
 _atom_site_label
 _atom_site_symmetry_multiplicity
 _atom_site_fract_x
 _atom_site_fract_y
 _atom_site_fract_z
 _atom_site_occupancy
  Mg  Mg0  1  0.22539300  0.22408300  0.52415800  1
  Mo  Mo0  1  0.22537000  0.72471000  0.02450500  1
  Mo  Mo1  1  0.72507500  0.22438100  0.52472200  1
  P  P0  1  0.59922200  0.85470600  0.25903000  1
  P  P1  1  0.85135300  0.59391700  0.79031900  1
  O  O0  1  0.38004500  0.05253400  0.75041600  1
  O  O1  1  0.07026200  0.39630200  0.29851100  1
  O  O2  1  0.88193000  0.90172500  0.11319000  1
  O  O3  1  0.93303800  0.89746500  0.61839600  1
  O  O4  1  0.55592800  0.06478500  0.36957800  1
  O  O5  1  0.04805700  0.54736100  0.89340700  1
  O  O6  1  0.40256700  0.90184900  0.15588800  1
  O  O7  1  0.89427500  0.38366800  0.68000900  1
  O  O8  1  0.51732900  0.55117100  0.43062200  1
  O  O9  1  0.56875800  0.54744300  0.93655000  1
loop_
_geom_bond_atom_site_label_1
_geom_bond_atom_site_label_2
_geom_bond_distance
_geom_bond_site_symmetry_2
Mg0 O3 2.093008 1_445
Mg0 O8 2.094443 1_555
Mg0 O1 2.107597 1_555
Mg0 O0 2.108918 1_555
Mg0 O4 2.138759 1_555
Mg0 O7 2.145282 1_455
Mo0 O0 2.022544 1_564
Mo0 O1 2.023799 1_555
Mo0 O5 2.048117 1_554
Mo0 O6 2.048764 1_555
Mo0 O9 2.119931 1_554
Mo0 O2 2.120178 1_455
Mo1 O0 1.980380 1_555
Mo1 O1 1.982323 1_655
Mo1 O4 2.113656 1_555
Mo1 O7 2.113820 1_555
Mo1 O8 2.122747 1_555
Mo1 O3 2.123218 1_545
O2 P0 1.517327 1_555
O3 P1 1.578169 1_555
O4 P0 1.566046 1_545
O5 P1 1.540516 1_455
O6 P0 1.540489 1_555
O7 P1 1.565628 1_555
O8 P0 1.577231 1_555
O9 P1 1.517934 1_555
