# generated using pymatgen
data_MgV2Bi2(PbO5)2
_symmetry_space_group_name_H-M   'P 1'
_cell_length_a   6.06000869
_cell_length_b   7.83951916
_cell_length_c   7.46166746
_cell_angle_alpha   99.27039745
_cell_angle_beta   119.55819674
_cell_angle_gamma   99.06357250
_symmetry_Int_Tables_number   1
_chemical_formula_structural   MgV2Bi2(PbO5)2
_chemical_formula_sum   'Mg1 V2 Bi2 Pb2 O10'
_cell_volume   292.49750037
_cell_formula_units_Z   1
loop_
 _symmetry_equiv_pos_site_id
 _symmetry_equiv_pos_as_xyz
  1  'x, y, z'
loop_
 _atom_site_type_symbol
 _atom_site_label
 _atom_site_symmetry_multiplicity
 _atom_site_fract_x
 _atom_site_fract_y
 _atom_site_fract_z
 _atom_site_occupancy
  Mg  Mg0  1  0.68618400  0.59111300  0.40111600  1
  V  V0  1  0.15008600  0.61821500  0.33868600  1
  V  V1  1  0.87772100  0.36798700  0.67035800  1
  Bi  Bi0  1  0.59681600  0.24597700  0.02423400  1
  Bi  Bi1  1  0.39895600  0.76880700  0.95083300  1
  Pb  Pb0  1  0.23766500  0.12863100  0.33123500  1
  Pb  Pb1  1  0.79961900  0.95580300  0.73449400  1
  O  O0  1  0.26676600  0.00620500  0.00000200  1
  O  O1  1  0.74342300  0.00451500  0.02445200  1
  O  O2  1  0.62370500  0.32401600  0.37248500  1
  O  O3  1  0.33429200  0.74857700  0.62037300  1
  O  O4  1  0.65412300  0.23173300  0.73402500  1
  O  O5  1  0.81948500  0.64139600  0.21817400  1
  O  O6  1  0.92707600  0.61423400  0.72006100  1
  O  O7  1  0.06130100  0.36800500  0.25269500  1
  O  O8  1  0.12535800  0.26547200  0.71869300  1
  O  O9  1  0.38790000  0.69338900  0.26771600  1
loop_
_geom_bond_atom_site_label_1
_geom_bond_atom_site_label_2
_geom_bond_distance
_geom_bond_site_symmetry_2
Mg0 O5 1.957622 1_555
Mg0 O9 1.959511 1_555
Mg0 O2 2.024784 1_555
Mg0 O6 2.043930 1_555
Bi0 O1 2.214045 1_555
Bi0 O4 2.344884 1_554
Bi0 O7 2.374077 1_655
Bi0 O0 2.432196 1_555
Bi0 O2 2.488342 1_555
Bi0 O8 2.684611 1_554
Bi1 O0 2.186241 1_566
Bi1 O3 2.271542 1_555
Bi1 O1 2.323818 1_566
Bi1 O6 2.447163 1_455
Bi1 O9 2.557152 1_556
Bi1 O5 2.810645 1_556
O0 Pb1 2.440721 1_444
O0 Pb0 2.603824 1_555
O1 Pb1 2.333357 1_544
O1 Pb0 2.599482 1_655
O2 V1 1.907579 1_555
O2 Pb0 2.433610 1_555
O3 V0 1.828102 1_555
O3 Pb1 2.656678 1_555
O4 V1 1.882892 1_555
O4 Pb1 2.461092 1_545
O4 Pb0 2.673315 1_555
O5 V0 1.801485 1_655
O6 V1 1.852471 1_555
O7 V0 1.862835 1_555
O7 Pb0 2.318515 1_555
O8 V1 1.722609 1_455
O9 V0 1.813996 1_555
