# generated using pymatgen
data_LiCo2P5O16
_symmetry_space_group_name_H-M   'P 1'
_cell_length_a   6.59185500
_cell_length_b   4.88527300
_cell_length_c   18.43409045
_cell_angle_alpha   88.76625805
_cell_angle_beta   90.00000000
_cell_angle_gamma   90.00000000
_symmetry_Int_Tables_number   1
_chemical_formula_structural   LiCo2P5O16
_chemical_formula_sum   'Li2 Co4 P10 O32'
_cell_volume   593.49560421
_cell_formula_units_Z   2
loop_
 _symmetry_equiv_pos_site_id
 _symmetry_equiv_pos_as_xyz
  1  'x, y, z'
loop_
 _atom_site_type_symbol
 _atom_site_label
 _atom_site_symmetry_multiplicity
 _atom_site_fract_x
 _atom_site_fract_y
 _atom_site_fract_z
 _atom_site_occupancy
  Li  Li0  1  0.37751600  0.26741100  0.02587200  1
  Li  Li1  1  0.62248400  0.26741100  0.52587200  1
  Co  Co0  1  0.18156400  0.24850500  0.59203700  1
  Co  Co1  1  0.81843600  0.24850500  0.09203700  1
  Co  Co2  1  0.81946300  0.75397200  0.40777500  1
  Co  Co3  1  0.18053700  0.75397200  0.90777500  1
  P  P0  1  0.12345700  0.23680100  0.42504400  1
  P  P1  1  0.54019000  0.73187000  0.13088000  1
  P  P2  1  0.53970700  0.26979900  0.36885000  1
  P  P3  1  0.24481000  0.99596200  0.75018700  1
  P  P4  1  0.87654300  0.23680100  0.92504400  1
  P  P5  1  0.12179900  0.76219200  0.07710200  1
  P  P6  1  0.46029300  0.26979900  0.86885000  1
  P  P7  1  0.75519000  0.99596200  0.25018700  1
  P  P8  1  0.87820100  0.76219200  0.57710200  1
  P  P9  1  0.45981000  0.73187000  0.63088000  1
  O  O0  1  0.69760500  0.76809600  0.63876200  1
  O  O1  1  0.60793100  0.77533500  0.21271800  1
  O  O2  1  0.57298400  0.57146400  0.38176400  1
  O  O3  1  0.96613600  0.42416600  0.39004700  1
  O  O4  1  0.04286200  0.58526900  0.61098900  1
  O  O5  1  0.64205500  0.07751200  0.42412500  1
  O  O6  1  0.87070000  0.15344100  0.19291700  1
  O  O7  1  0.05769900  0.93809500  0.43410800  1
  O  O8  1  0.43464700  0.43112300  0.61194800  1
  O  O9  1  0.42701600  0.57146400  0.88176400  1
  O  O10  1  0.12930000  0.15344100  0.69291700  1
  O  O11  1  0.76807900  0.34392000  0.99290600  1
  O  O12  1  0.35794500  0.07751200  0.92412500  1
  O  O13  1  0.87889900  0.85079400  0.30736700  1
  O  O14  1  0.23192100  0.34392000  0.49290600  1
  O  O15  1  0.30239500  0.76809600  0.13876200  1
  O  O16  1  0.77254000  0.64282400  0.50994500  1
  O  O17  1  0.59497200  0.19657400  0.28705600  1
  O  O18  1  0.40502800  0.19657400  0.78705600  1
  O  O19  1  0.07162700  0.06842500  0.06900300  1
  O  O20  1  0.03386400  0.42416600  0.89004700  1
  O  O21  1  0.22746000  0.64282400  0.00994500  1
  O  O22  1  0.12110100  0.85079400  0.80736700  1
  O  O23  1  0.94230100  0.93809500  0.93410800  1
  O  O24  1  0.56535300  0.43112300  0.11194800  1
  O  O25  1  0.39206900  0.77533500  0.71271800  1
  O  O26  1  0.95713800  0.58526900  0.11098900  1
  O  O27  1  0.63034700  0.94270800  0.07869300  1
  O  O28  1  0.36965300  0.94270800  0.57869300  1
  O  O29  1  0.92837300  0.06842500  0.56900300  1
  O  O30  1  0.69619400  0.22373100  0.86404900  1
  O  O31  1  0.30380600  0.22373100  0.36404900  1
loop_
_geom_bond_atom_site_label_1
_geom_bond_atom_site_label_2
_geom_bond_distance
_geom_bond_site_symmetry_2
Li0 O21 2.098801 1_555
Li0 O12 2.114271 1_554
Li0 O24 2.178334 1_555
Li0 O19 2.368464 1_555
Li0 O27 2.485048 1_545
Li1 O16 2.098801 1_555
Li1 O5 2.114271 1_555
Li1 O8 2.178334 1_555
Li1 O29 2.368464 1_555
Li1 O28 2.485048 1_545
Co0 O14 1.905292 1_555
Co0 O4 1.920778 1_555
Co0 O8 1.930780 1_555
Co0 O10 1.937888 1_555
Co0 O29 1.938009 1_455
Co0 O28 1.960948 1_545
Co1 O11 1.905292 1_554
Co1 O26 1.920778 1_555
Co1 O24 1.930780 1_555
Co1 O6 1.937888 1_555
Co1 O19 1.938009 1_655
Co1 O27 1.960948 1_545
Co2 O7 1.878759 1_655
Co2 O3 1.913167 1_555
Co2 O2 1.919140 1_555
Co2 O13 1.940483 1_555
Co2 O16 1.973248 1_555
Co2 O5 1.994292 1_565
Co3 O23 1.878759 1_455
Co3 O20 1.913167 1_555
Co3 O9 1.919140 1_555
Co3 O22 1.940483 1_555
Co3 O21 1.973248 1_556
Co3 O12 1.994292 1_565
O0 P9 1.584496 1_555
O0 P8 1.646636 1_555
O1 P1 1.591911 1_555
O1 P7 1.616513 1_555
O2 P2 1.513848 1_555
O3 P0 1.517909 1_655
O4 P8 1.513986 1_455
O5 P2 1.527948 1_555
O6 P7 1.500401 1_545
O7 P0 1.527990 1_565
O8 P9 1.526444 1_555
O9 P6 1.513848 1_555
O10 P3 1.500401 1_545
O11 P4 1.542132 1_555
O12 P6 1.527948 1_555
O13 P7 1.498931 1_555
O14 P0 1.542132 1_555
O15 P1 1.584496 1_555
O15 P5 1.646636 1_555
O16 P8 1.545591 1_555
O17 P2 1.599175 1_555
O17 P7 1.602033 1_545
O18 P6 1.599175 1_555
O18 P3 1.602033 1_545
O19 P5 1.536282 1_545
O20 P4 1.517909 1_455
O21 P5 1.545591 1_555
O22 P3 1.498931 1_555
O23 P4 1.527990 1_565
O24 P1 1.526444 1_555
O25 P9 1.591911 1_555
O25 P3 1.616513 1_555
O26 P5 1.513986 1_655
O27 P1 1.515556 1_555
O28 P9 1.515556 1_555
O29 P8 1.536282 1_545
O30 P6 1.573990 1_555
O30 P4 1.638518 1_555
O31 P2 1.573990 1_555
O31 P0 1.638518 1_555
