# generated using pymatgen
data_Na4TaAl(SiO4)3
_symmetry_space_group_name_H-M   'P 1'
_cell_length_a   8.97808708
_cell_length_b   8.97808678
_cell_length_c   22.03877932
_cell_angle_alpha   90.00000000
_cell_angle_beta   90.00000000
_cell_angle_gamma   120.00000111
_symmetry_Int_Tables_number   1
_chemical_formula_structural   Na4TaAl(SiO4)3
_chemical_formula_sum   'Na24 Ta6 Al6 Si18 O72'
_cell_volume   1538.45846309
_cell_formula_units_Z   6
loop_
 _symmetry_equiv_pos_site_id
 _symmetry_equiv_pos_as_xyz
  1  'x, y, z'
loop_
 _atom_site_type_symbol
 _atom_site_label
 _atom_site_symmetry_multiplicity
 _atom_site_fract_x
 _atom_site_fract_y
 _atom_site_fract_z
 _atom_site_occupancy
  Na  Na0  1  0.63639033  0.00905450  0.24759108  1
  Na  Na1  1  0.37266417  0.36360967  0.24759108  1
  Na  Na2  1  0.99094550  0.62733583  0.24759108  1
  Na  Na3  1  0.63639033  0.62733583  0.74759108  1
  Na  Na4  1  0.99094550  0.36360967  0.74759108  1
  Na  Na5  1  0.37266417  0.00905450  0.74759108  1
  Na  Na6  1  0.30305733  0.34238750  0.58092408  1
  Na  Na7  1  0.03933117  0.69694267  0.58092408  1
  Na  Na8  1  0.65761250  0.96066883  0.58092408  1
  Na  Na9  1  0.30305733  0.96066883  0.08092408  1
  Na  Na10  1  0.65761250  0.69694267  0.08092408  1
  Na  Na11  1  0.03933117  0.34238750  0.08092408  1
  Na  Na12  1  0.96972333  0.67572150  0.91425808  1
  Na  Na13  1  0.70599717  0.03027667  0.91425808  1
  Na  Na14  1  0.32427850  0.29400283  0.91425808  1
  Na  Na15  1  0.96972333  0.29400283  0.41425808  1
  Na  Na16  1  0.32427850  0.03027667  0.41425808  1
  Na  Na17  1  0.70599717  0.67572150  0.41425808  1
  Na  Na18  1  -0.00000000  -0.00000000  0.49498162  1
  Na  Na19  1  -0.00000000  -0.00000000  0.99498162  1
  Na  Na20  1  0.66666700  0.33333300  0.82831462  1
  Na  Na21  1  0.66666700  0.33333300  0.32831462  1
  Na  Na22  1  0.33333300  0.66666700  0.16164862  1
  Na  Na23  1  0.33333300  0.66666700  0.66164862  1
  Ta  Ta0  1  -0.00000000  -0.00000000  0.64624078  1
  Ta  Ta1  1  -0.00000000  -0.00000000  0.14624078  1
  Ta  Ta2  1  0.66666700  0.33333300  0.97957378  1
  Ta  Ta3  1  0.66666700  0.33333300  0.47957378  1
  Ta  Ta4  1  0.33333300  0.66666700  0.31290778  1
  Ta  Ta5  1  0.33333300  0.66666700  0.81290778  1
  Al  Al0  1  -0.00000000  -0.00000000  0.35264095  1
  Al  Al1  1  -0.00000000  -0.00000000  0.85264095  1
  Al  Al2  1  0.66666700  0.33333300  0.68597395  1
  Al  Al3  1  0.66666700  0.33333300  0.18597395  1
  Al  Al4  1  0.33333300  0.66666700  0.01930795  1
  Al  Al5  1  0.33333300  0.66666700  0.51930795  1
  Si  Si0  1  0.29242748  0.00659421  0.25259447  1
  Si  Si1  1  0.71416674  0.70757252  0.25259447  1
  Si  Si2  1  0.99340579  0.28583326  0.25259447  1
  Si  Si3  1  0.29242748  0.28583326  0.75259447  1
  Si  Si4  1  0.99340579  0.70757252  0.75259447  1
  Si  Si5  1  0.71416674  0.00659421  0.75259447  1
  Si  Si6  1  0.95909448  0.33992721  0.58592747  1
  Si  Si7  1  0.38083374  0.04090552  0.58592747  1
  Si  Si8  1  0.66007279  0.61916626  0.58592747  1
  Si  Si9  1  0.95909448  0.61916626  0.08592747  1
  Si  Si10  1  0.66007279  0.04090552  0.08592747  1
  Si  Si11  1  0.38083374  0.33992721  0.08592747  1
  Si  Si12  1  0.62576048  0.67326121  0.91926147  1
  Si  Si13  1  0.04749974  0.37423952  0.91926147  1
  Si  Si14  1  0.32673879  0.95250026  0.91926147  1
  Si  Si15  1  0.62576048  0.95250026  0.41926147  1
  Si  Si16  1  0.32673879  0.37423952  0.41926147  1
  Si  Si17  1  0.04749974  0.67326121  0.41926147  1
  O  O0  1  0.19869775  0.03365362  0.31051865  1
  O  O1  1  0.83495587  0.80130225  0.31051865  1
  O  O2  1  0.96634638  0.16504413  0.31051865  1
  O  O3  1  0.19869775  0.16504413  0.81051865  1
  O  O4  1  0.96634638  0.80130225  0.81051865  1
  O  O5  1  0.83495587  0.03365362  0.81051865  1
  O  O6  1  0.79927978  0.96581401  0.69182489  1
  O  O7  1  0.16653423  0.20072022  0.69182489  1
  O  O8  1  0.03418599  0.83346577  0.69182489  1
  O  O9  1  0.79927978  0.83346577  0.19182489  1
  O  O10  1  0.03418599  0.20072022  0.19182489  1
  O  O11  1  0.16653423  0.96581401  0.19182489  1
  O  O12  1  0.86536475  0.36698662  0.64385165  1
  O  O13  1  0.50162287  0.13463525  0.64385165  1
  O  O14  1  0.63301338  0.49837713  0.64385165  1
  O  O15  1  0.86536475  0.49837713  0.14385165  1
  O  O16  1  0.63301338  0.13463525  0.14385165  1
  O  O17  1  0.50162287  0.36698662  0.14385165  1
  O  O18  1  0.46594678  0.29914701  0.02515789  1
  O  O19  1  0.83320123  0.53405322  0.02515789  1
  O  O20  1  0.70085299  0.16679877  0.02515789  1
  O  O21  1  0.46594678  0.16679877  0.52515789  1
  O  O22  1  0.70085299  0.53405322  0.52515789  1
  O  O23  1  0.83320123  0.29914701  0.52515789  1
  O  O24  1  0.53203075  0.70032062  0.97718565  1
  O  O25  1  0.16828887  0.46796925  0.97718565  1
  O  O26  1  0.29967938  0.83171113  0.97718565  1
  O  O27  1  0.53203075  0.83171113  0.47718565  1
  O  O28  1  0.29967938  0.46796925  0.47718565  1
  O  O29  1  0.16828887  0.70032062  0.47718565  1
  O  O30  1  0.13261278  0.63248101  0.35849189  1
  O  O31  1  0.49986723  0.86738722  0.35849189  1
  O  O32  1  0.36751899  0.50013277  0.35849189  1
  O  O33  1  0.13261278  0.50013277  0.85849189  1
  O  O34  1  0.36751899  0.86738722  0.85849189  1
  O  O35  1  0.49986723  0.63248101  0.85849189  1
  O  O36  1  0.02324469  0.83952039  0.41065002  1
  O  O37  1  0.81627570  0.97675531  0.41065002  1
  O  O38  1  0.16047961  0.18372430  0.41065002  1
  O  O39  1  0.02324469  0.18372430  0.91065002  1
  O  O40  1  0.16047961  0.97675531  0.91065002  1
  O  O41  1  0.81627570  0.83952039  0.91065002  1
  O  O42  1  0.97411643  0.16218414  0.58886645  1
  O  O43  1  0.18806771  0.02588357  0.58886645  1
  O  O44  1  0.83781586  0.81193229  0.58886645  1
  O  O45  1  0.97411643  0.81193229  0.08886645  1
  O  O46  1  0.83781586  0.02588357  0.08886645  1
  O  O47  1  0.18806771  0.16218414  0.08886645  1
  O  O48  1  0.68991169  0.17285339  0.74398302  1
  O  O49  1  0.48294270  0.31008831  0.74398302  1
  O  O50  1  0.82714661  0.51705730  0.74398302  1
  O  O51  1  0.68991169  0.51705730  0.24398302  1
  O  O52  1  0.82714661  0.31008831  0.24398302  1
  O  O53  1  0.48294270  0.17285339  0.24398302  1
  O  O54  1  0.64078343  0.49551714  0.92219945  1
  O  O55  1  0.85473471  0.35921657  0.92219945  1
  O  O56  1  0.50448286  0.14526529  0.92219945  1
  O  O57  1  0.64078343  0.14526529  0.42219945  1
  O  O58  1  0.50448286  0.35921657  0.42219945  1
  O  O59  1  0.85473471  0.49551714  0.42219945  1
  O  O60  1  0.35657769  0.50618739  0.07731702  1
  O  O61  1  0.14960870  0.64342231  0.07731702  1
  O  O62  1  0.49381261  0.85039130  0.07731702  1
  O  O63  1  0.35657769  0.85039130  0.57731702  1
  O  O64  1  0.49381261  0.64342231  0.57731702  1
  O  O65  1  0.14960870  0.50618739  0.57731702  1
  O  O66  1  0.30744943  0.82885114  0.25553345  1
  O  O67  1  0.52140071  0.69255057  0.25553345  1
  O  O68  1  0.17114886  0.47859929  0.25553345  1
  O  O69  1  0.30744943  0.47859929  0.75553345  1
  O  O70  1  0.17114886  0.69255057  0.75553345  1
  O  O71  1  0.52140071  0.82885114  0.75553345  1
loop_
_geom_bond_atom_site_label_1
_geom_bond_atom_site_label_2
_geom_bond_distance
_geom_bond_site_symmetry_2
Na0 O52 2.369665 1_555
Na0 O53 2.468390 1_555
Na0 O67 2.497503 1_545
Na0 O16 2.556057 1_555
Na0 O66 2.567469 1_545
Na0 O31 2.744966 1_545
Na0 O9 2.905144 1_545
Na0 O2 2.917465 1_555
Na1 O53 2.369672 1_555
Na1 O51 2.468398 1_555
Na1 O68 2.497511 1_555
Na1 O17 2.556061 1_555
Na1 O67 2.567470 1_555
Na1 O32 2.744968 1_555
Na1 O10 2.905144 1_555
Na1 O0 2.917465 1_555
Na2 O51 2.369664 1_555
Na2 O52 2.468398 1_555
Na2 O66 2.497504 1_655
Na2 O15 2.556059 1_555
Na2 O68 2.567462 1_655
Na2 O30 2.744964 1_655
Na2 O11 2.905144 1_655
Na2 O1 2.917465 1_555
Na3 O50 2.369672 1_555
Na3 O49 2.468398 1_555
Na3 O71 2.497511 1_555
Na3 O14 2.556061 1_555
Na3 O69 2.567470 1_555
Na3 O35 2.744968 1_555
Na3 O6 2.905144 1_555
Na3 O4 2.917465 1_555
Na4 O48 2.369665 1_555
Na4 O50 2.468390 1_555
Na4 O69 2.497503 1_655
Na4 O12 2.556057 1_555
Na4 O70 2.567469 1_655
Na4 O33 2.744966 1_655
Na4 O7 2.905144 1_655
Na4 O5 2.917465 1_555
Na5 O49 2.369664 1_555
Na5 O48 2.468398 1_555
Na5 O70 2.497504 1_545
Na5 O13 2.556059 1_555
Na5 O71 2.567462 1_545
Na5 O34 2.744964 1_545
Na5 O8 2.905144 1_545
Na5 O3 2.917465 1_555
Na6 O64 2.369670 1_555
Na6 O65 2.468405 1_555
Na6 O43 2.497503 1_555
Na6 O28 2.556043 1_555
Na6 O42 2.567469 1_455
Na6 O7 2.744966 1_555
Na6 O21 2.905144 1_555
Na6 O14 2.917465 1_555
Na7 O65 2.369656 1_555
Na7 O63 2.468389 1_555
Na7 O44 2.497511 1_455
Na7 O29 2.556035 1_555
Na7 O43 2.567470 1_565
Na7 O8 2.744968 1_555
Na7 O22 2.905144 1_455
Na7 O12 2.917465 1_455
Na8 O63 2.369673 1_555
Na8 O64 2.468390 1_555
Na8 O42 2.497504 1_565
Na8 O27 2.556039 1_555
Na8 O44 2.567462 1_555
Na8 O6 2.744964 1_555
Na8 O23 2.905144 1_565
Na8 O13 2.917465 1_565
Na9 O62 2.369656 1_555
Na9 O61 2.468389 1_555
Na9 O47 2.497511 1_565
Na9 O26 2.556035 1_554
Na9 O45 2.567470 1_455
Na9 O11 2.744968 1_555
Na9 O18 2.905144 1_565
Na9 O16 2.917465 1_565
Na10 O60 2.369670 1_555
Na10 O62 2.468405 1_555
Na10 O45 2.497503 1_555
Na10 O24 2.556043 1_554
Na10 O46 2.567469 1_565
Na10 O9 2.744966 1_555
Na10 O19 2.905144 1_555
Na10 O17 2.917465 1_555
Na11 O61 2.369673 1_555
Na11 O60 2.468390 1_555
Na11 O46 2.497504 1_455
Na11 O25 2.556039 1_554
Na11 O47 2.567462 1_555
Na11 O10 2.744964 1_555
Na11 O20 2.905144 1_455
Na11 O15 2.917465 1_455
Na12 O40 2.369665 1_655
Na12 O41 2.468390 1_555
Na12 O55 2.497511 1_555
Na12 O4 2.556057 1_555
Na12 O54 2.567461 1_555
Na12 O19 2.744947 1_556
Na12 O33 2.905144 1_655
Na12 O26 2.917465 1_655
Na13 O41 2.369672 1_545
Na13 O39 2.468398 1_655
Na13 O56 2.497494 1_555
Na13 O5 2.556061 1_555
Na13 O55 2.567460 1_555
Na13 O20 2.744942 1_556
Na13 O34 2.905144 1_545
Na13 O24 2.917465 1_545
Na14 O39 2.369664 1_555
Na14 O40 2.468398 1_545
Na14 O54 2.497508 1_555
Na14 O3 2.556059 1_555
Na14 O56 2.567476 1_555
Na14 O18 2.744950 1_556
Na14 O35 2.905144 1_555
Na14 O25 2.917465 1_555
Na15 O38 2.369672 1_655
Na15 O37 2.468398 1_545
Na15 O59 2.497494 1_555
Na15 O2 2.556061 1_555
Na15 O57 2.567460 1_555
Na15 O23 2.744942 1_555
Na15 O30 2.905144 1_655
Na15 O28 2.917465 1_655
Na16 O36 2.369665 1_545
Na16 O38 2.468390 1_555
Na16 O57 2.497511 1_555
Na16 O0 2.556057 1_555
Na16 O58 2.567461 1_555
Na16 O21 2.744947 1_555
Na16 O31 2.905144 1_545
Na16 O29 2.917465 1_545
Na17 O37 2.369664 1_555
Na17 O36 2.468398 1_655
Na17 O58 2.497508 1_555
Na17 O1 2.556059 1_555
Na17 O59 2.567476 1_555
Na17 O22 2.744950 1_555
Na17 O32 2.905144 1_555
Na17 O27 2.917465 1_555
Na18 O38 2.423718 1_555
Na18 O36 2.423718 1_545
Na18 O37 2.423718 1_445
Na18 O44 2.606496 1_445
Na18 O42 2.606496 1_455
Na18 O43 2.606496 1_555
Na19 O39 2.423718 1_555
Na19 O41 2.423718 1_445
Na19 O40 2.423718 1_545
Na19 O45 2.606496 1_446
Na19 O47 2.606496 1_556
Na19 O46 2.606496 1_456
Na20 O50 2.423718 1_555
Na20 O48 2.423718 1_555
Na20 O49 2.423718 1_555
Na20 O56 2.606496 1_555
Na20 O54 2.606496 1_555
Na20 O55 2.606496 1_555
Na21 O51 2.423718 1_555
Na21 O53 2.423718 1_555
Na21 O52 2.423718 1_555
Na21 O57 2.606496 1_555
Na21 O59 2.606496 1_555
Na21 O58 2.606496 1_555
Na22 O62 2.423718 1_555
Na22 O60 2.423718 1_555
Na22 O61 2.423718 1_555
Na22 O68 2.606496 1_555
Na22 O66 2.606496 1_555
Na22 O67 2.606496 1_555
Na23 O63 2.423718 1_555
Na23 O65 2.423718 1_555
Na23 O64 2.423718 1_555
Na23 O69 2.606496 1_555
Na23 O71 2.606496 1_555
Na23 O70 2.606496 1_555
Al0 O1 1.896434 1_445
Al0 O2 1.896434 1_455
Al0 O0 1.896434 1_555
Al0 O38 2.013597 1_555
Al0 O36 2.013597 1_545
Al0 O37 2.013597 1_445
Al1 O4 1.896434 1_445
Al1 O3 1.896434 1_555
Al1 O5 1.896434 1_455
Al1 O39 2.013597 1_555
Al1 O41 2.013597 1_445
Al1 O40 2.013597 1_545
Al2 O13 1.896434 1_555
Al2 O14 1.896434 1_555
Al2 O12 1.896434 1_555
Al2 O50 2.013597 1_555
Al2 O48 2.013597 1_555
Al2 O49 2.013597 1_555
Al3 O16 1.896434 1_555
Al3 O15 1.896434 1_555
Al3 O17 1.896434 1_555
Al3 O51 2.013597 1_555
Al3 O53 2.013597 1_555
Al3 O52 2.013597 1_555
Al4 O25 1.896434 1_554
Al4 O26 1.896434 1_554
Al4 O24 1.896434 1_554
Al4 O62 2.013597 1_555
Al4 O60 2.013597 1_555
Al4 O61 2.013597 1_555
Al5 O28 1.896434 1_555
Al5 O27 1.896434 1_555
Al5 O29 1.896434 1_555
Al5 O63 2.013597 1_555
Al5 O65 2.013597 1_555
Al5 O64 2.013597 1_555
O0 Si0 1.612841 1_555
O1 Si1 1.612841 1_555
O2 Si2 1.612841 1_555
O3 Si3 1.612841 1_555
O4 Si4 1.612841 1_555
O5 Si5 1.612841 1_555
O6 Si5 1.670762 1_565
O6 Ta0 1.948810 1_665
O7 Si3 1.670762 1_555
O7 Ta0 1.948810 1_555
O8 Si4 1.670762 1_455
O8 Ta0 1.948810 1_565
O9 Si1 1.670762 1_555
O9 Ta1 1.948810 1_665
O10 Si2 1.670762 1_455
O10 Ta1 1.948810 1_555
O11 Si0 1.670762 1_565
O11 Ta1 1.948810 1_565
O12 Si6 1.612841 1_555
O13 Si7 1.612841 1_555
O14 Si8 1.612841 1_555
O15 Si9 1.612841 1_555
O16 Si10 1.612841 1_555
O17 Si11 1.612841 1_555
O18 Si11 1.670762 1_555
O18 Ta2 1.948810 1_554
O19 Si9 1.670762 1_555
O19 Ta2 1.948810 1_554
O20 Si10 1.670762 1_555
O20 Ta2 1.948810 1_554
O21 Si7 1.670762 1_555
O21 Ta3 1.948810 1_555
O22 Si8 1.670762 1_555
O22 Ta3 1.948810 1_555
O23 Si6 1.670762 1_555
O23 Ta3 1.948810 1_555
O24 Si12 1.612841 1_555
O25 Si13 1.612841 1_555
O26 Si14 1.612841 1_555
O27 Si15 1.612841 1_555
O28 Si16 1.612841 1_555
O29 Si17 1.612841 1_555
O30 Si17 1.670762 1_555
O30 Ta4 1.948810 1_555
O31 Si15 1.670762 1_555
O31 Ta4 1.948810 1_555
O32 Si16 1.670762 1_555
O32 Ta4 1.948810 1_555
O33 Si13 1.670762 1_555
O33 Ta5 1.948810 1_555
O34 Si14 1.670762 1_555
O34 Ta5 1.948810 1_555
O35 Si12 1.670762 1_555
O35 Ta5 1.948810 1_555
O36 Si17 1.623766 1_555
O37 Si15 1.623775 1_555
O38 Si16 1.623771 1_555
O39 Si13 1.623775 1_555
O40 Si14 1.623766 1_555
O41 Si12 1.623771 1_555
O42 Si6 1.668581 1_555
O42 Ta0 2.027677 1_655
O43 Si7 1.668590 1_555
O43 Ta0 2.027677 1_555
O44 Si8 1.668586 1_555
O44 Ta0 2.027677 1_665
O45 Si9 1.668590 1_555
O45 Ta1 2.027677 1_665
O46 Si10 1.668581 1_555
O46 Ta1 2.027677 1_655
O47 Si11 1.668586 1_555
O47 Ta1 2.027677 1_555
O48 Si5 1.623766 1_555
O49 Si3 1.623775 1_555
O50 Si4 1.623771 1_555
O51 Si1 1.623775 1_555
O52 Si2 1.623766 1_555
O53 Si0 1.623771 1_555
O54 Si12 1.668594 1_555
O54 Ta2 2.027677 1_555
O55 Si13 1.668576 1_655
O55 Ta2 2.027677 1_555
O56 Si14 1.668584 1_545
O56 Ta2 2.027677 1_555
O57 Si15 1.668576 1_545
O57 Ta3 2.027677 1_555
O58 Si16 1.668594 1_555
O58 Ta3 2.027677 1_555
O59 Si17 1.668584 1_655
O59 Ta3 2.027677 1_555
O60 Si11 1.623777 1_555
O61 Si9 1.623760 1_455
O62 Si10 1.623767 1_565
O63 Si7 1.623760 1_565
O64 Si8 1.623777 1_555
O65 Si6 1.623767 1_455
O66 Si0 1.668581 1_565
O66 Ta4 2.027677 1_555
O67 Si1 1.668590 1_555
O67 Ta4 2.027677 1_555
O68 Si2 1.668586 1_455
O68 Ta4 2.027677 1_555
O69 Si3 1.668590 1_555
O69 Ta5 2.027677 1_555
O70 Si4 1.668581 1_455
O70 Ta5 2.027677 1_555
O71 Si5 1.668586 1_565
O71 Ta5 2.027677 1_555
