# generated using pymatgen
data_MgCo6(O3F)3
_symmetry_space_group_name_H-M   'P 1'
_cell_length_a   4.80605805
_cell_length_b   4.80608688
_cell_length_c   8.94254776
_cell_angle_alpha   89.99902199
_cell_angle_beta   90.00069472
_cell_angle_gamma   101.28715106
_symmetry_Int_Tables_number   1
_chemical_formula_structural   MgCo6(O3F)3
_chemical_formula_sum   'Mg1 Co6 O9 F3'
_cell_volume   202.56281714
_cell_formula_units_Z   1
loop_
 _symmetry_equiv_pos_site_id
 _symmetry_equiv_pos_as_xyz
  1  'x, y, z'
loop_
 _atom_site_type_symbol
 _atom_site_label
 _atom_site_symmetry_multiplicity
 _atom_site_fract_x
 _atom_site_fract_y
 _atom_site_fract_z
 _atom_site_occupancy
  Mg  Mg0  1  0.70758104  0.29242495  0.66656117  1
  Co  Co0  1  0.00102789  0.99897206  0.00741594  1
  Co  Co1  1  0.00102695  0.99897265  0.32567270  1
  Co  Co2  1  0.07026707  0.92973389  0.66662339  1
  Co  Co3  1  0.57302714  0.42697247  0.16650835  1
  Co  Co4  1  0.43871919  0.56128200  0.85415730  1
  Co  Co5  1  0.43873181  0.56126603  0.47891574  1
  O  O0  1  0.17768814  0.82231366  0.84649168  1
  O  O1  1  0.17775207  0.82224861  0.48664309  1
  O  O2  1  0.31381788  0.30667947  0.32394724  1
  O  O3  1  0.31386375  0.30671769  0.00913106  1
  O  O4  1  0.28645105  0.31367728  0.66651821  1
  O  O5  1  0.68632368  0.71354785  0.66651969  1
  O  O6  1  0.69328223  0.68613738  0.00913152  1
  O  O7  1  0.69332116  0.68617950  0.32394753  1
  O  O8  1  0.82570102  0.17429822  0.16651231  1
  F  F0  1  0.18528890  0.81471256  0.16652068  1
  F  F1  1  0.80528435  0.19471157  0.85428215  1
  F  F2  1  0.80528869  0.19470717  0.47878927  1
loop_
_geom_bond_atom_site_label_1
_geom_bond_atom_site_label_2
_geom_bond_distance
_geom_bond_site_symmetry_2
Mg0 O5 2.046403 1_555
Mg0 O4 2.046420 1_555
Co0 O6 1.891522 1_455
Co0 O3 1.891525 1_565
Co0 O8 1.929306 1_465
Co0 O0 1.948054 1_554
Co0 F0 1.974776 1_555
Co0 F1 1.997911 1_464
Co1 O2 1.891270 1_565
Co1 O7 1.891274 1_455
Co1 O8 1.929688 1_465
Co1 O1 1.948649 1_555
Co1 F0 1.975122 1_555
Co1 F2 1.997816 1_465
Co2 O0 1.795709 1_555
Co2 O1 1.796846 1_555
Co2 O5 1.932355 1_455
Co2 O4 1.932359 1_565
Co3 O8 1.877941 1_555
Co3 O6 1.893216 1_555
Co3 O3 1.893217 1_555
Co3 O2 1.893799 1_555
Co3 O7 1.893806 1_555
Co4 O3 1.868184 1_556
Co4 O6 1.868186 1_556
Co4 O0 1.941264 1_555
Co4 O5 2.103876 1_555
Co4 O4 2.103900 1_555
Co5 O7 1.868282 1_555
Co5 O2 1.868287 1_555
Co5 O1 1.940913 1_555
Co5 O4 2.103597 1_555
Co5 O5 2.103621 1_555
F1 Mg0 1.829032 1_555
F2 Mg0 1.829488 1_555
