# generated using pymatgen
data_LiCu4(PO4)3
_symmetry_space_group_name_H-M   'P 1'
_cell_length_a   8.53499630
_cell_length_b   8.53499630
_cell_length_c   7.24084519
_cell_angle_alpha   69.50520971
_cell_angle_beta   69.50520971
_cell_angle_gamma   90.91467769
_symmetry_Int_Tables_number   1
_chemical_formula_structural   LiCu4(PO4)3
_chemical_formula_sum   'Li2 Cu8 P6 O24'
_cell_volume   457.00152518
_cell_formula_units_Z   2
loop_
 _symmetry_equiv_pos_site_id
 _symmetry_equiv_pos_as_xyz
  1  'x, y, z'
loop_
 _atom_site_type_symbol
 _atom_site_label
 _atom_site_symmetry_multiplicity
 _atom_site_fract_x
 _atom_site_fract_y
 _atom_site_fract_z
 _atom_site_occupancy
  Li  Li0  1  0.99594500  0.00405600  0.75000000  1
  Li  Li1  1  0.00405500  0.99594500  0.25000000  1
  Cu  Cu0  1  0.93869400  0.61903300  0.64536800  1
  Cu  Cu1  1  0.61903300  0.93869400  0.14536800  1
  Cu  Cu2  1  0.50653500  0.49346500  0.75000000  1
  Cu  Cu3  1  0.73390800  0.26609200  0.25000000  1
  Cu  Cu4  1  0.49346500  0.50653500  0.25000000  1
  Cu  Cu5  1  0.06130600  0.38096700  0.35463200  1
  Cu  Cu6  1  0.26609200  0.73390800  0.75000000  1
  Cu  Cu7  1  0.38096700  0.06130600  0.85463200  1
  P  P0  1  0.72202800  0.27797200  0.75000000  1
  P  P1  1  0.88782000  0.65926500  0.11643100  1
  P  P2  1  0.11218000  0.34073500  0.88356900  1
  P  P3  1  0.27797200  0.72202800  0.25000000  1
  P  P4  1  0.34073500  0.11218000  0.38356900  1
  P  P5  1  0.65926500  0.88782000  0.61643100  1
  O  O0  1  0.41019800  0.03997300  0.20849800  1
  O  O1  1  0.46816000  0.73061700  0.24232400  1
  O  O2  1  0.16824300  0.16955000  0.38949700  1
  O  O3  1  0.26408600  0.47949000  0.83307300  1
  O  O4  1  0.47949000  0.26408600  0.33307300  1
  O  O5  1  0.03997300  0.41019800  0.70849800  1
  O  O6  1  0.26938300  0.53184000  0.25767600  1
  O  O7  1  0.83045000  0.83175700  0.11050300  1
  O  O8  1  0.98300000  0.30647400  0.11278100  1
  O  O9  1  0.73061700  0.46816000  0.74232400  1
  O  O10  1  0.16955000  0.16824300  0.88949700  1
  O  O11  1  0.74792100  0.16402900  0.94966900  1
  O  O12  1  0.58980200  0.96002700  0.79150200  1
  O  O13  1  0.25207900  0.83597100  0.05033100  1
  O  O14  1  0.83597100  0.25207900  0.55033100  1
  O  O15  1  0.69352600  0.01700000  0.38721900  1
  O  O16  1  0.30647400  0.98300000  0.61278100  1
  O  O17  1  0.53184000  0.26938300  0.75767600  1
  O  O18  1  0.96002700  0.58980200  0.29150200  1
  O  O19  1  0.73591400  0.52051000  0.16692700  1
  O  O20  1  0.16402900  0.74792100  0.44966900  1
  O  O21  1  0.52051000  0.73591400  0.66692700  1
  O  O22  1  0.01700000  0.69352600  0.88721900  1
  O  O23  1  0.83175700  0.83045000  0.61050300  1
loop_
_geom_bond_atom_site_label_1
_geom_bond_atom_site_label_2
_geom_bond_distance
_geom_bond_site_symmetry_2
Li0 O2 2.373899 1_655
Li0 O7 2.373903 1_546
Li0 O16 2.517972 1_645
Li0 O22 2.517978 1_645
Li0 O10 2.674392 1_655
Li0 O23 2.674404 1_545
Li1 O10 2.373901 1_564
Li1 O23 2.373901 1_455
Li1 O15 2.517970 1_465
Li1 O8 2.517970 1_465
Li1 O7 2.674398 1_455
Li1 O2 2.674398 1_565
Cu0 O9 1.930255 1_555
Cu0 O20 1.962006 1_655
Cu0 O5 1.971925 1_655
Cu0 O23 2.011895 1_555
Cu0 O22 2.345912 1_655
Cu0 O18 2.604442 1_555
Cu1 O1 1.930255 1_555
Cu1 O11 1.962006 1_564
Cu1 O0 1.971925 1_565
Cu1 O7 2.011895 1_555
Cu1 O15 2.345912 1_565
Cu1 O12 2.604442 1_554
Cu2 O17 1.911727 1_555
Cu2 O9 1.911727 1_555
Cu2 O3 1.930888 1_555
Cu2 O21 1.930888 1_555
Cu3 O15 1.970663 1_555
Cu3 O8 1.970663 1_555
Cu3 O4 2.038211 1_555
Cu3 O19 2.038211 1_555
Cu3 O11 2.578749 1_554
Cu3 O14 2.578749 1_555
Cu4 O1 1.911727 1_555
Cu4 O6 1.911727 1_555
Cu4 O4 1.930888 1_555
Cu4 O19 1.930888 1_555
Cu5 O6 1.930255 1_555
Cu5 O14 1.962006 1_455
Cu5 O18 1.971925 1_455
Cu5 O2 2.011895 1_555
Cu5 O8 2.345912 1_455
Cu5 O5 2.604442 1_555
Cu6 O22 1.970663 1_555
Cu6 O16 1.970663 1_555
Cu6 O3 2.038211 1_555
Cu6 O21 2.038211 1_555
Cu6 O13 2.578749 1_556
Cu6 O20 2.578749 1_555
Cu7 O17 1.930255 1_555
Cu7 O13 1.962006 1_546
Cu7 O12 1.971925 1_545
Cu7 O10 2.011895 1_555
Cu7 O16 2.345912 1_545
Cu7 O0 2.604442 1_556
O0 P4 1.539715 1_555
O1 P3 1.604240 1_555
O2 P4 1.550004 1_555
O3 P2 1.591528 1_555
O4 P4 1.591528 1_555
O5 P2 1.539715 1_555
O6 P3 1.604240 1_555
O7 P1 1.550004 1_555
O8 P2 1.556979 1_654
O9 P0 1.604240 1_555
O10 P2 1.550004 1_555
O11 P0 1.526729 1_555
O12 P5 1.539715 1_555
O13 P3 1.526729 1_555
O14 P0 1.526729 1_555
O15 P5 1.556979 1_545
O16 P4 1.556979 1_565
O17 P0 1.604240 1_555
O18 P1 1.539715 1_555
O19 P1 1.591528 1_555
O20 P3 1.526729 1_555
O21 P5 1.591528 1_555
O22 P1 1.556979 1_456
O23 P5 1.550004 1_555
