# generated using pymatgen
data_Yb2MgCu(GeO3)4
_symmetry_space_group_name_H-M   'P 1'
_cell_length_a   5.15890698
_cell_length_b   7.58838139
_cell_length_c   8.15131076
_cell_angle_alpha   64.40769938
_cell_angle_beta   84.83077454
_cell_angle_gamma   74.93387923
_symmetry_Int_Tables_number   1
_chemical_formula_structural   Yb2MgCu(GeO3)4
_chemical_formula_sum   'Yb2 Mg1 Cu1 Ge4 O12'
_cell_volume   277.81543760
_cell_formula_units_Z   1
loop_
 _symmetry_equiv_pos_site_id
 _symmetry_equiv_pos_as_xyz
  1  'x, y, z'
loop_
 _atom_site_type_symbol
 _atom_site_label
 _atom_site_symmetry_multiplicity
 _atom_site_fract_x
 _atom_site_fract_y
 _atom_site_fract_z
 _atom_site_occupancy
  Yb  Yb0  1  0.03069900  0.77457200  0.44219200  1
  Yb  Yb1  1  0.96930100  0.22542800  0.55780800  1
  Mg  Mg0  1  0.50000200  0.99999900  0.00000000  1
  Cu  Cu0  1  0.00000100  0.00000100  0.00000000  1
  Ge  Ge0  1  0.54783100  0.82896100  0.76157000  1
  Ge  Ge1  1  0.45216700  0.17103800  0.23843000  1
  Ge  Ge2  1  0.58643700  0.60014200  0.21704200  1
  Ge  Ge3  1  0.41356400  0.39985800  0.78295800  1
  O  O0  1  0.77040400  0.93499300  0.60415400  1
  O  O1  1  0.22959500  0.06500700  0.39584600  1
  O  O2  1  0.79625700  0.56536800  0.38521900  1
  O  O3  1  0.20374400  0.43463100  0.61478000  1
  O  O4  1  0.42624500  0.64927700  0.72921600  1
  O  O5  1  0.57375100  0.35072400  0.27078400  1
  O  O6  1  0.71709300  0.72562400  0.98865200  1
  O  O7  1  0.71468900  0.20044900  0.81418600  1
  O  O8  1  0.28531300  0.79955200  0.18581500  1
  O  O9  1  0.73219200  0.99680300  0.19451800  1
  O  O10  1  0.26781000  0.00319800  0.80548200  1
  O  O11  1  0.28290600  0.27437400  0.01134800  1
loop_
_geom_bond_atom_site_label_1
_geom_bond_atom_site_label_2
_geom_bond_distance
_geom_bond_site_symmetry_2
Mg0 O10 2.059946 1_564
Mg0 O9 2.059950 1_555
Mg0 O8 2.101810 1_555
Mg0 O7 2.101813 1_564
Mg0 O6 2.129159 1_554
Mg0 O11 2.129166 1_565
Cu0 O9 2.003225 1_445
Cu0 O10 2.003226 1_554
Cu0 O7 2.005414 1_454
Cu0 O8 2.005420 1_545
Ge0 O0 1.713231 1_555
Ge0 O4 1.762740 1_555
Ge0 O10 1.812700 1_565
Ge0 O6 1.866803 1_555
Ge1 O1 1.713224 1_555
Ge1 O5 1.762749 1_555
Ge1 O9 1.812703 1_545
Ge1 O11 1.866802 1_555
Ge2 O2 1.710835 1_555
Ge2 O5 1.766733 1_555
Ge2 O8 1.812255 1_555
Ge2 O6 1.844704 1_554
Ge3 O3 1.710844 1_555
Ge3 O4 1.766733 1_555
Ge3 O7 1.812253 1_555
Ge3 O11 1.844711 1_556
O0 Yb0 2.290683 1_655
O0 Yb1 2.537594 1_565
O1 Yb1 2.290681 1_455
O1 Yb0 2.537590 1_545
O2 Yb1 2.307447 1_555
O2 Yb0 2.436188 1_655
O3 Yb0 2.307452 1_555
O3 Yb1 2.436180 1_455
O4 Yb0 2.910615 1_555
O5 Yb1 2.910628 1_555
O7 Yb1 2.328341 1_555
O8 Yb0 2.328338 1_555
O9 Yb0 2.357973 1_655
O10 Yb1 2.357977 1_455
