# generated using pymatgen
data_Re
_symmetry_space_group_name_H-M   'P 1'
_cell_length_a   5.40740720
_cell_length_b   5.40740720
_cell_length_c   5.40740720
_cell_angle_alpha   109.47122063
_cell_angle_beta   109.47122063
_cell_angle_gamma   109.47122063
_symmetry_Int_Tables_number   1
_chemical_formula_structural   Re
_chemical_formula_sum   Re8
_cell_volume   121.71534463
_cell_formula_units_Z   8
loop_
 _symmetry_equiv_pos_site_id
 _symmetry_equiv_pos_as_xyz
  1  'x, y, z'
loop_
 _atom_site_type_symbol
 _atom_site_label
 _atom_site_symmetry_multiplicity
 _atom_site_fract_x
 _atom_site_fract_y
 _atom_site_fract_z
 _atom_site_occupancy
  Re  Re0_0  1  0.00000000  0.00000000  0.00000000  1
  Re  Re0_1  1  0.00000000  0.00000000  0.50000000  1
  Re  Re0_2  1  0.00000000  0.50000000  0.00000000  1
  Re  Re0_3  1  0.00000000  0.50000000  0.50000000  1
  Re  Re0_4  1  0.50000000  0.00000000  0.00000000  1
  Re  Re0_5  1  0.50000000  0.00000000  0.50000000  1
  Re  Re0_6  1  0.50000000  0.50000000  0.00000000  1
  Re  Re0_7  1  0.50000000  0.50000000  0.50000000  1
loop_
_geom_bond_atom_site_label_1
_geom_bond_atom_site_label_2
_geom_bond_distance
_geom_bond_site_symmetry_2
Re0_0 Re0_2 2.703704 1_545
Re0_0 Re0_4 2.703704 1_455
Re0_0 Re0_2 2.703704 1_555
Re0_0 Re0_7 2.703704 1_444
Re0_0 Re0_1 2.703704 1_554
Re0_0 Re0_7 2.703704 1_555
Re0_0 Re0_4 2.703704 1_555
Re0_0 Re0_1 2.703704 1_555
Re0_1 Re0_5 2.703704 1_555
Re0_1 Re0_6 2.703704 1_556
Re0_1 Re0_3 2.703704 1_555
Re0_1 Re0_6 2.703704 1_445
Re0_1 Re0_5 2.703704 1_455
Re0_1 Re0_3 2.703704 1_545
Re0_2 Re0_5 2.703704 1_565
Re0_2 Re0_5 2.703704 1_454
Re0_2 Re0_3 2.703704 1_555
Re0_2 Re0_6 2.703704 1_555
Re0_2 Re0_6 2.703704 1_455
Re0_2 Re0_3 2.703704 1_554
Re0_3 Re0_4 2.703704 1_566
Re0_3 Re0_7 2.703704 1_455
Re0_3 Re0_4 2.703704 1_455
Re0_3 Re0_7 2.703704 1_555
Re0_4 Re0_5 2.703704 1_555
Re0_4 Re0_5 2.703704 1_554
Re0_4 Re0_6 2.703704 1_555
Re0_4 Re0_6 2.703704 1_545
Re0_5 Re0_7 2.703704 1_555
Re0_5 Re0_7 2.703704 1_545
Re0_6 Re0_7 2.703704 1_554
Re0_6 Re0_7 2.703704 1_555
