# generated using pymatgen
data_Na14Ca4La4Si5S7O48
_symmetry_space_group_name_H-M   'P 1'
_cell_length_a   19.28299960
_cell_length_b   9.61747480
_cell_length_c   23.64322798
_cell_angle_alpha   89.93986249
_cell_angle_beta   89.79635425
_cell_angle_gamma   119.97075182
_symmetry_Int_Tables_number   1
_chemical_formula_structural   Na14Ca4La4Si5S7O48
_chemical_formula_sum   'Na42 Ca12 La12 Si15 S21 O144'
_cell_volume   3798.35821315
_cell_formula_units_Z   3
loop_
 _symmetry_equiv_pos_site_id
 _symmetry_equiv_pos_as_xyz
  1  'x, y, z'
loop_
 _atom_site_type_symbol
 _atom_site_label
 _atom_site_symmetry_multiplicity
 _atom_site_fract_x
 _atom_site_fract_y
 _atom_site_fract_z
 _atom_site_occupancy
  Na  Na0  1  0.80552638  0.99226301  0.24991978  1
  Na  Na1  1  0.18433961  0.34626829  0.25565924  1
  Na  Na2  1  0.68325684  0.34675263  0.25314937  1
  Na  Na3  1  0.00621627  0.65952836  0.24534514  1
  Na  Na4  1  0.51541379  0.66209816  0.23636551  1
  Na  Na5  1  0.31821669  0.61358977  0.75435084  1
  Na  Na6  1  0.01368431  0.36479795  0.73729883  1
  Na  Na7  1  0.50369434  0.37644081  0.74474517  1
  Na  Na8  1  0.18863721  0.02945840  0.75169857  1
  Na  Na9  1  0.66535249  0.99751035  0.75359709  1
  Na  Na10  1  0.14991824  0.32409639  0.58400764  1
  Na  Na11  1  0.65302635  0.31791556  0.58228487  1
  Na  Na12  1  0.32480107  0.97969866  0.59404950  1
  Na  Na13  1  0.83435194  0.00178678  0.58516128  1
  Na  Na14  1  0.16044895  0.00066088  0.06837706  1
  Na  Na15  1  0.64804879  0.97363062  0.07546899  1
  Na  Na16  1  0.33799882  0.67022073  0.07782485  1
  Na  Na17  1  0.82378060  0.67115272  0.08502481  1
  Na  Na18  1  0.48784455  0.69074673  0.91371919  1
  Na  Na19  1  0.99566686  0.69325441  0.91146229  1
  Na  Na20  1  0.33669338  0.03668045  0.90867666  1
  Na  Na21  1  0.83507820  0.02997855  0.91054028  1
  Na  Na22  1  0.17217041  0.27902874  0.90965596  1
  Na  Na23  1  0.66294985  0.27469751  0.91332819  1
  Na  Na24  1  0.49705930  0.29883723  0.41783119  1
  Na  Na25  1  0.98931405  0.29169559  0.43786178  1
  Na  Na26  1  0.16761572  0.05947644  0.42602842  1
  Na  Na27  1  0.67066039  0.06250118  0.42056873  1
  Na  Na28  1  0.34055381  0.64270910  0.41874302  1
  Na  Na29  1  0.83427022  0.63729023  0.41627553  1
  Na  Na30  1  0.01819649  0.02641849  0.50844343  1
  Na  Na31  1  0.52139128  0.01472408  0.50169911  1
  Na  Na32  1  0.02046415  0.03174441  0.99448588  1
  Na  Na33  1  0.51903057  0.00716169  0.00212790  1
  Na  Na34  1  0.32811650  0.33758616  0.82331081  1
  Na  Na35  1  0.80956437  0.31697602  0.83117845  1
  Na  Na36  1  0.31477849  0.30297606  0.33330565  1
  Na  Na37  1  0.80694889  0.30752741  0.33471691  1
  Na  Na38  1  0.17145662  0.67077659  0.16309271  1
  Na  Na39  1  0.64936665  0.64788164  0.16024618  1
  Na  Na40  1  0.15279269  0.64792608  0.66558614  1
  Na  Na41  1  0.65631322  0.66860012  0.67385580  1
  Ca  Ca0  1  0.00746835  0.01284142  0.34895308  1
  Ca  Ca1  1  0.50896923  0.01045840  0.34722614  1
  Ca  Ca2  1  0.00792278  0.00688150  0.84656346  1
  Ca  Ca3  1  0.50535694  0.99276237  0.84560390  1
  Ca  Ca4  1  0.33136308  0.33628902  0.68161335  1
  Ca  Ca5  1  0.82613649  0.32563136  0.18062690  1
  Ca  Ca6  1  0.33363586  0.33828286  0.98618708  1
  Ca  Ca7  1  0.82806478  0.32600483  0.98593244  1
  Ca  Ca8  1  0.32865059  0.33170289  0.48669156  1
  Ca  Ca9  1  0.83362411  0.32992671  0.48731049  1
  Ca  Ca10  1  0.66622582  0.66331902  0.31878442  1
  Ca  Ca11  1  0.16730913  0.66836389  0.81873692  1
  La  La0  1  0.00886611  0.00581973  0.65106405  1
  La  La1  1  0.50842265  0.99068853  0.65407559  1
  La  La2  1  0.00933049  0.01597793  0.15019654  1
  La  La3  1  0.50985909  0.01234809  0.14984297  1
  La  La4  1  0.83067006  0.33336513  0.67986562  1
  La  La5  1  0.33256182  0.32941738  0.17875266  1
  La  La6  1  0.15905086  0.65345605  0.01299053  1
  La  La7  1  0.65224197  0.65127511  0.01784606  1
  La  La8  1  0.15280116  0.65548676  0.52008277  1
  La  La9  1  0.65931851  0.66521985  0.51450683  1
  La  La10  1  0.17213024  0.67915795  0.32003521  1
  La  La11  1  0.66780124  0.66379412  0.81771870  1
  Si  Si0  1  0.15296404  0.99629167  0.25076501  1
  Si  Si1  1  0.65644348  0.99824626  0.25302831  1
  Si  Si2  1  0.15544706  0.31652707  0.75259360  1
  Si  Si3  1  0.65415189  0.30727523  0.75094852  1
  Si  Si4  1  0.49622685  0.68019726  0.75699068  1
  Si  Si5  1  0.98542896  0.32409791  0.58276511  1
  Si  Si6  1  0.18576025  0.03238366  0.58231930  1
  Si  Si7  1  0.68122099  0.02630998  0.57957207  1
  Si  Si8  1  0.48514814  0.64492786  0.08425743  1
  Si  Si9  1  0.18204111  0.33920791  0.08328098  1
  Si  Si10  1  0.68510072  0.34170700  0.08433471  1
  Si  Si11  1  0.16673637  0.97394362  0.91837005  1
  Si  Si12  1  0.66861953  0.97891217  0.91733209  1
  Si  Si13  1  0.16762681  0.36077402  0.41391651  1
  Si  Si14  1  0.66742797  0.35951161  0.41582517  1
  S  S0  1  0.34904212  0.69539253  0.25231968  1
  S  S1  1  0.84984533  0.69758356  0.25196411  1
  S  S2  1  0.99709113  0.30778067  0.25305335  1
  S  S3  1  0.50109828  0.31304723  0.25613490  1
  S  S4  1  0.00171886  0.68940603  0.75612175  1
  S  S5  1  0.34699159  0.99819853  0.75156260  1
  S  S6  1  0.85106492  0.00585465  0.75256848  1
  S  S7  1  0.48132847  0.32571356  0.58201941  1
  S  S8  1  0.33406730  0.64033482  0.58089539  1
  S  S9  1  0.83176242  0.64088664  0.57737294  1
  S  S10  1  0.98200509  0.63293446  0.08503519  1
  S  S11  1  0.32997298  0.01998321  0.07896444  1
  S  S12  1  0.83405306  0.02900431  0.08318684  1
  S  S13  1  0.32052327  0.67067067  0.91566447  1
  S  S14  1  0.82561374  0.67297751  0.92123703  1
  S  S15  1  0.00913432  0.35426551  0.91245028  1
  S  S16  1  0.50649710  0.34491590  0.91348789  1
  S  S17  1  0.32548218  0.98018645  0.42013815  1
  S  S18  1  0.82072427  0.97282750  0.41313512  1
  S  S19  1  0.00711355  0.66482327  0.41152843  1
  S  S20  1  0.50898224  0.66292964  0.41139370  1
  O  O0  1  0.10557748  0.00949903  0.30575313  1
  O  O1  1  0.61353581  0.02219036  0.30919632  1
  O  O2  1  0.39067177  0.78669882  0.30360260  1
  O  O3  1  0.89782160  0.78582987  0.30202296  1
  O  O4  1  0.49420988  0.22244137  0.30866013  1
  O  O5  1  0.98578103  0.21038468  0.30436217  1
  O  O6  1  0.11102106  0.20951887  0.80921678  1
  O  O7  1  0.60836068  0.20226471  0.80743128  1
  O  O8  1  0.48223999  0.75452395  0.81505034  1
  O  O9  1  0.99426836  0.76502538  0.80882580  1
  O  O10  1  0.39527954  0.00898422  0.80185401  1
  O  O11  1  0.89329837  0.99833956  0.80376483  1
  O  O12  1  0.38553922  0.98234319  0.69876751  1
  O  O13  1  0.89068741  0.99438197  0.70035929  1
  O  O14  1  0.09753167  0.22475705  0.69695862  1
  O  O15  1  0.60281976  0.22158996  0.69255102  1
  O  O16  1  0.00343746  0.78495108  0.70622239  1
  O  O17  1  0.50905548  0.80388204  0.70438319  1
  O  O18  1  0.38877456  0.78520020  0.20025641  1
  O  O19  1  0.88799470  0.79341211  0.19941138  1
  O  O20  1  0.00679122  0.22471891  0.20306779  1
  O  O21  1  0.50268529  0.22224570  0.20589184  1
  O  O22  1  0.09932239  0.97633540  0.19321076  1
  O  O23  1  0.59993938  0.97687948  0.19722047  1
  O  O24  1  0.44061436  0.33559885  0.63342324  1
  O  O25  1  0.93897290  0.33227888  0.64001988  1
  O  O26  1  0.23930259  0.12271793  0.63781238  1
  O  O27  1  0.73304047  0.11688431  0.63677880  1
  O  O28  1  0.33296847  0.54872005  0.63143033  1
  O  O29  1  0.82565115  0.54181968  0.62726577  1
  O  O30  1  0.44304832  0.55039585  0.14430254  1
  O  O31  1  0.94296077  0.54383812  0.13757219  1
  O  O32  1  0.32401850  0.10480710  0.12957718  1
  O  O33  1  0.83374548  0.11532561  0.13526659  1
  O  O34  1  0.22939177  0.35025314  0.14296291  1
  O  O35  1  0.73466782  0.35875253  0.14258697  1
  O  O36  1  0.22836282  0.32084331  0.02885659  1
  O  O37  1  0.73111329  0.33003448  0.02812235  1
  O  O38  1  0.43583872  0.54769919  0.02853551  1
  O  O39  1  0.94067299  0.54323632  0.03361820  1
  O  O40  1  0.33680997  0.11088808  0.02707671  1
  O  O41  1  0.84407701  0.12561897  0.03193123  1
  O  O42  1  0.22542207  0.12682704  0.52249481  1
  O  O43  1  0.72595955  0.12626867  0.52244134  1
  O  O44  1  0.34319241  0.56651323  0.52819398  1
  O  O45  1  0.83997241  0.56698465  0.52478082  1
  O  O46  1  0.44192214  0.33616229  0.52964642  1
  O  O47  1  0.94235959  0.32894978  0.52384736  1
  O  O48  1  0.27952771  0.68049540  0.96841090  1
  O  O49  1  0.78730833  0.68924807  0.97364116  1
  O  O50  1  0.06184735  0.42541541  0.96295123  1
  O  O51  1  0.56148267  0.42244688  0.96214145  1
  O  O52  1  0.15620684  0.86954248  0.97805106  1
  O  O53  1  0.66550984  0.87524527  0.97414805  1
  O  O54  1  0.28581429  0.88327702  0.47127556  1
  O  O55  1  0.78041768  0.87573433  0.46489927  1
  O  O56  1  0.16167874  0.46534827  0.46719570  1
  O  O57  1  0.65860051  0.45350333  0.47255748  1
  O  O58  1  0.06348220  0.69774545  0.45912973  1
  O  O59  1  0.56245181  0.69731462  0.46134785  1
  O  O60  1  0.04501314  0.64743279  0.35869673  1
  O  O61  1  0.54950048  0.64778058  0.36049651  1
  O  O62  1  0.27093834  0.90595482  0.37062123  1
  O  O63  1  0.77091321  0.89197108  0.36277630  1
  O  O64  1  0.17444262  0.46129223  0.35475973  1
  O  O65  1  0.67507939  0.46633587  0.35968302  1
  O  O66  1  0.05070459  0.45185512  0.86199209  1
  O  O67  1  0.54534740  0.44185198  0.86172106  1
  O  O68  1  0.17270699  0.87145345  0.86530272  1
  O  O69  1  0.67870425  0.88647780  0.86158841  1
  O  O70  1  0.26933111  0.65066629  0.86605614  1
  O  O71  1  0.77037719  0.63929274  0.87276145  1
  O  O72  1  0.99197223  0.80171152  0.40841168  1
  O  O73  1  0.49167311  0.79749769  0.40766418  1
  O  O74  1  0.40261297  0.98312432  0.41141937  1
  O  O75  1  0.90076292  0.98530012  0.40936986  1
  O  O76  1  0.08562106  0.18257321  0.41771821  1
  O  O77  1  0.58501234  0.17927688  0.41799209  1
  O  O78  1  0.99211242  0.18515054  0.90861906  1
  O  O79  1  0.49192762  0.17844063  0.90931331  1
  O  O80  1  0.08458373  0.99014633  0.91743822  1
  O  O81  1  0.58556400  0.98911870  0.91824500  1
  O  O82  1  0.39874544  0.82169261  0.91263258  1
  O  O83  1  0.90274284  0.82590493  0.91265076  1
  O  O84  1  0.48042159  0.16865837  0.58063865  1
  O  O85  1  0.98505149  0.15071961  0.58204287  1
  O  O86  1  0.09647589  0.01864337  0.58419943  1
  O  O87  1  0.59363741  0.01913703  0.58039875  1
  O  O88  1  0.39982118  0.81111428  0.58295877  1
  O  O89  1  0.89968580  0.80713557  0.58222689  1
  O  O90  1  0.48645900  0.81958237  0.08266310  1
  O  O91  1  0.98042534  0.78850283  0.08377931  1
  O  O92  1  0.39739305  0.98888184  0.08323872  1
  O  O93  1  0.90036346  0.99021062  0.08484973  1
  O  O94  1  0.09268189  0.17156033  0.08199571  1
  O  O95  1  0.59609509  0.17578089  0.08348169  1
  O  O96  1  0.34095192  0.14704679  0.74898116  1
  O  O97  1  0.85209605  0.16280907  0.75400252  1
  O  O98  1  0.24364640  0.32831458  0.74863265  1
  O  O99  1  0.74094586  0.30965289  0.75001175  1
  O  O100  1  0.42123039  0.49870907  0.74785311  1
  O  O101  1  0.93369894  0.52160150  0.75327583  1
  O  O102  1  0.34717078  0.53745818  0.25425185  1
  O  O103  1  0.84767939  0.53985580  0.24929033  1
  O  O104  1  0.43286323  0.34451300  0.25393293  1
  O  O105  1  0.92751904  0.33212225  0.24635790  1
  O  O106  1  0.24099058  0.16400855  0.24980487  1
  O  O107  1  0.74700787  0.16016105  0.24975812  1
  O  O108  1  0.33221749  0.52886366  0.91800350  1
  O  O109  1  0.84301331  0.53835945  0.92437273  1
  O  O110  1  0.42875730  0.33984496  0.92085526  1
  O  O111  1  0.93225022  0.35303483  0.92011661  1
  O  O112  1  0.24884936  0.15188214  0.91815538  1
  O  O113  1  0.74981222  0.15962778  0.91600558  1
  O  O114  1  0.34165162  0.14874089  0.42372760  1
  O  O115  1  0.83107167  0.13691605  0.41672009  1
  O  O116  1  0.25014490  0.34785219  0.41542383  1
  O  O117  1  0.74972174  0.34571682  0.41754485  1
  O  O118  1  0.43182245  0.51037563  0.41947635  1
  O  O119  1  0.92981597  0.51413755  0.41938546  1
  O  O120  1  0.17737853  0.50701085  0.08263863  1
  O  O121  1  0.67891333  0.50866457  0.08311165  1
  O  O122  1  0.06764964  0.67258951  0.08543790  1
  O  O123  1  0.57954233  0.68703082  0.08633065  1
  O  O124  1  0.25312465  0.85976307  0.07930138  1
  O  O125  1  0.75702045  0.87260874  0.08207253  1
  O  O126  1  0.18041063  0.85380517  0.58297056  1
  O  O127  1  0.67673188  0.84901759  0.58132244  1
  O  O128  1  0.25643479  0.64105368  0.58050400  1
  O  O129  1  0.75551904  0.64775766  0.57730529  1
  O  O130  1  0.08023305  0.46955082  0.58739877  1
  O  O131  1  0.56707354  0.45865279  0.58352030  1
  O  O132  1  0.15647077  0.82641293  0.25042978  1
  O  O133  1  0.66428050  0.83429695  0.25302769  1
  O  O134  1  0.26361356  0.65961246  0.25086831  1
  O  O135  1  0.76736652  0.67251080  0.25516201  1
  O  O136  1  0.07191207  0.46902565  0.25547797  1
  O  O137  1  0.57746721  0.47165975  0.25441734  1
  O  O138  1  0.16520563  0.49727336  0.75192401  1
  O  O139  1  0.66229188  0.48636052  0.75033416  1
  O  O140  1  0.07818419  0.68461640  0.75455610  1
  O  O141  1  0.58107880  0.67354224  0.75467040  1
  O  O142  1  0.26514845  0.85502229  0.75487521  1
  O  O143  1  0.76618255  0.87299712  0.75152305  1
loop_
_geom_bond_atom_site_label_1
_geom_bond_atom_site_label_2
_geom_bond_distance
_geom_bond_site_symmetry_2
Na0 O133 2.365557 1_555
Na0 O107 2.387735 1_565
Na0 O135 2.784139 1_555
Na0 O63 2.798991 1_555
Na0 O33 2.895599 1_565
Na0 O105 2.922381 1_565
Na1 O106 2.489512 1_555
Na1 O134 2.612792 1_555
Na1 O64 2.638805 1_555
Na1 O102 2.733443 1_555
Na1 O34 2.793892 1_555
Na1 O136 2.941281 1_555
Na1 O0 3.043700 1_555
Na2 O107 2.634712 1_555
Na2 O135 2.715201 1_555
Na2 O103 2.761228 1_555
Na2 O35 2.774169 1_555
Na2 O65 2.806487 1_555
Na2 O137 2.837851 1_555
Na2 O1 3.015427 1_555
Na3 O132 2.518312 1_555
Na3 O103 2.676074 1_455
Na3 O136 2.709092 1_555
Na3 O105 2.728355 1_455
Na3 O60 2.802883 1_555
Na3 O31 2.809038 1_455
Na3 O22 2.921841 1_555
Na4 O30 2.523474 1_555
Na4 O133 2.529390 1_555
Na4 O137 2.675837 1_555
Na4 O104 2.677779 1_555
Na4 O23 2.780595 1_555
Na4 O102 2.871322 1_555
Na4 O61 3.027817 1_555
Na5 O98 2.381998 1_555
Na5 O138 2.581442 1_555
Na5 O100 2.716821 1_555
Na5 O70 2.882906 1_555
Na5 O142 2.968645 1_555
Na5 O28 3.015229 1_555
Na6 O138 2.562906 1_555
Na6 O25 2.652952 1_455
Na6 O101 2.667723 1_455
Na6 O140 2.712612 1_555
Na6 O14 2.739564 1_555
Na6 O97 2.753287 1_455
Na7 O100 2.405063 1_555
Na7 O141 2.488006 1_555
Na7 O139 2.694596 1_555
Na7 O96 2.793816 1_555
Na7 O24 2.847611 1_555
Na7 O67 2.864352 1_555
Na8 O98 2.518844 1_555
Na8 O96 2.566987 1_555
Na8 O142 2.733179 1_545
Na8 O26 2.847803 1_555
Na8 O140 2.912243 1_545
Na8 O68 3.022777 1_545
Na9 O99 2.602043 1_565
Na9 O141 2.700023 1_555
Na9 O143 2.746351 1_555
Na9 O69 2.828319 1_555
Na9 O17 2.885681 1_555
Na9 O7 2.977104 1_565
Na9 O27 3.020045 1_565
Na10 O130 2.376251 1_555
Na10 O86 2.582104 1_555
Na10 O128 2.694545 1_555
Na10 O85 2.755767 1_455
Na10 O14 2.841855 1_555
Na10 O56 3.033873 1_555
Na11 O87 2.506644 1_555
Na11 O131 2.611729 1_555
Na11 O15 2.770038 1_555
Na11 O129 2.777881 1_555
Na11 O57 2.879812 1_555
Na11 O84 2.892655 1_555
Na12 O126 2.434030 1_555
Na12 O84 2.636579 1_565
Na12 O88 2.670550 1_555
Na12 O12 2.737392 1_555
Na12 O26 2.817308 1_565
Na12 O128 2.857156 1_555
Na12 O54 3.029164 1_555
Na13 O85 2.518166 1_555
Na13 O127 2.635409 1_545
Na13 O89 2.729948 1_545
Na13 O13 2.949807 1_545
Na14 O52 2.462011 1_544
Na14 O94 2.580077 1_555
Na14 O124 2.742004 1_545
Na14 O122 2.769716 1_545
Na14 O36 2.833132 1_555
Na15 O123 2.401397 1_555
Na15 O95 2.600919 1_565
Na15 O53 2.657953 1_554
Na15 O90 2.704875 1_555
Na15 O125 2.724992 1_555
Na16 O90 2.483134 1_555
Na16 O120 2.685050 1_555
Na16 O92 2.686173 1_555
Na16 O48 2.846854 1_554
Na17 O121 2.426342 1_555
Na17 O91 2.644199 1_555
Na17 O93 2.658792 1_555
Na17 O49 2.755823 1_554
Na17 O125 2.812182 1_555
Na17 O35 2.940838 1_555
Na17 O19 2.967451 1_555
Na18 O8 2.427986 1_555
Na18 O81 2.529086 1_555
Na18 O82 2.588548 1_555
Na18 O108 2.601805 1_555
Na18 O38 2.976904 1_556
Na18 O110 2.978511 1_555
Na19 O80 2.494784 1_655
Na19 O9 2.526142 1_555
Na19 O109 2.566846 1_555
Na19 O83 2.668853 1_555
Na19 O111 2.871006 1_555
Na20 O112 2.453564 1_555
Na20 O110 2.563108 1_555
Na20 O79 2.596579 1_555
Na20 O10 2.829808 1_555
Na20 O82 2.861442 1_545
Na20 O40 2.889361 1_556
Na20 O68 2.929509 1_545
Na21 O113 2.514346 1_555
Na21 O78 2.623435 1_555
Na21 O111 2.720937 1_555
Na21 O11 2.837060 1_545
Na21 O83 2.848835 1_545
Na21 O69 2.864775 1_545
Na21 O41 2.993846 1_556
Na22 O112 2.351601 1_555
Na22 O80 2.431847 1_545
Na22 O6 2.590787 1_555
Na22 O108 2.816614 1_555
Na22 O36 2.977799 1_556
Na23 O81 2.384749 1_545
Na23 O113 2.426290 1_555
Na23 O7 2.674290 1_555
Na23 O79 2.948526 1_555
Na23 O37 2.950716 1_556
Na24 O77 2.479337 1_555
Na24 O114 2.599644 1_555
Na24 O74 2.652780 1_545
Na24 O4 2.677663 1_555
Na24 O118 2.877476 1_555
Na24 O46 2.934556 1_555
Na24 O57 2.998883 1_555
Na25 O47 2.322438 1_555
Na25 O76 2.592109 1_655
Na25 O75 2.652908 1_545
Na25 O115 2.692746 1_555
Na25 O119 2.921943 1_555
Na25 O56 2.964807 1_655
Na26 O76 2.410802 1_555
Na26 O116 2.423504 1_555
Na26 O42 2.482702 1_555
Na27 O117 2.366103 1_555
Na27 O77 2.417938 1_555
Na27 O43 2.585053 1_555
Na27 O115 2.806153 1_555
Na27 O1 2.809542 1_555
Na28 O116 2.479744 1_555
Na28 O73 2.536907 1_555
Na28 O118 2.637337 1_555
Na28 O44 2.696365 1_555
Na28 O74 2.874651 1_555
Na28 O2 2.983088 1_555
Na29 O117 2.440117 1_555
Na29 O72 2.640738 1_555
Na29 O119 2.642679 1_555
Na29 O45 2.668949 1_555
Na29 O75 2.929612 1_555
Na29 O65 2.984583 1_555
Na29 O3 3.009793 1_555
Na30 O86 2.371471 1_555
Na30 O85 2.371818 1_455
Na30 O76 2.563118 1_555
Na30 O89 2.803916 1_445
Na31 O87 2.316110 1_555
Na31 O77 2.441891 1_555
Na31 O84 2.731878 1_555
Na31 O88 2.897385 1_545
Na31 O73 2.908383 1_545
Na32 O80 2.342423 1_545
Na32 O94 2.486696 1_556
Na32 O78 2.721159 1_455
Na32 O83 2.892237 1_445
Na32 O91 2.949463 1_446
Na32 O93 3.020982 1_446
Na33 O81 2.411329 1_544
Na33 O90 2.475257 1_545
Na33 O95 2.481333 1_555
Na34 O98 2.377852 1_555
Na34 O100 2.449401 1_555
Na34 O96 2.639052 1_555
Na34 O112 2.791839 1_555
Na34 O108 2.875304 1_555
Na34 O110 3.012521 1_555
Na35 O99 2.315965 1_555
Na35 O113 2.423866 1_555
Na35 O97 2.722221 1_555
Na35 O101 2.872221 1_555
Na35 O109 2.907267 1_555
Na36 O106 2.415344 1_555
Na36 O116 2.455845 1_555
Na36 O102 2.746767 1_555
Na36 O114 2.794376 1_555
Na36 O104 2.815208 1_555
Na36 O118 2.960857 1_555
Na37 O117 2.361937 1_555
Na37 O107 2.401110 1_555
Na37 O115 2.725821 1_555
Na37 O103 2.813321 1_555
Na38 O120 2.509280 1_555
Na38 O124 2.611283 1_555
Na38 O132 2.649970 1_555
Na38 O122 2.727455 1_555
Na38 O134 2.773576 1_555
Na38 O136 2.908717 1_555
Na39 O123 2.351718 1_555
Na39 O121 2.490610 1_555
Na39 O137 2.715585 1_555
Na39 O133 2.758028 1_555
Na39 O125 2.806843 1_555
Na40 O130 2.438211 1_555
Na40 O138 2.582110 1_555
Na40 O126 2.636376 1_555
Na40 O140 2.665789 1_555
Na40 O128 2.854605 1_555
Na40 O142 2.974492 1_555
Na41 O141 2.409802 1_555
Na41 O139 2.559585 1_555
Na41 O127 2.693611 1_555
Na41 O143 2.756631 1_555
Na41 O131 2.857201 1_555
Ca0 O0 2.161113 1_555
Ca0 O76 2.268093 1_555
Ca0 O72 2.360812 1_445
Ca0 O5 2.385083 1_455
Ca0 O75 2.403773 1_445
Ca0 O3 2.424440 1_445
Ca1 O1 2.155571 1_555
Ca1 O77 2.286946 1_555
Ca1 O4 2.376248 1_555
Ca1 O73 2.378235 1_545
Ca1 O2 2.452587 1_545
Ca1 O74 2.452969 1_545
Ca2 O6 2.154756 1_555
Ca2 O80 2.296496 1_545
Ca2 O9 2.381182 1_445
Ca2 O78 2.389445 1_455
Ca2 O11 2.398078 1_445
Ca2 O83 2.455446 1_445
Ca3 O7 2.191884 1_565
Ca3 O8 2.226138 1_555
Ca3 O81 2.327211 1_555
Ca3 O10 2.438434 1_565
Ca3 O79 2.447409 1_565
Ca3 O82 2.456972 1_555
Ca4 O26 2.194822 1_555
Ca4 O100 2.283785 1_555
Ca4 O98 2.286645 1_555
Ca4 O28 2.348239 1_555
Ca4 O24 2.394428 1_555
Ca4 O96 2.493177 1_555
Ca5 O35 2.143208 1_555
Ca5 O107 2.254557 1_555
Ca5 O33 2.358516 1_555
Ca5 O31 2.402277 1_555
Ca5 O105 2.478071 1_555
Ca5 O103 2.491908 1_555
Ca6 O36 2.193543 1_556
Ca6 O38 2.235041 1_556
Ca6 O112 2.360175 1_555
Ca6 O110 2.388064 1_555
Ca6 O40 2.418865 1_556
Ca6 O108 2.450162 1_555
Ca7 O37 2.133266 1_556
Ca7 O113 2.276319 1_555
Ca7 O41 2.363209 1_556
Ca7 O109 2.403150 1_555
Ca7 O39 2.416781 1_556
Ca7 O111 2.445457 1_555
Ca8 O42 2.151077 1_555
Ca8 O116 2.325405 1_555
Ca8 O44 2.348456 1_555
Ca8 O46 2.392975 1_555
Ca8 O114 2.412238 1_555
Ca8 O118 2.447951 1_555
Ca9 O43 2.181288 1_555
Ca9 O47 2.274909 1_555
Ca9 O117 2.371782 1_555
Ca9 O45 2.392476 1_555
Ca9 O119 2.418259 1_555
Ca9 O115 2.479818 1_555
Ca10 O65 2.207650 1_555
Ca10 O133 2.275775 1_555
Ca10 O137 2.348488 1_555
Ca10 O63 2.361614 1_555
Ca10 O61 2.389341 1_555
Ca10 O135 2.425039 1_555
Ca11 O68 2.200043 1_555
Ca11 O138 2.267989 1_555
Ca11 O70 2.345349 1_555
Ca11 O140 2.359463 1_555
Ca11 O142 2.377407 1_555
Ca11 O66 2.395579 1_555
La0 O14 2.226071 1_555
La0 O86 2.267351 1_555
La0 O85 2.335788 1_455
La0 O16 2.448460 1_545
La0 O13 2.508783 1_445
La0 O89 2.596934 1_445
La1 O17 2.158754 1_555
La1 O15 2.247150 1_565
La1 O87 2.310592 1_565
La1 O12 2.555348 1_555
La1 O88 2.571581 1_555
La1 O84 2.675755 1_565
La2 O22 2.205381 1_545
La2 O94 2.235181 1_555
La2 O20 2.387124 1_555
La2 O91 2.521482 1_445
La2 O93 2.523328 1_445
La2 O19 2.526203 1_445
La3 O23 2.234587 1_545
La3 O95 2.249972 1_555
La3 O90 2.310618 1_545
La3 O21 2.476617 1_555
La3 O18 2.554075 1_545
La3 O92 2.601910 1_545
La4 O27 2.240232 1_555
La4 O25 2.292791 1_555
La4 O99 2.319609 1_555
La4 O29 2.400980 1_555
La4 O97 2.570992 1_555
La4 O101 2.583512 1_555
La5 O34 2.263608 1_555
La5 O30 2.275823 1_555
La5 O106 2.374339 1_555
La5 O32 2.386714 1_555
La5 O104 2.581825 1_555
La5 O102 2.591714 1_555
La6 O52 2.261625 1_554
La6 O120 2.305821 1_555
La6 O50 2.374240 1_554
La6 O48 2.440086 1_554
La6 O124 2.473091 1_555
La6 O122 2.525364 1_555
La7 O123 2.274195 1_555
La7 O53 2.283759 1_554
La7 O121 2.287523 1_555
La7 O51 2.411451 1_554
La7 O125 2.578929 1_555
La7 O49 2.653030 1_554
La8 O126 2.264760 1_555
La8 O130 2.273119 1_555
La8 O56 2.291914 1_555
La8 O58 2.433981 1_555
La8 O128 2.520025 1_555
La8 O54 2.658815 1_555
La9 O57 2.259665 1_555
La9 O127 2.269269 1_555
La9 O59 2.399135 1_555
La9 O129 2.450344 1_555
La9 O55 2.485882 1_555
La9 O131 2.493017 1_555
La10 O64 2.270767 1_555
La10 O132 2.287157 1_555
La10 O62 2.384917 1_555
La10 O134 2.476498 1_555
La10 O60 2.484606 1_555
La10 O136 2.504780 1_555
La11 O141 2.280663 1_555
La11 O69 2.294136 1_555
La11 O139 2.299420 1_555
La11 O71 2.478880 1_555
La11 O67 2.481188 1_555
La11 O143 2.501057 1_555
O0 Si0 1.627636 1_545
O1 Si1 1.638402 1_545
O2 S0 1.480041 1_555
O3 S1 1.484043 1_555
O4 S3 1.483281 1_555
O5 S2 1.479267 1_555
O6 Si2 1.641154 1_555
O7 Si3 1.637327 1_555
O8 Si4 1.630994 1_555
O9 S4 1.485709 1_655
O10 S5 1.484333 1_545
O11 S6 1.482992 1_565
O12 S5 1.496976 1_555
O13 S6 1.482387 1_565
O14 Si2 1.668686 1_555
O15 Si3 1.662032 1_555
O16 S4 1.484717 1_555
O17 Si4 1.650442 1_555
O18 S0 1.475853 1_555
O19 S1 1.499373 1_555
O20 S2 1.489811 1_455
O21 S3 1.484353 1_555
O22 Si0 1.664529 1_555
O23 Si1 1.660571 1_555
O24 S7 1.473269 1_555
O25 Si5 1.644130 1_555
O26 Si6 1.630345 1_555
O27 Si7 1.651998 1_555
O28 S8 1.477605 1_555
O29 S9 1.482451 1_555
O30 Si8 1.659135 1_555
O31 S10 1.480055 1_555
O32 S11 1.485034 1_555
O33 S12 1.487431 1_555
O34 Si9 1.657909 1_555
O35 Si10 1.640302 1_555
O36 Si9 1.623189 1_555
O37 Si10 1.630224 1_555
O38 Si8 1.623979 1_555
O39 S10 1.476279 1_555
O40 S11 1.472481 1_555
O41 S12 1.478464 1_555
O42 Si6 1.645037 1_555
O43 Si7 1.628910 1_555
O44 S8 1.487528 1_555
O45 S9 1.479618 1_555
O46 S7 1.484428 1_555
O47 Si5 1.636823 1_555
O48 S13 1.502319 1_555
O49 S14 1.488150 1_555
O50 S15 1.497498 1_555
O51 S16 1.491316 1_555
O52 Si11 1.682784 1_555
O53 Si12 1.654994 1_555
O54 S17 1.481333 1_555
O55 S18 1.496538 1_555
O56 Si13 1.651780 1_555
O57 Si14 1.673309 1_555
O58 S19 1.487935 1_555
O59 S20 1.495389 1_555
O60 S19 1.496135 1_555
O61 S20 1.478920 1_555
O62 S17 1.498941 1_555
O63 S18 1.486181 1_555
O64 Si13 1.666432 1_555
O65 Si14 1.638144 1_555
O66 S15 1.478468 1_555
O67 S16 1.490529 1_555
O68 Si11 1.635248 1_555
O69 Si12 1.654839 1_555
O70 S13 1.485297 1_555
O71 S14 1.489207 1_555
O72 S19 1.485898 1_655
O73 S20 1.491879 1_555
O74 S17 1.487015 1_555
O75 S18 1.489423 1_555
O76 Si13 1.654337 1_555
O77 Si14 1.667286 1_555
O78 S15 1.492798 1_655
O79 S16 1.484324 1_555
O80 Si11 1.667686 1_555
O81 Si12 1.652854 1_555
O82 S13 1.483249 1_555
O83 S14 1.492683 1_555
O84 S7 1.502205 1_555
O85 Si5 1.663943 1_555
O86 Si6 1.660036 1_555
O87 Si7 1.655534 1_555
O88 S8 1.492529 1_555
O89 S9 1.481300 1_555
O90 Si8 1.667636 1_555
O91 S10 1.511886 1_555
O92 S11 1.476225 1_565
O93 S12 1.500899 1_565
O94 Si9 1.671640 1_555
O95 Si10 1.660275 1_555
O96 S5 1.494339 1_545
O97 S6 1.500092 1_555
O98 Si2 1.649356 1_555
O99 Si3 1.662411 1_555
O100 Si4 1.632699 1_555
O101 S4 1.488414 1_655
O102 S0 1.501871 1_555
O103 S1 1.497924 1_555
O104 S3 1.491255 1_555
O105 S2 1.481507 1_555
O106 Si0 1.657608 1_545
O107 Si1 1.662043 1_545
O108 S13 1.490345 1_555
O109 S14 1.492735 1_555
O110 S16 1.484915 1_555
O111 S15 1.487118 1_655
O112 Si11 1.651784 1_545
O113 Si12 1.659448 1_545
O114 S17 1.492569 1_545
O115 S18 1.491057 1_545
O116 Si13 1.657283 1_555
O117 Si14 1.657772 1_555
O118 S20 1.489715 1_555
O119 S19 1.481787 1_655
O120 Si9 1.660639 1_555
O121 Si10 1.668746 1_555
O122 S10 1.497923 1_455
O123 Si8 1.656439 1_555
O124 S11 1.512907 1_565
O125 S12 1.495876 1_565
O126 Si6 1.668387 1_565
O127 Si7 1.664015 1_565
O128 S8 1.500515 1_555
O129 S9 1.504309 1_555
O130 Si5 1.660589 1_455
O131 S7 1.502712 1_555
O132 Si0 1.668639 1_555
O133 Si1 1.657450 1_555
O134 S0 1.505760 1_555
O135 S1 1.486369 1_555
O136 S2 1.501702 1_455
O137 S3 1.500762 1_555
O138 Si2 1.652431 1_555
O139 Si3 1.649593 1_555
O140 S4 1.498353 1_555
O141 Si4 1.669808 1_555
O142 S5 1.490159 1_555
O143 S6 1.491016 1_565
