# generated using pymatgen
data_Na6La2In2Si3(SO8)3
_symmetry_space_group_name_H-M   'P 1'
_cell_length_a   9.48740999
_cell_length_b   9.39910613
_cell_length_c   23.58982577
_cell_angle_alpha   90.47639665
_cell_angle_beta   90.15134560
_cell_angle_gamma   119.62108814
_symmetry_Int_Tables_number   1
_chemical_formula_structural   Na6La2In2Si3(SO8)3
_chemical_formula_sum   'Na18 La6 In6 Si9 S9 O72'
_cell_volume   1828.55090583
_cell_formula_units_Z   3
loop_
 _symmetry_equiv_pos_site_id
 _symmetry_equiv_pos_as_xyz
  1  'x, y, z'
loop_
 _atom_site_type_symbol
 _atom_site_label
 _atom_site_symmetry_multiplicity
 _atom_site_fract_x
 _atom_site_fract_y
 _atom_site_fract_z
 _atom_site_occupancy
  Na  Na0  1  0.63285348  0.01058718  0.26279949  1
  Na  Na1  1  0.34876174  0.35237862  0.25700358  1
  Na  Na2  1  0.64938162  0.64799701  0.73175297  1
  Na  Na3  1  0.97438704  0.36235368  0.73921702  1
  Na  Na4  1  0.01781756  0.68248689  0.59370856  1
  Na  Na5  1  0.68413782  0.96777978  0.58435165  1
  Na  Na6  1  0.31823864  0.97297363  0.10117500  1
  Na  Na7  1  0.01850679  0.32085337  0.08465075  1
  Na  Na8  1  0.97052126  0.64936867  0.89652493  1
  Na  Na9  1  0.71445075  0.04705063  0.90802258  1
  Na  Na10  1  0.95195247  0.28867318  0.42117426  1
  Na  Na11  1  0.34825960  0.03347686  0.41229148  1
  Na  Na12  1  0.96846302  0.99023899  0.50781602  1
  Na  Na13  1  0.98442632  0.01921783  0.99777744  1
  Na  Na14  1  0.67429069  0.32688878  0.81676974  1
  Na  Na15  1  0.67619554  0.33270077  0.33590664  1
  Na  Na16  1  0.32595591  0.67755398  0.17878729  1
  Na  Na17  1  0.33244927  0.66424064  0.66398521  1
  La  La0  1  0.00277694  0.01556347  0.83869575  1
  La  La1  1  0.99327043  0.00323969  0.16144457  1
  La  La2  1  0.67334280  0.33143195  0.98556572  1
  La  La3  1  0.34072541  0.65954161  0.01754514  1
  La  La4  1  0.35078982  0.65814024  0.51900731  1
  La  La5  1  0.31970189  0.66989060  0.80840611  1
  In  In0  1  0.99247596  0.00202148  0.34539776  1
  In  In1  1  0.98595660  0.99033465  0.64826113  1
  In  In2  1  0.67814090  0.34000899  0.67957552  1
  In  In3  1  0.66885560  0.31759163  0.19154447  1
  In  In4  1  0.67616378  0.32577899  0.49099939  1
  In  In5  1  0.32804235  0.68464592  0.31827194  1
  Si  Si0  1  0.30332445  0.00292355  0.25110335  1
  Si  Si1  1  0.00883996  0.31754196  0.25244243  1
  Si  Si2  1  0.98956220  0.69492779  0.74625507  1
  Si  Si3  1  0.69421037  0.00621703  0.74593959  1
  Si  Si4  1  0.96608205  0.32632004  0.58423053  1
  Si  Si5  1  0.67548608  0.62530613  0.58541426  1
  Si  Si6  1  0.66487445  0.03006542  0.08532231  1
  Si  Si7  1  0.02738591  0.35844206  0.91967155  1
  Si  Si8  1  0.64045011  0.97450590  0.41535882  1
  S  S0  1  0.68883360  0.68778649  0.25301836  1
  S  S1  1  0.30890250  0.29694885  0.74344444  1
  S  S2  1  0.36956303  0.04506996  0.58270954  1
  S  S3  1  0.96647273  0.63365626  0.08699484  1
  S  S4  1  0.36955875  0.33120832  0.09001137  1
  S  S5  1  0.64520783  0.67247299  0.91339493  1
  S  S6  1  0.32643500  0.96899774  0.92032065  1
  S  S7  1  0.33131978  0.35595554  0.41016855  1
  S  S8  1  0.03179907  0.66960547  0.41515514  1
  O  O0  1  0.20068353  0.02129773  0.30445412  1
  O  O1  1  0.79667491  0.76858818  0.30195307  1
  O  O2  1  0.96614269  0.18054925  0.30231146  1
  O  O3  1  0.24568877  0.21707485  0.79914980  1
  O  O4  1  0.98470861  0.77518907  0.80866734  1
  O  O5  1  0.79203375  0.03897007  0.80772254  1
  O  O6  1  0.79668801  0.98242161  0.69473945  1
  O  O7  1  0.19690773  0.20480332  0.69705523  1
  O  O8  1  0.01428563  0.81621177  0.69355152  1
  O  O9  1  0.75463525  0.78638250  0.20076989  1
  O  O10  1  0.04589004  0.25243478  0.19212006  1
  O  O11  1  0.21066475  0.97981803  0.19030040  1
  O  O12  1  0.87886275  0.35470624  0.63946452  1
  O  O13  1  0.47653833  0.13193904  0.63094556  1
  O  O14  1  0.64828400  0.52347345  0.64364732  1
  O  O15  1  0.86685711  0.53053568  0.13434442  1
  O  O16  1  0.64160336  0.13170087  0.13855645  1
  O  O17  1  0.46796192  0.34468926  0.14069603  1
  O  O18  1  0.45242495  0.33078691  0.03712623  1
  O  O19  1  0.88485468  0.56600279  0.03177882  1
  O  O20  1  0.68023743  0.12437898  0.02507583  1
  O  O21  1  0.43923841  0.13129213  0.52765871  1
  O  O22  1  0.68659978  0.52612241  0.52900559  1
  O  O23  1  0.85783327  0.28959391  0.52436138  1
  O  O24  1  0.56183893  0.68502297  0.96522792  1
  O  O25  1  0.11838195  0.44470152  0.98057652  1
  O  O26  1  0.31938098  0.88103213  0.97364168  1
  O  O27  1  0.56013042  0.87282896  0.47255423  1
  O  O28  1  0.30203264  0.43275348  0.45993679  1
  O  O29  1  0.12986231  0.69714734  0.46716566  1
  O  O30  1  0.11216355  0.63634619  0.36588550  1
  O  O31  1  0.51964355  0.88713974  0.35918121  1
  O  O32  1  0.35089641  0.45440683  0.35864692  1
  O  O33  1  0.12559907  0.47438931  0.86622748  1
  O  O34  1  0.34896270  0.88305722  0.87161478  1
  O  O35  1  0.55239680  0.66349543  0.86248449  1
  O  O36  1  0.02238558  0.82181302  0.40587904  1
  O  O37  1  0.82730220  0.00355101  0.40698150  1
  O  O38  1  0.18319764  0.18780625  0.40628969  1
  O  O39  1  0.99602912  0.17047118  0.91869685  1
  O  O40  1  0.17289242  0.97252012  0.91618725  1
  O  O41  1  0.80907102  0.82207046  0.91436327  1
  O  O42  1  0.97873096  0.15724420  0.58874976  1
  O  O43  1  0.20419300  0.02327936  0.58780807  1
  O  O44  1  0.84863434  0.80398203  0.58426431  1
  O  O45  1  0.00061653  0.80504942  0.09015467  1
  O  O46  1  0.83633654  0.02621109  0.08848111  1
  O  O47  1  0.21008785  0.17506050  0.08924558  1
  O  O48  1  0.67845699  0.17177683  0.73992134  1
  O  O49  1  0.47343591  0.31861466  0.73852985  1
  O  O50  1  0.81682200  0.51905905  0.74583213  1
  O  O51  1  0.66764767  0.52082879  0.24544918  1
  O  O52  1  0.83959084  0.32773265  0.24952902  1
  O  O53  1  0.48123785  0.17924508  0.25154152  1
  O  O54  1  0.66645851  0.52645278  0.91598133  1
  O  O55  1  0.84585595  0.34794255  0.91621958  1
  O  O56  1  0.46955650  0.13615228  0.92084471  1
  O  O57  1  0.65188680  0.16140406  0.41991108  1
  O  O58  1  0.47629560  0.33489359  0.41706662  1
  O  O59  1  0.86881857  0.52025252  0.41905977  1
  O  O60  1  0.33682412  0.47102217  0.09079962  1
  O  O61  1  0.12602095  0.63498294  0.08838201  1
  O  O62  1  0.49320330  0.85358717  0.08609242  1
  O  O63  1  0.35441825  0.87805304  0.58033178  1
  O  O64  1  0.52924665  0.67274511  0.58442240  1
  O  O65  1  0.13742333  0.50083964  0.57944850  1
  O  O66  1  0.34451053  0.85193954  0.25549261  1
  O  O67  1  0.52466176  0.67041010  0.26071456  1
  O  O68  1  0.18107330  0.48998311  0.26342329  1
  O  O69  1  0.32300768  0.46348735  0.74522174  1
  O  O70  1  0.13746729  0.65012275  0.74295057  1
  O  O71  1  0.52411363  0.83046846  0.74774921  1
loop_
_geom_bond_atom_site_label_1
_geom_bond_atom_site_label_2
_geom_bond_distance
_geom_bond_site_symmetry_2
Na0 O66 2.386989 1_545
Na0 O31 2.548358 1_545
Na0 O53 2.629007 1_555
Na0 O52 2.658931 1_555
Na0 O67 2.834074 1_545
Na0 O2 2.895792 1_555
Na1 O68 2.501762 1_555
Na1 O53 2.502713 1_555
Na1 O32 2.571293 1_555
Na1 O67 2.606086 1_555
Na1 O51 2.647748 1_555
Na1 O0 2.941928 1_555
Na1 O10 2.960830 1_555
Na1 O17 2.984259 1_555
Na2 O14 2.374255 1_555
Na2 O50 2.451447 1_555
Na2 O71 2.550065 1_555
Na2 O49 2.701420 1_555
Na2 O69 2.720755 1_555
Na2 O6 2.881909 1_555
Na3 O70 2.361335 1_655
Na3 O48 2.474036 1_555
Na3 O12 2.507054 1_555
Na3 O50 2.569509 1_555
Na3 O69 2.958142 1_655
Na4 O44 2.396729 1_455
Na4 O65 2.494670 1_555
Na4 O8 2.668532 1_555
Na4 O43 2.795704 1_565
Na4 O63 2.808714 1_555
Na4 O12 2.905600 1_455
Na5 O64 2.412706 1_555
Na5 O42 2.463520 1_565
Na5 O44 2.679725 1_555
Na5 O6 2.788227 1_555
Na5 O63 2.809803 1_555
Na5 O27 2.835920 1_555
Na6 O11 2.353732 1_555
Na6 O62 2.445203 1_555
Na6 O47 2.583375 1_565
Na6 O45 2.631885 1_555
Na6 O61 2.786242 1_555
Na6 O16 2.802626 1_565
Na7 O46 2.436851 1_455
Na7 O61 2.604568 1_555
Na7 O60 2.629503 1_555
Na7 O10 2.664014 1_555
Na7 O25 2.692553 1_554
Na7 O47 2.767090 1_555
Na8 O4 2.365794 1_555
Na8 O55 2.520666 1_555
Na8 O54 2.566817 1_555
Na8 O40 2.708142 1_655
Na8 O41 2.758285 1_555
Na8 O33 2.785383 1_655
Na9 O39 2.339638 1_555
Na9 O55 2.468638 1_555
Na9 O5 2.491440 1_555
Na9 O41 2.679717 1_545
Na9 O56 2.848521 1_555
Na9 O20 2.909088 1_556
Na10 O37 2.354269 1_555
Na10 O57 2.483737 1_555
Na10 O23 2.596414 1_555
Na10 O59 2.657254 1_555
Na10 O38 2.808916 1_655
Na11 O58 2.471132 1_555
Na11 O57 2.519103 1_555
Na11 O38 2.612339 1_555
Na11 O36 2.729787 1_545
Na11 O21 2.856280 1_555
Na11 O0 2.874470 1_555
Na11 O31 2.880664 1_545
Na12 O44 2.388600 1_555
Na12 O42 2.432399 1_565
Na12 O37 2.760630 1_565
Na12 O43 2.817869 1_665
Na13 O39 2.324600 1_555
Na13 O46 2.580968 1_556
Na13 O41 2.635913 1_545
Na13 O40 2.806098 1_645
Na13 O47 2.864957 1_656
Na13 O45 3.033366 1_646
Na14 O48 2.329562 1_555
Na14 O50 2.353531 1_555
Na14 O49 2.622279 1_555
Na14 O55 2.801078 1_555
Na15 O57 2.502150 1_555
Na15 O52 2.577577 1_555
Na15 O53 2.599593 1_555
Na15 O59 2.652169 1_555
Na15 O58 2.705537 1_555
Na15 O51 2.808958 1_555
Na16 O66 2.378124 1_555
Na16 O68 2.580946 1_555
Na16 O67 2.720603 1_555
Na16 O62 2.742269 1_555
Na16 O61 2.742359 1_555
Na16 O60 2.866899 1_555
Na17 O70 2.586358 1_555
Na17 O71 2.602569 1_555
Na17 O65 2.622910 1_555
Na17 O64 2.624608 1_555
Na17 O69 2.671104 1_555
Na17 O63 2.762312 1_555
La0 O5 2.238227 1_455
La0 O4 2.285939 1_445
La0 O3 2.344069 1_555
La0 O39 2.394300 1_455
La0 O41 2.576524 1_445
La0 O40 2.598524 1_545
La1 O10 2.252300 1_655
La1 O11 2.282471 1_645
La1 O46 2.352948 1_555
La1 O9 2.371022 1_545
La1 O45 2.525858 1_645
La1 O47 2.553546 1_655
La2 O20 2.194540 1_556
La2 O55 2.268528 1_555
La2 O19 2.377226 1_556
La2 O56 2.422352 1_555
La2 O18 2.423513 1_556
La2 O54 2.495299 1_555
La3 O25 2.244591 1_554
La3 O62 2.316108 1_555
La3 O24 2.345884 1_554
La3 O26 2.428797 1_554
La3 O60 2.472583 1_555
La3 O61 2.560184 1_555
La4 O64 2.240443 1_555
La4 O27 2.303000 1_555
La4 O65 2.325585 1_555
La4 O28 2.371137 1_555
La4 O63 2.499206 1_555
La4 O29 2.603248 1_555
La5 O70 2.252001 1_555
La5 O71 2.289882 1_555
La5 O33 2.310448 1_555
La5 O34 2.390191 1_555
La5 O69 2.449190 1_555
La5 O35 2.573405 1_555
In0 O2 2.086289 1_555
In0 O0 2.127654 1_655
In0 O37 2.144843 1_555
In0 O38 2.282069 1_655
In0 O1 2.288803 1_545
In0 O36 2.344833 1_645
In1 O6 2.076492 1_555
In1 O8 2.086752 1_655
In1 O42 2.139881 1_565
In1 O44 2.175836 1_555
In1 O7 2.314101 1_665
In1 O43 2.409504 1_665
In2 O14 2.068337 1_555
In2 O12 2.071840 1_555
In2 O48 2.137496 1_555
In2 O50 2.182382 1_555
In2 O13 2.247769 1_555
In2 O49 2.319319 1_555
In3 O16 2.048766 1_555
In3 O52 2.082655 1_555
In3 O53 2.149022 1_555
In3 O51 2.290737 1_555
In3 O17 2.368383 1_555
In3 O15 2.386863 1_555
In4 O22 2.036333 1_555
In4 O23 2.069422 1_555
In4 O57 2.203478 1_555
In4 O21 2.262036 1_555
In4 O59 2.515403 1_555
In4 O58 2.605836 1_555
In5 O68 2.096463 1_555
In5 O31 2.097201 1_555
In5 O66 2.118301 1_555
In5 O30 2.182660 1_555
In5 O67 2.366069 1_555
In5 O32 2.476741 1_555
O0 Si0 1.652611 1_555
O1 S0 1.472143 1_555
O2 Si1 1.648652 1_655
O3 S1 1.491842 1_555
O4 Si2 1.659848 1_555
O5 Si3 1.668305 1_555
O6 Si3 1.634239 1_565
O7 S1 1.464590 1_555
O8 Si2 1.631267 1_455
O9 S0 1.489575 1_555
O10 Si1 1.650379 1_555
O11 Si0 1.636069 1_565
O12 Si4 1.634558 1_555
O13 S2 1.466552 1_555
O14 Si5 1.627680 1_555
O15 S3 1.482673 1_555
O16 Si6 1.651759 1_555
O17 S4 1.480492 1_555
O18 S4 1.477385 1_555
O19 S3 1.481456 1_555
O20 Si6 1.649607 1_555
O21 S2 1.507539 1_555
O22 Si5 1.651711 1_555
O23 Si4 1.673999 1_555
O24 S5 1.493163 1_555
O25 Si7 1.658020 1_555
O26 S6 1.494410 1_555
O27 Si8 1.619073 1_555
O28 S7 1.470536 1_555
O29 S8 1.479369 1_555
O30 S8 1.504713 1_555
O31 Si8 1.669631 1_555
O32 S7 1.489275 1_555
O33 Si7 1.634196 1_555
O34 S6 1.474722 1_555
O35 S5 1.464264 1_555
O36 S8 1.494631 1_555
O37 Si8 1.667496 1_545
O38 S7 1.510782 1_555
O39 Si7 1.640179 1_655
O40 S6 1.476353 1_555
O41 S5 1.494290 1_555
O42 Si4 1.656041 1_555
O43 S2 1.483820 1_555
O44 Si5 1.671383 1_555
O45 S3 1.479070 1_455
O46 Si6 1.646444 1_555
O47 S4 1.499260 1_555
O48 Si3 1.642392 1_555
O49 S1 1.476054 1_555
O50 Si2 1.655317 1_555
O51 S0 1.489359 1_555
O52 Si1 1.656457 1_655
O53 Si0 1.682300 1_555
O54 S5 1.484208 1_555
O55 Si7 1.677387 1_655
O56 S6 1.484259 1_545
O57 Si8 1.708097 1_545
O58 S7 1.491990 1_555
O59 S8 1.492386 1_655
O60 S4 1.492242 1_555
O61 S3 1.507841 1_455
O62 Si6 1.653633 1_565
O63 S2 1.504533 1_565
O64 Si5 1.654046 1_555
O65 Si4 1.647447 1_455
O66 Si0 1.651568 1_565
O67 S0 1.495382 1_555
O68 Si1 1.654360 1_555
O69 S1 1.503889 1_555
O70 Si2 1.654294 1_455
O71 Si3 1.643524 1_565
