# generated using pymatgen
data_Na2MgFe4O7
_symmetry_space_group_name_H-M   'P 1'
_cell_length_a   5.62110343
_cell_length_b   5.82615716
_cell_length_c   5.91930845
_cell_angle_alpha   85.72911127
_cell_angle_beta   92.63431803
_cell_angle_gamma   120.90566221
_symmetry_Int_Tables_number   1
_chemical_formula_structural   Na2MgFe4O7
_chemical_formula_sum   'Na2 Mg1 Fe4 O7'
_cell_volume   165.86085108
_cell_formula_units_Z   1
loop_
 _symmetry_equiv_pos_site_id
 _symmetry_equiv_pos_as_xyz
  1  'x, y, z'
loop_
 _atom_site_type_symbol
 _atom_site_label
 _atom_site_symmetry_multiplicity
 _atom_site_fract_x
 _atom_site_fract_y
 _atom_site_fract_z
 _atom_site_occupancy
  Na  Na0  1  0.53494751  0.81724539  0.96831329  1
  Na  Na1  1  0.46606294  0.28336276  0.96719594  1
  Mg  Mg0  1  0.00258042  0.35062655  0.07857242  1
  Fe  Fe0  1  0.99479957  0.97282812  0.33640555  1
  Fe  Fe1  1  0.00030773  0.81638091  0.76617246  1
  Fe  Fe2  1  0.33208266  0.67111544  0.49148046  1
  Fe  Fe3  1  0.66324405  0.33888011  0.48894453  1
  O  O0  1  0.99822354  0.61639992  0.29344943  1
  O  O1  1  0.00157092  0.46749618  0.74004494  1
  O  O2  1  0.00182799  0.02884725  0.99162378  1
  O  O3  1  0.34142518  0.40122422  0.28975933  1
  O  O4  1  0.60529170  0.60820261  0.66544196  1
  O  O5  1  0.39172681  0.00312677  0.66032824  1
  O  O6  1  0.66590997  0.06156277  0.29226766  1
loop_
_geom_bond_atom_site_label_1
_geom_bond_atom_site_label_2
_geom_bond_distance
_geom_bond_site_symmetry_2
Na0 O2 2.257157 1_665
Na0 O6 2.333577 1_566
Na0 O5 2.368784 1_565
Na0 O4 2.395588 1_555
Na0 O3 2.733758 1_556
Na1 O2 2.248797 1_555
Na1 O3 2.328185 1_556
Na1 O4 2.342691 1_555
Na1 O5 2.410584 1_555
Na1 O6 2.748915 1_556
Mg0 O2 1.978614 1_554
Mg0 O1 2.068518 1_554
Mg0 O0 2.085956 1_455
Mg0 O3 2.129941 1_555
Mg0 O6 2.155571 1_455
Fe0 O2 2.041614 1_664
Fe0 O0 2.120724 1_555
Fe0 O6 2.161155 1_565
Fe0 O3 2.247959 1_665
Fe1 O2 1.883465 1_565
Fe1 O4 1.994091 1_455
Fe1 O5 1.995823 1_565
Fe1 O1 2.053634 1_555
Fe2 O4 1.982385 1_555
Fe2 O0 2.058258 1_455
Fe2 O3 2.066709 1_555
Fe2 O5 2.108079 1_565
Fe2 O1 2.179673 1_555
Fe2 O6 2.346347 1_565
Fe3 O5 1.991208 1_555
Fe3 O6 2.067044 1_555
Fe3 O0 2.071967 1_555
Fe3 O4 2.111932 1_555
Fe3 O1 2.197634 1_655
Fe3 O3 2.282454 1_555
