# generated using pymatgen
data_FeSb6(Pb2S7)2
_symmetry_space_group_name_H-M   'P 1'
_cell_length_a   19.48387400
_cell_length_b   4.04394300
_cell_length_c   15.97091499
_cell_angle_alpha   87.76982601
_cell_angle_beta   90.00000000
_cell_angle_gamma   90.00000000
_symmetry_Int_Tables_number   1
_chemical_formula_structural   FeSb6(Pb2S7)2
_chemical_formula_sum   'Fe2 Sb12 Pb8 S28'
_cell_volume   1257.42201521
_cell_formula_units_Z   2
loop_
 _symmetry_equiv_pos_site_id
 _symmetry_equiv_pos_as_xyz
  1  'x, y, z'
loop_
 _atom_site_type_symbol
 _atom_site_label
 _atom_site_symmetry_multiplicity
 _atom_site_fract_x
 _atom_site_fract_y
 _atom_site_fract_z
 _atom_site_occupancy
  Fe  Fe0  1  0.00000000  0.00000000  0.00000000  1
  Fe  Fe1  1  0.50000000  0.00000000  0.50000000  1
  Sb  Sb0  1  0.44012900  0.59250200  0.31714500  1
  Sb  Sb1  1  0.44629100  0.37348400  0.89613700  1
  Sb  Sb2  1  0.94629100  0.62651600  0.60386300  1
  Sb  Sb3  1  0.94012900  0.40749800  0.18285500  1
  Sb  Sb4  1  0.05987100  0.59250200  0.81714500  1
  Sb  Sb5  1  0.05370900  0.37348400  0.39613700  1
  Sb  Sb6  1  0.55987100  0.40749800  0.68285500  1
  Sb  Sb7  1  0.55370900  0.62651600  0.10386300  1
  Sb  Sb8  1  0.66052200  0.62778700  0.87247800  1
  Sb  Sb9  1  0.16052200  0.37221300  0.62752200  1
  Sb  Sb10  1  0.33947800  0.37221300  0.12752200  1
  Sb  Sb11  1  0.83947800  0.62778700  0.37247800  1
  Pb  Pb0  1  0.86316000  0.03749200  0.81740600  1
  Pb  Pb1  1  0.36316000  0.96250800  0.68259400  1
  Pb  Pb2  1  0.13684000  0.96250800  0.18259400  1
  Pb  Pb3  1  0.63684000  0.03749200  0.31740600  1
  Pb  Pb4  1  0.75758100  0.06473500  0.57495900  1
  Pb  Pb5  1  0.25758100  0.93526500  0.92504100  1
  Pb  Pb6  1  0.24241900  0.93526500  0.42504100  1
  Pb  Pb7  1  0.74241900  0.06473500  0.07495900  1
  S  S0  1  0.79854800  0.10680200  0.27976200  1
  S  S1  1  0.50708800  0.03172700  0.21509700  1
  S  S2  1  0.00708800  0.96827300  0.28490300  1
  S  S3  1  0.49291200  0.96827300  0.78490300  1
  S  S4  1  0.99291200  0.03172700  0.71509700  1
  S  S5  1  0.89577100  0.06276900  0.49991700  1
  S  S6  1  0.39577100  0.93723100  0.00008300  1
  S  S7  1  0.10422900  0.93723100  0.50008300  1
  S  S8  1  0.60422900  0.06276900  0.99991700  1
  S  S9  1  0.72998700  0.58404600  0.44996300  1
  S  S10  1  0.60063600  0.98447100  0.58221400  1
  S  S11  1  0.10063600  0.01552900  0.91778600  1
  S  S12  1  0.39936400  0.01552900  0.41778600  1
  S  S13  1  0.89936400  0.98447100  0.08221400  1
  S  S14  1  0.95597300  0.52556000  0.90705100  1
  S  S15  1  0.45597300  0.47444000  0.59294900  1
  S  S16  1  0.04402700  0.47444000  0.09294900  1
  S  S17  1  0.54402700  0.52556000  0.40705100  1
  S  S18  1  0.83815400  0.55757300  0.68426400  1
  S  S19  1  0.33815400  0.44242700  0.81573600  1
  S  S20  1  0.16184600  0.44242700  0.31573600  1
  S  S21  1  0.66184600  0.55757300  0.18426400  1
  S  S22  1  0.70145200  0.10680200  0.77976200  1
  S  S23  1  0.20145200  0.89319800  0.72023800  1
  S  S24  1  0.29854800  0.89319800  0.22023800  1
  S  S25  1  0.27001300  0.41595400  0.55003700  1
  S  S26  1  0.77001300  0.58404600  0.94996300  1
  S  S27  1  0.22998700  0.41595400  0.05003700  1
loop_
_geom_bond_atom_site_label_1
_geom_bond_atom_site_label_2
_geom_bond_distance
_geom_bond_site_symmetry_2
Fe0 S11 2.359287 1_554
Fe0 S13 2.359287 1_445
Fe0 S16 2.615770 1_555
Fe0 S14 2.615770 1_444
Fe0 S16 2.685336 1_545
Fe0 S14 2.685336 1_454
Fe1 S10 2.359287 1_545
Fe1 S12 2.359287 1_555
Fe1 S17 2.615770 1_545
Fe1 S15 2.615770 1_555
Fe1 S17 2.685336 1_555
Fe1 S15 2.685336 1_545
Pb0 S18 2.972246 1_555
Pb0 S18 2.974341 1_545
Pb0 S4 3.010732 1_555
Pb0 S14 3.061879 1_545
Pb0 S14 3.071718 1_555
Pb1 S19 2.972246 1_555
Pb1 S19 2.974341 1_565
Pb1 S3 3.010732 1_555
Pb1 S15 3.061879 1_565
Pb1 S15 3.071718 1_555
Pb2 S20 2.972246 1_555
Pb2 S20 2.974341 1_565
Pb2 S2 3.010732 1_555
Pb2 S16 3.061879 1_565
Pb2 S16 3.071718 1_555
Pb3 S21 2.972246 1_555
Pb3 S21 2.974341 1_545
Pb3 S1 3.010732 1_555
Pb3 S17 3.061879 1_545
Pb3 S17 3.071718 1_555
Pb4 S9 2.890493 1_545
Pb4 S9 2.891065 1_555
Pb4 S5 2.947306 1_555
Pb4 S18 3.072403 1_545
Pb4 S10 3.076781 1_545
Pb4 S18 3.123274 1_555
Pb5 S27 2.890493 1_566
Pb5 S27 2.891065 1_556
Pb5 S6 2.947306 1_556
Pb5 S19 3.072403 1_565
Pb5 S11 3.076781 1_565
Pb5 S19 3.123274 1_555
Pb6 S25 2.890493 1_565
Pb6 S25 2.891065 1_555
Pb6 S7 2.947306 1_555
Pb6 S20 3.072403 1_565
Pb6 S12 3.076781 1_565
Pb6 S20 3.123274 1_555
Pb7 S26 2.890493 1_544
Pb7 S26 2.891065 1_554
Pb7 S8 2.947306 1_554
Pb7 S21 3.072403 1_545
Pb7 S13 3.076781 1_545
Pb7 S21 3.123274 1_555
S0 Sb11 2.521461 1_545
S0 Sb11 2.740468 1_555
S1 Sb7 2.625421 1_545
S1 Sb0 2.699606 1_545
S1 Sb7 3.071477 1_555
S1 Sb0 3.128672 1_555
S2 Sb5 2.625421 1_565
S2 Sb3 2.699606 1_465
S2 Sb5 3.071477 1_555
S2 Sb3 3.128672 1_455
S3 Sb1 2.625421 1_565
S3 Sb6 2.699606 1_565
S3 Sb1 3.071477 1_555
S3 Sb6 3.128672 1_555
S4 Sb2 2.625421 1_545
S4 Sb4 2.699606 1_645
S4 Sb2 3.071477 1_555
S4 Sb4 3.128672 1_655
S5 Sb2 2.570850 1_545
S5 Sb11 2.952689 1_545
S5 Sb2 3.035907 1_555
S5 Sb11 3.194422 1_555
S6 Sb1 2.570850 1_564
S6 Sb10 2.952689 1_565
S6 Sb1 3.035907 1_554
S6 Sb10 3.194422 1_555
S7 Sb5 2.570850 1_565
S7 Sb9 2.952689 1_565
S7 Sb5 3.035907 1_555
S7 Sb9 3.194422 1_555
S8 Sb7 2.570850 1_546
S8 Sb8 2.952689 1_545
S8 Sb7 3.035907 1_556
S8 Sb8 3.194422 1_555
S9 Sb11 2.469146 1_555
S10 Sb6 2.520881 1_565
S10 Sb6 2.892493 1_555
S11 Sb4 2.520881 1_545
S11 Sb4 2.892493 1_555
S12 Sb0 2.520881 1_545
S12 Sb0 2.892493 1_555
S13 Sb3 2.520881 1_565
S13 Sb3 2.892493 1_555
S14 Sb4 2.490526 1_655
S15 Sb6 2.490526 1_555
S16 Sb3 2.490526 1_455
S17 Sb0 2.490526 1_555
S18 Sb2 2.477472 1_555
S19 Sb1 2.477472 1_555
S20 Sb5 2.477472 1_555
S21 Sb7 2.477472 1_555
S22 Sb8 2.521461 1_545
S22 Sb8 2.740468 1_555
S23 Sb9 2.521461 1_565
S23 Sb9 2.740468 1_555
S24 Sb10 2.521461 1_565
S24 Sb10 2.740468 1_555
S25 Sb9 2.469146 1_555
S26 Sb8 2.469146 1_555
S27 Sb10 2.469146 1_555
