# generated using pymatgen
data_MgZn2(AgO2)4
_symmetry_space_group_name_H-M   'P 1'
_cell_length_a   6.24749019
_cell_length_b   6.28858776
_cell_length_c   6.83061510
_cell_angle_alpha   62.40803817
_cell_angle_beta   59.30307107
_cell_angle_gamma   59.99201382
_symmetry_Int_Tables_number   1
_chemical_formula_structural   MgZn2(AgO2)4
_chemical_formula_sum   'Mg1 Zn2 Ag4 O8'
_cell_volume   191.88223226
_cell_formula_units_Z   1
loop_
 _symmetry_equiv_pos_site_id
 _symmetry_equiv_pos_as_xyz
  1  'x, y, z'
loop_
 _atom_site_type_symbol
 _atom_site_label
 _atom_site_symmetry_multiplicity
 _atom_site_fract_x
 _atom_site_fract_y
 _atom_site_fract_z
 _atom_site_occupancy
  Mg  Mg0  1  0.12375100  0.12507500  0.62572900  1
  Zn  Zn0  1  0.93522200  0.99113000  0.08557300  1
  Zn  Zn1  1  0.11266600  0.63018300  0.62677200  1
  Ag  Ag0  1  0.34295300  0.25178900  0.15288200  1
  Ag  Ag1  1  0.62263700  0.12728700  0.62459500  1
  Ag  Ag2  1  0.61614300  0.62834800  0.12743600  1
  Ag  Ag3  1  0.62301800  0.62538400  0.62412600  1
  O  O0  1  0.38405400  0.35103100  0.41980800  1
  O  O1  1  0.38281900  0.40917700  0.79809600  1
  O  O2  1  0.38348800  0.84557900  0.42114100  1
  O  O3  1  0.92762800  0.33679800  0.39439600  1
  O  O4  1  0.30542800  0.91468300  0.86790000  1
  O  O5  1  0.86032400  0.39199900  0.84478800  1
  O  O6  1  0.86395200  0.85527900  0.42608900  1
  O  O7  1  0.85966500  0.90167300  0.84608500  1
loop_
_geom_bond_atom_site_label_1
_geom_bond_atom_site_label_2
_geom_bond_distance
_geom_bond_site_symmetry_2
Mg0 O4 2.040240 1_545
Mg0 O3 2.041318 1_455
Mg0 O0 2.183266 1_555
Mg0 O2 2.186910 1_545
Mg0 O7 2.187567 1_445
Mg0 O5 2.194147 1_455
Ag0 O1 2.079173 1_554
Ag0 O3 2.190673 1_455
Ag0 O2 2.331918 1_545
Ag0 O0 2.339253 1_555
Ag1 O1 2.065996 1_555
Ag1 O0 2.089492 1_555
Ag1 O6 2.125870 1_545
Ag1 O7 2.166156 1_545
Ag1 O3 2.317749 1_555
Ag1 O4 2.388748 1_545
Ag2 O0 2.340635 1_555
Ag2 O7 2.352203 1_554
Ag2 O2 2.362004 1_555
Ag2 O5 2.376323 1_554
Ag2 O4 2.685817 1_554
Ag2 O3 2.725957 1_555
Ag3 O1 2.058179 1_555
Ag3 O2 2.084823 1_555
Ag3 O6 2.114669 1_555
Ag3 O5 2.163272 1_555
Ag3 O3 2.347776 1_555
Ag3 O4 2.416953 1_555
O0 Zn1 2.197606 1_555
O1 Zn1 2.076860 1_555
O2 Zn1 2.184927 1_555
O4 Zn0 1.957053 1_456
O5 Zn1 2.201188 1_655
O5 Zn0 2.245904 1_546
O6 Zn0 1.954599 1_555
O6 Zn1 2.115276 1_655
O7 Zn1 2.215798 1_655
O7 Zn0 2.263138 1_556
