# generated using pymatgen
data_MgCd2(Cu2O3)2
_symmetry_space_group_name_H-M   'P 1'
_cell_length_a   4.34628114
_cell_length_b   9.94987175
_cell_length_c   3.84081285
_cell_angle_alpha   90.00000000
_cell_angle_beta   90.00000000
_cell_angle_gamma   90.00000000
_symmetry_Int_Tables_number   1
_chemical_formula_structural   MgCd2(Cu2O3)2
_chemical_formula_sum   'Mg1 Cd2 Cu4 O6'
_cell_volume   166.09572099
_cell_formula_units_Z   1
loop_
 _symmetry_equiv_pos_site_id
 _symmetry_equiv_pos_as_xyz
  1  'x, y, z'
loop_
 _atom_site_type_symbol
 _atom_site_label
 _atom_site_symmetry_multiplicity
 _atom_site_fract_x
 _atom_site_fract_y
 _atom_site_fract_z
 _atom_site_occupancy
  Mg  Mg0  1  0.75000000  0.25000000  0.08689436  1
  Cd  Cd0  1  0.25000000  0.25000000  0.56361086  1
  Cd  Cd1  1  0.75000000  0.75000000  0.45196374  1
  Cu  Cu0  1  0.25000000  0.56076097  0.14973336  1
  Cu  Cu1  1  0.25000000  0.93923903  0.14973336  1
  Cu  Cu2  1  0.75000000  0.99901440  0.68117305  1
  Cu  Cu3  1  0.75000000  0.50098560  0.68117305  1
  O  O0  1  0.25000000  0.75000000  0.27962062  1
  O  O1  1  0.25000000  0.12113486  0.05833588  1
  O  O2  1  0.25000000  0.37886514  0.05833588  1
  O  O3  1  0.75000000  0.25000000  0.58807246  1
  O  O4  1  0.75000000  0.54202428  0.17924818  1
  O  O5  1  0.75000000  0.95797572  0.17924818  1
loop_
_geom_bond_atom_site_label_1
_geom_bond_atom_site_label_2
_geom_bond_distance
_geom_bond_site_symmetry_2
Mg0 O3 1.915882 1_554
Mg0 O3 1.924931 1_555
Mg0 O1 2.525586 1_655
Mg0 O2 2.525586 1_555
Mg0 O2 2.525586 1_655
Mg0 O1 2.525586 1_555
Cd0 O3 2.175171 1_455
Cd0 O3 2.175171 1_555
Cd0 O1 2.292285 1_556
Cd0 O2 2.292285 1_556
Cd0 O1 2.325984 1_555
Cd0 O2 2.325984 1_555
Cd1 O0 2.271718 1_655
Cd1 O0 2.271718 1_555
Cd1 O4 2.319328 1_555
Cd1 O5 2.319328 1_555
Cu0 O2 1.843570 1_555
Cu0 O0 1.947871 1_555
Cu0 O4 2.184066 1_455
Cu0 O4 2.184066 1_555
Cu1 O1 1.843570 1_565
Cu1 O0 1.947871 1_555
Cu1 O5 2.184066 1_555
Cu1 O5 2.184066 1_455
Cu2 O5 1.956107 1_556
Cu2 O5 1.970569 1_555
Cu2 O3 2.522746 1_565
Cu3 O4 1.956107 1_556
Cu3 O4 1.970569 1_555
Cu3 O3 2.522746 1_555
