# generated using pymatgen
data_LiNi3P3O11
_symmetry_space_group_name_H-M   'P 1'
_cell_length_a   9.51547200
_cell_length_b   9.74167700
_cell_length_c   10.12407186
_cell_angle_alpha   60.31243143
_cell_angle_beta   90.00000000
_cell_angle_gamma   90.00000000
_symmetry_Int_Tables_number   1
_chemical_formula_structural   LiNi3P3O11
_chemical_formula_sum   'Li4 Ni12 P12 O44'
_cell_volume   815.28339293
_cell_formula_units_Z   4
loop_
 _symmetry_equiv_pos_site_id
 _symmetry_equiv_pos_as_xyz
  1  'x, y, z'
loop_
 _atom_site_type_symbol
 _atom_site_label
 _atom_site_symmetry_multiplicity
 _atom_site_fract_x
 _atom_site_fract_y
 _atom_site_fract_z
 _atom_site_occupancy
  Li  Li0  1  0.17849200  0.68092200  0.79801700  1
  Li  Li1  1  0.67849200  0.31907800  0.70198300  1
  Li  Li2  1  0.32150800  0.68092200  0.29801700  1
  Li  Li3  1  0.82150800  0.31907800  0.20198300  1
  Ni  Ni0  1  0.86593200  0.72918900  0.62724100  1
  Ni  Ni1  1  0.62765000  0.09400700  0.39926600  1
  Ni  Ni2  1  0.36593200  0.27081100  0.87275900  1
  Ni  Ni3  1  0.36811000  0.08255100  0.23555800  1
  Ni  Ni4  1  0.86811000  0.91744900  0.26444200  1
  Ni  Ni5  1  0.87235000  0.09400700  0.89926600  1
  Ni  Ni6  1  0.12765000  0.90599300  0.10073400  1
  Ni  Ni7  1  0.13189000  0.08255100  0.73555800  1
  Ni  Ni8  1  0.63189000  0.91744900  0.76444200  1
  Ni  Ni9  1  0.63406800  0.72918900  0.12724100  1
  Ni  Ni10  1  0.37235000  0.90599300  0.60073400  1
  Ni  Ni11  1  0.13406800  0.27081100  0.37275900  1
  P  P0  1  0.43885700  0.40523400  0.24236200  1
  P  P1  1  0.92542700  0.76197200  0.92797000  1
  P  P2  1  0.93885700  0.59476600  0.25763800  1
  P  P3  1  0.33834000  0.88942900  0.93399600  1
  P  P4  1  0.83834000  0.11057100  0.56600400  1
  P  P5  1  0.57457300  0.76197200  0.42797000  1
  P  P6  1  0.42542700  0.23802800  0.57203000  1
  P  P7  1  0.16166000  0.88942900  0.43399600  1
  P  P8  1  0.66166000  0.11057100  0.06600400  1
  P  P9  1  0.06114300  0.40523400  0.74236200  1
  P  P10  1  0.07457300  0.23802800  0.07203000  1
  P  P11  1  0.56114300  0.59476600  0.75763800  1
  O  O0  1  0.02389100  0.38167100  0.91456000  1
  O  O1  1  0.28073300  0.42208300  0.22708300  1
  O  O2  1  0.47610900  0.38167100  0.41456000  1
  O  O3  1  0.52856600  0.54306400  0.13658200  1
  O  O4  1  0.51365000  0.75369400  0.74505700  1
  O  O5  1  0.27522800  0.76454500  0.08625800  1
  O  O6  1  0.02856600  0.45693600  0.36341800  1
  O  O7  1  0.97610900  0.61832900  0.08544000  1
  O  O8  1  0.78073300  0.57791700  0.27291700  1
  O  O9  1  0.77095300  0.94879300  0.59014000  1
  O  O10  1  0.76503800  0.77490000  0.93461500  1
  O  O11  1  0.27214000  0.87879100  0.79622900  1
  O  O12  1  0.22477200  0.76454500  0.58625800  1
  O  O13  1  0.71926700  0.57791700  0.77291700  1
  O  O14  1  0.52389100  0.61832900  0.58544000  1
  O  O15  1  0.47143400  0.45693600  0.86341800  1
  O  O16  1  0.48635000  0.24630600  0.25494300  1
  O  O17  1  0.01947300  0.26778500  0.19622400  1
  O  O18  1  0.97143400  0.54306400  0.63658200  1
  O  O19  1  0.77522800  0.23545500  0.41374200  1
  O  O20  1  0.21926700  0.42208300  0.72708300  1
  O  O21  1  0.22904700  0.05120700  0.40986000  1
  O  O22  1  0.23496200  0.22510000  0.06538500  1
  O  O23  1  0.72786000  0.12120900  0.20377100  1
  O  O24  1  0.72477200  0.23545500  0.91374200  1
  O  O25  1  0.50037100  0.11162000  0.06444200  1
  O  O26  1  0.00201600  0.08471600  0.08427500  1
  O  O27  1  0.50201600  0.91528400  0.41572500  1
  O  O28  1  0.01365000  0.24630600  0.75494300  1
  O  O29  1  0.48052700  0.26778500  0.69622400  1
  O  O30  1  0.00037100  0.88838000  0.43555800  1
  O  O31  1  0.22786000  0.87879100  0.29622900  1
  O  O32  1  0.73496200  0.77490000  0.43461500  1
  O  O33  1  0.72904700  0.94879300  0.09014000  1
  O  O34  1  0.27095300  0.05120700  0.90986000  1
  O  O35  1  0.26503800  0.22510000  0.56538500  1
  O  O36  1  0.77214000  0.12120900  0.70377100  1
  O  O37  1  0.99962900  0.11162000  0.56444200  1
  O  O38  1  0.51947300  0.73221500  0.30377600  1
  O  O39  1  0.98635000  0.75369400  0.24505700  1
  O  O40  1  0.49798400  0.08471600  0.58427500  1
  O  O41  1  0.99798400  0.91528400  0.91572500  1
  O  O42  1  0.49962900  0.88838000  0.93555800  1
  O  O43  1  0.98052700  0.73221500  0.80377600  1
loop_
_geom_bond_atom_site_label_1
_geom_bond_atom_site_label_2
_geom_bond_distance
_geom_bond_site_symmetry_2
Li0 O12 1.929707 1_555
Li0 O43 1.957135 1_455
Li0 O11 2.115510 1_555
Li1 O24 1.929707 1_555
Li1 O29 1.957135 1_555
Li1 O36 2.115510 1_555
Li2 O5 1.929707 1_555
Li2 O38 1.957135 1_555
Li2 O31 2.115510 1_555
Li3 O19 1.929707 1_555
Li3 O17 1.957135 1_655
Li3 O23 2.115510 1_555
Ni0 O18 2.033346 1_555
Ni0 O13 2.035093 1_555
Ni0 O43 2.106266 1_555
Ni0 O32 2.166642 1_555
Ni0 O9 2.176829 1_555
Ni0 O30 2.196905 1_655
Ni1 O16 1.999150 1_555
Ni1 O19 2.022924 1_555
Ni1 O27 2.049593 1_545
Ni1 O23 2.092178 1_555
Ni1 O40 2.207013 1_555
Ni1 O9 2.210661 1_545
Ni2 O15 2.033346 1_555
Ni2 O20 2.035093 1_555
Ni2 O29 2.106266 1_555
Ni2 O22 2.166642 1_556
Ni2 O34 2.176829 1_555
Ni2 O25 2.196905 1_556
Ni3 O22 2.032723 1_555
Ni3 O16 2.039441 1_555
Ni3 O25 2.044338 1_555
Ni3 O21 2.103444 1_555
Ni3 O27 2.159092 1_545
Ni3 O31 2.211487 1_545
Ni4 O32 2.032723 1_555
Ni4 O39 2.039441 1_555
Ni4 O30 2.044338 1_655
Ni4 O33 2.103444 1_555
Ni4 O26 2.159092 1_665
Ni4 O23 2.211487 1_565
Ni5 O28 1.999150 1_655
Ni5 O24 2.022924 1_555
Ni5 O41 2.049593 1_545
Ni5 O36 2.092178 1_555
Ni5 O26 2.207013 1_656
Ni5 O33 2.210661 1_546
Ni6 O39 1.999150 1_455
Ni6 O5 2.022924 1_555
Ni6 O26 2.049593 1_565
Ni6 O31 2.092178 1_555
Ni6 O41 2.207013 1_454
Ni6 O34 2.210661 1_564
Ni7 O35 2.032723 1_555
Ni7 O28 2.039441 1_555
Ni7 O37 2.044338 1_455
Ni7 O34 2.103444 1_555
Ni7 O41 2.159092 1_445
Ni7 O11 2.211487 1_545
Ni8 O10 2.032723 1_555
Ni8 O4 2.039441 1_555
Ni8 O42 2.044338 1_555
Ni8 O9 2.103444 1_555
Ni8 O40 2.159092 1_565
Ni8 O36 2.211487 1_565
Ni9 O3 2.033346 1_555
Ni9 O8 2.035093 1_555
Ni9 O38 2.106266 1_555
Ni9 O10 2.166642 1_554
Ni9 O33 2.176829 1_555
Ni9 O42 2.196905 1_554
Ni10 O4 1.999150 1_555
Ni10 O12 2.022924 1_555
Ni10 O40 2.049593 1_565
Ni10 O11 2.092178 1_555
Ni10 O27 2.207013 1_555
Ni10 O21 2.210661 1_565
Ni11 O6 2.033346 1_555
Ni11 O1 2.035093 1_555
Ni11 O17 2.106266 1_555
Ni11 O35 2.166642 1_555
Ni11 O21 2.176829 1_555
Ni11 O37 2.196905 1_455
O0 P10 1.588246 1_556
O0 P9 1.679644 1_555
O1 P0 1.513147 1_555
O2 P6 1.588246 1_555
O2 P0 1.679644 1_555
O3 P0 1.501353 1_555
O4 P11 1.556317 1_555
O5 P3 1.536015 1_554
O6 P2 1.501353 1_455
O7 P1 1.588246 1_554
O7 P2 1.679644 1_555
O8 P2 1.513147 1_555
O9 P4 1.604106 1_565
O10 P1 1.535577 1_555
O11 P3 1.579900 1_555
O12 P7 1.536015 1_555
O13 P11 1.513147 1_555
O14 P5 1.588246 1_555
O14 P11 1.679644 1_555
O15 P11 1.501353 1_555
O16 P0 1.556317 1_555
O17 P10 1.516868 1_555
O18 P9 1.501353 1_655
O19 P4 1.536015 1_555
O20 P9 1.513147 1_555
O21 P7 1.604106 1_545
O22 P10 1.535577 1_555
O23 P8 1.579900 1_555
O24 P8 1.536015 1_556
O25 P8 1.534804 1_555
O26 P10 1.593497 1_555
O27 P5 1.593497 1_555
O28 P9 1.556317 1_555
O29 P6 1.516868 1_555
O30 P7 1.534804 1_555
O31 P7 1.579900 1_555
O32 P5 1.535577 1_555
O33 P8 1.604106 1_565
O34 P3 1.604106 1_545
O35 P6 1.535577 1_555
O36 P4 1.579900 1_555
O37 P4 1.534804 1_555
O38 P5 1.516868 1_555
O39 P2 1.556317 1_555
O40 P6 1.593497 1_555
O41 P1 1.593497 1_555
O42 P3 1.534804 1_555
O43 P1 1.516868 1_555
