# generated using pymatgen
data_MgCr4(CuS4)2
_symmetry_space_group_name_H-M   'P 1'
_cell_length_a   7.16932130
_cell_length_b   7.03500309
_cell_length_c   7.18718769
_cell_angle_alpha   59.35123045
_cell_angle_beta   60.02036060
_cell_angle_gamma   61.37980622
_symmetry_Int_Tables_number   1
_chemical_formula_structural   MgCr4(CuS4)2
_chemical_formula_sum   'Mg1 Cr4 Cu2 S8'
_cell_volume   257.60784686
_cell_formula_units_Z   1
loop_
 _symmetry_equiv_pos_site_id
 _symmetry_equiv_pos_as_xyz
  1  'x, y, z'
loop_
 _atom_site_type_symbol
 _atom_site_label
 _atom_site_symmetry_multiplicity
 _atom_site_fract_x
 _atom_site_fract_y
 _atom_site_fract_z
 _atom_site_occupancy
  Mg  Mg0  1  0.55580819  0.93040693  0.01350722  1
  Cr  Cr0  1  0.49792256  0.47259087  0.51264686  1
  Cr  Cr1  1  0.49773900  0.47244468  0.02598462  1
  Cr  Cr2  1  0.50193325  0.96082149  0.52286369  1
  Cr  Cr3  1  0.00174239  0.46952741  0.51901818  1
  Cu  Cu0  1  0.01005527  0.98106604  0.70311824  1
  Cu  Cu1  1  0.10074203  0.11046257  0.14519622  1
  S  S0  1  0.74558220  0.71591566  0.75016720  1
  S  S1  1  0.25690668  0.22140521  0.74554335  1
  S  S2  1  0.26149852  0.69633181  0.27368380  1
  S  S3  1  0.71712476  0.23601576  0.27606921  1
  S  S4  1  0.71272937  0.26581159  0.76243505  1
  S  S5  1  0.29090427  0.68357221  0.76537587  1
  S  S6  1  0.25379236  0.21846469  0.28633159  1
  S  S7  1  0.74366515  0.71331008  0.29991092  1
loop_
_geom_bond_atom_site_label_1
_geom_bond_atom_site_label_2
_geom_bond_distance
_geom_bond_site_symmetry_2
Mg0 S7 2.445081 1_555
Mg0 S0 2.466117 1_554
Mg0 S4 2.502523 1_564
Mg0 S2 2.628024 1_555
Mg0 S6 2.871319 1_565
Mg0 S1 2.897282 1_564
Cr0 S5 2.376817 1_555
Cr0 S4 2.380139 1_555
Cr0 S7 2.415743 1_555
Cr0 S3 2.416565 1_555
Cr0 S2 2.428477 1_555
Cr0 S1 2.434972 1_555
Cr1 S3 2.396262 1_555
Cr1 S5 2.396383 1_554
Cr1 S2 2.410089 1_555
Cr1 S4 2.412436 1_554
Cr1 S0 2.440158 1_554
Cr1 S6 2.463124 1_555
Cr2 S7 2.404484 1_555
Cr2 S0 2.405759 1_555
Cr2 S5 2.420069 1_555
Cr2 S3 2.428966 1_565
Cr2 S1 2.470715 1_565
Cr2 S6 2.476277 1_565
Cr3 S2 2.412373 1_555
Cr3 S7 2.441922 1_455
Cr3 S0 2.444250 1_455
Cr3 S1 2.462530 1_555
Cr3 S4 2.464481 1_455
Cr3 S6 2.472951 1_555
Cu0 S5 2.131456 1_555
Cu0 S4 2.147118 1_465
Cu0 S6 2.698122 1_565
Cu0 Mg0 2.958055 1_456
Cu1 S3 2.272317 1_455
Cu1 S1 2.334684 1_554
Cu1 S6 2.346706 1_555
Cu1 S2 2.402694 1_545
Cu1 Mg0 2.705851 1_545
