# generated using pymatgen
data_NaY2P(SO6)2
_symmetry_space_group_name_H-M   'P 1'
_cell_length_a   9.13131658
_cell_length_b   9.13217751
_cell_length_c   24.35770095
_cell_angle_alpha   89.99325868
_cell_angle_beta   89.99999598
_cell_angle_gamma   119.99716653
_symmetry_Int_Tables_number   1
_chemical_formula_structural   NaY2P(SO6)2
_chemical_formula_sum   'Na6 Y12 P6 S12 O72'
_cell_volume   1759.08597391
_cell_formula_units_Z   6
loop_
 _symmetry_equiv_pos_site_id
 _symmetry_equiv_pos_as_xyz
  1  'x, y, z'
loop_
 _atom_site_type_symbol
 _atom_site_label
 _atom_site_symmetry_multiplicity
 _atom_site_fract_x
 _atom_site_fract_y
 _atom_site_fract_z
 _atom_site_occupancy
  Na  Na0  1  0.97483018  0.98422439  0.49977048  1
  Na  Na1  1  0.00940946  0.98419898  0.99977020  1
  Na  Na2  1  0.65579613  0.30657844  0.83335245  1
  Na  Na3  1  0.65077919  0.30657923  0.33335233  1
  Na  Na4  1  0.31604715  0.67412152  0.16676568  1
  Na  Na5  1  0.35806864  0.67411380  0.66676473  1
  Y  Y0  1  0.00207948  0.00056847  0.35085142  1
  Y  Y1  1  0.99848638  0.00056775  0.85085143  1
  Y  Y2  1  0.98559742  0.99187370  0.64876669  1
  Y  Y3  1  0.00627618  0.99187511  0.14876695  1
  Y  Y4  1  0.66602428  0.33291934  0.68438219  1
  Y  Y5  1  0.66689598  0.33292027  0.18438213  1
  Y  Y6  1  0.66729870  0.33362520  0.98233308  1
  Y  Y7  1  0.66632587  0.33362574  0.48233238  1
  Y  Y8  1  0.32405535  0.67401632  0.01771413  1
  Y  Y9  1  0.34996088  0.67401680  0.51771387  1
  Y  Y10  1  0.33979383  0.68211880  0.31577978  1
  Y  Y11  1  0.34232277  0.68211658  0.81577983  1
  P  P0  1  0.29962005  0.00267292  0.25040847  1
  P  P1  1  0.70304916  0.00266965  0.75040825  1
  P  P2  1  0.66687669  0.62769336  0.58341319  1
  P  P3  1  0.96081798  0.62769518  0.08341306  1
  P  P4  1  0.33299390  0.96885792  0.91657465  1
  P  P5  1  0.63586410  0.96885880  0.41657442  1
  S  S0  1  0.70267008  0.70285321  0.25001658  1
  S  S1  1  0.00175656  0.29664571  0.24961749  1
  S  S2  1  0.29489264  0.29664576  0.74961957  1
  S  S3  1  0.00018275  0.70285341  0.75001776  1
  S  S4  1  0.96575634  0.33575511  0.58303298  1
  S  S5  1  0.36755952  0.03626169  0.58355259  1
  S  S6  1  0.66870547  0.03626445  0.08355172  1
  S  S7  1  0.36999957  0.33576033  0.08303332  1
  S  S8  1  0.62813262  0.66610976  0.91743139  1
  S  S9  1  0.03874503  0.37145181  0.91604857  1
  S  S10  1  0.33270567  0.37145616  0.41604756  1
  S  S11  1  0.03797830  0.66611218  0.41742966  1
  O  O0  1  0.20952435  0.01739255  0.30208036  1
  O  O1  1  0.80294422  0.78662066  0.29967981  1
  O  O2  1  0.98209047  0.19489828  0.29944100  1
  O  O3  1  0.21280902  0.19489838  0.79944141  1
  O  O4  1  0.98367645  0.78662103  0.79967894  1
  O  O5  1  0.80786572  0.01739065  0.80207919  1
  O  O6  1  0.79154237  0.98590240  0.69850720  1
  O  O7  1  0.19593025  0.21168810  0.69991062  1
  O  O8  1  0.02112176  0.80511649  0.70039558  1
  O  O9  1  0.78399170  0.80511353  0.20039649  1
  O  O10  1  0.01576008  0.21169057  0.19991148  1
  O  O11  1  0.19436093  0.98590404  0.19850862  1
  O  O12  1  0.88160257  0.35094590  0.63285992  1
  O  O13  1  0.47090232  0.11780239  0.63303208  1
  O  O14  1  0.65313282  0.52416923  0.63532499  1
  O  O15  1  0.87103789  0.52417149  0.13532620  1
  O  O16  1  0.64690322  0.11780485  0.13303286  1
  O  O17  1  0.46934804  0.35095483  0.13286066  1
  O  O18  1  0.45175332  0.31387965  0.03359738  1
  O  O19  1  0.85768996  0.53811103  0.03141959  1
  O  O20  1  0.68418529  0.13570118  0.03374848  1
  O  O21  1  0.45151603  0.13569602  0.53374685  1
  O  O22  1  0.68041878  0.53810783  0.53141859  1
  O  O23  1  0.86211930  0.31387217  0.53359579  1
  O  O24  1  0.54336277  0.68132143  0.96695230  1
  O  O25  1  0.13909157  0.45315390  0.96599684  1
  O  O26  1  0.31502095  0.86220593  0.96826863  1
  O  O27  1  0.54718446  0.86220901  0.46826911  1
  O  O28  1  0.31406216  0.45315714  0.46599727  1
  O  O29  1  0.13796203  0.68132423  0.46695241  1
  O  O30  1  0.11932263  0.64722935  0.36740201  1
  O  O31  1  0.52849198  0.87966853  0.36508175  1
  O  O32  1  0.34775771  0.47113703  0.36645571  1
  O  O33  1  0.12337666  0.47113704  0.86645505  1
  O  O34  1  0.35117395  0.87966612  0.86508084  1
  O  O35  1  0.52790136  0.64722557  0.86740265  1
  O  O36  1  0.02174966  0.82001193  0.41323279  1
  O  O37  1  0.81273967  0.98543189  0.41205013  1
  O  O38  1  0.18116228  0.19991630  0.41248956  1
  O  O39  1  0.01875234  0.19991618  0.91248872  1
  O  O40  1  0.17268844  0.98542752  0.91205005  1
  O  O41  1  0.79826129  0.82000807  0.91323335  1
  O  O42  1  0.98646308  0.18438347  0.58722318  1
  O  O43  1  0.19943964  0.02244448  0.58839696  1
  O  O44  1  0.82669309  0.80638877  0.58628707  1
  O  O45  1  0.97969810  0.80639085  0.08628752  1
  O  O46  1  0.82300839  0.02244643  0.08839722  1
  O  O47  1  0.19792142  0.18438889  0.08722413  1
  O  O48  1  0.68399108  0.16158377  0.74628988  1
  O  O49  1  0.46664865  0.31593258  0.74604407  1
  O  O50  1  0.84594872  0.53387610  0.74571457  1
  O  O51  1  0.68792668  0.53387423  0.24571480  1
  O  O52  1  0.84928386  0.31593168  0.24604290  1
  O  O53  1  0.47759414  0.16158615  0.24629081  1
  O  O54  1  0.64842445  0.51476671  0.92108564  1
  O  O55  1  0.86852354  0.35498385  0.92013827  1
  O  O56  1  0.49352789  0.14561957  0.92098795  1
  O  O57  1  0.65209272  0.14562301  0.42098768  1
  O  O58  1  0.48646227  0.35498953  0.42013855  1
  O  O59  1  0.86634234  0.51476896  0.42108524  1
  O  O60  1  0.35595596  0.48993833  0.07814902  1
  O  O61  1  0.13950750  0.64641488  0.08058414  1
  O  O62  1  0.51750409  0.86428225  0.07931000  1
  O  O63  1  0.34677655  0.86427929  0.57931018  1
  O  O64  1  0.50690524  0.64641070  0.58058342  1
  O  O65  1  0.13397592  0.48993097  0.57814777  1
  O  O66  1  0.31570850  0.84130966  0.25343639  1
  O  O67  1  0.53078247  0.68139561  0.25431525  1
  O  O68  1  0.15543585  0.46603683  0.25430109  1
  O  O69  1  0.31060152  0.46603542  0.75430182  1
  O  O70  1  0.15061500  0.68140129  0.75431498  1
  O  O71  1  0.52559824  0.84130752  0.75343524  1
loop_
_geom_bond_atom_site_label_1
_geom_bond_atom_site_label_2
_geom_bond_distance
_geom_bond_site_symmetry_2
Na0 O44 2.590504 1_555
Na0 O37 2.602398 1_555
Na0 O36 2.742018 1_655
Na0 O42 2.774302 1_565
Na0 O38 2.870110 1_665
Na0 O43 2.876260 1_665
Na1 O45 2.590353 1_456
Na1 O40 2.602240 1_555
Na1 O41 2.742022 1_455
Na1 O47 2.774381 1_566
Na1 O39 2.870329 1_565
Na1 O46 2.876445 1_466
Na2 O48 2.580356 1_555
Na2 O56 2.595013 1_555
Na2 O55 2.752971 1_555
Na2 O49 2.767751 1_555
Na2 O50 2.876695 1_555
Na2 O54 2.883529 1_555
Na3 O53 2.580313 1_555
Na3 O57 2.595011 1_555
Na3 O58 2.752971 1_555
Na3 O52 2.767792 1_555
Na3 O51 2.876671 1_555
Na3 O59 2.883533 1_555
Na4 O61 2.580997 1_555
Na4 O66 2.606400 1_555
Na4 O68 2.742332 1_555
Na4 O62 2.782517 1_555
Na4 O60 2.869629 1_555
Na4 O67 2.875167 1_555
Na5 O64 2.581001 1_555
Na5 O71 2.606415 1_555
Na5 O69 2.742343 1_555
Na5 O63 2.782516 1_555
Na5 O65 2.869631 1_555
Na5 O70 2.875176 1_555
O0 P0 1.545835 1_555
O0 Y0 2.175303 1_555
O1 S0 1.478766 1_555
O1 Y0 2.263964 1_665
O2 S1 1.483677 1_655
O2 Y0 2.252596 1_655
O3 S2 1.483646 1_555
O3 Y1 2.252602 1_455
O4 S3 1.478727 1_655
O4 Y1 2.263983 1_565
O5 P1 1.545819 1_555
O5 Y1 2.175314 1_555
O6 P1 1.548661 1_565
O6 Y2 2.124649 1_555
O7 S2 1.477749 1_555
O7 Y2 2.327177 1_445
O8 S3 1.480136 1_555
O8 Y2 2.268942 1_455
O9 S0 1.480079 1_555
O9 Y3 2.268970 1_655
O10 S1 1.477676 1_555
O10 Y3 2.327191 1_545
O11 P0 1.548626 1_565
O11 Y3 2.124672 1_555
O12 S4 1.479649 1_555
O12 Y4 2.270022 1_555
O13 S5 1.481583 1_555
O13 Y4 2.258069 1_555
O14 P2 1.545786 1_555
O14 Y4 2.167288 1_555
O15 P3 1.545809 1_555
O15 Y5 2.167271 1_555
O16 S6 1.481617 1_555
O16 Y5 2.258059 1_555
O17 S7 1.479670 1_555
O17 Y5 2.270018 1_555
O18 S7 1.482025 1_555
O18 Y6 2.260675 1_554
O19 P3 1.545917 1_555
O19 Y6 2.166443 1_554
O20 S6 1.479042 1_555
O20 Y6 2.266563 1_554
O21 S5 1.479082 1_555
O21 Y7 2.266559 1_555
O22 P2 1.545943 1_555
O22 Y7 2.166422 1_555
O23 S4 1.482059 1_555
O23 Y7 2.260650 1_555
O24 S8 1.476815 1_555
O24 Y8 2.325920 1_556
O25 S9 1.480903 1_555
O25 Y8 2.258741 1_556
O26 P4 1.549475 1_555
O26 Y8 2.133572 1_556
O27 P5 1.549481 1_555
O27 Y9 2.133563 1_555
O28 S10 1.480925 1_555
O28 Y9 2.258716 1_555
O29 S11 1.476862 1_555
O29 Y9 2.325899 1_555
O30 S11 1.481374 1_555
O30 Y10 2.256997 1_555
O31 P5 1.549048 1_555
O31 Y10 2.134939 1_555
O32 S10 1.476925 1_555
O32 Y10 2.319635 1_555
O33 S9 1.476976 1_555
O33 Y11 2.319612 1_555
O34 P4 1.549075 1_555
O34 Y11 2.134931 1_555
O35 S8 1.481414 1_555
O35 Y11 2.256991 1_555
O36 S11 1.488587 1_555
O36 Y0 2.314168 1_565
O37 P5 1.548933 1_555
O37 Y0 2.234128 1_665
O38 S10 1.486229 1_555
O38 Y0 2.294833 1_555
O39 S9 1.486212 1_555
O39 Y1 2.294825 1_455
O40 P4 1.548944 1_555
O40 Y1 2.234134 1_465
O41 S8 1.488578 1_555
O41 Y1 2.314173 1_565
O42 S4 1.489425 1_555
O42 Y2 2.307250 1_545
O43 S5 1.480829 1_555
O43 Y2 2.346894 1_445
O44 P2 1.554464 1_555
O44 Y2 2.198567 1_555
O45 P3 1.554469 1_555
O45 Y3 2.198569 1_655
O46 S6 1.480838 1_555
O46 Y3 2.346873 1_645
O47 S7 1.489417 1_555
O47 Y3 2.307252 1_545
O48 P1 1.548844 1_555
O48 Y4 2.237202 1_555
O49 S2 1.490684 1_555
O49 Y4 2.304754 1_555
O50 S3 1.484135 1_655
O50 Y4 2.298854 1_555
O51 S0 1.484153 1_555
O51 Y5 2.298849 1_555
O52 S1 1.490712 1_655
O52 Y5 2.304738 1_555
O53 P0 1.548842 1_555
O53 Y5 2.237206 1_555
O54 S8 1.486093 1_555
O54 Y6 2.297006 1_555
O55 S9 1.488218 1_655
O55 Y6 2.313183 1_555
O56 P4 1.549214 1_545
O56 Y6 2.230424 1_555
O57 P5 1.549239 1_545
O57 Y7 2.230407 1_555
O58 S10 1.488242 1_555
O58 Y7 2.313171 1_555
O59 S11 1.486094 1_655
O59 Y7 2.297003 1_555
O60 S7 1.481050 1_555
O60 Y8 2.359390 1_555
O61 P3 1.554801 1_455
O61 Y8 2.196267 1_555
O62 S6 1.488422 1_565
O62 Y8 2.306942 1_555
O63 S5 1.488423 1_565
O63 Y9 2.306936 1_555
O64 P2 1.554806 1_555
O64 Y9 2.196266 1_555
O65 S4 1.481026 1_455
O65 Y9 2.359417 1_555
O66 P0 1.554012 1_565
O66 Y10 2.187906 1_555
O67 S0 1.485039 1_555
O67 Y10 2.300963 1_555
O68 S1 1.484802 1_555
O68 Y10 2.376839 1_555
O69 S2 1.484803 1_555
O69 Y11 2.376835 1_555
O70 S3 1.485028 1_555
O70 Y11 2.300968 1_555
O71 P1 1.553995 1_565
O71 Y11 2.187918 1_555
