# generated using pymatgen
data_MgV2In2O8
_symmetry_space_group_name_H-M   'P 1'
_cell_length_a   5.53941642
_cell_length_b   5.53941653
_cell_length_c   7.35646356
_cell_angle_alpha   91.25262225
_cell_angle_beta   88.74737836
_cell_angle_gamma   113.59220447
_symmetry_Int_Tables_number   1
_chemical_formula_structural   MgV2In2O8
_chemical_formula_sum   'Mg1 V2 In2 O8'
_cell_volume   206.79597453
_cell_formula_units_Z   1
loop_
 _symmetry_equiv_pos_site_id
 _symmetry_equiv_pos_as_xyz
  1  'x, y, z'
loop_
 _atom_site_type_symbol
 _atom_site_label
 _atom_site_symmetry_multiplicity
 _atom_site_fract_x
 _atom_site_fract_y
 _atom_site_fract_z
 _atom_site_occupancy
  Mg  Mg0  1  0.50000000  0.50000000  0.00000000  1
  V  V0  1  0.64539200  0.35460800  0.29992700  1
  V  V1  1  0.35460800  0.64539200  0.70007300  1
  In  In0  1  0.00000000  0.00000000  0.50000000  1
  In  In1  1  0.00000000  0.00000000  0.00000000  1
  O  O0  1  0.22560800  0.77439200  0.53964900  1
  O  O1  1  0.70692500  0.29307500  0.07383100  1
  O  O2  1  0.77439200  0.22560800  0.46035100  1
  O  O3  1  0.29307500  0.70692500  0.92616900  1
  O  O4  1  0.70462000  0.76007600  0.70765300  1
  O  O5  1  0.29538000  0.23992400  0.29234700  1
  O  O6  1  0.76007600  0.70462000  0.29234700  1
  O  O7  1  0.23992400  0.29538000  0.70765300  1
loop_
_geom_bond_atom_site_label_1
_geom_bond_atom_site_label_2
_geom_bond_distance
_geom_bond_site_symmetry_2
Mg0 O1 2.007205 1_555
Mg0 O3 2.007205 1_554
Mg0 O6 2.589851 1_555
Mg0 O7 2.589851 1_554
Mg0 O5 2.589851 1_555
Mg0 O4 2.589851 1_554
In0 O0 2.119152 1_545
In0 O2 2.119152 1_455
In0 O7 2.239632 1_555
In0 O6 2.239632 1_445
In0 O4 2.239632 1_445
In0 O5 2.239632 1_555
In1 O5 2.712392 1_555
In1 O4 2.712392 1_444
In1 O6 2.712392 1_445
In1 O7 2.712392 1_554
In1 O1 2.756603 1_455
In1 O3 2.756603 1_544
O0 V1 1.701911 1_555
O1 V0 1.744204 1_555
O2 V0 1.701911 1_555
O3 V1 1.744204 1_555
O4 V1 1.784132 1_555
O5 V0 1.784132 1_555
O6 V0 1.784132 1_555
O7 V1 1.784132 1_555
