# generated using pymatgen
data_Mn
_symmetry_space_group_name_H-M   'P 1'
_cell_length_a   4.96729200
_cell_length_b   4.96729108
_cell_length_c   8.05239000
_cell_angle_alpha   90.00000000
_cell_angle_beta   90.00000000
_cell_angle_gamma   120.00000611
_symmetry_Int_Tables_number   1
_chemical_formula_structural   Mn
_chemical_formula_sum   Mn16
_cell_volume   172.06585887
_cell_formula_units_Z   16
loop_
 _symmetry_equiv_pos_site_id
 _symmetry_equiv_pos_as_xyz
  1  'x, y, z'
loop_
 _atom_site_type_symbol
 _atom_site_label
 _atom_site_symmetry_multiplicity
 _atom_site_fract_x
 _atom_site_fract_y
 _atom_site_fract_z
 _atom_site_occupancy
  Mn  Mn0_0  1  0.00000000  0.00000000  0.00000000  1
  Mn  Mn0_1  1  0.00000000  0.00000000  0.50000000  1
  Mn  Mn0_2  1  0.00000000  0.50000000  0.00000000  1
  Mn  Mn0_3  1  0.00000000  0.50000000  0.50000000  1
  Mn  Mn0_4  1  0.50000000  0.00000000  0.00000000  1
  Mn  Mn0_5  1  0.50000000  0.00000000  0.50000000  1
  Mn  Mn0_6  1  0.50000000  0.50000000  0.00000000  1
  Mn  Mn0_7  1  0.50000000  0.50000000  0.50000000  1
  Mn  Mn1_0  1  0.33333350  0.16666650  0.25000000  1
  Mn  Mn1_1  1  0.33333350  0.16666650  0.75000000  1
  Mn  Mn1_2  1  0.33333350  0.66666650  0.25000000  1
  Mn  Mn1_3  1  0.33333350  0.66666650  0.75000000  1
  Mn  Mn1_4  1  0.83333350  0.16666650  0.25000000  1
  Mn  Mn1_5  1  0.83333350  0.16666650  0.75000000  1
  Mn  Mn1_6  1  0.83333350  0.66666650  0.25000000  1
  Mn  Mn1_7  1  0.83333350  0.66666650  0.75000000  1
loop_
_geom_bond_atom_site_label_1
_geom_bond_atom_site_label_2
_geom_bond_distance
_geom_bond_site_symmetry_2
Mn0_0 Mn1_5 2.471583 1_454
Mn0_0 Mn1_4 2.471583 1_455
Mn0_0 Mn1_7 2.471584 1_444
Mn0_0 Mn1_6 2.471584 1_445
Mn0_0 Mn1_1 2.471584 1_554
Mn0_0 Mn1_0 2.471584 1_555
Mn0_0 Mn0_2 2.483646 1_555
Mn0_0 Mn0_6 2.483646 1_555
Mn0_0 Mn0_2 2.483646 1_545
Mn0_0 Mn0_6 2.483646 1_445
Mn0_0 Mn0_4 2.483646 1_455
Mn0_0 Mn0_4 2.483646 1_555
Mn0_1 Mn1_5 2.471583 1_455
Mn0_1 Mn1_4 2.471583 1_455
Mn0_1 Mn1_6 2.471584 1_445
Mn0_1 Mn1_7 2.471584 1_445
Mn0_1 Mn1_0 2.471584 1_555
Mn0_1 Mn1_1 2.471584 1_555
Mn0_1 Mn0_3 2.483646 1_555
Mn0_1 Mn0_3 2.483646 1_545
Mn0_1 Mn0_7 2.483646 1_555
Mn0_1 Mn0_7 2.483646 1_445
Mn0_1 Mn0_5 2.483646 1_455
Mn0_1 Mn0_5 2.483646 1_555
Mn0_2 Mn1_7 2.471583 1_454
Mn0_2 Mn1_6 2.471583 1_455
Mn0_2 Mn1_4 2.471584 1_455
Mn0_2 Mn1_5 2.471584 1_454
Mn0_2 Mn1_3 2.471584 1_554
Mn0_2 Mn1_2 2.471584 1_555
Mn0_2 Mn0_4 2.483646 1_565
Mn0_2 Mn0_4 2.483646 1_455
Mn0_2 Mn0_6 2.483646 1_455
Mn0_2 Mn0_6 2.483646 1_555
Mn0_3 Mn1_6 2.471583 1_455
Mn0_3 Mn1_7 2.471583 1_455
Mn0_3 Mn1_4 2.471584 1_455
Mn0_3 Mn1_5 2.471584 1_455
Mn0_3 Mn1_2 2.471584 1_555
Mn0_3 Mn1_3 2.471584 1_555
Mn0_3 Mn0_5 2.483646 1_565
Mn0_3 Mn0_5 2.483646 1_455
Mn0_3 Mn0_7 2.483646 1_555
Mn0_3 Mn0_7 2.483646 1_455
Mn0_4 Mn1_0 2.471583 1_555
Mn0_4 Mn1_1 2.471583 1_554
Mn0_4 Mn1_2 2.471584 1_545
Mn0_4 Mn1_3 2.471584 1_544
Mn0_4 Mn1_5 2.471584 1_554
Mn0_4 Mn1_4 2.471584 1_555
Mn0_4 Mn0_6 2.483646 1_555
Mn0_4 Mn0_6 2.483646 1_545
Mn0_5 Mn1_0 2.471583 1_555
Mn0_5 Mn1_1 2.471583 1_555
Mn0_5 Mn1_2 2.471584 1_545
Mn0_5 Mn1_3 2.471584 1_545
Mn0_5 Mn1_5 2.471584 1_555
Mn0_5 Mn1_4 2.471584 1_555
Mn0_5 Mn0_7 2.483646 1_545
Mn0_5 Mn0_7 2.483646 1_555
Mn0_6 Mn1_3 2.471583 1_554
Mn0_6 Mn1_2 2.471583 1_555
Mn0_6 Mn1_0 2.471584 1_555
Mn0_6 Mn1_1 2.471584 1_554
Mn0_6 Mn1_6 2.471584 1_555
Mn0_6 Mn1_7 2.471584 1_554
Mn0_7 Mn1_2 2.471583 1_555
Mn0_7 Mn1_3 2.471583 1_555
Mn0_7 Mn1_0 2.471584 1_555
Mn0_7 Mn1_1 2.471584 1_555
Mn0_7 Mn1_7 2.471584 1_555
Mn0_7 Mn1_6 2.471584 1_555
Mn1_0 Mn1_6 2.483646 1_445
Mn1_0 Mn1_2 2.483646 1_545
Mn1_0 Mn1_2 2.483646 1_555
Mn1_0 Mn1_6 2.483646 1_555
Mn1_0 Mn1_4 2.483646 1_455
Mn1_0 Mn1_4 2.483646 1_555
Mn1_1 Mn1_7 2.483646 1_555
Mn1_1 Mn1_7 2.483646 1_445
Mn1_1 Mn1_3 2.483646 1_545
Mn1_1 Mn1_3 2.483646 1_555
Mn1_1 Mn1_5 2.483646 1_455
Mn1_1 Mn1_5 2.483646 1_555
Mn1_2 Mn1_4 2.483646 1_455
Mn1_2 Mn1_4 2.483646 1_565
Mn1_2 Mn1_6 2.483646 1_455
Mn1_2 Mn1_6 2.483646 1_555
Mn1_3 Mn1_5 2.483646 1_455
Mn1_3 Mn1_5 2.483646 1_565
Mn1_3 Mn1_7 2.483646 1_455
Mn1_3 Mn1_7 2.483646 1_555
Mn1_4 Mn1_6 2.483646 1_555
Mn1_4 Mn1_6 2.483646 1_545
Mn1_5 Mn1_7 2.483646 1_555
Mn1_5 Mn1_7 2.483646 1_545
