# generated using pymatgen
data_AgHgSI
_symmetry_space_group_name_H-M   'P 1'
_cell_length_a   7.13704532
_cell_length_b   7.70035826
_cell_length_c   8.66170268
_cell_angle_alpha   90.00000000
_cell_angle_beta   90.00000000
_cell_angle_gamma   90.00000000
_symmetry_Int_Tables_number   1
_chemical_formula_structural   AgHgSI
_chemical_formula_sum   'Ag4 Hg4 S4 I4'
_cell_volume   476.02817449
_cell_formula_units_Z   4
loop_
 _symmetry_equiv_pos_site_id
 _symmetry_equiv_pos_as_xyz
  1  'x, y, z'
loop_
 _atom_site_type_symbol
 _atom_site_label
 _atom_site_symmetry_multiplicity
 _atom_site_fract_x
 _atom_site_fract_y
 _atom_site_fract_z
 _atom_site_occupancy
  Ag  Ag0  1  0.09690603  0.17144549  0.39121360  1
  Ag  Ag1  1  0.59690603  0.32855451  0.60878640  1
  Ag  Ag2  1  0.40309397  0.82855451  0.89121360  1
  Ag  Ag3  1  0.90309397  0.67144549  0.10878640  1
  Hg  Hg0  1  0.25802906  0.27099927  0.99136177  1
  Hg  Hg1  1  0.24197094  0.72900073  0.49136177  1
  Hg  Hg2  1  0.74197094  0.77099927  0.50863823  1
  Hg  Hg3  1  0.75802906  0.22900073  0.00863823  1
  S  S0  1  0.00522669  0.35637418  0.15075696  1
  S  S1  1  0.49477331  0.64362582  0.65075696  1
  S  S2  1  0.99477331  0.85637418  0.34924304  1
  S  S3  1  0.50522669  0.14362582  0.84924304  1
  I  I0  1  -0.00066400  0.87471664  0.85795728  1
  I  I1  1  0.49933600  0.62528336  0.14204272  1
  I  I2  1  0.50066400  0.12528336  0.35795728  1
  I  I3  1  0.00066400  0.37471664  0.64204272  1
loop_
_geom_bond_atom_site_label_1
_geom_bond_atom_site_label_2
_geom_bond_distance
_geom_bond_site_symmetry_2
Ag0 S2 2.559249 1_445
Ag0 S0 2.606504 1_555
Ag0 I3 2.764430 1_555
Ag0 I2 2.917735 1_555
Ag1 S1 2.559249 1_555
Ag1 S3 2.606504 1_555
Ag1 I2 2.764430 1_555
Ag1 I3 2.917735 1_655
Ag2 S3 2.559249 1_565
Ag2 S1 2.606504 1_555
Ag2 I1 2.764430 1_556
Ag2 I0 2.917735 1_555
Ag3 S0 2.559249 1_655
Ag3 S2 2.606504 1_555
Ag3 I0 2.764430 1_654
Ag3 I1 2.917735 1_555
Hg0 S3 2.364310 1_555
Hg0 S0 2.365102 1_556
Hg1 S2 2.364310 1_455
Hg1 S1 2.365102 1_555
Hg2 S1 2.364310 1_555
Hg2 S2 2.365102 1_555
Hg3 S0 2.364310 1_655
Hg3 S3 2.365102 1_554
