# generated using pymatgen
data_MgFe6(O5F)2
_symmetry_space_group_name_H-M   'P 1'
_cell_length_a   7.52964897
_cell_length_b   5.72375203
_cell_length_c   5.71260746
_cell_angle_alpha   64.70179758
_cell_angle_beta   71.15779094
_cell_angle_gamma   71.07432451
_symmetry_Int_Tables_number   1
_chemical_formula_structural   MgFe6(O5F)2
_chemical_formula_sum   'Mg1 Fe6 O10 F2'
_cell_volume   205.60557808
_cell_formula_units_Z   1
loop_
 _symmetry_equiv_pos_site_id
 _symmetry_equiv_pos_as_xyz
  1  'x, y, z'
loop_
 _atom_site_type_symbol
 _atom_site_label
 _atom_site_symmetry_multiplicity
 _atom_site_fract_x
 _atom_site_fract_y
 _atom_site_fract_z
 _atom_site_occupancy
  Mg  Mg0  1  0.12253417  0.08064778  0.08746828  1
  Fe  Fe0  1  0.84192621  0.64368979  0.64601545  1
  Fe  Fe1  1  0.68290231  0.36344759  0.36293214  1
  Fe  Fe2  1  0.34251670  0.64474308  0.64551432  1
  Fe  Fe3  1  0.17701011  0.35870335  0.35917690  1
  Fe  Fe4  1  0.50698342  0.00695598  0.00621094  1
  Fe  Fe5  1  0.90313011  0.92182180  0.92011609  1
  O  O0  1  0.70539120  0.03980542  0.66871393  1
  O  O1  1  0.31686904  0.34660676  0.97209411  1
  O  O2  1  0.94995556  0.29186762  0.29342603  1
  O  O3  1  0.62355033  0.58360719  0.58498403  1
  O  O4  1  0.06574315  0.71976335  0.71808073  1
  O  O5  1  0.39700522  0.42681302  0.42582697  1
  O  O6  1  0.31779010  0.97159821  0.34724974  1
  O  O7  1  0.70577281  0.66913938  0.03924955  1
  O  O8  1  0.00732090  0.25770654  0.74743064  1
  O  O9  1  0.00660988  0.74517888  0.25854292  1
  F  F0  1  0.34092412  0.88355814  0.88497102  1
  F  F1  1  0.68050867  0.12767912  0.12723420  1
loop_
_geom_bond_atom_site_label_1
_geom_bond_atom_site_label_2
_geom_bond_distance
_geom_bond_site_symmetry_2
Mg0 O2 1.934822 1_455
Mg0 O9 2.082390 1_545
Mg0 O8 2.094909 1_554
Mg0 O6 2.185364 1_545
Mg0 O1 2.203956 1_554
Fe0 O3 1.945020 1_555
Fe0 O4 2.067979 1_655
Fe0 O8 2.086824 1_655
Fe0 O9 2.090453 1_655
Fe0 O7 2.194026 1_556
Fe0 O0 2.206213 1_565
Fe1 O2 1.859517 1_555
Fe1 O0 1.932251 1_555
Fe1 O7 1.932579 1_555
Fe1 O5 2.000021 1_555
Fe1 O3 2.007841 1_555
Fe2 O1 1.920937 1_555
Fe2 O6 1.921578 1_555
Fe2 O4 1.926899 1_555
Fe2 O3 1.967303 1_555
Fe2 O5 1.993146 1_555
Fe3 O5 1.998508 1_555
Fe3 O2 2.042583 1_455
Fe3 O9 2.102029 1_555
Fe3 O8 2.106850 1_555
Fe3 O1 2.140758 1_554
Fe3 O6 2.143924 1_545
Fe4 O1 1.979328 1_554
Fe4 O6 1.980722 1_545
Fe4 O0 1.999070 1_554
Fe4 O7 2.001988 1_545
Fe5 O4 1.865007 1_655
Fe5 O8 2.035265 1_665
Fe5 O9 2.039211 1_656
Fe5 O0 2.153022 1_565
Fe5 O7 2.159375 1_556
F0 Mg0 1.999519 1_566
F0 Fe4 2.022942 1_566
F0 Fe2 2.305790 1_555
F1 Fe5 2.056043 1_544
F1 Fe4 2.059132 1_555
F1 Fe1 2.284452 1_555
