# generated using pymatgen
data_Si3Rh5
_symmetry_space_group_name_H-M   'P 1'
_cell_length_a   3.86964966
_cell_length_b   5.35038801
_cell_length_c   10.23432043
_cell_angle_alpha   90.00000000
_cell_angle_beta   90.00000000
_cell_angle_gamma   90.00000000
_symmetry_Int_Tables_number   1
_chemical_formula_structural   Si3Rh5
_chemical_formula_sum   'Si6 Rh10'
_cell_volume   211.89267141
_cell_formula_units_Z   2
loop_
 _symmetry_equiv_pos_site_id
 _symmetry_equiv_pos_as_xyz
  1  'x, y, z'
loop_
 _atom_site_type_symbol
 _atom_site_label
 _atom_site_symmetry_multiplicity
 _atom_site_fract_x
 _atom_site_fract_y
 _atom_site_fract_z
 _atom_site_occupancy
  Si  Si0  1  0.50000000  0.09382593  0.65561607  1
  Si  Si1  1  0.50000000  0.90617407  0.34438393  1
  Si  Si2  1  0.50000000  0.59382593  0.84438393  1
  Si  Si3  1  0.50000000  0.40617407  0.15561607  1
  Si  Si4  1  0.00000000  0.50000000  0.50000000  1
  Si  Si5  1  0.00000000  0.00000000  0.00000000  1
  Rh  Rh0  1  0.50000000  0.33347879  0.39259033  1
  Rh  Rh1  1  0.50000000  0.66652121  0.60740967  1
  Rh  Rh2  1  0.50000000  0.83347879  0.10740967  1
  Rh  Rh3  1  0.50000000  0.16652121  0.89259033  1
  Rh  Rh4  1  -0.00000000  0.33966008  0.71237520  1
  Rh  Rh5  1  0.00000000  0.66033992  0.28762480  1
  Rh  Rh6  1  0.00000000  0.83966008  0.78762480  1
  Rh  Rh7  1  0.00000000  0.16033992  0.21237520  1
  Rh  Rh8  1  0.00000000  0.50000000  0.00000000  1
  Rh  Rh9  1  0.00000000  0.00000000  0.50000000  1
loop_
_geom_bond_atom_site_label_1
_geom_bond_atom_site_label_2
_geom_bond_distance
_geom_bond_site_symmetry_2
Rh0 Si1 2.338873 1_545
Rh0 Si4 2.397025 1_555
Rh0 Si4 2.397025 1_655
Rh0 Si3 2.456261 1_555
Rh0 Si0 2.981677 1_555
Rh0 Si1 3.103606 1_555
Rh1 Si0 2.338873 1_565
Rh1 Si4 2.397025 1_555
Rh1 Si4 2.397025 1_655
Rh1 Si2 2.456261 1_555
Rh1 Si1 2.981677 1_555
Rh1 Si0 3.103606 1_555
Rh2 Si3 2.338873 1_555
Rh2 Si5 2.397025 1_565
Rh2 Si5 2.397025 1_665
Rh2 Si1 2.456261 1_555
Rh2 Si2 2.981677 1_554
Rh2 Si3 3.103606 1_565
Rh3 Si2 2.338873 1_555
Rh3 Si5 2.397025 1_656
Rh3 Si5 2.397025 1_556
Rh3 Si0 2.456261 1_555
Rh3 Si3 2.981677 1_556
Rh3 Si2 3.103606 1_545
Rh4 Si4 2.336692 1_555
Rh4 Si0 2.410605 1_555
Rh4 Si0 2.410605 1_455
Rh4 Si2 2.723617 1_555
Rh4 Si2 2.723617 1_455
Rh5 Si4 2.336692 1_555
Rh5 Si1 2.410605 1_455
Rh5 Si1 2.410605 1_555
Rh5 Si3 2.723617 1_455
Rh5 Si3 2.723617 1_555
Rh6 Si5 2.336692 1_566
Rh6 Si2 2.410605 1_455
Rh6 Si2 2.410605 1_555
Rh6 Si0 2.723617 1_465
Rh6 Si0 2.723617 1_565
Rh7 Si5 2.336692 1_555
Rh7 Si3 2.410605 1_555
Rh7 Si3 2.410605 1_455
Rh7 Si1 2.723617 1_545
Rh7 Si1 2.723617 1_445
Rh8 Si2 2.555780 1_554
Rh8 Si3 2.555780 1_455
Rh8 Si3 2.555780 1_555
Rh8 Si2 2.555780 1_454
Rh8 Si5 2.675194 1_555
Rh8 Si5 2.675194 1_565
Rh9 Si0 2.555780 1_555
Rh9 Si0 2.555780 1_455
Rh9 Si1 2.555780 1_545
Rh9 Si1 2.555780 1_445
Rh9 Si4 2.675194 1_545
Rh9 Si4 2.675194 1_555
