# generated using pymatgen
data_MgFeP2O7
_symmetry_space_group_name_H-M   'P 1'
_cell_length_a   5.75528606
_cell_length_b   5.62714586
_cell_length_c   5.13511421
_cell_angle_alpha   96.88832611
_cell_angle_beta   110.92162516
_cell_angle_gamma   74.93159565
_symmetry_Int_Tables_number   1
_chemical_formula_structural   MgFeP2O7
_chemical_formula_sum   'Mg1 Fe1 P2 O7'
_cell_volume   149.93150142
_cell_formula_units_Z   1
loop_
 _symmetry_equiv_pos_site_id
 _symmetry_equiv_pos_as_xyz
  1  'x, y, z'
loop_
 _atom_site_type_symbol
 _atom_site_label
 _atom_site_symmetry_multiplicity
 _atom_site_fract_x
 _atom_site_fract_y
 _atom_site_fract_z
 _atom_site_occupancy
  Mg  Mg0  1  0.49520959  0.18991742  0.87892758  1
  Fe  Fe0  1  0.09450284  0.03803655  0.05790967  1
  P  P0  1  0.29872388  0.68624302  0.56964235  1
  P  P1  1  0.65002849  0.28652869  0.42524933  1
  O  O0  1  0.57769944  0.57254242  0.52206518  1
  O  O1  1  0.80783296  0.26603519  0.23735230  1
  O  O2  1  0.40162735  0.20909256  0.23999991  1
  O  O3  1  0.33839725  0.90579510  0.78037412  1
  O  O4  1  0.24916376  0.48376117  0.69733213  1
  O  O5  1  0.11195383  0.76751101  0.28255934  1
  O  O6  1  0.77159561  0.14127287  0.69747708  1
loop_
_geom_bond_atom_site_label_1
_geom_bond_atom_site_label_2
_geom_bond_distance
_geom_bond_site_symmetry_2
Mg0 O4 1.954031 1_555
Mg0 O3 1.963858 1_545
Mg0 O6 2.060179 1_555
Mg0 O2 2.091551 1_556
Mg0 O1 2.157515 1_556
Fe0 O5 1.979201 1_545
Fe0 O2 2.100849 1_555
Fe0 O6 2.111142 1_454
Fe0 O1 2.217832 1_455
Fe0 O3 2.277372 1_544
O0 P1 1.618110 1_555
O0 P0 1.659964 1_555
O1 P1 1.521124 1_555
O2 P1 1.546552 1_555
O3 P0 1.548873 1_555
O4 P0 1.513697 1_555
O5 P0 1.520609 1_555
O6 P1 1.545970 1_555
