# generated using pymatgen
data_Nd2(SO4)3
_symmetry_space_group_name_H-M   'P 1'
_cell_length_a   11.25849611
_cell_length_b   11.25849611
_cell_length_c   6.91717648
_cell_angle_alpha   73.68513413
_cell_angle_beta   73.68513413
_cell_angle_gamma   34.54832126
_symmetry_Int_Tables_number   1
_chemical_formula_structural   Nd2(SO4)3
_chemical_formula_sum   'Nd4 S6 O24'
_cell_volume   475.21891013
_cell_formula_units_Z   2
loop_
 _symmetry_equiv_pos_site_id
 _symmetry_equiv_pos_as_xyz
  1  'x, y, z'
loop_
 _atom_site_type_symbol
 _atom_site_label
 _atom_site_symmetry_multiplicity
 _atom_site_fract_x
 _atom_site_fract_y
 _atom_site_fract_z
 _atom_site_occupancy
  Nd  Nd0  1  0.22257154  0.51387413  0.63127156  1
  Nd  Nd1  1  0.48612587  0.77742846  0.86872844  1
  Nd  Nd2  1  0.77742846  0.48612587  0.36872844  1
  Nd  Nd3  1  0.51387413  0.22257154  0.13127156  1
  S  S0  1  0.66700448  0.33299552  0.25000000  1
  S  S1  1  0.33299552  0.66700448  0.75000000  1
  S  S2  1  0.00054314  0.36670196  0.82062225  1
  S  S3  1  0.63329804  -0.00054314  0.67937775  1
  S  S4  1  -0.00054314  0.63329804  0.17937775  1
  S  S5  1  0.36670196  0.00054314  0.32062225  1
  O  O0  1  0.59196032  0.51948291  0.14351233  1
  O  O1  1  0.48051709  0.40803968  0.35648767  1
  O  O2  1  0.40803968  0.48051709  0.85648767  1
  O  O3  1  0.51948291  0.59196032  0.64351233  1
  O  O4  1  0.15108532  0.14427356  0.87376443  1
  O  O5  1  0.85572644  0.84891468  0.62623557  1
  O  O6  1  0.84891468  0.85572644  0.12623557  1
  O  O7  1  0.14427356  0.15108532  0.37376443  1
  O  O8  1  0.80944972  0.23730404  0.39128372  1
  O  O9  1  0.76269596  0.19055028  0.10871628  1
  O  O10  1  0.53757936  0.15735381  0.80384547  1
  O  O11  1  0.84264619  0.46242064  0.69615453  1
  O  O12  1  0.46242064  0.84264619  0.19615453  1
  O  O13  1  0.15735381  0.53757936  0.30384547  1
  O  O14  1  0.39763984  0.10456275  0.20935336  1
  O  O15  1  0.89543725  0.60236016  0.29064664  1
  O  O16  1  0.60236016  0.89543725  0.79064664  1
  O  O17  1  0.10456275  0.39763984  0.70935336  1
  O  O18  1  0.48260248  0.87235084  0.50343031  1
  O  O19  1  0.12764916  0.51739752  0.99656969  1
  O  O20  1  0.51739752  0.12764916  0.49656969  1
  O  O21  1  0.87235084  0.48260248  0.00343031  1
  O  O22  1  0.23730404  0.80944972  0.89128372  1
  O  O23  1  0.19055028  0.76269596  0.60871628  1
loop_
_geom_bond_atom_site_label_1
_geom_bond_atom_site_label_2
_geom_bond_distance
_geom_bond_site_symmetry_2
Nd0 O5 2.373020 1_455
Nd0 O17 2.415198 1_555
Nd0 O1 2.436643 1_555
Nd0 O19 2.449052 1_555
Nd0 O13 2.451912 1_555
Nd0 O23 2.474738 1_555
Nd0 O10 2.520079 1_555
Nd0 O2 2.671184 1_555
Nd0 O20 2.748893 1_555
Nd1 O4 2.373020 1_565
Nd1 O16 2.415198 1_555
Nd1 O0 2.436643 1_556
Nd1 O18 2.449052 1_555
Nd1 O12 2.451912 1_556
Nd1 O22 2.474738 1_555
Nd1 O11 2.520079 1_555
Nd1 O3 2.671184 1_555
Nd1 O21 2.748893 1_556
Nd2 O7 2.373020 1_655
Nd2 O15 2.415198 1_555
Nd2 O3 2.436643 1_555
Nd2 O21 2.449052 1_555
Nd2 O11 2.451912 1_555
Nd2 O8 2.474738 1_555
Nd2 O12 2.520079 1_555
Nd2 O0 2.671184 1_555
Nd2 O18 2.748893 1_555
Nd3 O6 2.373020 1_545
Nd3 O14 2.415198 1_555
Nd3 O2 2.436643 1_554
Nd3 O20 2.449052 1_555
Nd3 O10 2.451912 1_554
Nd3 O9 2.474738 1_555
Nd3 O13 2.520079 1_555
Nd3 O1 2.671184 1_555
Nd3 O19 2.748893 1_554
O0 S0 1.491046 1_555
O1 S0 1.491046 1_555
O2 S1 1.491046 1_555
O3 S1 1.491046 1_555
O4 S2 1.456017 1_555
O5 S3 1.456017 1_565
O6 S4 1.456017 1_655
O7 S5 1.456017 1_555
O8 S0 1.459644 1_555
O9 S0 1.459644 1_555
O10 S3 1.498535 1_555
O11 S2 1.498535 1_655
O12 S5 1.498535 1_565
O13 S4 1.498535 1_555
O14 S5 1.449178 1_555
O15 S4 1.449178 1_655
O16 S3 1.449178 1_565
O17 S2 1.449178 1_555
O18 S5 1.477858 1_565
O19 S4 1.477858 1_556
O20 S3 1.477858 1_555
O21 S2 1.477858 1_654
O22 S1 1.459644 1_555
O23 S1 1.459644 1_555
