# generated using pymatgen
data_MgCd2(WO4)2
_symmetry_space_group_name_H-M   'P 1'
_cell_length_a   5.42392612
_cell_length_b   5.53430514
_cell_length_c   6.25924179
_cell_angle_alpha   95.82053883
_cell_angle_beta   79.07678438
_cell_angle_gamma   100.62869711
_symmetry_Int_Tables_number   1
_chemical_formula_structural   MgCd2(WO4)2
_chemical_formula_sum   'Mg1 Cd2 W2 O8'
_cell_volume   180.88797229
_cell_formula_units_Z   1
loop_
 _symmetry_equiv_pos_site_id
 _symmetry_equiv_pos_as_xyz
  1  'x, y, z'
loop_
 _atom_site_type_symbol
 _atom_site_label
 _atom_site_symmetry_multiplicity
 _atom_site_fract_x
 _atom_site_fract_y
 _atom_site_fract_z
 _atom_site_occupancy
  Mg  Mg0  1  0.32722178  0.07771372  0.33527412  1
  Cd  Cd0  1  0.54612894  0.21862077  0.75265034  1
  Cd  Cd1  1  0.56875262  0.68683863  0.42315845  1
  W  W0  1  0.97739708  0.28081551  0.12377259  1
  W  W1  1  0.00953458  0.74262418  0.84930359  1
  O  O0  1  0.69226441  0.11846637  0.35114831  1
  O  O1  1  0.21275831  0.39340838  0.31422988  1
  O  O2  1  0.26842057  0.90467199  0.60699462  1
  O  O3  1  0.77441438  0.59361899  0.67173743  1
  O  O4  1  0.81738028  0.05515118  0.89984565  1
  O  O5  1  0.20421420  0.47030681  0.86379797  1
  O  O6  1  0.18530666  0.97474079  0.06697764  1
  O  O7  1  0.79120618  0.55802267  0.11610939  1
loop_
_geom_bond_atom_site_label_1
_geom_bond_atom_site_label_2
_geom_bond_distance
_geom_bond_site_symmetry_2
Mg0 O6 1.967585 1_545
Mg0 O0 1.971366 1_555
Mg0 O2 1.980796 1_545
Mg0 O1 1.983213 1_555
Cd0 O4 2.237333 1_555
Cd0 O3 2.263698 1_555
Cd0 O2 2.313576 1_545
Cd0 O5 2.476050 1_555
Cd0 O0 2.525028 1_555
Cd0 O6 2.761817 1_546
Cd1 O7 2.195064 1_555
Cd1 O3 2.228057 1_555
Cd1 O2 2.272373 1_555
Cd1 O0 2.423168 1_565
Cd1 O1 2.438855 1_555
O0 W0 2.034004 1_555
O1 W0 1.889905 1_455
O2 W1 2.020029 1_555
O3 W1 1.872155 1_655
O4 W0 1.995916 1_556
O4 W1 2.146381 1_645
O5 W1 2.011369 1_555
O5 W0 2.091099 1_456
O6 W1 2.025087 1_554
O6 W0 2.167480 1_465
O7 W0 1.995141 1_555
O7 W1 2.094100 1_654
