# generated using pymatgen
data_Na3HfSi2GePO12
_symmetry_space_group_name_H-M   'P 1'
_cell_length_a   8.89215734
_cell_length_b   8.88562691
_cell_length_c   22.22365261
_cell_angle_alpha   90.07864791
_cell_angle_beta   89.86350346
_cell_angle_gamma   120.01117638
_symmetry_Int_Tables_number   1
_chemical_formula_structural   Na3HfSi2GePO12
_chemical_formula_sum   'Na18 Hf6 Si12 Ge6 P6 O72'
_cell_volume   1520.51644138
_cell_formula_units_Z   6
loop_
 _symmetry_equiv_pos_site_id
 _symmetry_equiv_pos_as_xyz
  1  'x, y, z'
loop_
 _atom_site_type_symbol
 _atom_site_label
 _atom_site_symmetry_multiplicity
 _atom_site_fract_x
 _atom_site_fract_y
 _atom_site_fract_z
 _atom_site_occupancy
  Na  Na0  1  0.99928530  0.99732905  0.50043300  1
  Na  Na1  1  0.00652624  0.00175116  0.00186388  1
  Na  Na2  1  0.66562190  0.32768484  0.83148828  1
  Na  Na3  1  0.67286488  0.33503534  0.33653381  1
  Na  Na4  1  0.33146845  0.65965899  0.16711840  1
  Na  Na5  1  0.33710624  0.66710494  0.66396821  1
  Na  Na6  1  0.63688237  0.00188080  0.25134389  1
  Na  Na7  1  0.99981033  0.62944074  0.25169787  1
  Na  Na8  1  0.99715262  0.36211297  0.74871075  1
  Na  Na9  1  0.36886184  0.00219551  0.74976301  1
  Na  Na10  1  0.29991207  0.33528711  0.58317722  1
  Na  Na11  1  0.66833606  0.96495241  0.58445195  1
  Na  Na12  1  0.66619633  0.69339850  0.08546900  1
  Na  Na13  1  0.03217987  0.33260145  0.08618098  1
  Na  Na14  1  0.97500764  0.66860851  0.91751507  1
  Na  Na15  1  0.33123227  0.29945411  0.91809782  1
  Na  Na16  1  0.33223932  0.03094740  0.41751151  1
  Na  Na17  1  0.70001089  0.66571123  0.41871919  1
  Hf  Hf0  1  0.99886795  0.00692975  0.84982910  1
  Hf  Hf1  1  0.66590978  0.33932827  0.18922106  1
  Hf  Hf2  1  0.66340866  0.32813313  0.98290898  1
  Hf  Hf3  1  0.32676220  0.66773313  0.02012389  1
  Hf  Hf4  1  0.33100689  0.66046168  0.31453555  1
  Hf  Hf5  1  0.34108220  0.66904827  0.81051133  1
  Si  Si0  1  0.72036737  0.72197420  0.25020524  1
  Si  Si1  1  0.00394408  0.27813385  0.25039500  1
  Si  Si2  1  0.29479042  0.28821438  0.74370767  1
  Si  Si3  1  0.71267386  0.00651260  0.74229241  1
  Si  Si4  1  0.37481494  0.04275812  0.58257702  1
  Si  Si5  1  0.67034468  0.62060312  0.58286332  1
  Si  Si6  1  0.96358066  0.63913587  0.08596290  1
  Si  Si7  1  0.36282835  0.32262267  0.08508721  1
  Si  Si8  1  0.03633562  0.37143673  0.91564208  1
  Si  Si9  1  0.33564927  0.96392394  0.91439124  1
  Si  Si10  1  0.63078334  0.96731517  0.41890690  1
  Si  Si11  1  0.03847862  0.66224555  0.41929903  1
  Ge  Ge0  1  0.98860624  0.99497455  0.35455204  1
  Ge  Ge1  1  0.99875744  0.99027155  0.64620337  1
  Ge  Ge2  1  0.00750732  0.00237924  0.14868791  1
  Ge  Ge3  1  0.65588722  0.32837681  0.68306952  1
  Ge  Ge4  1  0.67373810  0.33597083  0.48365609  1
  Ge  Ge5  1  0.33922137  0.68054348  0.51893994  1
  P  P0  1  0.28007142  0.00235589  0.25234379  1
  P  P1  1  0.98939000  0.70327315  0.74623730  1
  P  P2  1  0.95654668  0.33919965  0.58333520  1
  P  P3  1  0.67059250  0.03826404  0.08669591  1
  P  P4  1  0.62779624  0.66834580  0.91786014  1
  P  P5  1  0.32884563  0.37143979  0.42050504  1
  O  O0  1  0.20053836  0.02996407  0.31001786  1
  O  O1  1  0.84077954  0.80051104  0.31084344  1
  O  O2  1  0.96654952  0.15313694  0.30899029  1
  O  O3  1  0.21683447  0.17076385  0.80526613  1
  O  O4  1  0.96235918  0.78082804  0.80511854  1
  O  O5  1  0.83192329  0.04552575  0.80239366  1
  O  O6  1  0.80570682  0.97163435  0.68470618  1
  O  O7  1  0.15987940  0.19224820  0.68724522  1
  O  O8  1  0.03366722  0.83231058  0.69292069  1
  O  O9  1  0.80711624  0.84215889  0.19000222  1
  O  O10  1  0.03063777  0.19465657  0.18823874  1
  O  O11  1  0.16418683  0.96434997  0.19545839  1
  O  O12  1  0.87547186  0.36874240  0.64101499  1
  O  O13  1  0.50170860  0.12437011  0.64187214  1
  O  O14  1  0.62690219  0.48910804  0.64019313  1
  O  O15  1  0.87585882  0.50828190  0.14323399  1
  O  O16  1  0.63912360  0.11927253  0.14282761  1
  O  O17  1  0.49590237  0.36426059  0.14055962  1
  O  O18  1  0.44636905  0.29488585  0.02353006  1
  O  O19  1  0.84152888  0.55371412  0.02614031  1
  O  O20  1  0.70306938  0.15734549  0.03134606  1
  O  O21  1  0.46422433  0.17217485  0.52406756  1
  O  O22  1  0.70013201  0.53386301  0.52205352  1
  O  O23  1  0.83202302  0.29699167  0.52850779  1
  O  O24  1  0.54834360  0.69642942  0.97512585  1
  O  O25  1  0.15952634  0.45575830  0.97506922  1
  O  O26  1  0.29966875  0.83809610  0.97220390  1
  O  O27  1  0.54227813  0.83251561  0.47677728  1
  O  O28  1  0.29934806  0.45675081  0.47672937  1
  O  O29  1  0.17714332  0.70694087  0.47495185  1
  O  O30  1  0.11864245  0.63063727  0.35739277  1
  O  O31  1  0.50740858  0.88374826  0.35922236  1
  O  O32  1  0.36776695  0.49245761  0.36456782  1
  O  O33  1  0.12707505  0.49310392  0.85651814  1
  O  O34  1  0.36335026  0.87621222  0.85408677  1
  O  O35  1  0.50857731  0.63470507  0.86286889  1
  O  O36  1  0.02562844  0.84383925  0.41152053  1
  O  O37  1  0.81850670  0.97331094  0.41164078  1
  O  O38  1  0.17112700  0.18770129  0.41174207  1
  O  O39  1  0.02572095  0.18376110  0.91225133  1
  O  O40  1  0.15659871  0.97328272  0.91125932  1
  O  O41  1  0.81062768  0.82503875  0.91061349  1
  O  O42  1  0.97338835  0.17163011  0.58740984  1
  O  O43  1  0.18367584  0.03075713  0.59105005  1
  O  O44  1  0.83906902  0.81995968  0.59031410  1
  O  O45  1  0.97060214  0.82507141  0.09366373  1
  O  O46  1  0.83690087  0.02450022  0.08965375  1
  O  O47  1  0.16831528  0.15397597  0.09173695  1
  O  O48  1  0.69861833  0.18611816  0.73753680  1
  O  O49  1  0.48570315  0.30219270  0.73924331  1
  O  O50  1  0.83228357  0.52041122  0.73909144  1
  O  O51  1  0.70386573  0.53067984  0.24756821  1
  O  O52  1  0.82725178  0.29504881  0.24717622  1
  O  O53  1  0.46439642  0.15656976  0.24652995  1
  O  O54  1  0.64264761  0.50348591  0.92162652  1
  O  O55  1  0.85250223  0.36519056  0.92149029  1
  O  O56  1  0.50064364  0.15846706  0.91920827  1
  O  O57  1  0.63876895  0.15531844  0.42853315  1
  O  O58  1  0.49703171  0.35654877  0.42447991  1
  O  O59  1  0.84080256  0.49432994  0.42703788  1
  O  O60  1  0.35142736  0.50073156  0.08055220  1
  O  O61  1  0.14941879  0.64698953  0.08131526  1
  O  O62  1  0.51378393  0.85564870  0.07949658  1
  O  O63  1  0.36404173  0.85188838  0.57558719  1
  O  O64  1  0.49083652  0.63827781  0.57543594  1
  O  O65  1  0.14219499  0.49809776  0.57583375  1
  O  O66  1  0.29863953  0.83598074  0.25543408  1
  O  O67  1  0.53028384  0.70831622  0.25428175  1
  O  O68  1  0.16790344  0.47799061  0.25331072  1
  O  O69  1  0.30192214  0.47417404  0.74996775  1
  O  O70  1  0.15660576  0.68889519  0.75131091  1
  O  O71  1  0.51736009  0.84030517  0.74844360  1
loop_
_geom_bond_atom_site_label_1
_geom_bond_atom_site_label_2
_geom_bond_distance
_geom_bond_site_symmetry_2
Na0 O36 2.475756 1_655
Na0 O37 2.488830 1_555
Na0 O44 2.500504 1_555
Na0 O43 2.521721 1_665
Na0 O38 2.547638 1_665
Na0 O42 2.556253 1_565
Na1 O47 2.438893 1_555
Na1 O40 2.494537 1_544
Na1 O45 2.496559 1_445
Na1 O39 2.518320 1_554
Na1 O46 2.532247 1_455
Na1 O41 2.623803 1_444
Na2 O56 2.449737 1_555
Na2 O55 2.516595 1_555
Na2 O48 2.527255 1_555
Na2 O49 2.542695 1_555
Na2 O50 2.608017 1_555
Na2 O54 2.608334 1_555
Na3 O59 2.484151 1_555
Na3 O57 2.518715 1_555
Na3 O52 2.535258 1_555
Na3 O51 2.556296 1_555
Na3 O58 2.566047 1_555
Na3 O53 2.649573 1_555
Na4 O60 2.443036 1_555
Na4 O68 2.457020 1_555
Na4 O61 2.470053 1_555
Na4 O67 2.512789 1_555
Na4 O62 2.573508 1_555
Na4 O66 2.615030 1_555
Na5 O71 2.449667 1_555
Na5 O64 2.478195 1_555
Na5 O69 2.481763 1_555
Na5 O63 2.494866 1_555
Na5 O65 2.549501 1_555
Na5 O70 2.583873 1_555
Na6 O67 2.287754 1_545
Na6 O52 2.291023 1_555
Na6 O53 2.522550 1_555
Na6 O66 2.606040 1_545
Na6 O16 2.624935 1_555
Na6 O31 2.638174 1_545
Na6 O2 2.848326 1_555
Na6 O9 2.880623 1_545
Na7 O51 2.322619 1_555
Na7 O66 2.357588 1_655
Na7 O68 2.461498 1_655
Na7 O52 2.575313 1_555
Na7 O30 2.575781 1_655
Na7 O15 2.646265 1_555
Na7 O1 2.859027 1_555
Na7 O11 2.864391 1_655
Na8 O48 2.324545 1_555
Na8 O69 2.374355 1_655
Na8 O50 2.497711 1_555
Na8 O70 2.515250 1_655
Na8 O12 2.641783 1_555
Na8 O33 2.662715 1_655
Na8 O5 2.713257 1_555
Na8 O7 2.899577 1_655
Na9 O49 2.338792 1_555
Na9 O71 2.390315 1_545
Na9 O70 2.461160 1_545
Na9 O48 2.558604 1_555
Na9 O34 2.565635 1_545
Na9 O13 2.652148 1_555
Na9 O3 2.757718 1_555
Na9 O8 2.875819 1_545
Na10 O64 2.363845 1_555
Na10 O43 2.371432 1_555
Na10 O65 2.473390 1_555
Na10 O42 2.515798 1_455
Na10 O28 2.602633 1_555
Na10 O7 2.631733 1_555
Na10 O14 2.822302 1_555
Na10 O21 2.839899 1_555
Na11 O63 2.377463 1_555
Na11 O42 2.398388 1_565
Na11 O44 2.437155 1_555
Na11 O64 2.524664 1_555
Na11 O6 2.529772 1_555
Na11 O27 2.655730 1_555
Na11 O13 2.813518 1_565
Na11 O23 2.841598 1_565
Na12 O45 2.358532 1_555
Na12 O62 2.426686 1_555
Na12 O60 2.446345 1_555
Na12 O46 2.549704 1_565
Na12 O9 2.657594 1_555
Na12 O24 2.674516 1_554
Na12 O19 2.762463 1_555
Na12 O17 2.813556 1_555
Na13 O46 2.400119 1_455
Na13 O47 2.433745 1_555
Na13 O61 2.447321 1_555
Na13 O60 2.462250 1_555
Na13 O10 2.576339 1_555
Na13 O25 2.707732 1_554
Na13 O20 2.815574 1_455
Na13 O15 2.851916 1_455
Na14 O55 2.350634 1_555
Na14 O40 2.362792 1_655
Na14 O41 2.475112 1_555
Na14 O54 2.560636 1_555
Na14 O19 2.656996 1_556
Na14 O4 2.714151 1_555
Na14 O26 2.782464 1_655
Na14 O33 2.862322 1_655
Na15 O39 2.379396 1_555
Na15 O56 2.393209 1_555
Na15 O54 2.437163 1_555
Na15 O40 2.516364 1_545
Na15 O18 2.567718 1_556
Na15 O3 2.733269 1_555
Na15 O25 2.823198 1_555
Na15 O35 2.858115 1_555
Na16 O36 2.383696 1_545
Na16 O57 2.387460 1_555
Na16 O38 2.450802 1_555
Na16 O58 2.510097 1_555
Na16 O0 2.661100 1_555
Na16 O21 2.663025 1_555
Na16 O31 2.799779 1_545
Na16 O29 2.801790 1_545
Na17 O37 2.392684 1_555
Na17 O59 2.414449 1_555
Na17 O58 2.420865 1_555
Na17 O36 2.515644 1_655
Na17 O22 2.579720 1_555
Na17 O1 2.691243 1_555
Na17 O27 2.809717 1_555
Na17 O32 2.829960 1_555
Hf0 O5 1.987559 1_555
Hf0 O3 2.007224 1_655
Hf0 O39 2.017575 1_655
Hf0 O40 2.085684 1_645
Hf0 O4 2.114855 1_545
Hf0 O41 2.127851 1_545
Hf1 O17 1.961475 1_555
Hf1 O15 1.993754 1_555
Hf1 O51 2.026878 1_555
Hf1 O52 2.108755 1_555
Hf1 O16 2.114907 1_555
Hf1 O53 2.134014 1_555
Hf2 O18 2.012219 1_556
Hf2 O20 2.031689 1_556
Hf2 O56 2.047652 1_555
Hf2 O55 2.057966 1_555
Hf2 O19 2.067746 1_556
Hf2 O54 2.147419 1_555
Hf3 O26 1.963207 1_554
Hf3 O25 1.990394 1_554
Hf3 O61 2.017379 1_555
Hf3 O60 2.094285 1_555
Hf3 O24 2.106187 1_554
Hf3 O62 2.126352 1_555
Hf4 O30 2.008698 1_555
Hf4 O32 2.016459 1_555
Hf4 O68 2.057834 1_555
Hf4 O31 2.066874 1_555
Hf4 O67 2.085761 1_555
Hf4 O66 2.167207 1_555
Hf5 O34 1.999224 1_555
Hf5 O35 2.032047 1_555
Hf5 O33 2.032218 1_555
Hf5 O71 2.069953 1_555
Hf5 O69 2.079100 1_555
Hf5 O70 2.180190 1_555
Ge0 O2 1.821916 1_565
Ge0 O1 1.840257 1_555
Ge0 O37 1.906512 1_555
Ge0 O36 1.990886 1_655
Ge0 O0 2.008360 1_665
Ge0 O38 2.098972 1_665
Ge1 O6 1.848095 1_555
Ge1 O7 1.880186 1_665
Ge1 O8 1.893598 1_655
Ge1 O44 1.924277 1_555
Ge1 O43 1.932732 1_665
Ge1 O42 2.173897 1_565
Ge2 O10 1.838229 1_555
Ge2 O9 1.871662 1_445
Ge2 O47 1.878917 1_555
Ge2 O45 1.888021 1_445
Ge2 O11 1.901166 1_545
Ge2 O46 2.090410 1_455
Ge3 O14 1.840455 1_555
Ge3 O13 1.875948 1_555
Ge3 O49 1.882094 1_555
Ge3 O48 1.922056 1_555
Ge3 O12 2.026415 1_555
Ge3 O50 2.061090 1_555
Ge4 O22 1.859897 1_555
Ge4 O23 1.894687 1_555
Ge4 O57 1.916038 1_555
Ge4 O59 1.917028 1_555
Ge4 O21 1.918049 1_555
Ge4 O58 2.128344 1_555
Ge5 O29 1.852918 1_555
Ge5 O27 1.875650 1_555
Ge5 O63 1.900398 1_555
Ge5 O64 2.012684 1_555
Ge5 O28 2.061831 1_555
Ge5 O65 2.109535 1_555
O0 P0 1.539980 1_555
O1 Si0 1.645087 1_555
O2 Si1 1.634736 1_655
O3 Si2 1.648321 1_555
O4 P1 1.551356 1_555
O5 Si3 1.632900 1_555
O6 Si3 1.633577 1_565
O7 Si2 1.649771 1_555
O8 P1 1.556774 1_455
O9 Si0 1.643317 1_555
O10 Si1 1.639018 1_555
O11 P0 1.559176 1_565
O12 P2 1.554281 1_555
O13 Si4 1.649689 1_555
O14 Si5 1.639491 1_555
O15 Si6 1.634744 1_555
O16 P3 1.532947 1_555
O17 Si7 1.620081 1_555
O18 Si7 1.631395 1_555
O19 Si6 1.643644 1_555
O20 P3 1.553157 1_555
O21 Si4 1.652226 1_555
O22 Si5 1.640176 1_555
O23 P2 1.562417 1_555
O24 P4 1.533712 1_555
O25 Si8 1.639729 1_555
O26 Si9 1.627053 1_555
O27 Si10 1.662682 1_555
O28 P5 1.549013 1_555
O29 Si11 1.650406 1_555
O30 Si11 1.635337 1_555
O31 Si10 1.644269 1_555
O32 P5 1.565502 1_555
O33 Si8 1.634782 1_555
O34 Si9 1.628434 1_555
O35 P4 1.547550 1_555
O36 Si11 1.682813 1_555
O37 Si10 1.650800 1_555
O38 P5 1.542809 1_555
O39 Si8 1.624119 1_555
O40 Si9 1.636972 1_555
O41 P4 1.530561 1_555
O42 P2 1.571981 1_555
O43 Si4 1.659165 1_555
O44 Si5 1.660744 1_555
O45 Si6 1.630609 1_555
O46 P3 1.545204 1_555
O47 Si7 1.632693 1_555
O48 Si3 1.665464 1_555
O49 Si2 1.641801 1_555
O50 P1 1.531874 1_555
O51 Si0 1.632315 1_555
O52 Si1 1.653207 1_655
O53 P0 1.527615 1_555
O54 P4 1.537608 1_555
O55 Si8 1.612571 1_655
O56 Si9 1.617219 1_545
O57 Si10 1.649817 1_545
O58 P5 1.568615 1_555
O59 Si11 1.649612 1_655
O60 Si7 1.638924 1_555
O61 Si6 1.621773 1_455
O62 P3 1.529663 1_565
O63 Si4 1.657267 1_565
O64 Si5 1.688760 1_555
O65 P2 1.553774 1_455
O66 P0 1.569075 1_565
O67 Si0 1.635235 1_555
O68 Si1 1.641227 1_555
O69 Si2 1.627355 1_555
O70 P1 1.559102 1_455
O71 Si3 1.627803 1_565
