# generated using pymatgen
data_FePO4
_symmetry_space_group_name_H-M   'P 1'
_cell_length_a   4.86063300
_cell_length_b   5.88550100
_cell_length_c   9.91419800
_cell_angle_alpha   90.00000000
_cell_angle_beta   90.00000000
_cell_angle_gamma   90.00000000
_symmetry_Int_Tables_number   1
_chemical_formula_structural   FePO4
_chemical_formula_sum   'Fe4 P4 O16'
_cell_volume   283.61804367
_cell_formula_units_Z   4
loop_
 _symmetry_equiv_pos_site_id
 _symmetry_equiv_pos_as_xyz
  1  'x, y, z'
loop_
 _atom_site_type_symbol
 _atom_site_label
 _atom_site_symmetry_multiplicity
 _atom_site_fract_x
 _atom_site_fract_y
 _atom_site_fract_z
 _atom_site_occupancy
  Fe  Fe0  1  0.04911700  0.75000000  0.27405600  1
  Fe  Fe1  1  0.45088300  0.75000000  0.77405600  1
  Fe  Fe2  1  0.95088300  0.25000000  0.72594400  1
  Fe  Fe3  1  0.54911700  0.25000000  0.22594400  1
  P  P0  1  0.59863100  0.75000000  0.09381600  1
  P  P1  1  0.90136900  0.75000000  0.59381600  1
  P  P2  1  0.40136900  0.25000000  0.90618400  1
  P  P3  1  0.09863100  0.25000000  0.40618400  1
  O  O0  1  0.28883300  0.75000000  0.12032000  1
  O  O1  1  0.21116700  0.75000000  0.62032000  1
  O  O2  1  0.71116700  0.25000000  0.87968000  1
  O  O3  1  0.78883300  0.25000000  0.37968000  1
  O  O4  1  0.84691300  0.75000000  0.44278200  1
  O  O5  1  0.65308700  0.75000000  0.94278200  1
  O  O6  1  0.15308700  0.25000000  0.55721800  1
  O  O7  1  0.34691300  0.25000000  0.05721800  1
  O  O8  1  0.74721300  0.54620500  0.16710800  1
  O  O9  1  0.75278700  0.95379500  0.66710800  1
  O  O10  1  0.25278700  0.04620500  0.83289200  1
  O  O11  1  0.24721300  0.45379500  0.33289200  1
  O  O12  1  0.25278700  0.45379500  0.83289200  1
  O  O13  1  0.24721300  0.04620500  0.33289200  1
  O  O14  1  0.74721300  0.95379500  0.16710800  1
  O  O15  1  0.75278700  0.54620500  0.66710800  1
loop_
_geom_bond_atom_site_label_1
_geom_bond_atom_site_label_2
_geom_bond_distance
_geom_bond_site_symmetry_2
Fe0 O0 1.918519 1_555
Fe0 O4 1.940149 1_455
Fe0 O11 2.075216 1_555
Fe0 O13 2.075216 1_565
Fe0 O8 2.171701 1_455
Fe0 O14 2.171701 1_455
Fe1 O1 1.918519 1_555
Fe1 O5 1.940149 1_555
Fe1 O12 2.075216 1_555
Fe1 O10 2.075216 1_565
Fe1 O9 2.171701 1_555
Fe1 O15 2.171701 1_555
Fe2 O2 1.918519 1_555
Fe2 O6 1.940149 1_655
Fe2 O15 2.075216 1_555
Fe2 O9 2.075216 1_545
Fe2 O12 2.171701 1_655
Fe2 O10 2.171701 1_655
Fe3 O3 1.918519 1_555
Fe3 O7 1.940149 1_555
Fe3 O8 2.075216 1_555
Fe3 O14 2.075216 1_545
Fe3 O11 2.171701 1_555
Fe3 O13 2.171701 1_555
O0 P0 1.528569 1_555
O1 P1 1.528569 1_455
O2 P2 1.528569 1_555
O3 P3 1.528569 1_655
O4 P1 1.520596 1_555
O5 P0 1.520596 1_556
O6 P3 1.520596 1_555
O7 P2 1.520596 1_554
O8 P0 1.577408 1_555
O9 P1 1.577408 1_555
O10 P2 1.577408 1_555
O11 P3 1.577408 1_555
O12 P2 1.577408 1_555
O13 P3 1.577408 1_555
O14 P0 1.577408 1_555
O15 P1 1.577408 1_555
