# generated using pymatgen
data_LiMn(PO3)4
_symmetry_space_group_name_H-M   'P 1'
_cell_length_a   8.40922700
_cell_length_b   9.39196900
_cell_length_c   12.81822600
_cell_angle_alpha   90.00000000
_cell_angle_beta   90.00000000
_cell_angle_gamma   90.00000000
_symmetry_Int_Tables_number   1
_chemical_formula_structural   LiMn(PO3)4
_chemical_formula_sum   'Li4 Mn4 P16 O48'
_cell_volume   1012.37322590
_cell_formula_units_Z   4
loop_
 _symmetry_equiv_pos_site_id
 _symmetry_equiv_pos_as_xyz
  1  'x, y, z'
loop_
 _atom_site_type_symbol
 _atom_site_label
 _atom_site_symmetry_multiplicity
 _atom_site_fract_x
 _atom_site_fract_y
 _atom_site_fract_z
 _atom_site_occupancy
  Li  Li0  1  0.00220700  0.75000000  0.00000000  1
  Li  Li1  1  0.50220700  0.75000000  0.50000000  1
  Li  Li2  1  0.49779300  0.25000000  0.50000000  1
  Li  Li3  1  0.99779300  0.25000000  0.00000000  1
  Mn  Mn0  1  0.37379500  0.75000000  0.00000000  1
  Mn  Mn1  1  0.12620500  0.25000000  0.50000000  1
  Mn  Mn2  1  0.87379500  0.75000000  0.50000000  1
  Mn  Mn3  1  0.62620500  0.25000000  0.00000000  1
  P  P0  1  0.46440500  0.00663900  0.14841500  1
  P  P1  1  0.32013800  0.49791000  0.63823400  1
  P  P2  1  0.96440500  0.49336100  0.64841500  1
  P  P3  1  0.17986200  0.50209000  0.13823400  1
  P  P4  1  0.53559500  0.99336100  0.85158500  1
  P  P5  1  0.67986200  0.99791000  0.63823400  1
  P  P6  1  0.03559500  0.99336100  0.64841500  1
  P  P7  1  0.82013800  0.00209000  0.13823400  1
  P  P8  1  0.53559500  0.50663900  0.14841500  1
  P  P9  1  0.82013800  0.49791000  0.86176600  1
  P  P10  1  0.17986200  0.99791000  0.86176600  1
  P  P11  1  0.67986200  0.50209000  0.36176600  1
  P  P12  1  0.03559500  0.50663900  0.35158500  1
  P  P13  1  0.96440500  0.00663900  0.35158500  1
  P  P14  1  0.46440500  0.49336100  0.85158500  1
  P  P15  1  0.32013800  0.00209000  0.36176600  1
  O  O0  1  0.37080400  0.87299900  0.12125300  1
  O  O1  1  0.96056800  0.37464300  0.57038300  1
  O  O2  1  0.59673900  0.37128400  0.39465100  1
  O  O3  1  0.90326100  0.62871600  0.89465100  1
  O  O4  1  0.81244700  0.36978300  0.93363400  1
  O  O5  1  0.62919600  0.12700100  0.87874700  1
  O  O6  1  0.87080400  0.87299900  0.37874700  1
  O  O7  1  0.35795600  0.46307900  0.17811600  1
  O  O8  1  0.40326100  0.62871600  0.60534900  1
  O  O9  1  0.85795600  0.03692100  0.67811600  1
  O  O10  1  0.85795600  0.46307900  0.32188400  1
  O  O11  1  0.35795600  0.03692100  0.82188400  1
  O  O12  1  0.53943200  0.87464300  0.92961700  1
  O  O13  1  0.46056800  0.37464300  0.92961700  1
  O  O14  1  0.39408800  0.06658900  0.25457400  1
  O  O15  1  0.37080400  0.62700100  0.87874700  1
  O  O16  1  0.59673900  0.12871600  0.60534900  1
  O  O17  1  0.10591200  0.93341100  0.75457400  1
  O  O18  1  0.39408800  0.43341100  0.74542600  1
  O  O19  1  0.53943200  0.62535700  0.07038300  1
  O  O20  1  0.60591200  0.56658900  0.25457400  1
  O  O21  1  0.87080400  0.62700100  0.62125300  1
  O  O22  1  0.68755300  0.63021700  0.43363400  1
  O  O23  1  0.12919600  0.12700100  0.62125300  1
  O  O24  1  0.14204400  0.96307900  0.32188400  1
  O  O25  1  0.10591200  0.56658900  0.24542600  1
  O  O26  1  0.12919600  0.37299900  0.37874700  1
  O  O27  1  0.14204400  0.53692100  0.67811600  1
  O  O28  1  0.64204400  0.96307900  0.17811600  1
  O  O29  1  0.68755300  0.86978300  0.56636600  1
  O  O30  1  0.96056800  0.12535700  0.42961700  1
  O  O31  1  0.40326100  0.87128400  0.39465100  1
  O  O32  1  0.03943200  0.87464300  0.57038300  1
  O  O33  1  0.09673900  0.37128400  0.10534900  1
  O  O34  1  0.18755300  0.86978300  0.93363400  1
  O  O35  1  0.03943200  0.62535700  0.42961700  1
  O  O36  1  0.31244700  0.13021700  0.43363400  1
  O  O37  1  0.90326100  0.87128400  0.10534900  1
  O  O38  1  0.60591200  0.93341100  0.74542600  1
  O  O39  1  0.46056800  0.12535700  0.07038300  1
  O  O40  1  0.64204400  0.53692100  0.82188400  1
  O  O41  1  0.89408800  0.06658900  0.24542600  1
  O  O42  1  0.89408800  0.43341100  0.75457400  1
  O  O43  1  0.31244700  0.36978300  0.56636600  1
  O  O44  1  0.81244700  0.13021700  0.06636600  1
  O  O45  1  0.09673900  0.12871600  0.89465100  1
  O  O46  1  0.62919600  0.37299900  0.12125300  1
  O  O47  1  0.18755300  0.63021700  0.06636600  1
loop_
_geom_bond_atom_site_label_1
_geom_bond_atom_site_label_2
_geom_bond_distance
_geom_bond_site_symmetry_2
Li0 O37 1.952795 1_455
Li0 O3 1.952795 1_454
Li0 O34 2.102044 1_554
Li0 O47 2.102044 1_555
Li1 O8 1.952795 1_555
Li1 O31 1.952795 1_555
Li1 O22 2.102044 1_555
Li1 O29 2.102044 1_555
Li2 O16 1.952795 1_555
Li2 O2 1.952795 1_555
Li2 O36 2.102044 1_555
Li2 O43 2.102044 1_555
Li3 O33 1.952795 1_655
Li3 O45 1.952795 1_654
Li3 O44 2.102044 1_555
Li3 O4 2.102044 1_554
Mn0 O0 1.936702 1_555
Mn0 O15 1.936702 1_554
Mn0 O12 2.030876 1_554
Mn0 O19 2.030876 1_555
Mn0 O47 2.107637 1_555
Mn0 O34 2.107637 1_554
Mn1 O26 1.936702 1_555
Mn1 O23 1.936702 1_555
Mn1 O1 2.030876 1_455
Mn1 O30 2.030876 1_455
Mn1 O43 2.107637 1_555
Mn1 O36 2.107637 1_555
Mn2 O6 1.936702 1_555
Mn2 O21 1.936702 1_555
Mn2 O32 2.030876 1_655
Mn2 O35 2.030876 1_655
Mn2 O22 2.107637 1_555
Mn2 O29 2.107637 1_555
Mn3 O46 1.936702 1_555
Mn3 O5 1.936702 1_554
Mn3 O13 2.030876 1_554
Mn3 O39 2.030876 1_555
Mn3 O4 2.107637 1_554
Mn3 O44 2.107637 1_555
O0 P0 1.521890 1_565
O1 P2 1.498239 1_555
O2 P11 1.474979 1_555
O3 P9 1.474979 1_555
O4 P9 1.516877 1_555
O5 P4 1.521890 1_545
O6 P13 1.521890 1_565
O7 P8 1.594922 1_555
O7 P3 1.624342 1_555
O8 P1 1.474979 1_555
O9 P6 1.594922 1_645
O9 P5 1.624342 1_545
O10 P12 1.594922 1_655
O10 P11 1.624342 1_555
O11 P4 1.594922 1_545
O11 P10 1.624342 1_545
O12 P4 1.498239 1_555
O13 P14 1.498239 1_555
O14 P0 1.586937 1_555
O14 P15 1.625294 1_555
O15 P14 1.521890 1_555
O16 P5 1.474979 1_545
O17 P6 1.586937 1_555
O17 P10 1.625294 1_555
O18 P14 1.586937 1_555
O18 P1 1.625294 1_555
O19 P8 1.498239 1_555
O20 P8 1.586937 1_555
O20 P11 1.625294 1_555
O21 P2 1.521890 1_555
O22 P11 1.516877 1_555
O23 P6 1.521890 1_545
O24 P13 1.594922 1_465
O24 P15 1.624342 1_565
O25 P12 1.586937 1_555
O25 P3 1.625294 1_555
O26 P12 1.521890 1_555
O27 P2 1.594922 1_455
O27 P1 1.624342 1_555
O28 P0 1.594922 1_565
O28 P7 1.624342 1_565
O29 P5 1.516877 1_555
O30 P13 1.498239 1_555
O31 P15 1.474979 1_565
O32 P6 1.498239 1_555
O33 P3 1.474979 1_555
O34 P10 1.516877 1_555
O35 P12 1.498239 1_555
O36 P15 1.516877 1_555
O37 P7 1.474979 1_565
O38 P4 1.586937 1_555
O38 P5 1.625294 1_555
O39 P0 1.498239 1_555
O40 P14 1.594922 1_555
O40 P9 1.624342 1_555
O41 P13 1.586937 1_555
O41 P7 1.625294 1_555
O42 P2 1.586937 1_555
O42 P9 1.625294 1_555
O43 P1 1.516877 1_555
O44 P7 1.516877 1_555
O45 P10 1.474979 1_545
O46 P8 1.521890 1_555
O47 P3 1.516877 1_555
