# generated using pymatgen
data_UGePt
_symmetry_space_group_name_H-M   'P 1'
_cell_length_a   4.38179057
_cell_length_b   5.68425553
_cell_length_c   5.68349873
_cell_angle_alpha   78.92302867
_cell_angle_beta   67.32623706
_cell_angle_gamma   67.32942424
_symmetry_Int_Tables_number   1
_chemical_formula_structural   UGePt
_chemical_formula_sum   'U2 Ge2 Pt2'
_cell_volume   120.36967721
_cell_formula_units_Z   2
loop_
 _symmetry_equiv_pos_site_id
 _symmetry_equiv_pos_as_xyz
  1  'x, y, z'
loop_
 _atom_site_type_symbol
 _atom_site_label
 _atom_site_symmetry_multiplicity
 _atom_site_fract_x
 _atom_site_fract_y
 _atom_site_fract_z
 _atom_site_occupancy
  U  U0  1  0.47241141  0.02754701  0.02763217  1
  U  U1  1  0.52114991  0.47888336  0.47881582  1
  Ge  Ge0  1  0.83547499  0.44287286  0.88617617  1
  Ge  Ge1  1  0.83545976  0.88585285  0.44322762  1
  Pt  Pt0  1  0.16513016  0.61741691  0.05232477  1
  Pt  Pt1  1  0.16537377  0.05242700  0.61682445  1
loop_
_geom_bond_atom_site_label_1
_geom_bond_atom_site_label_2
_geom_bond_distance
_geom_bond_site_symmetry_2
Ge0 Pt0 2.545375 1_556
Ge0 Pt0 2.545386 1_656
Ge0 Pt1 2.546600 1_655
Ge0 U1 3.059116 1_655
Ge0 U1 3.059116 1_555
Ge0 U1 3.123312 1_556
Ge0 U0 3.151265 1_556
Ge0 U0 3.151274 1_656
Ge0 U0 3.191773 1_566
Ge1 Pt1 2.544311 1_665
Ge1 Pt1 2.544315 1_565
Ge1 Pt0 2.545603 1_655
Ge1 U1 3.057864 1_655
Ge1 U1 3.057867 1_555
Ge1 U1 3.125594 1_565
Ge1 U0 3.152269 1_565
Ge1 U0 3.152275 1_665
Ge1 U0 3.190316 1_566
Pt0 U0 3.068515 1_565
Pt0 U0 3.068515 1_465
Pt0 U0 3.103227 1_555
Pt0 U1 3.130069 1_554
Pt0 U1 3.188135 1_555
Pt0 U1 3.188144 1_455
Pt1 U0 3.070766 1_456
Pt1 U0 3.070776 1_556
Pt1 U0 3.099287 1_555
Pt1 U1 3.129899 1_545
Pt1 U1 3.187706 1_455
Pt1 U1 3.187706 1_555
