# generated using pymatgen
data_MgMnCoO4
_symmetry_space_group_name_H-M   'P 1'
_cell_length_a   5.22600290
_cell_length_b   2.95808877
_cell_length_c   5.20261079
_cell_angle_alpha   90.00002690
_cell_angle_beta   71.01971067
_cell_angle_gamma   90.00000837
_symmetry_Int_Tables_number   1
_chemical_formula_structural   MgMnCoO4
_chemical_formula_sum   'Mg1 Mn1 Co1 O4'
_cell_volume   76.05428134
_cell_formula_units_Z   1
loop_
 _symmetry_equiv_pos_site_id
 _symmetry_equiv_pos_as_xyz
  1  'x, y, z'
loop_
 _atom_site_type_symbol
 _atom_site_label
 _atom_site_symmetry_multiplicity
 _atom_site_fract_x
 _atom_site_fract_y
 _atom_site_fract_z
 _atom_site_occupancy
  Mg  Mg0  1  0.00000000  0.00000000  0.00000000  1
  Mn  Mn0  1  0.50000000  0.50000000  0.00000000  1
  Co  Co0  1  0.50000000  0.00000000  0.50000000  1
  O  O0  1  0.71030300  0.00000000  0.78869900  1
  O  O1  1  0.73303000  0.50000000  0.22104400  1
  O  O2  1  0.26697000  0.50000000  0.77895600  1
  O  O3  1  0.28969700  0.00000000  0.21130100  1
loop_
_geom_bond_atom_site_label_1
_geom_bond_atom_site_label_2
_geom_bond_distance
_geom_bond_site_symmetry_2
Mg0 O1 2.100701 1_455
Mg0 O2 2.100701 1_544
Mg0 O1 2.100701 1_445
Mg0 O2 2.100701 1_554
Mg0 O3 2.140836 1_555
Mg0 O0 2.140836 1_454
Mn0 O2 1.927846 1_554
Mn0 O1 1.927846 1_555
Mn0 O3 1.953983 1_565
Mn0 O0 1.953983 1_554
Mn0 O3 1.953984 1_555
Mn0 O0 1.953984 1_564
Co0 O0 2.130178 1_555
Co0 O3 2.130178 1_555
Co0 O2 2.151101 1_555
Co0 O1 2.151101 1_545
Co0 O2 2.151102 1_545
Co0 O1 2.151102 1_555
