# generated using pymatgen
data_KSn2Br5
_symmetry_space_group_name_H-M   'P 1'
_cell_length_a   8.41021697
_cell_length_b   8.41021609
_cell_length_c   9.47394347
_cell_angle_alpha   116.35044786
_cell_angle_beta   116.35044220
_cell_angle_gamma   89.99999426
_symmetry_Int_Tables_number   1
_chemical_formula_structural   KSn2Br5
_chemical_formula_sum   'K2 Sn4 Br10'
_cell_volume   521.64240114
_cell_formula_units_Z   2
loop_
 _symmetry_equiv_pos_site_id
 _symmetry_equiv_pos_as_xyz
  1  'x, y, z'
loop_
 _atom_site_type_symbol
 _atom_site_label
 _atom_site_symmetry_multiplicity
 _atom_site_fract_x
 _atom_site_fract_y
 _atom_site_fract_z
 _atom_site_occupancy
  K  K0  1  0.25000000  0.25000000  0.50000000  1
  K  K1  1  0.75000000  0.75000000  0.50000000  1
  Sn  Sn0  1  0.17895085  0.67895085  0.00000000  1
  Sn  Sn1  1  0.82104915  0.32104915  -0.00000000  1
  Sn  Sn2  1  0.67895085  0.82104915  0.00000000  1
  Sn  Sn3  1  0.32104915  0.17895085  -0.00000000  1
  Br  Br0  1  0.80138993  0.30138993  0.27337757  1
  Br  Br1  1  0.19861007  0.69861007  0.72662243  1
  Br  Br2  1  0.47198864  0.97198864  0.27337757  1
  Br  Br3  1  0.52801136  0.02801136  0.72662243  1
  Br  Br4  1  -0.00000000  -0.00000000  -0.00000000  1
  Br  Br5  1  0.50000000  0.50000000  -0.00000000  1
  Br  Br6  1  0.69861007  0.52801136  0.72662243  1
  Br  Br7  1  0.30138993  0.47198864  0.27337757  1
  Br  Br8  1  0.02801136  0.19861007  0.72662243  1
  Br  Br9  1  0.97198864  0.80138993  0.27337757  1
loop_
_geom_bond_atom_site_label_1
_geom_bond_atom_site_label_2
_geom_bond_distance
_geom_bond_site_symmetry_2
Br0 Sn1 2.742784 1_555
Br0 K1 3.558662 1_555
Br0 K0 3.558662 1_655
Br1 Sn0 2.742784 1_556
Br1 K0 3.558662 1_555
Br1 K1 3.558662 1_455
Br2 Sn0 2.742793 1_555
Br2 K0 3.558665 1_565
Br2 K1 3.558665 1_555
Br3 Sn1 2.742793 1_556
Br3 K1 3.558665 1_545
Br3 K0 3.558665 1_555
Br4 Sn0 3.091209 1_545
Br4 Sn1 3.091209 1_455
Br4 Sn2 3.091209 1_445
Br4 Sn3 3.091209 1_555
Br4 K1 3.687470 1_444
Br4 K0 3.687470 1_555
Br5 Sn0 3.091209 1_555
Br5 Sn1 3.091209 1_555
Br5 Sn3 3.091209 1_555
Br5 Sn2 3.091209 1_555
Br5 K1 3.687470 1_555
Br5 K0 3.687470 1_554
Br6 Sn2 2.742788 1_556
Br6 K0 3.558659 1_555
Br6 K1 3.558668 1_555
Br7 Sn3 2.742788 1_555
Br7 K1 3.558659 1_555
Br7 K0 3.558668 1_555
Br8 Sn3 2.742789 1_556
Br8 K1 3.558659 1_445
Br8 K0 3.558668 1_555
Br9 Sn2 2.742789 1_555
Br9 K0 3.558659 1_665
Br9 K1 3.558668 1_555
