# generated using pymatgen
data_Na6Mg7Ge(SO4)12
_symmetry_space_group_name_H-M   'P 1'
_cell_length_a   17.33153836
_cell_length_b   8.65765379
_cell_length_c   22.39385151
_cell_angle_alpha   89.98850816
_cell_angle_beta   90.02050708
_cell_angle_gamma   119.95857554
_symmetry_Int_Tables_number   1
_chemical_formula_structural   Na6Mg7Ge(SO4)12
_chemical_formula_sum   'Na18 Mg21 Ge3 S36 O144'
_cell_volume   2911.23898067
_cell_formula_units_Z   3
loop_
 _symmetry_equiv_pos_site_id
 _symmetry_equiv_pos_as_xyz
  1  'x, y, z'
loop_
 _atom_site_type_symbol
 _atom_site_label
 _atom_site_symmetry_multiplicity
 _atom_site_fract_x
 _atom_site_fract_y
 _atom_site_fract_z
 _atom_site_occupancy
  Na  Na0  1  0.32115613  0.64163062  0.74969266  1
  Na  Na1  1  0.65148504  0.33350360  0.58453244  1
  Na  Na2  1  0.98766240  0.66747534  0.91790419  1
  Na  Na3  1  0.66557343  0.30364977  0.91545513  1
  Na  Na4  1  0.16673878  0.02764263  0.41755513  1
  Na  Na5  1  0.66654930  0.02717293  0.41754790  1
  Na  Na6  1  0.99468199  0.00245211  0.49864391  1
  Na  Na7  1  0.48457606  0.98099421  0.50117850  1
  Na  Na8  1  0.00316032  0.01721040  0.00014541  1
  Na  Na9  1  0.49087399  0.98465274  0.99797509  1
  Na  Na10  1  0.33794430  0.32517376  0.83666647  1
  Na  Na11  1  0.83073059  0.31616315  0.82970315  1
  Na  Na12  1  0.34027787  0.34599833  0.33313357  1
  Na  Na13  1  0.84097500  0.34639597  0.33269753  1
  Na  Na14  1  0.16758199  0.66678990  0.16599839  1
  Na  Na15  1  0.66602736  0.66607179  0.16613938  1
  Na  Na16  1  0.16526348  0.67194741  0.66371544  1
  Na  Na17  1  0.66278166  0.67520951  0.66936682  1
  Mg  Mg0  1  0.99673359  0.99939126  0.35196177  1
  Mg  Mg1  1  0.49613463  0.99939512  0.35203699  1
  Mg  Mg2  1  0.00128433  0.00769564  0.85203150  1
  Mg  Mg3  1  0.49651076  0.99526066  0.85036862  1
  Mg  Mg4  1  0.49712276  0.99365068  0.64980100  1
  Mg  Mg5  1  0.33660254  0.33128019  0.68245109  1
  Mg  Mg6  1  0.83207824  0.33058780  0.68531995  1
  Mg  Mg7  1  0.33328620  0.33305295  0.18403631  1
  Mg  Mg8  1  0.83312270  0.33310169  0.18418350  1
  Mg  Mg9  1  0.33356695  0.33656091  0.98358725  1
  Mg  Mg10  1  0.83318679  0.32197888  0.98624919  1
  Mg  Mg11  1  0.33610935  0.34110037  0.48378856  1
  Mg  Mg12  1  0.84046044  0.34009331  0.48394189  1
  Mg  Mg13  1  0.16967425  0.66779349  0.01818822  1
  Mg  Mg14  1  0.66488515  0.66821543  0.01857641  1
  Mg  Mg15  1  0.16756426  0.66214086  0.51843942  1
  Mg  Mg16  1  0.66596007  0.67133622  0.51660370  1
  Mg  Mg17  1  0.16685595  0.66389008  0.31439983  1
  Mg  Mg18  1  0.66657572  0.66402053  0.31379159  1
  Mg  Mg19  1  0.16641785  0.67186839  0.81669577  1
  Mg  Mg20  1  0.66515319  0.66550683  0.81474702  1
  Ge  Ge0  1  0.00075060  0.00291663  0.65045578  1
  Ge  Ge1  1  0.00045058  0.00124698  0.15050742  1
  Ge  Ge2  1  0.49883408  0.99919885  0.15004376  1
  S  S0  1  0.14472609  -0.00008446  0.24962111  1
  S  S1  1  0.64429977  0.00020245  0.24957227  1
  S  S2  1  0.35537404  0.71074046  0.24870304  1
  S  S3  1  0.85602317  0.71218128  0.24851714  1
  S  S4  1  0.00018069  0.28922162  0.24868387  1
  S  S5  1  0.50004104  0.28822673  0.24850577  1
  S  S6  1  0.14452582  0.28912849  0.74881060  1
  S  S7  1  0.64870331  0.29681709  0.75003362  1
  S  S8  1  0.99992807  0.71163010  0.74937832  1
  S  S9  1  0.50112746  0.70498750  0.74959466  1
  S  S10  1  0.35143599  0.00161942  0.75027643  1
  S  S11  1  0.85642819  -0.00017633  0.74869785  1
  S  S12  1  0.48126363  0.33324257  0.58282652  1
  S  S13  1  0.98094721  0.32738557  0.58691542  1
  S  S14  1  0.18103835  0.03572148  0.58560076  1
  S  S15  1  0.68679258  0.03812987  0.58263263  1
  S  S16  1  0.33241523  0.62862372  0.58497074  1
  S  S17  1  0.83776781  0.63566060  0.58576856  1
  S  S18  1  0.48084157  0.63505114  0.08652342  1
  S  S19  1  0.98187219  0.63606355  0.08531185  1
  S  S20  1  0.33627347  0.03886675  0.08611496  1
  S  S21  1  0.83621876  0.03563151  0.08688032  1
  S  S22  1  0.18266113  0.32671259  0.08642303  1
  S  S23  1  0.68185118  0.32715899  0.08546515  1
  S  S24  1  0.31397977  0.66433908  0.91564703  1
  S  S25  1  0.81357100  0.66921774  0.91763229  1
  S  S26  1  0.02007226  0.37291949  0.91743866  1
  S  S27  1  0.51874497  0.37329999  0.91696643  1
  S  S28  1  0.16784977  0.96396022  0.91724028  1
  S  S29  1  0.66718456  0.95993993  0.91650084  1
  S  S30  1  0.31331935  0.96021490  0.41714629  1
  S  S31  1  0.81375077  0.95944036  0.41663526  1
  S  S32  1  0.16672855  0.37274055  0.41626984  1
  S  S33  1  0.66749018  0.37302018  0.41738369  1
  S  S34  1  0.01995106  0.66445823  0.41620791  1
  S  S35  1  0.51865909  0.66465099  0.41502747  1
  O  O0  1  0.10350698  0.02364787  0.30366342  1
  O  O1  1  0.60361909  0.02400383  0.30375410  1
  O  O2  1  0.41054188  0.79532790  0.30099448  1
  O  O3  1  0.91080047  0.79593878  0.30088608  1
  O  O4  1  0.48804599  0.17926185  0.30092759  1
  O  O5  1  0.98758245  0.17915682  0.30093206  1
  O  O6  1  0.10261350  0.17954842  0.80076827  1
  O  O7  1  0.60609214  0.19020457  0.80462714  1
  O  O8  1  0.48555713  0.78745099  0.80283063  1
  O  O9  1  0.98800751  0.79338618  0.80366563  1
  O  O10  1  0.40455370  0.02484346  0.80431806  1
  O  O11  1  0.91150185  0.02439281  0.80105112  1
  O  O12  1  0.39252181  0.97017104  0.69694348  1
  O  O13  1  0.89790144  0.96790573  0.69220133  1
  O  O14  1  0.08783222  0.20852196  0.69250267  1
  O  O15  1  0.59598350  0.21228965  0.69511401  1
  O  O16  1  0.01590851  0.83039435  0.69407920  1
  O  O17  1  0.51221905  0.81095794  0.69544743  1
  O  O18  1  0.39632598  0.82568874  0.19216511  1
  O  O19  1  0.89726306  0.82717302  0.19213017  1
  O  O20  1  0.01609952  0.20681390  0.19211684  1
  O  O21  1  0.51612869  0.20550830  0.19208205  1
  O  O22  1  0.08548139  0.96800165  0.19425341  1
  O  O23  1  0.58540109  0.96910000  0.19432108  1
  O  O24  1  0.44125261  0.35785112  0.63695435  1
  O  O25  1  0.93911370  0.35036061  0.63997449  1
  O  O26  1  0.23540236  0.12360236  0.63775793  1
  O  O27  1  0.74175055  0.12676739  0.63521363  1
  O  O28  1  0.32144630  0.52609521  0.64076739  1
  O  O29  1  0.82335335  0.52411519  0.63852414  1
  O  O30  1  0.43948903  0.52923782  0.14000298  1
  O  O31  1  0.93747834  0.52536783  0.13720109  1
  O  O32  1  0.32482858  0.12096308  0.13985158  1
  O  O33  1  0.82469543  0.12058472  0.13983288  1
  O  O34  1  0.23515486  0.34920116  0.14006837  1
  O  O35  1  0.73701510  0.34880315  0.13748122  1
  O  O36  1  0.21988366  0.29304275  0.03243717  1
  O  O37  1  0.71857013  0.29598655  0.02958210  1
  O  O38  1  0.42710717  0.56075981  0.03239942  1
  O  O39  1  0.92947597  0.56354819  0.02931238  1
  O  O40  1  0.35199551  0.14651291  0.03215164  1
  O  O41  1  0.85317381  0.14365490  0.03225500  1
  O  O42  1  0.21592710  0.13783612  0.52949835  1
  O  O43  1  0.72691038  0.14883752  0.52765205  1
  O  O44  1  0.34323563  0.53975731  0.53223262  1
  O  O45  1  0.85363763  0.56005071  0.53134023  1
  O  O46  1  0.42766265  0.30875052  0.52916317  1
  O  O47  1  0.92745388  0.29266124  0.53219560  1
  O  O48  1  0.26984797  0.68841779  0.96800106  1
  O  O49  1  0.77297333  0.69233501  0.97130869  1
  O  O50  1  0.07277569  0.45628410  0.97108309  1
  O  O51  1  0.57603738  0.45497421  0.97025619  1
  O  O52  1  0.15084962  0.84778108  0.97000282  1
  O  O53  1  0.65614070  0.85666230  0.97079375  1
  O  O54  1  0.27178702  0.85390984  0.47093894  1
  O  O55  1  0.77230557  0.85310193  0.47053910  1
  O  O56  1  0.15414587  0.45342749  0.46997349  1
  O  O57  1  0.65628580  0.45167340  0.47336886  1
  O  O58  1  0.07592625  0.69458025  0.46966374  1
  O  O59  1  0.57507124  0.69694098  0.46865839  1
  O  O60  1  0.06076949  0.64109116  0.36186520  1
  O  O61  1  0.56084851  0.64211731  0.36119292  1
  O  O62  1  0.25760895  0.87968806  0.36318543  1
  O  O63  1  0.75751024  0.87827555  0.36306401  1
  O  O64  1  0.17883801  0.47752173  0.36190432  1
  O  O65  1  0.67853347  0.48170359  0.36464938  1
  O  O66  1  0.05997263  0.48425340  0.86329967  1
  O  O67  1  0.56032992  0.47942709  0.86295837  1
  O  O68  1  0.17840576  0.88110016  0.86251643  1
  O  O69  1  0.68045624  0.88012776  0.86259574  1
  O  O70  1  0.26281101  0.64071950  0.85926527  1
  O  O71  1  0.75892446  0.63919621  0.86383301  1
  O  O72  1  0.01214512  0.82898226  0.41093275  1
  O  O73  1  0.51144419  0.82974213  0.40980152  1
  O  O74  1  0.40306715  0.98123355  0.41104309  1
  O  O75  1  0.90328607  0.98004412  0.41084403  1
  O  O76  1  0.08720091  0.18833854  0.41113013  1
  O  O77  1  0.58776292  0.19012589  0.41202888  1
  O  O78  1  0.00898569  0.19322171  0.91110619  1
  O  O79  1  0.51158290  0.19361824  0.91135268  1
  O  O80  1  0.08490444  0.97807145  0.91155299  1
  O  O81  1  0.58783835  0.98478787  0.91110708  1
  O  O82  1  0.40368275  0.82608546  0.91118985  1
  O  O83  1  0.90548533  0.82474639  0.91133414  1
  O  O84  1  0.49350409  0.17423225  0.58789513  1
  O  O85  1  0.98877558  0.15689704  0.59283029  1
  O  O86  1  0.08828021  0.02061414  0.59230013  1
  O  O87  1  0.59756823  0.02429170  0.58812998  1
  O  O88  1  0.41344511  0.80799999  0.58877438  1
  O  O89  1  0.92029052  0.81915593  0.59251316  1
  O  O90  1  0.48920192  0.82139869  0.09257875  1
  O  O91  1  0.98909058  0.82013416  0.09192930  1
  O  O92  1  0.42151010  0.02344896  0.09193433  1
  O  O93  1  0.92131862  0.02170053  0.09268724  1
  O  O94  1  0.08949538  0.15650751  0.09248271  1
  O  O95  1  0.59014848  0.15787608  0.09184117  1
  O  O96  1  0.34026693  0.15836523  0.74392328  1
  O  O97  1  0.84963274  0.16150206  0.74131906  1
  O  O98  1  0.23392933  0.31041298  0.74115741  1
  O  O99  1  0.73813481  0.31260025  0.74573082  1
  O  O100  1  0.41848889  0.52549478  0.74462040  1
  O  O101  1  0.91971992  0.53737366  0.74102396  1
  O  O102  1  0.34764368  0.53475144  0.24110396  1
  O  O103  1  0.84823299  0.53586021  0.24069534  1
  O  O104  1  0.41992057  0.30388024  0.24104277  1
  O  O105  1  0.91973500  0.30475911  0.24106479  1
  O  O106  1  0.23191313  0.16067562  0.24156735  1
  O  O107  1  0.73188763  0.16146066  0.24152057  1
  O  O108  1  0.32287541  0.50358311  0.92201729  1
  O  O109  1  0.82360239  0.50542373  0.92313272  1
  O  O110  1  0.42962722  0.35270162  0.92404482  1
  O  O111  1  0.93000096  0.35824757  0.92289944  1
  O  O112  1  0.24651462  0.14128265  0.92399885  1
  O  O113  1  0.74692003  0.14535607  0.92200628  1
  O  O114  1  0.32090322  0.14001446  0.42290153  1
  O  O115  1  0.82158409  0.13945657  0.42226382  1
  O  O116  1  0.24603689  0.34719857  0.42158997  1
  O  O117  1  0.74715360  0.34890388  0.42200333  1
  O  O118  1  0.42935061  0.50700590  0.42140884  1
  O  O119  1  0.93003193  0.50619058  0.42257305  1
  O  O120  1  0.16880837  0.48075602  0.07999981  1
  O  O121  1  0.66944177  0.48251995  0.07979293  1
  O  O122  1  0.07192393  0.66146269  0.07952026  1
  O  O123  1  0.57161253  0.66219605  0.08030524  1
  O  O124  1  0.25945306  0.85667343  0.07995625  1
  O  O125  1  0.75923636  0.85567150  0.08029122  1
  O  O126  1  0.16751394  0.85424981  0.58014866  1
  O  O127  1  0.67685490  0.85976331  0.57725156  1
  O  O128  1  0.25240156  0.64808366  0.57960423  1
  O  O129  1  0.75778945  0.65485163  0.57923465  1
  O  O130  1  0.07099831  0.48143839  0.58023728  1
  O  O131  1  0.57326711  0.49243251  0.57759870  1
  O  O132  1  0.15225627  0.83811938  0.25229085  1
  O  O133  1  0.65232775  0.83877035  0.25216553  1
  O  O134  1  0.26700935  0.69590054  0.25226216  1
  O  O135  1  0.76749559  0.69684177  0.25194730  1
  O  O136  1  0.08078672  0.46602585  0.25202034  1
  O  O137  1  0.58118260  0.46533243  0.25168707  1
  O  O138  1  0.15416214  0.46933734  0.75251542  1
  O  O139  1  0.65820965  0.47600766  0.75454005  1
  O  O140  1  0.08053726  0.69603035  0.75217952  1
  O  O141  1  0.58039668  0.68551288  0.75541948  1
  O  O142  1  0.26202389  0.83511435  0.75533755  1
  O  O143  1  0.76818393  0.83944347  0.75204079  1
loop_
_geom_bond_atom_site_label_1
_geom_bond_atom_site_label_2
_geom_bond_distance
_geom_bond_site_symmetry_2
Na0 O100 2.358767 1_555
Na0 O142 2.363702 1_555
Na0 O98 2.493044 1_555
Na0 O138 2.508794 1_555
Na0 O28 2.637525 1_555
Na0 O70 2.652794 1_555
Na0 O12 2.738928 1_555
Na0 O8 2.744810 1_555
Na1 O87 2.355378 1_555
Na1 O131 2.370195 1_555
Na1 O84 2.373458 1_555
Na1 O129 2.455481 1_555
Na1 O15 2.674201 1_555
Na1 O57 2.676701 1_555
Na1 O43 2.824325 1_555
Na1 O29 2.854263 1_555
Na2 O111 2.346572 1_555
Na2 O80 2.359082 1_655
Na2 O83 2.416755 1_555
Na2 O109 2.466369 1_555
Na2 O39 2.673116 1_556
Na2 O52 2.717726 1_655
Na2 O66 2.751276 1_655
Na2 O9 2.779445 1_555
Na3 O79 2.345106 1_555
Na3 O81 2.393932 1_545
Na3 O109 2.409133 1_555
Na3 O113 2.411819 1_555
Na3 O7 2.678613 1_555
Na3 O37 2.727454 1_556
Na3 O51 2.768214 1_555
Na3 O71 2.774721 1_555
Na4 O114 2.345964 1_555
Na4 O72 2.357191 1_545
Na4 O116 2.398665 1_555
Na4 O76 2.402459 1_555
Na4 O42 2.666141 1_555
Na4 O62 2.760516 1_545
Na4 O58 2.760597 1_545
Na4 O0 2.768989 1_555
Na5 O115 2.359477 1_555
Na5 O73 2.364074 1_545
Na5 O77 2.407069 1_555
Na5 O117 2.415336 1_555
Na5 O43 2.679931 1_555
Na5 O59 2.733232 1_545
Na5 O1 2.766265 1_555
Na5 O63 2.769023 1_545
Na6 O75 2.470557 1_545
Na6 O85 2.526875 1_555
Na6 O76 2.534861 1_655
Na6 O89 2.560579 1_545
Na6 O72 2.580847 1_645
Na6 O86 2.607291 1_655
Na7 O88 2.401533 1_555
Na7 O74 2.463898 1_555
Na7 O84 2.517225 1_565
Na7 O73 2.594158 1_555
Na7 O87 2.651691 1_565
Na7 O77 2.688739 1_565
Na8 O78 2.480590 1_554
Na8 O94 2.483068 1_555
Na8 O93 2.522976 1_455
Na8 O80 2.557286 1_544
Na8 O91 2.603594 1_445
Na8 O83 2.603723 1_444
Na9 O82 2.423277 1_555
Na9 O92 2.527987 1_566
Na9 O90 2.538637 1_556
Na9 O79 2.552504 1_565
Na9 O81 2.570764 1_555
Na9 O95 2.655101 1_566
Na10 O110 2.455666 1_555
Na10 O112 2.520277 1_555
Na10 O96 2.541652 1_555
Na10 O108 2.551793 1_555
Na10 O100 2.605376 1_555
Na10 O98 2.758259 1_555
Na11 O99 2.461908 1_555
Na11 O97 2.501472 1_555
Na11 O113 2.534743 1_555
Na11 O111 2.611555 1_555
Na11 O101 2.653460 1_555
Na11 O109 2.698399 1_555
Na12 O118 2.466541 1_555
Na12 O116 2.571200 1_555
Na12 O102 2.593174 1_555
Na12 O114 2.595211 1_555
Na12 O104 2.606964 1_555
Na12 O106 2.700971 1_555
Na13 O119 2.492653 1_555
Na13 O117 2.584915 1_555
Na13 O105 2.588001 1_555
Na13 O115 2.596818 1_555
Na13 O103 2.596917 1_555
Na13 O107 2.698568 1_555
Na14 O134 2.515722 1_555
Na14 O124 2.517358 1_555
Na14 O120 2.517709 1_555
Na14 O136 2.526707 1_555
Na14 O132 2.529829 1_555
Na14 O122 2.534259 1_555
Na15 O137 2.510197 1_555
Na15 O123 2.513246 1_555
Na15 O125 2.520437 1_555
Na15 O133 2.521740 1_555
Na15 O121 2.522497 1_555
Na15 O135 2.527046 1_555
Na16 O126 2.435578 1_555
Na16 O128 2.487001 1_555
Na16 O130 2.488368 1_555
Na16 O140 2.536213 1_555
Na16 O142 2.578824 1_555
Na16 O138 2.594264 1_555
Na17 O141 2.426831 1_555
Na17 O143 2.488160 1_555
Na17 O127 2.545089 1_555
Na17 O139 2.545762 1_555
Na17 O131 2.584813 1_555
Na17 O129 2.666234 1_555
Mg0 O5 1.999736 1_565
Mg0 O3 2.002126 1_555
Mg0 O75 2.029860 1_555
Mg0 O0 2.061955 1_665
Mg0 O76 2.080324 1_665
Mg0 O72 2.093914 1_655
Mg1 O4 1.992929 1_565
Mg1 O2 2.002636 1_555
Mg1 O74 2.029943 1_555
Mg1 O73 2.071068 1_555
Mg1 O1 2.071163 1_565
Mg1 O77 2.105667 1_565
Mg2 O11 1.992217 1_455
Mg2 O6 2.001708 1_555
Mg2 O78 2.033335 1_555
Mg2 O9 2.059816 1_445
Mg2 O80 2.076663 1_545
Mg2 O83 2.098411 1_445
Mg3 O8 2.016368 1_555
Mg3 O10 2.018794 1_565
Mg3 O82 2.058163 1_555
Mg3 O7 2.074629 1_565
Mg3 O79 2.105965 1_565
Mg3 O81 2.122600 1_555
Mg4 O17 2.006881 1_555
Mg4 O12 2.018822 1_555
Mg4 O88 2.055651 1_555
Mg4 O15 2.075765 1_565
Mg4 O84 2.113539 1_565
Mg4 O87 2.132758 1_565
Mg5 O24 1.991271 1_555
Mg5 O26 2.039773 1_555
Mg5 O28 2.055916 1_555
Mg5 O96 2.057729 1_555
Mg5 O100 2.096630 1_555
Mg5 O98 2.146633 1_555
Mg6 O27 2.015987 1_555
Mg6 O29 2.044638 1_555
Mg6 O25 2.045954 1_555
Mg6 O97 2.062025 1_555
Mg6 O99 2.062436 1_555
Mg6 O101 2.086146 1_555
Mg7 O32 2.025825 1_555
Mg7 O34 2.029246 1_555
Mg7 O30 2.030630 1_555
Mg7 O102 2.076327 1_555
Mg7 O104 2.079726 1_555
Mg7 O106 2.087103 1_555
Mg8 O35 2.027719 1_555
Mg8 O33 2.031059 1_555
Mg8 O31 2.035377 1_555
Mg8 O103 2.071982 1_555
Mg8 O105 2.074252 1_555
Mg8 O107 2.081387 1_555
Mg9 O108 2.071956 1_555
Mg9 O110 2.082882 1_555
Mg9 O112 2.089780 1_555
Mg9 O38 2.108903 1_556
Mg9 O36 2.116772 1_556
Mg9 O40 2.125066 1_556
Mg10 O41 2.024395 1_556
Mg10 O113 2.087902 1_555
Mg10 O111 2.098080 1_555
Mg10 O37 2.119727 1_556
Mg10 O39 2.145420 1_556
Mg10 O109 2.193207 1_555
Mg11 O44 1.984619 1_555
Mg11 O46 2.017750 1_555
Mg11 O118 2.075706 1_555
Mg11 O116 2.112015 1_555
Mg11 O114 2.121762 1_555
Mg11 O42 2.196170 1_555
Mg12 O119 2.034125 1_555
Mg12 O47 2.055865 1_555
Mg12 O43 2.078232 1_555
Mg12 O45 2.090809 1_555
Mg12 O115 2.113092 1_555
Mg12 O117 2.160194 1_555
Mg13 O48 2.000241 1_554
Mg13 O52 2.050818 1_554
Mg13 O50 2.052903 1_554
Mg13 O124 2.113436 1_555
Mg13 O120 2.124436 1_555
Mg13 O122 2.160667 1_555
Mg14 O53 2.018887 1_554
Mg14 O51 2.027495 1_554
Mg14 O49 2.069796 1_554
Mg14 O123 2.108148 1_555
Mg14 O125 2.136977 1_555
Mg14 O121 2.143836 1_555
Mg15 O56 2.019426 1_555
Mg15 O54 2.038693 1_555
Mg15 O128 2.056723 1_555
Mg15 O58 2.058771 1_555
Mg15 O130 2.132952 1_555
Mg15 O126 2.162942 1_555
Mg16 O59 2.007679 1_555
Mg16 O55 2.010360 1_555
Mg16 O127 2.057793 1_555
Mg16 O57 2.065036 1_555
Mg16 O131 2.088344 1_555
Mg16 O129 2.178463 1_555
Mg17 O64 2.027818 1_555
Mg17 O60 2.046518 1_555
Mg17 O62 2.054927 1_555
Mg17 O134 2.132428 1_555
Mg17 O136 2.135040 1_555
Mg17 O132 2.157301 1_555
Mg18 O65 2.038955 1_555
Mg18 O61 2.043220 1_555
Mg18 O63 2.054745 1_555
Mg18 O137 2.130826 1_555
Mg18 O135 2.136189 1_555
Mg18 O133 2.150928 1_555
Mg19 O68 2.000531 1_555
Mg19 O66 2.034428 1_555
Mg19 O70 2.054572 1_555
Mg19 O142 2.071967 1_555
Mg19 O140 2.157750 1_555
Mg19 O138 2.194121 1_555
Mg20 O67 2.034484 1_555
Mg20 O69 2.044376 1_555
Mg20 O141 2.050750 1_555
Mg20 O71 2.066353 1_555
Mg20 O139 2.080268 1_555
Mg20 O143 2.177958 1_555
Ge0 O13 1.898601 1_445
Ge0 O16 1.909301 1_545
Ge0 O14 1.910371 1_555
Ge0 O85 1.939326 1_455
Ge0 O86 1.946814 1_555
Ge0 O89 1.985728 1_445
Ge1 O20 1.904632 1_555
Ge1 O22 1.907059 1_545
Ge1 O19 1.909763 1_445
Ge1 O94 1.950864 1_555
Ge1 O93 1.957052 1_455
Ge1 O91 1.977505 1_445
Ge2 O21 1.905830 1_565
Ge2 O18 1.907315 1_555
Ge2 O23 1.921297 1_555
Ge2 O90 1.948696 1_555
Ge2 O92 1.952711 1_565
Ge2 O95 1.979913 1_565
O0 S0 1.471227 1_555
O1 S1 1.468871 1_555
O2 S2 1.456702 1_555
O3 S3 1.454113 1_555
O4 S5 1.454353 1_555
O5 S4 1.454861 1_655
O6 S6 1.446857 1_555
O7 S7 1.487077 1_555
O8 S9 1.482150 1_555
O9 S8 1.472480 1_555
O10 S10 1.472062 1_555
O11 S11 1.458546 1_555
O12 S10 1.483910 1_565
O13 S11 1.546889 1_565
O14 S6 1.535286 1_555
O15 S7 1.488190 1_555
O16 S8 1.543629 1_455
O17 S9 1.473963 1_555
O18 S2 1.546559 1_555
O19 S3 1.544645 1_555
O20 S4 1.544996 1_555
O21 S5 1.545056 1_555
O22 S0 1.543983 1_565
O23 S1 1.539522 1_565
O24 S12 1.464169 1_555
O25 S13 1.456642 1_555
O26 S14 1.454118 1_555
O27 S15 1.467029 1_555
O28 S16 1.488797 1_555
O29 S17 1.466128 1_555
O30 S18 1.460000 1_555
O31 S19 1.457547 1_555
O32 S20 1.460804 1_555
O33 S21 1.460896 1_555
O34 S22 1.459870 1_555
O35 S23 1.458220 1_555
O36 S22 1.466711 1_555
O37 S23 1.488681 1_555
O38 S18 1.466737 1_555
O39 S19 1.490479 1_555
O40 S20 1.466050 1_555
O41 S21 1.477402 1_555
O42 S14 1.480480 1_555
O43 S15 1.500858 1_555
O44 S16 1.471909 1_555
O45 S17 1.473146 1_555
O46 S12 1.467889 1_555
O47 S13 1.473930 1_555
O48 S24 1.470720 1_555
O49 S25 1.456483 1_555
O50 S26 1.462713 1_555
O51 S27 1.486046 1_555
O52 S28 1.482695 1_555
O53 S29 1.463954 1_555
O54 S30 1.467933 1_555
O55 S31 1.469820 1_555
O56 S32 1.461006 1_555
O57 S33 1.485198 1_555
O58 S34 1.479456 1_555
O59 S35 1.484179 1_555
O60 S34 1.471737 1_555
O61 S35 1.472855 1_555
O62 S30 1.485171 1_555
O63 S31 1.482736 1_555
O64 S32 1.469274 1_555
O65 S33 1.461656 1_555
O66 S26 1.487136 1_555
O67 S27 1.471470 1_555
O68 S28 1.476985 1_555
O69 S29 1.465209 1_555
O70 S24 1.496877 1_555
O71 S25 1.472921 1_555
O72 S34 1.501178 1_555
O73 S35 1.500221 1_555
O74 S30 1.479432 1_555
O75 S31 1.476600 1_555
O76 S32 1.504677 1_555
O77 S33 1.498573 1_555
O78 S26 1.476120 1_555
O79 S27 1.502792 1_555
O80 S28 1.507655 1_555
O81 S29 1.499119 1_555
O82 S24 1.487841 1_555
O83 S25 1.492798 1_555
O84 S12 1.498225 1_555
O85 S13 1.553880 1_555
O86 S14 1.553796 1_555
O87 S15 1.495307 1_555
O88 S16 1.487615 1_555
O89 S17 1.524084 1_555
O90 S18 1.552039 1_555
O91 S19 1.542140 1_555
O92 S20 1.553693 1_555
O93 S21 1.544132 1_555
O94 S22 1.555886 1_555
O95 S23 1.538843 1_555
O96 S10 1.470227 1_555
O97 S11 1.471406 1_555
O98 S6 1.476240 1_555
O99 S7 1.489624 1_555
O100 S9 1.501889 1_555
O101 S8 1.465887 1_555
O102 S2 1.471268 1_555
O103 S3 1.474258 1_555
O104 S5 1.470481 1_555
O105 S4 1.475896 1_655
O106 S0 1.467181 1_555
O107 S1 1.472914 1_555
O108 S24 1.481673 1_555
O109 S25 1.517392 1_555
O110 S27 1.472284 1_555
O111 S26 1.506694 1_655
O112 S28 1.465624 1_545
O113 S29 1.512017 1_545
O114 S30 1.500914 1_545
O115 S31 1.500680 1_545
O116 S32 1.501962 1_555
O117 S33 1.499467 1_555
O118 S35 1.472824 1_555
O119 S34 1.481185 1_655
O120 S22 1.475351 1_555
O121 S23 1.469837 1_555
O122 S19 1.469160 1_455
O123 S18 1.476640 1_555
O124 S20 1.477237 1_565
O125 S21 1.467372 1_565
O126 S14 1.473266 1_565
O127 S15 1.470806 1_565
O128 S16 1.482952 1_555
O129 S17 1.483336 1_555
O130 S13 1.469073 1_455
O131 S12 1.503655 1_555
O132 S0 1.471504 1_565
O133 S1 1.473181 1_565
O134 S2 1.473738 1_555
O135 S3 1.474532 1_555
O136 S4 1.471239 1_555
O137 S5 1.476550 1_555
O138 S6 1.486188 1_555
O139 S7 1.479475 1_555
O140 S8 1.470508 1_455
O141 S9 1.471101 1_555
O142 S10 1.503754 1_565
O143 S11 1.466889 1_565
