# generated using pymatgen
data_MgMn2(AgO3)2
_symmetry_space_group_name_H-M   'P 1'
_cell_length_a   5.30224908
_cell_length_b   6.05280598
_cell_length_c   5.30275531
_cell_angle_alpha   115.98650708
_cell_angle_beta   59.99373689
_cell_angle_gamma   115.99553636
_symmetry_Int_Tables_number   1
_chemical_formula_structural   MgMn2(AgO3)2
_chemical_formula_sum   'Mg1 Mn2 Ag2 O6'
_cell_volume   127.11448477
_cell_formula_units_Z   1
loop_
 _symmetry_equiv_pos_site_id
 _symmetry_equiv_pos_as_xyz
  1  'x, y, z'
loop_
 _atom_site_type_symbol
 _atom_site_label
 _atom_site_symmetry_multiplicity
 _atom_site_fract_x
 _atom_site_fract_y
 _atom_site_fract_z
 _atom_site_occupancy
  Mg  Mg0  1  0.50000300  0.50001200  0.50000800  1
  Mn  Mn0  1  0.32620800  0.97845900  0.32604400  1
  Mn  Mn1  1  0.67377600  0.02145500  0.67394900  1
  Ag  Ag0  1  0.12463900  0.37354500  0.12457600  1
  Ag  Ag1  1  0.87535900  0.62645000  0.87541600  1
  O  O0  1  0.08920400  0.21852700  0.46530800  1
  O  O1  1  0.53466700  0.78146600  0.33592900  1
  O  O2  1  0.33586000  0.78146100  0.91086900  1
  O  O3  1  0.66414200  0.21856000  0.08913600  1
  O  O4  1  0.46533100  0.21856400  0.66407400  1
  O  O5  1  0.91080900  0.78150300  0.53469100  1
loop_
_geom_bond_atom_site_label_1
_geom_bond_atom_site_label_2
_geom_bond_distance
_geom_bond_site_symmetry_2
Mg0 O0 2.134026 1_555
Mg0 O5 2.134042 1_555
Mg0 O2 2.134704 1_555
Mg0 O4 2.134728 1_555
Mg0 O3 2.134736 1_555
Mg0 O1 2.134831 1_555
Mn0 O2 1.977796 1_554
Mn0 O5 1.978205 1_455
Mn0 O1 1.978426 1_555
Mn0 O3 1.991640 1_565
Mn0 O0 1.992019 1_565
Mn0 O4 1.992278 1_565
Mn1 O3 1.977957 1_556
Mn1 O0 1.978536 1_655
Mn1 O4 1.978937 1_555
Mn1 O2 1.991251 1_545
Mn1 O5 1.991553 1_545
Mn1 O1 1.992079 1_545
Ag0 O0 2.274172 1_555
Ag0 O4 2.274258 1_554
Ag0 O3 2.274572 1_455
Ag0 O1 2.717632 1_555
Ag0 O2 2.719046 1_554
Ag0 O5 2.719279 1_455
Ag1 O5 2.274252 1_555
Ag1 O1 2.274349 1_556
Ag1 O2 2.274607 1_655
Ag1 O4 2.717527 1_555
Ag1 O3 2.718949 1_556
Ag1 O0 2.719148 1_655
