# generated using pymatgen
data_Yb2S2O
_symmetry_space_group_name_H-M   'P 1'
_cell_length_a   6.58218500
_cell_length_b   7.67035000
_cell_length_c   8.18406495
_cell_angle_alpha   80.11859722
_cell_angle_beta   90.00000000
_cell_angle_gamma   90.00000000
_symmetry_Int_Tables_number   1
_chemical_formula_structural   Yb2S2O
_chemical_formula_sum   'Yb8 S8 O4'
_cell_volume   407.06460623
_cell_formula_units_Z   4
loop_
 _symmetry_equiv_pos_site_id
 _symmetry_equiv_pos_as_xyz
  1  'x, y, z'
loop_
 _atom_site_type_symbol
 _atom_site_label
 _atom_site_symmetry_multiplicity
 _atom_site_fract_x
 _atom_site_fract_y
 _atom_site_fract_z
 _atom_site_occupancy
  Yb  Yb0  1  0.03893100  0.76960700  0.16479600  1
  Yb  Yb1  1  0.53893100  0.73039300  0.83520400  1
  Yb  Yb2  1  0.96106900  0.23039300  0.83520400  1
  Yb  Yb3  1  0.46106900  0.26960700  0.16479600  1
  Yb  Yb4  1  0.14922500  0.63974000  0.58399400  1
  Yb  Yb5  1  0.64922500  0.86026000  0.41600600  1
  Yb  Yb6  1  0.85077500  0.36026000  0.41600600  1
  Yb  Yb7  1  0.35077500  0.13974000  0.58399400  1
  S  S0  1  0.84114200  0.49922300  0.02929300  1
  S  S1  1  0.34114200  0.00077700  0.97070700  1
  S  S2  1  0.15885800  0.50077700  0.97070700  1
  S  S3  1  0.65885800  0.99922300  0.02929300  1
  S  S4  1  0.94362700  0.96171900  0.62418400  1
  S  S5  1  0.44362700  0.53828100  0.37581600  1
  S  S6  1  0.05637300  0.03828100  0.37581600  1
  S  S7  1  0.55637300  0.46171900  0.62418400  1
  O  O0  1  0.58104100  0.15240600  0.38474900  1
  O  O1  1  0.08104100  0.34759400  0.61525100  1
  O  O2  1  0.41895900  0.84759400  0.61525100  1
  O  O3  1  0.91895900  0.65240600  0.38474900  1
loop_
_geom_bond_atom_site_label_1
_geom_bond_atom_site_label_2
_geom_bond_distance
_geom_bond_site_symmetry_2
S0 S2 2.145103 1_654
S0 Yb0 2.831132 1_655
S0 Yb2 2.919308 1_554
S0 Yb1 2.942358 1_554
S0 Yb3 3.149596 1_555
S0 Yb6 3.162091 1_555
S1 S3 2.145103 1_546
S1 Yb1 2.831132 1_545
S1 Yb3 2.919308 1_556
S1 Yb0 2.942358 1_546
S1 Yb2 3.149596 1_455
S1 Yb7 3.162091 1_555
S2 Yb2 2.831132 1_455
S2 Yb0 2.919308 1_556
S2 Yb3 2.942358 1_556
S2 Yb1 3.149596 1_555
S2 Yb4 3.162091 1_555
S3 Yb3 2.831132 1_565
S3 Yb1 2.919308 1_554
S3 Yb2 2.942358 1_564
S3 Yb0 3.149596 1_655
S3 Yb5 3.162091 1_555
S4 S6 2.148863 1_665
S4 Yb5 2.778227 1_555
S4 Yb4 2.884050 1_655
S4 Yb2 2.909337 1_565
S4 Yb7 3.000095 1_665
S4 Yb6 3.291448 1_565
S4 Yb1 3.489251 1_555
S5 S7 2.148863 1_555
S5 Yb4 2.778227 1_555
S5 Yb5 2.884050 1_555
S5 Yb3 2.909337 1_555
S5 Yb6 3.000095 1_555
S5 Yb7 3.291448 1_555
S5 Yb0 3.489251 1_555
S6 Yb7 2.778227 1_555
S6 Yb6 2.884050 1_455
S6 Yb0 2.909337 1_545
S6 Yb5 3.000095 1_445
S6 Yb4 3.291448 1_545
S6 Yb3 3.489251 1_555
S7 Yb6 2.778227 1_555
S7 Yb7 2.884050 1_555
S7 Yb1 2.909337 1_555
S7 Yb4 3.000095 1_555
S7 Yb5 3.291448 1_555
S7 Yb2 3.489251 1_555
O0 Yb3 2.028971 1_555
O0 Yb7 2.216131 1_555
O0 Yb5 2.256453 1_545
O0 Yb6 2.428875 1_555
O1 Yb2 2.028971 1_455
O1 Yb6 2.216131 1_455
O1 Yb4 2.256453 1_555
O1 Yb7 2.428875 1_555
O2 Yb1 2.028971 1_555
O2 Yb5 2.216131 1_555
O2 Yb7 2.256453 1_565
O2 Yb4 2.428875 1_555
O3 Yb0 2.028971 1_655
O3 Yb4 2.216131 1_655
O3 Yb6 2.256453 1_555
O3 Yb5 2.428875 1_555
