# generated using pymatgen
data_FeCu2SnS4
_symmetry_space_group_name_H-M   'P 1'
_cell_length_a   6.60796537
_cell_length_b   6.60796537
_cell_length_c   6.60796537
_cell_angle_alpha   131.11712933
_cell_angle_beta   131.11712933
_cell_angle_gamma   71.62705110
_symmetry_Int_Tables_number   1
_chemical_formula_structural   FeCu2SnS4
_chemical_formula_sum   'Fe1 Cu2 Sn1 S4'
_cell_volume   160.23133705
_cell_formula_units_Z   1
loop_
 _symmetry_equiv_pos_site_id
 _symmetry_equiv_pos_as_xyz
  1  'x, y, z'
loop_
 _atom_site_type_symbol
 _atom_site_label
 _atom_site_symmetry_multiplicity
 _atom_site_fract_x
 _atom_site_fract_y
 _atom_site_fract_z
 _atom_site_occupancy
  Fe  Fe0  1  0.00000000  0.00000000  0.00000000  1
  Cu  Cu0  1  0.75000000  0.25000000  0.50000000  1
  Cu  Cu1  1  0.25000000  0.75000000  0.50000000  1
  Sn  Sn0  1  0.50000000  0.50000000  0.00000000  1
  S  S0  1  0.10056500  0.10056500  0.46573800  1
  S  S1  1  0.89943500  0.36517300  0.00000000  1
  S  S2  1  0.36517300  0.89943500  0.00000000  1
  S  S3  1  0.63482700  0.63482700  0.53426200  1
loop_
_geom_bond_atom_site_label_1
_geom_bond_atom_site_label_2
_geom_bond_distance
_geom_bond_site_symmetry_2
Fe0 S2 2.292059 1_545
Fe0 S1 2.292059 1_455
Fe0 S0 2.292059 1_555
Fe0 S3 2.292059 1_444
Cu0 S3 2.312213 1_555
Cu0 S0 2.312213 1_655
Cu0 S2 2.312213 1_545
Cu0 S1 2.312213 1_556
Cu1 S3 2.312213 1_555
Cu1 S0 2.312213 1_565
Cu1 S1 2.312213 1_455
Cu1 S2 2.312213 1_556
S0 Sn0 2.505601 1_556
S1 Sn0 2.505601 1_555
S2 Sn0 2.505601 1_555
S3 Sn0 2.505601 1_555
