# generated using pymatgen
data_Na5HfSc3(PO4)6
_symmetry_space_group_name_H-M   'P 1'
_cell_length_a   8.98870848
_cell_length_b   8.97104685
_cell_length_c   22.71406685
_cell_angle_alpha   89.94327714
_cell_angle_beta   90.03122797
_cell_angle_gamma   119.99003185
_symmetry_Int_Tables_number   1
_chemical_formula_structural   Na5HfSc3(PO4)6
_chemical_formula_sum   'Na15 Hf3 Sc9 P18 O72'
_cell_volume   1586.38776751
_cell_formula_units_Z   3
loop_
 _symmetry_equiv_pos_site_id
 _symmetry_equiv_pos_as_xyz
  1  'x, y, z'
loop_
 _atom_site_type_symbol
 _atom_site_label
 _atom_site_symmetry_multiplicity
 _atom_site_fract_x
 _atom_site_fract_y
 _atom_site_fract_z
 _atom_site_occupancy
  Na  Na0  1  0.63690811  0.99983897  0.25318909  1
  Na  Na1  1  0.36337394  0.36430274  0.25380519  1
  Na  Na2  1  -0.00029169  0.63664705  0.25339804  1
  Na  Na3  1  0.64383004  0.63702405  0.74840435  1
  Na  Na4  1  0.99597533  0.35839090  0.74870464  1
  Na  Na5  1  0.03210644  0.70047360  0.58147457  1
  Na  Na6  1  0.66545508  0.96638495  0.58117489  1
  Na  Na7  1  0.66522284  0.69967045  0.08159888  1
  Na  Na8  1  0.03313268  0.33166893  0.08163424  1
  Na  Na9  1  0.01135495  0.01236327  0.49535267  1
  Na  Na10  1  0.01091606  0.99909656  0.99451531  1
  Na  Na11  1  0.65465318  0.32048912  0.83305685  1
  Na  Na12  1  0.66685527  0.33355444  0.33773147  1
  Na  Na13  1  0.33255837  0.67769499  0.16520612  1
  Na  Na14  1  0.33316944  0.66518267  0.66245167  1
  Hf  Hf0  1  0.66470695  0.33201452  0.97815376  1
  Hf  Hf1  1  0.66395632  0.33311658  0.47928362  1
  Hf  Hf2  1  0.33365022  0.67246402  0.81718176  1
  Sc  Sc0  1  -0.00091017  0.99901279  0.35497003  1
  Sc  Sc1  1  0.00168104  0.00049055  0.85359422  1
  Sc  Sc2  1  0.00863798  0.00640807  0.64839263  1
  Sc  Sc3  1  0.00577395  0.99938320  0.14765697  1
  Sc  Sc4  1  0.65832877  0.32717511  0.68444449  1
  Sc  Sc5  1  0.66420279  0.33042577  0.18347169  1
  Sc  Sc6  1  0.33291115  0.67232219  0.01588623  1
  Sc  Sc7  1  0.33277820  0.65979183  0.51511866  1
  Sc  Sc8  1  0.33331546  0.66652310  0.32045507  1
  P  P0  1  0.29262524  0.99962132  0.25060315  1
  P  P1  1  0.70665658  0.70706102  0.24884339  1
  P  P2  1  0.00036009  0.29332128  0.24898916  1
  P  P3  1  0.29333001  0.29318303  0.75160374  1
  P  P4  1  0.00111574  0.70730641  0.74919537  1
  P  P5  1  0.70791102  -0.00049866  0.74936602  1
  P  P6  1  0.95909767  0.33362283  0.58475307  1
  P  P7  1  0.37238955  0.03930021  0.58275672  1
  P  P8  1  0.66579938  0.62710824  0.58502670  1
  P  P9  1  0.95974273  0.62587248  0.08383725  1
  P  P10  1  0.66567768  0.03877105  0.08425733  1
  P  P11  1  0.37260588  0.33276117  0.08343780  1
  P  P12  1  0.62854317  0.66819222  0.91759883  1
  P  P13  1  0.03911378  0.37147744  0.91794489  1
  P  P14  1  0.33157611  0.96150568  0.91762287  1
  P  P15  1  0.62965031  0.96222577  0.41724486  1
  P  P16  1  0.33242929  0.36976838  0.41545987  1
  P  P17  1  0.03806558  0.66735686  0.41738731  1
  O  O0  1  0.20930067  0.03130203  0.30412122  1
  O  O1  1  0.82519478  0.79467770  0.30140292  1
  O  O2  1  0.97023808  0.17484321  0.30154552  1
  O  O3  1  0.20806165  0.18494035  0.80603245  1
  O  O4  1  0.97136931  0.79533476  0.80184409  1
  O  O5  1  0.82551538  0.02831824  0.80215205  1
  O  O6  1  0.78436095  0.96620744  0.69283294  1
  O  O7  1  0.17900913  0.21474076  0.69650462  1
  O  O8  1  0.02779049  0.81075729  0.69186501  1
  O  O9  1  0.78576817  0.81482491  0.19187975  1
  O  O10  1  0.02929295  0.21447677  0.19205506  1
  O  O11  1  0.17939062  0.96862837  0.19534398  1
  O  O12  1  0.87796118  0.36130520  0.64120618  1
  O  O13  1  0.48655159  0.12351745  0.63733870  1
  O  O14  1  0.64342121  0.52356306  0.64204649  1
  O  O15  1  0.87828298  0.51720271  0.14034411  1
  O  O16  1  0.64320311  0.11914580  0.14136853  1
  O  O17  1  0.48051004  0.36069781  0.13997231  1
  O  O18  1  0.46801909  0.31370963  0.03001511  1
  O  O19  1  0.83990207  0.53104816  0.03085174  1
  O  O20  1  0.69080814  0.15836712  0.03129699  1
  O  O21  1  0.46262187  0.15073970  0.52818905  1
  O  O22  1  0.69085740  0.53306866  0.53203248  1
  O  O23  1  0.83912043  0.30813594  0.53177584  1
  O  O24  1  0.54159248  0.68780063  0.97328750  1
  O  O25  1  0.14591047  0.45828957  0.97364204  1
  O  O26  1  0.31072755  0.85202930  0.97227221  1
  O  O27  1  0.54102007  0.85444585  0.47268177  1
  O  O28  1  0.31252278  0.46321863  0.46887462  1
  O  O29  1  0.14562673  0.68657137  0.47285390  1
  O  O30  1  0.12021216  0.64063860  0.36096987  1
  O  O31  1  0.52109163  0.87948505  0.36083206  1
  O  O32  1  0.35964500  0.47504176  0.35799951  1
  O  O33  1  0.12825454  0.48518647  0.86244111  1
  O  O34  1  0.35761815  0.87380357  0.86248414  1
  O  O35  1  0.51555682  0.64441134  0.86206152  1
  O  O36  1  0.01745929  0.82680364  0.41204822  1
  O  O37  1  0.80921730  0.98246182  0.41199328  1
  O  O38  1  0.17313604  0.19003585  0.41124963  1
  O  O39  1  0.01884162  0.19249717  0.91162530  1
  O  O40  1  0.17342054  0.98149630  0.91121515  1
  O  O41  1  0.80729726  0.82661056  0.91120185  1
  O  O42  1  0.96961968  0.16701774  0.58896220  1
  O  O43  1  0.19034554  0.01561831  0.58766037  1
  O  O44  1  0.83269659  0.80729608  0.58798530  1
  O  O45  1  0.96971117  0.80257455  0.08767339  1
  O  O46  1  0.83233883  0.02561655  0.08720922  1
  O  O47  1  0.19012072  0.17474250  0.08704799  1
  O  O48  1  0.69000770  0.16170412  0.74381079  1
  O  O49  1  0.47850233  0.32525711  0.74526859  1
  O  O50  1  0.83938411  0.52329017  0.74479640  1
  O  O51  1  0.68502435  0.52347723  0.24365069  1
  O  O52  1  0.83842892  0.31454958  0.24392833  1
  O  O53  1  0.47551245  0.16114204  0.24412899  1
  O  O54  1  0.64203910  0.50175337  0.92204606  1
  O  O55  1  0.85941866  0.35774120  0.92254324  1
  O  O56  1  0.49742736  0.14085430  0.92231922  1
  O  O57  1  0.64682874  0.14377681  0.42298022  1
  O  O58  1  0.49712264  0.35460775  0.42254438  1
  O  O59  1  0.85698049  0.50307009  0.42345915  1
  O  O60  1  0.35657469  0.49737599  0.07773932  1
  O  O61  1  0.13609837  0.63790173  0.07734095  1
  O  O62  1  0.51020534  0.85562174  0.07808948  1
  O  O63  1  0.35520080  0.85810939  0.57734097  1
  O  O64  1  0.51011786  0.65427998  0.57833550  1
  O  O65  1  0.13575033  0.49786837  0.57759387  1
  O  O66  1  0.31363593  0.83810735  0.25637706  1
  O  O67  1  0.52557727  0.68824158  0.25534890  1
  O  O68  1  0.16180313  0.47553660  0.25533136  1
  O  O69  1  0.31150974  0.47785498  0.75762269  1
  O  O70  1  0.15920860  0.67981700  0.75680538  1
  O  O71  1  0.52813232  0.83358002  0.75740569  1
loop_
_geom_bond_atom_site_label_1
_geom_bond_atom_site_label_2
_geom_bond_distance
_geom_bond_site_symmetry_2
Na0 O67 2.453796 1_555
Na0 O52 2.486572 1_565
Na0 O53 2.517682 1_565
Na0 O66 2.517795 1_555
Na0 O31 2.664857 1_555
Na0 O16 2.744828 1_565
Na0 O2 2.818824 1_565
Na0 O9 2.951498 1_555
Na1 O68 2.467273 1_555
Na1 O53 2.494726 1_555
Na1 O51 2.514797 1_555
Na1 O67 2.517263 1_555
Na1 O32 2.574344 1_555
Na1 O17 2.798605 1_555
Na1 O0 2.829749 1_555
Na1 O10 2.959006 1_555
Na2 O66 2.476938 1_555
Na2 O51 2.491913 1_455
Na2 O52 2.512086 1_455
Na2 O68 2.513736 1_555
Na2 O30 2.665189 1_555
Na2 O15 2.786910 1_455
Na2 O1 2.808490 1_455
Na2 O11 2.898800 1_555
Na3 O49 2.425113 1_555
Na3 O50 2.435324 1_555
Na3 O71 2.463089 1_555
Na3 O69 2.596486 1_555
Na3 O14 2.621710 1_555
Na3 O4 2.824517 1_555
Na3 O35 2.842278 1_555
Na3 O6 2.859192 1_555
Na4 O48 2.416277 1_555
Na4 O69 2.488970 1_655
Na4 O50 2.501733 1_555
Na4 O70 2.504514 1_655
Na4 O12 2.666979 1_555
Na4 O7 2.810352 1_655
Na4 O33 2.834092 1_655
Na4 O5 2.837047 1_555
Na5 O44 2.422977 1_455
Na5 O65 2.423323 1_555
Na5 O43 2.452815 1_565
Na5 O63 2.517402 1_555
Na5 O29 2.697130 1_555
Na5 O8 2.703860 1_555
Na5 O22 2.884413 1_455
Na5 O12 2.966116 1_455
Na6 O42 2.413815 1_565
Na6 O64 2.425948 1_555
Na6 O63 2.453623 1_555
Na6 O44 2.542601 1_555
Na6 O27 2.685403 1_555
Na6 O6 2.751990 1_555
Na6 O23 2.882009 1_565
Na6 O13 2.910760 1_565
Na7 O45 2.415812 1_555
Na7 O62 2.419459 1_555
Na7 O60 2.442308 1_555
Na7 O46 2.536213 1_565
Na7 O24 2.679190 1_554
Na7 O9 2.720124 1_555
Na7 O19 2.908987 1_555
Na7 O17 2.951100 1_555
Na8 O46 2.420239 1_455
Na8 O61 2.423030 1_555
Na8 O47 2.444116 1_555
Na8 O60 2.519849 1_555
Na8 O25 2.679722 1_554
Na8 O10 2.712138 1_555
Na8 O20 2.899978 1_455
Na8 O15 2.967910 1_455
Na9 O38 2.446306 1_555
Na9 O36 2.540106 1_545
Na9 O37 2.543300 1_445
Na9 O43 2.633429 1_555
Na9 O42 2.667140 1_455
Na9 O44 2.726348 1_445
Na10 O40 2.443920 1_555
Na10 O39 2.535794 1_565
Na10 O41 2.548756 1_455
Na10 O47 2.638297 1_566
Na10 O45 2.657727 1_456
Na10 O46 2.729944 1_466
Na11 O56 2.534744 1_555
Na11 O49 2.559127 1_555
Na11 O48 2.588120 1_555
Na11 O54 2.633233 1_555
Na11 O55 2.648248 1_555
Na11 O50 2.657552 1_555
Na12 O58 2.523202 1_555
Na12 O57 2.523456 1_555
Na12 O59 2.535555 1_555
Na12 O51 2.685369 1_555
Na12 O53 2.685859 1_555
Na12 O52 2.685956 1_555
Na13 O62 2.542110 1_555
Na13 O61 2.568343 1_555
Na13 O66 2.576683 1_555
Na13 O60 2.639397 1_555
Na13 O67 2.654024 1_555
Na13 O68 2.654966 1_555
Na14 O64 2.519732 1_555
Na14 O63 2.534399 1_555
Na14 O65 2.540929 1_555
Na14 O69 2.683521 1_555
Na14 O70 2.695347 1_555
Na14 O71 2.713076 1_555
Hf0 O56 2.057822 1_555
Hf0 O18 2.062032 1_556
Hf0 O54 2.071344 1_555
Hf0 O19 2.071726 1_556
Hf0 O20 2.073695 1_556
Hf0 O55 2.076061 1_555
Hf1 O21 2.055366 1_555
Hf1 O58 2.057527 1_555
Hf1 O22 2.069295 1_555
Hf1 O57 2.070521 1_555
Hf1 O59 2.072872 1_555
Hf1 O23 2.073896 1_555
Hf2 O34 1.995528 1_555
Hf2 O35 2.045759 1_555
Hf2 O33 2.045936 1_555
Hf2 O70 2.108219 1_555
Hf2 O71 2.112194 1_555
Hf2 O69 2.138872 1_555
O0 P0 1.527724 1_545
O0 Sc0 2.107781 1_545
O1 P1 1.530228 1_555
O1 Sc0 2.102817 1_655
O2 P2 1.529129 1_655
O2 Sc0 2.105414 1_645
O3 P3 1.520998 1_555
O3 Sc1 2.067960 1_555
O4 P4 1.529227 1_655
O4 Sc1 2.084673 1_665
O5 P5 1.532291 1_555
O5 Sc1 2.080312 1_655
O6 P5 1.554750 1_565
O6 Sc2 2.118435 1_665
O7 P3 1.547549 1_555
O7 Sc2 2.042898 1_555
O8 P4 1.545970 1_555
O8 Sc2 2.093758 1_565
O9 P1 1.557457 1_555
O9 Sc3 2.094438 1_655
O10 P2 1.557686 1_555
O10 Sc3 2.093063 1_545
O11 P0 1.550840 1_555
O11 Sc3 2.028008 1_555
O12 P6 1.555803 1_555
O12 Sc4 2.086395 1_555
O13 P7 1.544763 1_555
O13 Sc4 2.012172 1_555
O14 P8 1.546563 1_555
O14 Sc4 2.069264 1_555
O15 P9 1.555264 1_555
O15 Sc5 2.060484 1_555
O16 P10 1.546375 1_555
O16 Sc5 2.046578 1_555
O17 P11 1.552034 1_555
O17 Sc5 2.054820 1_555
O18 P11 1.544440 1_555
O19 P9 1.554676 1_555
O20 P10 1.550702 1_555
O21 P7 1.543235 1_555
O22 P8 1.550370 1_555
O23 P6 1.554328 1_555
O24 P12 1.542977 1_555
O24 Sc6 2.053137 1_556
O25 P13 1.543305 1_555
O25 Sc6 2.051407 1_556
O26 P14 1.534395 1_555
O26 Sc6 1.984492 1_556
O27 P15 1.543947 1_555
O27 Sc7 2.052607 1_555
O28 P16 1.535927 1_555
O28 Sc7 1.982112 1_555
O29 P17 1.544104 1_555
O29 Sc7 2.052095 1_555
O30 P17 1.556731 1_555
O30 Sc8 2.031465 1_555
O31 P15 1.556110 1_555
O31 Sc8 2.029307 1_555
O32 P16 1.556323 1_555
O32 Sc8 2.034049 1_555
O33 P13 1.566349 1_555
O34 P14 1.558452 1_555
O35 P12 1.565510 1_555
O36 P17 1.536089 1_555
O36 Sc0 2.084619 1_555
O37 P15 1.536119 1_555
O37 Sc0 2.088352 1_655
O38 P16 1.533388 1_555
O38 Sc0 2.083350 1_545
O39 P13 1.529649 1_555
O39 Sc1 2.113505 1_555
O40 P14 1.526082 1_555
O40 Sc1 2.094133 1_565
O41 P12 1.529573 1_555
O41 Sc1 2.114731 1_665
O42 P6 1.546934 1_555
O42 Sc2 2.126519 1_655
O43 P7 1.545240 1_555
O43 Sc2 2.108275 1_555
O44 P8 1.563295 1_555
O44 Sc2 2.180099 1_665
O45 P9 1.544913 1_555
O45 Sc3 2.123865 1_655
O46 P10 1.561806 1_555
O46 Sc3 2.175938 1_645
O47 P11 1.543447 1_555
O47 Sc3 2.123215 1_545
O48 P5 1.546911 1_555
O48 Sc4 2.126306 1_555
O49 P3 1.547683 1_555
O49 Sc4 2.120464 1_555
O50 P4 1.565119 1_655
O50 Sc4 2.182446 1_555
O51 P1 1.563440 1_555
O51 Sc5 2.140847 1_555
O52 P2 1.563649 1_655
O52 Sc5 2.139819 1_555
O53 P0 1.562764 1_545
O53 Sc5 2.122424 1_555
O54 P12 1.560489 1_555
O55 P13 1.560843 1_655
O56 P14 1.557185 1_545
O57 P15 1.562840 1_545
O58 P16 1.561056 1_555
O59 P17 1.562768 1_655
O60 P11 1.559070 1_555
O60 Sc6 2.193467 1_555
O61 P9 1.541271 1_455
O61 Sc6 2.151573 1_555
O62 P10 1.541751 1_565
O62 Sc6 2.149962 1_555
O63 P7 1.558996 1_565
O63 Sc7 2.202169 1_555
O64 P8 1.543202 1_555
O64 Sc7 2.163668 1_555
O65 P6 1.542633 1_455
O65 Sc7 2.164993 1_555
O66 P0 1.557396 1_555
O66 Sc8 2.187829 1_555
O67 P1 1.557287 1_555
O67 Sc8 2.208419 1_555
O68 P2 1.558057 1_555
O68 Sc8 2.205069 1_555
O69 P3 1.587398 1_555
O70 P4 1.568459 1_555
O71 P5 1.566995 1_565
