# generated using pymatgen
data_Sr4MgMn2(ClO3)2
_symmetry_space_group_name_H-M   'P 1'
_cell_length_a   4.04315679
_cell_length_b   4.04315995
_cell_length_c   17.46333280
_cell_angle_alpha   90.00000000
_cell_angle_beta   90.00000000
_cell_angle_gamma   90.00000000
_symmetry_Int_Tables_number   1
_chemical_formula_structural   Sr4MgMn2(ClO3)2
_chemical_formula_sum   'Sr4 Mg1 Mn2 Cl2 O6'
_cell_volume   285.47536462
_cell_formula_units_Z   1
loop_
 _symmetry_equiv_pos_site_id
 _symmetry_equiv_pos_as_xyz
  1  'x, y, z'
loop_
 _atom_site_type_symbol
 _atom_site_label
 _atom_site_symmetry_multiplicity
 _atom_site_fract_x
 _atom_site_fract_y
 _atom_site_fract_z
 _atom_site_occupancy
  Sr  Sr0  1  0.25000000  0.25000000  0.07493413  1
  Sr  Sr1  1  0.75000000  0.75000000  0.92506587  1
  Sr  Sr2  1  0.25000000  0.25000000  0.27921026  1
  Sr  Sr3  1  0.75000000  0.75000000  0.72078974  1
  Mg  Mg0  1  0.75000000  0.25000000  0.50000000  1
  Mn  Mn0  1  0.75000000  0.75000000  0.17933679  1
  Mn  Mn1  1  0.25000000  0.25000000  0.82066321  1
  Cl  Cl0  1  0.75000000  0.75000000  0.40817847  1
  Cl  Cl1  1  0.25000000  0.25000000  0.59182153  1
  O  O0  1  0.75000000  0.25000000  0.20530593  1
  O  O1  1  0.25000000  0.75000000  0.20459093  1
  O  O2  1  0.25000000  0.75000000  0.79540707  1
  O  O3  1  0.75000000  0.25000000  0.79469607  1
  O  O4  1  0.75000000  0.75000000  0.06138018  1
  O  O5  1  0.25000000  0.25000000  0.93861982  1
loop_
_geom_bond_atom_site_label_1
_geom_bond_atom_site_label_2
_geom_bond_distance
_geom_bond_site_symmetry_2
Mn0 O4 2.059916 1_555
Mn0 O1 2.069125 1_555
Mn0 O1 2.069125 1_655
Mn0 O0 2.071824 1_555
Mn0 O0 2.071824 1_565
Mn1 O5 2.059916 1_555
Mn1 O2 2.069134 1_545
Mn1 O2 2.069134 1_555
Mn1 O3 2.071815 1_455
Mn1 O3 2.071815 1_555
Cl0 Mg0 2.580316 1_565
Cl0 Mg0 2.580316 1_555
Cl1 Mg0 2.580315 1_455
Cl1 Mg0 2.580315 1_555
O0 Sr2 2.398430 1_555
O0 Sr2 2.398430 1_655
O0 Sr0 3.044710 1_555
O0 Sr0 3.044710 1_655
O1 Sr2 2.405174 1_555
O1 Sr2 2.405174 1_565
O1 Sr0 3.035386 1_555
O1 Sr0 3.035386 1_565
O2 Sr3 2.405154 1_455
O2 Sr3 2.405154 1_555
O2 Sr1 3.035411 1_455
O2 Sr1 3.035411 1_555
O3 Sr3 2.398451 1_545
O3 Sr3 2.398451 1_555
O3 Sr1 3.044685 1_555
O3 Sr1 3.044685 1_545
O4 Sr1 2.380502 1_554
O4 Sr0 2.868726 1_565
O4 Sr0 2.868726 1_665
O4 Sr0 2.868726 1_655
O4 Sr0 2.868726 1_555
O5 Sr0 2.380502 1_556
O5 Sr1 2.868726 1_455
O5 Sr1 2.868726 1_555
O5 Sr1 2.868726 1_445
O5 Sr1 2.868726 1_545
