# generated using pymatgen
data_Yb2MgNb2O8
_symmetry_space_group_name_H-M   'P 1'
_cell_length_a   5.27742179
_cell_length_b   5.24558058
_cell_length_c   8.00074894
_cell_angle_alpha   105.62107960
_cell_angle_beta   105.75890615
_cell_angle_gamma   100.23971448
_symmetry_Int_Tables_number   1
_chemical_formula_structural   Yb2MgNb2O8
_chemical_formula_sum   'Yb2 Mg1 Nb2 O8'
_cell_volume   197.62301774
_cell_formula_units_Z   1
loop_
 _symmetry_equiv_pos_site_id
 _symmetry_equiv_pos_as_xyz
  1  'x, y, z'
loop_
 _atom_site_type_symbol
 _atom_site_label
 _atom_site_symmetry_multiplicity
 _atom_site_fract_x
 _atom_site_fract_y
 _atom_site_fract_z
 _atom_site_occupancy
  Yb  Yb0  1  0.15535874  0.40536928  0.81111304  1
  Yb  Yb1  1  0.82283252  0.57284172  0.14605148  1
  Mg  Mg0  1  0.47653396  0.72653233  0.45343596  1
  Nb  Nb0  1  0.67324428  0.92325910  0.84692983  1
  Nb  Nb1  1  0.31730549  0.06731415  0.13494433  1
  O  O0  1  0.78077428  0.02681693  0.65947385  1
  O  O1  1  0.37822986  0.63219591  0.65944055  1
  O  O2  1  0.23979216  0.89781043  0.30620662  1
  O  O3  1  0.56611907  0.40803942  0.30621220  1
  O  O4  1  0.03379257  0.25236902  0.04882765  1
  O  O5  1  0.51469058  0.79612042  0.04885069  1
  O  O6  1  0.95164730  0.73010748  0.92926351  1
  O  O7  1  0.47717918  0.19872380  0.92925029  1
loop_
_geom_bond_atom_site_label_1
_geom_bond_atom_site_label_2
_geom_bond_distance
_geom_bond_site_symmetry_2
Mg0 O2 1.981259 1_555
Mg0 O3 1.981324 1_555
Mg0 O0 2.010295 1_565
Mg0 O1 2.010716 1_555
Nb0 O0 1.912578 1_565
Nb0 O1 1.912621 1_555
Nb0 O7 1.995391 1_565
Nb0 O6 1.995537 1_555
Nb0 O5 2.207020 1_556
Nb0 O4 2.207021 1_666
Nb1 O3 1.914579 1_555
Nb1 O2 1.914867 1_545
Nb1 O5 1.993027 1_545
Nb1 O4 1.993062 1_555
Nb1 O7 2.248056 1_554
Nb1 O6 2.248240 1_444
O0 Yb0 2.308055 1_655
O1 Yb0 2.308029 1_555
O2 Yb1 2.312637 1_455
O3 Yb1 2.312560 1_555
O4 Yb1 2.258789 1_455
O4 Yb0 2.444316 1_554
O5 Yb1 2.258722 1_555
O5 Yb0 2.444283 1_554
O6 Yb0 2.299342 1_655
O6 Yb1 2.315755 1_556
O7 Yb0 2.299399 1_555
O7 Yb1 2.315788 1_556
