# generated using pymatgen
data_Ba(MgSn)2
_symmetry_space_group_name_H-M   'P 1'
_cell_length_a   4.92195755
_cell_length_b   4.92195755
_cell_length_c   24.33244324
_cell_angle_alpha   90.00000000
_cell_angle_beta   90.00000000
_cell_angle_gamma   90.00000000
_symmetry_Int_Tables_number   1
_chemical_formula_structural   Ba(MgSn)2
_chemical_formula_sum   'Ba4 Mg8 Sn8'
_cell_volume   589.46964591
_cell_formula_units_Z   4
loop_
 _symmetry_equiv_pos_site_id
 _symmetry_equiv_pos_as_xyz
  1  'x, y, z'
loop_
 _atom_site_type_symbol
 _atom_site_label
 _atom_site_symmetry_multiplicity
 _atom_site_fract_x
 _atom_site_fract_y
 _atom_site_fract_z
 _atom_site_occupancy
  Ba  Ba0  1  0.00000000  0.50000000  0.37901671  1
  Ba  Ba1  1  0.50000000  0.00000000  0.62098329  1
  Ba  Ba2  1  -0.00000000  0.50000000  0.87149237  1
  Ba  Ba3  1  0.50000000  0.00000000  0.12850763  1
  Mg  Mg0  1  -0.00000000  -0.00000000  0.74829369  1
  Mg  Mg1  1  0.50000000  0.50000000  0.74829369  1
  Mg  Mg2  1  0.00000000  -0.00000000  0.25170631  1
  Mg  Mg3  1  0.50000000  0.50000000  0.25170631  1
  Mg  Mg4  1  0.50000000  0.50000000  -0.00000000  1
  Mg  Mg5  1  0.00000000  -0.00000000  -0.00000000  1
  Mg  Mg6  1  0.50000000  -0.00000000  0.43436220  1
  Mg  Mg7  1  0.00000000  0.50000000  0.56563780  1
  Sn  Sn0  1  0.50000000  0.00000000  0.31778551  1
  Sn  Sn1  1  -0.00000000  0.50000000  0.68221449  1
  Sn  Sn2  1  0.00000000  0.00000000  0.50000000  1
  Sn  Sn3  1  0.50000000  0.50000000  0.50000000  1
  Sn  Sn4  1  0.50000000  -0.00000000  0.81509069  1
  Sn  Sn5  1  -0.00000000  0.50000000  0.18490931  1
  Sn  Sn6  1  0.50000000  -0.00000000  0.93416150  1
  Sn  Sn7  1  0.00000000  0.50000000  0.06583850  1
loop_
_geom_bond_atom_site_label_1
_geom_bond_atom_site_label_2
_geom_bond_distance
_geom_bond_site_symmetry_2
Ba0 Mg6 3.731811 1_465
Ba0 Mg6 3.731811 1_565
Ba0 Mg6 3.731811 1_455
Ba0 Mg6 3.731811 1_555
Ba0 Sn0 3.785849 1_455
Ba0 Sn0 3.785849 1_555
Ba0 Sn0 3.785849 1_565
Ba0 Sn0 3.785849 1_465
Ba0 Sn3 3.836989 1_455
Ba0 Sn2 3.836989 1_555
Ba0 Sn2 3.836989 1_565
Ba0 Sn3 3.836989 1_555
Ba0 Mg2 3.956339 1_555
Ba0 Mg2 3.956339 1_565
Ba0 Mg3 3.956339 1_455
Ba0 Mg3 3.956339 1_555
Ba1 Mg7 3.731811 1_645
Ba1 Mg7 3.731811 1_555
Ba1 Mg7 3.731811 1_655
Ba1 Mg7 3.731811 1_545
Ba1 Sn1 3.785849 1_645
Ba1 Sn1 3.785849 1_545
Ba1 Sn1 3.785849 1_555
Ba1 Sn1 3.785849 1_655
Ba1 Sn3 3.836989 1_545
Ba1 Sn2 3.836989 1_555
Ba1 Sn2 3.836989 1_655
Ba1 Sn3 3.836989 1_555
Ba1 Mg1 3.956339 1_555
Ba1 Mg1 3.956339 1_545
Ba1 Mg0 3.956339 1_655
Ba1 Mg0 3.956339 1_555
Ba2 Sn4 3.741161 1_465
Ba2 Sn4 3.741161 1_565
Ba2 Sn4 3.741161 1_455
Ba2 Sn4 3.741161 1_555
Ba2 Sn6 3.799754 1_455
Ba2 Sn6 3.799754 1_555
Ba2 Sn6 3.799754 1_565
Ba2 Sn6 3.799754 1_465
Ba2 Mg0 3.878501 1_555
Ba2 Mg1 3.878501 1_455
Ba2 Mg0 3.878501 1_565
Ba2 Mg1 3.878501 1_555
Ba2 Mg4 3.979189 1_456
Ba2 Mg5 3.979189 1_566
Ba2 Mg4 3.979189 1_556
Ba2 Mg5 3.979189 1_556
Ba3 Sn5 3.741161 1_545
Ba3 Sn5 3.741161 1_655
Ba3 Sn5 3.741161 1_645
Ba3 Sn5 3.741161 1_555
Ba3 Sn7 3.799754 1_655
Ba3 Sn7 3.799754 1_555
Ba3 Sn7 3.799754 1_645
Ba3 Sn7 3.799754 1_545
Ba3 Mg3 3.878501 1_555
Ba3 Mg2 3.878501 1_655
Ba3 Mg2 3.878501 1_555
Ba3 Mg3 3.878501 1_545
Ba3 Mg5 3.979189 1_655
Ba3 Mg4 3.979189 1_555
Ba3 Mg4 3.979189 1_545
Ba3 Mg5 3.979189 1_555
Mg0 Sn1 2.939670 1_545
Mg0 Sn1 2.939670 1_555
Mg0 Sn4 2.949259 1_455
Mg0 Sn4 2.949259 1_555
Mg1 Sn1 2.939670 1_655
Mg1 Sn1 2.939670 1_555
Mg1 Sn4 2.949259 1_555
Mg1 Sn4 2.949259 1_565
Mg2 Sn0 2.939670 1_455
Mg2 Sn0 2.939670 1_555
Mg2 Sn5 2.949259 1_555
Mg2 Sn5 2.949259 1_545
Mg3 Sn0 2.939670 1_555
Mg3 Sn0 2.939670 1_565
Mg3 Sn5 2.949259 1_555
Mg3 Sn5 2.949259 1_655
Mg4 Sn7 2.936470 1_555
Mg4 Sn7 2.936470 1_655
Mg4 Sn6 2.936470 1_554
Mg4 Sn6 2.936470 1_564
Mg5 Sn7 2.936470 1_555
Mg5 Sn7 2.936470 1_545
Mg5 Sn6 2.936470 1_554
Mg5 Sn6 2.936470 1_454
Mg6 Sn0 2.836596 1_555
Mg6 Sn2 2.933809 1_555
Mg6 Sn2 2.933809 1_655
Mg6 Sn3 2.933809 1_555
Mg6 Sn3 2.933809 1_545
Mg7 Sn1 2.836596 1_555
Mg7 Sn3 2.933809 1_455
Mg7 Sn2 2.933809 1_555
Mg7 Sn2 2.933809 1_565
Mg7 Sn3 2.933809 1_555
Sn4 Sn6 2.897284 1_555
Sn5 Sn7 2.897284 1_555
