# generated using pymatgen
data_Ba6MgCo2(Sb2O9)2
_symmetry_space_group_name_H-M   'P 1'
_cell_length_a   6.01466020
_cell_length_b   6.06343727
_cell_length_c   15.42968103
_cell_angle_alpha   85.14671977
_cell_angle_beta   90.00731436
_cell_angle_gamma   119.76662809
_symmetry_Int_Tables_number   1
_chemical_formula_structural   Ba6MgCo2(Sb2O9)2
_chemical_formula_sum   'Ba6 Mg1 Co2 Sb4 O18'
_cell_volume   486.14359325
_cell_formula_units_Z   1
loop_
 _symmetry_equiv_pos_site_id
 _symmetry_equiv_pos_as_xyz
  1  'x, y, z'
loop_
 _atom_site_type_symbol
 _atom_site_label
 _atom_site_symmetry_multiplicity
 _atom_site_fract_x
 _atom_site_fract_y
 _atom_site_fract_z
 _atom_site_occupancy
  Ba  Ba0  1  0.37768900  0.75560500  0.61770600  1
  Ba  Ba1  1  0.64733900  0.29657100  0.07557300  1
  Ba  Ba2  1  0.61236000  0.22442200  0.37679500  1
  Ba  Ba3  1  0.33957500  0.67766700  0.91773900  1
  Ba  Ba4  1  0.02321000  0.04618600  0.76480500  1
  Ba  Ba5  1  0.96321800  0.92642800  0.22613800  1
  Mg  Mg0  1  0.92079300  0.84022600  0.46148300  1
  Co  Co0  1  0.99518100  0.99170500  0.99858500  1
  Co  Co1  1  0.12484900  0.24955900  0.53520600  1
  Sb  Sb0  1  0.30673600  0.61374100  0.14314200  1
  Sb  Sb1  1  0.69456200  0.38951900  0.65989800  1
  Sb  Sb2  1  0.68263700  0.36463300  0.84906800  1
  Sb  Sb3  1  0.29231600  0.58369000  0.33718700  1
  O  O0  1  0.14426500  0.79378400  0.07421700  1
  O  O1  1  0.14430900  0.28708700  0.08068400  1
  O  O2  1  0.64936100  0.79400300  0.07401000  1
  O  O3  1  0.36322000  0.20013300  0.60512700  1
  O  O4  1  0.84170800  0.68230700  0.90745600  1
  O  O5  1  0.83512400  0.20056500  0.60413200  1
  O  O6  1  0.85534400  0.71224800  0.58644000  1
  O  O7  1  0.13731700  0.74432500  0.40251500  1
  O  O8  1  0.61005800  0.74250500  0.40142900  1
  O  O9  1  0.35443600  0.19806100  0.91756200  1
  O  O10  1  0.84561900  0.19921000  0.91741800  1
  O  O11  1  0.12187400  0.24259300  0.41089800  1
  O  O12  1  0.44891600  0.89705600  0.24427900  1
  O  O13  1  0.54170000  0.52439400  0.75066400  1
  O  O14  1  0.98298600  0.52441700  0.75039000  1
  O  O15  1  0.54238100  0.08407600  0.76277200  1
  O  O16  1  0.44904600  0.44469400  0.25300700  1
  O  O17  1  0.99562800  0.44568100  0.25349600  1
loop_
_geom_bond_atom_site_label_1
_geom_bond_atom_site_label_2
_geom_bond_distance
_geom_bond_site_symmetry_2
Ba0 O5 2.725195 1_565
Ba0 O3 2.730318 1_565
Ba0 O14 2.829050 1_455
Ba0 O13 2.834293 1_555
Ba0 O15 2.958522 1_565
Ba0 O6 3.054069 1_555
Ba0 O6 3.061579 1_455
Ba0 Co1 3.061889 1_555
Ba1 O9 2.933429 1_554
Ba1 O10 2.944369 1_554
Ba1 O1 2.998340 1_555
Ba1 O2 3.008180 1_555
Ba1 O0 3.010800 1_655
Ba1 O1 3.018961 1_655
Ba1 O0 3.049828 1_545
Ba1 O2 3.055476 1_545
Ba1 O4 3.134497 1_554
Ba1 O12 3.183033 1_545
Ba1 O16 3.347368 1_555
Ba1 O17 3.358622 1_555
Ba2 O17 2.689186 1_555
Ba2 O16 2.695809 1_555
Ba2 O12 2.799265 1_545
Ba2 O7 2.888153 1_545
Ba2 O8 2.907761 1_545
Ba2 O11 3.053703 1_555
Ba2 O11 3.058537 1_655
Ba2 O8 3.202820 1_555
Ba2 O7 3.223770 1_655
Ba3 O10 2.947422 1_455
Ba3 O9 2.953685 1_555
Ba3 O2 2.960550 1_556
Ba3 O0 2.968947 1_556
Ba3 O4 3.010370 1_555
Ba3 O4 3.012603 1_455
Ba3 O15 3.049061 1_565
Ba3 O1 3.088788 1_556
Ba3 O9 3.111734 1_565
Ba3 O10 3.115223 1_565
Ba3 O13 3.242740 1_555
Ba3 O14 3.249094 1_455
Ba4 O4 2.773391 1_445
Ba4 O3 2.973285 1_555
Ba4 O10 2.983491 1_455
Ba4 O9 2.986098 1_555
Ba4 O5 2.993356 1_455
Ba4 O15 3.012649 1_455
Ba4 O15 3.015144 1_555
Ba4 O13 3.015794 1_555
Ba4 O14 3.017257 1_455
Ba4 O13 3.076288 1_445
Ba4 O14 3.078333 1_445
Ba4 O6 3.406713 1_445
Ba5 O1 2.794745 1_665
Ba5 O0 2.918339 1_655
Ba5 O2 2.920751 1_555
Ba5 O17 3.011525 1_555
Ba5 O16 3.015598 1_555
Ba5 O12 3.020539 1_555
Ba5 O12 3.025238 1_655
Ba5 O16 3.112560 1_665
Ba5 O17 3.121607 1_565
Ba5 O8 3.195298 1_555
Ba5 O7 3.218823 1_655
Ba5 O11 3.438063 1_665
Mg0 O8 1.922396 1_555
Mg0 O7 1.924517 1_655
Mg0 O6 1.979445 1_555
Mg0 O11 2.184577 1_665
Co0 O1 2.098925 1_666
Co0 O2 2.099174 1_556
Co0 O0 2.106501 1_656
Co0 O10 2.194913 1_565
Co0 O9 2.202037 1_665
Co0 O4 2.252807 1_555
Co1 O3 1.918552 1_555
Co1 O5 1.920660 1_455
Co1 O11 1.921953 1_555
O0 Sb0 2.034763 1_555
O1 Sb0 2.051228 1_555
O2 Sb0 2.036177 1_555
O3 Sb1 1.973821 1_555
O4 Sb2 1.975039 1_555
O5 Sb1 1.973971 1_555
O6 Sb1 1.948098 1_555
O7 Sb3 1.975303 1_555
O8 Sb3 1.973799 1_555
O9 Sb2 1.968248 1_555
O10 Sb2 1.968832 1_555
O11 Sb3 2.029536 1_555
O12 Sb3 2.077236 1_555
O12 Sb0 2.261005 1_555
O13 Sb1 2.101480 1_555
O13 Sb2 2.128021 1_555
O14 Sb1 2.100410 1_555
O14 Sb2 2.129215 1_555
O15 Sb2 2.082433 1_555
O15 Sb1 2.146418 1_555
O16 Sb3 2.064079 1_555
O16 Sb0 2.287727 1_555
O17 Sb3 2.061957 1_655
O17 Sb0 2.291940 1_655
