# generated using pymatgen
data_MgCo6O7F5
_symmetry_space_group_name_H-M   'P 1'
_cell_length_a   5.06048181
_cell_length_b   5.01129080
_cell_length_c   8.63267002
_cell_angle_alpha   88.40982004
_cell_angle_beta   92.88188215
_cell_angle_gamma   101.99792616
_symmetry_Int_Tables_number   1
_chemical_formula_structural   MgCo6O7F5
_chemical_formula_sum   'Mg1 Co6 O7 F5'
_cell_volume   213.83394670
_cell_formula_units_Z   1
loop_
 _symmetry_equiv_pos_site_id
 _symmetry_equiv_pos_as_xyz
  1  'x, y, z'
loop_
 _atom_site_type_symbol
 _atom_site_label
 _atom_site_symmetry_multiplicity
 _atom_site_fract_x
 _atom_site_fract_y
 _atom_site_fract_z
 _atom_site_occupancy
  Mg  Mg0  1  0.04237631  0.50533556  0.01133592  1
  Co  Co0  1  0.98679278  0.99435941  0.99468428  1
  Co  Co1  1  0.02101041  0.01803348  0.33982326  1
  Co  Co2  1  0.98972676  0.00186529  0.64564164  1
  Co  Co3  1  0.56320579  0.38945182  0.17678557  1
  Co  Co4  1  0.51142178  0.48384915  0.82129331  1
  Co  Co5  1  0.42750210  0.55518033  0.49986488  1
  O  O0  1  0.17133720  0.82534912  0.48065858  1
  O  O1  1  0.31002819  0.31127099  0.33834897  1
  O  O2  1  0.31322642  0.28373540  0.98981188  1
  O  O3  1  0.28876367  0.32061582  0.65929689  1
  O  O4  1  0.65926748  0.71483967  0.66026515  1
  O  O5  1  0.71128463  0.66460143  0.99631695  1
  O  O6  1  0.86147823  0.18016469  0.15701856  1
  F  F0  1  0.17971129  0.79378928  0.16201034  1
  F  F1  1  0.15230712  0.80044690  0.84126562  1
  F  F2  1  0.68118825  0.71644957  0.33004690  1
  F  F3  1  0.82761435  0.22587767  0.83168562  1
  F  F4  1  0.81564724  0.20089642  0.47812567  1
loop_
_geom_bond_atom_site_label_1
_geom_bond_atom_site_label_2
_geom_bond_distance
_geom_bond_site_symmetry_2
Mg0 O2 1.953522 1_554
Mg0 O5 1.997358 1_454
Mg0 O6 2.111123 1_455
Co0 O6 1.907951 1_566
Co0 O5 1.928112 1_555
Co0 O2 1.959890 1_665
Co0 F1 1.980222 1_655
Co0 F3 2.039332 1_565
Co0 F0 2.058013 1_656
Co1 O0 1.771003 1_545
Co1 O1 1.845529 1_555
Co1 O6 1.968678 1_455
Co1 F4 1.981572 1_455
Co1 F2 2.039712 1_445
Co1 F0 2.204298 1_545
Co2 O3 1.960347 1_655
Co2 O4 1.972939 1_545
Co2 F4 2.004800 1_555
Co2 O0 2.048194 1_645
Co2 F1 2.158369 1_645
Co2 F3 2.264522 1_555
Co3 O1 1.918565 1_555
Co3 O2 2.012388 1_554
Co3 O6 2.025188 1_555
Co3 F2 2.103890 1_555
Co3 O5 2.111514 1_554
Co4 O3 1.848313 1_555
Co4 O4 1.867432 1_555
Co4 O5 1.915126 1_555
Co4 O2 1.943071 1_555
Co4 F3 2.253600 1_555
Co5 O3 1.852885 1_555
Co5 O4 1.855025 1_555
Co5 O1 1.871008 1_555
Co5 F2 2.035303 1_555
Co5 O0 2.058292 1_555
F0 Mg0 1.964741 1_555
F1 Mg0 2.066799 1_556
F3 Mg0 2.205863 1_656
