# generated using pymatgen
data_Ta2CrO6
_symmetry_space_group_name_H-M   'P 1'
_cell_length_a   4.69836175
_cell_length_b   9.39752948
_cell_length_c   9.12975406
_cell_angle_alpha   89.99990125
_cell_angle_beta   90.00004184
_cell_angle_gamma   90.00085086
_symmetry_Int_Tables_number   1
_chemical_formula_structural   Ta2CrO6
_chemical_formula_sum   'Ta8 Cr4 O24'
_cell_volume   403.10596757
_cell_formula_units_Z   4
loop_
 _symmetry_equiv_pos_site_id
 _symmetry_equiv_pos_as_xyz
  1  'x, y, z'
loop_
 _atom_site_type_symbol
 _atom_site_label
 _atom_site_symmetry_multiplicity
 _atom_site_fract_x
 _atom_site_fract_y
 _atom_site_fract_z
 _atom_site_occupancy
  Ta  Ta0  1  0.49997673  0.24995183  0.16179376  1
  Ta  Ta1  1  0.49996322  0.74998739  0.16176317  1
  Ta  Ta2  1  -0.00002870  0.00005577  0.66177922  1
  Ta  Ta3  1  -0.00003885  0.50000853  0.66178804  1
  Ta  Ta4  1  0.49996735  0.24994973  0.83820648  1
  Ta  Ta5  1  0.49996271  0.74998918  0.83823435  1
  Ta  Ta6  1  -0.00002400  0.00005143  0.33822506  1
  Ta  Ta7  1  -0.00002886  0.50000537  0.33821036  1
  Cr  Cr0  1  0.49999831  0.75007650  0.49999949  1
  Cr  Cr1  1  0.00000114  0.49990946  -0.00000152  1
  Cr  Cr2  1  0.49999787  0.25007706  0.49999977  1
  Cr  Cr3  1  -0.00001206  0.99993790  0.00000114  1
  O  O0  1  0.29656769  0.14827077  0.00000430  1
  O  O1  1  0.29657058  0.64828676  0.00000138  1
  O  O2  1  0.20353901  0.39836948  0.49999734  1
  O  O3  1  0.20347522  0.89840195  0.49999867  1
  O  O4  1  0.79652572  0.10174513  0.49999879  1
  O  O5  1  0.79660633  0.60170383  0.49999628  1
  O  O6  1  0.70351200  0.35159679  0.00000064  1
  O  O7  1  0.70348317  0.85163069  0.00000203  1
  O  O8  1  0.30174450  0.15092961  0.33268822  1
  O  O9  1  0.30171299  0.65091801  0.33264584  1
  O  O10  1  0.19826923  0.40086164  0.83262098  1
  O  O11  1  0.19825778  0.90088239  0.83264748  1
  O  O12  1  0.80170850  0.09906052  0.83267943  1
  O  O13  1  0.80174913  0.59908176  0.83269071  1
  O  O14  1  0.80171061  0.09906318  0.16732612  1
  O  O15  1  0.80174882  0.59908260  0.16731050  1
  O  O16  1  0.19827280  0.40086441  0.16737927  1
  O  O17  1  0.19825797  0.90088220  0.16735813  1
  O  O18  1  0.69825723  0.34911312  0.33263056  1
  O  O19  1  0.69828927  0.84914526  0.33259916  1
  O  O20  1  0.30174678  0.15092900  0.66730710  1
  O  O21  1  0.30171273  0.65091866  0.66735208  1
  O  O22  1  0.69825609  0.34911291  0.66736693  1
  O  O23  1  0.69828897  0.84914518  0.66739674  1
loop_
_geom_bond_atom_site_label_1
_geom_bond_atom_site_label_2
_geom_bond_distance
_geom_bond_site_symmetry_2
Cr0 O3 1.970768 1_555
Cr0 O5 1.971364 1_555
Cr0 O23 2.017519 1_555
Cr0 O19 2.017540 1_555
Cr0 O21 2.017585 1_555
Cr0 O9 2.017596 1_555
Cr1 O6 1.970541 1_455
Cr1 O1 1.971237 1_555
Cr1 O10 2.017257 1_554
Cr1 O16 2.017272 1_555
Cr1 O13 2.017276 1_454
Cr1 O15 2.017314 1_455
Cr2 O2 1.970335 1_555
Cr2 O4 1.970827 1_555
Cr2 O22 2.017098 1_555
Cr2 O18 2.017114 1_555
Cr2 O20 2.017154 1_555
Cr2 O8 2.017187 1_555
Cr3 O7 1.970556 1_455
Cr3 O0 1.970976 1_565
Cr3 O11 2.017129 1_554
Cr3 O17 2.017150 1_555
Cr3 O12 2.017217 1_464
Cr3 O14 2.017250 1_465
O0 Ta0 2.002052 1_555
O0 Ta4 2.002077 1_554
O1 Ta1 2.001917 1_555
O1 Ta5 2.001958 1_554
O2 Ta7 2.002200 1_555
O2 Ta3 2.002266 1_555
O3 Ta6 2.002017 1_565
O3 Ta2 2.002098 1_565
O4 Ta6 2.002110 1_655
O4 Ta2 2.002122 1_655
O5 Ta3 2.002021 1_655
O5 Ta7 2.002022 1_655
O6 Ta0 2.002197 1_555
O6 Ta4 2.002236 1_554
O7 Ta1 2.001940 1_555
O7 Ta5 2.001978 1_554
O8 Ta6 2.005765 1_555
O8 Ta0 2.041486 1_555
O9 Ta7 2.005911 1_555
O9 Ta1 2.041644 1_555
O10 Ta4 2.005796 1_555
O10 Ta3 2.041765 1_555
O11 Ta5 2.005695 1_555
O11 Ta2 2.042079 1_565
O12 Ta4 2.005775 1_555
O12 Ta2 2.041532 1_655
O13 Ta5 2.006050 1_555
O13 Ta3 2.041734 1_655
O14 Ta0 2.005748 1_555
O14 Ta6 2.041555 1_655
O15 Ta1 2.006030 1_555
O15 Ta7 2.041750 1_655
O16 Ta0 2.005820 1_555
O16 Ta7 2.041717 1_555
O17 Ta1 2.005708 1_555
O17 Ta6 2.042046 1_565
O18 Ta7 2.005687 1_655
O18 Ta0 2.041785 1_555
O19 Ta6 2.005700 1_665
O19 Ta1 2.041862 1_555
O20 Ta2 2.005753 1_555
O20 Ta4 2.041490 1_555
O21 Ta3 2.005927 1_555
O21 Ta5 2.041647 1_555
O22 Ta3 2.005680 1_655
O22 Ta4 2.041828 1_555
O23 Ta2 2.005713 1_665
O23 Ta5 2.041864 1_555
