# generated using pymatgen
data_Sr(H9O5)2
_symmetry_space_group_name_H-M   'P 1'
_cell_length_a   9.02287600
_cell_length_b   9.02287600
_cell_length_c   11.52481700
_cell_angle_alpha   90.00000000
_cell_angle_beta   90.00000000
_cell_angle_gamma   90.00000000
_symmetry_Int_Tables_number   1
_chemical_formula_structural   Sr(H9O5)2
_chemical_formula_sum   'Sr4 H72 O40'
_cell_volume   938.26175891
_cell_formula_units_Z   4
loop_
 _symmetry_equiv_pos_site_id
 _symmetry_equiv_pos_as_xyz
  1  'x, y, z'
loop_
 _atom_site_type_symbol
 _atom_site_label
 _atom_site_symmetry_multiplicity
 _atom_site_fract_x
 _atom_site_fract_y
 _atom_site_fract_z
 _atom_site_occupancy
  Sr  Sr0  1  0.00000000  0.00000000  0.75000000  1
  Sr  Sr1  1  0.50000000  0.50000000  0.75000000  1
  Sr  Sr2  1  0.50000000  0.50000000  0.25000000  1
  Sr  Sr3  1  0.00000000  0.00000000  0.25000000  1
  H  H0  1  0.71199000  0.59319100  0.46378000  1
  H  H1  1  0.28801000  0.40680900  0.46378000  1
  H  H2  1  0.59319100  0.71199000  0.03622000  1
  H  H3  1  0.09319100  0.78801000  0.46378000  1
  H  H4  1  0.90680900  0.21199000  0.46378000  1
  H  H5  1  0.78801000  0.09319100  0.03622000  1
  H  H6  1  0.21199000  0.90680900  0.03622000  1
  H  H7  1  0.40680900  0.28801000  0.03622000  1
  H  H8  1  0.78801000  0.90680900  0.53622000  1
  H  H9  1  0.21199000  0.09319100  0.53622000  1
  H  H10  1  0.90680900  0.78801000  0.96378000  1
  H  H11  1  0.40680900  0.71199000  0.53622000  1
  H  H12  1  0.59319100  0.28801000  0.53622000  1
  H  H13  1  0.71199000  0.40680900  0.96378000  1
  H  H14  1  0.28801000  0.59319100  0.96378000  1
  H  H15  1  0.09319100  0.21199000  0.96378000  1
  H  H16  1  0.82904300  0.55890100  0.36376500  1
  H  H17  1  0.17095700  0.44109900  0.36376500  1
  H  H18  1  0.55890100  0.82904300  0.13623500  1
  H  H19  1  0.05890100  0.67095700  0.36376500  1
  H  H20  1  0.94109900  0.32904300  0.36376500  1
  H  H21  1  0.67095700  0.05890100  0.13623500  1
  H  H22  1  0.32904300  0.94109900  0.13623500  1
  H  H23  1  0.44109900  0.17095700  0.13623500  1
  H  H24  1  0.67095700  0.94109900  0.63623500  1
  H  H25  1  0.32904300  0.05890100  0.63623500  1
  H  H26  1  0.94109900  0.67095700  0.86376500  1
  H  H27  1  0.44109900  0.82904300  0.63623500  1
  H  H28  1  0.70808100  0.26152900  0.37175700  1
  H  H29  1  0.55890100  0.17095700  0.63623500  1
  H  H30  1  0.17095700  0.55890100  0.86376500  1
  H  H31  1  0.05890100  0.32904300  0.86376500  1
  H  H32  1  0.73847100  0.70808100  0.62824300  1
  H  H33  1  0.26152900  0.29191900  0.62824300  1
  H  H34  1  0.70808100  0.73847100  0.87175700  1
  H  H35  1  0.20808100  0.76152900  0.62824300  1
  H  H36  1  0.79191900  0.23847100  0.62824300  1
  H  H37  1  0.76152900  0.20808100  0.87175700  1
  H  H38  1  0.23847100  0.79191900  0.87175700  1
  H  H39  1  0.29191900  0.26152900  0.87175700  1
  H  H40  1  0.76152900  0.79191900  0.37175700  1
  H  H41  1  0.23847100  0.20808100  0.37175700  1
  H  H42  1  0.79191900  0.76152900  0.12824300  1
  H  H43  1  0.29191900  0.73847100  0.37175700  1
  H  H44  1  0.00000000  0.50000000  0.01477700  1
  H  H45  1  0.50000000  0.00000000  0.48522300  1
  H  H46  1  0.50000000  0.00000000  0.98522300  1
  H  H47  1  0.00000000  0.50000000  0.51477700  1
  H  H48  1  0.00000000  0.50000000  0.25907100  1
  H  H49  1  0.50000000  0.00000000  0.24092900  1
  H  H50  1  0.50000000  0.00000000  0.74092900  1
  H  H51  1  0.00000000  0.50000000  0.75907100  1
  H  H52  1  0.05625400  0.32654000  0.11955000  1
  H  H53  1  0.17346000  0.55625400  0.11955000  1
  H  H54  1  0.82654000  0.44374600  0.11955000  1
  H  H55  1  0.55625400  0.17346000  0.38045000  1
  H  H56  1  0.44374600  0.82654000  0.38045000  1
  H  H57  1  0.94374600  0.67346000  0.11955000  1
  H  H58  1  0.32654000  0.05625400  0.38045000  1
  H  H59  1  0.67346000  0.94374600  0.38045000  1
  H  H60  1  0.44374600  0.17346000  0.88045000  1
  H  H61  1  0.32654000  0.94374600  0.88045000  1
  H  H62  1  0.67346000  0.05625400  0.88045000  1
  H  H63  1  0.94374600  0.32654000  0.61955000  1
  H  H64  1  0.05625400  0.67346000  0.61955000  1
  H  H65  1  0.55625400  0.82654000  0.88045000  1
  H  H66  1  0.17346000  0.44374600  0.61955000  1
  H  H67  1  0.82654000  0.55625400  0.61955000  1
  H  H68  1  0.20808100  0.23847100  0.12824300  1
  H  H69  1  0.26152900  0.70808100  0.12824300  1
  H  H70  1  0.73847100  0.29191900  0.12824300  1
  H  H71  1  0.82904300  0.44109900  0.86376500  1
  O  O0  1  0.72576800  0.60084700  0.37813100  1
  O  O1  1  0.27423200  0.39915300  0.37813100  1
  O  O2  1  0.60084700  0.72576800  0.12186900  1
  O  O3  1  0.10084700  0.77423200  0.37813100  1
  O  O4  1  0.89915300  0.22576800  0.37813100  1
  O  O5  1  0.77423200  0.10084700  0.12186900  1
  O  O6  1  0.22576800  0.89915300  0.12186900  1
  O  O7  1  0.39915300  0.27423200  0.12186900  1
  O  O8  1  0.77423200  0.89915300  0.62186900  1
  O  O9  1  0.22576800  0.10084700  0.62186900  1
  O  O10  1  0.89915300  0.77423200  0.87813100  1
  O  O11  1  0.39915300  0.72576800  0.62186900  1
  O  O12  1  0.60084700  0.27423200  0.62186900  1
  O  O13  1  0.72576800  0.39915300  0.87813100  1
  O  O14  1  0.27423200  0.60084700  0.87813100  1
  O  O15  1  0.10084700  0.22576800  0.87813100  1
  O  O16  1  0.72242100  0.59878900  0.62017100  1
  O  O17  1  0.27757900  0.40121100  0.62017100  1
  O  O18  1  0.59878900  0.72242100  0.87982900  1
  O  O19  1  0.09878900  0.77757900  0.62017100  1
  O  O20  1  0.90121100  0.22242100  0.62017100  1
  O  O21  1  0.77757900  0.09878900  0.87982900  1
  O  O22  1  0.22242100  0.90121100  0.87982900  1
  O  O23  1  0.40121100  0.27757900  0.87982900  1
  O  O24  1  0.77757900  0.90121100  0.37982900  1
  O  O25  1  0.22242100  0.09878900  0.37982900  1
  O  O26  1  0.90121100  0.77757900  0.12017100  1
  O  O27  1  0.40121100  0.72242100  0.37982900  1
  O  O28  1  0.59878900  0.27757900  0.37982900  1
  O  O29  1  0.72242100  0.40121100  0.12017100  1
  O  O30  1  0.27757900  0.59878900  0.12017100  1
  O  O31  1  0.09878900  0.22242100  0.12017100  1
  O  O32  1  0.00000000  0.50000000  0.84427600  1
  O  O33  1  0.50000000  0.00000000  0.65572400  1
  O  O34  1  0.50000000  0.00000000  0.15572400  1
  O  O35  1  0.00000000  0.50000000  0.34427600  1
  O  O36  1  0.00000000  0.50000000  0.59987700  1
  O  O37  1  0.50000000  0.00000000  0.90012300  1
  O  O38  1  0.50000000  0.00000000  0.40012300  1
  O  O39  1  0.00000000  0.50000000  0.09987700  1
loop_
_geom_bond_atom_site_label_1
_geom_bond_atom_site_label_2
_geom_bond_distance
_geom_bond_site_symmetry_2
H0 O0 0.997282 1_555
H1 O1 0.997282 1_555
H2 O2 0.997282 1_555
H3 O3 0.997282 1_555
H4 O4 0.997282 1_555
H5 O5 0.997282 1_555
H6 O6 0.997282 1_555
H7 O7 0.997282 1_555
H8 O8 0.997282 1_555
H9 O9 0.997282 1_555
H10 O10 0.997282 1_555
H11 O11 0.997282 1_555
H12 O12 0.997282 1_555
H13 O13 0.997282 1_555
H14 O14 0.997282 1_555
H15 O15 0.997282 1_555
H16 O0 1.019301 1_555
H16 O35 1.646898 1_655
H17 O1 1.019301 1_555
H17 O35 1.646898 1_555
H18 O2 1.019301 1_555
H18 O34 1.646898 1_565
H19 O3 1.019301 1_555
H19 O35 1.646898 1_555
H20 O4 1.019301 1_555
H20 O35 1.646898 1_655
H21 O5 1.019301 1_555
H21 O34 1.646898 1_555
H22 O6 1.019301 1_555
H22 O34 1.646898 1_565
H23 O7 1.019301 1_555
H23 O34 1.646898 1_555
H24 O8 1.019301 1_555
H24 O33 1.646898 1_565
H25 O9 1.019301 1_555
H25 O33 1.646898 1_555
H26 O10 1.019301 1_555
H26 O32 1.646898 1_655
H27 O11 1.019301 1_555
H27 O33 1.646898 1_565
H28 O28 1.001037 1_555
H29 O12 1.019301 1_555
H29 O33 1.646898 1_555
H30 O14 1.019301 1_555
H30 O32 1.646898 1_555
H31 O15 1.019301 1_555
H31 O32 1.646898 1_555
H32 O16 1.001037 1_555
H33 O17 1.001037 1_555
H34 O18 1.001037 1_555
H35 O19 1.001037 1_555
H36 O20 1.001037 1_555
H37 O21 1.001037 1_555
H38 O22 1.001037 1_555
H39 O23 1.001037 1_555
H40 O24 1.001037 1_555
H41 O25 1.001037 1_555
H42 O26 1.001037 1_555
H43 O27 1.001037 1_555
H44 O39 0.980762 1_555
H45 O38 0.980762 1_555
H46 O37 0.980762 1_555
H47 O36 0.980762 1_555
H48 O35 0.981972 1_555
H49 O34 0.981972 1_555
H50 O33 0.981972 1_555
H51 O32 0.981972 1_555
H52 O31 1.014848 1_555
H53 O30 1.014848 1_555
H54 O29 1.014848 1_555
H55 O28 1.014848 1_555
H56 O27 1.014848 1_555
H57 O26 1.014848 1_555
H58 O25 1.014848 1_555
H59 O24 1.014848 1_555
H60 O23 1.014848 1_555
H61 O22 1.014848 1_555
H62 O21 1.014848 1_555
H63 O20 1.014848 1_555
H64 O19 1.014848 1_555
H65 O18 1.014848 1_555
H66 O17 1.014848 1_555
H67 O16 1.014848 1_555
H68 O31 1.001037 1_555
H69 O30 1.001037 1_555
H70 O29 1.001037 1_555
H71 O13 1.019301 1_555
H71 O32 1.646898 1_655
O0 Sr2 2.675492 1_555
O1 Sr2 2.675492 1_555
O2 Sr2 2.675492 1_555
O3 Sr3 2.675492 1_565
O4 Sr3 2.675492 1_655
O5 Sr3 2.675492 1_655
O6 Sr3 2.675492 1_565
O7 Sr2 2.675492 1_555
O8 Sr0 2.675492 1_665
O9 Sr0 2.675492 1_555
O10 Sr0 2.675492 1_665
O11 Sr1 2.675492 1_555
O12 Sr1 2.675492 1_555
O13 Sr1 2.675492 1_555
O14 Sr1 2.675492 1_555
O15 Sr0 2.675492 1_555
O16 Sr1 2.657228 1_555
O17 Sr1 2.657228 1_555
O18 Sr1 2.657228 1_555
O19 Sr0 2.657228 1_565
O20 Sr0 2.657228 1_655
O21 Sr0 2.657228 1_655
O22 Sr0 2.657228 1_565
O23 Sr1 2.657228 1_555
O24 Sr3 2.657228 1_665
O25 Sr3 2.657228 1_555
O26 Sr3 2.657228 1_665
O27 Sr2 2.657228 1_555
O28 Sr2 2.657228 1_555
O29 Sr2 2.657228 1_555
O30 Sr2 2.657228 1_555
O31 Sr3 2.657228 1_555
