# generated using pymatgen
data_Na2Mg(CoO2)2
_symmetry_space_group_name_H-M   'P 1'
_cell_length_a   3.47785714
_cell_length_b   3.44159933
_cell_length_c   10.95893167
_cell_angle_alpha   90.00000000
_cell_angle_beta   90.00000000
_cell_angle_gamma   120.34910097
_symmetry_Int_Tables_number   1
_chemical_formula_structural   Na2Mg(CoO2)2
_chemical_formula_sum   'Na2 Mg1 Co2 O4'
_cell_volume   113.19633732
_cell_formula_units_Z   1
loop_
 _symmetry_equiv_pos_site_id
 _symmetry_equiv_pos_as_xyz
  1  'x, y, z'
loop_
 _atom_site_type_symbol
 _atom_site_label
 _atom_site_symmetry_multiplicity
 _atom_site_fract_x
 _atom_site_fract_y
 _atom_site_fract_z
 _atom_site_occupancy
  Na  Na0  1  0.51976013  0.03951925  0.25000000  1
  Na  Na1  1  0.51362586  0.02725273  0.75000000  1
  Mg  Mg0  1  0.17658248  0.35316496  0.75000000  1
  Co  Co0  1  0.85571991  0.71143981  0.46240312  1
  Co  Co1  1  0.85571991  0.71143981  0.03759688  1
  O  O0  1  0.19003471  0.38006843  0.40272432  1
  O  O1  1  0.84926114  0.69852329  0.64309115  1
  O  O2  1  0.84926114  0.69852329  0.85690885  1
  O  O3  1  0.19003471  0.38006843  0.09727568  1
loop_
_geom_bond_atom_site_label_1
_geom_bond_atom_site_label_2
_geom_bond_distance
_geom_bond_site_symmetry_2
Na0 O3 2.576272 1_545
Na0 O0 2.576272 1_545
Na0 O3 2.616888 1_555
Na0 O0 2.616888 1_555
Na0 O3 2.616888 1_655
Na0 O0 2.616888 1_655
Na1 O2 2.312428 1_555
Na1 O1 2.312428 1_555
Na1 O2 2.312948 1_545
Na1 O1 2.312948 1_545
Na1 O2 2.312949 1_445
Na1 O1 2.312949 1_445
Mg0 Na1 1.990174 1_555
Mg0 Na1 1.990178 1_455
Mg0 Na1 2.002022 1_565
Mg0 O2 2.269987 1_445
Mg0 O1 2.269987 1_445
Mg0 O2 2.334224 1_555
Mg0 O1 2.334224 1_555
Mg0 O1 2.334226 1_455
Mg0 O2 2.334226 1_455
Co0 O1 1.980519 1_555
Co0 O0 2.090735 1_665
Co0 O0 2.102423 1_555
Co0 O0 2.102425 1_655
Co1 O2 1.980519 1_554
Co1 O3 2.090735 1_665
Co1 O3 2.102423 1_555
Co1 O3 2.102425 1_655
