# generated using pymatgen
data_MgMn6O7F5
_symmetry_space_group_name_H-M   'P 1'
_cell_length_a   5.20577050
_cell_length_b   8.18539279
_cell_length_c   5.92568141
_cell_angle_alpha   99.98858521
_cell_angle_beta   99.38534660
_cell_angle_gamma   79.43397386
_symmetry_Int_Tables_number   1
_chemical_formula_structural   MgMn6O7F5
_chemical_formula_sum   'Mg1 Mn6 O7 F5'
_cell_volume   242.19961355
_cell_formula_units_Z   1
loop_
 _symmetry_equiv_pos_site_id
 _symmetry_equiv_pos_as_xyz
  1  'x, y, z'
loop_
 _atom_site_type_symbol
 _atom_site_label
 _atom_site_symmetry_multiplicity
 _atom_site_fract_x
 _atom_site_fract_y
 _atom_site_fract_z
 _atom_site_occupancy
  Mg  Mg0  1  0.50336685  0.66716618  0.66522365  1
  Mn  Mn0  1  0.50552711  0.01898659  0.47751857  1
  Mn  Mn1  1  0.51521196  0.66717695  0.17222942  1
  Mn  Mn2  1  0.47820436  0.29372333  0.86725895  1
  Mn  Mn3  1  0.99145978  0.67434432  0.64240915  1
  Mn  Mn4  1  0.97258214  0.32938500  0.34414654  1
  Mn  Mn5  1  0.02262876  0.99532347  0.98620826  1
  O  O0  1  0.82295090  0.48293506  0.58644766  1
  O  O1  1  0.71236750  0.09078707  0.77715518  1
  O  O2  1  0.68008511  0.78723581  0.47846136  1
  O  O3  1  0.68627797  0.41816862  0.12294618  1
  O  O4  1  0.28482273  0.23277696  0.55174314  1
  O  O5  1  0.30445437  0.90758154  0.20477336  1
  O  O6  1  0.18548490  0.85218075  0.73921984  1
  F  F0  1  0.75511669  0.73800593  0.94189042  1
  F  F1  1  0.81824996  0.09745733  0.25205562  1
  F  F2  1  0.31016846  0.54743773  0.84722474  1
  F  F3  1  0.25247572  0.58139423  0.39392238  1
  F  F4  1  0.18467274  0.23459714  0.06821458  1
loop_
_geom_bond_atom_site_label_1
_geom_bond_atom_site_label_2
_geom_bond_distance
_geom_bond_site_symmetry_2
Mg0 O2 2.019400 1_555
Mg0 O6 2.076385 1_555
Mg0 O0 2.085383 1_555
Mn0 O4 1.932954 1_555
Mn0 O2 1.947851 1_545
Mn0 O5 1.956106 1_545
Mn0 O1 1.975841 1_555
Mn1 O2 2.044026 1_555
Mn1 O3 2.060432 1_555
Mn1 O5 2.063682 1_555
Mn2 O1 1.921544 1_555
Mn2 O3 1.959716 1_556
Mn2 O4 2.001161 1_555
Mn3 O6 1.878507 1_655
Mn3 O0 1.887629 1_555
Mn3 O2 1.916683 1_555
Mn4 O0 1.904648 1_555
Mn4 O3 1.940022 1_555
Mn4 O4 1.998653 1_655
Mn5 O5 1.913685 1_556
Mn5 O6 1.918109 1_555
Mn5 O1 1.993557 1_465
F0 Mg0 1.997423 1_555
F0 Mn1 2.203374 1_556
F0 Mn3 2.256280 1_555
F0 Mn5 2.684982 1_655
F1 Mn5 2.018942 1_644
F1 Mn4 2.145751 1_555
F1 Mn0 2.497665 1_555
F2 Mg0 2.053531 1_555
F2 Mn3 2.110287 1_455
F2 Mn2 2.116038 1_555
F2 Mn1 2.206214 1_556
F3 Mg0 2.010773 1_555
F3 Mn3 2.116144 1_455
F3 Mn1 2.312517 1_555
F3 Mn4 2.686296 1_455
F4 Mn4 2.080637 1_455
F4 Mn5 2.219393 1_544
F4 Mn2 2.247620 1_554
