# generated using pymatgen
data_MgMn4Zn2O8
_symmetry_space_group_name_H-M   'P 1'
_cell_length_a   6.41986905
_cell_length_b   6.27214234
_cell_length_c   6.20983492
_cell_angle_alpha   86.91124477
_cell_angle_beta   120.62368103
_cell_angle_gamma   120.99209373
_symmetry_Int_Tables_number   1
_chemical_formula_structural   MgMn4Zn2O8
_chemical_formula_sum   'Mg1 Mn4 Zn2 O8'
_cell_volume   176.94014106
_cell_formula_units_Z   1
loop_
 _symmetry_equiv_pos_site_id
 _symmetry_equiv_pos_as_xyz
  1  'x, y, z'
loop_
 _atom_site_type_symbol
 _atom_site_label
 _atom_site_symmetry_multiplicity
 _atom_site_fract_x
 _atom_site_fract_y
 _atom_site_fract_z
 _atom_site_occupancy
  Mg  Mg0  1  0.29898800  0.65052000  0.89945600  1
  Mn  Mn0  1  0.48014700  0.98035700  0.48861100  1
  Mn  Mn1  1  0.48047500  0.49990800  0.49147300  1
  Mn  Mn2  1  0.87292900  0.43625600  0.96412500  1
  Mn  Mn3  1  0.87397300  0.43642700  0.40928600  1
  Zn  Zn0  1  0.16249000  0.08161100  0.83170400  1
  Zn  Zn1  1  0.87880400  0.93897100  0.19096000  1
  O  O0  1  0.04087600  0.73796700  0.26707300  1
  O  O1  1  0.53510900  0.78740500  0.75797000  1
  O  O2  1  0.53642500  0.74855300  0.27689700  1
  O  O3  1  0.95384500  0.69200600  0.72402400  1
  O  O4  1  0.43439300  0.24240200  0.69817100  1
  O  O5  1  0.43515900  0.19202500  0.23627200  1
  O  O6  1  0.04119300  0.30253200  0.27332500  1
  O  O7  1  0.95435900  0.26264500  0.73023600  1
loop_
_geom_bond_atom_site_label_1
_geom_bond_atom_site_label_2
_geom_bond_distance
_geom_bond_site_symmetry_2
Mg0 O1 1.934479 1_555
Mg0 O2 1.935302 1_556
Mg0 O3 2.065946 1_455
Mg0 O7 2.069195 1_455
Mn0 O1 2.001825 1_555
Mn0 O5 2.002752 1_565
Mn0 O0 2.003562 1_555
Mn0 O7 2.176207 1_565
Mn0 O2 2.281168 1_555
Mn0 O4 2.366056 1_565
Mn1 O6 2.003500 1_555
Mn1 O4 2.003753 1_555
Mn1 O2 2.005857 1_555
Mn1 O3 2.172122 1_555
Mn1 O1 2.278646 1_555
Mn1 O5 2.367849 1_555
Mn2 O4 2.021435 1_555
Mn2 O6 2.050242 1_656
Mn2 O0 2.121001 1_656
Mn2 O3 2.176975 1_555
Mn2 O7 2.258039 1_555
Mn3 O5 2.021629 1_555
Mn3 O0 2.049898 1_655
Mn3 O6 2.121053 1_655
Mn3 O7 2.173461 1_555
Mn3 O3 2.263336 1_555
O0 Zn1 1.918617 1_455
O1 Zn1 2.252313 1_556
O2 Zn1 2.228314 1_555
O3 Zn0 2.026198 1_665
O4 Zn0 2.079262 1_555
O5 Zn0 2.077045 1_554
O6 Zn1 1.918983 1_445
O7 Zn0 2.024671 1_655
