# generated using pymatgen
data_Na10Mg3Zr5Si6(SO8)6
_symmetry_space_group_name_H-M   'P 1'
_cell_length_a   18.20336139
_cell_length_b   9.10852491
_cell_length_c   22.84423561
_cell_angle_alpha   89.95780115
_cell_angle_beta   89.89634968
_cell_angle_gamma   119.96940847
_symmetry_Int_Tables_number   1
_chemical_formula_structural   Na10Mg3Zr5Si6(SO8)6
_chemical_formula_sum   'Na30 Mg9 Zr15 Si18 S18 O144'
_cell_volume   3281.24914916
_cell_formula_units_Z   3
loop_
 _symmetry_equiv_pos_site_id
 _symmetry_equiv_pos_as_xyz
  1  'x, y, z'
loop_
 _atom_site_type_symbol
 _atom_site_label
 _atom_site_symmetry_multiplicity
 _atom_site_fract_x
 _atom_site_fract_y
 _atom_site_fract_z
 _atom_site_occupancy
  Na  Na0  1  0.31828786  0.99986016  0.24455931  1
  Na  Na1  1  0.19622716  0.37092698  0.24391610  1
  Na  Na2  1  0.68966281  0.36864579  0.24275398  1
  Na  Na3  1  0.99827620  0.64259541  0.25058901  1
  Na  Na4  1  0.31819525  0.61829257  0.75397384  1
  Na  Na5  1  0.81920496  0.62799855  0.74777687  1
  Na  Na6  1  0.99371036  0.36037454  0.74959592  1
  Na  Na7  1  0.49629494  0.37227402  0.74140806  1
  Na  Na8  1  0.18104756  0.00808114  0.74737330  1
  Na  Na9  1  0.68605410  0.01072315  0.74877782  1
  Na  Na10  1  0.64675088  0.34555605  0.57592531  1
  Na  Na11  1  0.32406025  0.68489780  0.07938999  1
  Na  Na12  1  0.82638339  0.68722917  0.08772989  1
  Na  Na13  1  0.16449460  0.31875822  0.92352920  1
  Na  Na14  1  0.99384222  0.30934385  0.42067620  1
  Na  Na15  1  0.16478385  0.02945496  0.41918677  1
  Na  Na16  1  0.66269746  0.02901812  0.41337644  1
  Na  Na17  1  0.84169041  0.66785076  0.41782133  1
  Na  Na18  1  0.00191323  0.00427186  0.49946984  1
  Na  Na19  1  0.49309821  0.01328917  0.49442849  1
  Na  Na20  1  0.00669161  0.02497947  0.99959957  1
  Na  Na21  1  0.50309114  0.02491865  0.99591045  1
  Na  Na22  1  0.34439672  0.35687722  0.83357894  1
  Na  Na23  1  0.83874849  0.33507981  0.82765679  1
  Na  Na24  1  0.33719522  0.36338883  0.32625378  1
  Na  Na25  1  0.83217989  0.33347518  0.32911045  1
  Na  Na26  1  0.16883709  0.66253577  0.15836578  1
  Na  Na27  1  0.66441720  0.66337068  0.15929136  1
  Na  Na28  1  0.16125343  0.65904664  0.66126217  1
  Na  Na29  1  0.65876077  0.66513527  0.66048426  1
  Mg  Mg0  1  0.49736906  0.99819800  0.35180360  1
  Mg  Mg1  1  0.33876867  0.34670608  0.68321090  1
  Mg  Mg2  1  0.83580267  0.33566369  0.68856974  1
  Mg  Mg3  1  0.33065591  0.34414131  0.18587011  1
  Mg  Mg4  1  0.82980873  0.33624569  0.18169329  1
  Mg  Mg5  1  0.16585528  0.64403084  0.01609142  1
  Mg  Mg6  1  0.65856484  0.64218300  0.01866411  1
  Mg  Mg7  1  0.16281253  0.65757499  0.51503351  1
  Mg  Mg8  1  0.66169958  0.65222162  0.51600779  1
  Zr  Zr0  1  0.00014577  0.99268820  0.35292658  1
  Zr  Zr1  1  0.99888766  0.00566583  0.84953930  1
  Zr  Zr2  1  0.50219075  0.99835282  0.85642126  1
  Zr  Zr3  1  0.00102295  0.00173357  0.65088700  1
  Zr  Zr4  1  0.50202226  0.00636360  0.64639100  1
  Zr  Zr5  1  0.00565659  0.99870221  0.14726304  1
  Zr  Zr6  1  0.50049404  0.00161881  0.14614176  1
  Zr  Zr7  1  0.33373096  0.33915821  0.97908542  1
  Zr  Zr8  1  0.82905972  0.32735437  0.98113130  1
  Zr  Zr9  1  0.33862164  0.33878227  0.48364880  1
  Zr  Zr10  1  0.83352195  0.33563590  0.47767815  1
  Zr  Zr11  1  0.17147122  0.66366962  0.31649204  1
  Zr  Zr12  1  0.67319774  0.67001721  0.31638127  1
  Zr  Zr13  1  0.15913884  0.64697509  0.81892883  1
  Zr  Zr14  1  0.65945271  0.65578867  0.81316536  1
  Si  Si0  1  0.15200193  0.00140456  0.25110434  1
  Si  Si1  1  0.35824833  0.70813263  0.25244995  1
  Si  Si2  1  0.85124570  0.69890299  0.24743509  1
  Si  Si3  1  0.15094989  0.29641275  0.74915062  1
  Si  Si4  1  0.64842430  0.29182477  0.74906117  1
  Si  Si5  1  0.00179604  0.70711220  0.75013543  1
  Si  Si6  1  0.49699465  0.70489467  0.74920471  1
  Si  Si7  1  0.85182957  0.00062224  0.74861816  1
  Si  Si8  1  0.48435156  0.34135179  0.58766801  1
  Si  Si9  1  0.18511253  0.33742581  0.08564563  1
  Si  Si10  1  0.68564610  0.34071455  0.08709083  1
  Si  Si11  1  0.31472665  0.67216213  0.92023572  1
  Si  Si12  1  0.01536511  0.36521628  0.91944372  1
  Si  Si13  1  0.51916998  0.37172904  0.91855646  1
  Si  Si14  1  0.80999655  0.95296348  0.42106222  1
  Si  Si15  1  0.16905969  0.37350227  0.41882039  1
  Si  Si16  1  0.65824184  0.36016480  0.41940439  1
  Si  Si17  1  0.02500043  0.67000027  0.41812474  1
  S  S0  1  0.64644569  0.99879442  0.25119429  1
  S  S1  1  0.99716148  0.29150165  0.24948385  1
  S  S2  1  0.49992663  0.29229807  0.25115247  1
  S  S3  1  0.35344711  0.00020511  0.75023548  1
  S  S4  1  0.98148494  0.33658620  0.58440379  1
  S  S5  1  0.18715550  0.03569302  0.58414710  1
  S  S6  1  0.68860160  0.03800998  0.58464437  1
  S  S7  1  0.32934797  0.62706127  0.58484761  1
  S  S8  1  0.83482040  0.62890465  0.58490859  1
  S  S9  1  0.48085932  0.62325609  0.08541927  1
  S  S10  1  0.98050327  0.62275773  0.08426352  1
  S  S11  1  0.33203577  0.04169151  0.08600256  1
  S  S12  1  0.83167444  0.04044846  0.08471064  1
  S  S13  1  0.81301740  0.66817527  0.91920731  1
  S  S14  1  0.16585840  0.95469484  0.91874857  1
  S  S15  1  0.66812650  0.95459953  0.91932256  1
  S  S16  1  0.31519569  0.95875798  0.41938548  1
  S  S17  1  0.52114797  0.66780222  0.41721821  1
  O  O0  1  0.10545025  0.03206099  0.30805069  1
  O  O1  1  0.60946564  0.02736200  0.30448120  1
  O  O2  1  0.41312853  0.81388910  0.30697967  1
  O  O3  1  0.90936949  0.79752986  0.30503425  1
  O  O4  1  0.48924428  0.19013488  0.30319267  1
  O  O5  1  0.98599431  0.19542901  0.30417838  1
  O  O6  1  0.10640220  0.18018488  0.80792334  1
  O  O7  1  0.60022100  0.16461201  0.80323504  1
  O  O8  1  0.48140671  0.79806256  0.80445506  1
  O  O9  1  0.98546398  0.79765024  0.80646855  1
  O  O10  1  0.40706347  0.02874175  0.80184783  1
  O  O11  1  0.91521371  0.03664820  0.80472075  1
  O  O12  1  0.39229853  0.96852302  0.69755969  1
  O  O13  1  0.89629550  0.95838887  0.69272699  1
  O  O14  1  0.08337906  0.20642218  0.69480415  1
  O  O15  1  0.58621052  0.21014906  0.69066930  1
  O  O16  1  0.02100868  0.83583507  0.69362216  1
  O  O17  1  0.51286644  0.82827735  0.69188451  1
  O  O18  1  0.39906833  0.82893481  0.19174738  1
  O  O19  1  0.89585915  0.81521389  0.18925418  1
  O  O20  1  0.01091010  0.20580674  0.19907749  1
  O  O21  1  0.51817497  0.21411095  0.19861354  1
  O  O22  1  0.08571403  0.96959556  0.19630755  1
  O  O23  1  0.59273540  0.98112730  0.19913390  1
  O  O24  1  0.43750194  0.34907448  0.64629783  1
  O  O25  1  0.93734858  0.34817495  0.63652391  1
  O  O26  1  0.23583376  0.12179981  0.63693892  1
  O  O27  1  0.73825134  0.12326004  0.63675625  1
  O  O28  1  0.31870717  0.52817530  0.63834487  1
  O  O29  1  0.82646929  0.52386152  0.63638468  1
  O  O30  1  0.44084110  0.51920244  0.13704671  1
  O  O31  1  0.94246717  0.52569940  0.13854581  1
  O  O32  1  0.32807288  0.12517360  0.14016456  1
  O  O33  1  0.82510036  0.12701848  0.13692379  1
  O  O34  1  0.24150018  0.35794532  0.14277957  1
  O  O35  1  0.74112211  0.36437645  0.14557618  1
  O  O36  1  0.23085953  0.31053518  0.02588949  1
  O  O37  1  0.73558126  0.31308331  0.02997219  1
  O  O38  1  0.42643719  0.54538010  0.03223447  1
  O  O39  1  0.92381753  0.53416590  0.03336482  1
  O  O40  1  0.34559520  0.14884885  0.03388797  1
  O  O41  1  0.84570980  0.14758173  0.03112999  1
  O  O42  1  0.22959213  0.14281263  0.53028745  1
  O  O43  1  0.72979994  0.14874577  0.53130477  1
  O  O44  1  0.34122673  0.53885480  0.53273447  1
  O  O45  1  0.84348110  0.54358504  0.53063382  1
  O  O46  1  0.42248623  0.31784262  0.52970485  1
  O  O47  1  0.92956887  0.31754570  0.53033562  1
  O  O48  1  0.27368505  0.69734293  0.97821550  1
  O  O49  1  0.77352405  0.69145645  0.97152815  1
  O  O50  1  0.07996911  0.45998841  0.97093793  1
  O  O51  1  0.57739163  0.46347930  0.97292656  1
  O  O52  1  0.15655790  0.85118684  0.96930686  1
  O  O53  1  0.66128285  0.85292245  0.96997267  1
  O  O54  1  0.27304264  0.85423648  0.47008579  1
  O  O55  1  0.76569328  0.82856376  0.47449368  1
  O  O56  1  0.14926807  0.46100038  0.47195207  1
  O  O57  1  0.64980314  0.44525365  0.47803334  1
  O  O58  1  0.08801229  0.71489401  0.47142882  1
  O  O59  1  0.57408772  0.69288432  0.46873675  1
  O  O60  1  0.06146535  0.63053406  0.35744544  1
  O  O61  1  0.55928268  0.63832483  0.36372075  1
  O  O62  1  0.26095737  0.88412002  0.36464763  1
  O  O63  1  0.75008047  0.87498443  0.36139235  1
  O  O64  1  0.18263200  0.48060433  0.35672633  1
  O  O65  1  0.67976474  0.48880019  0.36095086  1
  O  O66  1  0.05504655  0.47022810  0.85581677  1
  O  O67  1  0.55990679  0.48330861  0.85677845  1
  O  O68  1  0.17603380  0.88010302  0.86275972  1
  O  O69  1  0.67956516  0.88215722  0.86369675  1
  O  O70  1  0.25518516  0.64156530  0.86055643  1
  O  O71  1  0.76303126  0.64682787  0.86506248  1
  O  O72  1  0.00666947  0.82929611  0.41072145  1
  O  O73  1  0.51292343  0.81992470  0.41036180  1
  O  O74  1  0.40023865  0.98525549  0.41149875  1
  O  O75  1  0.90594269  0.98435224  0.41018436  1
  O  O76  1  0.08265443  0.18368666  0.41064621  1
  O  O77  1  0.58336992  0.16758269  0.40873119  1
  O  O78  1  0.01055049  0.17822271  0.91346588  1
  O  O79  1  0.50943428  0.18359278  0.90926893  1
  O  O80  1  0.09084535  0.98007500  0.91408724  1
  O  O81  1  0.59223236  0.97481325  0.91505922  1
  O  O82  1  0.41020478  0.83040919  0.91105076  1
  O  O83  1  0.89959984  0.81726560  0.91340383  1
  O  O84  1  0.49282221  0.16354346  0.58528842  1
  O  O85  1  0.98808436  0.17837376  0.58534796  1
  O  O86  1  0.10114780  0.02196377  0.58503947  1
  O  O87  1  0.60349564  0.03113924  0.58651228  1
  O  O88  1  0.40869336  0.79664956  0.58712567  1
  O  O89  1  0.91318456  0.79816434  0.58619874  1
  O  O90  1  0.48340742  0.79340152  0.09004397  1
  O  O91  1  0.98027321  0.79004685  0.08629341  1
  O  O92  1  0.40982908  0.01782713  0.08796072  1
  O  O93  1  0.90808891  0.01746503  0.08737842  1
  O  O94  1  0.08794405  0.16232855  0.08851450  1
  O  O95  1  0.59049671  0.16580911  0.09008189  1
  O  O96  1  0.34224199  0.14841561  0.74346813  1
  O  O97  1  0.84222822  0.16561893  0.74156413  1
  O  O98  1  0.24178040  0.30894707  0.74088185  1
  O  O99  1  0.74148679  0.31509413  0.74140155  1
  O  O100  1  0.41586597  0.51616546  0.74523322  1
  O  O101  1  0.92067839  0.52081514  0.74247589  1
  O  O102  1  0.34331388  0.51905346  0.24622043  1
  O  O103  1  0.84538758  0.51354891  0.24626860  1
  O  O104  1  0.42379616  0.30461208  0.24169142  1
  O  O105  1  0.92377758  0.31620456  0.24206156  1
  O  O106  1  0.24617761  0.16067852  0.24499773  1
  O  O107  1  0.73242767  0.14867579  0.24385815  1
  O  O108  1  0.31699508  0.48989267  0.92155650  1
  O  O109  1  0.82149688  0.51232963  0.92312737  1
  O  O110  1  0.42247506  0.34589603  0.92316519  1
  O  O111  1  0.92055401  0.34451551  0.92425604  1
  O  O112  1  0.24240556  0.12901659  0.92133877  1
  O  O113  1  0.74475784  0.12957785  0.92235821  1
  O  O114  1  0.31891777  0.12898457  0.42373721  1
  O  O115  1  0.82186720  0.14564918  0.42577636  1
  O  O116  1  0.24940148  0.33780328  0.42461698  1
  O  O117  1  0.75064503  0.35333249  0.42288201  1
  O  O118  1  0.43419345  0.51404537  0.42294284  1
  O  O119  1  0.92902075  0.49941642  0.42524095  1
  O  O120  1  0.17775221  0.50783777  0.08103286  1
  O  O121  1  0.68139152  0.51403316  0.08016471  1
  O  O122  1  0.06635370  0.65437843  0.07641613  1
  O  O123  1  0.56712685  0.65557334  0.07782165  1
  O  O124  1  0.25676385  0.87228013  0.08112069  1
  O  O125  1  0.75618404  0.87164358  0.07830021  1
  O  O126  1  0.17943157  0.86796739  0.57878947  1
  O  O127  1  0.67756493  0.86976059  0.57748328  1
  O  O128  1  0.25550819  0.64943123  0.57731959  1
  O  O129  1  0.75816597  0.64349117  0.58086446  1
  O  O130  1  0.06574356  0.48829613  0.58008153  1
  O  O131  1  0.57938180  0.50338034  0.58111269  1
  O  O132  1  0.15298983  0.82242005  0.25607843  1
  O  O133  1  0.65086193  0.84032246  0.25395611  1
  O  O134  1  0.26020612  0.69159496  0.25466427  1
  O  O135  1  0.75457493  0.67435903  0.25373435  1
  O  O136  1  0.07652746  0.46148278  0.25270047  1
  O  O137  1  0.57738913  0.46502368  0.25527740  1
  O  O138  1  0.16043853  0.48656587  0.75432850  1
  O  O139  1  0.65640931  0.47974995  0.75583273  1
  O  O140  1  0.09081821  0.70094797  0.75534474  1
  O  O141  1  0.58639534  0.69920811  0.75519071  1
  O  O142  1  0.26837028  0.84492651  0.75612897  1
  O  O143  1  0.76020443  0.82938404  0.75799655  1
loop_
_geom_bond_atom_site_label_1
_geom_bond_atom_site_label_2
_geom_bond_distance
_geom_bond_site_symmetry_2
Na0 O106 2.406206 1_565
Na0 O104 2.463985 1_565
Na0 O134 2.467252 1_555
Na0 O32 2.610222 1_565
Na0 O132 2.621680 1_555
Na0 O18 2.885354 1_555
Na0 O62 2.934713 1_555
Na1 O102 2.320233 1_555
Na1 O34 2.474250 1_555
Na1 O106 2.496898 1_555
Na1 O134 2.559563 1_555
Na1 O136 2.694927 1_555
Na1 O64 2.819395 1_555
Na2 O35 2.415816 1_555
Na2 O135 2.434735 1_555
Na2 O103 2.459085 1_555
Na2 O107 2.485830 1_555
Na2 O137 2.611544 1_555
Na3 O103 2.422771 1_555
Na3 O132 2.454194 1_655
Na3 O105 2.586359 1_555
Na3 O136 2.664687 1_655
Na3 O60 2.725787 1_655
Na3 O31 2.765818 1_555
Na3 O22 2.862427 1_655
Na3 O3 2.904278 1_555
Na4 O100 2.391148 1_555
Na4 O98 2.459803 1_555
Na4 O138 2.498773 1_555
Na4 O142 2.637597 1_555
Na4 O70 2.742690 1_555
Na4 O28 2.768012 1_555
Na4 O8 2.827148 1_555
Na5 O99 2.473600 1_555
Na5 O101 2.486127 1_555
Na5 O143 2.557484 1_555
Na5 O139 2.576610 1_555
Na5 O29 2.742298 1_555
Na5 O13 2.894121 1_555
Na5 O71 2.901663 1_555
Na5 O9 2.947948 1_555
Na6 O101 2.422991 1_555
Na6 O97 2.428882 1_555
Na6 O66 2.652002 1_655
Na6 O138 2.657114 1_655
Na6 O140 2.699640 1_655
Na6 O25 2.762824 1_555
Na6 O11 2.846185 1_555
Na6 O14 2.911935 1_655
Na7 O24 2.386190 1_555
Na7 O100 2.405357 1_555
Na7 O96 2.512070 1_555
Na7 O139 2.591382 1_555
Na7 O141 2.603962 1_555
Na7 O67 2.855654 1_555
Na7 O15 2.934902 1_555
Na8 O98 2.392945 1_555
Na8 O140 2.442254 1_545
Na8 O96 2.550196 1_555
Na8 O142 2.671329 1_545
Na8 O26 2.717896 1_555
Na8 O16 2.811692 1_545
Na8 O68 2.864180 1_545
Na8 O6 2.888168 1_555
Na9 O99 2.436479 1_555
Na9 O97 2.467889 1_555
Na9 O141 2.493853 1_545
Na9 O143 2.611977 1_545
Na9 O27 2.741629 1_555
Na9 O69 2.851896 1_545
Na9 O7 2.852584 1_555
Na10 O131 2.312039 1_555
Na10 O57 2.403075 1_555
Na10 O129 2.448063 1_555
Na10 O84 2.449860 1_555
Na10 O87 2.574031 1_555
Na10 O15 2.869388 1_555
Na11 O120 2.324612 1_555
Na11 O48 2.511327 1_554
Na11 O124 2.550324 1_555
Na11 O90 2.566827 1_555
Na11 O92 2.635098 1_565
Na11 O18 2.898543 1_555
Na11 O38 2.934146 1_555
Na11 O34 2.956124 1_555
Na12 O121 2.308000 1_555
Na12 O91 2.470640 1_555
Na12 O125 2.577952 1_555
Na12 O93 2.605816 1_565
Na12 O19 2.622777 1_555
Na12 O49 2.831966 1_554
Na12 O35 2.868768 1_555
Na13 O108 2.411299 1_555
Na13 O78 2.441978 1_555
Na13 O36 2.652026 1_556
Na13 O50 2.677441 1_555
Na13 O80 2.688972 1_545
Na13 O112 2.729381 1_555
Na13 O6 2.892647 1_555
Na13 O70 2.928447 1_555
Na14 O76 2.413268 1_655
Na14 O119 2.537976 1_555
Na14 O75 2.578898 1_545
Na14 O115 2.715136 1_555
Na14 O56 2.719332 1_655
Na14 O47 2.779732 1_555
Na14 O5 2.834943 1_555
Na14 O60 2.924053 1_655
Na15 O116 2.440341 1_555
Na15 O114 2.482916 1_555
Na15 O76 2.519063 1_555
Na15 O72 2.530881 1_545
Na15 O58 2.752291 1_545
Na15 O0 2.765531 1_555
Na15 O42 2.774361 1_555
Na15 O62 2.946099 1_545
Na16 O77 2.347473 1_555
Na16 O73 2.424535 1_545
Na16 O115 2.555795 1_555
Na16 O117 2.571729 1_555
Na16 O1 2.668643 1_555
Na16 O63 2.852054 1_545
Na16 O43 2.936706 1_555
Na16 O59 2.937352 1_545
Na17 O117 2.494488 1_555
Na17 O75 2.517763 1_555
Na17 O72 2.606440 1_655
Na17 O119 2.710511 1_555
Na17 O55 2.784298 1_555
Na17 O45 2.820745 1_555
Na17 O3 2.842832 1_555
Na17 O65 2.872306 1_555
Na18 O76 2.555926 1_555
Na18 O72 2.607661 1_545
Na18 O85 2.613146 1_455
Na18 O86 2.613926 1_555
Na18 O75 2.634739 1_445
Na18 O89 2.648028 1_445
Na19 O74 2.468316 1_545
Na19 O77 2.486960 1_555
Na19 O84 2.488436 1_555
Na19 O73 2.749160 1_545
Na19 O88 2.773397 1_545
Na19 O87 2.859960 1_555
Na20 O78 2.392159 1_555
Na20 O94 2.458546 1_556
Na20 O80 2.635584 1_545
Na20 O93 2.666717 1_456
Na20 O83 2.755287 1_445
Na20 O91 2.773946 1_446
Na21 O79 2.418240 1_555
Na21 O82 2.603820 1_545
Na21 O95 2.604396 1_556
Na21 O81 2.642532 1_545
Na21 O92 2.680573 1_556
Na21 O90 2.904346 1_546
Na22 O100 2.443576 1_555
Na22 O108 2.521838 1_555
Na22 O110 2.524005 1_555
Na22 O98 2.713855 1_555
Na22 O96 2.788550 1_555
Na22 O112 2.811480 1_555
Na23 O101 2.517289 1_555
Na23 O97 2.521154 1_555
Na23 O99 2.596447 1_555
Na23 O111 2.641760 1_555
Na23 O113 2.809322 1_555
Na23 O109 2.823293 1_555
Na24 O102 2.281036 1_555
Na24 O106 2.561189 1_555
Na24 O116 2.696601 1_555
Na24 O104 2.708717 1_555
Na24 O118 2.734472 1_555
Na24 O114 2.984811 1_555
Na25 O103 2.435011 1_555
Na25 O107 2.624379 1_555
Na25 O105 2.647609 1_555
Na25 O117 2.661131 1_555
Na25 O115 2.740550 1_555
Na25 O119 2.751646 1_555
Na26 O120 2.315993 1_555
Na26 O124 2.501065 1_555
Na26 O122 2.620076 1_555
Na26 O134 2.692592 1_555
Na26 O132 2.758409 1_555
Na26 O136 2.779923 1_555
Na27 O121 2.373737 1_555
Na27 O123 2.547886 1_555
Na27 O125 2.574891 1_555
Na27 O135 2.684623 1_555
Na27 O137 2.775586 1_555
Na27 O133 2.781335 1_555
Na28 O130 2.489025 1_555
Na28 O126 2.577529 1_555
Na28 O128 2.601377 1_555
Na28 O140 2.624686 1_555
Na28 O138 2.638198 1_555
Na28 O142 2.843872 1_555
Na29 O131 2.330828 1_555
Na29 O127 2.557590 1_555
Na29 O141 2.628959 1_555
Na29 O129 2.639402 1_555
Na29 O139 2.742186 1_555
Na29 O143 2.805363 1_555
Mg0 O2 1.911693 1_555
Mg0 O77 2.029683 1_565
Mg0 O4 2.137175 1_565
Mg0 O74 2.186898 1_555
Mg0 O1 2.202964 1_565
Mg0 O73 2.227985 1_555
Mg1 O24 1.974208 1_555
Mg1 O100 2.050792 1_555
Mg1 O98 2.086926 1_555
Mg1 O28 2.125536 1_555
Mg1 O26 2.236143 1_555
Mg1 O96 2.296017 1_555
Mg2 O97 2.014194 1_555
Mg2 O99 2.027349 1_555
Mg2 O101 2.038241 1_555
Mg2 O25 2.150545 1_555
Mg2 O29 2.162690 1_555
Mg2 O27 2.208156 1_555
Mg3 O34 1.956573 1_555
Mg3 O102 2.032159 1_555
Mg3 O106 2.098457 1_555
Mg3 O30 2.145587 1_555
Mg3 O32 2.231557 1_555
Mg3 O104 2.290721 1_555
Mg4 O35 1.941762 1_555
Mg4 O103 2.100512 1_555
Mg4 O33 2.127252 1_555
Mg4 O31 2.146995 1_555
Mg4 O107 2.244886 1_555
Mg4 O105 2.276237 1_555
Mg5 O50 1.925718 1_554
Mg5 O48 1.969328 1_554
Mg5 O120 2.013336 1_555
Mg5 O52 2.246765 1_554
Mg5 O122 2.313084 1_555
Mg5 O124 2.417401 1_555
Mg6 O51 1.878751 1_554
Mg6 O121 1.998313 1_555
Mg6 O49 2.189261 1_554
Mg6 O123 2.192395 1_555
Mg6 O53 2.196827 1_554
Mg6 O125 2.384192 1_555
Mg7 O56 1.948768 1_555
Mg7 O58 1.957855 1_555
Mg7 O54 2.165214 1_555
Mg7 O130 2.230001 1_555
Mg7 O128 2.238502 1_555
Mg7 O126 2.304720 1_555
Mg8 O57 1.987095 1_555
Mg8 O55 2.004082 1_555
Mg8 O131 2.062691 1_555
Mg8 O59 2.107740 1_555
Mg8 O127 2.327157 1_555
Mg8 O129 2.331051 1_555
O0 Si0 1.649647 1_555
O0 Zr0 2.039504 1_545
O1 S0 1.474847 1_545
O2 Si1 1.588240 1_555
O3 Si2 1.647728 1_555
O3 Zr0 2.040132 1_655
O4 S2 1.460749 1_555
O5 S1 1.479180 1_555
O5 Zr0 2.278150 1_645
O6 Si3 1.648409 1_555
O6 Zr1 2.035647 1_455
O7 Si4 1.619350 1_555
O7 Zr2 2.059975 1_545
O8 Si6 1.623133 1_555
O8 Zr2 2.048388 1_555
O9 Si5 1.633911 1_655
O9 Zr1 2.039316 1_565
O10 S3 1.470184 1_555
O10 Zr2 2.261766 1_545
O11 Si7 1.645965 1_555
O11 Zr1 1.970414 1_555
O12 S3 1.494256 1_565
O12 Zr4 2.185792 1_565
O13 Si7 1.655724 1_565
O13 Zr3 1.986115 1_665
O14 Si3 1.651025 1_555
O14 Zr3 1.986393 1_555
O15 Si4 1.667494 1_555
O15 Zr4 1.995879 1_555
O16 Si5 1.658361 1_555
O16 Zr3 1.979184 1_565
O17 Si6 1.653229 1_555
O17 Zr4 2.017033 1_565
O18 Si1 1.692035 1_555
O18 Zr6 2.014318 1_565
O19 Si2 1.637941 1_555
O19 Zr5 2.088433 1_655
O20 S1 1.480977 1_455
O20 Zr5 2.189117 1_545
O21 S2 1.514663 1_555
O21 Zr6 2.160784 1_555
O22 Si0 1.662430 1_565
O22 Zr5 1.959793 1_555
O23 S0 1.497830 1_555
O23 Zr6 2.154025 1_565
O24 Si8 1.606879 1_555
O25 S4 1.468240 1_555
O26 S5 1.471616 1_555
O27 S6 1.463246 1_555
O28 S7 1.471579 1_555
O29 S8 1.474364 1_555
O30 S9 1.457862 1_555
O31 S10 1.477290 1_555
O32 S11 1.473147 1_555
O33 S12 1.467630 1_555
O34 Si9 1.614174 1_555
O35 Si10 1.624544 1_555
O36 Si9 1.678415 1_555
O36 Zr7 2.054849 1_554
O37 Si10 1.678375 1_555
O37 Zr8 1.982222 1_554
O38 S9 1.504752 1_555
O38 Zr7 2.166600 1_554
O39 S10 1.497236 1_555
O39 Zr8 2.170737 1_554
O40 S11 1.479005 1_555
O40 Zr7 2.233957 1_554
O41 S12 1.504571 1_555
O41 Zr8 2.138238 1_554
O42 S5 1.518007 1_555
O42 Zr9 2.170374 1_555
O43 S6 1.517788 1_555
O43 Zr10 2.177362 1_555
O44 S7 1.511144 1_555
O44 Zr9 2.120730 1_555
O45 S8 1.513003 1_555
O45 Zr10 2.178319 1_555
O46 Si8 1.682936 1_555
O46 Zr9 1.941727 1_555
O47 S4 1.513132 1_555
O47 Zr10 2.196845 1_555
O48 Si11 1.591581 1_555
O49 S13 1.462857 1_555
O50 Si12 1.582476 1_555
O51 Si13 1.576617 1_555
O52 S14 1.445582 1_555
O53 S15 1.447294 1_555
O54 S16 1.449802 1_555
O55 Si14 1.582911 1_555
O56 Si15 1.588986 1_555
O57 Si16 1.593053 1_555
O58 Si17 1.582036 1_555
O59 S17 1.466463 1_555
O60 Si17 1.651396 1_555
O60 Zr11 2.089316 1_555
O61 S17 1.493704 1_555
O61 Zr12 2.224002 1_555
O62 S16 1.528305 1_555
O62 Zr11 2.153483 1_555
O63 Si14 1.668826 1_555
O63 Zr12 1.974604 1_555
O64 Si15 1.667554 1_555
O64 Zr11 2.000834 1_555
O65 Si16 1.687188 1_555
O65 Zr12 1.992632 1_555
O66 Si12 1.689151 1_555
O66 Zr13 1.958782 1_555
O67 Si13 1.677987 1_555
O67 Zr14 1.972651 1_555
O68 S14 1.502656 1_555
O68 Zr13 2.226655 1_555
O69 S15 1.493669 1_555
O69 Zr14 2.229076 1_555
O70 Si11 1.677855 1_555
O70 Zr13 2.013836 1_555
O71 S13 1.491084 1_555
O71 Zr14 2.264710 1_555
O72 Si17 1.651896 1_555
O72 Zr0 2.036273 1_555
O73 S17 1.474410 1_555
O74 S16 1.453570 1_555
O75 Si14 1.641141 1_555
O75 Zr0 2.125769 1_655
O76 Si15 1.668135 1_555
O76 Zr0 2.102627 1_545
O77 Si16 1.614712 1_555
O78 Si12 1.666910 1_555
O78 Zr1 2.078267 1_455
O79 Si13 1.646285 1_555
O79 Zr2 2.025595 1_545
O80 S14 1.498402 1_555
O80 Zr1 2.330010 1_465
O81 S15 1.485461 1_555
O81 Zr2 2.210313 1_555
O82 Si11 1.624114 1_555
O82 Zr2 2.032687 1_555
O83 S13 1.485403 1_555
O83 Zr1 2.286485 1_565
O84 Si8 1.702745 1_555
O84 Zr4 2.064840 1_555
O85 S4 1.504838 1_555
O85 Zr3 2.293912 1_655
O86 S5 1.507157 1_555
O86 Zr3 2.296241 1_555
O87 S6 1.519439 1_555
O87 Zr4 2.215392 1_555
O88 S7 1.498774 1_555
O88 Zr4 2.266706 1_565
O89 S8 1.488498 1_555
O89 Zr3 2.286711 1_665
O90 S9 1.530867 1_555
O90 Zr6 2.179816 1_565
O91 S10 1.526592 1_555
O91 Zr5 2.212315 1_655
O92 S11 1.536989 1_555
O92 Zr6 2.182482 1_555
O93 S12 1.507859 1_555
O93 Zr5 2.316628 1_645
O94 Si9 1.690440 1_555
O94 Zr5 2.006369 1_545
O95 Si10 1.668919 1_555
O95 Zr6 2.025465 1_555
O96 S3 1.470665 1_555
O97 Si7 1.605404 1_555
O98 Si3 1.610204 1_555
O99 Si4 1.607948 1_555
O100 Si6 1.615141 1_555
O101 Si5 1.608876 1_655
O102 Si1 1.610272 1_555
O103 Si2 1.637881 1_555
O104 S2 1.461561 1_555
O105 S1 1.471355 1_555
O106 Si0 1.605337 1_555
O107 S0 1.485098 1_545
O108 Si11 1.681464 1_555
O108 Zr7 2.030188 1_555
O109 S13 1.505212 1_555
O109 Zr8 2.200582 1_555
O110 Si13 1.658362 1_555
O110 Zr7 2.034373 1_555
O111 Si12 1.643309 1_655
O111 Zr8 2.053830 1_555
O112 S14 1.502085 1_545
O112 Zr7 2.236108 1_555
O113 S15 1.506711 1_545
O113 Zr8 2.156829 1_555
O114 S16 1.521137 1_545
O114 Zr9 2.230332 1_555
O115 Si14 1.661346 1_545
O115 Zr10 2.020533 1_555
O116 Si15 1.654658 1_555
O116 Zr9 2.109461 1_555
O117 Si16 1.715963 1_555
O117 Zr10 2.029385 1_555
O118 S17 1.506051 1_555
O118 Zr9 2.170615 1_555
O119 Si17 1.667215 1_655
O119 Zr10 2.020228 1_555
O120 Si9 1.626644 1_555
O121 Si10 1.626371 1_555
O122 S10 1.451397 1_455
O123 S9 1.455992 1_555
O124 S11 1.469500 1_565
O125 S12 1.471068 1_565
O126 S5 1.467805 1_565
O127 S6 1.452094 1_565
O128 S7 1.467035 1_555
O129 S8 1.469322 1_555
O130 S4 1.467487 1_455
O131 Si8 1.625136 1_555
O132 Si0 1.643195 1_565
O132 Zr11 2.143241 1_555
O133 S0 1.486538 1_555
O133 Zr12 2.287843 1_555
O134 Si1 1.715072 1_555
O134 Zr11 2.061417 1_555
O135 Si2 1.665335 1_555
O135 Zr12 2.043955 1_555
O136 S1 1.501859 1_455
O136 Zr11 2.309839 1_555
O137 S2 1.502233 1_555
O137 Zr12 2.288172 1_555
O138 Si3 1.656861 1_555
O138 Zr13 2.085847 1_555
O139 Si4 1.651346 1_555
O139 Zr14 2.050391 1_555
O140 Si5 1.653763 1_555
O140 Zr13 2.124747 1_555
O141 Si6 1.659759 1_555
O141 Zr14 2.051849 1_555
O142 S3 1.492500 1_565
O142 Zr13 2.380502 1_555
O143 Si7 1.630848 1_565
O143 Zr14 2.131568 1_555
