# generated using pymatgen
data_ErTiSi
_symmetry_space_group_name_H-M   'P 1'
_cell_length_a   3.99005520
_cell_length_b   3.99005520
_cell_length_c   7.56651610
_cell_angle_alpha   90.00000000
_cell_angle_beta   90.00000000
_cell_angle_gamma   90.00000000
_symmetry_Int_Tables_number   1
_chemical_formula_structural   ErTiSi
_chemical_formula_sum   'Er2 Ti2 Si2'
_cell_volume   120.46302601
_cell_formula_units_Z   2
loop_
 _symmetry_equiv_pos_site_id
 _symmetry_equiv_pos_as_xyz
  1  'x, y, z'
loop_
 _atom_site_type_symbol
 _atom_site_label
 _atom_site_symmetry_multiplicity
 _atom_site_fract_x
 _atom_site_fract_y
 _atom_site_fract_z
 _atom_site_occupancy
  Er  Er0  1  0.75000000  0.75000000  0.34808407  1
  Er  Er1  1  0.25000000  0.25000000  0.65191593  1
  Ti  Ti0  1  0.75000000  0.25000000  0.00000000  1
  Ti  Ti1  1  0.25000000  0.75000000  0.00000000  1
  Si  Si0  1  0.75000000  0.75000000  0.75864289  1
  Si  Si1  1  0.25000000  0.25000000  0.24135711  1
loop_
_geom_bond_atom_site_label_1
_geom_bond_atom_site_label_2
_geom_bond_distance
_geom_bond_site_symmetry_2
Er0 Si1 2.934691 1_565
Er0 Si1 2.934691 1_665
Er0 Si1 2.934691 1_555
Er0 Si1 2.934691 1_655
Er0 Si0 3.106500 1_555
Er1 Si0 2.934691 1_445
Er1 Si0 2.934691 1_455
Er1 Si0 2.934691 1_545
Er1 Si0 2.934691 1_555
Er1 Si1 3.106500 1_555
Si0 Ti0 2.704674 1_556
Si0 Ti0 2.704674 1_566
Si0 Ti1 2.704674 1_656
Si0 Ti1 2.704674 1_556
Si1 Ti1 2.704674 1_545
Si1 Ti1 2.704674 1_555
Si1 Ti0 2.704674 1_455
Si1 Ti0 2.704674 1_555
