# generated using pymatgen
data_HoMnO3
_symmetry_space_group_name_H-M   'P 1'
_cell_length_a   6.13719875
_cell_length_b   6.13719875
_cell_length_c   11.40697063
_cell_angle_alpha   90.00000000
_cell_angle_beta   90.00000000
_cell_angle_gamma   120.87520052
_symmetry_Int_Tables_number   1
_chemical_formula_structural   HoMnO3
_chemical_formula_sum   'Ho6 Mn6 O18'
_cell_volume   368.75955804
_cell_formula_units_Z   6
loop_
 _symmetry_equiv_pos_site_id
 _symmetry_equiv_pos_as_xyz
  1  'x, y, z'
loop_
 _atom_site_type_symbol
 _atom_site_label
 _atom_site_symmetry_multiplicity
 _atom_site_fract_x
 _atom_site_fract_y
 _atom_site_fract_z
 _atom_site_occupancy
  Ho  Ho0  1  0.00088521  0.00088521  0.33982312  1
  Ho  Ho1  1  0.99911479  0.99911479  0.83982312  1
  Ho  Ho2  1  0.66961729  0.33606223  0.29549758  1
  Ho  Ho3  1  0.33606223  0.66961729  0.29549758  1
  Ho  Ho4  1  0.33038271  0.66393777  0.79549758  1
  Ho  Ho5  1  0.66393777  0.33038271  0.79549758  1
  Mn  Mn0  1  0.65904040  0.65904040  0.06552818  1
  Mn  Mn1  1  0.32594894  0.99214231  0.06377144  1
  Mn  Mn2  1  0.99214231  0.32594894  0.06377144  1
  Mn  Mn3  1  0.34095960  0.34095960  0.56552818  1
  Mn  Mn4  1  0.67405106  0.00785769  0.56377144  1
  Mn  Mn5  1  0.00785769  0.67405106  0.56377144  1
  O  O0  1  0.36144285  0.36144285  0.40150250  1
  O  O1  1  0.00418365  0.64324553  0.40033006  1
  O  O2  1  0.64324553  0.00418365  0.40033006  1
  O  O3  1  0.63855715  0.63855715  0.90150250  1
  O  O4  1  0.99581635  0.35675447  0.90033006  1
  O  O5  1  0.35675447  0.99581635  0.90033006  1
  O  O6  1  0.69330215  0.69330215  0.22904514  1
  O  O7  1  0.00121117  0.30691269  0.22784184  1
  O  O8  1  0.30691269  0.00121117  0.22784184  1
  O  O9  1  0.30669785  0.30669785  0.72904514  1
  O  O10  1  0.99878883  0.69308731  0.72784184  1
  O  O11  1  0.69308731  0.99878883  0.72784184  1
  O  O12  1  0.98380833  0.98380833  0.54107569  1
  O  O13  1  0.01619167  0.01619167  0.04107569  1
  O  O14  1  0.68271264  0.34907850  0.08368325  1
  O  O15  1  0.34907850  0.68271264  0.08368325  1
  O  O16  1  0.31728736  0.65092150  0.58368325  1
  O  O17  1  0.65092150  0.31728736  0.58368325  1
loop_
_geom_bond_atom_site_label_1
_geom_bond_atom_site_label_2
_geom_bond_distance
_geom_bond_site_symmetry_2
Ho0 O6 2.250852 1_445
Ho0 O7 2.270521 1_555
Ho0 O8 2.270521 1_555
Ho0 O0 2.294034 1_555
Ho0 O12 2.298010 1_445
Ho0 O2 2.310844 1_455
Ho0 O1 2.310844 1_545
Ho1 O9 2.250852 1_665
Ho1 O11 2.270521 1_555
Ho1 O10 2.270521 1_555
Ho1 O3 2.294034 1_555
Ho1 O13 2.298010 1_666
Ho1 O4 2.310844 1_565
Ho1 O5 2.310844 1_655
Ho2 O6 2.252884 1_555
Ho2 O8 2.253628 1_555
Ho2 O7 2.267755 1_655
Ho2 O1 2.286317 1_655
Ho2 O2 2.294868 1_555
Ho2 O0 2.316441 1_555
Ho2 O14 2.417453 1_555
Ho3 O6 2.252884 1_555
Ho3 O7 2.253628 1_555
Ho3 O8 2.267755 1_565
Ho3 O2 2.286317 1_565
Ho3 O1 2.294868 1_555
Ho3 O0 2.316441 1_555
Ho3 O15 2.417453 1_555
Ho4 O9 2.252884 1_555
Ho4 O11 2.253628 1_555
Ho4 O10 2.267755 1_455
Ho4 O4 2.286317 1_455
Ho4 O5 2.294868 1_555
Ho4 O3 2.316441 1_555
Ho4 O16 2.417453 1_555
Ho5 O9 2.252884 1_555
Ho5 O10 2.253628 1_555
Ho5 O11 2.267755 1_545
Ho5 O5 2.286317 1_545
Ho5 O4 2.294868 1_555
Ho5 O3 2.316441 1_555
Ho5 O17 2.417453 1_555
Mn0 O3 1.875143 1_554
Mn0 O6 1.876738 1_555
Mn0 O14 1.991577 1_555
Mn0 O15 1.991577 1_555
Mn0 O13 2.180760 1_665
Mn1 O5 1.872900 1_554
Mn1 O8 1.877793 1_565
Mn1 O15 1.988650 1_555
Mn1 O13 1.997685 1_565
Mn1 O14 2.172928 1_565
Mn2 O4 1.872900 1_554
Mn2 O7 1.877793 1_655
Mn2 O14 1.988650 1_555
Mn2 O13 1.997685 1_655
Mn2 O15 2.172928 1_655
Mn3 O0 1.875143 1_555
Mn3 O9 1.876738 1_555
Mn3 O16 1.991577 1_555
Mn3 O17 1.991577 1_555
Mn3 O12 2.180760 1_445
Mn4 O2 1.872900 1_555
Mn4 O11 1.877793 1_545
Mn4 O17 1.988650 1_555
Mn4 O12 1.997685 1_545
Mn4 O16 2.172928 1_545
Mn5 O1 1.872900 1_555
Mn5 O10 1.877793 1_455
Mn5 O16 1.988650 1_555
Mn5 O12 1.997685 1_455
Mn5 O17 2.172928 1_455
