# generated using pymatgen
data_Na3Y2Mg2PS5O24
_symmetry_space_group_name_H-M   'P 1'
_cell_length_a   8.94648917
_cell_length_b   8.96288300
_cell_length_c   23.40882986
_cell_angle_alpha   90.24432793
_cell_angle_beta   89.80981645
_cell_angle_gamma   119.89569431
_symmetry_Int_Tables_number   1
_chemical_formula_structural   Na3Y2Mg2PS5O24
_chemical_formula_sum   'Na9 Y6 Mg6 P3 S15 O72'
_cell_volume   1627.27837073
_cell_formula_units_Z   3
loop_
 _symmetry_equiv_pos_site_id
 _symmetry_equiv_pos_as_xyz
  1  'x, y, z'
loop_
 _atom_site_type_symbol
 _atom_site_label
 _atom_site_symmetry_multiplicity
 _atom_site_fract_x
 _atom_site_fract_y
 _atom_site_fract_z
 _atom_site_occupancy
  Na  Na0  1  0.36653422  0.99410429  0.74989082  1
  Na  Na1  1  0.65932077  0.97080759  0.58854644  1
  Na  Na2  1  0.67316782  0.69387104  0.08232099  1
  Na  Na3  1  0.02757587  0.00196466  0.50697002  1
  Na  Na4  1  0.01662356  0.00317180  0.00579521  1
  Na  Na5  1  0.68185187  0.33660517  0.83308033  1
  Na  Na6  1  0.66695742  0.33350150  0.33298926  1
  Na  Na7  1  0.30587932  0.66388324  0.16660683  1
  Na  Na8  1  0.33076010  0.65876793  0.66670133  1
  Y  Y0  1  0.00097071  0.99966852  0.35365121  1
  Y  Y1  1  0.98831122  0.00017628  0.85333717  1
  Y  Y2  1  0.66955857  0.33352313  0.68167762  1
  Y  Y3  1  0.67487705  0.33597043  0.18344525  1
  Y  Y4  1  0.67278037  0.33625414  0.98232431  1
  Y  Y5  1  0.65646014  0.32878557  0.48182444  1
  Mg  Mg0  1  0.00160855  0.99945669  0.65136947  1
  Mg  Mg1  1  0.00869012  0.99966652  0.15138648  1
  Mg  Mg2  1  0.31996229  0.66811875  0.01740952  1
  Mg  Mg3  1  0.32735185  0.66900818  0.51686183  1
  Mg  Mg4  1  0.33244637  0.66655847  0.31492060  1
  Mg  Mg5  1  0.34274899  0.66749689  0.81497575  1
  P  P0  1  0.69602485  0.99045088  0.74640105  1
  P  P1  1  0.35410464  0.02101641  0.58469448  1
  P  P2  1  0.97556551  0.64545416  0.08368445  1
  S  S0  1  0.29352152  0.99085710  0.24920674  1
  S  S1  1  0.69648810  0.70801210  0.24836928  1
  S  S2  1  0.01082571  0.29903240  0.24928595  1
  S  S3  1  0.28940598  0.29799349  0.74941159  1
  S  S4  1  0.00736257  0.70825073  0.75011510  1
  S  S5  1  0.97617472  0.33348053  0.58179320  1
  S  S6  1  0.66688707  0.64240277  0.58252890  1
  S  S7  1  0.66708101  0.02427822  0.08303296  1
  S  S8  1  0.35994065  0.33400208  0.08302045  1
  S  S9  1  0.61349391  0.66365251  0.91890755  1
  S  S10  1  0.05382456  0.38763785  0.91611170  1
  S  S11  1  0.33444774  0.95202749  0.91515633  1
  S  S12  1  0.61503296  0.94859359  0.41712846  1
  S  S13  1  0.33363762  0.38824151  0.41617147  1
  S  S14  1  0.04881358  0.66382989  0.41618922  1
  O  O0  1  0.21525137  0.01750598  0.30174163  1
  O  O1  1  0.80649332  0.79221624  0.29923635  1
  O  O2  1  0.98765930  0.19653397  0.30168498  1
  O  O3  1  0.21452857  0.18820260  0.80092606  1
  O  O4  1  0.98403439  0.78698062  0.80290027  1
  O  O5  1  0.80685178  0.01472165  0.79973414  1
  O  O6  1  0.78257702  0.97760792  0.69103733  1
  O  O7  1  0.18667919  0.21272130  0.69820380  1
  O  O8  1  0.03084967  0.81783608  0.69997468  1
  O  O9  1  0.77995216  0.80628030  0.19576699  1
  O  O10  1  0.02457993  0.20983210  0.19821892  1
  O  O11  1  0.18954226  0.97458679  0.19843663  1
  O  O12  1  0.89850764  0.36637165  0.63347126  1
  O  O13  1  0.47181737  0.10396043  0.63881790  1
  O  O14  1  0.64270706  0.53668111  0.63405943  1
  O  O15  1  0.88688005  0.52905273  0.13634586  1
  O  O16  1  0.63502768  0.10350580  0.13404113  1
  O  O17  1  0.47484991  0.36440524  0.13322698  1
  O  O18  1  0.43965930  0.30107861  0.03184302  1
  O  O19  1  0.85063803  0.55705315  0.03177392  1
  O  O20  1  0.69227453  0.13257353  0.03192043  1
  O  O21  1  0.44932046  0.14273093  0.53341087  1
  O  O22  1  0.69595248  0.55991606  0.53174179  1
  O  O23  1  0.85934404  0.30393422  0.53220173  1
  O  O24  1  0.53253383  0.67585054  0.97243169  1
  O  O25  1  0.14774396  0.46994306  0.96850981  1
  O  O26  1  0.32204308  0.85172569  0.96583590  1
  O  O27  1  0.53691785  0.85701976  0.47102898  1
  O  O28  1  0.32175784  0.47198842  0.46868009  1
  O  O29  1  0.14591763  0.67942175  0.46849251  1
  O  O30  1  0.13154678  0.65001682  0.36377485  1
  O  O31  1  0.51471085  0.86204040  0.36614352  1
  O  O32  1  0.34557811  0.48269216  0.36389918  1
  O  O33  1  0.13719666  0.48319914  0.86365299  1
  O  O34  1  0.34795095  0.87306399  0.86095031  1
  O  O35  1  0.51609264  0.65303994  0.86738850  1
  O  O36  1  0.02792927  0.82052644  0.41444840  1
  O  O37  1  0.79204662  0.96944782  0.41435962  1
  O  O38  1  0.17857915  0.21012358  0.41482257  1
  O  O39  1  0.03340226  0.21076402  0.91486926  1
  O  O40  1  0.17833955  0.97341405  0.91424567  1
  O  O41  1  0.79113265  0.81911731  0.91702537  1
  O  O42  1  0.98037962  0.17097160  0.58889657  1
  O  O43  1  0.17617275  0.00385507  0.59218528  1
  O  O44  1  0.81995067  0.81704260  0.58871313  1
  O  O45  1  0.98083391  0.82055298  0.09123560  1
  O  O46  1  0.82396604  0.00982406  0.09029489  1
  O  O47  1  0.18744559  0.18355096  0.09132424  1
  O  O48  1  0.67076020  0.15315660  0.74575281  1
  O  O49  1  0.46553591  0.31467922  0.74459369  1
  O  O50  1  0.85243692  0.53479509  0.74526346  1
  O  O51  1  0.67703229  0.53157921  0.24586443  1
  O  O52  1  0.85223957  0.31629103  0.24668457  1
  O  O53  1  0.46895870  0.14714153  0.24511976  1
  O  O54  1  0.63388395  0.50699728  0.91930812  1
  O  O55  1  0.87509221  0.36476608  0.91761842  1
  O  O56  1  0.49117896  0.12826242  0.91832623  1
  O  O57  1  0.63708583  0.12654497  0.41861139  1
  O  O58  1  0.49064030  0.36712731  0.41771151  1
  O  O59  1  0.87170946  0.50857184  0.41893814  1
  O  O60  1  0.35466135  0.49584368  0.07571732  1
  O  O61  1  0.15345854  0.66362995  0.07575385  1
  O  O62  1  0.51604831  0.84902898  0.07570604  1
  O  O63  1  0.35060636  0.84758703  0.57634372  1
  O  O64  1  0.51082963  0.65844984  0.57589315  1
  O  O65  1  0.14856903  0.48287453  0.57379111  1
  O  O66  1  0.30960258  0.83489416  0.25454340  1
  O  O67  1  0.52525899  0.69251441  0.25507546  1
  O  O68  1  0.16516553  0.47207646  0.25410027  1
  O  O69  1  0.30744060  0.46958136  0.75641889  1
  O  O70  1  0.16491453  0.69309241  0.75521081  1
  O  O71  1  0.51230857  0.83112496  0.75310070  1
loop_
_geom_bond_atom_site_label_1
_geom_bond_atom_site_label_2
_geom_bond_distance
_geom_bond_site_symmetry_2
Na0 O48 2.362456 1_565
Na0 O70 2.387098 1_555
Na0 O71 2.396037 1_555
Na0 O49 2.553627 1_565
Na0 O13 2.774566 1_565
Na0 O34 2.793706 1_555
Na0 O8 2.856289 1_555
Na0 O3 2.938189 1_565
Na1 O63 2.427211 1_555
Na1 O44 2.436995 1_555
Na1 O64 2.445102 1_555
Na1 O42 2.516391 1_565
Na1 O6 2.631563 1_555
Na1 O13 2.755669 1_565
Na1 O23 2.923792 1_565
Na1 O27 2.947845 1_555
Na2 O45 2.407389 1_555
Na2 O62 2.426056 1_555
Na2 O46 2.462327 1_565
Na2 O60 2.500567 1_555
Na2 O19 2.709386 1_555
Na2 O9 2.831027 1_555
Na2 O24 2.835774 1_554
Na2 O17 2.842744 1_555
Na3 O43 2.396183 1_555
Na3 O42 2.599670 1_455
Na3 O44 2.606422 1_445
Na3 O36 2.703775 1_545
Na3 O38 2.731538 1_555
Na3 O37 2.938982 1_445
Na4 O45 2.506607 1_445
Na4 O47 2.547083 1_555
Na4 O46 2.639284 1_455
Na4 O40 2.667636 1_544
Na4 O39 2.787127 1_554
Na4 O41 2.791113 1_444
Na5 O55 2.559726 1_555
Na5 O48 2.588873 1_555
Na5 O50 2.649207 1_555
Na5 O54 2.685537 1_555
Na5 O56 2.685663 1_555
Na5 O49 2.778214 1_555
Na6 O58 2.638257 1_555
Na6 O59 2.645366 1_555
Na6 O57 2.657714 1_555
Na6 O52 2.661408 1_555
Na6 O51 2.681352 1_555
Na6 O53 2.684057 1_555
Na7 O61 2.529572 1_555
Na7 O66 2.551563 1_555
Na7 O68 2.567212 1_555
Na7 O60 2.758145 1_555
Na7 O62 2.776733 1_555
Na7 O67 2.779777 1_555
Na8 O71 2.570806 1_555
Na8 O69 2.646576 1_555
Na8 O70 2.649166 1_555
Na8 O64 2.663784 1_555
Na8 O63 2.664216 1_555
Na8 O65 2.702813 1_555
Mg0 O43 2.069959 1_565
Mg0 O6 2.085051 1_455
Mg0 O7 2.106275 1_565
Mg0 O8 2.110726 1_555
Mg0 O44 2.193678 1_455
Mg0 O42 2.202269 1_465
Mg1 O45 2.050902 1_455
Mg1 O11 2.063488 1_555
Mg1 O10 2.118216 1_565
Mg1 O47 2.151301 1_565
Mg1 O9 2.176418 1_455
Mg1 O46 2.225174 1_465
Mg2 O61 2.003286 1_555
Mg2 O25 2.026197 1_554
Mg2 O26 2.037714 1_554
Mg2 O24 2.141503 1_554
Mg2 O62 2.174957 1_555
Mg2 O60 2.200493 1_555
Mg3 O29 2.022288 1_555
Mg3 O63 2.048145 1_555
Mg3 O28 2.070793 1_555
Mg3 O27 2.087714 1_555
Mg3 O65 2.112419 1_555
Mg3 O64 2.187227 1_555
Mg4 O32 2.062560 1_555
Mg4 O30 2.069412 1_555
Mg4 O31 2.076917 1_555
Mg4 O67 2.139852 1_555
Mg4 O66 2.154816 1_555
Mg4 O68 2.167422 1_555
Mg5 O35 2.035058 1_555
Mg5 O71 2.082249 1_555
Mg5 O33 2.093523 1_555
Mg5 O34 2.110225 1_555
Mg5 O69 2.132836 1_555
Mg5 O70 2.218675 1_555
O0 S0 1.489380 1_545
O0 Y0 2.204068 1_545
O1 S1 1.488530 1_555
O1 Y0 2.208310 1_655
O2 S2 1.486472 1_655
O2 Y0 2.199116 1_645
O3 S3 1.489600 1_555
O3 Y1 2.245553 1_455
O4 S4 1.485247 1_655
O4 Y1 2.225973 1_565
O5 P0 1.542717 1_545
O5 Y1 2.110185 1_555
O6 P0 1.540579 1_555
O7 S3 1.471392 1_555
O8 S4 1.479517 1_555
O9 S1 1.482266 1_555
O10 S2 1.473872 1_555
O11 S0 1.472997 1_555
O12 S5 1.492890 1_555
O12 Y2 2.223044 1_555
O13 P1 1.577122 1_555
O13 Y2 2.176108 1_555
O14 S6 1.484403 1_555
O14 Y2 2.251883 1_555
O15 P2 1.554653 1_555
O15 Y3 2.130325 1_555
O16 S7 1.485163 1_555
O16 Y3 2.246662 1_555
O17 S8 1.496135 1_555
O17 Y3 2.262850 1_555
O18 S8 1.494006 1_555
O18 Y4 2.263731 1_554
O19 P2 1.572139 1_555
O19 Y4 2.154514 1_554
O20 S7 1.488135 1_555
O20 Y4 2.246731 1_554
O21 P1 1.560426 1_555
O21 Y5 2.143614 1_555
O22 S6 1.486508 1_555
O22 Y5 2.243707 1_555
O23 S5 1.496587 1_555
O23 Y5 2.270320 1_555
O24 S9 1.475864 1_555
O25 S10 1.461485 1_555
O26 S11 1.461745 1_555
O27 S12 1.478261 1_555
O28 S13 1.468453 1_555
O29 S14 1.468970 1_555
O30 S14 1.467186 1_555
O31 S12 1.461831 1_555
O32 S13 1.463952 1_555
O33 S10 1.471045 1_555
O34 S11 1.483964 1_555
O35 S9 1.464990 1_555
O36 S14 1.507043 1_555
O36 Y0 2.251552 1_555
O37 S12 1.500479 1_555
O37 Y0 2.251125 1_655
O38 S13 1.505410 1_555
O38 Y0 2.266639 1_545
O39 S10 1.502768 1_555
O39 Y1 2.240911 1_455
O40 S11 1.501614 1_555
O40 Y1 2.325133 1_465
O41 S9 1.503931 1_555
O41 Y1 2.262204 1_565
O42 S5 1.485707 1_555
O43 P1 1.530601 1_555
O44 S6 1.486250 1_555
O45 P2 1.555765 1_555
O46 S7 1.482809 1_555
O47 S8 1.470892 1_555
O48 P0 1.583284 1_545
O48 Y2 2.213913 1_555
O49 S3 1.510665 1_555
O49 Y2 2.281727 1_555
O50 S4 1.484080 1_655
O50 Y2 2.279873 1_555
O51 S1 1.503093 1_555
O51 Y3 2.270193 1_555
O52 S2 1.503339 1_655
O52 Y3 2.244379 1_555
O53 S0 1.497759 1_545
O53 Y3 2.288607 1_555
O54 S9 1.503416 1_555
O54 Y4 2.278731 1_555
O55 S10 1.507674 1_655
O55 Y4 2.271484 1_555
O56 S11 1.502836 1_545
O56 Y4 2.309197 1_555
O57 S12 1.506621 1_545
O57 Y5 2.273993 1_555
O58 S13 1.508460 1_555
O58 Y5 2.258029 1_555
O59 S14 1.501088 1_655
O59 Y5 2.319522 1_555
O60 S8 1.485284 1_555
O61 P2 1.527671 1_455
O62 S7 1.485243 1_565
O63 P1 1.550609 1_565
O64 S6 1.481857 1_555
O65 S5 1.465721 1_455
O66 S0 1.480693 1_555
O67 S1 1.475509 1_555
O68 S2 1.479710 1_555
O69 S3 1.472689 1_555
O70 S4 1.487157 1_555
O71 P0 1.557497 1_555
