# generated using pymatgen
data_Fe3Ge
_symmetry_space_group_name_H-M   'P 1'
_cell_length_a   5.17492853
_cell_length_b   5.17496280
_cell_length_c   4.22244748
_cell_angle_alpha   89.99999966
_cell_angle_beta   90.00000000
_cell_angle_gamma   119.99939816
_symmetry_Int_Tables_number   1
_chemical_formula_structural   Fe3Ge
_chemical_formula_sum   'Fe6 Ge2'
_cell_volume   97.92850185
_cell_formula_units_Z   2
loop_
 _symmetry_equiv_pos_site_id
 _symmetry_equiv_pos_as_xyz
  1  'x, y, z'
loop_
 _atom_site_type_symbol
 _atom_site_label
 _atom_site_symmetry_multiplicity
 _atom_site_fract_x
 _atom_site_fract_y
 _atom_site_fract_z
 _atom_site_occupancy
  Fe  Fe0  1  0.83907994  0.67814217  0.24999993  1
  Fe  Fe1  1  0.16093911  0.83906215  0.75000001  1
  Fe  Fe2  1  0.67814252  0.83907383  0.74999994  1
  Fe  Fe3  1  0.32185102  0.16091195  0.25000006  1
  Fe  Fe4  1  0.83905603  0.16092936  0.24999999  1
  Fe  Fe5  1  0.16093270  0.32186621  0.75000007  1
  Ge  Ge0  1  0.33332019  0.66668299  0.25000000  1
  Ge  Ge1  1  0.66667849  0.33333134  0.75000000  1
loop_
_geom_bond_atom_site_label_1
_geom_bond_atom_site_label_2
_geom_bond_distance
_geom_bond_site_symmetry_2
Fe0 Fe3 2.498333 1_665
Fe0 Fe4 2.498468 1_565
Fe0 Fe1 2.556942 1_654
Fe0 Fe1 2.556943 1_655
Fe0 Fe2 2.556963 1_554
Fe0 Fe2 2.556963 1_555
Fe0 Ge0 2.587817 1_655
Fe0 Ge0 2.588130 1_555
Fe0 Ge1 2.616355 1_554
Fe0 Ge1 2.616355 1_555
Fe0 Fe4 2.676495 1_555
Fe0 Fe3 2.676659 1_555
Fe1 Fe2 2.498468 1_455
Fe1 Fe5 2.498510 1_565
Fe1 Fe3 2.556924 1_565
Fe1 Fe3 2.556924 1_566
Fe1 Ge1 2.587985 1_455
Fe1 Ge1 2.588029 1_565
Fe1 Ge0 2.616209 1_556
Fe1 Ge0 2.616210 1_555
Fe1 Fe5 2.676453 1_555
Fe1 Fe2 2.676460 1_555
Fe2 Fe5 2.498441 1_665
Fe2 Fe4 2.556938 1_565
Fe2 Fe4 2.556939 1_566
Fe2 Ge1 2.587937 1_565
Fe2 Ge1 2.588046 1_555
Fe2 Ge0 2.616379 1_555
Fe2 Ge0 2.616379 1_556
Fe2 Fe5 2.676551 1_555
Fe3 Fe4 2.498475 1_455
Fe3 Fe5 2.556971 1_554
Fe3 Fe5 2.556972 1_555
Fe3 Ge0 2.587803 1_545
Fe3 Ge0 2.588181 1_555
Fe3 Ge1 2.616393 1_555
Fe3 Ge1 2.616393 1_554
Fe3 Fe4 2.676454 1_555
Fe4 Fe5 2.556986 1_654
Fe4 Fe5 2.556987 1_655
Fe4 Ge0 2.587962 1_545
Fe4 Ge0 2.588055 1_655
Fe4 Ge1 2.616261 1_554
Fe4 Ge1 2.616261 1_555
Fe5 Ge1 2.587906 1_455
Fe5 Ge1 2.588043 1_555
Fe5 Ge0 2.616370 1_556
Fe5 Ge0 2.616371 1_555
