# generated using pymatgen
data_Na3Ta2Si3Ge2(PO8)3
_symmetry_space_group_name_H-M   'P 1'
_cell_length_a   8.68169385
_cell_length_b   8.69247937
_cell_length_c   22.28249953
_cell_angle_alpha   90.41905471
_cell_angle_beta   89.38159761
_cell_angle_gamma   120.06368297
_symmetry_Int_Tables_number   1
_chemical_formula_structural   Na3Ta2Si3Ge2(PO8)3
_chemical_formula_sum   'Na9 Ta6 Si9 Ge6 P9 O72'
_cell_volume   1455.24887659
_cell_formula_units_Z   3
loop_
 _symmetry_equiv_pos_site_id
 _symmetry_equiv_pos_as_xyz
  1  'x, y, z'
loop_
 _atom_site_type_symbol
 _atom_site_label
 _atom_site_symmetry_multiplicity
 _atom_site_fract_x
 _atom_site_fract_y
 _atom_site_fract_z
 _atom_site_occupancy
  Na  Na0  1  0.99958307  0.63259982  0.25070040  1
  Na  Na1  1  0.66520976  0.96697649  0.58375576  1
  Na  Na2  1  0.66742890  0.70090004  0.08297288  1
  Na  Na3  1  0.01016904  0.99934931  0.50169764  1
  Na  Na4  1  0.00983269  0.01017363  0.00196190  1
  Na  Na5  1  0.67059558  0.33613951  0.83346085  1
  Na  Na6  1  0.65869095  0.32477203  0.33112979  1
  Na  Na7  1  0.33326459  0.66663746  0.16683857  1
  Na  Na8  1  0.32419498  0.66164525  0.66505375  1
  Ta  Ta0  1  0.99591994  0.99342594  0.35581580  1
  Ta  Ta1  1  0.98976581  0.99427269  0.85804090  1
  Ta  Ta2  1  0.66736958  0.33023405  0.68799724  1
  Ta  Ta3  1  0.67110509  0.33945569  0.97952632  1
  Ta  Ta4  1  0.66339504  0.33116293  0.47595940  1
  Ta  Ta5  1  0.33236350  0.66606865  0.80913400  1
  Si  Si0  1  0.70023623  0.70585546  0.24709059  1
  Si  Si1  1  0.00062969  0.71721960  0.74740953  1
  Si  Si2  1  0.72029714  0.99908915  0.74629252  1
  Si  Si3  1  0.36207037  0.03459613  0.58303845  1
  Si  Si4  1  0.96717979  0.62871660  0.08697581  1
  Si  Si5  1  0.60846440  0.66472904  0.92082284  1
  Si  Si6  1  0.05472570  0.38485804  0.91941732  1
  Si  Si7  1  0.60796631  0.94106365  0.41713184  1
  Si  Si8  1  0.06008985  0.66597989  0.41520514  1
  Ge  Ge0  1  0.00607811  0.99484357  0.64722194  1
  Ge  Ge1  1  0.99816077  0.99735186  0.14822992  1
  Ge  Ge2  1  0.66852685  0.33605143  0.18547534  1
  Ge  Ge3  1  0.32467867  0.66429719  0.02056344  1
  Ge  Ge4  1  0.33083589  0.67206762  0.51923313  1
  Ge  Ge5  1  0.34113713  0.66932699  0.31378623  1
  P  P0  1  0.29453599  0.00524145  0.24700364  1
  P  P1  1  0.99957962  0.28584253  0.24753879  1
  P  P2  1  0.27878346  0.27957303  0.74793771  1
  P  P3  1  0.96641637  0.33789487  0.58174572  1
  P  P4  1  0.66413789  0.62521675  0.58285661  1
  P  P5  1  0.66709668  0.04656519  0.08640893  1
  P  P6  1  0.37139732  0.32818719  0.08683133  1
  P  P7  1  0.33303120  0.94897694  0.91926489  1
  P  P8  1  0.33212074  0.39086909  0.41706674  1
  O  O0  1  0.21099238  0.03833390  0.30405759  1
  O  O1  1  0.83718920  0.79915880  0.30452343  1
  O  O2  1  0.97222863  0.17189049  0.30396027  1
  O  O3  1  0.20213860  0.17070936  0.80552141  1
  O  O4  1  0.97108608  0.80293732  0.80856535  1
  O  O5  1  0.83759551  0.03388454  0.80683632  1
  O  O6  1  0.80574731  0.97125949  0.68480368  1
  O  O7  1  0.16634601  0.20182793  0.69159521  1
  O  O8  1  0.03959884  0.83781448  0.68845453  1
  O  O9  1  0.79164822  0.83061544  0.18773426  1
  O  O10  1  0.03483891  0.20164034  0.19134119  1
  O  O11  1  0.16751795  0.96333729  0.19266156  1
  O  O12  1  0.87744028  0.36914526  0.63826216  1
  O  O13  1  0.49954433  0.13000933  0.63952930  1
  O  O14  1  0.63879891  0.50897786  0.63854143  1
  O  O15  1  0.87466636  0.50239492  0.14586716  1
  O  O16  1  0.63149980  0.13153546  0.14224317  1
  O  O17  1  0.49940773  0.37004199  0.14089530  1
  O  O18  1  0.45501918  0.29497822  0.02973459  1
  O  O19  1  0.83021482  0.53568549  0.02956401  1
  O  O20  1  0.69473309  0.16084982  0.02997667  1
  O  O21  1  0.46511263  0.16399198  0.52546827  1
  O  O22  1  0.69656481  0.53814362  0.52707702  1
  O  O23  1  0.84052866  0.30332626  0.52761270  1
  O  O24  1  0.53082775  0.70280256  0.98258552  1
  O  O25  1  0.17281298  0.47056037  0.97840606  1
  O  O26  1  0.29875753  0.83568384  0.97546133  1
  O  O27  1  0.53827108  0.82995255  0.47957316  1
  O  O28  1  0.29881674  0.46736445  0.47464626  1
  O  O29  1  0.17411900  0.70200969  0.47546004  1
  O  O30  1  0.13415925  0.62837213  0.35196206  1
  O  O31  1  0.49163742  0.86231428  0.35723700  1
  O  O32  1  0.36921991  0.50092153  0.35948412  1
  O  O33  1  0.13322745  0.50174878  0.85849970  1
  O  O34  1  0.36520853  0.86951327  0.86132929  1
  O  O35  1  0.49751297  0.63788417  0.85999949  1
  O  O36  1  0.03873008  0.84391901  0.40836303  1
  O  O37  1  0.81177178  0.97417801  0.40935184  1
  O  O38  1  0.16857671  0.20187189  0.40964659  1
  O  O39  1  0.03495669  0.18951352  0.91295899  1
  O  O40  1  0.16952362  0.97196034  0.91206451  1
  O  O41  1  0.80961835  0.83698902  0.91484840  1
  O  O42  1  0.97163973  0.16415185  0.58841345  1
  O  O43  1  0.17226802  0.02705676  0.58934365  1
  O  O44  1  0.82958333  0.81402366  0.58776158  1
  O  O45  1  0.97435258  0.82198899  0.09232207  1
  O  O46  1  0.83743338  0.02997240  0.09109419  1
  O  O47  1  0.18609273  0.16142090  0.09395651  1
  O  O48  1  0.69541403  0.17371098  0.74210205  1
  O  O49  1  0.46777709  0.30353996  0.74107482  1
  O  O50  1  0.82247846  0.52160575  0.74208170  1
  O  O51  1  0.69261450  0.51210166  0.24133433  1
  O  O52  1  0.82921907  0.30298124  0.24253304  1
  O  O53  1  0.48017043  0.17195286  0.23964087  1
  O  O54  1  0.62999855  0.48807770  0.92538434  1
  O  O55  1  0.85250472  0.35529614  0.92544624  1
  O  O56  1  0.50027125  0.13484906  0.92544672  1
  O  O57  1  0.63519595  0.14203430  0.42343516  1
  O  O58  1  0.49966106  0.36958305  0.42350219  1
  O  O59  1  0.85754565  0.49626110  0.42308098  1
  O  O60  1  0.36315185  0.50170866  0.08040385  1
  O  O61  1  0.16198645  0.64867083  0.07744596  1
  O  O62  1  0.50373765  0.85694975  0.08018020  1
  O  O63  1  0.35776498  0.84393417  0.57751409  1
  O  O64  1  0.49463013  0.64014919  0.57784729  1
  O  O65  1  0.15022456  0.50308772  0.57545326  1
  O  O66  1  0.30366219  0.83183095  0.25342858  1
  O  O67  1  0.50478763  0.68531124  0.25682483  1
  O  O68  1  0.16300659  0.47609757  0.25354328  1
  O  O69  1  0.30341300  0.46785508  0.75393501  1
  O  O70  1  0.17327759  0.69190476  0.75367439  1
  O  O71  1  0.52420006  0.82498196  0.75316378  1
loop_
_geom_bond_atom_site_label_1
_geom_bond_atom_site_label_2
_geom_bond_distance
_geom_bond_site_symmetry_2
Na0 O66 2.322355 1_655
Na0 O51 2.335585 1_555
Na0 O68 2.409291 1_655
Na0 O52 2.486432 1_555
Na0 O30 2.560996 1_655
Na0 O15 2.588428 1_555
Na0 O1 2.739603 1_555
Na0 O11 2.806679 1_655
Na1 O63 2.330915 1_555
Na1 O42 2.336806 1_565
Na1 O44 2.391136 1_555
Na1 O64 2.462688 1_555
Na1 O6 2.563651 1_555
Na1 O27 2.592667 1_555
Na1 O13 2.756669 1_565
Na1 O23 2.825519 1_565
Na2 O60 2.323492 1_555
Na2 O45 2.334561 1_555
Na2 O62 2.407897 1_555
Na2 O46 2.482248 1_565
Na2 O24 2.547115 1_554
Na2 O9 2.584776 1_555
Na2 O19 2.729150 1_555
Na2 O17 2.806285 1_555
Na3 O43 2.359118 1_565
Na3 O44 2.486072 1_455
Na3 O42 2.514618 1_465
Na3 O36 2.548642 1_555
Na3 O38 2.600725 1_565
Na3 O37 2.634588 1_455
Na4 O39 2.471050 1_554
Na4 O47 2.506921 1_555
Na4 O45 2.520839 1_445
Na4 O46 2.530465 1_455
Na4 O40 2.537064 1_544
Na4 O41 2.542407 1_444
Na5 O50 2.518705 1_555
Na5 O48 2.537180 1_555
Na5 O54 2.544646 1_555
Na5 O55 2.554285 1_555
Na5 O56 2.616100 1_555
Na5 O49 2.643546 1_555
Na6 O53 2.507664 1_555
Na6 O51 2.509223 1_555
Na6 O52 2.517416 1_555
Na6 O57 2.551327 1_555
Na6 O58 2.600042 1_555
Na6 O59 2.617971 1_555
Na7 O61 2.455575 1_555
Na7 O67 2.466133 1_555
Na7 O60 2.480642 1_555
Na7 O66 2.483795 1_555
Na7 O62 2.487501 1_555
Na7 O68 2.488568 1_555
Na8 O70 2.442765 1_555
Na8 O63 2.443524 1_555
Na8 O65 2.471042 1_555
Na8 O64 2.491968 1_555
Na8 O71 2.539331 1_555
Na8 O69 2.555209 1_555
Ge0 O8 1.792785 1_555
Ge0 O6 1.839018 1_455
Ge0 O43 1.839483 1_565
Ge0 O7 1.909502 1_565
Ge0 O44 2.043062 1_455
Ge0 O42 2.109501 1_465
Ge1 O9 1.863053 1_555
Ge1 O45 1.892185 1_555
Ge1 O10 1.895436 1_665
Ge1 O11 1.923717 1_655
Ge1 O47 1.951860 1_665
Ge1 O46 2.021982 1_565
Ge2 O15 1.861279 1_555
Ge2 O51 1.895239 1_555
Ge2 O16 1.897573 1_555
Ge2 O17 1.923591 1_555
Ge2 O53 1.952172 1_555
Ge2 O52 2.022560 1_555
Ge3 O25 1.798818 1_554
Ge3 O61 1.841634 1_555
Ge3 O24 1.844595 1_554
Ge3 O26 1.908601 1_554
Ge3 O62 2.095087 1_555
Ge3 O60 2.096917 1_555
Ge4 O29 1.804826 1_555
Ge4 O27 1.847904 1_555
Ge4 O63 1.897695 1_555
Ge4 O28 1.927442 1_555
Ge4 O65 1.965303 1_555
Ge4 O64 2.060486 1_555
Ge5 O31 1.807260 1_555
Ge5 O30 1.846555 1_555
Ge5 O67 1.847896 1_555
Ge5 O32 1.903664 1_555
Ge5 O66 2.099448 1_555
Ge5 O68 2.103338 1_555
O0 P0 1.552033 1_555
O0 Ta0 2.049077 1_445
O1 Si0 1.661540 1_555
O1 Ta0 1.931606 1_555
O2 P1 1.547327 1_555
O2 Ta0 2.033466 1_545
O3 P2 1.533968 1_555
O3 Ta1 2.065823 1_445
O4 Si1 1.626962 1_655
O4 Ta1 1.927339 1_555
O5 Si2 1.632049 1_545
O5 Ta1 1.913035 1_545
O6 Si2 1.624538 1_555
O7 P2 1.529320 1_555
O8 Si1 1.610671 1_555
O9 Si0 1.640490 1_555
O10 P1 1.549284 1_455
O11 P0 1.560400 1_565
O12 P3 1.562252 1_555
O12 Ta2 2.003122 1_555
O13 Si3 1.649903 1_555
O13 Ta2 1.945289 1_555
O14 P4 1.548752 1_555
O14 Ta2 2.026591 1_555
O15 Si4 1.639358 1_555
O16 P5 1.547852 1_555
O17 P6 1.560798 1_555
O18 P6 1.553601 1_555
O18 Ta3 2.038330 1_554
O19 Si4 1.660935 1_555
O19 Ta3 1.924954 1_554
O20 P5 1.548735 1_555
O20 Ta3 2.016370 1_554
O21 Si3 1.642918 1_555
O21 Ta4 1.941157 1_555
O22 P4 1.545678 1_555
O22 Ta4 2.018748 1_555
O23 P3 1.560078 1_555
O23 Ta4 2.040407 1_555
O24 Si5 1.629307 1_555
O25 Si6 1.607250 1_555
O26 P7 1.530609 1_555
O27 Si7 1.628114 1_555
O28 P8 1.531014 1_555
O29 Si8 1.610178 1_555
O30 Si8 1.640299 1_555
O31 Si7 1.610214 1_555
O32 P8 1.538021 1_555
O33 Si6 1.626591 1_555
O33 Ta5 1.935675 1_555
O34 P7 1.547324 1_555
O34 Ta5 2.008278 1_555
O35 Si5 1.617860 1_555
O35 Ta5 1.947162 1_555
O36 Si8 1.655732 1_555
O36 Ta0 1.927075 1_455
O37 Si7 1.651491 1_555
O37 Ta0 1.923719 1_555
O38 P8 1.551215 1_555
O38 Ta0 2.062637 1_445
O39 Si6 1.624326 1_555
O39 Ta1 1.960740 1_445
O40 P7 1.539554 1_555
O40 Ta1 2.066256 1_455
O41 Si5 1.639366 1_555
O41 Ta1 1.938488 1_555
O42 P3 1.541770 1_555
O43 Si3 1.620567 1_555
O44 P4 1.551603 1_555
O45 Si4 1.653160 1_555
O46 P5 1.560718 1_555
O47 P6 1.541420 1_555
O48 Si2 1.640257 1_545
O48 Ta2 1.930316 1_555
O49 P2 1.552909 1_555
O49 Ta2 2.003035 1_555
O50 Si1 1.632040 1_655
O50 Ta2 1.947881 1_555
O51 Si0 1.656119 1_555
O52 P1 1.564193 1_555
O53 P0 1.543389 1_555
O54 Si5 1.641182 1_555
O54 Ta3 1.935411 1_555
O55 Si6 1.646115 1_655
O55 Ta3 1.922355 1_555
O56 P7 1.545381 1_545
O56 Ta3 2.044337 1_555
O57 Si7 1.646434 1_545
O57 Ta4 1.925414 1_555
O58 P8 1.563651 1_555
O58 Ta4 2.003910 1_555
O59 Si8 1.642337 1_655
O59 Ta4 1.961428 1_555
O60 P6 1.553146 1_555
O61 Si4 1.623078 1_455
O62 P5 1.551173 1_565
O63 Si3 1.642658 1_565
O64 P4 1.545994 1_555
O65 P3 1.526541 1_455
O66 P0 1.556275 1_565
O67 Si0 1.627013 1_555
O68 P1 1.554312 1_455
O69 P2 1.545623 1_555
O69 Ta5 2.021487 1_555
O70 Si1 1.627871 1_555
O70 Ta5 1.958773 1_555
O71 Si2 1.621269 1_555
O71 Ta5 1.978042 1_555
