# generated using pymatgen
data_K3NaTi2(SiO4)3
_symmetry_space_group_name_H-M   'P 1'
_cell_length_a   9.24813620
_cell_length_b   9.24813586
_cell_length_c   21.90307963
_cell_angle_alpha   90.00000000
_cell_angle_beta   90.00000000
_cell_angle_gamma   120.00000120
_symmetry_Int_Tables_number   1
_chemical_formula_structural   K3NaTi2(SiO4)3
_chemical_formula_sum   'K18 Na6 Ti12 Si18 O72'
_cell_volume   1622.34878172
_cell_formula_units_Z   6
loop_
 _symmetry_equiv_pos_site_id
 _symmetry_equiv_pos_as_xyz
  1  'x, y, z'
loop_
 _atom_site_type_symbol
 _atom_site_label
 _atom_site_symmetry_multiplicity
 _atom_site_fract_x
 _atom_site_fract_y
 _atom_site_fract_z
 _atom_site_occupancy
  K  K0  1  0.65038990  0.00000000  0.25000000  1
  K  K1  1  0.34961010  0.34961010  0.25000000  1
  K  K2  1  1.00000000  0.65038990  0.25000000  1
  K  K3  1  0.65038990  0.65038990  0.75000000  1
  K  K4  1  0.00000000  0.34961010  0.75000000  1
  K  K5  1  0.34961010  0.00000000  0.75000000  1
  K  K6  1  0.31705690  0.33333300  0.58333300  1
  K  K7  1  0.01627710  0.68294310  0.58333300  1
  K  K8  1  0.66666700  0.98372290  0.58333300  1
  K  K9  1  0.31705690  0.98372290  0.08333300  1
  K  K10  1  0.66666700  0.68294310  0.08333300  1
  K  K11  1  0.01627710  0.33333300  0.08333300  1
  K  K12  1  0.98372290  0.66666700  0.91666700  1
  K  K13  1  0.68294310  0.01627710  0.91666700  1
  K  K14  1  0.33333300  0.31705690  0.91666700  1
  K  K15  1  0.98372290  0.31705690  0.41666700  1
  K  K16  1  0.33333300  0.01627710  0.41666700  1
  K  K17  1  0.68294310  0.66666700  0.41666700  1
  Na  Na0  1  0.00000000  0.00000000  0.50000000  1
  Na  Na1  1  0.00000000  0.00000000  -0.00000000  1
  Na  Na2  1  0.66666700  0.33333300  0.83333300  1
  Na  Na3  1  0.66666700  0.33333300  0.33333300  1
  Na  Na4  1  0.33333300  0.66666700  0.16666700  1
  Na  Na5  1  0.33333300  0.66666700  0.66666700  1
  Ti  Ti0  1  0.00000000  0.00000000  0.35128154  1
  Ti  Ti1  1  0.00000000  0.00000000  0.85128154  1
  Ti  Ti2  1  0.00000000  0.00000000  0.64871846  1
  Ti  Ti3  1  0.00000000  0.00000000  0.14871846  1
  Ti  Ti4  1  0.66666700  0.33333300  0.68461454  1
  Ti  Ti5  1  0.66666700  0.33333300  0.18461454  1
  Ti  Ti6  1  0.66666700  0.33333300  0.98205146  1
  Ti  Ti7  1  0.66666700  0.33333300  0.48205146  1
  Ti  Ti8  1  0.33333300  0.66666700  0.01794854  1
  Ti  Ti9  1  0.33333300  0.66666700  0.51794854  1
  Ti  Ti10  1  0.33333300  0.66666700  0.31538546  1
  Ti  Ti11  1  0.33333300  0.66666700  0.81538546  1
  Si  Si0  1  0.29492828  0.00000000  0.25000000  1
  Si  Si1  1  0.70507172  0.70507172  0.25000000  1
  Si  Si2  1  0.00000000  0.29492828  0.25000000  1
  Si  Si3  1  0.29492828  0.29492828  0.75000000  1
  Si  Si4  1  1.00000000  0.70507172  0.75000000  1
  Si  Si5  1  0.70507172  0.00000000  0.75000000  1
  Si  Si6  1  0.96159528  0.33333300  0.58333300  1
  Si  Si7  1  0.37173872  0.03840472  0.58333300  1
  Si  Si8  1  0.66666700  0.62826128  0.58333300  1
  Si  Si9  1  0.96159528  0.62826128  0.08333300  1
  Si  Si10  1  0.66666700  0.03840472  0.08333300  1
  Si  Si11  1  0.37173872  0.33333300  0.08333300  1
  Si  Si12  1  0.62826128  0.66666700  0.91666700  1
  Si  Si13  1  0.03840472  0.37173872  0.91666700  1
  Si  Si14  1  0.33333300  0.96159528  0.91666700  1
  Si  Si15  1  0.62826128  0.96159528  0.41666700  1
  Si  Si16  1  0.33333300  0.37173872  0.41666700  1
  Si  Si17  1  0.03840472  0.66666700  0.41666700  1
  O  O0  1  0.19054036  0.02031737  0.30827663  1
  O  O1  1  0.82977701  0.80945964  0.30827663  1
  O  O2  1  0.97968263  0.17022299  0.30827663  1
  O  O3  1  0.19054036  0.17022299  0.80827663  1
  O  O4  1  0.97968263  0.80945964  0.80827663  1
  O  O5  1  0.82977701  0.02031737  0.80827663  1
  O  O6  1  0.80945964  0.97968263  0.69172337  1
  O  O7  1  0.17022299  0.19054036  0.69172337  1
  O  O8  1  0.02031737  0.82977701  0.69172337  1
  O  O9  1  0.80945964  0.82977701  0.19172337  1
  O  O10  1  0.02031737  0.19054036  0.19172337  1
  O  O11  1  0.17022299  0.97968263  0.19172337  1
  O  O12  1  0.85720736  0.35365037  0.64160963  1
  O  O13  1  0.49644401  0.14279264  0.64160963  1
  O  O14  1  0.64634963  0.50355599  0.64160963  1
  O  O15  1  0.85720736  0.50355599  0.14160963  1
  O  O16  1  0.64634963  0.14279264  0.14160963  1
  O  O17  1  0.49644401  0.35365037  0.14160963  1
  O  O18  1  0.47612664  0.31301563  0.02505637  1
  O  O19  1  0.83688999  0.52387336  0.02505637  1
  O  O20  1  0.68698437  0.16311001  0.02505637  1
  O  O21  1  0.47612664  0.16311001  0.52505637  1
  O  O22  1  0.68698437  0.52387336  0.52505637  1
  O  O23  1  0.83688999  0.31301563  0.52505637  1
  O  O24  1  0.52387336  0.68698437  0.97494363  1
  O  O25  1  0.16311001  0.47612664  0.97494363  1
  O  O26  1  0.31301563  0.83688999  0.97494363  1
  O  O27  1  0.52387336  0.83688999  0.47494363  1
  O  O28  1  0.31301563  0.47612664  0.47494363  1
  O  O29  1  0.16311001  0.68698437  0.47494363  1
  O  O30  1  0.14279264  0.64634963  0.35839037  1
  O  O31  1  0.50355599  0.85720736  0.35839037  1
  O  O32  1  0.35365037  0.49644401  0.35839037  1
  O  O33  1  0.14279264  0.49644401  0.85839037  1
  O  O34  1  0.35365037  0.85720736  0.85839037  1
  O  O35  1  0.50355599  0.64634963  0.85839037  1
  O  O36  1  0.01710438  0.83222405  0.41160111  1
  O  O37  1  0.81511967  0.98289562  0.41160111  1
  O  O38  1  0.16777595  0.18488033  0.41160111  1
  O  O39  1  0.01710438  0.18488033  0.91160111  1
  O  O40  1  0.16777595  0.98289562  0.91160111  1
  O  O41  1  0.81511967  0.83222405  0.91160111  1
  O  O42  1  0.98289562  0.16777595  0.58839889  1
  O  O43  1  0.18488033  0.01710438  0.58839889  1
  O  O44  1  0.83222405  0.81511967  0.58839889  1
  O  O45  1  0.98289562  0.81511967  0.08839889  1
  O  O46  1  0.83222405  0.01710438  0.08839889  1
  O  O47  1  0.18488033  0.16777595  0.08839889  1
  O  O48  1  0.68377138  0.16555705  0.74493411  1
  O  O49  1  0.48178667  0.31622862  0.74493411  1
  O  O50  1  0.83444295  0.51821333  0.74493411  1
  O  O51  1  0.68377138  0.51821333  0.24493411  1
  O  O52  1  0.83444295  0.31622862  0.24493411  1
  O  O53  1  0.48178667  0.16555705  0.24493411  1
  O  O54  1  0.64956262  0.50110895  0.92173189  1
  O  O55  1  0.85154733  0.35043738  0.92173189  1
  O  O56  1  0.49889105  0.14845267  0.92173189  1
  O  O57  1  0.64956262  0.14845267  0.42173189  1
  O  O58  1  0.49889105  0.35043738  0.42173189  1
  O  O59  1  0.85154733  0.50110895  0.42173189  1
  O  O60  1  0.35043738  0.49889105  0.07826811  1
  O  O61  1  0.14845267  0.64956262  0.07826811  1
  O  O62  1  0.50110895  0.85154733  0.07826811  1
  O  O63  1  0.35043738  0.85154733  0.57826811  1
  O  O64  1  0.50110895  0.64956262  0.57826811  1
  O  O65  1  0.14845267  0.49889105  0.57826811  1
  O  O66  1  0.31622862  0.83444295  0.25506589  1
  O  O67  1  0.51821333  0.68377138  0.25506589  1
  O  O68  1  0.16555705  0.48178667  0.25506589  1
  O  O69  1  0.31622862  0.48178667  0.75506589  1
  O  O70  1  0.16555705  0.68377138  0.75506589  1
  O  O71  1  0.51821333  0.83444295  0.75506589  1
loop_
_geom_bond_atom_site_label_1
_geom_bond_atom_site_label_2
_geom_bond_distance
_geom_bond_site_symmetry_2
K0 O67 2.546466 1_545
K0 O52 2.546467 1_555
K0 O53 2.678666 1_555
K0 O66 2.678674 1_545
K0 O16 2.725968 1_555
K0 O31 2.725971 1_545
K0 O2 2.930451 1_555
K0 O9 2.930451 1_545
K1 O53 2.546474 1_555
K1 O68 2.546474 1_555
K1 O67 2.678674 1_555
K1 O51 2.678674 1_555
K1 O32 2.725973 1_555
K1 O17 2.725973 1_555
K1 O0 2.930451 1_555
K1 O10 2.930451 1_555
K2 O51 2.546466 1_555
K2 O66 2.546467 1_655
K2 O68 2.678666 1_655
K2 O52 2.678674 1_555
K2 O30 2.725968 1_655
K2 O15 2.725971 1_555
K2 O11 2.930451 1_655
K2 O1 2.930451 1_555
K3 O71 2.546474 1_555
K3 O50 2.546474 1_555
K3 O49 2.678674 1_555
K3 O69 2.678674 1_555
K3 O14 2.725973 1_555
K3 O35 2.725973 1_555
K3 O6 2.930451 1_555
K3 O4 2.930451 1_555
K4 O69 2.546466 1_555
K4 O48 2.546467 1_455
K4 O50 2.678666 1_455
K4 O70 2.678674 1_555
K4 O12 2.725968 1_455
K4 O33 2.725971 1_555
K4 O5 2.930451 1_455
K4 O7 2.930451 1_555
K5 O49 2.546466 1_555
K5 O70 2.546467 1_545
K5 O71 2.678666 1_545
K5 O48 2.678674 1_555
K5 O34 2.725968 1_545
K5 O13 2.725971 1_555
K5 O8 2.930451 1_545
K5 O3 2.930451 1_555
K6 O43 2.546466 1_555
K6 O64 2.546472 1_555
K6 O42 2.678674 1_455
K6 O65 2.678681 1_555
K6 O28 2.725956 1_555
K6 O7 2.725971 1_555
K6 O21 2.930451 1_555
K6 O14 2.930451 1_555
K7 O65 2.546457 1_555
K7 O44 2.546474 1_455
K7 O63 2.678665 1_555
K7 O43 2.678674 1_565
K7 O29 2.725947 1_555
K7 O8 2.725973 1_555
K7 O12 2.930451 1_455
K7 O22 2.930451 1_455
K8 O42 2.546467 1_565
K8 O63 2.546474 1_555
K8 O64 2.678665 1_555
K8 O44 2.678666 1_555
K8 O27 2.725951 1_555
K8 O6 2.725968 1_555
K8 O23 2.930451 1_565
K8 O13 2.930451 1_565
K9 O62 2.546457 1_555
K9 O47 2.546474 1_565
K9 O61 2.678665 1_555
K9 O45 2.678674 1_455
K9 O26 2.725947 1_554
K9 O11 2.725973 1_555
K9 O18 2.930451 1_565
K9 O16 2.930451 1_565
K10 O45 2.546466 1_555
K10 O60 2.546472 1_555
K10 O46 2.678674 1_565
K10 O62 2.678681 1_555
K10 O24 2.725956 1_554
K10 O9 2.725971 1_555
K10 O17 2.930451 1_555
K10 O19 2.930451 1_555
K11 O46 2.546467 1_455
K11 O61 2.546474 1_555
K11 O60 2.678665 1_555
K11 O47 2.678666 1_555
K11 O25 2.725951 1_554
K11 O10 2.725968 1_555
K11 O20 2.930451 1_455
K11 O15 2.930451 1_455
K12 O40 2.546467 1_655
K12 O55 2.546474 1_555
K12 O54 2.678665 1_555
K12 O41 2.678666 1_555
K12 O19 2.725951 1_556
K12 O4 2.725968 1_555
K12 O33 2.930451 1_655
K12 O26 2.930451 1_655
K13 O56 2.546457 1_555
K13 O41 2.546474 1_545
K13 O55 2.678665 1_555
K13 O39 2.678674 1_655
K13 O20 2.725947 1_556
K13 O5 2.725973 1_555
K13 O24 2.930451 1_545
K13 O34 2.930451 1_545
K14 O39 2.546466 1_555
K14 O54 2.546472 1_555
K14 O40 2.678674 1_545
K14 O56 2.678681 1_555
K14 O18 2.725956 1_556
K14 O3 2.725971 1_555
K14 O35 2.930451 1_555
K14 O25 2.930451 1_555
K15 O59 2.546457 1_555
K15 O38 2.546474 1_655
K15 O57 2.678665 1_555
K15 O37 2.678674 1_545
K15 O23 2.725947 1_555
K15 O2 2.725973 1_555
K15 O30 2.930451 1_655
K15 O28 2.930451 1_655
K16 O36 2.546467 1_545
K16 O57 2.546474 1_555
K16 O58 2.678665 1_555
K16 O38 2.678666 1_555
K16 O21 2.725951 1_555
K16 O0 2.725968 1_555
K16 O29 2.930451 1_545
K16 O31 2.930451 1_545
K17 O37 2.546466 1_555
K17 O58 2.546472 1_555
K17 O36 2.678674 1_655
K17 O59 2.678681 1_555
K17 O22 2.725956 1_555
K17 O1 2.725971 1_555
K17 O32 2.930451 1_555
K17 O27 2.930451 1_555
Na0 O38 2.535128 1_555
Na0 O44 2.535128 1_445
Na0 O36 2.535128 1_545
Na0 O42 2.535128 1_455
Na0 O37 2.535128 1_445
Na0 O43 2.535128 1_555
Na1 O39 2.535128 1_554
Na1 O45 2.535128 1_445
Na1 O41 2.535128 1_444
Na1 O47 2.535128 1_555
Na1 O46 2.535128 1_455
Na1 O40 2.535128 1_544
Na2 O56 2.535128 1_555
Na2 O50 2.535128 1_555
Na2 O54 2.535128 1_555
Na2 O48 2.535128 1_555
Na2 O49 2.535128 1_555
Na2 O55 2.535128 1_555
Na3 O51 2.535128 1_555
Na3 O57 2.535128 1_555
Na3 O53 2.535128 1_555
Na3 O59 2.535128 1_555
Na3 O52 2.535128 1_555
Na3 O58 2.535128 1_555
Na4 O62 2.535128 1_555
Na4 O68 2.535128 1_555
Na4 O60 2.535128 1_555
Na4 O66 2.535128 1_555
Na4 O61 2.535128 1_555
Na4 O67 2.535128 1_555
Na5 O69 2.535128 1_555
Na5 O63 2.535128 1_555
Na5 O71 2.535128 1_555
Na5 O65 2.535128 1_555
Na5 O70 2.535128 1_555
Na5 O64 2.535128 1_555
O0 Si0 1.666727 1_555
O0 Ti0 1.922655 1_555
O1 Si1 1.666727 1_555
O1 Ti0 1.922655 1_665
O2 Si2 1.666727 1_655
O2 Ti0 1.922655 1_655
O3 Si3 1.666727 1_555
O3 Ti1 1.922655 1_555
O4 Si4 1.666727 1_555
O4 Ti1 1.922655 1_665
O5 Si5 1.666727 1_555
O5 Ti1 1.922655 1_655
O6 Si5 1.666727 1_565
O6 Ti2 1.922655 1_665
O7 Si3 1.666727 1_555
O7 Ti2 1.922655 1_555
O8 Si4 1.666727 1_455
O8 Ti2 1.922655 1_565
O9 Si1 1.666727 1_555
O9 Ti3 1.922655 1_665
O10 Si2 1.666727 1_555
O10 Ti3 1.922655 1_555
O11 Si0 1.666727 1_565
O11 Ti3 1.922655 1_565
O12 Si6 1.666727 1_555
O12 Ti4 1.922655 1_555
O13 Si7 1.666727 1_555
O13 Ti4 1.922655 1_555
O14 Si8 1.666727 1_555
O14 Ti4 1.922655 1_555
O15 Si9 1.666727 1_555
O15 Ti5 1.922655 1_555
O16 Si10 1.666727 1_555
O16 Ti5 1.922655 1_555
O17 Si11 1.666727 1_555
O17 Ti5 1.922655 1_555
O18 Si11 1.666727 1_555
O18 Ti6 1.922655 1_554
O19 Si9 1.666727 1_555
O19 Ti6 1.922655 1_554
O20 Si10 1.666727 1_555
O20 Ti6 1.922655 1_554
O21 Si7 1.666727 1_555
O21 Ti7 1.922655 1_555
O22 Si8 1.666727 1_555
O22 Ti7 1.922655 1_555
O23 Si6 1.666727 1_555
O23 Ti7 1.922655 1_555
O24 Si12 1.666727 1_555
O24 Ti8 1.922655 1_556
O25 Si13 1.666727 1_555
O25 Ti8 1.922655 1_556
O26 Si14 1.666727 1_555
O26 Ti8 1.922655 1_556
O27 Si15 1.666727 1_555
O27 Ti9 1.922655 1_555
O28 Si16 1.666727 1_555
O28 Ti9 1.922655 1_555
O29 Si17 1.666727 1_555
O29 Ti9 1.922655 1_555
O30 Si17 1.666727 1_555
O30 Ti10 1.922655 1_555
O31 Si15 1.666727 1_555
O31 Ti10 1.922655 1_555
O32 Si16 1.666727 1_555
O32 Ti10 1.922655 1_555
O33 Si13 1.666727 1_555
O33 Ti11 1.922655 1_555
O34 Si14 1.666727 1_555
O34 Ti11 1.922655 1_555
O35 Si12 1.666727 1_555
O35 Ti11 1.922655 1_555
O36 Si17 1.642246 1_555
O36 Ti0 2.103212 1_565
O37 Si15 1.642256 1_555
O37 Ti0 2.103212 1_665
O38 Si16 1.642252 1_555
O38 Ti0 2.103211 1_555
O39 Si13 1.642256 1_555
O39 Ti1 2.103211 1_555
O40 Si14 1.642246 1_555
O40 Ti1 2.103212 1_565
O41 Si12 1.642252 1_555
O41 Ti1 2.103212 1_665
O42 Si6 1.642246 1_555
O42 Ti2 2.103212 1_655
O43 Si7 1.642256 1_555
O43 Ti2 2.103212 1_555
O44 Si8 1.642252 1_555
O44 Ti2 2.103211 1_665
O45 Si9 1.642256 1_555
O45 Ti3 2.103211 1_665
O46 Si10 1.642246 1_555
O46 Ti3 2.103212 1_655
O47 Si11 1.642252 1_555
O47 Ti3 2.103212 1_555
O48 Si5 1.642246 1_555
O48 Ti4 2.103212 1_555
O49 Si3 1.642256 1_555
O49 Ti4 2.103212 1_555
O50 Si4 1.642252 1_555
O50 Ti4 2.103211 1_555
O51 Si1 1.642256 1_555
O51 Ti5 2.103211 1_555
O52 Si2 1.642246 1_655
O52 Ti5 2.103212 1_555
O53 Si0 1.642252 1_555
O53 Ti5 2.103212 1_555
O54 Si12 1.642260 1_555
O54 Ti6 2.103212 1_555
O55 Si13 1.642241 1_655
O55 Ti6 2.103212 1_555
O56 Si14 1.642249 1_545
O56 Ti6 2.103211 1_555
O57 Si15 1.642241 1_545
O57 Ti7 2.103211 1_555
O58 Si16 1.642260 1_555
O58 Ti7 2.103212 1_555
O59 Si17 1.642249 1_655
O59 Ti7 2.103212 1_555
O60 Si11 1.642260 1_555
O60 Ti8 2.103212 1_555
O61 Si9 1.642241 1_455
O61 Ti8 2.103212 1_555
O62 Si10 1.642249 1_565
O62 Ti8 2.103211 1_555
O63 Si7 1.642241 1_565
O63 Ti9 2.103211 1_555
O64 Si8 1.642260 1_555
O64 Ti9 2.103212 1_555
O65 Si6 1.642249 1_455
O65 Ti9 2.103212 1_555
O66 Si0 1.642246 1_565
O66 Ti10 2.103212 1_555
O67 Si1 1.642256 1_555
O67 Ti10 2.103212 1_555
O68 Si2 1.642252 1_555
O68 Ti10 2.103211 1_555
O69 Si3 1.642256 1_555
O69 Ti11 2.103211 1_555
O70 Si4 1.642246 1_455
O70 Ti11 2.103212 1_555
O71 Si5 1.642252 1_565
O71 Ti11 2.103212 1_555
