# generated using pymatgen
data_NaCa3Nb(SO4)6
_symmetry_space_group_name_H-M   'P 1'
_cell_length_a   9.13217322
_cell_length_b   9.13217290
_cell_length_c   23.90674114
_cell_angle_alpha   90.00000000
_cell_angle_beta   90.00000000
_cell_angle_gamma   120.00000116
_symmetry_Int_Tables_number   1
_chemical_formula_structural   NaCa3Nb(SO4)6
_chemical_formula_sum   'Na3 Ca9 Nb3 S18 O72'
_cell_volume   1726.62995727
_cell_formula_units_Z   3
loop_
 _symmetry_equiv_pos_site_id
 _symmetry_equiv_pos_as_xyz
  1  'x, y, z'
loop_
 _atom_site_type_symbol
 _atom_site_label
 _atom_site_symmetry_multiplicity
 _atom_site_fract_x
 _atom_site_fract_y
 _atom_site_fract_z
 _atom_site_occupancy
  Na  Na0  1  0.00000000  -0.00000000  0.00527609  1
  Na  Na1  1  0.66666700  0.33333300  0.83676714  1
  Na  Na2  1  0.66666700  0.33333300  0.31937740  1
  Ca  Ca0  1  0.00000000  -0.00000000  0.35259304  1
  Ca  Ca1  1  0.00000000  -0.00000000  0.85936697  1
  Ca  Ca2  1  0.00000000  -0.00000000  0.15421672  1
  Ca  Ca3  1  0.66666700  0.33333300  0.67873492  1
  Ca  Ca4  1  0.66666700  0.33333300  0.18301169  1
  Ca  Ca5  1  0.66666700  0.33333300  0.98409364  1
  Ca  Ca6  1  0.66666700  0.33333300  0.48629251  1
  Ca  Ca7  1  0.33333300  0.66666700  0.30579904  1
  Ca  Ca8  1  0.33333300  0.66666700  0.80658326  1
  Nb  Nb0  1  0.00000000  -0.00000000  0.64843857  1
  Nb  Nb1  1  0.33333300  0.66666700  0.02063959  1
  Nb  Nb2  1  0.33333300  0.66666700  0.51442698  1
  S  S0  1  0.30329583  0.01047513  0.25160984  1
  S  S1  1  0.70717930  0.69670417  0.25160984  1
  S  S2  1  0.98952487  0.29282070  0.25160984  1
  S  S3  1  0.28641232  0.28060819  0.74824323  1
  S  S4  1  0.99419587  0.71358768  0.74824323  1
  S  S5  1  0.71939181  0.00580413  0.74824323  1
  S  S6  1  0.97888686  0.33384505  0.58393416  1
  S  S7  1  0.35495919  0.02111314  0.58393416  1
  S  S8  1  0.66615495  0.64504081  0.58393416  1
  S  S9  1  0.97402900  0.63780971  0.07876801  1
  S  S10  1  0.66378172  0.02597100  0.07876801  1
  S  S11  1  0.36219029  0.33621828  0.07876801  1
  S  S12  1  0.61725837  0.66667262  0.91844982  1
  S  S13  1  0.04941325  0.38274163  0.91844982  1
  S  S14  1  0.33332738  0.95058675  0.91844982  1
  S  S15  1  0.61995209  0.95662928  0.41773341  1
  S  S16  1  0.33667619  0.38004791  0.41773341  1
  S  S17  1  0.04337072  0.66332381  0.41773341  1
  O  O0  1  0.21830622  0.02793850  0.30223242  1
  O  O1  1  0.80963228  0.78169378  0.30223242  1
  O  O2  1  0.97206150  0.19036772  0.30223242  1
  O  O3  1  0.20671699  0.18078930  0.79840381  1
  O  O4  1  0.97407230  0.79328301  0.79840381  1
  O  O5  1  0.81921070  0.02592770  0.79840381  1
  O  O6  1  0.82218795  0.99907165  0.69607635  1
  O  O7  1  0.17688370  0.17781205  0.69607635  1
  O  O8  1  0.00092835  0.82311630  0.69607635  1
  O  O9  1  0.78970171  0.79065777  0.19986630  1
  O  O10  1  0.00095606  0.21029829  0.19986630  1
  O  O11  1  0.20934223  0.99904394  0.19986630  1
  O  O12  1  0.91111863  0.37542954  0.63305224  1
  O  O13  1  0.46431190  0.08888137  0.63305224  1
  O  O14  1  0.62457046  0.53568810  0.63305224  1
  O  O15  1  0.91254928  0.53609375  0.12908206  1
  O  O16  1  0.62354546  0.08745072  0.12908206  1
  O  O17  1  0.46390625  0.37645454  0.12908206  1
  O  O18  1  0.44434225  0.31556246  0.02913290  1
  O  O19  1  0.87122122  0.55565775  0.02913290  1
  O  O20  1  0.68443754  0.12877878  0.02913290  1
  O  O21  1  0.41848650  0.13343398  0.53559180  1
  O  O22  1  0.71494848  0.58151350  0.53559180  1
  O  O23  1  0.86656602  0.28505152  0.53559180  1
  O  O24  1  0.51664378  0.67204951  0.96893815  1
  O  O25  1  0.15540473  0.48335622  0.96893815  1
  O  O26  1  0.32795049  0.84459527  0.96893815  1
  O  O27  1  0.51155370  0.84240547  0.47200944  1
  O  O28  1  0.33085078  0.48844630  0.47200944  1
  O  O29  1  0.15759453  0.66914922  0.47200944  1
  O  O30  1  0.12535883  0.64166422  0.36961507  1
  O  O31  1  0.51630440  0.87464117  0.36961507  1
  O  O32  1  0.35833578  0.48369560  0.36961507  1
  O  O33  1  0.13058744  0.47372386  0.86670160  1
  O  O34  1  0.34313542  0.86941256  0.86670160  1
  O  O35  1  0.52627614  0.65686458  0.86670160  1
  O  O36  1  0.04427208  0.82194692  0.42128053  1
  O  O37  1  0.77767485  0.95572792  0.42128053  1
  O  O38  1  0.17805308  0.22232515  0.42128053  1
  O  O39  1  0.04105479  0.21653736  0.92183356  1
  O  O40  1  0.17548257  0.95894521  0.92183356  1
  O  O41  1  0.78346264  0.82451743  0.92183356  1
  O  O42  1  0.00395758  0.18285693  0.59856440  1
  O  O43  1  0.17889935  0.99604242  0.59856440  1
  O  O44  1  0.81714307  0.82110065  0.59856440  1
  O  O45  1  0.00921236  0.81217121  0.08305462  1
  O  O46  1  0.80295885  0.99078764  0.08305462  1
  O  O47  1  0.18782879  0.19704115  0.08305462  1
  O  O48  1  0.70186944  0.15586680  0.74002737  1
  O  O49  1  0.45399836  0.29813056  0.74002737  1
  O  O50  1  0.84413320  0.54600164  0.74002737  1
  O  O51  1  0.68869216  0.52480826  0.24889278  1
  O  O52  1  0.83611710  0.31130784  0.24889278  1
  O  O53  1  0.47519174  0.16388290  0.24889278  1
  O  O54  1  0.63635923  0.51564733  0.92276543  1
  O  O55  1  0.87928910  0.36364077  0.92276543  1
  O  O56  1  0.48435267  0.12071090  0.92276543  1
  O  O57  1  0.63365610  0.12070627  0.42868670  1
  O  O58  1  0.48705117  0.36634390  0.42868670  1
  O  O59  1  0.87929373  0.51294883  0.42868670  1
  O  O60  1  0.34668573  0.49775810  0.06612147  1
  O  O61  1  0.15107137  0.65331427  0.06612147  1
  O  O62  1  0.50224190  0.84892863  0.06612147  1
  O  O63  1  0.32536326  0.84719334  0.57091022  1
  O  O64  1  0.52182908  0.67463674  0.57091022  1
  O  O65  1  0.15280666  0.47817092  0.57091022  1
  O  O66  1  0.31858111  0.85836140  0.25548137  1
  O  O67  1  0.53977929  0.68141889  0.25548137  1
  O  O68  1  0.14163860  0.46022071  0.25548137  1
  O  O69  1  0.28788570  0.44081958  0.74662377  1
  O  O70  1  0.15293288  0.71211430  0.74662377  1
  O  O71  1  0.55918042  0.84706712  0.74662377  1
loop_
_geom_bond_atom_site_label_1
_geom_bond_atom_site_label_2
_geom_bond_distance
_geom_bond_site_symmetry_2
Na0 O47 2.559506 1_555
Na0 O45 2.559506 1_545
Na0 O46 2.559506 1_445
Na0 O39 2.699795 1_554
Na0 O41 2.699795 1_444
Na0 O40 2.699795 1_544
Na1 O56 2.745228 1_555
Na1 O54 2.745228 1_555
Na1 O55 2.745228 1_555
Na1 O50 2.932506 1_555
Na1 O48 2.932506 1_555
Na1 O49 2.932506 1_555
Na2 O51 2.363413 1_555
Na2 O53 2.363413 1_555
Na2 O52 2.363413 1_555
Ca0 O1 2.231691 1_445
Ca0 O2 2.231691 1_455
Ca0 O0 2.231691 1_555
Ca0 O38 2.482185 1_555
Ca0 O37 2.482185 1_445
Ca0 O36 2.482185 1_545
Ca1 O4 2.301496 1_445
Ca1 O3 2.301496 1_555
Ca1 O5 2.301496 1_455
Ca1 O39 2.353651 1_555
Ca1 O41 2.353651 1_445
Ca1 O40 2.353651 1_545
Ca2 O10 2.205121 1_555
Ca2 O9 2.205121 1_445
Ca2 O11 2.205121 1_545
Ca2 O47 2.447008 1_555
Ca2 O45 2.447008 1_545
Ca2 O46 2.447008 1_445
Ca3 O50 2.323353 1_555
Ca3 O48 2.323353 1_555
Ca3 O49 2.323353 1_555
Ca3 O13 2.337910 1_555
Ca3 O12 2.337910 1_555
Ca3 O14 2.337910 1_555
Ca4 O51 2.286248 1_555
Ca4 O53 2.286248 1_555
Ca4 O52 2.286249 1_555
Ca4 O16 2.444398 1_555
Ca4 O15 2.444398 1_555
Ca4 O17 2.444398 1_555
Ca5 O19 2.231227 1_556
Ca5 O18 2.231227 1_556
Ca5 O20 2.231227 1_556
Ca5 O56 2.336453 1_555
Ca5 O54 2.336453 1_555
Ca5 O55 2.336453 1_555
Ca6 O57 2.274308 1_555
Ca6 O59 2.274308 1_555
Ca6 O58 2.274308 1_555
Ca6 O22 2.391832 1_555
Ca6 O21 2.391832 1_555
Ca6 O23 2.391832 1_555
Ca7 O68 2.183021 1_555
Ca7 O66 2.183021 1_555
Ca7 O67 2.183021 1_555
Ca7 O31 2.356525 1_555
Ca7 O30 2.356525 1_555
Ca7 O32 2.356525 1_555
Ca8 O34 2.309977 1_555
Ca8 O33 2.309977 1_555
Ca8 O35 2.309977 1_555
Ca8 O69 2.371668 1_555
Ca8 O71 2.371668 1_555
Ca8 O70 2.371668 1_555
Nb0 O7 1.979918 1_555
Nb0 O8 1.979918 1_545
Nb0 O6 1.979918 1_445
Nb0 O42 2.037426 1_555
Nb0 O44 2.037426 1_445
Nb0 O43 2.037426 1_545
Nb1 O62 1.940246 1_555
Nb1 O60 1.940246 1_555
Nb1 O61 1.940247 1_555
Nb1 O25 2.061606 1_554
Nb1 O26 2.061606 1_554
Nb1 O24 2.061607 1_554
Nb2 O27 1.908099 1_555
Nb2 O29 1.908099 1_555
Nb2 O28 1.908099 1_555
Nb2 O65 2.160220 1_555
Nb2 O63 2.160220 1_555
Nb2 O64 2.160220 1_555
O0 S0 1.488704 1_555
O1 S1 1.488704 1_555
O2 S2 1.488704 1_555
O3 S3 1.461240 1_555
O4 S4 1.461240 1_555
O5 S5 1.461240 1_555
O6 S5 1.580541 1_565
O7 S3 1.580541 1_555
O8 S4 1.580541 1_455
O9 S1 1.479091 1_555
O10 S2 1.479091 1_455
O11 S0 1.479091 1_565
O12 S6 1.463253 1_555
O13 S7 1.463252 1_555
O14 S8 1.463252 1_555
O15 S9 1.450300 1_555
O16 S10 1.450300 1_555
O17 S11 1.450300 1_555
O18 S11 1.465602 1_555
O19 S9 1.465602 1_555
O20 S10 1.465602 1_555
O21 S7 1.459207 1_555
O22 S8 1.459207 1_555
O23 S6 1.459207 1_555
O24 S12 1.532532 1_555
O25 S13 1.532532 1_555
O26 S14 1.532532 1_555
O27 S15 1.648966 1_555
O28 S16 1.648966 1_555
O29 S17 1.648966 1_555
O30 S17 1.439142 1_555
O31 S15 1.439142 1_555
O32 S16 1.439142 1_555
O33 S13 1.467799 1_555
O34 S14 1.467799 1_555
O35 S12 1.467799 1_555
O36 S17 1.446963 1_555
O37 S15 1.446972 1_555
O38 S16 1.446967 1_555
O39 S13 1.483324 1_555
O40 S14 1.483315 1_555
O41 S12 1.483320 1_555
O42 S6 1.546501 1_455
O43 S7 1.546510 1_565
O44 S8 1.546506 1_555
O45 S9 1.462035 1_455
O46 S10 1.462026 1_565
O47 S11 1.462032 1_555
O48 S5 1.470191 1_555
O49 S3 1.470201 1_555
O50 S4 1.470197 1_555
O51 S1 1.493961 1_555
O52 S2 1.493952 1_555
O53 S0 1.493957 1_555
O54 S12 1.477772 1_555
O55 S13 1.477753 1_655
O56 S14 1.477761 1_545
O57 S15 1.463507 1_545
O58 S16 1.463525 1_555
O59 S17 1.463515 1_655
O60 S11 1.580055 1_555
O61 S9 1.580037 1_455
O62 S10 1.580045 1_565
O63 S7 1.504431 1_565
O64 S8 1.504449 1_555
O65 S6 1.504437 1_455
O66 S0 1.466846 1_565
O67 S1 1.466855 1_555
O68 S2 1.466851 1_455
O69 S3 1.456912 1_555
O70 S4 1.456903 1_455
O71 S5 1.456907 1_565
