# generated using pymatgen
data_MgMn6(O2F)4
_symmetry_space_group_name_H-M   'P 1'
_cell_length_a   5.22877238
_cell_length_b   7.70578827
_cell_length_c   5.72517615
_cell_angle_alpha   97.62505450
_cell_angle_beta   92.41503456
_cell_angle_gamma   88.63390842
_symmetry_Int_Tables_number   1
_chemical_formula_structural   MgMn6(O2F)4
_chemical_formula_sum   'Mg1 Mn6 O8 F4'
_cell_volume   228.39611699
_cell_formula_units_Z   1
loop_
 _symmetry_equiv_pos_site_id
 _symmetry_equiv_pos_as_xyz
  1  'x, y, z'
loop_
 _atom_site_type_symbol
 _atom_site_label
 _atom_site_symmetry_multiplicity
 _atom_site_fract_x
 _atom_site_fract_y
 _atom_site_fract_z
 _atom_site_occupancy
  Mg  Mg0  1  0.49845434  0.83414177  0.80814901  1
  Mn  Mn0  1  0.50194638  0.06179853  0.38464433  1
  Mn  Mn1  1  0.51276384  0.64351349  0.18203511  1
  Mn  Mn2  1  0.52287581  0.34641320  0.81526145  1
  Mn  Mn3  1  0.00961392  0.64659690  0.69568548  1
  Mn  Mn4  1  0.98947387  0.32808736  0.34420016  1
  Mn  Mn5  1  0.00805269  0.97243113  0.01184462  1
  O  O0  1  0.83590963  0.42530929  0.62891931  1
  O  O1  1  0.82221765  0.75612175  0.96829288  1
  O  O2  1  0.83264258  0.08582040  0.28154936  1
  O  O3  1  0.67956032  0.41732153  0.13207836  1
  O  O4  1  0.35859194  0.57487343  0.86827026  1
  O  O5  1  0.31369989  0.26086040  0.53115101  1
  O  O6  1  0.36497977  0.88123463  0.15657942  1
  O  O7  1  0.14086017  0.87899532  0.71452127  1
  F  F0  1  0.63342428  0.08071063  0.78101320  1
  F  F1  1  0.64949627  0.75382466  0.49589509  1
  F  F2  1  0.16547139  0.57898965  0.37675950  1
  F  F3  1  0.17385427  0.21461994  0.04933915  1
loop_
_geom_bond_atom_site_label_1
_geom_bond_atom_site_label_2
_geom_bond_distance
_geom_bond_site_symmetry_2
Mg0 O7 1.958763 1_555
Mg0 O1 2.008699 1_555
Mg0 O6 2.123967 1_556
Mg0 O4 2.217687 1_555
Mn0 O2 1.871582 1_555
Mn0 O6 1.907961 1_545
Mn0 O5 1.918716 1_555
Mn1 O3 1.922676 1_555
Mn1 O4 1.950040 1_554
Mn1 O6 1.991936 1_555
Mn1 O1 2.320383 1_554
Mn2 O4 1.933212 1_555
Mn2 O5 1.968886 1_555
Mn2 O3 1.973029 1_556
Mn2 O0 2.133905 1_555
Mn3 O7 1.921120 1_555
Mn3 O0 1.936583 1_455
Mn3 O1 1.961672 1_455
Mn3 O4 2.134544 1_555
Mn4 O0 1.902801 1_555
Mn4 O2 2.038817 1_555
Mn4 O5 2.059215 1_655
Mn4 O3 2.139210 1_555
Mn5 O7 1.910164 1_554
Mn5 O2 1.926663 1_465
Mn5 O1 1.931632 1_454
Mn5 O6 2.150625 1_555
F0 Mg0 2.069716 1_545
F0 Mn2 2.100284 1_555
F0 Mn0 2.330027 1_555
F0 Mn5 2.505253 1_646
F1 Mn1 1.994474 1_555
F1 Mg0 2.001183 1_555
F1 Mn3 2.351977 1_655
F1 Mn0 2.627796 1_565
F2 Mn3 2.030320 1_555
F2 Mn4 2.143450 1_455
F2 Mn1 2.269001 1_555
F3 Mn5 2.058086 1_545
F3 Mn4 2.061310 1_455
F3 Mn2 2.610263 1_554
