# generated using pymatgen
data_Ti3(BiO3)4
_symmetry_space_group_name_H-M   'P 1'
_cell_length_a   16.84103552
_cell_length_b   16.84103552
_cell_length_c   16.84103552
_cell_angle_alpha   166.91375080
_cell_angle_beta   166.91375080
_cell_angle_gamma   18.54742871
_symmetry_Int_Tables_number   1
_chemical_formula_structural   Ti3(BiO3)4
_chemical_formula_sum   'Ti3 Bi4 O12'
_cell_volume   244.84371627
_cell_formula_units_Z   1
loop_
 _symmetry_equiv_pos_site_id
 _symmetry_equiv_pos_as_xyz
  1  'x, y, z'
loop_
 _atom_site_type_symbol
 _atom_site_label
 _atom_site_symmetry_multiplicity
 _atom_site_fract_x
 _atom_site_fract_y
 _atom_site_fract_z
 _atom_site_occupancy
  Ti  Ti0  1  0.50000000  0.50000000  0.00000000  1
  Ti  Ti1  1  0.37222400  0.37222400  0.00000000  1
  Ti  Ti2  1  0.62777600  0.62777600  0.00000000  1
  Bi  Bi0  1  0.78865100  0.78865100  0.00000000  1
  Bi  Bi1  1  0.21134900  0.21134900  0.00000000  1
  Bi  Bi2  1  0.93338100  0.93338100  0.00000000  1
  Bi  Bi3  1  0.06661900  0.06661900  0.00000000  1
  O  O0  1  0.55960000  0.55960000  0.00000000  1
  O  O1  1  0.38461700  0.88461700  0.50000000  1
  O  O2  1  0.11538300  0.61538300  0.50000000  1
  O  O3  1  0.61538300  0.11538300  0.50000000  1
  O  O4  1  0.00000000  0.50000000  0.50000000  1
  O  O5  1  0.50000000  0.00000000  0.50000000  1
  O  O6  1  0.25000000  0.75000000  0.50000000  1
  O  O7  1  0.68178900  0.68178900  0.00000000  1
  O  O8  1  0.44040000  0.44040000  0.00000000  1
  O  O9  1  0.75000000  0.25000000  0.50000000  1
  O  O10  1  0.31821100  0.31821100  0.00000000  1
  O  O11  1  0.88461700  0.38461700  0.50000000  1
loop_
_geom_bond_atom_site_label_1
_geom_bond_atom_site_label_2
_geom_bond_distance
_geom_bond_site_symmetry_2
Bi0 O9 2.309449 1_554
Bi0 O6 2.309449 1_655
Bi0 O6 2.309449 1_554
Bi0 O9 2.309449 1_565
Bi1 O9 2.309449 1_555
Bi1 O6 2.309449 1_544
Bi1 O6 2.309449 1_555
Bi1 O9 2.309449 1_454
Bi2 O1 2.512055 1_554
Bi2 O1 2.512055 1_655
Bi2 O11 2.512055 1_554
Bi2 O11 2.512055 1_565
Bi2 O8 2.723962 1_655
Bi2 O8 2.723962 1_565
Bi2 O8 2.723962 1_666
Bi2 O8 2.723962 1_554
Bi3 O2 2.512055 1_555
Bi3 O3 2.512055 1_454
Bi3 O3 2.512055 1_555
Bi3 O2 2.512055 1_544
Bi3 O0 2.723962 1_455
Bi3 O0 2.723962 1_556
Bi3 O0 2.723962 1_444
Bi3 O0 2.723962 1_545
O0 Ti0 1.981214 1_555
O0 Ti2 2.266296 1_555
O1 Ti1 1.962774 1_566
O1 Ti1 1.962774 1_555
O2 Ti2 1.962774 1_556
O2 Ti2 1.962774 1_455
O3 Ti2 1.962774 1_545
O3 Ti2 1.962774 1_556
O4 Ti0 1.919053 1_455
O4 Ti0 1.919053 1_556
O5 Ti0 1.919053 1_545
O5 Ti0 1.919053 1_556
O7 Ti2 1.795491 1_555
O8 Ti0 1.981214 1_555
O8 Ti1 2.266296 1_555
O10 Ti1 1.795491 1_555
O11 Ti1 1.962774 1_555
O11 Ti1 1.962774 1_656
