# generated using pymatgen
data_Ba2MgCu(PO4)2
_symmetry_space_group_name_H-M   'P 1'
_cell_length_a   5.71597315
_cell_length_b   6.98530650
_cell_length_c   7.15786434
_cell_angle_alpha   94.01499108
_cell_angle_beta   90.00430073
_cell_angle_gamma   114.16536500
_symmetry_Int_Tables_number   1
_chemical_formula_structural   Ba2MgCu(PO4)2
_chemical_formula_sum   'Ba2 Mg1 Cu1 P2 O8'
_cell_volume   259.98317845
_cell_formula_units_Z   1
loop_
 _symmetry_equiv_pos_site_id
 _symmetry_equiv_pos_as_xyz
  1  'x, y, z'
loop_
 _atom_site_type_symbol
 _atom_site_label
 _atom_site_symmetry_multiplicity
 _atom_site_fract_x
 _atom_site_fract_y
 _atom_site_fract_z
 _atom_site_occupancy
  Ba  Ba0  1  0.85844919  0.71678086  0.78060615  1
  Ba  Ba1  1  0.14763232  0.29562489  0.18428291  1
  Mg  Mg0  1  0.63678962  0.27375282  0.45403315  1
  Cu  Cu0  1  0.44489174  0.88981839  0.36236159  1
  P  P0  1  0.85554003  0.71094513  0.30181525  1
  P  P1  1  0.16850278  0.33706335  0.72208002  1
  O  O0  1  0.39374279  0.34646309  0.59483492  1
  O  O1  1  0.09185166  0.75105637  0.43165559  1
  O  O2  1  0.65873288  0.75063455  0.43125864  1
  O  O3  1  0.95294760  0.34622834  0.59435855  1
  O  O4  1  0.73397426  0.46744393  0.23345474  1
  O  O5  1  0.06660097  0.13340769  0.82747055  1
  O  O6  1  0.92597934  0.85148700  0.13733721  1
  O  O7  1  0.26436382  0.52929359  0.87037875  1
loop_
_geom_bond_atom_site_label_1
_geom_bond_atom_site_label_2
_geom_bond_distance
_geom_bond_site_symmetry_2
Ba0 O6 2.630673 1_556
Ba0 O5 2.650664 1_665
Ba0 O1 2.810451 1_655
Ba0 O2 2.813437 1_555
Ba0 O0 3.067143 1_555
Ba0 O3 3.070920 1_555
Ba0 O7 3.180712 1_655
Ba0 O7 3.183769 1_555
Ba1 O5 2.680740 1_554
Ba1 O7 2.789271 1_554
Ba1 O6 2.824708 1_445
Ba1 O4 3.069117 1_455
Ba1 O4 3.073157 1_555
Ba1 O3 3.186901 1_455
Ba1 O0 3.191414 1_555
Mg0 O0 1.926125 1_555
Mg0 O3 1.926248 1_555
Mg0 O4 2.077478 1_555
Cu0 O2 1.929386 1_555
Cu0 O1 1.929701 1_555
Cu0 Mg0 2.484198 1_565
O0 P1 1.559096 1_555
O1 P0 1.555719 1_455
O2 P0 1.555755 1_555
O3 P1 1.559033 1_655
O4 P0 1.590957 1_555
O5 P1 1.550500 1_555
O6 P0 1.533056 1_555
O7 P1 1.558207 1_555
