# generated using pymatgen
data_Rb4CdBr6
_symmetry_space_group_name_H-M   'P 1'
_cell_length_a   9.32737040
_cell_length_b   9.32737040
_cell_length_c   9.32737104
_cell_angle_alpha   89.32574045
_cell_angle_beta   89.32574045
_cell_angle_gamma   89.32573857
_symmetry_Int_Tables_number   1
_chemical_formula_structural   Rb4CdBr6
_chemical_formula_sum   'Rb8 Cd2 Br12'
_cell_volume   811.31251775
_cell_formula_units_Z   2
loop_
 _symmetry_equiv_pos_site_id
 _symmetry_equiv_pos_as_xyz
  1  'x, y, z'
loop_
 _atom_site_type_symbol
 _atom_site_label
 _atom_site_symmetry_multiplicity
 _atom_site_fract_x
 _atom_site_fract_y
 _atom_site_fract_z
 _atom_site_occupancy
  Rb  Rb0  1  0.75000000  0.37201733  0.12798267  1
  Rb  Rb1  1  0.12798267  0.75000000  0.37201733  1
  Rb  Rb2  1  0.37201733  0.12798267  0.75000000  1
  Rb  Rb3  1  0.25000000  0.62798267  0.87201733  1
  Rb  Rb4  1  0.87201733  0.25000000  0.62798267  1
  Rb  Rb5  1  0.62798267  0.87201733  0.25000000  1
  Rb  Rb6  1  0.75000000  0.75000000  0.75000000  1
  Rb  Rb7  1  0.25000000  0.25000000  0.25000000  1
  Cd  Cd0  1  0.50000000  0.50000000  0.50000000  1
  Cd  Cd1  1  0.00000000  -0.00000000  0.00000000  1
  Br  Br0  1  0.21132523  0.43025489  0.55902683  1
  Br  Br1  1  0.55902683  0.21132523  0.43025489  1
  Br  Br2  1  0.43025489  0.55902683  0.21132523  1
  Br  Br3  1  0.28867477  0.94097317  0.06974511  1
  Br  Br4  1  0.06974511  0.28867477  0.94097317  1
  Br  Br5  1  0.94097317  0.06974511  0.28867477  1
  Br  Br6  1  0.78867477  0.56974511  0.44097317  1
  Br  Br7  1  0.44097317  0.78867477  0.56974511  1
  Br  Br8  1  0.56974511  0.44097317  0.78867477  1
  Br  Br9  1  0.71132523  0.05902683  0.93025489  1
  Br  Br10  1  0.05902683  0.93025489  0.71132523  1
  Br  Br11  1  0.93025489  0.71132523  0.05902683  1
loop_
_geom_bond_atom_site_label_1
_geom_bond_atom_site_label_2
_geom_bond_distance
_geom_bond_site_symmetry_2
Br0 Cd0 2.823862 1_555
Br0 Rb7 3.367566 1_555
Br0 Rb3 3.495917 1_555
Br0 Rb1 3.520854 1_555
Br0 Rb2 3.635063 1_555
Br0 Rb4 3.648097 1_455
Br1 Cd0 2.823862 1_555
Br1 Rb7 3.367566 1_555
Br1 Rb4 3.495916 1_555
Br1 Rb2 3.520854 1_555
Br1 Rb0 3.635063 1_555
Br1 Rb5 3.648097 1_545
Br2 Cd0 2.823862 1_555
Br2 Rb7 3.367566 1_555
Br2 Rb5 3.495916 1_555
Br2 Rb0 3.520854 1_555
Br2 Rb1 3.635063 1_555
Br2 Rb3 3.648097 1_554
Br3 Cd1 2.823862 1_565
Br3 Rb7 3.367566 1_565
Br3 Rb3 3.495916 1_554
Br3 Rb2 3.520854 1_564
Br3 Rb1 3.635063 1_555
Br3 Rb5 3.648097 1_555
Br4 Cd1 2.823862 1_556
Br4 Rb7 3.367566 1_556
Br4 Rb4 3.495917 1_455
Br4 Rb0 3.520854 1_456
Br4 Rb2 3.635063 1_555
Br4 Rb3 3.648097 1_555
Br5 Cd1 2.823862 1_655
Br5 Rb7 3.367566 1_655
Br5 Rb5 3.495916 1_545
Br5 Rb1 3.520854 1_645
Br5 Rb0 3.635063 1_555
Br5 Rb4 3.648097 1_555
Br6 Cd0 2.823862 1_555
Br6 Rb6 3.367566 1_555
Br6 Rb0 3.495917 1_555
Br6 Rb4 3.520854 1_555
Br6 Rb5 3.635063 1_555
Br6 Rb1 3.648097 1_655
Br7 Cd0 2.823862 1_555
Br7 Rb6 3.367566 1_555
Br7 Rb1 3.495916 1_555
Br7 Rb5 3.520854 1_555
Br7 Rb3 3.635063 1_555
Br7 Rb2 3.648097 1_565
Br8 Cd0 2.823862 1_555
Br8 Rb6 3.367566 1_555
Br8 Rb2 3.495916 1_555
Br8 Rb3 3.520854 1_555
Br8 Rb4 3.635063 1_555
Br8 Rb0 3.648097 1_556
Br9 Cd1 2.823862 1_656
Br9 Rb6 3.367566 1_545
Br9 Rb0 3.495916 1_556
Br9 Rb5 3.520854 1_546
Br9 Rb4 3.635063 1_555
Br9 Rb2 3.648097 1_555
Br10 Cd1 2.823862 1_566
Br10 Rb6 3.367566 1_455
Br10 Rb2 3.495916 1_565
Br10 Rb4 3.520854 1_465
Br10 Rb3 3.635063 1_555
Br10 Rb1 3.648097 1_555
Br11 Cd1 2.823862 1_665
Br11 Rb6 3.367566 1_554
Br11 Rb1 3.495917 1_655
Br11 Rb3 3.520854 1_654
Br11 Rb5 3.635063 1_555
Br11 Rb0 3.648097 1_555
