# generated using pymatgen
data_La3SiBr3
_symmetry_space_group_name_H-M   'P 1'
_cell_length_a   10.61112311
_cell_length_b   10.61116714
_cell_length_c   10.61115061
_cell_angle_alpha   109.47113128
_cell_angle_beta   109.47017010
_cell_angle_gamma   109.47259028
_symmetry_Int_Tables_number   1
_chemical_formula_structural   La3SiBr3
_chemical_formula_sum   'La12 Si4 Br12'
_cell_volume   919.73743859
_cell_formula_units_Z   4
loop_
 _symmetry_equiv_pos_site_id
 _symmetry_equiv_pos_as_xyz
  1  'x, y, z'
loop_
 _atom_site_type_symbol
 _atom_site_label
 _atom_site_symmetry_multiplicity
 _atom_site_fract_x
 _atom_site_fract_y
 _atom_site_fract_z
 _atom_site_occupancy
  La  La0  1  0.49049293  0.75002068  0.00953597  1
  La  La1  1  0.75001148  0.24045618  0.25954162  1
  La  La2  1  0.24045096  0.25950449  0.74996859  1
  La  La3  1  0.48098327  0.49048482  0.24048670  1
  La  La4  1  0.25952390  0.00953221  0.01906366  1
  La  La5  1  0.24045201  0.48093915  0.49045821  1
  La  La6  1  0.00953814  0.01907897  0.25953557  1
  La  La7  1  0.00952891  0.49046493  0.74998744  1
  La  La8  1  0.49044623  0.24045118  0.48090819  1
  La  La9  1  0.75001887  0.00952175  0.49052551  1
  La  La10  1  0.01904155  0.25951280  0.00952209  1
  La  La11  1  0.25951535  0.75001520  0.24048079  1
  Si  Si0  1  0.24999469  0.25000025  0.24999503  1
  Si  Si1  1  0.00000273  0.24999687  0.49999565  1
  Si  Si2  1  0.25000374  0.50000289  0.00000755  1
  Si  Si3  1  0.49999179  -0.00000630  0.24999407  1
  Br  Br0  1  0.99452064  0.98902663  0.74450255  1
  Br  Br1  1  0.75549949  0.74453601  0.25000792  1
  Br  Br2  1  0.98904588  0.74452925  0.99453018  1
  Br  Br3  1  0.24998840  0.99451929  0.50547577  1
  Br  Br4  1  0.74451652  0.99451977  0.98904750  1
  Br  Br5  1  0.50548111  0.24999473  0.99451243  1
  Br  Br6  1  0.74450903  0.25000180  0.75547326  1
  Br  Br7  1  0.50547578  0.75548886  0.51096493  1
  Br  Br8  1  0.75549666  0.51096832  0.50548728  1
  Br  Br9  1  0.24999228  0.75548404  0.74450788  1
  Br  Br10  1  0.51097099  0.50548193  0.75548629  1
  Br  Br11  1  0.99450968  0.50547532  0.24999835  1
loop_
_geom_bond_atom_site_label_1
_geom_bond_atom_site_label_2
_geom_bond_distance
_geom_bond_site_symmetry_2
La0 Si3 2.948667 1_565
La0 Si2 2.948904 1_555
La1 Si1 2.948541 1_655
La1 Si3 2.948646 1_555
La2 Si1 2.948585 1_555
La2 Si2 2.949006 1_556
La3 Si0 2.948910 1_555
La3 Si2 2.948970 1_555
La4 Si0 2.948658 1_555
La4 Si3 2.948739 1_555
La5 Si1 2.948598 1_555
La5 Si0 2.948756 1_555
La6 Si0 2.948540 1_555
La6 Si1 2.948567 1_555
La7 Si1 2.948684 1_555
La7 Si2 2.948864 1_556
La8 Si3 2.948593 1_555
La8 Si0 2.948601 1_555
La9 Si1 2.948947 1_655
La9 Si3 2.949299 1_555
La10 Si0 2.948740 1_555
La10 Si2 2.948829 1_555
La11 Si3 2.948668 1_565
La11 Si2 2.948931 1_555
Br0 La2 3.137731 1_665
Br0 La10 3.138036 1_666
Br0 La9 3.185467 1_565
Br0 La4 3.186008 1_666
Br1 La0 3.137944 1_555
Br1 La9 3.138002 1_565
Br1 La3 3.185810 1_555
Br1 La6 3.185880 1_665
Br2 La4 3.137755 1_666
Br2 La11 3.137757 1_656
Br2 La6 3.185992 1_666
Br2 La7 3.186150 1_655
Br3 La8 3.137837 1_565
Br3 La6 3.137882 1_565
Br3 La2 3.185702 1_565
Br3 La11 3.185763 1_555
Br4 La1 3.137760 1_566
Br4 La6 3.137878 1_666
Br4 La0 3.185610 1_556
Br4 La10 3.185801 1_666
Br5 La3 3.137887 1_556
Br5 La4 3.137913 1_556
Br5 La2 3.186141 1_555
Br5 La1 3.186242 1_556
Br6 La9 3.137722 1_555
Br6 La7 3.137901 1_655
Br6 La10 3.186057 1_656
Br6 La8 3.186118 1_555
Br7 La11 3.137984 1_555
Br7 La3 3.138050 1_555
Br7 La9 3.185605 1_565
Br7 La5 3.185958 1_555
Br8 La1 3.137991 1_555
Br8 La8 3.138032 1_555
Br8 La3 3.185813 1_555
Br8 La7 3.185862 1_655
Br9 La7 3.137860 1_555
Br9 La0 3.138115 1_556
Br9 La5 3.185941 1_555
Br9 La4 3.186055 1_566
Br10 La2 3.137963 1_555
Br10 La5 3.138200 1_555
Br10 La0 3.186001 1_556
Br10 La8 3.186139 1_555
Br11 La5 3.137795 1_655
Br11 La10 3.137959 1_655
Br11 La11 3.185914 1_655
Br11 La1 3.185933 1_555
