# generated using pymatgen
data_Rb4MgV2(CuS4)2
_symmetry_space_group_name_H-M   'P 1'
_cell_length_a   5.68452585
_cell_length_b   7.30523170
_cell_length_c   12.16060514
_cell_angle_alpha   84.58206696
_cell_angle_beta   76.48202959
_cell_angle_gamma   66.12088398
_symmetry_Int_Tables_number   1
_chemical_formula_structural   Rb4MgV2(CuS4)2
_chemical_formula_sum   'Rb4 Mg1 V2 Cu2 S8'
_cell_volume   448.97190850
_cell_formula_units_Z   1
loop_
 _symmetry_equiv_pos_site_id
 _symmetry_equiv_pos_as_xyz
  1  'x, y, z'
loop_
 _atom_site_type_symbol
 _atom_site_label
 _atom_site_symmetry_multiplicity
 _atom_site_fract_x
 _atom_site_fract_y
 _atom_site_fract_z
 _atom_site_occupancy
  Rb  Rb0  1  0.05198100  0.25005600  0.89625200  1
  Rb  Rb1  1  0.69369800  0.25006300  0.61288600  1
  Rb  Rb2  1  0.32215800  0.75007800  0.35625000  1
  Rb  Rb3  1  0.94922400  0.75007400  0.10170700  1
  Mg  Mg0  1  0.75001900  0.75001400  0.50067000  1
  V  V0  1  0.87138900  0.25006900  0.25765700  1
  V  V1  1  0.12591700  0.74992400  0.74872800  1
  Cu  Cu0  1  0.62390900  0.74966200  0.75306300  1
  Cu  Cu1  1  0.37001900  0.25013100  0.26044800  1
  S  S0  1  0.40321100  0.55892200  0.85194000  1
  S  S1  1  0.32967300  0.92819100  0.63028100  1
  S  S2  1  0.04055400  0.57154000  0.63028700  1
  S  S3  1  0.74522900  0.94109800  0.85183300  1
  S  S4  1  0.25433400  0.07316600  0.15092300  1
  S  S5  1  0.69409100  0.04381300  0.36524000  1
  S  S6  1  0.94131900  0.45622200  0.36528500  1
  S  S7  1  0.59517800  0.42697700  0.15092300  1
loop_
_geom_bond_atom_site_label_1
_geom_bond_atom_site_label_2
_geom_bond_distance
_geom_bond_site_symmetry_2
Rb0 S0 3.504633 1_555
Rb0 S3 3.504771 1_445
Rb0 S7 3.504789 1_456
Rb0 S4 3.505761 1_556
Rb0 S0 3.597893 1_455
Rb0 S3 3.598568 1_545
Rb0 S2 3.810607 1_555
Rb0 S1 3.811273 1_545
Rb1 S2 3.465865 1_555
Rb1 S1 3.467667 1_645
Rb1 S5 3.491480 1_555
Rb1 S6 3.492005 1_555
Rb1 S0 3.499495 1_555
Rb1 S3 3.499658 1_545
Rb1 S2 3.672265 1_655
Rb1 S1 3.673744 1_545
Rb2 S7 3.248050 1_555
Rb2 S4 3.248736 1_565
Rb2 S5 3.320013 1_465
Rb2 S6 3.320741 1_555
Rb2 S5 3.593319 1_565
Rb2 S6 3.593592 1_455
Rb2 S1 3.705396 1_555
Rb2 S2 3.707364 1_555
Rb3 S0 3.471905 1_654
Rb3 S3 3.472994 1_554
Rb3 S7 3.604961 1_555
Rb3 S4 3.606040 1_665
Rb3 S4 3.625699 1_565
Rb3 S7 3.627142 1_655
Rb3 S5 3.685695 1_565
Rb3 S6 3.687184 1_555
Mg0 S1 2.448816 1_555
Mg0 S2 2.448994 1_655
Mg0 S6 2.537719 1_555
Mg0 S5 2.538643 1_565
Mg0 Rb2 3.315545 1_655
Mg0 Rb2 3.315983 1_555
Cu0 S0 2.314078 1_555
Cu0 S3 2.315018 1_555
Cu0 S2 2.397995 1_655
Cu0 S1 2.400322 1_555
Cu1 S7 2.301734 1_555
Cu1 S4 2.302293 1_555
Cu1 S6 2.402147 1_455
Cu1 S5 2.403354 1_555
S0 V1 2.195547 1_555
S1 V1 2.280185 1_555
S2 V1 2.280630 1_555
S3 V1 2.195645 1_655
S4 V0 2.193564 1_455
S5 V0 2.288764 1_555
S6 V0 2.288929 1_555
S7 V0 2.193922 1_555
