# generated using pymatgen
data_CuSe3I
_symmetry_space_group_name_H-M   'P 1'
_cell_length_a   9.60054710
_cell_length_b   9.60054710
_cell_length_c   9.60054716
_cell_angle_alpha   95.28363138
_cell_angle_beta   95.28363138
_cell_angle_gamma   95.28363112
_symmetry_Int_Tables_number   1
_chemical_formula_structural   CuSe3I
_chemical_formula_sum   'Cu6 Se18 I6'
_cell_volume   872.85896641
_cell_formula_units_Z   6
loop_
 _symmetry_equiv_pos_site_id
 _symmetry_equiv_pos_as_xyz
  1  'x, y, z'
loop_
 _atom_site_type_symbol
 _atom_site_label
 _atom_site_symmetry_multiplicity
 _atom_site_fract_x
 _atom_site_fract_y
 _atom_site_fract_z
 _atom_site_occupancy
  Cu  Cu0  1  0.39087300  0.88728600  0.88728600  1
  Cu  Cu1  1  0.88728600  0.88728600  0.39087300  1
  Cu  Cu2  1  0.88728600  0.39087300  0.88728600  1
  Cu  Cu3  1  0.11271400  0.60912700  0.11271400  1
  Cu  Cu4  1  0.60912700  0.11271400  0.11271400  1
  Cu  Cu5  1  0.11271400  0.11271400  0.60912700  1
  Se  Se0  1  0.87506600  0.61086900  0.61086900  1
  Se  Se1  1  0.61086900  0.61086900  0.87506600  1
  Se  Se2  1  0.61086900  0.87506600  0.61086900  1
  Se  Se3  1  0.38913100  0.12493400  0.38913100  1
  Se  Se4  1  0.12493400  0.38913100  0.38913100  1
  Se  Se5  1  0.38913100  0.38913100  0.12493400  1
  Se  Se6  1  0.13777100  0.87418100  0.87418100  1
  Se  Se7  1  0.87418100  0.87418100  0.13777100  1
  Se  Se8  1  0.87418100  0.13777100  0.87418100  1
  Se  Se9  1  0.12581900  0.86222900  0.12581900  1
  Se  Se10  1  0.86222900  0.12581900  0.12581900  1
  Se  Se11  1  0.12581900  0.12581900  0.86222900  1
  Se  Se12  1  0.45375400  0.71269900  0.71269900  1
  Se  Se13  1  0.71269900  0.71269900  0.45375400  1
  Se  Se14  1  0.71269900  0.45375400  0.71269900  1
  Se  Se15  1  0.28730100  0.54624600  0.28730100  1
  Se  Se16  1  0.54624600  0.28730100  0.28730100  1
  Se  Se17  1  0.28730100  0.28730100  0.54624600  1
  I  I0  1  0.14747100  0.85252900  0.50000000  1
  I  I1  1  0.85252900  0.50000000  0.14747100  1
  I  I2  1  0.50000000  0.14747100  0.85252900  1
  I  I3  1  0.85252900  0.14747100  0.50000000  1
  I  I4  1  0.14747100  0.50000000  0.85252900  1
  I  I5  1  0.50000000  0.85252900  0.14747100  1
loop_
_geom_bond_atom_site_label_1
_geom_bond_atom_site_label_2
_geom_bond_distance
_geom_bond_site_symmetry_2
Cu0 Se6 2.412599 1_555
Cu0 Se12 2.416314 1_555
Cu0 I2 2.680390 1_565
Cu0 I5 2.680390 1_556
Cu1 Se7 2.412599 1_555
Cu1 Se13 2.416314 1_555
Cu1 I3 2.680390 1_565
Cu1 I0 2.680390 1_655
Cu2 Se8 2.412599 1_555
Cu2 Se14 2.416314 1_555
Cu2 I4 2.680390 1_655
Cu2 I1 2.680390 1_556
Cu3 Se9 2.412599 1_555
Cu3 Se15 2.416314 1_555
Cu3 I1 2.680390 1_455
Cu3 I4 2.680390 1_554
Cu4 Se10 2.412599 1_555
Cu4 Se16 2.416314 1_555
Cu4 I5 2.680390 1_545
Cu4 I2 2.680390 1_554
Cu5 Se11 2.412599 1_555
Cu5 Se17 2.416314 1_555
Cu5 I3 2.680390 1_455
Cu5 I0 2.680390 1_545
Se0 Se13 2.404182 1_555
Se0 Se14 2.404182 1_555
Se1 Se12 2.404182 1_555
Se1 Se14 2.404182 1_555
Se6 Se9 2.441804 1_556
Se7 Se9 2.441804 1_655
Se10 Se7 2.441804 1_545
Se10 Se8 2.441804 1_554
Se11 Se6 2.441804 1_545
Se11 Se8 2.441804 1_455
Se12 Se2 2.404182 1_555
Se13 Se2 2.404182 1_555
Se15 Se5 2.404182 1_555
Se15 Se4 2.404182 1_555
Se16 Se5 2.404182 1_555
Se16 Se3 2.404182 1_555
Se17 Se3 2.404182 1_555
Se17 Se4 2.404182 1_555
