# generated using pymatgen
data_CoSb
_symmetry_space_group_name_H-M   'P 1'
_cell_length_a   3.84467794
_cell_length_b   3.84467918
_cell_length_c   5.15595391
_cell_angle_alpha   90.00000000
_cell_angle_beta   90.00000000
_cell_angle_gamma   120.00000689
_symmetry_Int_Tables_number   1
_chemical_formula_structural   CoSb
_chemical_formula_sum   'Co2 Sb2'
_cell_volume   66.00239566
_cell_formula_units_Z   2
loop_
 _symmetry_equiv_pos_site_id
 _symmetry_equiv_pos_as_xyz
  1  'x, y, z'
loop_
 _atom_site_type_symbol
 _atom_site_label
 _atom_site_symmetry_multiplicity
 _atom_site_fract_x
 _atom_site_fract_y
 _atom_site_fract_z
 _atom_site_occupancy
  Co  Co0  1  -0.00000000  -0.00000000  -0.00000000  1
  Co  Co1  1  -0.00000000  -0.00000000  0.50000000  1
  Sb  Sb0  1  0.33333300  0.66666700  0.25000000  1
  Sb  Sb1  1  0.66666700  0.33333300  0.75000000  1
loop_
_geom_bond_atom_site_label_1
_geom_bond_atom_site_label_2
_geom_bond_distance
_geom_bond_site_symmetry_2
Co0 Sb0 2.566840 1_545
Co0 Sb1 2.566840 1_454
Co0 Sb0 2.566842 1_445
Co0 Sb1 2.566842 1_554
Co0 Sb0 2.566843 1_555
Co0 Sb1 2.566843 1_444
Co0 Co1 2.577977 1_555
Co0 Co1 2.577977 1_554
Co1 Sb0 2.566840 1_545
Co1 Sb1 2.566840 1_455
Co1 Sb1 2.566842 1_555
Co1 Sb0 2.566842 1_445
Co1 Sb0 2.566843 1_555
Co1 Sb1 2.566843 1_445
