# generated using pymatgen
data_LaRuO3
_symmetry_space_group_name_H-M   'P 1'
_cell_length_a   5.47649900
_cell_length_b   5.91310600
_cell_length_c   7.92462000
_cell_angle_alpha   90.00000000
_cell_angle_beta   90.00000000
_cell_angle_gamma   90.00000000
_symmetry_Int_Tables_number   1
_chemical_formula_structural   LaRuO3
_chemical_formula_sum   'La4 Ru4 O12'
_cell_volume   256.62391325
_cell_formula_units_Z   4
loop_
 _symmetry_equiv_pos_site_id
 _symmetry_equiv_pos_as_xyz
  1  'x, y, z'
loop_
 _atom_site_type_symbol
 _atom_site_label
 _atom_site_symmetry_multiplicity
 _atom_site_fract_x
 _atom_site_fract_y
 _atom_site_fract_z
 _atom_site_occupancy
  La  La0  1  0.02016900  0.93492900  0.75000000  1
  La  La1  1  0.52016900  0.56507100  0.25000000  1
  La  La2  1  0.47983100  0.43492900  0.75000000  1
  La  La3  1  0.97983100  0.06507100  0.25000000  1
  Ru  Ru0  1  0.50000000  0.00000000  0.50000000  1
  Ru  Ru1  1  0.00000000  0.50000000  0.50000000  1
  Ru  Ru2  1  0.00000000  0.50000000  0.00000000  1
  Ru  Ru3  1  0.50000000  0.00000000  0.00000000  1
  O  O0  1  0.90078300  0.53406900  0.75000000  1
  O  O1  1  0.40078300  0.96593100  0.25000000  1
  O  O2  1  0.59921700  0.03406900  0.75000000  1
  O  O3  1  0.09921700  0.46593100  0.25000000  1
  O  O4  1  0.69208500  0.29910600  0.45005900  1
  O  O5  1  0.19208500  0.20089400  0.54994100  1
  O  O6  1  0.80791500  0.79910600  0.04994100  1
  O  O7  1  0.30791500  0.70089400  0.95005900  1
  O  O8  1  0.69208500  0.29910600  0.04994100  1
  O  O9  1  0.19208500  0.20089400  0.95005900  1
  O  O10  1  0.80791500  0.79910600  0.45005900  1
  O  O11  1  0.30791500  0.70089400  0.54994100  1
loop_
_geom_bond_atom_site_label_1
_geom_bond_atom_site_label_2
_geom_bond_distance
_geom_bond_site_symmetry_2
La0 O2 2.378711 1_465
La0 O9 2.423470 1_565
La0 O5 2.423470 1_565
La0 O0 2.458847 1_455
La0 O7 2.629039 1_555
La0 O11 2.629039 1_555
La0 O10 2.765133 1_455
La0 O6 2.765133 1_456
La1 O3 2.378711 1_555
La1 O4 2.423470 1_555
La1 O8 2.423470 1_555
La1 O1 2.458847 1_555
La1 O6 2.629039 1_555
La1 O10 2.629039 1_555
La1 O11 2.765133 1_555
La1 O7 2.765133 1_554
La2 O0 2.378711 1_555
La2 O7 2.423470 1_555
La2 O11 2.423470 1_555
La2 O2 2.458847 1_555
La2 O5 2.629039 1_555
La2 O9 2.629039 1_555
La2 O4 2.765133 1_555
La2 O8 2.765133 1_556
La3 O1 2.378711 1_645
La3 O10 2.423470 1_545
La3 O6 2.423470 1_545
La3 O3 2.458847 1_655
La3 O4 2.629039 1_555
La3 O8 2.629039 1_555
La3 O9 2.765133 1_654
La3 O5 2.765133 1_655
O0 Ru1 2.064171 1_655
O0 Ru2 2.064171 1_656
O1 Ru3 2.064171 1_565
O1 Ru0 2.064171 1_565
O2 Ru0 2.064171 1_555
O2 Ru3 2.064171 1_556
O3 Ru1 2.064171 1_555
O3 Ru2 2.064171 1_555
O4 Ru0 2.095553 1_555
O4 Ru1 2.100321 1_655
O5 Ru1 2.095553 1_555
O5 Ru0 2.100321 1_555
O6 Ru2 2.095553 1_655
O6 Ru3 2.100321 1_565
O7 Ru3 2.095553 1_566
O7 Ru2 2.100321 1_556
O8 Ru3 2.095553 1_555
O8 Ru2 2.100321 1_655
O9 Ru2 2.095553 1_556
O9 Ru3 2.100321 1_556
O10 Ru1 2.095553 1_655
O10 Ru0 2.100321 1_565
O11 Ru0 2.095553 1_565
O11 Ru1 2.100321 1_555
