# generated using pymatgen
data_BaAsHO4
_symmetry_space_group_name_H-M   'P 1'
_cell_length_a   8.71469600
_cell_length_b   10.09586500
_cell_length_c   19.79915800
_cell_angle_alpha   90.00000000
_cell_angle_beta   90.00000000
_cell_angle_gamma   90.00000000
_symmetry_Int_Tables_number   1
_chemical_formula_structural   BaAsHO4
_chemical_formula_sum   'Ba16 As16 H16 O64'
_cell_volume   1741.97732660
_cell_formula_units_Z   16
loop_
 _symmetry_equiv_pos_site_id
 _symmetry_equiv_pos_as_xyz
  1  'x, y, z'
loop_
 _atom_site_type_symbol
 _atom_site_label
 _atom_site_symmetry_multiplicity
 _atom_site_fract_x
 _atom_site_fract_y
 _atom_site_fract_z
 _atom_site_occupancy
  Ba  Ba0  1  0.36715300  0.68264600  0.38185200  1
  Ba  Ba1  1  0.86715300  0.81735400  0.61814800  1
  Ba  Ba2  1  0.63284700  0.18264600  0.11814800  1
  Ba  Ba3  1  0.13284700  0.31735400  0.88185200  1
  Ba  Ba4  1  0.63284700  0.31735400  0.61814800  1
  Ba  Ba5  1  0.13284700  0.18264600  0.38185200  1
  Ba  Ba6  1  0.36715300  0.81735400  0.88185200  1
  Ba  Ba7  1  0.86715300  0.68264600  0.11814800  1
  Ba  Ba8  1  0.62390700  0.32206500  0.37441600  1
  Ba  Ba9  1  0.12390700  0.17793500  0.62558400  1
  Ba  Ba10  1  0.37609300  0.82206500  0.12558400  1
  Ba  Ba11  1  0.87609300  0.67793500  0.87441600  1
  Ba  Ba12  1  0.37609300  0.67793500  0.62558400  1
  Ba  Ba13  1  0.87609300  0.82206500  0.37441600  1
  Ba  Ba14  1  0.62390700  0.17793500  0.87441600  1
  Ba  Ba15  1  0.12390700  0.32206500  0.12558400  1
  As  As0  1  0.02044600  0.47872800  0.29330800  1
  As  As1  1  0.52044600  0.02127200  0.70669200  1
  As  As2  1  0.97955400  0.97872800  0.20669200  1
  As  As3  1  0.47955400  0.52127200  0.79330800  1
  As  As4  1  0.97955400  0.52127200  0.70669200  1
  As  As5  1  0.47955400  0.97872800  0.29330800  1
  As  As6  1  0.02044600  0.02127200  0.79330800  1
  As  As7  1  0.52044600  0.47872800  0.20669200  1
  As  As8  1  0.74510800  0.07605100  0.49561900  1
  As  As9  1  0.24510800  0.42394900  0.50438100  1
  As  As10  1  0.25489200  0.57605100  0.00438100  1
  As  As11  1  0.75489200  0.92394900  0.99561900  1
  As  As12  1  0.25489200  0.92394900  0.50438100  1
  As  As13  1  0.75489200  0.57605100  0.49561900  1
  As  As14  1  0.74510800  0.42394900  0.99561900  1
  As  As15  1  0.24510800  0.07605100  0.00438100  1
  H  H0  1  0.28656600  0.42450000  0.28001900  1
  H  H1  1  0.78656600  0.07550000  0.71998100  1
  H  H2  1  0.71343400  0.92450000  0.21998100  1
  H  H3  1  0.21343400  0.57550000  0.78001900  1
  H  H4  1  0.71343400  0.57550000  0.71998100  1
  H  H5  1  0.21343400  0.92450000  0.28001900  1
  H  H6  1  0.28656600  0.07550000  0.78001900  1
  H  H7  1  0.78656600  0.42450000  0.21998100  1
  H  H8  1  0.58305400  0.88418900  0.49981300  1
  H  H9  1  0.08305400  0.61581100  0.50018700  1
  H  H10  1  0.41694600  0.38418900  0.00018700  1
  H  H11  1  0.91694600  0.11581100  0.99981300  1
  H  H12  1  0.41694600  0.11581100  0.50018700  1
  H  H13  1  0.91694600  0.38418900  0.49981300  1
  H  H14  1  0.58305400  0.61581100  0.99981300  1
  H  H15  1  0.08305400  0.88418900  0.00018700  1
  O  O0  1  0.91809100  0.37877200  0.34550000  1
  O  O1  1  0.41809100  0.12122800  0.65450000  1
  O  O2  1  0.08190900  0.87877200  0.15450000  1
  O  O3  1  0.58190900  0.62122800  0.84550000  1
  O  O4  1  0.08190900  0.62122800  0.65450000  1
  O  O5  1  0.58190900  0.87877200  0.34550000  1
  O  O6  1  0.91809100  0.12122800  0.84550000  1
  O  O7  1  0.41809100  0.37877200  0.15450000  1
  O  O8  1  0.93762300  0.49408500  0.21436300  1
  O  O9  1  0.43762300  0.00591500  0.78563700  1
  O  O10  1  0.06237700  0.99408500  0.28563700  1
  O  O11  1  0.56237700  0.50591500  0.71436300  1
  O  O12  1  0.06237700  0.50591500  0.78563700  1
  O  O13  1  0.56237700  0.99408500  0.21436300  1
  O  O14  1  0.93762300  0.00591500  0.71436300  1
  O  O15  1  0.43762300  0.49408500  0.28563700  1
  O  O16  1  0.18215700  0.37454100  0.27506100  1
  O  O17  1  0.68215700  0.12545900  0.72493900  1
  O  O18  1  0.81784300  0.87454100  0.22493900  1
  O  O19  1  0.31784300  0.62545900  0.77506100  1
  O  O20  1  0.81784300  0.62545900  0.72493900  1
  O  O21  1  0.31784300  0.87454100  0.27506100  1
  O  O22  1  0.18215700  0.12545900  0.77506100  1
  O  O23  1  0.68215700  0.37454100  0.22493900  1
  O  O24  1  0.07595600  0.62640200  0.32624900  1
  O  O25  1  0.57595600  0.87359800  0.67375100  1
  O  O26  1  0.92404400  0.12640200  0.17375100  1
  O  O27  1  0.42404400  0.37359800  0.82624900  1
  O  O28  1  0.92404400  0.37359800  0.67375100  1
  O  O29  1  0.42404400  0.12640200  0.32624900  1
  O  O30  1  0.07595600  0.87359800  0.82624900  1
  O  O31  1  0.57595600  0.62640200  0.17375100  1
  O  O32  1  0.70040100  0.90300600  0.49871000  1
  O  O33  1  0.20040100  0.59699400  0.50129000  1
  O  O34  1  0.29959900  0.40300600  0.00129000  1
  O  O35  1  0.79959900  0.09699400  0.99871000  1
  O  O36  1  0.29959900  0.09699400  0.50129000  1
  O  O37  1  0.79959900  0.40300600  0.49871000  1
  O  O38  1  0.70040100  0.59699400  0.99871000  1
  O  O39  1  0.20040100  0.90300600  0.00129000  1
  O  O40  1  0.84290100  0.10217100  0.56910800  1
  O  O41  1  0.34290100  0.39782900  0.43089200  1
  O  O42  1  0.15709900  0.60217100  0.93089200  1
  O  O43  1  0.65709900  0.89782900  0.06910800  1
  O  O44  1  0.15709900  0.89782900  0.43089200  1
  O  O45  1  0.65709900  0.60217100  0.56910800  1
  O  O46  1  0.84290100  0.39782900  0.06910800  1
  O  O47  1  0.34290100  0.10217100  0.93089200  1
  O  O48  1  0.84378600  0.09526200  0.42180500  1
  O  O49  1  0.34378600  0.40473800  0.57819500  1
  O  O50  1  0.15621400  0.59526200  0.07819500  1
  O  O51  1  0.65621400  0.90473800  0.92180500  1
  O  O52  1  0.15621400  0.90473800  0.57819500  1
  O  O53  1  0.65621400  0.59526200  0.42180500  1
  O  O54  1  0.84378600  0.40473800  0.92180500  1
  O  O55  1  0.34378600  0.09526200  0.07819500  1
  O  O56  1  0.58004200  0.16863800  0.49443800  1
  O  O57  1  0.08004200  0.33136200  0.50556200  1
  O  O58  1  0.41995800  0.66863800  0.00556200  1
  O  O59  1  0.91995800  0.83136200  0.99443800  1
  O  O60  1  0.41995800  0.83136200  0.50556200  1
  O  O61  1  0.91995800  0.66863800  0.49443800  1
  O  O62  1  0.58004200  0.33136200  0.99443800  1
  O  O63  1  0.08004200  0.16863800  0.00556200  1
loop_
_geom_bond_atom_site_label_1
_geom_bond_atom_site_label_2
_geom_bond_distance
_geom_bond_site_symmetry_2
Ba0 O15 2.762264 1_555
Ba0 O53 2.783847 1_555
Ba0 O5 2.818032 1_555
Ba0 O24 2.823878 1_555
Ba0 O21 2.899748 1_555
Ba0 O33 2.907177 1_555
Ba0 O60 2.909528 1_555
Ba0 O44 3.002209 1_555
Ba0 O41 3.042329 1_555
Ba1 O14 2.762264 1_565
Ba1 O52 2.783847 1_655
Ba1 O4 2.818032 1_655
Ba1 O25 2.823878 1_555
Ba1 O20 2.899748 1_555
Ba1 O32 2.907177 1_555
Ba1 O61 2.909528 1_555
Ba1 O45 3.002209 1_555
Ba1 O40 3.042329 1_565
Ba2 O13 2.762264 1_545
Ba2 O55 2.783847 1_555
Ba2 O7 2.818032 1_555
Ba2 O26 2.823878 1_555
Ba2 O23 2.899748 1_555
Ba2 O35 2.907177 1_554
Ba2 O62 2.909528 1_554
Ba2 O46 3.002209 1_555
Ba2 O43 3.042329 1_545
Ba3 O12 2.762264 1_555
Ba3 O54 2.783847 1_455
Ba3 O6 2.818032 1_455
Ba3 O27 2.823878 1_555
Ba3 O22 2.899748 1_555
Ba3 O34 2.907177 1_556
Ba3 O63 2.909528 1_556
Ba3 O47 3.002209 1_555
Ba3 O42 3.042329 1_555
Ba4 O11 2.762264 1_555
Ba4 O49 2.783847 1_555
Ba4 O1 2.818032 1_555
Ba4 O28 2.823878 1_555
Ba4 O17 2.899748 1_555
Ba4 O37 2.907177 1_555
Ba4 O56 2.909528 1_555
Ba4 O40 3.002209 1_555
Ba4 O45 3.042329 1_555
Ba5 O10 2.762264 1_545
Ba5 O48 2.783847 1_455
Ba5 O0 2.818032 1_455
Ba5 O29 2.823878 1_555
Ba5 O16 2.899748 1_555
Ba5 O36 2.907177 1_555
Ba5 O57 2.909528 1_555
Ba5 O41 3.002209 1_555
Ba5 O44 3.042329 1_545
Ba6 O9 2.762264 1_565
Ba6 O51 2.783847 1_555
Ba6 O3 2.818032 1_555
Ba6 O30 2.823878 1_555
Ba6 O19 2.899748 1_555
Ba6 O39 2.907177 1_556
Ba6 O58 2.909528 1_556
Ba6 O42 3.002209 1_555
Ba6 O47 3.042329 1_565
Ba7 O8 2.762264 1_555
Ba7 O50 2.783847 1_655
Ba7 O2 2.818032 1_655
Ba7 O31 2.823878 1_555
Ba7 O18 2.899748 1_555
Ba7 O38 2.907177 1_554
Ba7 O59 2.909528 1_554
Ba7 O43 3.002209 1_555
Ba7 O46 3.042329 1_555
Ba8 O0 2.688534 1_555
Ba8 O41 2.798646 1_555
Ba8 O29 2.800948 1_555
Ba8 O56 2.862242 1_555
Ba8 O53 2.926952 1_555
Ba8 O15 2.956558 1_555
Ba8 O37 3.011337 1_555
Ba8 O23 3.049118 1_555
Ba8 O48 3.129718 1_555
Ba9 O1 2.688534 1_555
Ba9 O40 2.798646 1_455
Ba9 O28 2.800948 1_455
Ba9 O57 2.862242 1_555
Ba9 O52 2.926952 1_545
Ba9 O14 2.956558 1_455
Ba9 O36 3.011337 1_555
Ba9 O22 3.049118 1_555
Ba9 O49 3.129718 1_555
Ba10 O2 2.688534 1_555
Ba10 O43 2.798646 1_555
Ba10 O31 2.800948 1_555
Ba10 O58 2.862242 1_555
Ba10 O55 2.926952 1_565
Ba10 O13 2.956558 1_555
Ba10 O39 3.011337 1_555
Ba10 O21 3.049118 1_555
Ba10 O50 3.129718 1_555
Ba11 O3 2.688534 1_555
Ba11 O42 2.798646 1_655
Ba11 O30 2.800948 1_655
Ba11 O59 2.862242 1_555
Ba11 O54 2.926952 1_555
Ba11 O12 2.956558 1_655
Ba11 O38 3.011337 1_555
Ba11 O20 3.049118 1_555
Ba11 O51 3.129718 1_555
Ba12 O4 2.688534 1_555
Ba12 O45 2.798646 1_555
Ba12 O25 2.800948 1_555
Ba12 O60 2.862242 1_555
Ba12 O49 2.926952 1_555
Ba12 O11 2.956558 1_555
Ba12 O33 3.011337 1_555
Ba12 O19 3.049118 1_555
Ba12 O52 3.129718 1_555
Ba13 O5 2.688534 1_555
Ba13 O44 2.798646 1_655
Ba13 O24 2.800948 1_655
Ba13 O61 2.862242 1_555
Ba13 O48 2.926952 1_565
Ba13 O10 2.956558 1_655
Ba13 O32 3.011337 1_555
Ba13 O18 3.049118 1_555
Ba13 O53 3.129718 1_555
Ba14 O6 2.688534 1_555
Ba14 O47 2.798646 1_555
Ba14 O27 2.800948 1_555
Ba14 O62 2.862242 1_555
Ba14 O51 2.926952 1_545
Ba14 O9 2.956558 1_555
Ba14 O35 3.011337 1_555
Ba14 O17 3.049118 1_555
Ba14 O54 3.129718 1_555
Ba15 O7 2.688534 1_555
Ba15 O46 2.798646 1_455
Ba15 O26 2.800948 1_455
Ba15 O63 2.862242 1_555
Ba15 O50 2.926952 1_555
Ba15 O8 2.956558 1_455
Ba15 O34 3.011337 1_555
Ba15 O16 3.049118 1_555
Ba15 O55 3.129718 1_555
As0 O0 1.697600 1_455
As0 O24 1.697693 1_555
As0 O8 1.728615 1_455
As0 O16 1.795256 1_555
As1 O1 1.697600 1_555
As1 O25 1.697693 1_545
As1 O9 1.728615 1_555
As1 O17 1.795256 1_555
As2 O2 1.697600 1_655
As2 O26 1.697693 1_565
As2 O10 1.728615 1_655
As2 O18 1.795256 1_555
As3 O3 1.697600 1_555
As3 O27 1.697693 1_555
As3 O11 1.728615 1_555
As3 O19 1.795256 1_555
As4 O4 1.697600 1_655
As4 O28 1.697693 1_555
As4 O12 1.728615 1_655
As4 O20 1.795256 1_555
As5 O5 1.697600 1_555
As5 O29 1.697693 1_565
As5 O13 1.728615 1_555
As5 O21 1.795256 1_555
As6 O6 1.697600 1_455
As6 O30 1.697693 1_545
As6 O14 1.728615 1_455
As6 O22 1.795256 1_555
As7 O7 1.697600 1_555
As7 O31 1.697693 1_555
As7 O15 1.728615 1_555
As7 O23 1.795256 1_555
As8 O40 1.706731 1_555
As8 O48 1.706745 1_555
As8 O56 1.715686 1_555
As8 O32 1.791001 1_545
As9 O41 1.706731 1_555
As9 O49 1.706745 1_555
As9 O57 1.715686 1_555
As9 O33 1.791001 1_555
As10 O42 1.706731 1_554
As10 O50 1.706745 1_555
As10 O58 1.715686 1_555
As10 O34 1.791001 1_555
As11 O43 1.706731 1_556
As11 O51 1.706745 1_555
As11 O59 1.715686 1_555
As11 O35 1.791001 1_565
As12 O44 1.706731 1_555
As12 O52 1.706745 1_555
As12 O60 1.715686 1_555
As12 O36 1.791001 1_565
As13 O45 1.706731 1_555
As13 O53 1.706745 1_555
As13 O61 1.715686 1_555
As13 O37 1.791001 1_555
As14 O46 1.706731 1_556
As14 O54 1.706745 1_555
As14 O62 1.715686 1_555
As14 O38 1.791001 1_555
As15 O47 1.706731 1_554
As15 O55 1.706745 1_555
As15 O63 1.715686 1_555
As15 O39 1.791001 1_545
H0 O16 1.044959 1_555
H0 O15 1.496282 1_555
H1 O17 1.044959 1_555
H1 O14 1.496282 1_555
H2 O18 1.044959 1_555
H2 O13 1.496282 1_555
H3 O19 1.044959 1_555
H3 O12 1.496282 1_555
H4 O20 1.044959 1_555
H4 O11 1.496282 1_555
H5 O21 1.044959 1_555
H5 O10 1.496282 1_555
H6 O22 1.044959 1_555
H6 O9 1.496282 1_555
H7 O23 1.044959 1_555
H7 O8 1.496282 1_555
H8 O32 1.040368 1_555
H8 O60 1.522362 1_555
H9 O33 1.040368 1_555
H9 O61 1.522362 1_455
H10 O34 1.040368 1_555
H10 O62 1.522362 1_554
H11 O35 1.040368 1_555
H11 O63 1.522362 1_656
H12 O36 1.040368 1_555
H12 O56 1.522362 1_555
H13 O37 1.040368 1_555
H13 O57 1.522362 1_655
H14 O38 1.040368 1_555
H14 O58 1.522362 1_556
H15 O39 1.040368 1_555
H15 O59 1.522362 1_454
