# generated using pymatgen
data_Sc3(NiGe)4
_symmetry_space_group_name_H-M   'P 1'
_cell_length_a   7.47550278
_cell_length_b   7.47496326
_cell_length_c   7.47526678
_cell_angle_alpha   149.82000569
_cell_angle_beta   127.82284019
_cell_angle_gamma   61.46880436
_symmetry_Int_Tables_number   1
_chemical_formula_structural   Sc3(NiGe)4
_chemical_formula_sum   'Sc3 Ni4 Ge4'
_cell_volume   164.42017117
_cell_formula_units_Z   1
loop_
 _symmetry_equiv_pos_site_id
 _symmetry_equiv_pos_as_xyz
  1  'x, y, z'
loop_
 _atom_site_type_symbol
 _atom_site_label
 _atom_site_symmetry_multiplicity
 _atom_site_fract_x
 _atom_site_fract_y
 _atom_site_fract_z
 _atom_site_occupancy
  Sc  Sc0  1  0.87315866  0.37314366  0.49998619  1
  Sc  Sc1  1  0.12684139  0.62685641  0.50001373  1
  Sc  Sc2  1  0.49999975  0.50000015  0.00000032  1
  Ni  Ni0  1  0.48145548  0.17791695  0.30360043  1
  Ni  Ni1  1  0.12556933  0.82206570  0.30350233  1
  Ni  Ni2  1  0.51854490  0.82208312  0.69639824  1
  Ni  Ni3  1  0.87443133  0.17793407  0.69649894  1
  Ge  Ge0  1  0.28096951  0.28104633  -0.00006112  1
  Ge  Ge1  1  0.71903171  0.71895446  1.00006161  1
  Ge  Ge2  1  0.80445633  0.99997294  0.80439546  1
  Ge  Ge3  1  0.19554161  0.00002619  0.19560387  1
loop_
_geom_bond_atom_site_label_1
_geom_bond_atom_site_label_2
_geom_bond_distance
_geom_bond_site_symmetry_2
Ni0 Ni3 2.583409 1_555
Ni0 Ni2 2.777905 1_555
Ni0 Ni2 2.778500 1_544
Ni0 Sc0 2.822236 1_555
Ni0 Sc1 2.863664 1_544
Ni0 Sc1 2.863821 1_555
Ni0 Sc2 3.268039 1_545
Ni0 Sc2 3.268136 1_556
Ni1 Ni2 2.583398 1_555
Ni1 Ni3 2.777000 1_454
Ni1 Ni3 2.777363 1_465
Ni1 Sc1 2.821827 1_555
Ni1 Sc0 2.863531 1_465
Ni1 Sc0 2.863567 1_454
Ni1 Sc2 3.268535 1_566
Ni1 Sc2 3.268929 1_555
Ni2 Sc1 2.822244 1_555
Ni2 Sc0 2.863665 1_566
Ni2 Sc0 2.863819 1_555
Ni2 Sc2 3.268029 1_566
Ni2 Sc2 3.268120 1_555
Ni3 Sc0 2.821836 1_555
Ni3 Sc1 2.863524 1_645
Ni3 Sc1 2.863560 1_656
Ni3 Sc2 3.268536 1_545
Ni3 Sc2 3.268933 1_556
Ge0 Ni1 2.394325 1_555
Ge0 Ni1 2.394370 1_544
Ge0 Ni2 2.394521 1_555
Ge0 Ni3 2.394928 1_454
Ge0 Ni2 2.394981 1_544
Ge0 Ni0 2.396332 1_555
Ge0 Sc1 2.777136 1_544
Ge0 Sc1 2.777498 1_555
Ge0 Sc2 2.813786 1_555
Ge1 Ni3 2.394330 1_555
Ge1 Ni3 2.394376 1_566
Ge1 Ni0 2.394527 1_555
Ge1 Ni1 2.394923 1_656
Ge1 Ni0 2.394982 1_566
Ge1 Ni2 2.396338 1_555
Ge1 Sc0 2.777130 1_566
Ge1 Sc0 2.777492 1_555
Ge1 Sc2 2.813801 1_556
Ge2 Ni2 2.393920 1_555
Ge2 Ni3 2.393928 1_565
Ge2 Ge3 2.571519 1_666
Ge2 Sc2 2.791498 1_555
Ge2 Sc2 2.791883 1_566
Ge2 Sc1 2.845421 1_666
Ge2 Sc1 2.845463 1_655
Ge2 Sc0 2.845492 1_555
Ge2 Sc0 2.845820 1_566
Ge3 Ni1 2.393923 1_545
Ge3 Ni0 2.393946 1_555
Ge3 Sc2 2.791503 1_556
Ge3 Sc2 2.791886 1_545
Ge3 Sc0 2.845410 1_444
Ge3 Sc0 2.845451 1_455
Ge3 Sc1 2.845498 1_555
Ge3 Sc1 2.845827 1_544
