# generated using pymatgen
data_Na4Al3Ge3IO12
_symmetry_space_group_name_H-M   'P 1'
_cell_length_a   9.17617549
_cell_length_b   9.17617549
_cell_length_c   9.17617549
_cell_angle_alpha   90.00000000
_cell_angle_beta   90.00000000
_cell_angle_gamma   90.00000000
_symmetry_Int_Tables_number   1
_chemical_formula_structural   Na4Al3Ge3IO12
_chemical_formula_sum   'Na8 Al6 Ge6 I2 O24'
_cell_volume   772.65413286
_cell_formula_units_Z   2
loop_
 _symmetry_equiv_pos_site_id
 _symmetry_equiv_pos_as_xyz
  1  'x, y, z'
loop_
 _atom_site_type_symbol
 _atom_site_label
 _atom_site_symmetry_multiplicity
 _atom_site_fract_x
 _atom_site_fract_y
 _atom_site_fract_z
 _atom_site_occupancy
  Na  Na0  1  0.19320121  0.19320121  0.19320121  1
  Na  Na1  1  0.30679879  0.69320121  0.30679879  1
  Na  Na2  1  0.30679879  0.30679879  0.69320121  1
  Na  Na3  1  0.69320121  0.30679879  0.30679879  1
  Na  Na4  1  0.80679879  0.80679879  0.19320121  1
  Na  Na5  1  0.19320121  0.80679879  0.80679879  1
  Na  Na6  1  0.80679879  0.19320121  0.80679879  1
  Na  Na7  1  0.69320121  0.69320121  0.69320121  1
  Al  Al0  1  0.50000000  0.25000000  0.00000000  1
  Al  Al1  1  0.00000000  0.50000000  0.25000000  1
  Al  Al2  1  0.00000000  0.50000000  0.75000000  1
  Al  Al3  1  0.25000000  0.00000000  0.50000000  1
  Al  Al4  1  0.75000000  0.00000000  0.50000000  1
  Al  Al5  1  0.50000000  0.75000000  0.00000000  1
  Ge  Ge0  1  0.75000000  0.50000000  0.00000000  1
  Ge  Ge1  1  0.00000000  0.75000000  0.50000000  1
  Ge  Ge2  1  0.25000000  0.50000000  0.00000000  1
  Ge  Ge3  1  0.50000000  0.00000000  0.75000000  1
  Ge  Ge4  1  0.50000000  0.00000000  0.25000000  1
  Ge  Ge5  1  0.00000000  0.25000000  0.50000000  1
  I  I0  1  0.50000000  0.50000000  0.50000000  1
  I  I1  1  0.00000000  0.00000000  0.00000000  1
  O  O0  1  0.64618525  0.93593683  0.64647991  1
  O  O1  1  0.64618525  0.06406317  0.35352009  1
  O  O2  1  0.93593683  0.64647991  0.64618525  1
  O  O3  1  0.06406317  0.64647991  0.35381475  1
  O  O4  1  0.64647991  0.64618525  0.93593683  1
  O  O5  1  0.35352009  0.35381475  0.93593683  1
  O  O6  1  0.85381475  0.85352009  0.43593683  1
  O  O7  1  0.85381475  0.14647991  0.56406317  1
  O  O8  1  0.14618525  0.85352009  0.56406317  1
  O  O9  1  0.14647991  0.56406317  0.85381475  1
  O  O10  1  0.56406317  0.14618525  0.85352009  1
  O  O11  1  0.56406317  0.85381475  0.14647991  1
  O  O12  1  0.85352009  0.43593683  0.85381475  1
  O  O13  1  0.43593683  0.85381475  0.85352009  1
  O  O14  1  0.85352009  0.56406317  0.14618525  1
  O  O15  1  0.14647991  0.43593683  0.14618525  1
  O  O16  1  0.43593683  0.14618525  0.14647991  1
  O  O17  1  0.35352009  0.64618525  0.06406317  1
  O  O18  1  0.64647991  0.35381475  0.06406317  1
  O  O19  1  0.93593683  0.35352009  0.35381475  1
  O  O20  1  0.06406317  0.35352009  0.64618525  1
  O  O21  1  0.35381475  0.06406317  0.64647991  1
  O  O22  1  0.14618525  0.14647991  0.43593683  1
  O  O23  1  0.35381475  0.93593683  0.35352009  1
loop_
_geom_bond_atom_site_label_1
_geom_bond_atom_site_label_2
_geom_bond_distance
_geom_bond_site_symmetry_2
Na0 O16 2.308934 1_555
Na0 O22 2.308934 1_555
Na0 O15 2.308934 1_555
Na1 O17 2.308934 1_555
Na1 O23 2.308934 1_555
Na1 O3 2.308934 1_555
Na2 O20 2.308934 1_555
Na2 O5 2.308934 1_555
Na2 O21 2.308934 1_555
Na3 O1 2.308934 1_555
Na3 O18 2.308934 1_555
Na3 O19 2.308934 1_555
Na4 O6 2.308934 1_555
Na4 O14 2.308934 1_555
Na4 O11 2.308934 1_555
Na5 O13 2.308934 1_555
Na5 O8 2.308934 1_555
Na5 O9 2.308934 1_555
Na6 O12 2.308934 1_555
Na6 O10 2.308934 1_555
Na6 O7 2.308934 1_555
Na7 O4 2.308934 1_555
Na7 O0 2.308934 1_555
Na7 O2 2.308934 1_555
Al0 O5 1.749210 1_554
Al0 O16 1.749210 1_555
Al0 O18 1.749210 1_555
Al0 O10 1.749210 1_554
Al1 O15 1.749210 1_555
Al1 O19 1.749210 1_455
Al1 O14 1.749210 1_455
Al1 O3 1.749210 1_555
Al2 O9 1.749210 1_555
Al2 O20 1.749210 1_555
Al2 O2 1.749210 1_455
Al2 O12 1.749210 1_455
Al3 O23 1.749210 1_545
Al3 O22 1.749210 1_555
Al3 O8 1.749210 1_545
Al3 O21 1.749210 1_555
Al4 O7 1.749210 1_555
Al4 O1 1.749210 1_555
Al4 O0 1.749210 1_545
Al4 O6 1.749210 1_545
Al5 O17 1.749210 1_555
Al5 O11 1.749210 1_555
Al5 O4 1.749210 1_554
Al5 O13 1.749210 1_554
Ge0 O14 1.745660 1_555
Ge0 O18 1.745660 1_555
Ge0 O4 1.745660 1_554
Ge0 O12 1.745660 1_554
Ge1 O8 1.745660 1_555
Ge1 O3 1.745660 1_555
Ge1 O2 1.745660 1_455
Ge1 O6 1.745660 1_455
Ge2 O5 1.745660 1_554
Ge2 O15 1.745660 1_555
Ge2 O9 1.745660 1_554
Ge2 O17 1.745660 1_555
Ge3 O21 1.745660 1_555
Ge3 O10 1.745660 1_555
Ge3 O0 1.745660 1_545
Ge3 O13 1.745660 1_545
Ge4 O23 1.745660 1_545
Ge4 O11 1.745660 1_545
Ge4 O16 1.745660 1_555
Ge4 O1 1.745660 1_555
Ge5 O19 1.745660 1_455
Ge5 O7 1.745660 1_455
Ge5 O22 1.745660 1_555
Ge5 O20 1.745660 1_555
I0 Na3 3.070663 1_555
I0 Na2 3.070663 1_555
I0 Na1 3.070663 1_555
I0 Na7 3.070663 1_555
I1 Na4 3.070663 1_445
I1 Na0 3.070663 1_555
I1 Na5 3.070663 1_544
I1 Na6 3.070663 1_454
