# generated using pymatgen
data_Na3Ta2Si3Sn2(PO8)3
_symmetry_space_group_name_H-M   'P 1'
_cell_length_a   8.87526602
_cell_length_b   8.85008374
_cell_length_c   22.74919603
_cell_angle_alpha   90.18964920
_cell_angle_beta   89.71859351
_cell_angle_gamma   119.93768867
_symmetry_Int_Tables_number   1
_chemical_formula_structural   Na3Ta2Si3Sn2(PO8)3
_chemical_formula_sum   'Na9 Ta6 Si9 Sn6 P9 O72'
_cell_volume   1548.43271930
_cell_formula_units_Z   3
loop_
 _symmetry_equiv_pos_site_id
 _symmetry_equiv_pos_as_xyz
  1  'x, y, z'
loop_
 _atom_site_type_symbol
 _atom_site_label
 _atom_site_symmetry_multiplicity
 _atom_site_fract_x
 _atom_site_fract_y
 _atom_site_fract_z
 _atom_site_occupancy
  Na  Na0  1  0.99900615  0.63304895  0.25059797  1
  Na  Na1  1  0.66511989  0.96451932  0.58390642  1
  Na  Na2  1  0.66755320  0.70032625  0.08281217  1
  Na  Na3  1  0.01128873  0.99823956  0.50061369  1
  Na  Na4  1  0.00877297  0.00862561  0.99911903  1
  Na  Na5  1  0.66921087  0.33522520  0.83324034  1
  Na  Na6  1  0.66032206  0.32682833  0.33322224  1
  Na  Na7  1  0.33320579  0.66655194  0.16663343  1
  Na  Na8  1  0.32440020  0.66448723  0.66730600  1
  Ta  Ta0  1  0.99426454  0.99308705  0.35514889  1
  Ta  Ta1  1  0.99057276  0.99406251  0.85423481  1
  Ta  Ta2  1  0.66633243  0.33063322  0.68962326  1
  Ta  Ta3  1  0.67249078  0.33949784  0.97745528  1
  Ta  Ta4  1  0.66400306  0.33159437  0.47772462  1
  Ta  Ta5  1  0.33209819  0.66597575  0.81250590  1
  Si  Si0  1  0.70249030  0.70755047  0.24833801  1
  Si  Si1  1  0.00128073  0.71055554  0.74934316  1
  Si  Si2  1  0.71140433  0.99759276  0.74801529  1
  Si  Si3  1  0.37197976  0.04372113  0.58359444  1
  Si  Si4  1  0.96374422  0.62544656  0.08478063  1
  Si  Si5  1  0.61847297  0.66643359  0.91839516  1
  Si  Si6  1  0.04715611  0.37680415  0.91694650  1
  Si  Si7  1  0.62206104  0.95481603  0.41800680  1
  Si  Si8  1  0.04490460  0.66495697  0.41566035  1
  Sn  Sn0  1  0.00552181  0.99699120  0.64763186  1
  Sn  Sn1  1  0.00032752  0.00113266  0.14636649  1
  Sn  Sn2  1  0.66637270  0.33222061  0.18682999  1
  Sn  Sn3  1  0.32739281  0.66530870  0.01806941  1
  Sn  Sn4  1  0.33106474  0.66865261  0.51925837  1
  Sn  Sn5  1  0.33826314  0.66867941  0.31552270  1
  P  P0  1  0.29068643  0.00209296  0.25003625  1
  P  P1  1  0.00153300  0.28843893  0.25007825  1
  P  P2  1  0.28655330  0.28766517  0.75008269  1
  P  P3  1  0.95549763  0.33590356  0.58338497  1
  P  P4  1  0.66459443  0.61910596  0.58342193  1
  P  P5  1  0.66516891  0.04506829  0.08309100  1
  P  P6  1  0.37637081  0.33147156  0.08308382  1
  P  P7  1  0.33273937  0.95689520  0.91644810  1
  P  P8  1  0.33185489  0.37561332  0.41721295  1
  O  O0  1  0.20170245  0.02851066  0.30442229  1
  O  O1  1  0.83680688  0.80985831  0.30383735  1
  O  O2  1  0.98220699  0.17539314  0.30401408  1
  O  O3  1  0.20281173  0.17229275  0.80422068  1
  O  O4  1  0.97333430  0.80459848  0.80681192  1
  O  O5  1  0.83696999  0.02992250  0.80467918  1
  O  O6  1  0.78637933  0.96597712  0.68678154  1
  O  O7  1  0.17815235  0.21809016  0.69399387  1
  O  O8  1  0.04525376  0.82651835  0.69065292  1
  O  O9  1  0.78519497  0.81924586  0.18806613  1
  O  O10  1  0.03417672  0.21317818  0.19331391  1
  O  O11  1  0.17777604  0.96742905  0.19435211  1
  O  O12  1  0.86533723  0.35985095  0.63869924  1
  O  O13  1  0.50170572  0.14393477  0.63979376  1
  O  O14  1  0.64735280  0.50902624  0.63832716  1
  O  O15  1  0.88105361  0.51385587  0.14499226  1
  O  O16  1  0.63223263  0.12009366  0.13974283  1
  O  O17  1  0.48907327  0.36573254  0.13875216  1
  O  O18  1  0.46595869  0.30508897  0.02846010  1
  O  O19  1  0.82909944  0.52257972  0.02891574  1
  O  O20  1  0.68454515  0.15873729  0.02893032  1
  O  O21  1  0.47695330  0.16564909  0.52691495  1
  O  O22  1  0.68914105  0.53115433  0.52860045  1
  O  O23  1  0.83992051  0.31095638  0.52924991  1
  O  O24  1  0.55057747  0.70665142  0.97947045  1
  O  O25  1  0.15943772  0.45187698  0.97572149  1
  O  O26  1  0.29489452  0.84767702  0.97227704  1
  O  O27  1  0.55603389  0.84285499  0.47870077  1
  O  O28  1  0.29441446  0.44977786  0.47306221  1
  O  O29  1  0.16248379  0.70565404  0.47378707  1
  O  O30  1  0.11349868  0.62392651  0.35436478  1
  O  O31  1  0.50432204  0.87976853  0.36012117  1
  O  O32  1  0.37206503  0.48820286  0.36195830  1
  O  O33  1  0.13584371  0.50141528  0.85983715  1
  O  O34  1  0.36298015  0.86882974  0.86224693  1
  O  O35  1  0.49740851  0.64028240  0.86170273  1
  O  O36  1  0.02581654  0.84018842  0.40690326  1
  O  O37  1  0.81973949  0.98607431  0.40704877  1
  O  O38  1  0.17295036  0.19215975  0.40778987  1
  O  O39  1  0.02490585  0.18431036  0.90693854  1
  O  O40  1  0.17458583  0.98146175  0.90645771  1
  O  O41  1  0.81499403  0.83329916  0.90850555  1
  O  O42  1  0.96016949  0.16363130  0.58771777  1
  O  O43  1  0.18426911  0.03280840  0.58537263  1
  O  O44  1  0.82455380  0.80586575  0.58627623  1
  O  O45  1  0.96543700  0.81282851  0.08547622  1
  O  O46  1  0.83317617  0.03123346  0.08587667  1
  O  O47  1  0.19423467  0.16841964  0.08752387  1
  O  O48  1  0.69029147  0.17199734  0.74227688  1
  O  O49  1  0.47087436  0.30895431  0.74195522  1
  O  O50  1  0.82508686  0.51909325  0.74213114  1
  O  O51  1  0.70070795  0.52008763  0.24767209  1
  O  O52  1  0.83358450  0.30258678  0.24725510  1
  O  O53  1  0.47292537  0.16486145  0.24562591  1
  O  O54  1  0.63632752  0.49015243  0.92453375  1
  O  O55  1  0.84992986  0.35141336  0.92501976  1
  O  O56  1  0.49789124  0.13812094  0.92386272  1
  O  O57  1  0.64807169  0.15119183  0.42649856  1
  O  O58  1  0.49515413  0.35557367  0.42574958  1
  O  O59  1  0.84808382  0.50032511  0.42620591  1
  O  O60  1  0.36859990  0.50178501  0.07806996  1
  O  O61  1  0.15545378  0.64848644  0.07927744  1
  O  O62  1  0.50874138  0.85790136  0.07767430  1
  O  O63  1  0.36983503  0.85687071  0.58151778  1
  O  O64  1  0.49778138  0.63396040  0.57998446  1
  O  O65  1  0.13758428  0.49651279  0.57930834  1
  O  O66  1  0.29862216  0.83154188  0.25514543  1
  O  O67  1  0.51087126  0.68507702  0.25434118  1
  O  O68  1  0.15841009  0.47575544  0.25538371  1
  O  O69  1  0.31266615  0.47283079  0.75919524  1
  O  O70  1  0.16870749  0.68382043  0.75943162  1
  O  O71  1  0.51912393  0.82977235  0.75914470  1
loop_
_geom_bond_atom_site_label_1
_geom_bond_atom_site_label_2
_geom_bond_distance
_geom_bond_site_symmetry_2
Na0 O51 2.317875 1_555
Na0 O66 2.346659 1_655
Na0 O68 2.432989 1_655
Na0 O52 2.535463 1_555
Na0 O30 2.591964 1_655
Na0 O15 2.624141 1_555
Na0 O1 2.864688 1_555
Na0 O11 2.868923 1_655
Na1 O63 2.299525 1_555
Na1 O42 2.316347 1_565
Na1 O44 2.441517 1_555
Na1 O64 2.536735 1_555
Na1 O6 2.578023 1_555
Na1 O27 2.605765 1_555
Na1 O13 2.916895 1_565
Na1 O23 2.934598 1_565
Na2 O45 2.314842 1_555
Na2 O60 2.342485 1_555
Na2 O62 2.430994 1_555
Na2 O46 2.538699 1_565
Na2 O24 2.586648 1_554
Na2 O9 2.615767 1_555
Na2 O17 2.867163 1_555
Na2 O19 2.873098 1_555
Na3 O43 2.392676 1_565
Na3 O44 2.572328 1_455
Na3 O36 2.583694 1_555
Na3 O42 2.628628 1_465
Na3 O38 2.645677 1_565
Na3 O37 2.698838 1_455
Na4 O45 2.521899 1_446
Na4 O47 2.538561 1_556
Na4 O39 2.575258 1_555
Na4 O46 2.577328 1_456
Na4 O41 2.639103 1_445
Na4 O40 2.643166 1_545
Na5 O50 2.570014 1_555
Na5 O48 2.578795 1_555
Na5 O54 2.579352 1_555
Na5 O55 2.598852 1_555
Na5 O56 2.636405 1_555
Na5 O49 2.662597 1_555
Na6 O51 2.498956 1_555
Na6 O53 2.534962 1_555
Na6 O52 2.555850 1_555
Na6 O57 2.604146 1_555
Na6 O58 2.642475 1_555
Na6 O59 2.658638 1_555
Na7 O61 2.498117 1_555
Na7 O67 2.503022 1_555
Na7 O66 2.588942 1_555
Na7 O68 2.590653 1_555
Na7 O60 2.591482 1_555
Na7 O62 2.597864 1_555
Na8 O63 2.489833 1_555
Na8 O65 2.553287 1_555
Na8 O70 2.556591 1_555
Na8 O64 2.601622 1_555
Na8 O71 2.642627 1_555
Na8 O69 2.665085 1_555
O0 P0 1.543347 1_555
O0 Ta0 2.055465 1_445
O1 Si0 1.662787 1_555
O1 Ta0 1.920080 1_555
O2 P1 1.539692 1_655
O2 Ta0 2.038083 1_545
O3 P2 1.534163 1_555
O3 Ta1 2.087111 1_445
O4 Si1 1.630672 1_655
O4 Ta1 1.931953 1_555
O5 Si2 1.636733 1_545
O5 Ta1 1.918185 1_545
O6 Si2 1.623492 1_555
O6 Sn0 2.025620 1_655
O7 P2 1.532462 1_555
O7 Sn0 2.073294 1_545
O8 Si1 1.610088 1_555
O8 Sn0 1.975485 1_555
O9 Si0 1.634267 1_555
O9 Sn1 2.015272 1_665
O10 P1 1.542202 1_555
O10 Sn1 2.044452 1_555
O11 P0 1.551158 1_565
O11 Sn1 2.061280 1_565
O12 P3 1.557660 1_555
O12 Ta2 2.013582 1_555
O13 Si3 1.653627 1_555
O13 Ta2 1.934983 1_555
O14 P4 1.545968 1_555
O14 Ta2 2.040171 1_555
O15 Si4 1.632744 1_555
O15 Sn2 2.013830 1_555
O16 P5 1.540015 1_555
O16 Sn2 2.045920 1_555
O17 P6 1.550303 1_555
O17 Sn2 2.060397 1_555
O18 P6 1.550667 1_555
O18 Ta3 2.055083 1_554
O19 Si4 1.671339 1_555
O19 Ta3 1.919204 1_554
O20 P5 1.546972 1_555
O20 Ta3 2.031347 1_554
O21 Si3 1.639804 1_555
O21 Ta4 1.929829 1_555
O22 P4 1.539112 1_555
O22 Ta4 2.025887 1_555
O23 P3 1.549900 1_555
O23 Ta4 2.036921 1_555
O24 Si5 1.619522 1_555
O24 Sn3 2.022433 1_556
O25 Si6 1.602702 1_555
O25 Sn3 1.977304 1_556
O26 P7 1.529726 1_555
O26 Sn3 2.062051 1_556
O27 Si7 1.628867 1_555
O27 Sn4 2.033140 1_555
O28 P8 1.537366 1_555
O28 Sn4 2.079287 1_555
O29 Si8 1.613239 1_555
O29 Sn4 1.980501 1_555
O30 Si8 1.629682 1_555
O30 Sn5 2.028168 1_555
O31 Si7 1.606914 1_555
O31 Sn5 1.986334 1_555
O32 P8 1.532719 1_555
O32 Sn5 2.061462 1_555
O33 Si6 1.629937 1_555
O33 Ta5 1.942762 1_555
O34 P7 1.548879 1_555
O34 Ta5 2.019170 1_555
O35 Si5 1.623220 1_555
O35 Ta5 1.951330 1_555
O36 Si8 1.654695 1_555
O36 Ta0 1.920333 1_455
O37 Si7 1.651814 1_555
O37 Ta0 1.919295 1_555
O38 P8 1.544726 1_555
O38 Ta0 2.066163 1_445
O39 Si6 1.629456 1_555
O39 Ta1 1.960457 1_445
O40 P7 1.541828 1_555
O40 Ta1 2.071906 1_455
O41 Si5 1.643494 1_555
O41 Ta1 1.938212 1_555
O42 P3 1.549208 1_555
O42 Sn0 2.192247 1_645
O43 Si3 1.620256 1_555
O43 Sn0 2.025402 1_545
O44 P4 1.552322 1_555
O44 Sn0 2.164203 1_655
O45 Si4 1.650923 1_555
O45 Sn1 2.065376 1_665
O46 P5 1.557440 1_555
O46 Sn1 2.140642 1_655
O47 P6 1.541659 1_555
O47 Sn1 2.095935 1_555
O48 Si2 1.650692 1_545
O48 Ta2 1.939760 1_555
O49 P2 1.560598 1_555
O49 Ta2 2.027925 1_555
O50 Si1 1.642987 1_655
O50 Ta2 1.962573 1_555
O51 Si0 1.651244 1_555
O51 Sn2 2.063053 1_555
O52 P1 1.558503 1_655
O52 Sn2 2.138147 1_555
O53 P0 1.541113 1_555
O53 Sn2 2.093553 1_555
O54 Si5 1.651347 1_555
O54 Ta3 1.942086 1_555
O55 Si6 1.659146 1_655
O55 Ta3 1.931509 1_555
O56 P7 1.550316 1_545
O56 Ta3 2.076445 1_555
O57 Si7 1.645849 1_545
O57 Ta4 1.921217 1_555
O58 P8 1.558608 1_555
O58 Ta4 2.006319 1_555
O59 Si8 1.640030 1_655
O59 Ta4 1.957138 1_555
O60 P6 1.547469 1_555
O60 Sn3 2.153491 1_555
O61 Si4 1.613708 1_455
O61 Sn3 2.010837 1_555
O62 P5 1.546424 1_565
O62 Sn3 2.145301 1_555
O63 Si3 1.644749 1_565
O63 Sn4 2.077555 1_555
O64 P4 1.552668 1_555
O64 Sn4 2.160655 1_555
O65 P3 1.532093 1_455
O65 Sn4 2.124960 1_555
O66 P0 1.550510 1_565
O66 Sn5 2.147523 1_555
O67 Si0 1.615789 1_555
O67 Sn5 2.015836 1_555
O68 P1 1.548500 1_555
O68 Sn5 2.149565 1_555
O69 P2 1.549605 1_555
O69 Ta5 2.028922 1_555
O70 Si1 1.634430 1_555
O70 Ta5 1.957725 1_555
O71 Si2 1.628097 1_555
O71 Ta5 1.980011 1_555
