# generated using pymatgen
data_Sr2MgCrO4
_symmetry_space_group_name_H-M   'P 1'
_cell_length_a   3.88969486
_cell_length_b   3.88969571
_cell_length_c   8.45857455
_cell_angle_alpha   103.29272362
_cell_angle_beta   103.29271933
_cell_angle_gamma   90.00000302
_symmetry_Int_Tables_number   1
_chemical_formula_structural   Sr2MgCrO4
_chemical_formula_sum   'Sr2 Mg1 Cr1 O4'
_cell_volume   121.02140168
_cell_formula_units_Z   1
loop_
 _symmetry_equiv_pos_site_id
 _symmetry_equiv_pos_as_xyz
  1  'x, y, z'
loop_
 _atom_site_type_symbol
 _atom_site_label
 _atom_site_symmetry_multiplicity
 _atom_site_fract_x
 _atom_site_fract_y
 _atom_site_fract_z
 _atom_site_occupancy
  Sr  Sr0  1  0.60730700  0.60730800  0.21461600  1
  Sr  Sr1  1  0.39269200  0.39269200  0.78538400  1
  Mg  Mg0  1  0.25000000  0.75000000  0.50000000  1
  Cr  Cr0  1  0.00000000  0.00000000  0.00000000  1
  O  O0  1  0.80842000  0.80842000  0.61684200  1
  O  O1  1  0.19157900  0.19157800  0.38315800  1
  O  O2  1  0.00625300  0.50625500  0.01250900  1
  O  O3  1  0.49374700  0.99374600  0.98749300  1
loop_
_geom_bond_atom_site_label_1
_geom_bond_atom_site_label_2
_geom_bond_distance
_geom_bond_site_symmetry_2
Mg0 O0 2.157756 1_555
Mg0 O1 2.157756 1_565
Mg0 O0 2.157763 1_455
Mg0 O1 2.157763 1_555
Cr0 O3 1.947417 1_444
Cr0 O2 1.947418 1_545
Cr0 O3 1.947421 1_544
Cr0 O2 1.947422 1_555
O0 Sr1 3.063062 1_555
O0 Sr1 3.063067 1_565
O0 Sr1 3.063067 1_655
O0 Sr1 3.063072 1_665
O1 Sr0 3.063062 1_545
O1 Sr0 3.063067 1_555
O1 Sr0 3.063067 1_445
O1 Sr0 3.063072 1_455
O2 Sr0 2.529019 1_455
O2 Sr0 2.529022 1_555
O2 Sr1 2.661391 1_454
O2 Sr1 2.661399 1_554
O3 Sr1 2.529030 1_555
O3 Sr1 2.529033 1_565
O3 Sr0 2.661383 1_556
O3 Sr0 2.661386 1_566
