# generated using pymatgen
data_Sr4MgNi2(ClO3)2
_symmetry_space_group_name_H-M   'P 1'
_cell_length_a   4.54795944
_cell_length_b   3.74745862
_cell_length_c   16.42730812
_cell_angle_alpha   90.00000000
_cell_angle_beta   90.00000000
_cell_angle_gamma   90.00000000
_symmetry_Int_Tables_number   1
_chemical_formula_structural   Sr4MgNi2(ClO3)2
_chemical_formula_sum   'Sr4 Mg1 Ni2 Cl2 O6'
_cell_volume   279.97537304
_cell_formula_units_Z   1
loop_
 _symmetry_equiv_pos_site_id
 _symmetry_equiv_pos_as_xyz
  1  'x, y, z'
loop_
 _atom_site_type_symbol
 _atom_site_label
 _atom_site_symmetry_multiplicity
 _atom_site_fract_x
 _atom_site_fract_y
 _atom_site_fract_z
 _atom_site_occupancy
  Sr  Sr0  1  0.25000000  0.25000000  0.90647217  1
  Sr  Sr1  1  0.75000000  0.75000000  0.06431103  1
  Sr  Sr2  1  0.25000000  0.25000000  0.70588747  1
  Sr  Sr3  1  0.75000000  0.75000000  0.27260466  1
  Mg  Mg0  1  0.25000000  0.75000000  0.42248743  1
  Ni  Ni0  1  0.75000000  0.75000000  0.80589972  1
  Ni  Ni1  1  0.25000000  0.25000000  0.18095336  1
  Cl  Cl0  1  0.75000000  0.75000000  0.44525064  1
  Cl  Cl1  1  0.25000000  0.25000000  0.52510348  1
  O  O0  1  0.25000000  0.75000000  0.79946348  1
  O  O1  1  0.75000000  0.25000000  0.76055115  1
  O  O2  1  0.75000000  0.25000000  0.18192002  1
  O  O3  1  0.25000000  0.75000000  0.30039662  1
  O  O4  1  0.75000000  0.75000000  0.92738362  1
  O  O5  1  0.25000000  0.25000000  0.06738618  1
loop_
_geom_bond_atom_site_label_1
_geom_bond_atom_site_label_2
_geom_bond_distance
_geom_bond_site_symmetry_2
Mg0 O3 2.005623 1_555
Ni0 O4 1.995653 1_555
Ni0 O1 2.016388 1_565
Ni0 O1 2.016388 1_555
Ni0 O0 2.276436 1_555
Ni0 O0 2.276436 1_655
Ni1 O5 1.865603 1_555
Ni1 O2 2.274035 1_555
Ni1 O2 2.274035 1_455
Cl0 Mg0 2.304520 1_555
Cl0 Mg0 2.304520 1_655
Cl0 Sr3 2.836109 1_555
Cl1 Mg0 2.520410 1_545
Cl1 Mg0 2.520410 1_555
Cl1 Sr2 2.969794 1_555
O0 Sr2 2.423603 1_565
O0 Sr2 2.423603 1_555
O0 Sr0 2.569231 1_565
O0 Sr0 2.569231 1_555
O1 Sr2 2.444861 1_655
O1 Sr2 2.444861 1_555
O2 Sr3 2.393759 1_555
O2 Sr3 2.393759 1_545
O2 Sr1 2.691372 1_555
O2 Sr1 2.691372 1_545
O3 Sr3 2.319357 1_555
O3 Sr3 2.319357 1_455
O4 Sr1 2.249349 1_556
O4 Sr0 2.966454 1_555
O4 Sr0 2.966454 1_655
O4 Sr0 2.966454 1_665
O4 Sr0 2.966454 1_565
O5 Sr0 2.643384 1_554
O5 Sr1 2.946930 1_545
O5 Sr1 2.946930 1_555
O5 Sr1 2.946930 1_455
O5 Sr1 2.946930 1_445
