# generated using pymatgen
data_Li6Ti2O7
_symmetry_space_group_name_H-M   'P 1'
_cell_length_a   5.69691652
_cell_length_b   5.69691652
_cell_length_c   5.05578378
_cell_angle_alpha   72.33358383
_cell_angle_beta   72.33358383
_cell_angle_gamma   60.95035691
_symmetry_Int_Tables_number   1
_chemical_formula_structural   Li6Ti2O7
_chemical_formula_sum   'Li6 Ti2 O7'
_cell_volume   134.25593802
_cell_formula_units_Z   1
loop_
 _symmetry_equiv_pos_site_id
 _symmetry_equiv_pos_as_xyz
  1  'x, y, z'
loop_
 _atom_site_type_symbol
 _atom_site_label
 _atom_site_symmetry_multiplicity
 _atom_site_fract_x
 _atom_site_fract_y
 _atom_site_fract_z
 _atom_site_occupancy
  Li  Li0  1  0.07924697  0.65051110  0.27412916  1
  Li  Li1  1  0.63087582  0.09902823  0.27337879  1
  Li  Li2  1  0.36307718  0.37827164  0.68453200  1
  Li  Li3  1  0.62172836  0.63692282  0.31546800  1
  Li  Li4  1  0.90097177  0.36912418  0.72662121  1
  Li  Li5  1  0.34948890  0.92075303  0.72587084  1
  Ti  Ti0  1  0.85580077  0.87509560  0.76223922  1
  Ti  Ti1  1  0.12490440  0.14419923  0.23776078  1
  O  O0  1  0.99038919  0.00961081  -0.00000000  1
  O  O1  1  0.21976593  0.78023407  0.50000000  1
  O  O2  1  0.24422289  0.26460591  0.45118844  1
  O  O3  1  0.48959035  0.01144956  0.99928227  1
  O  O4  1  0.98855044  0.51040965  0.00071773  1
  O  O5  1  0.73539409  0.75577711  0.54881156  1
  O  O6  1  0.76046395  0.23953605  0.50000000  1
loop_
_geom_bond_atom_site_label_1
_geom_bond_atom_site_label_2
_geom_bond_distance
_geom_bond_site_symmetry_2
Li0 O2 1.956399 1_555
Li0 O5 1.959340 1_455
Li0 O0 2.015306 1_465
Li0 O1 2.032892 1_555
Li0 O4 2.078079 1_455
Li1 O5 1.958905 1_545
Li1 O2 1.960850 1_555
Li1 O0 2.015089 1_555
Li1 O6 2.035293 1_555
Li1 O3 2.074553 1_554
Li2 O2 1.908888 1_555
Li2 O6 2.012014 1_555
Li2 O1 2.032440 1_555
Li2 O3 2.152639 1_555
Li2 O4 2.185167 1_456
Li3 O5 1.908888 1_555
Li3 O6 2.012014 1_555
Li3 O1 2.032440 1_555
Li3 O4 2.152639 1_555
Li3 O3 2.185167 1_564
Li4 O2 1.958905 1_655
Li4 O5 1.960850 1_555
Li4 O0 2.015089 1_556
Li4 O6 2.035293 1_555
Li4 O4 2.074553 1_556
Li5 O5 1.956399 1_555
Li5 O2 1.959340 1_565
Li5 O0 2.015306 1_466
Li5 O1 2.032892 1_555
Li5 O3 2.078079 1_565
O0 Ti1 2.075867 1_655
O0 Ti0 2.075867 1_544
O1 Ti1 2.006816 1_565
O1 Ti0 2.006816 1_455
O2 Ti1 1.855843 1_555
O3 Ti1 1.961941 1_556
O3 Ti0 1.966180 1_545
O4 Ti0 1.961941 1_554
O4 Ti1 1.966180 1_655
O5 Ti0 1.855843 1_555
O6 Ti1 2.008632 1_655
O6 Ti0 2.008632 1_545
