# generated using pymatgen
data_Tb2MgTi2S2O5
_symmetry_space_group_name_H-M   'P 1'
_cell_length_a   3.80557392
_cell_length_b   3.80557412
_cell_length_c   14.17184606
_cell_angle_alpha   90.22897716
_cell_angle_beta   90.22897767
_cell_angle_gamma   90.03228350
_symmetry_Int_Tables_number   1
_chemical_formula_structural   Tb2MgTi2S2O5
_chemical_formula_sum   'Tb2 Mg1 Ti2 S2 O5'
_cell_volume   205.23894052
_cell_formula_units_Z   1
loop_
 _symmetry_equiv_pos_site_id
 _symmetry_equiv_pos_as_xyz
  1  'x, y, z'
loop_
 _atom_site_type_symbol
 _atom_site_label
 _atom_site_symmetry_multiplicity
 _atom_site_fract_x
 _atom_site_fract_y
 _atom_site_fract_z
 _atom_site_occupancy
  Tb  Tb0  1  0.89712606  0.89712606  0.71771660  1
  Tb  Tb1  1  0.40122925  0.40122925  0.43873285  1
  Mg  Mg0  1  0.91027575  0.91027575  0.20969237  1
  Ti  Ti0  1  0.40033522  0.40033522  0.85696743  1
  Ti  Ti1  1  0.40894048  0.40894048  0.11367781  1
  S  S0  1  0.39673620  0.39673620  0.62275001  1
  S  S1  1  0.90097934  0.90097934  0.39133196  1
  O  O0  1  0.39849911  0.89963729  0.80813131  1
  O  O1  1  0.89963729  0.39849911  0.80813131  1
  O  O2  1  0.40949152  0.90957880  0.16265038  1
  O  O3  1  0.90957880  0.40949152  0.16265038  1
  O  O4  1  0.40645698  0.40645698  0.98534559  1
loop_
_geom_bond_atom_site_label_1
_geom_bond_atom_site_label_2
_geom_bond_distance
_geom_bond_site_symmetry_2
Mg0 O2 2.015893 1_655
Mg0 O3 2.015893 1_565
Mg0 O2 2.016494 1_555
Mg0 O3 2.016494 1_555
Mg0 S1 2.574937 1_555
S0 Tb1 2.608112 1_555
S0 Tb0 3.003124 1_555
S0 Tb0 3.009413 1_545
S0 Tb0 3.009413 1_455
S0 Tb0 3.012982 1_445
S1 Tb1 2.770410 1_665
S1 Tb1 2.774262 1_655
S1 Tb1 2.774262 1_565
S1 Tb1 2.775170 1_555
O0 Ti0 2.024640 1_565
O0 Ti0 2.024854 1_555
O0 Tb0 2.293911 1_555
O0 Tb0 2.294076 1_455
O1 Ti0 2.024640 1_655
O1 Ti0 2.024854 1_555
O1 Tb0 2.293911 1_555
O1 Tb0 2.294076 1_545
O2 Ti1 2.025080 1_555
O2 Ti1 2.025729 1_565
O3 Ti1 2.025080 1_555
O3 Ti1 2.025729 1_655
O4 Ti1 1.818678 1_556
O4 Ti0 1.819467 1_555
