# generated using pymatgen
data_U3TiSb5
_symmetry_space_group_name_H-M   'P 1'
_cell_length_a   9.25770774
_cell_length_b   9.25769007
_cell_length_c   6.20784859
_cell_angle_alpha   90.00000000
_cell_angle_beta   90.00000000
_cell_angle_gamma   119.99993845
_symmetry_Int_Tables_number   1
_chemical_formula_structural   U3TiSb5
_chemical_formula_sum   'U6 Ti2 Sb10'
_cell_volume   460.76355524
_cell_formula_units_Z   2
loop_
 _symmetry_equiv_pos_site_id
 _symmetry_equiv_pos_as_xyz
  1  'x, y, z'
loop_
 _atom_site_type_symbol
 _atom_site_label
 _atom_site_symmetry_multiplicity
 _atom_site_fract_x
 _atom_site_fract_y
 _atom_site_fract_z
 _atom_site_occupancy
  U  U0  1  0.38699145  -0.00000217  0.75000000  1
  U  U1  1  0.38699145  0.38699361  0.25000000  1
  U  U2  1  -0.00000000  0.61299951  0.25000000  1
  U  U3  1  0.00000000  0.38700049  0.75000000  1
  U  U4  1  0.61300855  0.61300639  0.75000000  1
  U  U5  1  0.61300855  0.00000217  0.25000000  1
  Ti  Ti0  1  0.00000000  0.00000000  -0.00000000  1
  Ti  Ti1  1  0.00000000  0.00000000  0.50000000  1
  Sb  Sb0  1  0.66666682  0.33333291  0.50000000  1
  Sb  Sb1  1  0.33333318  0.66666709  0.00000000  1
  Sb  Sb2  1  0.74123371  0.00001272  0.75000000  1
  Sb  Sb3  1  0.74123371  0.74121999  0.25000000  1
  Sb  Sb4  1  0.33333318  0.66666709  0.50000000  1
  Sb  Sb5  1  0.66666682  0.33333291  0.00000000  1
  Sb  Sb6  1  0.25876629  0.99998728  0.25000000  1
  Sb  Sb7  1  0.25876629  0.25878001  0.75000000  1
  Sb  Sb8  1  -0.00000000  0.74123599  0.75000000  1
  Sb  Sb9  1  0.00000000  0.25876401  0.25000000  1
loop_
_geom_bond_atom_site_label_1
_geom_bond_atom_site_label_2
_geom_bond_distance
_geom_bond_site_symmetry_2
Sb0 Sb5 3.103924 1_555
Sb0 Sb5 3.103924 1_556
Sb0 U3 3.262672 1_655
Sb0 U5 3.262675 1_555
Sb0 U2 3.262675 1_655
Sb0 U4 3.262683 1_555
Sb0 U0 3.262709 1_555
Sb0 U1 3.262714 1_555
Sb1 Sb4 3.103924 1_555
Sb1 Sb4 3.103924 1_554
Sb1 U2 3.262672 1_555
Sb1 U0 3.262675 1_564
Sb1 U3 3.262675 1_554
Sb1 U1 3.262683 1_555
Sb1 U5 3.262709 1_565
Sb1 U4 3.262714 1_554
Sb2 Ti1 2.854415 1_655
Sb2 Ti0 2.854415 1_656
Sb2 U3 3.160934 1_655
Sb2 U4 3.161087 1_545
Sb2 U0 3.279402 1_555
Sb2 U5 3.323156 1_555
Sb2 U5 3.323156 1_556
Sb3 Ti1 2.854419 1_665
Sb3 Ti0 2.854419 1_665
Sb3 U2 3.160927 1_655
Sb3 U5 3.161096 1_565
Sb3 U1 3.279398 1_555
Sb3 U4 3.323155 1_554
Sb3 U4 3.323155 1_555
Sb4 U2 3.262672 1_555
Sb4 U0 3.262675 1_565
Sb4 U3 3.262675 1_555
Sb4 U1 3.262683 1_555
Sb4 U5 3.262709 1_565
Sb4 U4 3.262714 1_555
Sb5 U3 3.262672 1_654
Sb5 U5 3.262675 1_555
Sb5 U2 3.262675 1_655
Sb5 U4 3.262683 1_554
Sb5 U0 3.262709 1_554
Sb5 U1 3.262714 1_555
Sb6 Ti1 2.854415 1_565
Sb6 Ti0 2.854415 1_565
Sb6 U2 3.160934 1_555
Sb6 U1 3.161087 1_565
Sb6 U5 3.279402 1_565
Sb6 U0 3.323156 1_565
Sb6 U0 3.323156 1_564
Sb7 Ti0 2.854419 1_556
Sb7 Ti1 2.854419 1_555
Sb7 U3 3.160927 1_555
Sb7 U0 3.161096 1_555
Sb7 U4 3.279398 1_555
Sb7 U1 3.323155 1_556
Sb7 U1 3.323155 1_555
Sb8 Ti0 2.854344 1_566
Sb8 Ti1 2.854344 1_565
Sb8 U0 3.160956 1_565
Sb8 U4 3.160956 1_455
Sb8 U3 3.279402 1_555
Sb8 U2 3.323210 1_555
Sb8 U2 3.323210 1_556
Sb9 Ti0 2.854344 1_555
Sb9 Ti1 2.854344 1_555
Sb9 U5 3.160956 1_455
Sb9 U1 3.160956 1_555
Sb9 U2 3.279402 1_555
Sb9 U3 3.323210 1_555
Sb9 U3 3.323210 1_554
