# generated using pymatgen
data_BaMgCu3O4
_symmetry_space_group_name_H-M   'P 1'
_cell_length_a   5.78337732
_cell_length_b   5.68065750
_cell_length_c   6.32305684
_cell_angle_alpha   116.69746318
_cell_angle_beta   90.00000000
_cell_angle_gamma   90.00000000
_symmetry_Int_Tables_number   1
_chemical_formula_structural   BaMgCu3O4
_chemical_formula_sum   'Ba1 Mg1 Cu3 O4'
_cell_volume   185.58758834
_cell_formula_units_Z   1
loop_
 _symmetry_equiv_pos_site_id
 _symmetry_equiv_pos_as_xyz
  1  'x, y, z'
loop_
 _atom_site_type_symbol
 _atom_site_label
 _atom_site_symmetry_multiplicity
 _atom_site_fract_x
 _atom_site_fract_y
 _atom_site_fract_z
 _atom_site_occupancy
  Ba  Ba0  1  0.50000000  0.00035612  0.00072043  1
  Mg  Mg0  1  0.00000000  0.99987218  0.99974223  1
  Cu  Cu0  1  0.00000000  0.50000591  1.00003031  1
  Cu  Cu1  1  0.00000000  0.25341844  0.50677732  1
  Cu  Cu2  1  0.00000000  0.74644234  0.49293767  1
  O  O0  1  0.00000000  0.36384575  0.24394634  1
  O  O1  1  0.00000000  0.63570055  0.75595704  1
  O  O2  1  0.00000000  0.12019803  0.75591993  1
  O  O3  1  0.00000000  0.88016168  0.24396973  1
loop_
_geom_bond_atom_site_label_1
_geom_bond_atom_site_label_2
_geom_bond_distance
_geom_bond_site_symmetry_2
Ba0 Mg0 2.891694 1_644
Ba0 Mg0 2.891694 1_544
Mg0 O1 1.946890 1_555
Mg0 O0 1.946930 1_566
Mg0 O3 1.947004 1_556
Mg0 O2 1.947039 1_565
Cu0 O1 2.011187 1_555
Cu0 O2 2.011245 1_555
Cu0 O0 2.012179 1_556
Cu0 O3 2.012376 1_556
Cu1 O3 2.022674 1_545
Cu1 O0 2.022907 1_555
Cu1 O1 2.030736 1_555
Cu1 O2 2.031175 1_555
Cu2 O2 2.024987 1_565
Cu2 O1 2.025266 1_555
Cu2 O0 2.031674 1_555
Cu2 O3 2.032178 1_555
