# generated using pymatgen
data_Rb4Mg(FeO2)4
_symmetry_space_group_name_H-M   'P 1'
_cell_length_a   5.93092728
_cell_length_b   5.91411824
_cell_length_c   8.73422898
_cell_angle_alpha   90.47375659
_cell_angle_beta   89.02496466
_cell_angle_gamma   104.40710293
_symmetry_Int_Tables_number   1
_chemical_formula_structural   Rb4Mg(FeO2)4
_chemical_formula_sum   'Rb4 Mg1 Fe4 O8'
_cell_volume   296.68364436
_cell_formula_units_Z   1
loop_
 _symmetry_equiv_pos_site_id
 _symmetry_equiv_pos_as_xyz
  1  'x, y, z'
loop_
 _atom_site_type_symbol
 _atom_site_label
 _atom_site_symmetry_multiplicity
 _atom_site_fract_x
 _atom_site_fract_y
 _atom_site_fract_z
 _atom_site_occupancy
  Rb  Rb0  1  0.99295471  0.97540505  0.66608179  1
  Rb  Rb1  1  0.46968127  0.57830351  0.06124027  1
  Rb  Rb2  1  0.50366477  0.05797813  0.85754303  1
  Rb  Rb3  1  0.89535899  0.54983019  0.38010492  1
  Mg  Mg0  1  0.27954912  0.26266873  0.36583564  1
  Fe  Fe0  1  0.05107465  0.01314393  0.12317464  1
  Fe  Fe1  1  0.45756307  0.50351177  0.63078343  1
  Fe  Fe2  1  0.55847009  0.95136819  0.37171572  1
  Fe  Fe3  1  0.97895738  0.50701674  0.88637396  1
  O  O0  1  0.97565840  0.69441397  0.06957053  1
  O  O1  1  0.23569419  0.62815172  0.75767860  1
  O  O2  1  0.37294417  0.09951700  0.18755772  1
  O  O3  1  0.44894950  0.17168770  0.53224114  1
  O  O4  1  0.41194183  0.60896510  0.40113007  1
  O  O5  1  0.71400830  0.52433537  0.77710900  1
  O  O6  1  0.92466048  0.07828406  0.32647778  1
  O  O7  1  -0.00029793  0.20048484  0.95694376  1
loop_
_geom_bond_atom_site_label_1
_geom_bond_atom_site_label_2
_geom_bond_distance
_geom_bond_site_symmetry_2
Mg0 O3 1.934692 1_555
Mg0 O2 1.968310 1_555
Mg0 O4 2.025734 1_555
Mg0 O6 2.147983 1_455
Fe0 O0 1.882947 1_445
Fe0 O7 1.907369 1_554
Fe0 O2 1.941111 1_555
Fe0 O6 1.987650 1_455
Fe1 O1 1.980623 1_555
Fe1 O5 1.982981 1_555
Fe1 O3 2.125623 1_555
Fe1 O4 2.146791 1_555
Fe2 O4 2.011765 1_555
Fe2 O3 2.108430 1_565
Fe2 O6 2.144977 1_565
Fe2 O2 2.264710 1_565
Fe3 O1 1.872844 1_655
Fe3 O5 1.877043 1_555
Fe3 O0 1.941480 1_556
Fe3 O7 1.952841 1_655
O0 Rb3 2.847136 1_555
O0 Rb1 2.909206 1_555
O0 Rb1 3.170955 1_655
O1 Rb2 2.783664 1_565
O1 Rb0 2.909987 1_455
O1 Rb1 3.063386 1_556
O2 Rb1 2.964129 1_555
O2 Rb2 2.996133 1_554
O2 Rb1 3.442474 1_545
O3 Rb0 2.894970 1_445
O3 Rb2 2.966798 1_555
O3 Rb3 3.280235 1_555
O4 Rb3 2.975963 1_555
O4 Rb1 2.991753 1_555
O4 Rb3 3.004643 1_455
O5 Rb2 2.819034 1_555
O5 Rb1 2.907759 1_556
O5 Rb0 2.930178 1_555
O6 Rb3 2.871181 1_555
O6 Rb0 3.086398 1_545
O6 Rb3 3.125459 1_545
O7 Rb0 2.854557 1_445
O7 Rb2 2.993357 1_455
O7 Rb1 3.247418 1_556
