# generated using pymatgen
data_MgTi8(NiO3)8
_symmetry_space_group_name_H-M   'P 1'
_cell_length_a   5.57339265
_cell_length_b   11.11087284
_cell_length_c   11.26141886
_cell_angle_alpha   54.05341422
_cell_angle_beta   54.44455936
_cell_angle_gamma   54.44336325
_symmetry_Int_Tables_number   1
_chemical_formula_structural   MgTi8(NiO3)8
_chemical_formula_sum   'Mg1 Ti8 Ni8 O24'
_cell_volume   427.68012103
_cell_formula_units_Z   1
loop_
 _symmetry_equiv_pos_site_id
 _symmetry_equiv_pos_as_xyz
  1  'x, y, z'
loop_
 _atom_site_type_symbol
 _atom_site_label
 _atom_site_symmetry_multiplicity
 _atom_site_fract_x
 _atom_site_fract_y
 _atom_site_fract_z
 _atom_site_occupancy
  Mg  Mg0  1  0.49550900  0.77025600  0.25669700  1
  Ti  Ti0  1  0.35975700  0.16863500  0.17925000  1
  Ti  Ti1  1  0.15684200  0.07319900  0.57390200  1
  Ti  Ti2  1  0.14184100  0.57659200  0.05907800  1
  Ti  Ti3  1  0.12176800  0.58267700  0.57988900  1
  Ti  Ti4  1  0.84133400  0.41818600  0.44062800  1
  Ti  Ti5  1  0.85619300  0.42784700  0.92816200  1
  Ti  Ti6  1  0.83079800  0.94507500  0.42237900  1
  Ti  Ti7  1  0.82068400  0.95037900  0.91696700  1
  Ni  Ni0  1  0.13355400  0.08097900  0.07018900  1
  Ni  Ni1  1  0.33201100  0.67936700  0.15431900  1
  Ni  Ni2  1  0.34708400  0.18214200  0.67587800  1
  Ni  Ni3  1  0.63902200  0.33657800  0.32173700  1
  Ni  Ni4  1  0.31943300  0.68752800  0.67782300  1
  Ni  Ni5  1  0.63783700  0.33425500  0.82403500  1
  Ni  Ni6  1  0.83165400  0.71743000  0.38746200  1
  Ni  Ni7  1  0.62482300  0.83682400  0.82324300  1
  O  O0  1  0.06233900  0.37743000  0.20957500  1
  O  O1  1  0.43790800  0.04675900  0.37079800  1
  O  O2  1  0.71503200  0.22787100  0.03409800  1
  O  O3  1  0.22221900  0.29355200  0.47185200  1
  O  O4  1  0.54589400  0.47663900  0.11143200  1
  O  O5  1  0.04202800  0.39013900  0.72482400  1
  O  O6  1  0.08113800  0.86782600  0.23307800  1
  O  O7  1  0.94667400  0.12547800  0.28406700  1
  O  O8  1  0.44896800  0.03014500  0.87412600  1
  O  O9  1  0.42812300  0.54269600  0.38129600  1
  O  O10  1  0.76387600  0.23084600  0.52316400  1
  O  O11  1  0.73872700  0.72379600  0.03827400  1
  O  O12  1  0.21766400  0.29034900  0.97459600  1
  O  O13  1  0.21268500  0.78483500  0.47589900  1
  O  O14  1  0.55733200  0.48387700  0.61239000  1
  O  O15  1  0.55899500  0.98312200  0.11135900  1
  O  O16  1  0.03968900  0.89504100  0.71657500  1
  O  O17  1  0.93765400  0.12673300  0.77770000  1
  O  O18  1  0.93121100  0.61269200  0.26876600  1
  O  O19  1  0.42101100  0.53299300  0.88039700  1
  O  O20  1  0.71782200  0.73312800  0.57048800  1
  O  O21  1  0.21203800  0.78455900  0.96494200  1
  O  O22  1  0.54834600  0.98856200  0.61379200  1
  O  O23  1  0.93679300  0.61751300  0.78845700  1
loop_
_geom_bond_atom_site_label_1
_geom_bond_atom_site_label_2
_geom_bond_distance
_geom_bond_site_symmetry_2
Mg0 O6 2.010879 1_555
Mg0 O18 2.034796 1_555
Mg0 O15 2.037840 1_555
Mg0 O13 2.061981 1_555
Mg0 O9 2.197479 1_555
Mg0 O11 2.225663 1_555
Ni0 O8 2.019834 1_554
Ni0 O6 2.034710 1_545
Ni0 O2 2.041089 1_455
Ni0 O12 2.128719 1_554
Ni0 O15 2.169743 1_545
Ni0 O7 2.238793 1_455
Ni1 O21 2.045583 1_554
Ni1 O11 2.046634 1_555
Ni1 O4 2.052518 1_555
Ni1 O6 2.111736 1_555
Ni1 O18 2.157597 1_455
Ni1 O9 2.283784 1_555
Ni2 O8 2.022680 1_555
Ni2 O10 2.090413 1_555
Ni2 O5 2.090766 1_555
Ni2 O22 2.102563 1_545
Ni2 O17 2.159396 1_455
Ni2 O3 2.194120 1_555
Ni3 O3 2.063577 1_555
Ni3 O7 2.065508 1_555
Ni3 O4 2.112638 1_555
Ni3 O0 2.115280 1_655
Ni3 O10 2.183135 1_555
Ni3 O9 2.198205 1_555
Ni4 O20 2.028766 1_555
Ni4 O16 2.036313 1_555
Ni4 O19 2.060473 1_555
Ni4 O23 2.099266 1_455
Ni4 O13 2.152340 1_555
Ni4 O14 2.180149 1_555
Ni5 O17 2.073290 1_555
Ni5 O12 2.082451 1_555
Ni5 O14 2.090441 1_555
Ni5 O19 2.095038 1_555
Ni5 O2 2.118412 1_556
Ni5 O5 2.143307 1_655
Ni6 O20 1.858441 1_555
Ni6 O18 1.913539 1_555
Ni6 O6 2.056296 1_655
Ni7 O8 2.060629 1_565
Ni7 O22 2.062098 1_555
Ni7 O21 2.091109 1_555
Ni7 O23 2.124950 1_555
Ni7 O16 2.191961 1_655
Ni7 O11 2.265892 1_556
O0 Ti2 1.956858 1_555
O0 Ti0 2.011385 1_555
O0 Ti4 2.345187 1_455
O1 Ti0 1.911484 1_555
O1 Ti1 1.964292 1_555
O1 Ti6 2.059198 1_545
O2 Ti0 1.874634 1_555
O2 Ti5 2.192819 1_554
O3 Ti4 1.850729 1_455
O3 Ti1 2.166758 1_555
O4 Ti5 1.901731 1_554
O4 Ti2 2.125783 1_555
O5 Ti3 1.897543 1_555
O5 Ti5 2.086927 1_455
O6 Ti6 2.127032 1_455
O7 Ti6 1.879114 1_545
O7 Ti0 2.093471 1_655
O8 Ti7 1.958375 1_545
O9 Ti3 1.989392 1_555
O9 Ti4 2.159398 1_555
O10 Ti4 1.920921 1_555
O10 Ti1 2.002509 1_655
O11 Ti2 1.914754 1_655
O11 Ti7 2.233101 1_554
O12 Ti5 1.836794 1_455
O12 Ti0 2.232814 1_556
O13 Ti6 1.971826 1_455
O13 Ti3 2.053946 1_555
O14 Ti4 1.879585 1_555
O14 Ti3 2.166662 1_555
O15 Ti7 1.912218 1_554
O15 Ti0 2.065694 1_565
O16 Ti1 1.864211 1_565
O16 Ti7 2.124467 1_455
O17 Ti7 1.847351 1_545
O17 Ti1 2.147196 1_655
O18 Ti4 1.971810 1_555
O18 Ti2 2.110837 1_655
O19 Ti2 1.825172 1_556
O19 Ti5 2.240750 1_555
O20 Ti3 1.888554 1_655
O20 Ti6 2.148416 1_555
O21 Ti7 1.992982 1_455
O21 Ti2 2.075883 1_556
O22 Ti6 1.936478 1_555
O22 Ti1 2.026036 1_565
O23 Ti5 1.872016 1_555
O23 Ti3 2.125220 1_655
