# generated using pymatgen
data_Na14Ca6Si5Ge2S7O48
_symmetry_space_group_name_H-M   'P 1'
_cell_length_a   18.75978608
_cell_length_b   9.39808967
_cell_length_c   23.02733237
_cell_angle_alpha   89.96952992
_cell_angle_beta   90.57460169
_cell_angle_gamma   120.19739005
_symmetry_Int_Tables_number   1
_chemical_formula_structural   Na14Ca6Si5Ge2S7O48
_chemical_formula_sum   'Na42 Ca18 Si15 Ge6 S21 O144'
_cell_volume   3508.70374851
_cell_formula_units_Z   3
loop_
 _symmetry_equiv_pos_site_id
 _symmetry_equiv_pos_as_xyz
  1  'x, y, z'
loop_
 _atom_site_type_symbol
 _atom_site_label
 _atom_site_symmetry_multiplicity
 _atom_site_fract_x
 _atom_site_fract_y
 _atom_site_fract_z
 _atom_site_occupancy
  Na  Na0  1  0.81228114  0.00787158  0.24629480  1
  Na  Na1  1  0.68769632  0.35283102  0.24185486  1
  Na  Na2  1  0.50040842  0.64874714  0.24479228  1
  Na  Na3  1  0.30835113  0.61391125  0.74724213  1
  Na  Na4  1  0.00061590  0.37059038  0.74468283  1
  Na  Na5  1  0.17908439  0.00517686  0.74284572  1
  Na  Na6  1  0.14855571  0.32084731  0.57814784  1
  Na  Na7  1  0.66692109  0.36126101  0.58529592  1
  Na  Na8  1  0.01614081  0.70029175  0.57698175  1
  Na  Na9  1  0.51965927  0.68644579  0.59282182  1
  Na  Na10  1  0.32980958  0.98476758  0.58698721  1
  Na  Na11  1  0.83059083  0.96552811  0.59396716  1
  Na  Na12  1  0.16486242  0.97092669  0.08359896  1
  Na  Na13  1  0.65455571  0.98374034  0.07347590  1
  Na  Na14  1  0.32466887  0.68990641  0.09092494  1
  Na  Na15  1  0.83227443  0.67726122  0.08521797  1
  Na  Na16  1  0.02046875  0.35414659  0.09075854  1
  Na  Na17  1  0.51580512  0.32755098  0.07180377  1
  Na  Na18  1  0.49198042  0.66963709  0.91820892  1
  Na  Na19  1  0.97932694  0.66578572  0.91501223  1
  Na  Na20  1  0.36046602  0.05303121  0.92199712  1
  Na  Na21  1  0.84112133  0.03049321  0.91108221  1
  Na  Na22  1  0.16697813  0.29539072  0.91590116  1
  Na  Na23  1  0.65937642  0.28371328  0.92335371  1
  Na  Na24  1  0.47843741  0.29608385  0.42682765  1
  Na  Na25  1  0.99274575  0.31593043  0.42060225  1
  Na  Na26  1  0.15768020  0.03256698  0.42515628  1
  Na  Na27  1  0.66875924  0.04070719  0.41937133  1
  Na  Na28  1  0.33833255  0.65157883  0.41383660  1
  Na  Na29  1  0.86182863  0.66794844  0.42295742  1
  Na  Na30  1  0.00922877  0.99683446  0.50074344  1
  Na  Na31  1  0.50253135  0.00993640  0.50904566  1
  Na  Na32  1  0.00377274  0.99586786  0.00602876  1
  Na  Na33  1  0.50867017  0.02357857  0.99542992  1
  Na  Na34  1  0.33998299  0.33407428  0.82990546  1
  Na  Na35  1  0.82627291  0.32877391  0.82710565  1
  Na  Na36  1  0.31461013  0.32241616  0.33254634  1
  Na  Na37  1  0.84304137  0.34849185  0.33037943  1
  Na  Na38  1  0.16882082  0.67261015  0.16442431  1
  Na  Na39  1  0.66728190  0.66093137  0.16315524  1
  Na  Na40  1  0.15920972  0.67127600  0.66898461  1
  Na  Na41  1  0.66967596  0.66769066  0.66614088  1
  Ca  Ca0  1  0.00314898  0.00045295  0.34857820  1
  Ca  Ca1  1  0.50029423  0.00064782  0.34470230  1
  Ca  Ca2  1  0.99919794  0.99353403  0.84252554  1
  Ca  Ca3  1  0.50299420  0.00445702  0.84869302  1
  Ca  Ca4  1  0.33736872  0.33099768  0.68241246  1
  Ca  Ca5  1  0.83008658  0.33404774  0.68447439  1
  Ca  Ca6  1  0.32636112  0.32425804  0.18330169  1
  Ca  Ca7  1  0.83614567  0.34288835  0.18162977  1
  Ca  Ca8  1  0.33383815  0.31942135  0.99101776  1
  Ca  Ca9  1  0.82682157  0.33639074  0.98880835  1
  Ca  Ca10  1  0.32653934  0.31846577  0.48991539  1
  Ca  Ca11  1  0.83368435  0.34735228  0.49177749  1
  Ca  Ca12  1  0.16782560  0.66845868  0.02010634  1
  Ca  Ca13  1  0.66455254  0.65942720  0.01479348  1
  Ca  Ca14  1  0.16459288  0.66831899  0.51497462  1
  Ca  Ca15  1  0.66877364  0.66929222  0.52125068  1
  Ca  Ca16  1  0.66435062  0.67327396  0.31306995  1
  Ca  Ca17  1  0.16132856  0.65716328  0.81095808  1
  Si  Si0  1  0.64591109  0.99966057  0.24776801  1
  Si  Si1  1  0.14536595  0.28939621  0.74666360  1
  Si  Si2  1  0.00007988  0.69743965  0.75180340  1
  Si  Si3  1  0.48511762  0.32763520  0.58275627  1
  Si  Si4  1  0.17703572  0.02563160  0.58622445  1
  Si  Si5  1  0.67982425  0.03284963  0.58255192  1
  Si  Si6  1  0.84353322  0.65716120  0.58716219  1
  Si  Si7  1  0.98520904  0.64336616  0.08268790  1
  Si  Si8  1  0.34310424  0.03090212  0.08781298  1
  Si  Si9  1  0.18047503  0.32847252  0.08236906  1
  Si  Si10  1  0.67808566  0.33159378  0.08889234  1
  Si  Si11  1  0.51563923  0.36906382  0.91593831  1
  Si  Si12  1  0.66830064  0.96657729  0.91828284  1
  Si  Si13  1  0.16807492  0.37015632  0.41787853  1
  Si  Si14  1  0.01448881  0.66181724  0.41656099  1
  Ge  Ge0  1  0.01482038  0.97869842  0.65225726  1
  Ge  Ge1  1  0.52109131  0.04832164  0.64599952  1
  Ge  Ge2  1  0.02155527  0.99743363  0.14524185  1
  Ge  Ge3  1  0.51019814  0.01872890  0.14689508  1
  Ge  Ge4  1  0.14373487  0.61495104  0.32560576  1
  Ge  Ge5  1  0.64939544  0.67685694  0.82565526  1
  S  S0  1  0.14975640  0.98988696  0.25073027  1
  S  S1  1  0.35039801  0.70379533  0.24881686  1
  S  S2  1  0.84946748  0.70362517  0.25005765  1
  S  S3  1  0.00309941  0.30270304  0.25146158  1
  S  S4  1  0.50114372  0.29741791  0.24888757  1
  S  S5  1  0.64857737  0.30843737  0.75026335  1
  S  S6  1  0.50410634  0.70503601  0.75115479  1
  S  S7  1  0.35256129  0.99717537  0.74921689  1
  S  S8  1  0.84680780  0.99065397  0.75012515  1
  S  S9  1  0.98364961  0.32533360  0.58541881  1
  S  S10  1  0.33724846  0.64259849  0.58459184  1
  S  S11  1  0.48440346  0.64451747  0.08761531  1
  S  S12  1  0.83629965  0.03142286  0.08498486  1
  S  S13  1  0.31551417  0.66393884  0.91585706  1
  S  S14  1  0.81317988  0.66891881  0.91499010  1
  S  S15  1  0.01506032  0.36320367  0.91728802  1
  S  S16  1  0.16637950  0.96667510  0.91610565  1
  S  S17  1  0.31435892  0.96092764  0.41437336  1
  S  S18  1  0.81560302  0.96767624  0.41570108  1
  S  S19  1  0.66534465  0.36705706  0.41514147  1
  S  S20  1  0.51536567  0.66593978  0.41611504  1
  O  O0  1  0.10602923  0.00474258  0.30006607  1
  O  O1  1  0.60722953  0.02370959  0.30637067  1
  O  O2  1  0.39802199  0.78231792  0.30305284  1
  O  O3  1  0.89561365  0.78742705  0.30278991  1
  O  O4  1  0.49036987  0.20520357  0.30282251  1
  O  O5  1  0.99412758  0.20388601  0.30286148  1
  O  O6  1  0.11012066  0.19517869  0.80761536  1
  O  O7  1  0.60524537  0.20689070  0.79997385  1
  O  O8  1  0.49502070  0.78508355  0.80266758  1
  O  O9  1  0.98975675  0.77074345  0.81155938  1
  O  O10  1  0.39931761  0.00946154  0.80217259  1
  O  O11  1  0.89387388  0.00970270  0.80452701  1
  O  O12  1  0.39373878  0.98018809  0.69602005  1
  O  O13  1  0.88871957  0.97386635  0.69863259  1
  O  O14  1  0.07812922  0.17407935  0.69041659  1
  O  O15  1  0.59695953  0.22749989  0.69316293  1
  O  O16  1  0.01250240  0.82233682  0.69505319  1
  O  O17  1  0.51665681  0.80142708  0.69730204  1
  O  O18  1  0.39368763  0.80517727  0.19685096  1
  O  O19  1  0.88959736  0.80186298  0.19697869  1
  O  O20  1  0.01592721  0.23319233  0.19764221  1
  O  O21  1  0.50930955  0.20896120  0.19732644  1
  O  O22  1  0.10102253  0.97224483  0.19371457  1
  O  O23  1  0.57634527  0.97599147  0.19138431  1
  O  O24  1  0.44102730  0.36930862  0.63337013  1
  O  O25  1  0.94370593  0.34801192  0.63635119  1
  O  O26  1  0.23534747  0.10848471  0.64385640  1
  O  O27  1  0.74386684  0.12402806  0.63350872  1
  O  O28  1  0.32624324  0.54158942  0.63632296  1
  O  O29  1  0.82044392  0.51707220  0.63399119  1
  O  O30  1  0.44563040  0.54435666  0.13934468  1
  O  O31  1  0.94165279  0.51398284  0.13450123  1
  O  O32  1  0.32428989  0.12570861  0.13698008  1
  O  O33  1  0.82565934  0.10898979  0.13724583  1
  O  O34  1  0.24388155  0.36764267  0.13441803  1
  O  O35  1  0.73397156  0.35984426  0.14568976  1
  O  O36  1  0.20783324  0.27526590  0.02276402  1
  O  O37  1  0.70978726  0.28580236  0.02974928  1
  O  O38  1  0.43485932  0.56604254  0.03447014  1
  O  O39  1  0.92932547  0.58748670  0.02335350  1
  O  O40  1  0.37108984  0.13850552  0.02737741  1
  O  O41  1  0.84630438  0.13130374  0.03261223  1
  O  O42  1  0.20966326  0.13366228  0.52701695  1
  O  O43  1  0.70450940  0.13663943  0.52177711  1
  O  O44  1  0.34826646  0.56513209  0.53175800  1
  O  O45  1  0.86755201  0.59950941  0.52662833  1
  O  O46  1  0.43116241  0.27220857  0.52235443  1
  O  O47  1  0.93498616  0.30766430  0.53154817  1
  O  O48  1  0.27679093  0.68659426  0.96758055  1
  O  O49  1  0.77870105  0.68771442  0.96984561  1
  O  O50  1  0.06655658  0.44411172  0.96897731  1
  O  O51  1  0.56795750  0.44239887  0.97456003  1
  O  O52  1  0.15959205  0.87121851  0.96862848  1
  O  O53  1  0.65695726  0.86398172  0.97658920  1
  O  O54  1  0.28129727  0.87161536  0.46945305  1
  O  O55  1  0.77591749  0.86570786  0.46691209  1
  O  O56  1  0.15841364  0.45260342  0.47579689  1
  O  O57  1  0.65823651  0.44940511  0.46725410  1
  O  O58  1  0.06912663  0.69525388  0.47407088  1
  O  O59  1  0.56746307  0.68876274  0.46738561  1
  O  O60  1  0.06505707  0.62612144  0.36003141  1
  O  O61  1  0.55440560  0.64788329  0.36305686  1
  O  O62  1  0.25993982  0.87228243  0.36419657  1
  O  O63  1  0.76544967  0.88818080  0.36246995  1
  O  O64  1  0.18351611  0.50515475  0.36040736  1
  O  O65  1  0.67229285  0.46278158  0.36236740  1
  O  O66  1  0.05505369  0.46011407  0.86450724  1
  O  O67  1  0.56851928  0.50648636  0.86028589  1
  O  O68  1  0.17360436  0.88409718  0.86383815  1
  O  O69  1  0.68428778  0.86411902  0.86175364  1
  O  O70  1  0.26533692  0.64404422  0.86297689  1
  O  O71  1  0.75796434  0.64718951  0.86451239  1
  O  O72  1  0.00408605  0.82143118  0.40821555  1
  O  O73  1  0.50481733  0.81327443  0.41240211  1
  O  O74  1  0.39880428  0.98124911  0.40900765  1
  O  O75  1  0.89889270  0.98653115  0.41085699  1
  O  O76  1  0.08484923  0.19373687  0.40966744  1
  O  O77  1  0.58898838  0.19992687  0.41292201  1
  O  O78  1  0.00402232  0.19434269  0.91376647  1
  O  O79  1  0.50487153  0.18774290  0.90826972  1
  O  O80  1  0.09119488  0.98361973  0.91426402  1
  O  O81  1  0.58482121  0.97590758  0.90998356  1
  O  O82  1  0.39933656  0.81249833  0.91119013  1
  O  O83  1  0.89621919  0.81947534  0.91017477  1
  O  O84  1  0.48897915  0.14874246  0.59512036  1
  O  O85  1  0.98965317  0.17374998  0.58909785  1
  O  O86  1  0.08509633  0.01569302  0.59307669  1
  O  O87  1  0.58462042  0.02115778  0.59460973  1
  O  O88  1  0.41355153  0.80950334  0.58956541  1
  O  O89  1  0.92864457  0.84754268  0.60161194  1
  O  O90  1  0.48968477  0.81056621  0.09110285  1
  O  O91  1  0.98967304  0.82945269  0.09480914  1
  O  O92  1  0.42770280  0.00614191  0.10245093  1
  O  O93  1  0.91203838  0.01616386  0.08936058  1
  O  O94  1  0.08590017  0.15071777  0.09309986  1
  O  O95  1  0.58421151  0.15349515  0.09461702  1
  O  O96  1  0.34034408  0.14034428  0.74745602  1
  O  O97  1  0.84234507  0.14354254  0.74602553  1
  O  O98  1  0.23946537  0.31679702  0.74419710  1
  O  O99  1  0.72804759  0.31798228  0.74559260  1
  O  O100  1  0.42894046  0.54175366  0.74672157  1
  O  O101  1  0.92582112  0.50954556  0.74746324  1
  O  O102  1  0.34946447  0.54347625  0.24596746  1
  O  O103  1  0.83856715  0.53666288  0.24884165  1
  O  O104  1  0.43303290  0.33189526  0.24340949  1
  O  O105  1  0.92794413  0.31521875  0.24734751  1
  O  O106  1  0.23045731  0.14090682  0.24779092  1
  O  O107  1  0.73935250  0.15603198  0.24373412  1
  O  O108  1  0.32348678  0.51443529  0.92087027  1
  O  O109  1  0.82246494  0.52023355  0.91627605  1
  O  O110  1  0.42768525  0.36568622  0.91174020  1
  O  O111  1  0.93268200  0.34990040  0.92156381  1
  O  O112  1  0.24185347  0.13398690  0.91882530  1
  O  O113  1  0.75257691  0.14528258  0.91320451  1
  O  O114  1  0.32393965  0.12897538  0.41637179  1
  O  O115  1  0.82290974  0.13239413  0.42069666  1
  O  O116  1  0.25259243  0.36123801  0.41253183  1
  O  O117  1  0.73974441  0.34873928  0.41814455  1
  O  O118  1  0.43279817  0.51460534  0.42075807  1
  O  O119  1  0.92620264  0.48943039  0.41246254  1
  O  O120  1  0.16040722  0.47637032  0.07890548  1
  O  O121  1  0.66393971  0.48901183  0.08563313  1
  O  O122  1  0.07962607  0.68417358  0.07927731  1
  O  O123  1  0.56884552  0.66959373  0.08344238  1
  O  O124  1  0.26426352  0.84640021  0.08119623  1
  O  O125  1  0.76238410  0.86374823  0.08035876  1
  O  O126  1  0.16618796  0.84118198  0.58499142  1
  O  O127  1  0.65922657  0.84417589  0.57950415  1
  O  O128  1  0.26387705  0.66259594  0.57946425  1
  O  O129  1  0.76528830  0.68573763  0.58137752  1
  O  O130  1  0.06812158  0.47286434  0.58209022  1
  O  O131  1  0.57998191  0.47494578  0.57933681  1
  O  O132  1  0.15484509  0.83792984  0.25167759  1
  O  O133  1  0.64690495  0.82597259  0.24305048  1
  O  O134  1  0.26683244  0.68276490  0.25054960  1
  O  O135  1  0.76533610  0.68799369  0.25145854  1
  O  O136  1  0.08173137  0.47561772  0.25780742  1
  O  O137  1  0.58050222  0.45870254  0.25114816  1
  O  O138  1  0.15058276  0.46874552  0.74231809  1
  O  O139  1  0.65404878  0.47047805  0.75111812  1
  O  O140  1  0.08830277  0.70231784  0.74684484  1
  O  O141  1  0.58180609  0.68918096  0.75758079  1
  O  O142  1  0.27002928  0.84287046  0.75092427  1
  O  O143  1  0.76257874  0.83800527  0.75251309  1
loop_
_geom_bond_atom_site_label_1
_geom_bond_atom_site_label_2
_geom_bond_distance
_geom_bond_site_symmetry_2
Na0 O107 2.393482 1_555
Na0 O105 2.597340 1_555
Na0 O33 2.653663 1_555
Na0 O135 2.676868 1_545
Na0 O133 2.685754 1_545
Na0 O63 2.871182 1_545
Na1 O35 2.375392 1_555
Na1 O103 2.468508 1_555
Na1 O107 2.482699 1_555
Na1 O137 2.664831 1_555
Na1 O135 2.733352 1_555
Na2 O133 2.392915 1_555
Na2 O102 2.486208 1_555
Na2 O104 2.584367 1_555
Na2 O30 2.617797 1_555
Na2 O137 2.857269 1_555
Na2 O61 2.897510 1_555
Na2 O23 2.936702 1_555
Na3 O98 2.416675 1_555
Na3 O138 2.562313 1_555
Na3 O142 2.590704 1_555
Na3 O100 2.668618 1_555
Na3 O28 2.710530 1_555
Na3 O70 2.847406 1_555
Na4 O101 2.350208 1_455
Na4 O138 2.482167 1_555
Na4 O97 2.645425 1_455
Na4 O25 2.669656 1_455
Na4 O140 2.695821 1_555
Na4 O66 2.906166 1_555
Na5 O140 2.477266 1_545
Na5 O26 2.503528 1_555
Na5 O98 2.554056 1_555
Na5 O96 2.627666 1_555
Na5 O142 2.807748 1_545
Na5 O16 2.908762 1_545
Na5 O68 2.992099 1_545
Na6 O86 2.516496 1_555
Na6 O130 2.549057 1_555
Na6 O85 2.594237 1_455
Na6 O56 2.626326 1_555
Na6 O42 2.802342 1_555
Na6 O128 2.829448 1_555
Na6 O14 2.926279 1_555
Na7 O131 2.359804 1_555
Na7 O129 2.656096 1_555
Na7 O29 2.718607 1_555
Na7 O87 2.772685 1_555
Na7 O15 2.806225 1_555
Na7 O57 2.868066 1_555
Na7 O84 2.913977 1_555
Na7 O43 2.935036 1_555
Na8 O126 2.439495 1_555
Na8 O58 2.588584 1_555
Na8 O86 2.594477 1_565
Na8 O89 2.689904 1_455
Na8 O45 2.700386 1_455
Na8 O130 2.761753 1_555
Na8 O16 2.966192 1_555
Na9 O127 2.293028 1_555
Na9 O17 2.650651 1_555
Na9 O87 2.743130 1_565
Na9 O24 2.744627 1_555
Na9 O131 2.756527 1_555
Na9 O88 2.760105 1_555
Na10 O84 2.585756 1_565
Na10 O128 2.637490 1_555
Na10 O126 2.659963 1_555
Na10 O12 2.781254 1_555
Na10 O88 2.790286 1_555
Na10 O46 2.830785 1_565
Na10 O54 2.874774 1_555
Na10 O26 2.885820 1_565
Na11 O129 2.291781 1_555
Na11 O89 2.586364 1_555
Na11 O13 2.620251 1_555
Na11 O85 2.622681 1_565
Na11 O127 2.834957 1_555
Na11 O27 2.857257 1_565
Na12 O122 2.343412 1_555
Na12 O124 2.654700 1_555
Na12 O94 2.760797 1_565
Na12 O52 2.793048 1_554
Na12 O22 2.817789 1_555
Na12 O32 2.850204 1_565
Na12 O91 2.873415 1_455
Na12 O36 2.914105 1_565
Na13 O53 2.510385 1_554
Na13 O123 2.566282 1_555
Na13 O95 2.579775 1_565
Na13 O37 2.684255 1_565
Na13 O90 2.709339 1_555
Na13 O125 2.770707 1_555
Na14 O124 2.273438 1_555
Na14 O92 2.617459 1_565
Na14 O18 2.707055 1_555
Na14 O90 2.708776 1_555
Na14 O120 2.713346 1_555
Na14 O34 2.807583 1_555
Na14 O48 2.965764 1_554
Na15 O91 2.559706 1_555
Na15 O125 2.666780 1_555
Na15 O121 2.735492 1_555
Na15 O93 2.756038 1_565
Na15 O39 2.766696 1_555
Na15 O19 2.798532 1_555
Na15 O49 2.850152 1_554
Na15 O35 2.958361 1_555
Na16 O120 2.294832 1_555
Na16 O20 2.694619 1_555
Na16 O122 2.732023 1_555
Na16 O94 2.743001 1_555
Na16 O31 2.779031 1_455
Na16 O93 2.779797 1_455
Na16 O50 2.938914 1_554
Na17 O121 2.422277 1_555
Na17 O51 2.472969 1_554
Na17 O40 2.582157 1_555
Na17 O95 2.587642 1_555
Na17 O92 2.711617 1_555
Na17 O123 2.858875 1_555
Na18 O110 2.483500 1_555
Na18 O81 2.513412 1_555
Na18 O82 2.681571 1_555
Na18 O108 2.736494 1_555
Na18 O8 2.863038 1_555
Na18 O38 2.875544 1_556
Na18 O67 2.906384 1_555
Na18 O53 2.992408 1_555
Na19 O109 2.546336 1_555
Na19 O9 2.549324 1_555
Na19 O83 2.605974 1_555
Na19 O111 2.643988 1_555
Na19 O39 2.645008 1_556
Na19 O80 2.649815 1_655
Na20 O79 2.368150 1_555
Na20 O40 2.530779 1_556
Na20 O110 2.560807 1_555
Na20 O112 2.689832 1_555
Na20 O82 2.714077 1_545
Na20 O10 2.941776 1_555
Na21 O113 2.393680 1_555
Na21 O111 2.612496 1_555
Na21 O78 2.641310 1_655
Na21 O83 2.657875 1_545
Na21 O11 2.698485 1_555
Na21 O69 2.774621 1_545
Na21 O41 2.939972 1_556
Na22 O80 2.533064 1_545
Na22 O112 2.533751 1_555
Na22 O108 2.604749 1_555
Na22 O36 2.605008 1_556
Na22 O6 2.679741 1_555
Na22 O78 2.706700 1_555
Na23 O81 2.518217 1_545
Na23 O79 2.585658 1_555
Na23 O37 2.613840 1_556
Na23 O113 2.664752 1_555
Na23 O109 2.737962 1_555
Na23 O7 2.971726 1_555
Na23 O51 3.028371 1_555
Na24 O46 2.348213 1_555
Na24 O114 2.516399 1_555
Na24 O74 2.587917 1_545
Na24 O118 2.595440 1_555
Na24 O77 2.668199 1_555
Na25 O119 2.508951 1_555
Na25 O76 2.524425 1_655
Na25 O75 2.691393 1_545
Na25 O115 2.756470 1_555
Na25 O47 2.770868 1_555
Na25 O60 2.887818 1_655
Na25 O5 2.914156 1_555
Na25 O56 2.971698 1_655
Na26 O76 2.521854 1_555
Na26 O42 2.525841 1_555
Na26 O72 2.572678 1_545
Na26 O116 2.696808 1_555
Na26 O114 2.785606 1_555
Na26 O58 2.968839 1_545
Na26 O0 2.999073 1_555
Na27 O43 2.487107 1_555
Na27 O117 2.505451 1_555
Na27 O115 2.568594 1_555
Na27 O77 2.597797 1_555
Na27 O73 2.725938 1_545
Na27 O1 2.807765 1_555
Na28 O116 2.370149 1_555
Na28 O118 2.666841 1_555
Na28 O73 2.700453 1_555
Na28 O74 2.713856 1_555
Na28 O64 2.784265 1_555
Na28 O2 2.818041 1_555
Na28 O44 2.864973 1_555
Na29 O72 2.337342 1_655
Na29 O45 2.487360 1_555
Na29 O119 2.525082 1_555
Na29 O117 2.709420 1_555
Na29 O75 2.726595 1_555
Na29 O3 2.938629 1_555
Na30 O86 2.502740 1_565
Na30 O72 2.665727 1_555
Na30 O76 2.692582 1_565
Na30 O89 2.753594 1_455
Na30 O85 2.769765 1_465
Na30 O75 2.879358 1_455
Na31 O87 2.457796 1_555
Na31 O84 2.457942 1_555
Na31 O88 2.582214 1_545
Na31 O77 2.805847 1_555
Na31 O73 2.908002 1_545
Na31 O74 2.923836 1_545
Na32 O94 2.489441 1_565
Na32 O91 2.507344 1_455
Na32 O93 2.660261 1_465
Na32 O80 2.725394 1_554
Na32 O78 2.824931 1_564
Na32 O83 2.870714 1_454
Na33 O79 2.553069 1_555
Na33 O81 2.610395 1_545
Na33 O95 2.629300 1_556
Na33 O82 2.781418 1_545
Na33 O92 2.869071 1_556
Na33 O90 2.877829 1_546
Na34 O110 2.406864 1_555
Na34 O96 2.633620 1_555
Na34 O100 2.654644 1_555
Na34 O98 2.663664 1_555
Na34 O112 2.776099 1_555
Na34 O108 2.810889 1_555
Na35 O113 2.543419 1_555
Na35 O101 2.571184 1_555
Na35 O99 2.582991 1_555
Na35 O97 2.673953 1_555
Na35 O109 2.755945 1_555
Na35 O111 2.875777 1_555
Na36 O116 2.312971 1_555
Na36 O106 2.538493 1_555
Na36 O114 2.714995 1_555
Na36 O102 2.715456 1_555
Na36 O118 2.861712 1_555
Na36 O104 3.008098 1_555
Na37 O119 2.371873 1_555
Na37 O103 2.608152 1_555
Na37 O105 2.617855 1_555
Na37 O107 2.724492 1_555
Na37 O115 2.798628 1_555
Na37 O117 2.814729 1_555
Na38 O124 2.582675 1_555
Na38 O122 2.602485 1_555
Na38 O132 2.635010 1_555
Na38 O120 2.647471 1_555
Na38 O134 2.659625 1_555
Na38 O136 2.782859 1_555
Na39 O121 2.387480 1_555
Na39 O133 2.559360 1_555
Na39 O123 2.620906 1_555
Na39 O135 2.652909 1_555
Na39 O125 2.663583 1_555
Na39 O137 2.705115 1_555
Na40 O140 2.346880 1_555
Na40 O126 2.469673 1_555
Na40 O138 2.488559 1_555
Na40 O142 2.652330 1_555
Na40 O130 2.670366 1_555
Na40 O128 2.890339 1_555
Na41 O143 2.585131 1_555
Na41 O139 2.609834 1_555
Na41 O129 2.611447 1_555
Na41 O131 2.641641 1_555
Na41 O127 2.661813 1_555
Na41 O141 2.756208 1_555
Ca0 O72 2.178009 1_545
Ca0 O76 2.187787 1_555
Ca0 O0 2.222480 1_555
Ca0 O3 2.255272 1_445
Ca0 O5 2.260966 1_455
Ca0 O75 2.386984 1_445
Ca1 O1 2.109120 1_555
Ca1 O2 2.194553 1_545
Ca1 O4 2.239401 1_555
Ca1 O74 2.357537 1_545
Ca1 O77 2.357916 1_555
Ca1 O73 2.383947 1_545
Ca2 O9 2.133040 1_555
Ca2 O6 2.152353 1_665
Ca2 O11 2.227094 1_565
Ca2 O83 2.390252 1_555
Ca2 O80 2.412583 1_655
Ca2 O78 2.467687 1_665
Ca3 O81 2.188788 1_545
Ca3 O79 2.188831 1_555
Ca3 O7 2.219765 1_555
Ca3 O10 2.232215 1_555
Ca3 O8 2.255023 1_545
Ca3 O82 2.373073 1_545
Ca4 O24 2.127390 1_555
Ca4 O26 2.183133 1_555
Ca4 O98 2.284926 1_555
Ca4 O28 2.344332 1_555
Ca4 O96 2.356481 1_555
Ca4 O100 2.365681 1_555
Ca5 O27 2.154575 1_555
Ca5 O29 2.156259 1_555
Ca5 O101 2.240567 1_555
Ca5 O99 2.330426 1_555
Ca5 O25 2.356741 1_555
Ca5 O97 2.381641 1_555
Ca6 O34 2.103976 1_555
Ca6 O32 2.132963 1_555
Ca6 O106 2.311625 1_555
Ca6 O102 2.367929 1_555
Ca6 O30 2.386827 1_555
Ca6 O104 2.392816 1_555
Ca7 O31 2.126151 1_555
Ca7 O35 2.158613 1_555
Ca7 O107 2.295190 1_555
Ca7 O33 2.340662 1_555
Ca7 O103 2.373243 1_555
Ca7 O105 2.391905 1_555
Ca8 O40 2.293973 1_556
Ca8 O36 2.311242 1_556
Ca8 O38 2.347453 1_556
Ca8 O112 2.387208 1_555
Ca8 O110 2.432035 1_555
Ca8 O108 2.520818 1_555
Ca9 O37 2.219506 1_556
Ca9 O39 2.303419 1_556
Ca9 O41 2.359068 1_556
Ca9 O113 2.373788 1_555
Ca9 O109 2.432647 1_555
Ca9 O111 2.483053 1_555
Ca10 O42 2.181511 1_555
Ca10 O46 2.329758 1_555
Ca10 O44 2.347873 1_555
Ca10 O116 2.402479 1_555
Ca10 O114 2.440485 1_555
Ca10 O118 2.504344 1_555
Ca11 O45 2.267336 1_555
Ca11 O47 2.295026 1_555
Ca11 O43 2.340048 1_555
Ca11 O119 2.420899 1_555
Ca11 O117 2.438023 1_555
Ca11 O115 2.527306 1_555
Ca12 O120 2.204558 1_555
Ca12 O122 2.215249 1_555
Ca12 O124 2.226326 1_555
Ca12 O52 2.313045 1_554
Ca12 O50 2.317152 1_554
Ca12 O48 2.317221 1_554
Ca13 O51 2.133655 1_554
Ca13 O53 2.182016 1_554
Ca13 O49 2.280142 1_554
Ca13 O121 2.281498 1_555
Ca13 O125 2.395283 1_555
Ca13 O123 2.441584 1_555
Ca14 O58 2.140244 1_555
Ca14 O56 2.168126 1_555
Ca14 O126 2.278725 1_555
Ca14 O54 2.319147 1_555
Ca14 O128 2.392174 1_555
Ca14 O130 2.397277 1_555
Ca15 O127 2.199114 1_555
Ca15 O131 2.209365 1_555
Ca15 O129 2.210789 1_555
Ca15 O55 2.308416 1_555
Ca15 O57 2.332913 1_555
Ca15 O59 2.342321 1_555
Ca16 O63 2.253020 1_555
Ca16 O61 2.277763 1_555
Ca16 O133 2.285975 1_555
Ca16 O137 2.311084 1_555
Ca16 O135 2.326165 1_555
Ca16 O65 2.348394 1_555
Ca17 O140 2.186337 1_555
Ca17 O66 2.292945 1_555
Ca17 O138 2.304784 1_555
Ca17 O70 2.334975 1_555
Ca17 O68 2.363780 1_555
Ca17 O142 2.364155 1_555
Ge0 O16 1.751434 1_555
Ge0 O86 1.813983 1_565
Ge0 O14 1.827927 1_565
Ge0 O89 1.857980 1_455
Ge1 O84 1.784059 1_555
Ge1 O87 1.794597 1_555
Ge1 O15 1.897576 1_555
Ge1 O12 2.441324 1_545
Ge2 O91 1.799132 1_455
Ge2 O94 1.803317 1_565
Ge2 O22 1.961057 1_555
Ge3 O23 1.796149 1_545
Ge3 O92 1.800181 1_555
Ge3 O95 1.801124 1_555
Ge3 O21 2.139573 1_555
Ge3 O90 2.204840 1_545
Ge3 O18 2.400782 1_545
Ge4 O60 1.731296 1_555
Ge4 O64 1.739461 1_555
Ge4 O136 1.984591 1_555
Ge5 O69 1.745995 1_555
Ge5 O67 1.755195 1_555
Ge5 O141 2.045997 1_555
Ge5 O71 2.358193 1_555
O0 S0 1.455038 1_545
O1 Si0 1.607378 1_545
O2 S1 1.489268 1_555
O3 S2 1.462277 1_555
O4 S4 1.470410 1_555
O5 S3 1.461950 1_655
O6 Si1 1.618497 1_555
O7 S5 1.455681 1_555
O8 S6 1.461529 1_555
O9 Si2 1.595652 1_655
O10 S7 1.465102 1_545
O11 S8 1.483248 1_545
O12 S7 1.505338 1_555
O13 S8 1.480793 1_555
O14 Si1 1.742613 1_555
O15 S5 1.574715 1_555
O16 Si2 1.693855 1_555
O17 S6 1.484584 1_555
O18 S1 1.496385 1_555
O19 S2 1.493699 1_555
O20 S3 1.478365 1_555
O21 S4 1.502362 1_555
O22 S0 1.552658 1_555
O23 Si0 1.764273 1_555
O24 Si3 1.594245 1_555
O25 S9 1.470043 1_555
O26 Si4 1.636857 1_555
O27 Si5 1.578519 1_555
O28 S10 1.472883 1_555
O29 Si6 1.586818 1_555
O30 S11 1.470205 1_555
O31 Si7 1.608812 1_555
O32 Si8 1.589260 1_555
O33 S12 1.473646 1_555
O34 Si9 1.586919 1_555
O35 Si10 1.604085 1_555
O36 Si9 1.634123 1_555
O37 Si10 1.633405 1_555
O38 S11 1.481227 1_555
O39 Si7 1.630909 1_555
O40 Si8 1.647455 1_555
O41 S12 1.482198 1_555
O42 Si4 1.629234 1_555
O43 Si5 1.637560 1_555
O44 S10 1.486706 1_555
O45 Si6 1.642753 1_555
O46 Si3 1.634805 1_555
O47 S9 1.491586 1_555
O48 S13 1.471352 1_555
O49 S14 1.475381 1_555
O50 S15 1.472118 1_555
O51 Si11 1.598276 1_555
O52 S16 1.473376 1_555
O53 Si12 1.604868 1_555
O54 S17 1.479474 1_555
O55 S18 1.470361 1_555
O56 Si13 1.599758 1_555
O57 S19 1.471317 1_555
O58 Si14 1.597602 1_555
O59 S20 1.470140 1_555
O60 Si14 1.747095 1_555
O61 S20 1.483623 1_555
O62 S17 1.480911 1_555
O63 S18 1.488837 1_555
O64 Si13 1.755330 1_555
O65 S19 1.478917 1_555
O66 S15 1.483011 1_555
O67 Si11 1.740491 1_555
O68 S16 1.476262 1_555
O69 Si12 1.735308 1_555
O70 S13 1.484588 1_555
O71 S14 1.493003 1_555
O72 Si14 1.618222 1_555
O73 S20 1.496307 1_555
O74 S17 1.503630 1_555
O75 S18 1.486670 1_555
O76 Si13 1.616392 1_555
O77 S19 1.502284 1_555
O78 S15 1.495713 1_555
O79 Si11 1.621473 1_555
O80 S16 1.497084 1_555
O81 Si12 1.621377 1_555
O82 S13 1.492733 1_555
O83 S14 1.492334 1_555
O84 Si3 1.741983 1_555
O85 S9 1.486748 1_555
O86 Si4 1.688731 1_555
O87 Si5 1.758259 1_555
O88 S10 1.503585 1_555
O89 Si6 1.725554 1_555
O90 S11 1.515253 1_555
O91 Si7 1.730938 1_555
O92 Si8 1.745620 1_555
O93 S12 1.500532 1_555
O94 Si9 1.739653 1_555
O95 Si10 1.720314 1_555
O96 S7 1.474638 1_545
O97 S8 1.483643 1_545
O98 Si1 1.652413 1_555
O99 S5 1.452896 1_555
O100 S6 1.474497 1_555
O101 Si2 1.609856 1_655
O102 S1 1.499425 1_555
O103 S2 1.477129 1_555
O104 S4 1.471985 1_555
O105 S3 1.474705 1_655
O106 S0 1.466766 1_545
O107 Si0 1.628738 1_545
O108 S13 1.490213 1_555
O109 S14 1.492826 1_555
O110 Si11 1.636142 1_555
O111 S15 1.490724 1_655
O112 S16 1.496602 1_545
O113 Si12 1.632888 1_545
O114 S17 1.497685 1_545
O115 S18 1.488236 1_545
O116 Si13 1.635145 1_555
O117 S19 1.490712 1_555
O118 S20 1.490137 1_555
O119 Si14 1.635394 1_655
O120 Si9 1.614231 1_555
O121 Si10 1.630703 1_555
O122 Si7 1.615540 1_455
O123 S11 1.483803 1_555
O124 Si8 1.622737 1_565
O125 S12 1.488766 1_565
O126 Si4 1.640799 1_565
O127 Si5 1.615151 1_565
O128 S10 1.483499 1_555
O129 Si6 1.623909 1_555
O130 S9 1.493833 1_455
O131 Si3 1.616843 1_555
O132 S0 1.478562 1_555
O133 Si0 1.645452 1_555
O134 S1 1.479124 1_555
O135 S2 1.510425 1_555
O136 S3 1.556485 1_555
O137 S4 1.498370 1_555
O138 Si1 1.641559 1_555
O139 S5 1.474046 1_555
O140 Si2 1.637608 1_555
O141 S6 1.543674 1_555
O142 S7 1.498073 1_555
O143 S8 1.509699 1_555
