# generated using pymatgen
data_Na3GaSiSn(PO6)2
_symmetry_space_group_name_H-M   'P 1'
_cell_length_a   8.90528776
_cell_length_b   8.90528747
_cell_length_c   22.14451104
_cell_angle_alpha   89.87580732
_cell_angle_beta   90.12419268
_cell_angle_gamma   119.96506357
_symmetry_Int_Tables_number   1
_chemical_formula_structural   Na3GaSiSn(PO6)2
_chemical_formula_sum   'Na18 Ga6 Si6 Sn6 P12 O72'
_cell_volume   1521.40223539
_cell_formula_units_Z   6
loop_
 _symmetry_equiv_pos_site_id
 _symmetry_equiv_pos_as_xyz
  1  'x, y, z'
loop_
 _atom_site_type_symbol
 _atom_site_label
 _atom_site_symmetry_multiplicity
 _atom_site_fract_x
 _atom_site_fract_y
 _atom_site_fract_z
 _atom_site_occupancy
  Na  Na0  1  0.00276116  0.99705246  0.49655936  1
  Na  Na1  1  0.00294754  0.99723884  0.99655936  1
  Na  Na2  1  0.66553978  0.32783883  0.83007479  1
  Na  Na3  1  0.67216117  0.33446022  0.33007479  1
  Na  Na4  1  0.34685906  0.67259239  0.16319083  1
  Na  Na5  1  0.32740761  0.65314094  0.66319083  1
  Na  Na6  1  0.36351080  0.36324201  0.24731918  1
  Na  Na7  1  0.99353037  0.62524181  0.24834617  1
  Na  Na8  1  0.63675799  0.63648920  0.74731918  1
  Na  Na9  1  0.37475819  0.00646963  0.74834617  1
  Na  Na10  1  0.03752910  0.70041089  0.58019644  1
  Na  Na11  1  0.65711641  0.96244668  0.58424900  1
  Na  Na12  1  0.29958911  0.96247090  0.08019644  1
  Na  Na13  1  0.03755332  0.34288359  0.08424900  1
  Na  Na14  1  0.97002294  0.67216593  0.91824501  1
  Na  Na15  1  0.69937873  0.02950367  0.91200900  1
  Na  Na16  1  0.97049633  0.30062127  0.41200900  1
  Na  Na17  1  0.32783407  0.02997706  0.41824501  1
  Ga  Ga0  1  0.98982484  0.99114532  0.35132977  1
  Ga  Ga1  1  0.00885468  0.01017516  0.85132977  1
  Ga  Ga2  1  0.67117108  0.32355472  0.68477991  1
  Ga  Ga3  1  0.67644528  0.32882892  0.18477991  1
  Ga  Ga4  1  0.32812859  0.66940659  0.01754549  1
  Ga  Ga5  1  0.33059341  0.67187141  0.51754549  1
  Si  Si0  1  0.99313117  0.28600547  0.25230106  1
  Si  Si1  1  0.71399453  0.00686883  0.75230106  1
  Si  Si2  1  0.37341495  0.03950805  0.58411072  1
  Si  Si3  1  0.96049195  0.62658505  0.08411072  1
  Si  Si4  1  0.32876188  0.96331795  0.91736360  1
  Si  Si5  1  0.03668205  0.67123812  0.41736360  1
  Sn  Sn0  1  0.00560805  0.00675620  0.64918947  1
  Sn  Sn1  1  0.99324380  0.99439195  0.14918947  1
  Sn  Sn2  1  0.66191730  0.33587480  0.98234751  1
  Sn  Sn3  1  0.66412520  0.33808270  0.48234751  1
  Sn  Sn4  1  0.33153010  0.66592181  0.31588949  1
  Sn  Sn5  1  0.33407819  0.66846990  0.81588949  1
  P  P0  1  0.29742692  0.00438507  0.25100528  1
  P  P1  1  0.70647820  0.70658560  0.25145496  1
  P  P2  1  0.29341440  0.29352180  0.75145496  1
  P  P3  1  0.99561493  0.70257308  0.75100528  1
  P  P4  1  0.96115391  0.33676317  0.58343179  1
  P  P5  1  0.66104552  0.62184177  0.58658079  1
  P  P6  1  0.66323683  0.03884609  0.08343179  1
  P  P7  1  0.37815823  0.33895448  0.08658079  1
  P  P8  1  0.62160210  0.66621230  0.91800402  1
  P  P9  1  0.04489436  0.37296327  0.91921091  1
  P  P10  1  0.62703673  0.95510564  0.41921091  1
  P  P11  1  0.33378770  0.37839790  0.41800402  1
  O  O0  1  0.21272097  0.03389285  0.30679952  1
  O  O1  1  0.82759940  0.78957380  0.30537936  1
  O  O2  1  0.97410122  0.17214483  0.31207506  1
  O  O3  1  0.21042620  0.17240060  0.80537936  1
  O  O4  1  0.96610715  0.78727903  0.80679952  1
  O  O5  1  0.82785517  0.02589878  0.81207506  1
  O  O6  1  0.78873971  0.96091763  0.69114020  1
  O  O7  1  0.18501186  0.22022319  0.69320398  1
  O  O8  1  0.03901179  0.81990851  0.69350738  1
  O  O9  1  0.77977681  0.81498814  0.19320398  1
  O  O10  1  0.03908237  0.21126029  0.19114020  1
  O  O11  1  0.18009149  0.96098821  0.19350738  1
  O  O12  1  0.87605681  0.37340131  0.63710148  1
  O  O13  1  0.49690939  0.12785537  0.64259615  1
  O  O14  1  0.64056557  0.51527526  0.64355693  1
  O  O15  1  0.87214463  0.50309061  0.14259615  1
  O  O16  1  0.62659869  0.12394319  0.13710148  1
  O  O17  1  0.48472474  0.35943443  0.14355693  1
  O  O18  1  0.45099934  0.29129296  0.03043730  1
  O  O19  1  0.84893919  0.54868077  0.02164297  1
  O  O20  1  0.70272958  0.15154905  0.02492087  1
  O  O21  1  0.45131923  0.15106081  0.52164297  1
  O  O22  1  0.70870704  0.54900066  0.53043730  1
  O  O23  1  0.84845095  0.29727042  0.52492087  1
  O  O24  1  0.52798443  0.69283736  0.97101867  1
  O  O25  1  0.15147062  0.45469805  0.97654213  1
  O  O26  1  0.29287994  0.83930072  0.97631693  1
  O  O27  1  0.54530195  0.84852938  0.47654213  1
  O  O28  1  0.30716264  0.47201557  0.47101867  1
  O  O29  1  0.16069928  0.70712006  0.47631693  1
  O  O30  1  0.11375669  0.62500006  0.35669984  1
  O  O31  1  0.50840729  0.87652776  0.36306497  1
  O  O32  1  0.36799000  0.48144076  0.35780612  1
  O  O33  1  0.12347224  0.49159271  0.86306497  1
  O  O34  1  0.37499994  0.88624331  0.85669984  1
  O  O35  1  0.51855924  0.63201000  0.85780612  1
  O  O36  1  0.02862645  0.84937134  0.40890166  1
  O  O37  1  0.81071700  0.98246982  0.41270759  1
  O  O38  1  0.16983614  0.19689954  0.41368130  1
  O  O39  1  0.01753018  0.18928300  0.91270759  1
  O  O40  1  0.15062866  0.97137355  0.90890166  1
  O  O41  1  0.80310046  0.83016386  0.91368130  1
  O  O42  1  0.96847903  0.16616940  0.58896374  1
  O  O43  1  0.17431494  0.00786109  0.58797538  1
  O  O44  1  0.82658239  0.80854633  0.58953321  1
  O  O45  1  0.99213891  0.82568506  0.08797538  1
  O  O46  1  0.83383060  0.03152097  0.08896374  1
  O  O47  1  0.19145367  0.17341761  0.08953321  1
  O  O48  1  0.68555936  0.17371128  0.74639020  1
  O  O49  1  0.47728771  0.31713095  0.74524381  1
  O  O50  1  0.82942269  0.52653921  0.74256328  1
  O  O51  1  0.68286905  0.52271229  0.24524381  1
  O  O52  1  0.82628872  0.31444064  0.24639020  1
  O  O53  1  0.47346079  0.17057731  0.24256328  1
  O  O54  1  0.64974005  0.50688862  0.92126278  1
  O  O55  1  0.86066675  0.35705696  0.92195084  1
  O  O56  1  0.51047818  0.15116050  0.92220244  1
  O  O57  1  0.64294304  0.13933325  0.42195084  1
  O  O58  1  0.49311138  0.35025995  0.42126278  1
  O  O59  1  0.84883950  0.48952182  0.42220244  1
  O  O60  1  0.35631188  0.49836492  0.07802763  1
  O  O61  1  0.15374244  0.64353195  0.07904108  1
  O  O62  1  0.50249196  0.85841983  0.07640924  1
  O  O63  1  0.35646805  0.84625756  0.57904108  1
  O  O64  1  0.50163508  0.64368812  0.57802763  1
  O  O65  1  0.14158017  0.49750804  0.57640924  1
  O  O66  1  0.31427017  0.83881501  0.25562937  1
  O  O67  1  0.52284603  0.68607278  0.25696682  1
  O  O68  1  0.17253216  0.48254999  0.25400519  1
  O  O69  1  0.31392722  0.47715397  0.75696682  1
  O  O70  1  0.16118499  0.68572983  0.75562937  1
  O  O71  1  0.51745001  0.82746784  0.75400519  1
loop_
_geom_bond_atom_site_label_1
_geom_bond_atom_site_label_2
_geom_bond_distance
_geom_bond_site_symmetry_2
Na0 O36 2.422041 1_555
Na0 O38 2.470197 1_565
Na0 O37 2.480930 1_455
Na0 O43 2.506358 1_565
Na0 O44 2.624217 1_455
Na0 O42 2.650254 1_465
Na1 O40 2.422041 1_555
Na1 O41 2.470197 1_455
Na1 O39 2.480930 1_565
Na1 O45 2.506358 1_456
Na1 O47 2.624217 1_566
Na1 O46 2.650254 1_466
Na2 O48 2.367859 1_555
Na2 O49 2.485133 1_555
Na2 O56 2.524354 1_555
Na2 O50 2.536561 1_555
Na2 O55 2.600361 1_555
Na2 O54 2.622808 1_555
Na3 O52 2.367859 1_555
Na3 O51 2.485133 1_555
Na3 O59 2.524354 1_555
Na3 O53 2.536561 1_555
Na3 O57 2.600361 1_555
Na3 O58 2.622808 1_555
Na4 O61 2.457767 1_555
Na4 O62 2.461524 1_555
Na4 O60 2.472819 1_555
Na4 O67 2.565535 1_555
Na4 O68 2.587031 1_555
Na4 O66 2.628779 1_555
Na5 O63 2.457767 1_555
Na5 O65 2.461524 1_555
Na5 O64 2.472819 1_555
Na5 O69 2.565535 1_555
Na5 O71 2.587031 1_555
Na5 O70 2.628779 1_555
Na6 O53 2.364939 1_555
Na6 O68 2.418687 1_555
Na6 O51 2.464309 1_555
Na6 O67 2.500087 1_555
Na6 O17 2.548279 1_555
Na6 O32 2.657928 1_555
Na6 O10 2.795018 1_555
Na6 O0 2.863028 1_555
Na7 O52 2.400629 1_555
Na7 O51 2.442988 1_555
Na7 O68 2.488643 1_655
Na7 O66 2.524740 1_655
Na7 O15 2.580926 1_555
Na7 O30 2.625785 1_655
Na7 O1 2.845428 1_555
Na7 O11 2.864502 1_655
Na8 O50 2.364939 1_555
Na8 O71 2.418687 1_555
Na8 O49 2.464309 1_555
Na8 O69 2.500087 1_555
Na8 O14 2.548279 1_555
Na8 O35 2.657928 1_555
Na8 O6 2.795018 1_555
Na8 O4 2.863028 1_555
Na9 O48 2.400629 1_555
Na9 O49 2.442988 1_555
Na9 O71 2.488643 1_545
Na9 O70 2.524740 1_545
Na9 O13 2.580926 1_555
Na9 O34 2.625785 1_545
Na9 O3 2.845428 1_555
Na9 O8 2.864502 1_545
Na10 O43 2.383127 1_565
Na10 O65 2.409162 1_555
Na10 O63 2.463671 1_555
Na10 O44 2.511696 1_455
Na10 O29 2.538350 1_555
Na10 O8 2.725100 1_555
Na10 O22 2.766804 1_455
Na10 O12 2.818678 1_455
Na11 O63 2.341795 1_555
Na11 O42 2.442339 1_565
Na11 O64 2.463453 1_555
Na11 O44 2.496843 1_555
Na11 O27 2.588539 1_555
Na11 O6 2.642125 1_555
Na11 O13 2.826695 1_565
Na11 O23 2.904726 1_565
Na12 O45 2.383127 1_455
Na12 O62 2.409162 1_555
Na12 O61 2.463671 1_555
Na12 O47 2.511696 1_565
Na12 O26 2.538350 1_554
Na12 O11 2.725100 1_555
Na12 O18 2.766803 1_565
Na12 O16 2.818678 1_565
Na13 O61 2.341795 1_555
Na13 O46 2.442339 1_455
Na13 O60 2.463453 1_555
Na13 O47 2.496843 1_555
Na13 O25 2.588539 1_554
Na13 O10 2.642125 1_555
Na13 O15 2.826695 1_455
Na13 O20 2.904726 1_455
Na14 O40 2.333966 1_655
Na14 O55 2.469615 1_555
Na14 O54 2.472392 1_555
Na14 O41 2.507512 1_555
Na14 O19 2.535739 1_556
Na14 O4 2.677126 1_555
Na14 O26 2.802303 1_655
Na14 O33 2.856078 1_655
Na15 O41 2.375566 1_545
Na15 O56 2.424418 1_555
Na15 O39 2.454554 1_655
Na15 O5 2.501066 1_555
Na15 O55 2.536981 1_555
Na15 O20 2.722698 1_556
Na15 O34 2.789668 1_545
Na15 O24 2.906253 1_545
Na16 O38 2.375567 1_655
Na16 O59 2.424418 1_555
Na16 O37 2.454554 1_545
Na16 O2 2.501066 1_555
Na16 O57 2.536981 1_555
Na16 O23 2.722698 1_555
Na16 O30 2.789668 1_655
Na16 O28 2.906253 1_655
Na17 O36 2.333966 1_545
Na17 O57 2.469615 1_555
Na17 O58 2.472392 1_555
Na17 O38 2.507512 1_555
Na17 O21 2.535739 1_555
Na17 O0 2.677126 1_555
Na17 O29 2.802303 1_545
Na17 O31 2.856078 1_545
Ga0 O2 1.895303 1_565
Ga0 O1 1.937966 1_555
Ga0 O36 1.940536 1_655
Ga0 O37 2.069598 1_555
Ga0 O0 2.075905 1_665
Ga0 O38 2.213765 1_665
Ga1 O5 1.895303 1_455
Ga1 O3 1.937966 1_555
Ga1 O40 1.940536 1_545
Ga1 O39 2.069598 1_555
Ga1 O4 2.075905 1_445
Ga1 O41 2.213766 1_445
Ga2 O13 1.901892 1_555
Ga2 O48 1.954631 1_555
Ga2 O12 1.959104 1_555
Ga2 O14 2.068713 1_555
Ga2 O50 2.085278 1_555
Ga2 O49 2.165218 1_555
Ga3 O15 1.901892 1_555
Ga3 O52 1.954631 1_555
Ga3 O16 1.959104 1_555
Ga3 O17 2.068713 1_555
Ga3 O53 2.085278 1_555
Ga3 O51 2.165218 1_555
Ga4 O26 1.920494 1_554
Ga4 O24 1.977050 1_554
Ga4 O25 1.987913 1_554
Ga4 O61 1.992385 1_555
Ga4 O62 2.081653 1_555
Ga4 O60 2.132718 1_555
Ga5 O29 1.920494 1_555
Ga5 O28 1.977050 1_555
Ga5 O27 1.987913 1_555
Ga5 O63 1.992385 1_555
Ga5 O65 2.081653 1_555
Ga5 O64 2.132718 1_555
O0 P0 1.538855 1_555
O1 P1 1.528883 1_555
O2 Si0 1.622477 1_555
O3 P2 1.528883 1_555
O4 P3 1.538855 1_555
O5 Si1 1.622477 1_555
O6 Si1 1.650228 1_565
O6 Sn0 1.994509 1_665
O7 P2 1.546195 1_555
O7 Sn0 2.020792 1_555
O8 P3 1.566957 1_455
O8 Sn0 2.075188 1_565
O9 P1 1.546195 1_555
O9 Sn1 2.020792 1_555
O10 Si0 1.650228 1_455
O10 Sn1 1.994509 1_445
O11 P0 1.566957 1_565
O11 Sn1 2.075188 1_455
O12 P4 1.531607 1_555
O13 Si2 1.624724 1_555
O14 P5 1.532545 1_555
O15 Si3 1.624724 1_555
O16 P6 1.531607 1_555
O17 P7 1.532545 1_555
O18 P7 1.558030 1_555
O18 Sn2 2.020287 1_554
O19 Si3 1.640572 1_555
O19 Sn2 1.992584 1_554
O20 P6 1.566386 1_555
O20 Sn2 2.074391 1_554
O21 Si2 1.640572 1_555
O21 Sn3 1.992584 1_555
O22 P5 1.558030 1_555
O22 Sn3 2.020287 1_555
O23 P4 1.566386 1_555
O23 Sn3 2.074391 1_555
O24 P8 1.527223 1_555
O25 P9 1.533323 1_555
O26 Si4 1.633758 1_555
O27 P10 1.533323 1_555
O28 P11 1.527223 1_555
O29 Si5 1.633758 1_555
O30 Si5 1.653486 1_555
O30 Sn4 2.002680 1_555
O31 P10 1.552795 1_555
O31 Sn4 2.034758 1_555
O32 P11 1.558557 1_555
O32 Sn4 2.047176 1_555
O33 P9 1.552795 1_555
O33 Sn5 2.034758 1_555
O34 Si4 1.653486 1_555
O34 Sn5 2.002679 1_555
O35 P8 1.558557 1_555
O35 Sn5 2.047176 1_555
O36 Si5 1.633716 1_555
O37 P10 1.535711 1_555
O38 P11 1.547897 1_555
O39 P9 1.535711 1_555
O40 Si4 1.633716 1_555
O41 P8 1.547897 1_555
O42 P4 1.557352 1_555
O42 Sn0 2.088563 1_655
O43 Si2 1.652823 1_555
O43 Sn0 2.022075 1_555
O44 P5 1.579070 1_555
O44 Sn0 2.142992 1_665
O45 Si3 1.652823 1_555
O45 Sn1 2.022075 1_555
O46 P6 1.557352 1_555
O46 Sn1 2.088563 1_545
O47 P7 1.579070 1_555
O47 Sn1 2.142992 1_445
O48 Si1 1.632068 1_555
O49 P2 1.549611 1_555
O50 P3 1.537931 1_555
O51 P1 1.549611 1_555
O52 Si0 1.632068 1_555
O53 P0 1.537931 1_555
O54 P8 1.560667 1_555
O54 Sn2 2.077559 1_555
O55 P9 1.575932 1_655
O55 Sn2 2.152358 1_555
O56 Si4 1.650550 1_545
O56 Sn2 2.020928 1_555
O57 P10 1.575932 1_545
O57 Sn3 2.152358 1_555
O58 P11 1.560667 1_555
O58 Sn3 2.077559 1_555
O59 Si5 1.650550 1_655
O59 Sn3 2.020928 1_555
O60 P7 1.537380 1_555
O61 Si3 1.654802 1_455
O62 P6 1.535408 1_565
O63 Si2 1.654802 1_565
O64 P5 1.537380 1_555
O65 P4 1.535408 1_455
O66 P0 1.557943 1_565
O66 Sn4 2.097976 1_555
O67 P1 1.557185 1_555
O67 Sn4 2.083417 1_555
O68 Si0 1.680475 1_455
O68 Sn4 2.059370 1_555
O69 P2 1.557185 1_555
O69 Sn5 2.083417 1_555
O70 P3 1.557943 1_455
O70 Sn5 2.097976 1_555
O71 Si1 1.680475 1_565
O71 Sn5 2.059370 1_555
