# generated using pymatgen
data_MgMo(WS3)2
_symmetry_space_group_name_H-M   'P 1'
_cell_length_a   6.37740400
_cell_length_b   6.37738679
_cell_length_c   73.60392802
_cell_angle_alpha   90.00275877
_cell_angle_beta   90.00000000
_cell_angle_gamma   120.00008927
_symmetry_Int_Tables_number   1
_chemical_formula_structural   MgMo(WS3)2
_chemical_formula_sum   'Mg8 Mo8 W16 S48'
_cell_volume   2592.49495585
_cell_formula_units_Z   8
loop_
 _symmetry_equiv_pos_site_id
 _symmetry_equiv_pos_as_xyz
  1  'x, y, z'
loop_
 _atom_site_type_symbol
 _atom_site_label
 _atom_site_symmetry_multiplicity
 _atom_site_fract_x
 _atom_site_fract_y
 _atom_site_fract_z
 _atom_site_occupancy
  Mg  Mg0_0  1  0.49999550  0.49999100  0.23161750  1
  Mg  Mg0_1  1  0.49999550  0.49999100  0.73161750  1
  Mg  Mg0_2  1  0.49999550  0.99999100  0.23161750  1
  Mg  Mg0_3  1  0.49999550  0.99999100  0.73161750  1
  Mg  Mg0_4  1  0.99999550  0.49999100  0.23161750  1
  Mg  Mg0_5  1  0.99999550  0.49999100  0.73161750  1
  Mg  Mg0_6  1  0.99999550  0.99999100  0.23161750  1
  Mg  Mg0_7  1  0.99999550  0.99999100  0.73161750  1
  Mo  Mo0_0  1  0.16666300  0.33332600  0.05777900  1
  Mo  Mo0_1  1  0.16666300  0.33332600  0.55777900  1
  Mo  Mo0_2  1  0.16666300  0.83332600  0.05777900  1
  Mo  Mo0_3  1  0.16666300  0.83332600  0.55777900  1
  Mo  Mo0_4  1  0.66666300  0.33332600  0.05777900  1
  Mo  Mo0_5  1  0.66666300  0.33332600  0.55777900  1
  Mo  Mo0_6  1  0.66666300  0.83332600  0.05777900  1
  Mo  Mo0_7  1  0.66666300  0.83332600  0.55777900  1
  W  W0_0  1  0.16664600  0.33329150  0.29367000  1
  W  W0_1  1  0.16664600  0.33329150  0.79367000  1
  W  W0_2  1  0.16664600  0.83329150  0.29367000  1
  W  W0_3  1  0.16664600  0.83329150  0.79367000  1
  W  W0_4  1  0.66664600  0.33329150  0.29367000  1
  W  W0_5  1  0.66664600  0.33329150  0.79367000  1
  W  W0_6  1  0.66664600  0.83329150  0.29367000  1
  W  W0_7  1  0.66664600  0.83329150  0.79367000  1
  W  W1_0  1  0.33335150  0.16670350  0.16883500  1
  W  W1_1  1  0.33335150  0.16670350  0.66883500  1
  W  W1_2  1  0.33335150  0.66670350  0.16883500  1
  W  W1_3  1  0.33335150  0.66670350  0.66883500  1
  W  W1_4  1  0.83335150  0.16670350  0.16883500  1
  W  W1_5  1  0.83335150  0.16670350  0.66883500  1
  W  W1_6  1  0.83335150  0.66670350  0.16883500  1
  W  W1_7  1  0.83335150  0.66670350  0.66883500  1
  S  S0_0  1  0.16668400  0.33337000  0.19034000  1
  S  S0_1  1  0.16668400  0.33337000  0.69034000  1
  S  S0_2  1  0.16668400  0.83337000  0.19034000  1
  S  S0_3  1  0.16668400  0.83337000  0.69034000  1
  S  S0_4  1  0.66668400  0.33337000  0.19034000  1
  S  S0_5  1  0.66668400  0.33337000  0.69034000  1
  S  S0_6  1  0.66668400  0.83337000  0.19034000  1
  S  S0_7  1  0.66668400  0.83337000  0.69034000  1
  S  S1_0  1  0.33332100  0.16664100  0.03648500  1
  S  S1_1  1  0.33332100  0.16664100  0.53648500  1
  S  S1_2  1  0.33332100  0.66664100  0.03648500  1
  S  S1_3  1  0.33332100  0.66664100  0.53648500  1
  S  S1_4  1  0.83332100  0.16664100  0.03648500  1
  S  S1_5  1  0.83332100  0.16664100  0.53648500  1
  S  S1_6  1  0.83332100  0.66664100  0.03648500  1
  S  S1_7  1  0.83332100  0.66664100  0.53648500  1
  S  S2_0  1  0.33329100  0.16658150  0.27215250  1
  S  S2_1  1  0.33329100  0.16658150  0.77215250  1
  S  S2_2  1  0.33329100  0.66658150  0.27215250  1
  S  S2_3  1  0.33329100  0.66658150  0.77215250  1
  S  S2_4  1  0.83329100  0.16658150  0.27215250  1
  S  S2_5  1  0.83329100  0.16658150  0.77215250  1
  S  S2_6  1  0.83329100  0.66658150  0.27215250  1
  S  S2_7  1  0.83329100  0.66658150  0.77215250  1
  S  S3_0  1  0.33333750  0.16667600  0.07907150  1
  S  S3_1  1  0.33333750  0.16667600  0.57907150  1
  S  S3_2  1  0.33333750  0.66667600  0.07907150  1
  S  S3_3  1  0.33333750  0.66667600  0.57907150  1
  S  S3_4  1  0.83333750  0.16667600  0.07907150  1
  S  S3_5  1  0.83333750  0.16667600  0.57907150  1
  S  S3_6  1  0.83333750  0.66667600  0.07907150  1
  S  S3_7  1  0.83333750  0.66667600  0.57907150  1
  S  S4_0  1  0.33332850  0.16665600  0.31499550  1
  S  S4_1  1  0.33332850  0.16665600  0.81499550  1
  S  S4_2  1  0.33332850  0.66665600  0.31499550  1
  S  S4_3  1  0.33332850  0.66665600  0.81499550  1
  S  S4_4  1  0.83332850  0.16665600  0.31499550  1
  S  S4_5  1  0.83332850  0.16665600  0.81499550  1
  S  S4_6  1  0.83332850  0.66665600  0.31499550  1
  S  S4_7  1  0.83332850  0.66665600  0.81499550  1
  S  S5_0  1  0.16668150  0.33336450  0.14750150  1
  S  S5_1  1  0.16668150  0.33336450  0.64750150  1
  S  S5_2  1  0.16668150  0.83336450  0.14750150  1
  S  S5_3  1  0.16668150  0.83336450  0.64750150  1
  S  S5_4  1  0.66668150  0.33336450  0.14750150  1
  S  S5_5  1  0.66668150  0.33336450  0.64750150  1
  S  S5_6  1  0.66668150  0.83336450  0.14750150  1
  S  S5_7  1  0.66668150  0.83336450  0.64750150  1
loop_
_geom_bond_atom_site_label_1
_geom_bond_atom_site_label_2
_geom_bond_distance
_geom_bond_site_symmetry_2
Mg0_0 Mg0_2 3.188693 1_555
Mg0_0 Mg0_6 3.188693 1_555
Mg0_0 Mg0_6 3.188693 1_445
Mg0_0 Mg0_2 3.188693 1_545
Mg0_0 Mg0_4 3.188702 1_555
Mg0_0 Mg0_4 3.188702 1_455
Mg0_1 Mg0_3 3.188693 1_555
Mg0_1 Mg0_7 3.188693 1_555
Mg0_1 Mg0_7 3.188693 1_445
Mg0_1 Mg0_3 3.188693 1_545
Mg0_1 Mg0_5 3.188702 1_555
Mg0_1 Mg0_5 3.188702 1_455
Mg0_2 Mg0_4 3.188693 1_455
Mg0_2 Mg0_4 3.188693 1_565
Mg0_2 Mg0_6 3.188702 1_455
Mg0_2 Mg0_6 3.188702 1_555
Mg0_3 Mg0_5 3.188693 1_455
Mg0_3 Mg0_5 3.188693 1_565
Mg0_3 Mg0_7 3.188702 1_555
Mg0_3 Mg0_7 3.188702 1_455
Mg0_4 Mg0_6 3.188693 1_555
Mg0_4 Mg0_6 3.188693 1_545
Mg0_5 Mg0_7 3.188693 1_555
Mg0_5 Mg0_7 3.188693 1_545
Mo0_0 S3_0 2.417726 1_555
Mo0_0 S3_2 2.417730 1_555
Mo0_0 S3_4 2.417731 1_455
Mo0_0 S1_2 2.417787 1_555
Mo0_0 S1_4 2.417805 1_455
Mo0_0 S1_0 2.417809 1_555
Mo0_1 S3_1 2.417726 1_555
Mo0_1 S3_3 2.417730 1_555
Mo0_1 S3_5 2.417731 1_455
Mo0_1 S1_3 2.417787 1_555
Mo0_1 S1_5 2.417805 1_455
Mo0_1 S1_1 2.417809 1_555
Mo0_2 S3_2 2.417726 1_555
Mo0_2 S3_0 2.417730 1_565
Mo0_2 S3_6 2.417731 1_455
Mo0_2 S1_0 2.417787 1_565
Mo0_2 S1_6 2.417805 1_455
Mo0_2 S1_2 2.417809 1_555
Mo0_3 S3_3 2.417726 1_555
Mo0_3 S3_1 2.417730 1_565
Mo0_3 S3_7 2.417731 1_455
Mo0_3 S1_1 2.417787 1_565
Mo0_3 S1_7 2.417805 1_455
Mo0_3 S1_3 2.417809 1_555
Mo0_4 S3_4 2.417726 1_555
Mo0_4 S3_6 2.417730 1_555
Mo0_4 S3_0 2.417731 1_555
Mo0_4 S1_6 2.417787 1_555
Mo0_4 S1_0 2.417805 1_555
Mo0_4 S1_4 2.417809 1_555
Mo0_5 S3_5 2.417726 1_555
Mo0_5 S3_7 2.417730 1_555
Mo0_5 S3_1 2.417731 1_555
Mo0_5 S1_7 2.417787 1_555
Mo0_5 S1_1 2.417805 1_555
Mo0_5 S1_5 2.417809 1_555
Mo0_6 S3_6 2.417726 1_555
Mo0_6 S3_4 2.417730 1_565
Mo0_6 S3_2 2.417731 1_555
Mo0_6 S1_4 2.417787 1_565
Mo0_6 S1_2 2.417805 1_555
Mo0_6 S1_6 2.417809 1_555
Mo0_7 S3_7 2.417726 1_555
Mo0_7 S3_5 2.417730 1_565
Mo0_7 S3_3 2.417731 1_555
Mo0_7 S1_5 2.417787 1_565
Mo0_7 S1_3 2.417805 1_555
Mo0_7 S1_7 2.417809 1_555
S0_0 W1_4 2.427861 1_455
S0_0 W1_0 2.427868 1_555
S0_0 W1_2 2.427962 1_555
S0_1 W1_5 2.427861 1_455
S0_1 W1_1 2.427868 1_555
S0_1 W1_3 2.427962 1_555
S0_2 W1_6 2.427861 1_455
S0_2 W1_2 2.427868 1_555
S0_2 W1_0 2.427962 1_565
S0_3 W1_7 2.427861 1_455
S0_3 W1_3 2.427868 1_555
S0_3 W1_1 2.427962 1_565
S0_4 W1_0 2.427861 1_555
S0_4 W1_4 2.427868 1_555
S0_4 W1_6 2.427962 1_555
S0_5 W1_1 2.427861 1_555
S0_5 W1_5 2.427868 1_555
S0_5 W1_7 2.427962 1_555
S0_6 W1_2 2.427861 1_555
S0_6 W1_6 2.427868 1_555
S0_6 W1_4 2.427962 1_565
S0_7 W1_3 2.427861 1_555
S0_7 W1_7 2.427868 1_555
S0_7 W1_5 2.427962 1_565
S2_0 W0_2 2.428380 1_545
S2_0 W0_0 2.428555 1_555
S2_0 W0_4 2.428555 1_555
S2_1 W0_3 2.428380 1_545
S2_1 W0_1 2.428555 1_555
S2_1 W0_5 2.428555 1_555
S2_2 W0_0 2.428380 1_555
S2_2 W0_2 2.428555 1_555
S2_2 W0_6 2.428555 1_555
S2_3 W0_1 2.428380 1_555
S2_3 W0_3 2.428555 1_555
S2_3 W0_7 2.428555 1_555
S2_4 W0_6 2.428380 1_545
S2_4 W0_4 2.428555 1_555
S2_4 W0_0 2.428555 1_655
S2_5 W0_7 2.428380 1_545
S2_5 W0_5 2.428555 1_555
S2_5 W0_1 2.428555 1_655
S2_6 W0_4 2.428380 1_555
S2_6 W0_6 2.428555 1_555
S2_6 W0_2 2.428555 1_655
S2_7 W0_5 2.428380 1_555
S2_7 W0_7 2.428555 1_555
S2_7 W0_3 2.428555 1_655
S4_0 W0_4 2.419272 1_555
S4_0 W0_0 2.419274 1_555
S4_0 W0_2 2.419366 1_545
S4_1 W0_5 2.419272 1_555
S4_1 W0_1 2.419274 1_555
S4_1 W0_3 2.419366 1_545
S4_2 W0_6 2.419272 1_555
S4_2 W0_2 2.419274 1_555
S4_2 W0_0 2.419366 1_555
S4_3 W0_7 2.419272 1_555
S4_3 W0_3 2.419274 1_555
S4_3 W0_1 2.419366 1_555
S4_4 W0_0 2.419272 1_655
S4_4 W0_4 2.419274 1_555
S4_4 W0_6 2.419366 1_545
S4_5 W0_1 2.419272 1_655
S4_5 W0_5 2.419274 1_555
S4_5 W0_7 2.419366 1_545
S4_6 W0_2 2.419272 1_655
S4_6 W0_6 2.419274 1_555
S4_6 W0_4 2.419366 1_555
S4_7 W0_3 2.419272 1_655
S4_7 W0_7 2.419274 1_555
S4_7 W0_5 2.419366 1_555
S5_0 W1_2 2.419641 1_555
S5_0 W1_4 2.419707 1_455
S5_0 W1_0 2.419711 1_555
S5_1 W1_3 2.419641 1_555
S5_1 W1_5 2.419707 1_455
S5_1 W1_1 2.419711 1_555
S5_2 W1_0 2.419641 1_565
S5_2 W1_6 2.419707 1_455
S5_2 W1_2 2.419711 1_555
S5_3 W1_1 2.419641 1_565
S5_3 W1_7 2.419707 1_455
S5_3 W1_3 2.419711 1_555
S5_4 W1_6 2.419641 1_555
S5_4 W1_0 2.419707 1_555
S5_4 W1_4 2.419711 1_555
S5_5 W1_7 2.419641 1_555
S5_5 W1_1 2.419707 1_555
S5_5 W1_5 2.419711 1_555
S5_6 W1_4 2.419641 1_565
S5_6 W1_2 2.419707 1_555
S5_6 W1_6 2.419711 1_555
S5_7 W1_5 2.419641 1_565
S5_7 W1_3 2.419707 1_555
S5_7 W1_7 2.419711 1_555
