# generated using pymatgen
data_Na3HfTiSi2PO12
_symmetry_space_group_name_H-M   'P 1'
_cell_length_a   9.02519820
_cell_length_b   9.01575305
_cell_length_c   22.15211395
_cell_angle_alpha   89.54073110
_cell_angle_beta   90.37994302
_cell_angle_gamma   119.88462667
_symmetry_Int_Tables_number   1
_chemical_formula_structural   Na3HfTiSi2PO12
_chemical_formula_sum   'Na18 Hf6 Ti6 Si12 P6 O72'
_cell_volume   1562.76015764
_cell_formula_units_Z   6
loop_
 _symmetry_equiv_pos_site_id
 _symmetry_equiv_pos_as_xyz
  1  'x, y, z'
loop_
 _atom_site_type_symbol
 _atom_site_label
 _atom_site_symmetry_multiplicity
 _atom_site_fract_x
 _atom_site_fract_y
 _atom_site_fract_z
 _atom_site_occupancy
  Na  Na0  1  0.00342145  0.99616669  0.50138632  1
  Na  Na1  1  0.01498188  0.00141585  0.00342660  1
  Na  Na2  1  0.66757206  0.32292560  0.82985784  1
  Na  Na3  1  0.68002315  0.33470876  0.34099405  1
  Na  Na4  1  0.33128976  0.65464669  0.16783173  1
  Na  Na5  1  0.33672118  0.66451831  0.66142126  1
  Na  Na6  1  0.63084086  0.99902147  0.25228274  1
  Na  Na7  1  0.99823120  0.62607899  0.25348587  1
  Na  Na8  1  0.99400586  0.36397285  0.74494242  1
  Na  Na9  1  0.36886298  0.00570272  0.74973458  1
  Na  Na10  1  0.29369349  0.33414283  0.58001778  1
  Na  Na11  1  0.66777574  0.96338711  0.58561566  1
  Na  Na12  1  0.66829526  0.69239664  0.08726347  1
  Na  Na13  1  0.03289380  0.33374409  0.08923352  1
  Na  Na14  1  0.97715271  0.66950503  0.91835389  1
  Na  Na15  1  0.32757681  0.29874357  0.92030123  1
  Na  Na16  1  0.33404928  0.03789819  0.41676392  1
  Na  Na17  1  0.70171297  0.66615901  0.42283097  1
  Hf  Hf0  1  0.99760394  0.00506265  0.85153000  1
  Hf  Hf1  1  0.66454503  0.33695048  0.19140409  1
  Hf  Hf2  1  0.66140025  0.32699482  0.97989768  1
  Hf  Hf3  1  0.32946410  0.67000696  0.02124730  1
  Hf  Hf4  1  0.32890940  0.65902120  0.31409068  1
  Hf  Hf5  1  0.33915409  0.67054197  0.80836633  1
  Ti  Ti0  1  0.98821709  0.99773155  0.35772591  1
  Ti  Ti1  1  0.99524429  0.99299350  0.64387717  1
  Ti  Ti2  1  0.00788609  0.00368235  0.14798984  1
  Ti  Ti3  1  0.65290346  0.32863266  0.68411038  1
  Ti  Ti4  1  0.67352156  0.33928322  0.48183095  1
  Ti  Ti5  1  0.33726995  0.67945260  0.51977528  1
  Si  Si0  1  0.71316795  0.71434405  0.25180414  1
  Si  Si1  1  0.00417555  0.28544795  0.25003450  1
  Si  Si2  1  0.29195736  0.29116040  0.74484680  1
  Si  Si3  1  0.70739256  0.00255867  0.74192521  1
  Si  Si4  1  0.37239842  0.04237722  0.58114314  1
  Si  Si5  1  0.66934585  0.62560236  0.58055525  1
  Si  Si6  1  0.96151699  0.63331132  0.08565891  1
  Si  Si7  1  0.36689189  0.32629799  0.08228230  1
  Si  Si8  1  0.03751867  0.37325235  0.91496297  1
  Si  Si9  1  0.33734952  0.96402832  0.91067349  1
  Si  Si10  1  0.62697576  0.96522296  0.41755883  1
  Si  Si11  1  0.03850329  0.66275188  0.41595028  1
  P  P0  1  0.28457569  0.00137442  0.25505778  1
  P  P1  1  0.98935170  0.70390371  0.74824178  1
  P  P2  1  0.95963822  0.33967116  0.58479265  1
  P  P3  1  0.66892362  0.03922865  0.08883629  1
  P  P4  1  0.62651076  0.67001797  0.91886438  1
  P  P5  1  0.33105866  0.37262340  0.42229152  1
  O  O0  1  0.20289465  0.01023113  0.31458948  1
  O  O1  1  0.82834163  0.80827767  0.31291909  1
  O  O2  1  0.99609154  0.16535090  0.30797957  1
  O  O3  1  0.20907713  0.17610735  0.80611594  1
  O  O4  1  0.97719285  0.78348595  0.80836991  1
  O  O5  1  0.82777631  0.02218716  0.79979894  1
  O  O6  1  0.80417656  0.98738224  0.68148759  1
  O  O7  1  0.16861926  0.18578764  0.68726573  1
  O  O8  1  0.00713021  0.82560374  0.69497070  1
  O  O9  1  0.81289933  0.82952268  0.19214349  1
  O  O10  1  0.01318083  0.19356821  0.18773477  1
  O  O11  1  0.17327660  0.99182319  0.19991433  1
  O  O12  1  0.87830840  0.35177617  0.64413508  1
  O  O13  1  0.49641995  0.13039629  0.64095087  1
  O  O14  1  0.64871445  0.49355514  0.63599496  1
  O  O15  1  0.87112665  0.50989528  0.14504888  1
  O  O16  1  0.65291468  0.11768543  0.14847236  1
  O  O17  1  0.49638883  0.34690813  0.13748804  1
  O  O18  1  0.45073281  0.31167633  0.01898846  1
  O  O19  1  0.84138524  0.53815346  0.02634709  1
  O  O20  1  0.68140691  0.15623652  0.03510311  1
  O  O21  1  0.47286063  0.16788444  0.52352162  1
  O  O22  1  0.68510221  0.53441008  0.51888500  1
  O  O23  1  0.83783222  0.32220271  0.53128963  1
  O  O24  1  0.54838506  0.68353347  0.97865478  1
  O  O25  1  0.15550759  0.46585362  0.97490492  1
  O  O26  1  0.32557118  0.84196302  0.96724114  1
  O  O27  1  0.53290097  0.83423855  0.47565097  1
  O  O28  1  0.31778643  0.45698271  0.48056060  1
  O  O29  1  0.17571830  0.68227561  0.46980177  1
  O  O30  1  0.11804224  0.64124707  0.35286105  1
  O  O31  1  0.50845380  0.87491502  0.35785512  1
  O  O32  1  0.35066375  0.49052509  0.36752467  1
  O  O33  1  0.13437935  0.48839987  0.85494526  1
  O  O34  1  0.34975614  0.87724786  0.84776836  1
  O  O35  1  0.51031725  0.65609785  0.86478443  1
  O  O36  1  0.02881165  0.84098195  0.41663845  1
  O  O37  1  0.81439958  0.97549500  0.41337955  1
  O  O38  1  0.17488687  0.19040854  0.41641703  1
  O  O39  1  0.02329823  0.18578886  0.91215269  1
  O  O40  1  0.15904418  0.97169767  0.91324449  1
  O  O41  1  0.80862112  0.82316724  0.91275633  1
  O  O42  1  0.97437971  0.17379949  0.58211795  1
  O  O43  1  0.18536645  0.02763542  0.58622791  1
  O  O44  1  0.83519149  0.81887055  0.58601550  1
  O  O45  1  0.97460796  0.82026416  0.09068427  1
  O  O46  1  0.83448666  0.02732724  0.08660737  1
  O  O47  1  0.17375962  0.16235399  0.08908093  1
  O  O48  1  0.69224626  0.17739680  0.74220673  1
  O  O49  1  0.48180813  0.30852508  0.73977252  1
  O  O50  1  0.83731956  0.52213450  0.74281043  1
  O  O51  1  0.69871592  0.52582892  0.25074193  1
  O  O52  1  0.82709231  0.29625483  0.25268466  1
  O  O53  1  0.46910048  0.15485565  0.25070001  1
  O  O54  1  0.63790875  0.50323077  0.91766607  1
  O  O55  1  0.85342052  0.36539100  0.91941963  1
  O  O56  1  0.49903143  0.15803037  0.91550617  1
  O  O57  1  0.64042371  0.15095557  0.42487113  1
  O  O58  1  0.49674794  0.35865705  0.42041572  1
  O  O59  1  0.84567195  0.49888442  0.42359120  1
  O  O60  1  0.35517564  0.50269355  0.08318229  1
  O  O61  1  0.14867963  0.64781553  0.08116380  1
  O  O62  1  0.51486191  0.85614049  0.08295150  1
  O  O63  1  0.36067346  0.85435911  0.57539307  1
  O  O64  1  0.49422795  0.64000512  0.58003252  1
  O  O65  1  0.14187651  0.49489659  0.57832281  1
  O  O66  1  0.29836246  0.83503255  0.25183957  1
  O  O67  1  0.52685537  0.70256589  0.25414119  1
  O  O68  1  0.16617105  0.48021032  0.25193802  1
  O  O69  1  0.30020580  0.47575420  0.74772525  1
  O  O70  1  0.15807544  0.69374796  0.74711989  1
  O  O71  1  0.51469019  0.83679293  0.74534400  1
loop_
_geom_bond_atom_site_label_1
_geom_bond_atom_site_label_2
_geom_bond_distance
_geom_bond_site_symmetry_2
Na0 O43 2.410920 1_565
Na0 O36 2.429349 1_555
Na0 O44 2.438465 1_455
Na0 O38 2.507921 1_565
Na0 O42 2.510419 1_465
Na0 O37 2.527965 1_455
Na1 O47 2.386447 1_555
Na1 O45 2.429431 1_445
Na1 O40 2.478581 1_544
Na1 O46 2.555279 1_455
Na1 O39 2.584699 1_554
Na1 O41 2.665534 1_444
Na2 O56 2.421409 1_555
Na2 O48 2.424632 1_555
Na2 O55 2.494850 1_555
Na2 O50 2.555925 1_555
Na2 O49 2.559865 1_555
Na2 O54 2.643680 1_555
Na3 O59 2.361304 1_555
Na3 O57 2.386233 1_555
Na3 O52 2.492538 1_555
Na3 O58 2.505707 1_555
Na3 O51 2.579569 1_555
Na3 O53 2.679442 1_555
Na4 O60 2.404242 1_555
Na4 O68 2.412412 1_555
Na4 O67 2.483154 1_555
Na4 O61 2.502942 1_555
Na4 O62 2.562767 1_555
Na4 O66 2.594960 1_555
Na5 O64 2.381933 1_555
Na5 O71 2.443167 1_555
Na5 O69 2.461146 1_555
Na5 O65 2.478294 1_555
Na5 O63 2.488443 1_555
Na5 O70 2.597107 1_555
Na6 O67 2.350594 1_555
Na6 O52 2.364059 1_565
Na6 O53 2.479564 1_565
Na6 O16 2.495346 1_565
Na6 O31 2.588829 1_555
Na6 O66 2.601725 1_555
Na7 O51 2.385753 1_555
Na7 O66 2.408877 1_655
Na7 O30 2.420719 1_655
Na7 O68 2.452710 1_655
Na7 O52 2.579136 1_555
Na7 O15 2.643796 1_555
Na8 O48 2.384242 1_555
Na8 O69 2.424844 1_655
Na8 O12 2.438798 1_555
Na8 O50 2.458204 1_555
Na8 O70 2.578543 1_655
Na8 O33 2.718101 1_655
Na9 O49 2.400343 1_555
Na9 O34 2.419234 1_545
Na9 O71 2.462119 1_545
Na9 O70 2.490378 1_545
Na9 O48 2.538191 1_555
Na9 O13 2.664566 1_555
Na9 O3 2.874424 1_555
Na10 O28 2.419735 1_555
Na10 O64 2.430315 1_555
Na10 O43 2.431983 1_555
Na10 O65 2.440626 1_555
Na10 O42 2.499261 1_455
Na10 O7 2.680964 1_555
Na11 O6 2.404154 1_555
Na11 O44 2.437649 1_555
Na11 O63 2.445383 1_555
Na11 O42 2.455875 1_565
Na11 O64 2.534062 1_555
Na11 O27 2.713872 1_555
Na11 O13 2.921760 1_565
Na12 O45 2.408342 1_555
Na12 O60 2.470244 1_555
Na12 O62 2.477748 1_555
Na12 O24 2.616937 1_554
Na12 O46 2.618095 1_565
Na12 O9 2.650933 1_555
Na12 O19 2.901378 1_555
Na12 O17 2.915260 1_555
Na13 O46 2.431730 1_455
Na13 O47 2.441675 1_555
Na13 O10 2.475252 1_555
Na13 O61 2.487483 1_555
Na13 O60 2.526913 1_555
Na13 O25 2.780784 1_554
Na13 O15 2.923773 1_455
Na13 O20 2.997233 1_455
Na14 O40 2.381414 1_655
Na14 O55 2.390260 1_555
Na14 O41 2.518489 1_555
Na14 O4 2.636560 1_555
Na14 O54 2.654753 1_555
Na14 O19 2.678485 1_556
Na14 O26 2.930549 1_655
Na14 O33 3.004107 1_655
Na15 O39 2.412601 1_555
Na15 O18 2.422999 1_556
Na15 O56 2.444544 1_555
Na15 O54 2.470160 1_555
Na15 O40 2.562623 1_545
Na15 O3 2.755897 1_555
Na15 O25 2.920682 1_555
Na16 O36 2.422235 1_545
Na16 O57 2.429954 1_555
Na16 O38 2.433528 1_555
Na16 O0 2.503105 1_555
Na16 O58 2.509239 1_555
Na16 O21 2.660410 1_555
Na17 O22 2.397327 1_555
Na17 O59 2.432000 1_555
Na17 O58 2.449756 1_555
Na17 O37 2.454202 1_555
Na17 O36 2.565791 1_655
Na17 O1 2.720968 1_555
Na17 O27 2.887802 1_555
Na17 O32 3.004441 1_555
Hf0 O5 1.973824 1_555
Hf0 O3 2.024964 1_655
Hf0 O39 2.041206 1_655
Hf0 O40 2.118054 1_645
Hf0 O4 2.144839 1_545
Hf0 O41 2.155387 1_545
Hf1 O17 1.961580 1_555
Hf1 O15 2.016076 1_555
Hf1 O51 2.056670 1_555
Hf1 O52 2.152101 1_555
Hf1 O53 2.154631 1_555
Hf1 O16 2.155320 1_555
Hf2 O20 2.035224 1_556
Hf2 O18 2.035235 1_556
Hf2 O19 2.061375 1_556
Hf2 O56 2.070077 1_555
Hf2 O55 2.084123 1_555
Hf2 O54 2.183275 1_555
Hf3 O26 1.964675 1_554
Hf3 O25 2.008935 1_554
Hf3 O61 2.040349 1_555
Hf3 O60 2.126750 1_555
Hf3 O24 2.142817 1_554
Hf3 O62 2.166232 1_555
Hf4 O32 2.003165 1_555
Hf4 O30 2.025023 1_555
Hf4 O31 2.054425 1_555
Hf4 O68 2.073881 1_555
Hf4 O67 2.105591 1_555
Hf4 O66 2.211705 1_555
Hf5 O34 2.022699 1_555
Hf5 O35 2.034087 1_555
Hf5 O33 2.037330 1_555
Hf5 O71 2.082064 1_555
Hf5 O69 2.104419 1_555
Hf5 O70 2.205022 1_555
O0 P0 1.536936 1_555
O0 Ti0 2.117778 1_445
O1 Si0 1.659224 1_555
O1 Ti0 1.880657 1_555
O2 Si1 1.650935 1_655
O2 Ti0 1.835895 1_545
O3 Si2 1.641734 1_555
O4 P1 1.548125 1_555
O5 Si3 1.627552 1_555
O6 Si3 1.646725 1_565
O6 Ti1 1.897836 1_555
O7 Si2 1.647852 1_555
O7 Ti1 1.920945 1_445
O8 P1 1.558366 1_455
O8 Ti1 1.924161 1_455
O9 Si0 1.642407 1_555
O9 Ti2 1.940018 1_665
O10 Si1 1.638382 1_555
O10 Ti2 1.910589 1_555
O11 P0 1.551713 1_565
O11 Ti2 1.922726 1_565
O12 P2 1.540677 1_555
O12 Ti3 2.136381 1_555
O13 Si4 1.658290 1_555
O13 Ti3 1.896599 1_555
O14 Si5 1.648913 1_555
O14 Ti3 1.838051 1_555
O15 Si6 1.649437 1_555
O16 P3 1.544598 1_555
O17 Si7 1.632265 1_555
O18 Si7 1.634699 1_555
O19 Si6 1.646234 1_555
O20 P3 1.550991 1_555
O21 Si4 1.643651 1_555
O21 Ti4 1.931611 1_555
O22 Si5 1.643038 1_555
O22 Ti4 1.902184 1_555
O23 P2 1.565634 1_555
O23 Ti4 1.904337 1_555
O24 P4 1.538461 1_555
O25 Si8 1.645362 1_555
O26 Si9 1.629646 1_555
O27 Si10 1.662060 1_555
O27 Ti5 1.888365 1_555
O28 P5 1.538668 1_555
O28 Ti5 2.117298 1_555
O29 Si11 1.659584 1_555
O29 Ti5 1.834974 1_555
O30 Si11 1.631693 1_555
O31 Si10 1.639182 1_555
O32 P5 1.558147 1_555
O33 Si8 1.642707 1_555
O34 Si9 1.635027 1_555
O35 P4 1.550879 1_555
O36 Si11 1.652396 1_555
O36 Ti0 2.077157 1_455
O37 Si10 1.650539 1_555
O37 Ti0 1.931146 1_555
O38 P5 1.547886 1_555
O38 Ti0 2.153382 1_445
O39 Si8 1.631653 1_555
O40 Si9 1.646160 1_555
O41 P4 1.537740 1_555
O42 P2 1.567610 1_555
O42 Ti1 2.197977 1_545
O43 Si4 1.630464 1_555
O43 Ti1 2.039930 1_445
O44 Si5 1.641084 1_555
O44 Ti1 1.985420 1_555
O45 Si6 1.634539 1_555
O45 Ti2 1.992466 1_665
O46 P3 1.551624 1_555
O46 Ti2 2.154776 1_655
O47 Si7 1.636513 1_555
O47 Ti2 1.962747 1_555
O48 Si3 1.648737 1_555
O48 Ti3 2.022313 1_555
O49 Si2 1.645595 1_555
O49 Ti3 1.918439 1_555
O50 P1 1.530692 1_555
O50 Ti3 2.149121 1_555
O51 Si0 1.638877 1_555
O52 Si1 1.650372 1_655
O53 P0 1.549555 1_555
O54 P4 1.557966 1_555
O55 Si8 1.630993 1_655
O56 Si9 1.630211 1_545
O57 Si10 1.626820 1_545
O57 Ti4 2.021920 1_555
O58 P5 1.562781 1_555
O58 Ti4 2.161450 1_555
O59 Si11 1.636406 1_655
O59 Ti4 1.979365 1_555
O60 Si7 1.645865 1_555
O61 Si6 1.631640 1_455
O62 P3 1.545619 1_565
O63 Si4 1.650879 1_565
O63 Ti5 1.935201 1_555
O64 Si5 1.648981 1_555
O64 Ti5 2.093870 1_555
O65 P2 1.546093 1_455
O65 Ti5 2.152259 1_555
O66 P0 1.567623 1_565
O67 Si0 1.632347 1_555
O68 Si1 1.632396 1_555
O69 Si2 1.630190 1_555
O70 P1 1.570762 1_455
O71 Si3 1.635179 1_565
