# generated using pymatgen
data_MgFe4(CuO4)2
_symmetry_space_group_name_H-M   'P 1'
_cell_length_a   6.81830767
_cell_length_b   6.81830639
_cell_length_c   5.77290050
_cell_angle_alpha   64.95446577
_cell_angle_beta   64.95446136
_cell_angle_gamma   50.68557696
_symmetry_Int_Tables_number   1
_chemical_formula_structural   MgFe4(CuO4)2
_chemical_formula_sum   'Mg1 Fe4 Cu2 O8'
_cell_volume   183.45058225
_cell_formula_units_Z   1
loop_
 _symmetry_equiv_pos_site_id
 _symmetry_equiv_pos_as_xyz
  1  'x, y, z'
loop_
 _atom_site_type_symbol
 _atom_site_label
 _atom_site_symmetry_multiplicity
 _atom_site_fract_x
 _atom_site_fract_y
 _atom_site_fract_z
 _atom_site_occupancy
  Mg  Mg0  1  0.75826000  0.75826000  0.74174000  1
  Fe  Fe0  1  0.00242200  0.00242200  0.99757800  1
  Fe  Fe1  1  0.24700600  0.24700600  0.25299400  1
  Fe  Fe2  1  0.19772400  0.65211100  0.57508200  1
  Fe  Fe3  1  0.65211100  0.19772400  0.57508200  1
  Cu  Cu0  1  0.59175000  0.59175000  0.17013900  1
  Cu  Cu1  1  0.59175000  0.59175000  0.64636100  1
  O  O0  1  0.35430500  0.35430500  0.40823300  1
  O  O1  1  0.38682600  0.86549900  0.37383700  1
  O  O2  1  0.35430500  0.35430500  0.88315800  1
  O  O3  1  0.86549900  0.38682600  0.37383700  1
  O  O4  1  0.38375200  0.82753400  0.89435800  1
  O  O5  1  0.82753400  0.38375200  0.89435800  1
  O  O6  1  0.89858600  0.89858600  0.36836200  1
  O  O7  1  0.89858600  0.89858600  0.83446400  1
loop_
_geom_bond_atom_site_label_1
_geom_bond_atom_site_label_2
_geom_bond_distance
_geom_bond_site_symmetry_2
Mg0 O7 2.035846 1_555
Mg0 O6 2.035853 1_555
Mg0 O5 2.106884 1_555
Mg0 O4 2.106884 1_555
Fe0 O6 1.911333 1_446
Fe0 O7 1.911343 1_445
Fe0 O5 1.974417 1_455
Fe0 O4 1.974417 1_545
Fe1 O2 1.913647 1_554
Fe1 O0 1.913652 1_555
Fe1 O1 2.011528 1_545
Fe1 O3 2.011528 1_455
Fe2 O0 2.056438 1_555
Fe2 O2 2.056445 1_555
Fe2 O7 2.104239 1_455
Fe2 O6 2.104243 1_455
Fe2 O1 2.192419 1_555
Fe3 O0 2.056438 1_555
Fe3 O2 2.056445 1_555
Fe3 O7 2.104239 1_545
Fe3 O6 2.104242 1_545
Fe3 O3 2.192419 1_555
Cu0 O1 1.995362 1_555
Cu0 O3 1.995363 1_555
Cu0 O5 1.996503 1_554
Cu0 O4 1.996503 1_554
Cu1 O3 1.995366 1_555
Cu1 O1 1.995366 1_555
Cu1 O4 1.996512 1_555
Cu1 O5 1.996512 1_555
