# generated using pymatgen
data_Nb3(Fe10B3)2
_symmetry_space_group_name_H-M   'P 1'
_cell_length_a   7.58035440
_cell_length_b   7.58035440
_cell_length_c   7.58035440
_cell_angle_alpha   60.00000000
_cell_angle_beta   60.00000000
_cell_angle_gamma   60.00000000
_symmetry_Int_Tables_number   1
_chemical_formula_structural   Nb3(Fe10B3)2
_chemical_formula_sum   'Nb3 Fe20 B6'
_cell_volume   308.00199778
_cell_formula_units_Z   1
loop_
 _symmetry_equiv_pos_site_id
 _symmetry_equiv_pos_as_xyz
  1  'x, y, z'
loop_
 _atom_site_type_symbol
 _atom_site_label
 _atom_site_symmetry_multiplicity
 _atom_site_fract_x
 _atom_site_fract_y
 _atom_site_fract_z
 _atom_site_occupancy
  Nb  Nb0  1  0.25000000  0.25000000  0.25000000  1
  Nb  Nb1  1  0.75000000  0.75000000  0.75000000  1
  Nb  Nb2  1  0.00000000  0.00000000  0.00000000  1
  Fe  Fe0  1  0.34657800  0.65342200  0.00000000  1
  Fe  Fe1  1  0.34657800  0.00000000  0.65342200  1
  Fe  Fe2  1  0.00000000  0.65342200  0.34657800  1
  Fe  Fe3  1  0.61546000  0.15361900  0.61546000  1
  Fe  Fe4  1  0.38454000  0.38454000  0.84638100  1
  Fe  Fe5  1  0.84638100  0.38454000  0.38454000  1
  Fe  Fe6  1  0.38454000  0.38454000  0.38454000  1
  Fe  Fe7  1  0.15361900  0.61546000  0.61546000  1
  Fe  Fe8  1  0.61546000  0.61546000  0.61546000  1
  Fe  Fe9  1  0.61546000  0.61546000  0.15361900  1
  Fe  Fe10  1  0.38454000  0.84638100  0.38454000  1
  Fe  Fe11  1  0.65342200  0.34657800  0.00000000  1
  Fe  Fe12  1  0.00000000  0.34657800  0.65342200  1
  Fe  Fe13  1  0.65342200  0.00000000  0.00000000  1
  Fe  Fe14  1  0.00000000  0.00000000  0.34657800  1
  Fe  Fe15  1  0.00000000  0.00000000  0.65342200  1
  Fe  Fe16  1  0.00000000  0.34657800  0.00000000  1
  Fe  Fe17  1  0.65342200  0.00000000  0.34657800  1
  Fe  Fe18  1  0.34657800  0.00000000  0.00000000  1
  Fe  Fe19  1  0.00000000  0.65342200  0.00000000  1
  B  B0  1  0.27086500  0.27086500  0.72913500  1
  B  B1  1  0.72913500  0.72913500  0.27086500  1
  B  B2  1  0.72913500  0.27086500  0.72913500  1
  B  B3  1  0.27086500  0.72913500  0.27086500  1
  B  B4  1  0.27086500  0.72913500  0.72913500  1
  B  B5  1  0.72913500  0.27086500  0.27086500  1
loop_
_geom_bond_atom_site_label_1
_geom_bond_atom_site_label_2
_geom_bond_distance
_geom_bond_site_symmetry_2
Fe0 Nb2 2.627184 1_565
Fe1 Nb2 2.627184 1_556
Fe2 Nb2 2.627184 1_565
Fe3 Nb1 2.498133 1_545
Fe4 Nb0 2.498133 1_556
Fe5 Nb0 2.498133 1_655
Fe6 Nb0 2.498139 1_555
Fe7 Nb1 2.498133 1_455
Fe8 Nb1 2.498139 1_555
Fe9 Nb1 2.498133 1_554
Fe10 Nb0 2.498133 1_565
Fe11 Nb2 2.627184 1_655
Fe12 Nb2 2.627184 1_556
Fe13 Nb2 2.627184 1_655
Fe14 Nb2 2.627184 1_555
Fe15 Nb2 2.627184 1_556
Fe16 Nb2 2.627184 1_555
Fe17 Nb2 2.627184 1_655
Fe18 Nb2 2.627184 1_555
Fe19 Nb2 2.627184 1_565
B0 Fe12 2.131958 1_555
B0 Fe1 2.131958 1_555
B0 Fe18 2.131958 1_556
B0 Fe16 2.131958 1_556
B0 Fe6 2.132871 1_555
B0 Fe3 2.132871 1_555
B0 Fe7 2.132871 1_555
B0 Fe4 2.132877 1_555
B1 Fe19 2.131958 1_655
B1 Fe13 2.131958 1_565
B1 Fe17 2.131958 1_565
B1 Fe2 2.131958 1_655
B1 Fe8 2.132871 1_555
B1 Fe10 2.132871 1_555
B1 Fe5 2.132871 1_555
B1 Fe9 2.132877 1_555
B2 Fe15 2.131958 1_655
B2 Fe13 2.131958 1_556
B2 Fe11 2.131958 1_556
B2 Fe12 2.131958 1_655
B2 Fe8 2.132871 1_555
B2 Fe4 2.132871 1_555
B2 Fe5 2.132871 1_555
B2 Fe3 2.132877 1_555
B3 Fe0 2.131958 1_555
B3 Fe2 2.131958 1_555
B3 Fe14 2.131958 1_565
B3 Fe18 2.131958 1_565
B3 Fe6 2.132871 1_555
B3 Fe9 2.132871 1_555
B3 Fe7 2.132871 1_555
B3 Fe10 2.132877 1_555
B4 Fe19 2.131958 1_556
B4 Fe15 2.131958 1_565
B4 Fe1 2.131958 1_565
B4 Fe0 2.131958 1_556
B4 Fe8 2.132871 1_555
B4 Fe10 2.132871 1_555
B4 Fe4 2.132871 1_555
B4 Fe7 2.132877 1_555
B5 Fe17 2.131958 1_555
B5 Fe11 2.131958 1_555
B5 Fe14 2.131958 1_655
B5 Fe16 2.131958 1_655
B5 Fe6 2.132871 1_555
B5 Fe9 2.132871 1_555
B5 Fe3 2.132871 1_555
B5 Fe5 2.132877 1_555
