# generated using pymatgen
data_Na14Mg4Si7Sn4S5O48
_symmetry_space_group_name_H-M   'P 1'
_cell_length_a   18.17228205
_cell_length_b   9.09333912
_cell_length_c   22.39103697
_cell_angle_alpha   90.07544433
_cell_angle_beta   89.24107273
_cell_angle_gamma   119.96185594
_symmetry_Int_Tables_number   1
_chemical_formula_structural   Na14Mg4Si7Sn4S5O48
_chemical_formula_sum   'Na42 Mg12 Si21 Sn12 S15 O144'
_cell_volume   3205.22315667
_cell_formula_units_Z   3
loop_
 _symmetry_equiv_pos_site_id
 _symmetry_equiv_pos_as_xyz
  1  'x, y, z'
loop_
 _atom_site_type_symbol
 _atom_site_label
 _atom_site_symmetry_multiplicity
 _atom_site_fract_x
 _atom_site_fract_y
 _atom_site_fract_z
 _atom_site_occupancy
  Na  Na0  1  0.80777491  0.98568372  0.25521193  1
  Na  Na1  1  0.18457089  0.36017627  0.25381969  1
  Na  Na2  1  0.69047820  0.36826983  0.25406420  1
  Na  Na3  1  0.99372530  0.64057326  0.24568669  1
  Na  Na4  1  0.50218241  0.64697116  0.25079269  1
  Na  Na5  1  0.30956480  0.63024839  0.74592426  1
  Na  Na6  1  0.00071566  0.35566099  0.74705804  1
  Na  Na7  1  0.49574913  0.35097720  0.74158166  1
  Na  Na8  1  0.18970691  0.01269821  0.75053808  1
  Na  Na9  1  0.68635641  0.01037971  0.75029111  1
  Na  Na10  1  0.14717805  0.33199198  0.58365669  1
  Na  Na11  1  0.65561345  0.33744114  0.58261369  1
  Na  Na12  1  0.33874647  0.98479305  0.58069906  1
  Na  Na13  1  0.83354045  0.97191999  0.58058411  1
  Na  Na14  1  0.15345751  0.97228710  0.08692348  1
  Na  Na15  1  0.64747276  0.96285817  0.08726118  1
  Na  Na16  1  0.33470402  0.69411443  0.08799851  1
  Na  Na17  1  0.83807320  0.69506386  0.08428788  1
  Na  Na18  1  0.48582012  0.67647559  0.92314925  1
  Na  Na19  1  0.97433698  0.66465713  0.92127522  1
  Na  Na20  1  0.35263296  0.03836985  0.91614349  1
  Na  Na21  1  0.84845703  0.02944493  0.91173747  1
  Na  Na22  1  0.16595268  0.29125539  0.91532762  1
  Na  Na23  1  0.67226306  0.29436801  0.90940226  1
  Na  Na24  1  0.47697458  0.28822601  0.42155890  1
  Na  Na25  1  0.97622240  0.27650043  0.42283822  1
  Na  Na26  1  0.17042800  0.05030785  0.40946311  1
  Na  Na27  1  0.67428093  0.03799736  0.41386441  1
  Na  Na28  1  0.34976768  0.66814993  0.41186132  1
  Na  Na29  1  0.85014055  0.67931101  0.41786477  1
  Na  Na30  1  0.99239065  0.99874212  0.49590324  1
  Na  Na31  1  0.50148574  0.00300866  0.49972948  1
  Na  Na32  1  0.99821266  0.99599385  0.00203378  1
  Na  Na33  1  0.50073954  0.99904088  0.00206566  1
  Na  Na34  1  0.32781310  0.32076139  0.82408686  1
  Na  Na35  1  0.82485300  0.33138014  0.83266868  1
  Na  Na36  1  0.32584282  0.31976149  0.33507545  1
  Na  Na37  1  0.82624885  0.32089716  0.33129332  1
  Na  Na38  1  0.16915125  0.67477693  0.16808763  1
  Na  Na39  1  0.66471676  0.66880999  0.17480557  1
  Na  Na40  1  0.16321981  0.65909695  0.67082585  1
  Na  Na41  1  0.67025703  0.66517649  0.66318381  1
  Mg  Mg0  1  0.99902900  0.99914175  0.35152833  1
  Mg  Mg1  1  0.49655203  0.99011030  0.34714989  1
  Mg  Mg2  1  0.99450184  0.99924258  0.84508493  1
  Mg  Mg3  1  0.50607485  0.00842126  0.84623519  1
  Mg  Mg4  1  0.33593208  0.32620698  0.68524706  1
  Mg  Mg5  1  0.83581327  0.34320262  0.18744935  1
  Mg  Mg6  1  0.33388339  0.33158772  0.99604310  1
  Mg  Mg7  1  0.83249797  0.34011230  0.98096084  1
  Mg  Mg8  1  0.33413061  0.32766358  0.47994681  1
  Mg  Mg9  1  0.83187321  0.32199200  0.48879126  1
  Mg  Mg10  1  0.67433789  0.68829595  0.31274737  1
  Mg  Mg11  1  0.16874536  0.66274943  0.80962641  1
  Si  Si0  1  0.14930716  0.99908521  0.25350465  1
  Si  Si1  1  0.64798500  0.00359682  0.25067217  1
  Si  Si2  1  0.35148214  0.69781891  0.25129248  1
  Si  Si3  1  0.85197487  0.70395412  0.25244192  1
  Si  Si4  1  0.14813853  0.29071073  0.75203287  1
  Si  Si5  1  0.65120615  0.30260825  0.75284479  1
  Si  Si6  1  0.35276361  0.99873313  0.75397741  1
  Si  Si7  1  0.85217131  0.00774082  0.75142808  1
  Si  Si8  1  0.47809755  0.33894193  0.58184710  1
  Si  Si9  1  0.98346626  0.34272082  0.58263301  1
  Si  Si10  1  0.68148501  0.03504299  0.58278370  1
  Si  Si11  1  0.83877417  0.62787406  0.57996993  1
  Si  Si12  1  0.48261677  0.62535418  0.08144162  1
  Si  Si13  1  0.97555473  0.61833181  0.08250448  1
  Si  Si14  1  0.33944409  0.04612479  0.07975175  1
  Si  Si15  1  0.18227364  0.32669198  0.08132617  1
  Si  Si16  1  0.81790092  0.66757211  0.91926519  1
  Si  Si17  1  0.66422367  0.96357163  0.91574134  1
  Si  Si18  1  0.31771758  0.96816779  0.41932536  1
  Si  Si19  1  0.81475393  0.96820523  0.41467723  1
  Si  Si20  1  0.16636530  0.36723280  0.41577667  1
  Sn  Sn0  1  0.99364815  0.00172920  0.64909459  1
  Sn  Sn1  1  0.50273142  0.02096208  0.64984486  1
  Sn  Sn2  1  0.00301576  0.98702119  0.15149140  1
  Sn  Sn3  1  0.49367619  0.98625076  0.15103351  1
  Sn  Sn4  1  0.83018896  0.32923723  0.68006613  1
  Sn  Sn5  1  0.33021580  0.32954524  0.18180603  1
  Sn  Sn6  1  0.16464994  0.66417667  0.02467824  1
  Sn  Sn7  1  0.66471677  0.67092786  0.01581854  1
  Sn  Sn8  1  0.16352978  0.65812184  0.51477202  1
  Sn  Sn9  1  0.67083759  0.67337488  0.52230649  1
  Sn  Sn10  1  0.17972801  0.68545765  0.31489983  1
  Sn  Sn11  1  0.68101931  0.67596256  0.81388221  1
  S  S0  1  -0.00036664  0.29097098  0.25081920  1
  S  S1  1  0.49927758  0.29110653  0.25159422  1
  S  S2  1  0.99986872  0.70801988  0.75216138  1
  S  S3  1  0.49900577  0.70764279  0.75194119  1
  S  S4  1  0.18659387  0.03906674  0.58322030  1
  S  S5  1  0.33439837  0.62485671  0.58349932  1
  S  S6  1  0.83458488  0.04481282  0.08255491  1
  S  S7  1  0.68629064  0.33435262  0.08259897  1
  S  S8  1  0.31195490  0.66383174  0.91518223  1
  S  S9  1  0.02336069  0.37852854  0.91599968  1
  S  S10  1  0.51778766  0.37228866  0.91563075  1
  S  S11  1  0.16731108  0.95779140  0.91492272  1
  S  S12  1  0.66535297  0.37387538  0.41476448  1
  S  S13  1  0.01956389  0.66549473  0.41525542  1
  S  S14  1  0.52164041  0.66690743  0.41602445  1
  O  O0  1  0.10756800  0.03868763  0.30999796  1
  O  O1  1  0.60520478  0.04391638  0.30764467  1
  O  O2  1  0.40811127  0.77984194  0.30916387  1
  O  O3  1  0.91523554  0.79486998  0.30719421  1
  O  O4  1  0.48548348  0.18605643  0.30493215  1
  O  O5  1  0.98764357  0.18875629  0.30438169  1
  O  O6  1  0.10700413  0.16922170  0.81063052  1
  O  O7  1  0.61184052  0.18397265  0.81099680  1
  O  O8  1  0.48586137  0.78424829  0.80628174  1
  O  O9  1  0.98726287  0.78596702  0.80626701  1
  O  O10  1  0.41184982  0.02778189  0.81140577  1
  O  O11  1  0.90717790  0.03846781  0.81054554  1
  O  O12  1  0.39320977  0.94955157  0.69306479  1
  O  O13  1  0.88968654  0.96617727  0.69097522  1
  O  O14  1  0.08824389  0.20119961  0.69117208  1
  O  O15  1  0.59202390  0.22518088  0.69260337  1
  O  O16  1  0.01690113  0.81759992  0.69802842  1
  O  O17  1  0.51628852  0.81833235  0.69856378  1
  O  O18  1  0.38714943  0.81017796  0.18922194  1
  O  O19  1  0.89131218  0.83369737  0.19019999  1
  O  O20  1  0.01809604  0.21668452  0.19641043  1
  O  O21  1  0.51542738  0.21494787  0.19651725  1
  O  O22  1  0.09436888  0.96085139  0.19057340  1
  O  O23  1  0.58888500  0.97428467  0.18837615  1
  O  O24  1  0.44000157  0.36478920  0.64377154  1
  O  O25  1  0.94389032  0.36981922  0.64557426  1
  O  O26  1  0.23795278  0.11442886  0.63719046  1
  O  O27  1  0.74075741  0.11019974  0.64326176  1
  O  O28  1  0.32043844  0.52089753  0.63750748  1
  O  O29  1  0.81617258  0.50720968  0.63997983  1
  O  O30  1  0.44060927  0.51332521  0.14240898  1
  O  O31  1  0.93700899  0.51229236  0.14282602  1
  O  O32  1  0.31421973  0.12395554  0.13728800  1
  O  O33  1  0.82032740  0.12073224  0.13609888  1
  O  O34  1  0.24298944  0.37158566  0.14035212  1
  O  O35  1  0.73764945  0.36112494  0.13590719  1
  O  O36  1  0.21993686  0.28758644  0.02139034  1
  O  O37  1  0.72390570  0.30495778  0.02844112  1
  O  O38  1  0.42616363  0.55227613  0.02233402  1
  O  O39  1  0.92127720  0.54272501  0.02257919  1
  O  O40  1  0.35138103  0.14364291  0.01770033  1
  O  O41  1  0.84200267  0.13916352  0.02749599  1
  O  O42  1  0.22453914  0.14400712  0.52969934  1
  O  O43  1  0.71873644  0.15517462  0.52488227  1
  O  O44  1  0.34213156  0.54487794  0.52896287  1
  O  O45  1  0.85024121  0.54785155  0.51949414  1
  O  O46  1  0.41950748  0.29875720  0.52393360  1
  O  O47  1  0.92648842  0.30338282  0.52490706  1
  O  O48  1  0.27263935  0.69377568  0.97084762  1
  O  O49  1  0.77255531  0.70364634  0.97957716  1
  O  O50  1  0.07965961  0.46027405  0.96935705  1
  O  O51  1  0.57344006  0.45057780  0.96914128  1
  O  O52  1  0.15413682  0.85206536  0.97079978  1
  O  O53  1  0.64290299  0.83830972  0.97547770  1
  O  O54  1  0.27228262  0.84196383  0.47992508  1
  O  O55  1  0.77155143  0.83989575  0.47534602  1
  O  O56  1  0.14505493  0.44847014  0.47619936  1
  O  O57  1  0.64932712  0.44904004  0.47046077  1
  O  O58  1  0.07565844  0.69959008  0.46898830  1
  O  O59  1  0.57556142  0.69360615  0.46936553  1
  O  O60  1  0.06039763  0.63355617  0.36176370  1
  O  O61  1  0.55921468  0.63440681  0.36208836  1
  O  O62  1  0.24992533  0.88155010  0.36452718  1
  O  O63  1  0.75258693  0.88020148  0.35882967  1
  O  O64  1  0.18186208  0.49344918  0.35728132  1
  O  O65  1  0.67458885  0.47969467  0.36203492  1
  O  O66  1  0.06311561  0.48770953  0.86312765  1
  O  O67  1  0.55876461  0.48280559  0.86204833  1
  O  O68  1  0.17811136  0.87068068  0.86285478  1
  O  O69  1  0.67921412  0.86741287  0.85748652  1
  O  O70  1  0.25726711  0.63947260  0.86383445  1
  O  O71  1  0.74957024  0.61851592  0.86481861  1
  O  O72  1  0.01380114  0.82007269  0.41054977  1
  O  O73  1  0.51490905  0.82321235  0.41184515  1
  O  O74  1  0.40947799  0.97720501  0.41385484  1
  O  O75  1  0.90745334  0.97871824  0.41277043  1
  O  O76  1  0.08249145  0.18191097  0.41255548  1
  O  O77  1  0.58874494  0.20120082  0.41194008  1
  O  O78  1  0.01653745  0.20928399  0.91253915  1
  O  O79  1  0.50908450  0.20257188  0.91157336  1
  O  O80  1  0.08996606  0.97371184  0.91282034  1
  O  O81  1  0.57774460  0.97655708  0.91269753  1
  O  O82  1  0.39736931  0.81733118  0.91085418  1
  O  O83  1  0.90996280  0.84181590  0.91374443  1
  O  O84  1  0.48622014  0.15917160  0.58545338  1
  O  O85  1  0.99770462  0.17371852  0.58744195  1
  O  O86  1  0.09997538  0.01816307  0.58972717  1
  O  O87  1  0.58606954  0.01607490  0.59189366  1
  O  O88  1  0.40973999  0.79928243  0.58748391  1
  O  O89  1  0.92248520  0.82325119  0.58835644  1
  O  O90  1  0.49584004  0.82130817  0.08649348  1
  O  O91  1  0.98635254  0.81555753  0.08543816  1
  O  O92  1  0.42246167  0.01909135  0.08842392  1
  O  O93  1  0.90981233  0.02083065  0.08601703  1
  O  O94  1  0.08725777  0.15723403  0.09083855  1
  O  O95  1  0.59936894  0.18225566  0.08827844  1
  O  O96  1  0.34521201  0.16965858  0.74628958  1
  O  O97  1  0.84686585  0.18449962  0.74561098  1
  O  O98  1  0.24461170  0.32197995  0.74230749  1
  O  O99  1  0.74457773  0.31698994  0.74514206  1
  O  O100  1  0.42185390  0.53869432  0.74555915  1
  O  O101  1  0.92488599  0.53634787  0.74650652  1
  O  O102  1  0.34661669  0.51047837  0.24506103  1
  O  O103  1  0.84449919  0.51798774  0.24506819  1
  O  O104  1  0.42350500  0.31212109  0.24519325  1
  O  O105  1  0.92260967  0.30508424  0.24380710  1
  O  O106  1  0.24345425  0.17175415  0.24528916  1
  O  O107  1  0.74364624  0.16507443  0.24063765  1
  O  O108  1  0.32029261  0.50985672  0.92049009  1
  O  O109  1  0.82482309  0.49700146  0.92143764  1
  O  O110  1  0.43361582  0.36002228  0.92147948  1
  O  O111  1  0.93775076  0.35748831  0.92407544  1
  O  O112  1  0.24457287  0.12814990  0.91877792  1
  O  O113  1  0.75226593  0.14309308  0.92228193  1
  O  O114  1  0.32450370  0.15216786  0.42160019  1
  O  O115  1  0.82450763  0.15789979  0.42062632  1
  O  O116  1  0.25526366  0.36661071  0.42241369  1
  O  O117  1  0.74351455  0.36271087  0.41929747  1
  O  O118  1  0.43514704  0.51768925  0.42382525  1
  O  O119  1  0.93584655  0.51290914  0.42157804  1
  O  O120  1  0.18074873  0.50667237  0.07677733  1
  O  O121  1  0.67976507  0.49357149  0.07673878  1
  O  O122  1  0.07713406  0.66398894  0.07770054  1
  O  O123  1  0.58109798  0.65020514  0.07975873  1
  O  O124  1  0.25260877  0.85116448  0.07642338  1
  O  O125  1  0.75514189  0.86540586  0.08020851  1
  O  O126  1  0.17997122  0.86688713  0.57769401  1
  O  O127  1  0.67710822  0.85039361  0.57988960  1
  O  O128  1  0.25541458  0.64580114  0.58134367  1
  O  O129  1  0.75148876  0.64690206  0.57991847  1
  O  O130  1  0.08272181  0.51426616  0.58094761  1
  O  O131  1  0.57860390  0.49416123  0.57470681  1
  O  O132  1  0.14766544  0.81317861  0.25647043  1
  O  O133  1  0.64825922  0.82338547  0.25184995  1
  O  O134  1  0.25261988  0.66309022  0.25091473  1
  O  O135  1  0.75585315  0.67796032  0.25288741  1
  O  O136  1  0.07585019  0.46573273  0.25503642  1
  O  O137  1  0.57596756  0.46164493  0.25656070  1
  O  O138  1  0.15071571  0.47411369  0.75516684  1
  O  O139  1  0.64735425  0.48286404  0.75670358  1
  O  O140  1  0.07736430  0.69122727  0.75745863  1
  O  O141  1  0.57518519  0.68557269  0.75674053  1
  O  O142  1  0.25705865  0.83152393  0.75534876  1
  O  O143  1  0.75336790  0.84420793  0.75100959  1
loop_
_geom_bond_atom_site_label_1
_geom_bond_atom_site_label_2
_geom_bond_distance
_geom_bond_site_symmetry_2
Na0 O107 2.456802 1_565
Na0 O135 2.467145 1_555
Na0 O63 2.508407 1_555
Na0 O133 2.513745 1_555
Na0 O105 2.605664 1_565
Na0 O19 2.892306 1_555
Na0 O33 2.895870 1_565
Na1 O134 2.390969 1_555
Na1 O106 2.437659 1_555
Na1 O102 2.557987 1_555
Na1 O136 2.591948 1_555
Na1 O64 2.624306 1_555
Na1 O34 2.722485 1_555
Na1 O0 2.821998 1_555
Na1 O20 2.943250 1_555
Na2 O103 2.430563 1_555
Na2 O135 2.449539 1_555
Na2 O107 2.492390 1_555
Na2 O137 2.610738 1_555
Na2 O65 2.687370 1_555
Na2 O35 2.780941 1_555
Na2 O1 2.816869 1_555
Na3 O103 2.361802 1_555
Na3 O132 2.445141 1_655
Na3 O31 2.565629 1_555
Na3 O105 2.653652 1_555
Na3 O136 2.679172 1_655
Na3 O3 2.800286 1_555
Na3 O22 2.824739 1_655
Na3 O60 2.896262 1_655
Na4 O133 2.317044 1_555
Na4 O102 2.460342 1_555
Na4 O137 2.629972 1_555
Na4 O104 2.643230 1_555
Na4 O30 2.706346 1_555
Na4 O61 2.735841 1_555
Na4 O2 2.844320 1_555
Na4 O23 2.926255 1_555
Na5 O98 2.440218 1_555
Na5 O142 2.458214 1_555
Na5 O138 2.506516 1_555
Na5 O100 2.559965 1_555
Na5 O28 2.664220 1_555
Na5 O12 2.773963 1_555
Na5 O70 2.809467 1_555
Na6 O138 2.388156 1_555
Na6 O97 2.428137 1_455
Na6 O25 2.538135 1_455
Na6 O101 2.619283 1_455
Na6 O140 2.658357 1_555
Na6 O66 2.862144 1_555
Na6 O14 2.871029 1_555
Na6 O11 2.877360 1_455
Na7 O96 2.387620 1_555
Na7 O139 2.422070 1_555
Na7 O24 2.454600 1_555
Na7 O100 2.647814 1_555
Na7 O141 2.660751 1_555
Na7 O15 2.741706 1_555
Na7 O67 2.954037 1_555
Na7 O10 2.979841 1_555
Na8 O96 2.448745 1_555
Na8 O98 2.476437 1_555
Na8 O142 2.498369 1_545
Na8 O140 2.601732 1_545
Na8 O26 2.683812 1_555
Na8 O68 2.785590 1_545
Na8 O6 2.858851 1_555
Na8 O16 2.986422 1_545
Na9 O143 2.367493 1_545
Na9 O99 2.440780 1_555
Na9 O97 2.530839 1_555
Na9 O27 2.567312 1_555
Na9 O141 2.619006 1_545
Na9 O69 2.701745 1_545
Na9 O7 2.872925 1_555
Na9 O17 2.939583 1_545
Na10 O85 2.355015 1_455
Na10 O130 2.462570 1_555
Na10 O128 2.530955 1_555
Na10 O86 2.539888 1_555
Na10 O56 2.638665 1_555
Na10 O14 2.650274 1_555
Na11 O131 2.453567 1_555
Na11 O129 2.461390 1_555
Na11 O87 2.546739 1_555
Na11 O84 2.668028 1_555
Na11 O15 2.682475 1_555
Na11 O57 2.734815 1_555
Na11 O43 2.754613 1_555
Na11 O29 2.853281 1_555
Na12 O84 2.338858 1_565
Na12 O126 2.528650 1_555
Na12 O88 2.590909 1_555
Na12 O54 2.595139 1_555
Na12 O128 2.670679 1_555
Na12 O46 2.774043 1_565
Na12 O12 2.792368 1_555
Na12 O26 2.904469 1_565
Na13 O127 2.483116 1_555
Na13 O129 2.560700 1_555
Na13 O89 2.580908 1_555
Na13 O85 2.614190 1_565
Na13 O55 2.640999 1_555
Na13 O13 2.696992 1_555
Na13 O47 2.891524 1_565
Na13 O27 2.905839 1_565
Na14 O122 2.438842 1_555
Na14 O94 2.510173 1_565
Na14 O22 2.524508 1_555
Na14 O124 2.546607 1_555
Na14 O91 2.633133 1_455
Na14 O32 2.786973 1_565
Na14 O52 2.821541 1_554
Na14 O36 2.887453 1_565
Na15 O90 2.389231 1_555
Na15 O123 2.478891 1_555
Na15 O23 2.513236 1_555
Na15 O125 2.522262 1_555
Na15 O95 2.546811 1_565
Na15 O53 2.731014 1_554
Na15 O33 2.950637 1_565
Na15 O37 2.997925 1_565
Na16 O120 2.459664 1_555
Na16 O18 2.491069 1_555
Na16 O124 2.543935 1_555
Na16 O90 2.554973 1_555
Na16 O92 2.563038 1_565
Na16 O34 2.797940 1_555
Na16 O48 2.868408 1_554
Na16 O38 2.942637 1_555
Na17 O91 2.348336 1_555
Na17 O121 2.531578 1_555
Na17 O93 2.572925 1_565
Na17 O19 2.642693 1_555
Na17 O125 2.648508 1_555
Na17 O49 2.662320 1_554
Na17 O39 2.854124 1_555
Na17 O35 2.881920 1_555
Na18 O81 2.393654 1_555
Na18 O38 2.470390 1_556
Na18 O82 2.523687 1_555
Na18 O110 2.540856 1_555
Na18 O108 2.607592 1_555
Na18 O53 2.752287 1_555
Na18 O8 2.795346 1_555
Na19 O109 2.359813 1_555
Na19 O83 2.424964 1_555
Na19 O39 2.486986 1_556
Na19 O111 2.528301 1_555
Na19 O80 2.538019 1_655
Na19 O9 2.763347 1_555
Na20 O79 2.464858 1_555
Na20 O40 2.470317 1_556
Na20 O112 2.474716 1_555
Na20 O82 2.518715 1_545
Na20 O110 2.537581 1_555
Na20 O10 2.589056 1_555
Na21 O113 2.443788 1_555
Na21 O83 2.463459 1_545
Na21 O11 2.475524 1_555
Na21 O111 2.604337 1_555
Na21 O78 2.648810 1_655
Na21 O41 2.798111 1_556
Na21 O69 2.945058 1_545
Na21 O49 2.976838 1_545
Na22 O78 2.432017 1_555
Na22 O80 2.503340 1_545
Na22 O108 2.504063 1_555
Na22 O112 2.523249 1_555
Na22 O36 2.588060 1_556
Na22 O6 2.597479 1_555
Na23 O7 2.454716 1_555
Na23 O109 2.463702 1_555
Na23 O113 2.469574 1_555
Na23 O81 2.519249 1_545
Na23 O79 2.648810 1_555
Na23 O71 2.737312 1_555
Na23 O37 2.823063 1_556
Na24 O114 2.404912 1_555
Na24 O74 2.464218 1_545
Na24 O46 2.527880 1_555
Na24 O77 2.528145 1_555
Na24 O118 2.552854 1_555
Na24 O4 2.798723 1_555
Na24 O57 2.942594 1_555
Na24 O61 3.029089 1_555
Na25 O75 2.360236 1_545
Na25 O115 2.408355 1_555
Na25 O76 2.483751 1_655
Na25 O47 2.502846 1_555
Na25 O119 2.595524 1_555
Na25 O5 2.803568 1_555
Na25 O56 2.930185 1_655
Na26 O76 2.428486 1_555
Na26 O114 2.490050 1_555
Na26 O0 2.494463 1_555
Na26 O116 2.512802 1_555
Na26 O72 2.555626 1_545
Na26 O62 2.761533 1_545
Na26 O42 2.857995 1_555
Na27 O115 2.387851 1_555
Na27 O73 2.560788 1_545
Na27 O117 2.570754 1_555
Na27 O77 2.631825 1_555
Na27 O43 2.674628 1_555
Na27 O1 2.717013 1_555
Na27 O63 2.755131 1_545
Na28 O116 2.410621 1_555
Na28 O74 2.456104 1_555
Na28 O2 2.511840 1_555
Na28 O118 2.546233 1_555
Na28 O73 2.601445 1_555
Na28 O44 2.827285 1_555
Na28 O64 2.929037 1_555
Na28 O54 2.993867 1_555
Na29 O75 2.382370 1_555
Na29 O117 2.543718 1_555
Na29 O45 2.572305 1_555
Na29 O72 2.587591 1_655
Na29 O119 2.660825 1_555
Na29 O3 2.707721 1_555
Na29 O55 2.803188 1_555
Na30 O75 2.382221 1_555
Na30 O76 2.478149 1_665
Na30 O89 2.521887 1_555
Na30 O85 2.566169 1_565
Na30 O72 2.654632 1_655
Na30 O86 2.833696 1_665
Na31 O84 2.479910 1_555
Na31 O74 2.497993 1_545
Na31 O87 2.556630 1_555
Na31 O77 2.588183 1_555
Na31 O88 2.628730 1_545
Na31 O73 2.642357 1_545
Na32 O91 2.422882 1_555
Na32 O83 2.505282 1_554
Na32 O94 2.535704 1_665
Na32 O93 2.539502 1_565
Na32 O80 2.657001 1_654
Na32 O78 2.689905 1_664
Na33 O92 2.445605 1_565
Na33 O90 2.460395 1_555
Na33 O81 2.492930 1_554
Na33 O95 2.610568 1_565
Na33 O79 2.697280 1_564
Na33 O82 2.724411 1_554
Na34 O96 2.331394 1_555
Na34 O98 2.393594 1_555
Na34 O100 2.546811 1_555
Na34 O112 2.670148 1_555
Na34 O108 2.802131 1_555
Na34 O110 2.828972 1_555
Na35 O99 2.422897 1_555
Na35 O109 2.492341 1_555
Na35 O97 2.499982 1_555
Na35 O113 2.526003 1_555
Na35 O101 2.651938 1_555
Na35 O111 2.842158 1_555
Na36 O114 2.458870 1_555
Na36 O116 2.475478 1_555
Na36 O106 2.480848 1_555
Na36 O102 2.558820 1_555
Na36 O104 2.689442 1_555
Na36 O118 2.767311 1_555
Na37 O115 2.481574 1_555
Na37 O107 2.515952 1_555
Na37 O103 2.539281 1_555
Na37 O117 2.603542 1_555
Na37 O105 2.661620 1_555
Na37 O119 2.779550 1_555
Na38 O134 2.446948 1_555
Na38 O132 2.473160 1_555
Na38 O124 2.565502 1_555
Na38 O122 2.612861 1_555
Na38 O120 2.619807 1_555
Na38 O136 2.642255 1_555
Na39 O133 2.332594 1_555
Na39 O135 2.396899 1_555
Na39 O137 2.529240 1_555
Na39 O123 2.587431 1_555
Na39 O125 2.714059 1_555
Na39 O121 2.801033 1_555
Na40 O138 2.462260 1_555
Na40 O130 2.463953 1_555
Na40 O142 2.520940 1_555
Na40 O140 2.579928 1_555
Na40 O128 2.636042 1_555
Na40 O126 2.725893 1_555
Na41 O129 2.419495 1_555
Na41 O127 2.474517 1_555
Na41 O143 2.532366 1_555
Na41 O139 2.569697 1_555
Na41 O131 2.570855 1_555
Na41 O141 2.762378 1_555
Mg0 O3 1.991088 1_555
Mg0 O0 2.031807 1_665
Mg0 O75 2.077440 1_555
Mg0 O76 2.112081 1_665
Mg0 O5 2.120638 1_565
Mg0 O72 2.218494 1_655
Mg1 O1 1.977446 1_565
Mg1 O2 1.981117 1_555
Mg1 O4 2.115734 1_565
Mg1 O74 2.121497 1_555
Mg1 O73 2.244388 1_555
Mg1 O77 2.332560 1_565
Mg2 O11 1.960130 1_565
Mg2 O6 1.992219 1_665
Mg2 O9 2.068272 1_555
Mg2 O83 2.125893 1_555
Mg2 O78 2.309559 1_665
Mg2 O80 2.415912 1_655
Mg3 O7 1.939969 1_555
Mg3 O10 1.976852 1_555
Mg3 O8 2.084855 1_545
Mg3 O81 2.103390 1_545
Mg3 O79 2.271368 1_555
Mg3 O82 2.348931 1_545
Mg4 O24 1.963082 1_555
Mg4 O96 2.043061 1_555
Mg4 O98 2.065922 1_555
Mg4 O26 2.158021 1_555
Mg4 O28 2.206132 1_555
Mg4 O100 2.242911 1_555
Mg5 O31 1.968589 1_555
Mg5 O103 1.991214 1_555
Mg5 O107 2.022299 1_555
Mg5 O105 2.190976 1_555
Mg5 O35 2.210440 1_555
Mg5 O33 2.219806 1_555
Mg6 O40 1.950940 1_556
Mg6 O38 1.961517 1_556
Mg6 O36 1.977823 1_556
Mg6 O110 2.364710 1_555
Mg6 O108 2.443135 1_555
Mg6 O112 2.473131 1_555
Mg7 O39 1.982938 1_556
Mg7 O109 2.009917 1_555
Mg7 O37 2.107568 1_556
Mg7 O113 2.120662 1_555
Mg7 O41 2.186224 1_556
Mg7 O111 2.222571 1_555
Mg8 O46 1.973520 1_555
Mg8 O114 2.001452 1_555
Mg8 O116 2.096688 1_555
Mg8 O42 2.149484 1_555
Mg8 O118 2.170483 1_555
Mg8 O44 2.199724 1_555
Mg9 O47 1.991643 1_555
Mg9 O43 2.006276 1_555
Mg9 O45 2.029730 1_555
Mg9 O115 2.091382 1_555
Mg9 O119 2.346060 1_555
Mg9 O117 2.407927 1_555
Mg10 O63 1.920278 1_555
Mg10 O135 2.021323 1_555
Mg10 O133 2.048388 1_555
Mg10 O61 2.180273 1_555
Mg10 O65 2.197817 1_555
Mg10 O137 2.323532 1_555
Mg11 O142 1.975106 1_555
Mg11 O138 1.995085 1_555
Mg11 O70 2.120915 1_555
Mg11 O66 2.132018 1_555
Mg11 O140 2.161205 1_555
Mg11 O68 2.168531 1_555
O0 Si0 1.597279 1_545
O1 Si1 1.619672 1_555
O2 Si2 1.600165 1_555
O3 Si3 1.610398 1_555
O4 S1 1.468870 1_555
O5 S0 1.464067 1_655
O6 Si4 1.629022 1_555
O7 Si5 1.605972 1_555
O8 S3 1.476156 1_555
O9 S2 1.474832 1_555
O10 Si6 1.621279 1_545
O11 Si7 1.607653 1_555
O12 Si6 1.703119 1_555
O12 Sn1 1.994754 1_565
O13 Si7 1.634450 1_565
O13 Sn0 1.974045 1_565
O14 Si4 1.689882 1_555
O14 Sn0 2.014126 1_455
O15 Si5 1.658735 1_555
O15 Sn1 2.006195 1_555
O16 S2 1.497685 1_455
O16 Sn0 2.215019 1_465
O17 S3 1.489184 1_555
O17 Sn1 2.260890 1_565
O18 Si2 1.647432 1_555
O18 Sn3 1.976357 1_555
O19 Si3 1.726488 1_555
O19 Sn2 1.986277 1_655
O20 S0 1.505472 1_555
O20 Sn2 2.208678 1_545
O21 S1 1.509227 1_555
O21 Sn3 2.168474 1_545
O22 Si0 1.671052 1_555
O22 Sn2 2.002986 1_555
O23 Si1 1.709656 1_565
O23 Sn3 1.982684 1_555
O24 Si8 1.610366 1_555
O25 Si9 1.647234 1_555
O25 Sn4 2.049085 1_555
O26 S4 1.479825 1_555
O27 Si10 1.661908 1_555
O27 Sn4 2.021239 1_555
O28 S5 1.475047 1_555
O29 Si11 1.648405 1_555
O29 Sn4 1.977685 1_555
O30 Si12 1.638101 1_555
O30 Sn5 2.050308 1_555
O31 Si13 1.596384 1_555
O32 Si14 1.636068 1_555
O32 Sn5 2.008257 1_555
O33 S6 1.466067 1_555
O34 Si15 1.648665 1_555
O34 Sn5 2.040935 1_555
O35 S7 1.468628 1_555
O36 Si15 1.616612 1_555
O37 S7 1.472719 1_555
O38 Si12 1.611937 1_555
O39 Si13 1.612836 1_555
O40 Si14 1.602171 1_555
O41 S6 1.468672 1_555
O42 S4 1.464957 1_555
O43 Si10 1.604453 1_555
O44 S5 1.461174 1_555
O45 Si11 1.596229 1_555
O46 Si8 1.611026 1_555
O47 Si9 1.592168 1_555
O48 S8 1.519192 1_555
O48 Sn6 2.187905 1_556
O49 Si16 1.688106 1_555
O49 Sn7 1.990848 1_556
O50 S9 1.515599 1_555
O50 Sn6 2.131173 1_556
O51 S10 1.508606 1_555
O51 Sn7 2.139906 1_556
O52 S11 1.520627 1_555
O52 Sn6 2.179117 1_556
O53 Si17 1.669157 1_555
O53 Sn7 1.976227 1_556
O54 Si18 1.693476 1_555
O54 Sn8 1.992934 1_555
O55 Si19 1.698239 1_555
O55 Sn9 1.983237 1_555
O56 Si20 1.671921 1_555
O56 Sn8 1.963972 1_555
O57 S12 1.514659 1_555
O57 Sn9 2.207067 1_555
O58 S13 1.516111 1_555
O58 Sn8 2.094942 1_555
O59 S14 1.496063 1_555
O59 Sn9 2.193130 1_555
O60 S13 1.503445 1_555
O60 Sn10 2.223739 1_555
O61 S14 1.480154 1_555
O62 Si18 1.646768 1_555
O62 Sn10 1.949855 1_555
O63 Si19 1.616213 1_555
O64 Si20 1.668363 1_555
O64 Sn10 2.005872 1_555
O65 S12 1.478007 1_555
O66 S9 1.474160 1_555
O67 S10 1.495300 1_555
O67 Sn11 2.286431 1_555
O68 S11 1.473770 1_555
O69 Si17 1.663045 1_555
O69 Sn11 2.009193 1_555
O70 S8 1.472517 1_555
O71 Si16 1.646969 1_555
O71 Sn11 1.953126 1_555
O72 S13 1.464779 1_555
O73 S14 1.489371 1_555
O74 Si18 1.630963 1_555
O75 Si19 1.638888 1_555
O76 Si20 1.614070 1_555
O77 S12 1.492052 1_555
O78 S9 1.482979 1_555
O79 S10 1.473509 1_555
O80 S11 1.484493 1_555
O81 Si17 1.635995 1_555
O82 S8 1.482993 1_555
O83 Si16 1.634616 1_555
O84 Si8 1.715305 1_555
O84 Sn1 2.034993 1_555
O85 Si9 1.684824 1_555
O85 Sn0 2.060320 1_555
O86 S4 1.493369 1_555
O86 Sn0 2.273073 1_455
O87 Si10 1.664279 1_555
O87 Sn1 1.998566 1_555
O88 S5 1.493989 1_555
O88 Sn1 2.349774 1_565
O89 Si11 1.677185 1_555
O89 Sn0 2.024925 1_565
O90 Si12 1.678727 1_555
O90 Sn3 2.095530 1_555
O91 Si13 1.705219 1_555
O91 Sn2 2.060187 1_655
O92 Si14 1.659030 1_555
O92 Sn3 2.040697 1_545
O93 S6 1.490986 1_555
O93 Sn2 2.387375 1_645
O94 Si15 1.653698 1_555
O94 Sn2 2.041408 1_545
O95 S7 1.495691 1_555
O95 Sn3 2.314290 1_545
O96 Si6 1.636654 1_545
O97 Si7 1.662960 1_555
O97 Sn4 2.096012 1_555
O98 Si4 1.641309 1_555
O99 Si5 1.642120 1_555
O99 Sn4 2.079247 1_555
O100 S3 1.483107 1_555
O101 S2 1.479544 1_555
O101 Sn4 2.354714 1_555
O102 Si2 1.666921 1_555
O102 Sn5 2.077758 1_555
O103 Si3 1.635780 1_555
O104 S1 1.490370 1_555
O104 Sn5 2.290443 1_555
O105 S0 1.478368 1_655
O106 Si0 1.653923 1_545
O106 Sn5 2.061919 1_555
O107 Si1 1.633844 1_555
O108 S8 1.486710 1_555
O109 Si16 1.618398 1_555
O110 S10 1.481069 1_555
O111 S9 1.478149 1_655
O112 S11 1.486232 1_545
O113 Si17 1.625699 1_545
O114 Si18 1.615909 1_545
O115 Si19 1.649020 1_545
O116 Si20 1.627084 1_555
O117 S12 1.478497 1_555
O118 S14 1.485004 1_555
O119 S13 1.464947 1_655
O120 Si15 1.653932 1_555
O120 Sn6 1.982348 1_555
O121 S7 1.516542 1_555
O121 Sn7 2.234425 1_555
O122 Si13 1.679509 1_455
O122 Sn6 1.971303 1_555
O123 Si12 1.688058 1_555
O123 Sn7 2.012789 1_555
O124 Si14 1.687319 1_565
O124 Sn6 2.029203 1_555
O125 S6 1.548454 1_565
O125 Sn7 2.249383 1_555
O126 S4 1.514215 1_565
O126 Sn8 2.261775 1_555
O127 Si10 1.642038 1_565
O127 Sn9 2.020325 1_555
O128 S5 1.540662 1_555
O128 Sn8 2.296907 1_555
O129 Si11 1.679308 1_555
O129 Sn9 2.067212 1_555
O130 Si9 1.695900 1_455
O130 Sn8 2.022840 1_555
O131 Si8 1.664790 1_555
O131 Sn9 2.016513 1_555
O132 Si0 1.677199 1_555
O132 Sn10 2.024870 1_555
O133 Si1 1.641465 1_565
O134 Si2 1.661656 1_555
O134 Sn10 2.016592 1_555
O135 Si3 1.641417 1_555
O136 S0 1.502414 1_555
O136 Sn10 2.375892 1_555
O137 S1 1.484720 1_555
O138 Si4 1.646285 1_555
O139 Si5 1.677251 1_555
O139 Sn11 2.009596 1_555
O140 S2 1.496624 1_455
O141 S3 1.499922 1_555
O141 Sn11 2.361545 1_555
O142 Si6 1.641623 1_555
O143 Si7 1.663939 1_565
O143 Sn11 1.999637 1_555
