# generated using pymatgen
data_Na3Mg2Nb4(PO4)9
_symmetry_space_group_name_H-M   'P 1'
_cell_length_a   8.74714113
_cell_length_b   8.74714086
_cell_length_c   22.80585222
_cell_angle_alpha   90.00000000
_cell_angle_beta   90.00000000
_cell_angle_gamma   120.00000107
_symmetry_Int_Tables_number   1
_chemical_formula_structural   Na3Mg2Nb4(PO4)9
_chemical_formula_sum   'Na6 Mg4 Nb8 P18 O72'
_cell_volume   1511.15560579
_cell_formula_units_Z   2
loop_
 _symmetry_equiv_pos_site_id
 _symmetry_equiv_pos_as_xyz
  1  'x, y, z'
loop_
 _atom_site_type_symbol
 _atom_site_label
 _atom_site_symmetry_multiplicity
 _atom_site_fract_x
 _atom_site_fract_y
 _atom_site_fract_z
 _atom_site_occupancy
  Na  Na0  1  -0.00000000  0.00000000  0.49403598  1
  Na  Na1  1  -0.00000000  0.00000000  0.99403598  1
  Na  Na2  1  0.66666700  0.33333300  0.82333789  1
  Na  Na3  1  0.66666700  0.33333300  0.32333789  1
  Na  Na4  1  0.33333300  0.66666700  0.16706058  1
  Na  Na5  1  0.33333300  0.66666700  0.66706058  1
  Mg  Mg0  1  -0.00000000  0.00000000  0.35397615  1
  Mg  Mg1  1  -0.00000000  0.00000000  0.85397615  1
  Mg  Mg2  1  0.66666700  0.33333300  0.68677868  1
  Mg  Mg3  1  0.66666700  0.33333300  0.18677868  1
  Nb  Nb0  1  -0.00000000  0.00000000  0.64899319  1
  Nb  Nb1  1  -0.00000000  0.00000000  0.14899319  1
  Nb  Nb2  1  0.66666700  0.33333300  0.97841097  1
  Nb  Nb3  1  0.66666700  0.33333300  0.47841097  1
  Nb  Nb4  1  0.33333300  0.66666700  0.02061171  1
  Nb  Nb5  1  0.33333300  0.66666700  0.52061171  1
  Nb  Nb6  1  0.33333300  0.66666700  0.30887148  1
  Nb  Nb7  1  0.33333300  0.66666700  0.80887148  1
  P  P0  1  0.29254238  0.00845092  0.25310392  1
  P  P1  1  0.71590854  0.70745762  0.25310392  1
  P  P2  1  0.99154908  0.28409146  0.25310392  1
  P  P3  1  0.29254238  0.28409146  0.75310392  1
  P  P4  1  0.99154908  0.70745762  0.75310392  1
  P  P5  1  0.71590854  0.00845092  0.75310392  1
  P  P6  1  0.95245987  0.33163037  0.58492070  1
  P  P7  1  0.37917150  0.04754013  0.58492070  1
  P  P8  1  0.66836963  0.62082850  0.58492070  1
  P  P9  1  0.95245987  0.62082850  0.08492070  1
  P  P10  1  0.66836963  0.04754013  0.08492070  1
  P  P11  1  0.37917150  0.33163037  0.08492070  1
  P  P12  1  0.62490263  0.67075305  0.91600377  1
  P  P13  1  0.04584942  0.37509737  0.91600377  1
  P  P14  1  0.32924695  0.95415058  0.91600377  1
  P  P15  1  0.62490263  0.95415058  0.41600377  1
  P  P16  1  0.32924695  0.37509737  0.41600377  1
  P  P17  1  0.04584942  0.67075305  0.41600377  1
  O  O0  1  0.20409164  0.02556746  0.30653623  1
  O  O1  1  0.82147582  0.79590836  0.30653623  1
  O  O2  1  0.97443254  0.17852418  0.30653623  1
  O  O3  1  0.20409164  0.17852418  0.80653623  1
  O  O4  1  0.97443254  0.79590836  0.80653623  1
  O  O5  1  0.82147582  0.02556746  0.80653623  1
  O  O6  1  0.80055462  0.97138767  0.69574960  1
  O  O7  1  0.17083304  0.19944538  0.69574960  1
  O  O8  1  0.02861233  0.82916696  0.69574960  1
  O  O9  1  0.80055462  0.82916696  0.19574960  1
  O  O10  1  0.02861233  0.19944538  0.19574960  1
  O  O11  1  0.17083304  0.97138767  0.19574960  1
  O  O12  1  0.87855029  0.36806360  0.63861480  1
  O  O13  1  0.48951431  0.12144971  0.63861480  1
  O  O14  1  0.63193640  0.51048569  0.63861480  1
  O  O15  1  0.87855029  0.51048569  0.13861480  1
  O  O16  1  0.63193640  0.12144971  0.13861480  1
  O  O17  1  0.48951431  0.36806360  0.13861480  1
  O  O18  1  0.46714635  0.30653699  0.02824925  1
  O  O19  1  0.83939164  0.53285365  0.02824925  1
  O  O20  1  0.69346301  0.16060836  0.02824925  1
  O  O21  1  0.46714635  0.16060836  0.52824925  1
  O  O22  1  0.69346301  0.53285365  0.52824925  1
  O  O23  1  0.83939164  0.30653699  0.52824925  1
  O  O24  1  0.52607991  0.68489677  0.97116623  1
  O  O25  1  0.15881586  0.47392009  0.97116623  1
  O  O26  1  0.31510323  0.84118414  0.97116623  1
  O  O27  1  0.52607991  0.84118414  0.47116623  1
  O  O28  1  0.31510323  0.47392009  0.47116623  1
  O  O29  1  0.15881586  0.68489677  0.47116623  1
  O  O30  1  0.13268345  0.63635560  0.36192896  1
  O  O31  1  0.50367115  0.86731655  0.36192896  1
  O  O32  1  0.36364440  0.49632885  0.36192896  1
  O  O33  1  0.13268345  0.49632885  0.86192896  1
  O  O34  1  0.36364440  0.86731655  0.86192896  1
  O  O35  1  0.50367115  0.63635560  0.86192896  1
  O  O36  1  0.02581608  0.83028031  0.41329525  1
  O  O37  1  0.80446423  0.97418392  0.41329525  1
  O  O38  1  0.16971969  0.19553577  0.41329525  1
  O  O39  1  0.02581608  0.19553577  0.91329525  1
  O  O40  1  0.16971969  0.97418392  0.91329525  1
  O  O41  1  0.80446423  0.83028031  0.91329525  1
  O  O42  1  0.97567456  0.16669018  0.58879165  1
  O  O43  1  0.19101562  0.02432544  0.58879165  1
  O  O44  1  0.83330982  0.80898438  0.58879165  1
  O  O45  1  0.97567456  0.80898438  0.08879165  1
  O  O46  1  0.83330982  0.02432544  0.08879165  1
  O  O47  1  0.19101562  0.16669018  0.08879165  1
  O  O48  1  0.68416758  0.15964164  0.74268934  1
  O  O49  1  0.47547506  0.31583242  0.74268934  1
  O  O50  1  0.84035836  0.52452494  0.74268934  1
  O  O51  1  0.68416758  0.52452494  0.24268934  1
  O  O52  1  0.84035836  0.31583242  0.24268934  1
  O  O53  1  0.47547506  0.15964164  0.24268934  1
  O  O54  1  0.63362682  0.49694668  0.92479002  1
  O  O55  1  0.86332086  0.36637318  0.92479002  1
  O  O56  1  0.50305332  0.13667914  0.92479002  1
  O  O57  1  0.63362682  0.13667914  0.42479002  1
  O  O58  1  0.50305332  0.36637318  0.42479002  1
  O  O59  1  0.86332086  0.49694668  0.42479002  1
  O  O60  1  0.35222517  0.49382826  0.07311801  1
  O  O61  1  0.14160208  0.64777483  0.07311801  1
  O  O62  1  0.50617174  0.85839792  0.07311801  1
  O  O63  1  0.35222517  0.85839792  0.57311801  1
  O  O64  1  0.50617174  0.64777483  0.57311801  1
  O  O65  1  0.14160208  0.49382826  0.57311801  1
  O  O66  1  0.30134764  0.82947202  0.25701673  1
  O  O67  1  0.52812337  0.69865236  0.25701673  1
  O  O68  1  0.17052798  0.47187663  0.25701673  1
  O  O69  1  0.30134764  0.47187663  0.75701673  1
  O  O70  1  0.17052798  0.69865236  0.75701673  1
  O  O71  1  0.52812337  0.82947202  0.75701673  1
loop_
_geom_bond_atom_site_label_1
_geom_bond_atom_site_label_2
_geom_bond_distance
_geom_bond_site_symmetry_2
Na0 O38 2.445561 1_555
Na0 O36 2.445561 1_545
Na0 O37 2.445561 1_445
Na0 O44 2.674194 1_445
Na0 O42 2.674194 1_455
Na0 O43 2.674194 1_555
Na1 O39 2.445561 1_555
Na1 O41 2.445561 1_445
Na1 O40 2.445561 1_545
Na1 O45 2.674194 1_446
Na1 O47 2.674194 1_556
Na1 O46 2.674194 1_456
Na2 O50 2.438681 1_555
Na2 O48 2.438681 1_555
Na2 O49 2.438681 1_555
Na2 O56 2.810436 1_555
Na2 O54 2.810436 1_555
Na2 O55 2.810436 1_555
Na3 O51 2.438681 1_555
Na3 O53 2.438681 1_555
Na3 O52 2.438681 1_555
Na3 O57 2.810436 1_555
Na3 O59 2.810436 1_555
Na3 O58 2.810436 1_555
Na4 O68 2.591036 1_555
Na4 O67 2.591036 1_555
Na4 O66 2.591036 1_555
Na4 O60 2.674485 1_555
Na4 O62 2.674485 1_555
Na4 O61 2.674485 1_555
Na5 O69 2.591036 1_555
Na5 O71 2.591036 1_555
Na5 O70 2.591036 1_555
Na5 O64 2.674485 1_555
Na5 O65 2.674485 1_555
Na5 O63 2.674485 1_555
Mg0 O1 2.002073 1_445
Mg0 O2 2.002073 1_455
Mg0 O0 2.002073 1_555
Mg0 O38 2.102448 1_555
Mg0 O36 2.102448 1_545
Mg0 O37 2.102448 1_445
Mg1 O4 2.002073 1_445
Mg1 O3 2.002073 1_555
Mg1 O5 2.002073 1_455
Mg1 O39 2.102448 1_555
Mg1 O41 2.102448 1_445
Mg1 O40 2.102448 1_545
Mg2 O13 2.042244 1_555
Mg2 O14 2.042244 1_555
Mg2 O12 2.042244 1_555
Mg2 O50 2.046984 1_555
Mg2 O48 2.046984 1_555
Mg2 O49 2.046984 1_555
Mg3 O16 2.042244 1_555
Mg3 O15 2.042244 1_555
Mg3 O17 2.042244 1_555
Mg3 O51 2.046984 1_555
Mg3 O53 2.046984 1_555
Mg3 O52 2.046984 1_555
Nb0 O8 1.951051 1_545
Nb0 O7 1.951051 1_555
Nb0 O6 1.951051 1_445
Nb0 O44 2.089605 1_445
Nb0 O42 2.089605 1_455
Nb0 O43 2.089605 1_555
Nb1 O11 1.951051 1_545
Nb1 O9 1.951051 1_445
Nb1 O10 1.951051 1_555
Nb1 O45 2.089605 1_445
Nb1 O47 2.089605 1_555
Nb1 O46 2.089605 1_455
Nb2 O19 1.995893 1_556
Nb2 O20 1.995893 1_556
Nb2 O18 1.995893 1_556
Nb2 O56 2.010161 1_555
Nb2 O54 2.010161 1_555
Nb2 O55 2.010161 1_555
Nb3 O22 1.995893 1_555
Nb3 O21 1.995893 1_555
Nb3 O23 1.995893 1_555
Nb3 O57 2.010161 1_555
Nb3 O59 2.010161 1_555
Nb3 O58 2.010161 1_555
Nb4 O25 1.967413 1_554
Nb4 O26 1.967413 1_554
Nb4 O24 1.967413 1_554
Nb4 O60 1.999177 1_555
Nb4 O62 1.999177 1_555
Nb4 O61 1.999177 1_555
Nb5 O28 1.967413 1_555
Nb5 O27 1.967413 1_555
Nb5 O29 1.967413 1_555
Nb5 O64 1.999177 1_555
Nb5 O65 1.999177 1_555
Nb5 O63 1.999177 1_555
Nb6 O68 1.975659 1_555
Nb6 O67 1.975659 1_555
Nb6 O66 1.975659 1_555
Nb6 O31 2.037035 1_555
Nb6 O32 2.037035 1_555
Nb6 O30 2.037035 1_555
Nb7 O69 1.975659 1_555
Nb7 O71 1.975659 1_555
Nb7 O70 1.975659 1_555
Nb7 O34 2.037035 1_555
Nb7 O33 2.037035 1_555
Nb7 O35 2.037035 1_555
O0 P0 1.490558 1_555
O1 P1 1.490558 1_555
O2 P2 1.490558 1_555
O3 P3 1.490558 1_555
O4 P4 1.490558 1_555
O5 P5 1.490558 1_555
O6 P5 1.613770 1_565
O7 P3 1.613770 1_555
O8 P4 1.613770 1_455
O9 P1 1.613770 1_555
O10 P2 1.613770 1_455
O11 P0 1.613770 1_565
O12 P6 1.491659 1_555
O13 P7 1.491659 1_555
O14 P8 1.491659 1_555
O15 P9 1.491659 1_555
O16 P10 1.491659 1_555
O17 P11 1.491659 1_555
O18 P11 1.574695 1_555
O19 P9 1.574695 1_555
O20 P10 1.574695 1_555
O21 P7 1.574695 1_555
O22 P8 1.574695 1_555
O23 P6 1.574695 1_555
O24 P12 1.565917 1_555
O25 P13 1.565917 1_555
O26 P14 1.565917 1_555
O27 P15 1.565917 1_555
O28 P16 1.565917 1_555
O29 P17 1.565917 1_555
O30 P17 1.554610 1_555
O31 P15 1.554610 1_555
O32 P16 1.554610 1_555
O33 P13 1.554610 1_555
O34 P14 1.554610 1_555
O35 P12 1.554610 1_555
O36 P17 1.492048 1_555
O37 P15 1.492057 1_555
O38 P16 1.492053 1_555
O39 P13 1.492057 1_555
O40 P14 1.492048 1_555
O41 P12 1.492053 1_555
O42 P6 1.556772 1_555
O43 P7 1.556781 1_555
O44 P8 1.556777 1_555
O45 P9 1.556781 1_555
O46 P10 1.556772 1_555
O47 P11 1.556777 1_555
O48 P5 1.499882 1_555
O49 P3 1.499891 1_555
O50 P4 1.499888 1_555
O51 P1 1.499891 1_555
O52 P2 1.499882 1_555
O53 P0 1.499888 1_555
O54 P12 1.572683 1_555
O55 P13 1.572665 1_655
O56 P14 1.572673 1_545
O57 P15 1.572665 1_545
O58 P16 1.572683 1_555
O59 P17 1.572673 1_655
O60 P11 1.573315 1_555
O61 P9 1.573298 1_455
O62 P10 1.573304 1_565
O63 P7 1.573298 1_565
O64 P8 1.573315 1_555
O65 P6 1.573304 1_455
O66 P0 1.607928 1_565
O67 P1 1.607937 1_555
O68 P2 1.607933 1_455
O69 P3 1.607937 1_555
O70 P4 1.607928 1_455
O71 P5 1.607933 1_565
