# generated using pymatgen
data_Na14Hf4Zn4Si7S5O48
_symmetry_space_group_name_H-M   'P 1'
_cell_length_a   18.33100813
_cell_length_b   9.19596212
_cell_length_c   22.45571618
_cell_angle_alpha   90.17754241
_cell_angle_beta   89.52824904
_cell_angle_gamma   119.95047610
_symmetry_Int_Tables_number   1
_chemical_formula_structural   Na14Hf4Zn4Si7S5O48
_chemical_formula_sum   'Na42 Hf12 Zn12 Si21 S15 O144'
_cell_volume   3279.76374660
_cell_formula_units_Z   3
loop_
 _symmetry_equiv_pos_site_id
 _symmetry_equiv_pos_as_xyz
  1  'x, y, z'
loop_
 _atom_site_type_symbol
 _atom_site_label
 _atom_site_symmetry_multiplicity
 _atom_site_fract_x
 _atom_site_fract_y
 _atom_site_fract_z
 _atom_site_occupancy
  Na  Na0  1  0.80722342  0.99042446  0.25630505  1
  Na  Na1  1  0.18354272  0.35448412  0.25707013  1
  Na  Na2  1  0.69160859  0.37029238  0.25736933  1
  Na  Na3  1  0.99035153  0.63923613  0.24512670  1
  Na  Na4  1  0.50296630  0.64695311  0.25383576  1
  Na  Na5  1  0.30827252  0.62529366  0.74494801  1
  Na  Na6  1  0.00117894  0.35490562  0.74792765  1
  Na  Na7  1  0.49273980  0.34746759  0.73922498  1
  Na  Na8  1  0.19105055  0.01357959  0.75265676  1
  Na  Na9  1  0.68631297  0.01427406  0.75226265  1
  Na  Na10  1  0.14873039  0.33090325  0.58553184  1
  Na  Na11  1  0.65804834  0.33596355  0.57986390  1
  Na  Na12  1  0.33767140  0.99162371  0.57907343  1
  Na  Na13  1  0.83594435  0.98028646  0.57747335  1
  Na  Na14  1  0.15618996  0.98003617  0.08600701  1
  Na  Na15  1  0.64918954  0.96660639  0.08989955  1
  Na  Na16  1  0.33611710  0.69043015  0.08637340  1
  Na  Na17  1  0.83669183  0.68744615  0.08371786  1
  Na  Na18  1  0.48119497  0.67693098  0.92442434  1
  Na  Na19  1  0.97410324  0.66685992  0.92049370  1
  Na  Na20  1  0.35487854  0.04476749  0.91542160  1
  Na  Na21  1  0.85116433  0.03479147  0.91034768  1
  Na  Na22  1  0.16802927  0.28440587  0.91450599  1
  Na  Na23  1  0.67184773  0.28912452  0.90816875  1
  Na  Na24  1  0.47673459  0.28538534  0.42105804  1
  Na  Na25  1  0.97407391  0.27175958  0.42453650  1
  Na  Na26  1  0.16950825  0.05567724  0.40771411  1
  Na  Na27  1  0.67700692  0.04552026  0.41269928  1
  Na  Na28  1  0.35286222  0.66913148  0.41063263  1
  Na  Na29  1  0.85159768  0.67664155  0.41773582  1
  Na  Na30  1  0.99133933  0.99585890  0.49244187  1
  Na  Na31  1  0.50366109  0.00207424  0.49548959  1
  Na  Na32  1  0.99941589  0.99964439  0.99851346  1
  Na  Na33  1  0.49913689  0.00030637  0.99927595  1
  Na  Na34  1  0.32605048  0.31940745  0.82442380  1
  Na  Na35  1  0.82337704  0.33193544  0.83383872  1
  Na  Na36  1  0.32503827  0.31664367  0.33689317  1
  Na  Na37  1  0.82404904  0.31706967  0.33270072  1
  Na  Na38  1  0.16907913  0.67748190  0.17020212  1
  Na  Na39  1  0.66181911  0.66395221  0.17797226  1
  Na  Na40  1  0.16043948  0.65666482  0.67348319  1
  Na  Na41  1  0.66885308  0.66032901  0.66278585  1
  Hf  Hf0  1  0.99328963  0.99896718  0.64860022  1
  Hf  Hf1  1  0.50088561  0.01519606  0.64908655  1
  Hf  Hf2  1  0.00115582  0.98919906  0.14969670  1
  Hf  Hf3  1  0.49368236  0.98836660  0.14984431  1
  Hf  Hf4  1  0.83054416  0.33241213  0.68049959  1
  Hf  Hf5  1  0.32962519  0.32653514  0.18187721  1
  Hf  Hf6  1  0.16456150  0.66479512  0.02495887  1
  Hf  Hf7  1  0.66584408  0.67371423  0.01634595  1
  Hf  Hf8  1  0.16589375  0.65947202  0.51667732  1
  Hf  Hf9  1  0.67083210  0.67361306  0.52224576  1
  Hf  Hf10  1  0.17759604  0.68034373  0.31431395  1
  Hf  Hf11  1  0.67787528  0.67600718  0.81339641  1
  Zn  Zn0  1  0.99788106  0.99715209  0.34956029  1
  Zn  Zn1  1  0.49626783  0.98660615  0.34128409  1
  Zn  Zn2  1  0.99486778  0.00258104  0.83871328  1
  Zn  Zn3  1  0.50851343  0.01499513  0.84067539  1
  Zn  Zn4  1  0.33466507  0.31545810  0.68627742  1
  Zn  Zn5  1  0.83462233  0.34923188  0.18765924  1
  Zn  Zn6  1  0.33534714  0.33313743  0.01222066  1
  Zn  Zn7  1  0.83072205  0.34752503  0.97972565  1
  Zn  Zn8  1  0.33305204  0.31851225  0.47895873  1
  Zn  Zn9  1  0.83203155  0.31467826  0.49635827  1
  Zn  Zn10  1  0.68154404  0.70372145  0.31248148  1
  Zn  Zn11  1  0.17283527  0.66041926  0.80987204  1
  Si  Si0  1  0.14737544  0.99805325  0.25384724  1
  Si  Si1  1  0.64918229  0.00702809  0.25024249  1
  Si  Si2  1  0.35085605  0.69418754  0.25190272  1
  Si  Si3  1  0.85075068  0.70254761  0.25324018  1
  Si  Si4  1  0.14928212  0.29006495  0.75199679  1
  Si  Si5  1  0.65060829  0.30263692  0.75270937  1
  Si  Si6  1  0.35124007  0.99551808  0.75596931  1
  Si  Si7  1  0.85128795  0.00918496  0.75255420  1
  Si  Si8  1  0.47708811  0.33671910  0.58316021  1
  Si  Si9  1  0.98592607  0.34125309  0.58422838  1
  Si  Si10  1  0.68102881  0.03394574  0.58197473  1
  Si  Si11  1  0.83829587  0.62744485  0.57635702  1
  Si  Si12  1  0.48454966  0.63094305  0.08265116  1
  Si  Si13  1  0.97472631  0.61750582  0.08318734  1
  Si  Si14  1  0.33821938  0.04222789  0.07660014  1
  Si  Si15  1  0.18218334  0.32779190  0.08014100  1
  Si  Si16  1  0.81989922  0.67255548  0.91847443  1
  Si  Si17  1  0.66411779  0.96635743  0.91584333  1
  Si  Si18  1  0.31992859  0.96730913  0.41894718  1
  Si  Si19  1  0.81646752  0.97393473  0.41562401  1
  Si  Si20  1  0.16748732  0.36693143  0.41617433  1
  S  S0  1  0.00021037  0.29273174  0.25138926  1
  S  S1  1  0.49767358  0.29128936  0.25095557  1
  S  S2  1  0.99874229  0.70500568  0.75177768  1
  S  S3  1  0.49939718  0.70727438  0.75325154  1
  S  S4  1  0.18332645  0.03282879  0.58380289  1
  S  S5  1  0.33294691  0.63082262  0.58336699  1
  S  S6  1  0.83316928  0.03683656  0.08155695  1
  S  S7  1  0.68276335  0.33389485  0.08241300  1
  S  S8  1  0.31194260  0.66223403  0.91590884  1
  S  S9  1  0.02437006  0.38126686  0.91572435  1
  S  S10  1  0.52024297  0.37957121  0.91546714  1
  S  S11  1  0.16755577  0.95543467  0.91470054  1
  S  S12  1  0.66517919  0.37536106  0.41420305  1
  S  S13  1  0.02203936  0.66318225  0.41517120  1
  S  S14  1  0.52285712  0.66613687  0.41595193  1
  O  O0  1  0.10928914  0.04084603  0.31203663  1
  O  O1  1  0.60915571  0.04739727  0.30957480  1
  O  O2  1  0.40544803  0.77193949  0.31148568  1
  O  O3  1  0.91052474  0.78970101  0.31047733  1
  O  O4  1  0.48464898  0.19718124  0.30678611  1
  O  O5  1  0.99119456  0.20009892  0.30666862  1
  O  O6  1  0.11091214  0.17299640  0.81227672  1
  O  O7  1  0.61752751  0.18954286  0.81289805  1
  O  O8  1  0.48869360  0.78099987  0.80915358  1
  O  O9  1  0.98736522  0.77448916  0.80824535  1
  O  O10  1  0.40804254  0.02180869  0.81529857  1
  O  O11  1  0.90497308  0.04036865  0.81288231  1
  O  O12  1  0.39835520  0.96611612  0.69737166  1
  O  O13  1  0.89813813  0.98315515  0.69419493  1
  O  O14  1  0.08847822  0.18686130  0.69480582  1
  O  O15  1  0.58759745  0.20366157  0.69582549  1
  O  O16  1  0.00808485  0.81576894  0.70055131  1
  O  O17  1  0.51314082  0.81972710  0.70158469  1
  O  O18  1  0.39619500  0.81144435  0.19257204  1
  O  O19  1  0.89769558  0.82529166  0.19351220  1
  O  O20  1  0.01432533  0.20787307  0.19898784  1
  O  O21  1  0.50579256  0.19741223  0.19912439  1
  O  O22  1  0.08892144  0.97238275  0.19368383  1
  O  O23  1  0.58934238  0.99082514  0.19191886  1
  O  O24  1  0.43838851  0.36332334  0.64483897  1
  O  O25  1  0.93904822  0.35880215  0.64379265  1
  O  O26  1  0.23518290  0.10598736  0.63743314  1
  O  O27  1  0.74375848  0.12577834  0.63961662  1
  O  O28  1  0.31778100  0.52925664  0.63702361  1
  O  O29  1  0.82038115  0.50159077  0.63308222  1
  O  O30  1  0.43418529  0.51339380  0.13975498  1
  O  O31  1  0.93659023  0.51138128  0.14352838  1
  O  O32  1  0.31753513  0.13546762  0.13084000  1
  O  O33  1  0.81801571  0.10868311  0.13524426  1
  O  O34  1  0.24541752  0.36167697  0.13689032  1
  O  O35  1  0.73503536  0.36456930  0.13547460  1
  O  O36  1  0.21945954  0.28745195  0.02014579  1
  O  O37  1  0.71829044  0.29897118  0.02821580  1
  O  O38  1  0.42833744  0.56095597  0.02230415  1
  O  O39  1  0.91859585  0.54406382  0.02334074  1
  O  O40  1  0.35141000  0.14036530  0.01427231  1
  O  O41  1  0.84170659  0.12987075  0.02660695  1
  O  O42  1  0.21952336  0.13908547  0.53012786  1
  O  O43  1  0.71465126  0.15071218  0.52313656  1
  O  O44  1  0.34153566  0.55278046  0.52836902  1
  O  O45  1  0.84927189  0.54733977  0.51546995  1
  O  O46  1  0.41707071  0.29154347  0.52492373  1
  O  O47  1  0.93057162  0.29803563  0.52468785  1
  O  O48  1  0.26600026  0.67567693  0.96986204  1
  O  O49  1  0.76931568  0.68833310  0.97799359  1
  O  O50  1  0.07835150  0.47942031  0.96752506  1
  O  O51  1  0.57387416  0.47252411  0.96834735  1
  O  O52  1  0.16366325  0.85526146  0.96930489  1
  O  O53  1  0.65247863  0.84268159  0.97399788  1
  O  O54  1  0.26983751  0.85156238  0.47864255  1
  O  O55  1  0.76525782  0.84833079  0.47348071  1
  O  O56  1  0.15630793  0.46746088  0.47467211  1
  O  O57  1  0.65794989  0.46401348  0.46895823  1
  O  O58  1  0.07587615  0.67631547  0.46801574  1
  O  O59  1  0.57573931  0.67468726  0.46765974  1
  O  O60  1  0.06617335  0.64981475  0.36082870  1
  O  O61  1  0.55826489  0.64104276  0.36008864  1
  O  O62  1  0.25591778  0.86233369  0.36318295  1
  O  O63  1  0.75836038  0.89761560  0.35657303  1
  O  O64  1  0.17650843  0.48705442  0.35831881  1
  O  O65  1  0.66824636  0.47066949  0.36035698  1
  O  O66  1  0.06228312  0.47892238  0.86059675  1
  O  O67  1  0.56445618  0.47816490  0.86117706  1
  O  O68  1  0.17269061  0.86702973  0.86100027  1
  O  O69  1  0.67334641  0.86322106  0.85842307  1
  O  O70  1  0.26190040  0.64508690  0.86204515  1
  O  O71  1  0.75590637  0.64980016  0.86279052  1
  O  O72  1  0.01935026  0.82128860  0.41593664  1
  O  O73  1  0.51953413  0.82481228  0.41709585  1
  O  O74  1  0.41198537  0.97956782  0.41509684  1
  O  O75  1  0.90701338  0.97690137  0.41482078  1
  O  O76  1  0.08380202  0.18306821  0.41673212  1
  O  O77  1  0.58828911  0.20547693  0.41638096  1
  O  O78  1  0.02158652  0.21722628  0.91719896  1
  O  O79  1  0.51393382  0.21289485  0.91643454  1
  O  O80  1  0.08961132  0.96703574  0.91744578  1
  O  O81  1  0.57789941  0.97874058  0.91528701  1
  O  O82  1  0.39538250  0.81776888  0.91592363  1
  O  O83  1  0.91192521  0.84386037  0.91498033  1
  O  O84  1  0.48570638  0.16055188  0.59005552  1
  O  O85  1  0.99985565  0.17451831  0.59153425  1
  O  O86  1  0.09753970  0.00981609  0.59175359  1
  O  O87  1  0.58708321  0.00884144  0.59428550  1
  O  O88  1  0.40687154  0.80428493  0.58867507  1
  O  O89  1  0.91658660  0.82048883  0.58829170  1
  O  O90  1  0.49800826  0.82419876  0.08965700  1
  O  O91  1  0.98635323  0.81206683  0.08929967  1
  O  O92  1  0.41669561  0.00850824  0.08752599  1
  O  O93  1  0.90713767  0.00986411  0.08678487  1
  O  O94  1  0.08919342  0.16369872  0.09117277  1
  O  O95  1  0.59675323  0.18525319  0.08992467  1
  O  O96  1  0.34379635  0.16595181  0.75059141  1
  O  O97  1  0.84287106  0.17819727  0.74584905  1
  O  O98  1  0.24637186  0.32551972  0.74289299  1
  O  O99  1  0.74369890  0.32372335  0.74240865  1
  O  O100  1  0.42387644  0.54063797  0.74665482  1
  O  O101  1  0.92495286  0.53360081  0.74431597  1
  O  O102  1  0.34253322  0.50814766  0.24435657  1
  O  O103  1  0.84195414  0.51580374  0.24896133  1
  O  O104  1  0.42342315  0.31522415  0.24251194  1
  O  O105  1  0.92453881  0.30765386  0.24440496  1
  O  O106  1  0.24108157  0.16350139  0.24275397  1
  O  O107  1  0.74575274  0.16443903  0.24148026  1
  O  O108  1  0.32103710  0.51140939  0.91889686  1
  O  O109  1  0.82440120  0.49956044  0.91630248  1
  O  O110  1  0.43747369  0.36834568  0.91820368  1
  O  O111  1  0.93871365  0.35746752  0.92223139  1
  O  O112  1  0.24354960  0.12439990  0.91602236  1
  O  O113  1  0.75225385  0.14599431  0.92109400  1
  O  O114  1  0.32419468  0.14873698  0.41673178  1
  O  O115  1  0.82758663  0.16274257  0.42179558  1
  O  O116  1  0.25659759  0.36591766  0.42093999  1
  O  O117  1  0.74238734  0.36305877  0.41623959  1
  O  O118  1  0.43607395  0.51998349  0.42272168  1
  O  O119  1  0.93950809  0.51403419  0.41758674  1
  O  O120  1  0.17940099  0.50434848  0.07567410  1
  O  O121  1  0.67554167  0.48837562  0.07462159  1
  O  O122  1  0.07500997  0.66336064  0.07489349  1
  O  O123  1  0.58101261  0.65806014  0.08014465  1
  O  O124  1  0.25213858  0.85131973  0.07432869  1
  O  O125  1  0.75522401  0.85889277  0.07737383  1
  O  O126  1  0.17647585  0.86445016  0.57615111  1
  O  O127  1  0.67811031  0.85211378  0.57823843  1
  O  O128  1  0.25542642  0.65380406  0.57902638  1
  O  O129  1  0.75130632  0.64537801  0.57608709  1
  O  O130  1  0.08303750  0.50673904  0.58196831  1
  O  O131  1  0.57571083  0.48726851  0.57434517  1
  O  O132  1  0.14701169  0.81765511  0.25640002  1
  O  O133  1  0.64734990  0.82585322  0.24992163  1
  O  O134  1  0.25421361  0.66599737  0.25213757  1
  O  O135  1  0.75524478  0.67775407  0.25115785  1
  O  O136  1  0.07718666  0.46556998  0.25320241  1
  O  O137  1  0.57478278  0.45756653  0.25151055  1
  O  O138  1  0.14968148  0.47077640  0.75286608  1
  O  O139  1  0.64714712  0.47851339  0.75582480  1
  O  O140  1  0.07670048  0.69210223  0.75227297  1
  O  O141  1  0.57606009  0.68782824  0.75566945  1
  O  O142  1  0.25556273  0.82992863  0.75353227  1
  O  O143  1  0.75486995  0.84370593  0.75297600  1
loop_
_geom_bond_atom_site_label_1
_geom_bond_atom_site_label_2
_geom_bond_distance
_geom_bond_site_symmetry_2
Na0 O107 2.398174 1_565
Na0 O63 2.411585 1_555
Na0 O135 2.540239 1_555
Na0 O133 2.544911 1_555
Na0 O105 2.633925 1_565
Na0 O33 2.899435 1_565
Na1 O106 2.478080 1_555
Na1 O134 2.488149 1_555
Na1 O102 2.539481 1_555
Na1 O64 2.609047 1_555
Na1 O136 2.616114 1_555
Na1 O0 2.787352 1_555
Na1 O34 2.906845 1_555
Na1 O20 3.003446 1_555
Na2 O103 2.394233 1_555
Na2 O135 2.465954 1_555
Na2 O107 2.561629 1_555
Na2 O65 2.597889 1_555
Na2 O137 2.639896 1_555
Na2 O1 2.826100 1_555
Na2 O35 2.852014 1_555
Na3 O103 2.368408 1_555
Na3 O132 2.511507 1_655
Na3 O31 2.534187 1_555
Na3 O105 2.660890 1_555
Na3 O136 2.768029 1_655
Na3 O3 2.860612 1_555
Na3 O22 2.906068 1_655
Na3 O60 2.935072 1_655
Na4 O133 2.317030 1_555
Na4 O102 2.565904 1_555
Na4 O61 2.611334 1_555
Na4 O137 2.656422 1_555
Na4 O104 2.656426 1_555
Na4 O30 2.854517 1_555
Na4 O2 2.862992 1_555
Na5 O98 2.401217 1_555
Na5 O142 2.514397 1_555
Na5 O138 2.523983 1_555
Na5 O100 2.597506 1_555
Na5 O28 2.610990 1_555
Na5 O70 2.790108 1_555
Na5 O12 2.918099 1_555
Na6 O138 2.380340 1_555
Na6 O97 2.521357 1_455
Na6 O25 2.617591 1_455
Na6 O101 2.637192 1_455
Na6 O140 2.693568 1_555
Na6 O66 2.776646 1_555
Na6 O11 2.914520 1_455
Na6 O14 2.966199 1_555
Na7 O24 2.384942 1_555
Na7 O96 2.397172 1_555
Na7 O139 2.492259 1_555
Na7 O100 2.647756 1_555
Na7 O141 2.737603 1_555
Na7 O15 2.825301 1_555
Na8 O96 2.426155 1_555
Na8 O142 2.499171 1_545
Na8 O98 2.529987 1_555
Na8 O140 2.635560 1_545
Na8 O26 2.713688 1_555
Na8 O68 2.720768 1_545
Na8 O6 2.864497 1_555
Na9 O143 2.451256 1_545
Na9 O97 2.490807 1_555
Na9 O99 2.502903 1_555
Na9 O141 2.653903 1_545
Na9 O69 2.711193 1_545
Na9 O27 2.730013 1_555
Na9 O7 2.833554 1_555
Na9 O17 2.991469 1_545
Na10 O85 2.368604 1_455
Na10 O130 2.453127 1_555
Na10 O86 2.617697 1_555
Na10 O128 2.619721 1_555
Na10 O14 2.740515 1_555
Na10 O56 2.762801 1_555
Na10 O42 2.930684 1_555
Na10 O28 2.944324 1_555
Na11 O129 2.483531 1_555
Na11 O131 2.516046 1_555
Na11 O87 2.634028 1_555
Na11 O43 2.707612 1_555
Na11 O84 2.745347 1_555
Na11 O57 2.758514 1_555
Na11 O29 2.850380 1_555
Na11 O15 2.885176 1_555
Na12 O84 2.374297 1_565
Na12 O126 2.579827 1_555
Na12 O54 2.592350 1_555
Na12 O88 2.610053 1_555
Na12 O46 2.680898 1_565
Na12 O128 2.692066 1_555
Na12 O26 2.876947 1_565
Na12 O12 2.943187 1_555
Na13 O127 2.520855 1_555
Na13 O89 2.565310 1_555
Na13 O85 2.640340 1_565
Na13 O55 2.658390 1_555
Na13 O129 2.668775 1_555
Na13 O47 2.806899 1_565
Na13 O13 2.861679 1_555
Na13 O27 2.966510 1_565
Na14 O122 2.536102 1_555
Na14 O94 2.538079 1_565
Na14 O124 2.575383 1_555
Na14 O22 2.690227 1_555
Na14 O91 2.697982 1_455
Na14 O32 2.760994 1_565
Na14 O36 2.871958 1_565
Na14 O52 2.887119 1_554
Na15 O90 2.402406 1_555
Na15 O123 2.473971 1_555
Na15 O23 2.588601 1_555
Na15 O125 2.598078 1_555
Na15 O95 2.626114 1_565
Na15 O53 2.850227 1_554
Na15 O33 2.885769 1_565
Na15 O37 2.999405 1_565
Na16 O120 2.517739 1_555
Na16 O92 2.534636 1_565
Na16 O90 2.585230 1_555
Na16 O124 2.629734 1_555
Na16 O18 2.634661 1_555
Na16 O34 2.856954 1_555
Na16 O38 2.881734 1_555
Na16 O48 2.897371 1_554
Na17 O91 2.391862 1_555
Na17 O93 2.576892 1_565
Na17 O121 2.593699 1_555
Na17 O125 2.663098 1_555
Na17 O49 2.687071 1_554
Na17 O19 2.747133 1_555
Na17 O39 2.786214 1_555
Na17 O35 2.846102 1_555
Na18 O38 2.419696 1_556
Na18 O81 2.443864 1_555
Na18 O82 2.495790 1_555
Na18 O110 2.538322 1_555
Na18 O108 2.548392 1_555
Na18 O8 2.741018 1_555
Na18 O53 2.947761 1_555
Na19 O109 2.386242 1_555
Na19 O83 2.412431 1_555
Na19 O80 2.504103 1_655
Na19 O39 2.544499 1_556
Na19 O111 2.583527 1_555
Na19 O9 2.675321 1_555
Na20 O40 2.397004 1_556
Na20 O112 2.488551 1_555
Na20 O10 2.493141 1_555
Na20 O79 2.528175 1_555
Na20 O82 2.541023 1_545
Na20 O110 2.579234 1_555
Na21 O11 2.383358 1_555
Na21 O113 2.496806 1_555
Na21 O83 2.507975 1_545
Na21 O111 2.588225 1_555
Na21 O78 2.714920 1_655
Na21 O41 2.782081 1_556
Na22 O78 2.435814 1_555
Na22 O112 2.473392 1_555
Na22 O6 2.523831 1_555
Na22 O108 2.528099 1_555
Na22 O80 2.529641 1_545
Na22 O36 2.554811 1_556
Na23 O7 2.349354 1_555
Na23 O113 2.436319 1_555
Na23 O109 2.490204 1_555
Na23 O81 2.495682 1_545
Na23 O79 2.621270 1_555
Na23 O37 2.821226 1_556
Na24 O114 2.429512 1_555
Na24 O74 2.450097 1_545
Na24 O77 2.495808 1_555
Na24 O46 2.580386 1_555
Na24 O118 2.610699 1_555
Na24 O4 2.713317 1_555
Na25 O115 2.352403 1_555
Na25 O75 2.362949 1_545
Na25 O47 2.431392 1_555
Na25 O76 2.524507 1_655
Na25 O119 2.608246 1_555
Na25 O5 2.778555 1_555
Na26 O76 2.390127 1_555
Na26 O0 2.395858 1_555
Na26 O116 2.496197 1_555
Na26 O72 2.515262 1_545
Na26 O114 2.529657 1_555
Na26 O42 2.882974 1_555
Na27 O115 2.420693 1_555
Na27 O117 2.544644 1_555
Na27 O73 2.570665 1_545
Na27 O43 2.628472 1_555
Na27 O1 2.641785 1_555
Na27 O77 2.683468 1_555
Na27 O63 2.765161 1_545
Na28 O2 2.418197 1_555
Na28 O116 2.454912 1_555
Na28 O74 2.499000 1_555
Na28 O118 2.525804 1_555
Na28 O73 2.654020 1_555
Na28 O44 2.822156 1_555
Na29 O75 2.420669 1_555
Na29 O45 2.489246 1_555
Na29 O117 2.561397 1_555
Na29 O3 2.626834 1_555
Na29 O72 2.672285 1_655
Na29 O119 2.690519 1_555
Na30 O75 2.287228 1_555
Na30 O76 2.405018 1_665
Na30 O72 2.565866 1_655
Na30 O89 2.622519 1_555
Na30 O85 2.720675 1_565
Na30 O86 2.932574 1_665
Na31 O74 2.413777 1_545
Na31 O77 2.477676 1_555
Na31 O73 2.507631 1_545
Na31 O84 2.681399 1_555
Na31 O87 2.687794 1_555
Na31 O88 2.752298 1_545
Na32 O83 2.425246 1_555
Na32 O80 2.565082 1_655
Na32 O78 2.588691 1_665
Na32 O91 2.605823 1_556
Na32 O94 2.621386 1_666
Na32 O93 2.627100 1_566
Na33 O81 2.433051 1_545
Na33 O92 2.506050 1_556
Na33 O90 2.593940 1_546
Na33 O82 2.605720 1_545
Na33 O79 2.615484 1_555
Na33 O95 2.690333 1_556
Na34 O96 2.298052 1_555
Na34 O98 2.369615 1_555
Na34 O100 2.594625 1_555
Na34 O112 2.645287 1_555
Na34 O108 2.786060 1_555
Na34 O110 2.820685 1_555
Na35 O109 2.399912 1_555
Na35 O113 2.493084 1_555
Na35 O99 2.508509 1_555
Na35 O97 2.550690 1_555
Na35 O101 2.731494 1_555
Na35 O111 2.834711 1_555
Na36 O114 2.364631 1_555
Na36 O116 2.421707 1_555
Na36 O106 2.586827 1_555
Na36 O102 2.640067 1_555
Na36 O118 2.756082 1_555
Na36 O104 2.775789 1_555
Na37 O115 2.476424 1_555
Na37 O107 2.499027 1_555
Na37 O103 2.529007 1_555
Na37 O117 2.553381 1_555
Na37 O105 2.725818 1_555
Na37 O119 2.758799 1_555
Na38 O134 2.458656 1_555
Na38 O132 2.462562 1_555
Na38 O136 2.608070 1_555
Na38 O124 2.654386 1_555
Na38 O120 2.711041 1_555
Na38 O122 2.721466 1_555
Na39 O133 2.295587 1_555
Na39 O135 2.340503 1_555
Na39 O137 2.413934 1_555
Na39 O123 2.644933 1_555
Na39 O125 2.853947 1_555
Na39 O121 2.903287 1_555
Na40 O138 2.411467 1_555
Na40 O140 2.458461 1_555
Na40 O142 2.463768 1_555
Na40 O130 2.492859 1_555
Na40 O128 2.741553 1_555
Na40 O126 2.822955 1_555
Na41 O129 2.500224 1_555
Na41 O127 2.541738 1_555
Na41 O139 2.581179 1_555
Na41 O131 2.591369 1_555
Na41 O143 2.609241 1_555
Na41 O141 2.770479 1_555
Hf0 O13 1.957044 1_555
Hf0 O85 2.019665 1_565
Hf0 O14 2.028556 1_665
Hf0 O89 2.053810 1_555
Hf0 O16 2.178596 1_655
Hf0 O86 2.249820 1_665
Hf1 O15 1.974168 1_555
Hf1 O84 2.002438 1_555
Hf1 O12 2.008555 1_545
Hf1 O87 2.018464 1_555
Hf1 O17 2.256554 1_545
Hf1 O88 2.292766 1_545
Hf2 O22 1.965570 1_555
Hf2 O19 1.990212 1_455
Hf2 O91 2.029143 1_455
Hf2 O94 2.073379 1_565
Hf2 O20 2.198432 1_565
Hf2 O93 2.317536 1_465
Hf3 O18 1.959460 1_555
Hf3 O23 1.988886 1_555
Hf3 O90 2.053591 1_555
Hf3 O92 2.068665 1_565
Hf3 O21 2.129358 1_565
Hf3 O95 2.283836 1_565
Hf4 O29 1.972767 1_555
Hf4 O27 1.994803 1_555
Hf4 O25 2.046139 1_555
Hf4 O99 2.076210 1_555
Hf4 O97 2.134014 1_555
Hf4 O101 2.301941 1_555
Hf5 O34 2.008356 1_555
Hf5 O32 2.013136 1_555
Hf5 O30 2.052493 1_555
Hf5 O106 2.073004 1_555
Hf5 O102 2.100012 1_555
Hf5 O104 2.244804 1_555
Hf6 O122 1.974952 1_555
Hf6 O120 1.991037 1_555
Hf6 O124 2.004109 1_555
Hf6 O50 2.096850 1_554
Hf6 O52 2.161637 1_554
Hf6 O48 2.185293 1_554
Hf7 O53 1.942114 1_554
Hf7 O49 2.019064 1_554
Hf7 O123 2.057289 1_555
Hf7 O51 2.080890 1_554
Hf7 O125 2.167712 1_555
Hf7 O121 2.229156 1_555
Hf8 O56 1.928991 1_555
Hf8 O54 2.025382 1_555
Hf8 O58 2.055936 1_555
Hf8 O130 2.067660 1_555
Hf8 O128 2.186390 1_555
Hf8 O126 2.235607 1_555
Hf9 O55 1.994867 1_555
Hf9 O127 2.016065 1_555
Hf9 O129 2.029560 1_555
Hf9 O131 2.083489 1_555
Hf9 O59 2.143273 1_555
Hf9 O57 2.176846 1_555
Hf10 O62 1.918795 1_555
Hf10 O134 2.022612 1_555
Hf10 O64 2.027677 1_555
Hf10 O132 2.080650 1_555
Hf10 O60 2.176175 1_555
Hf10 O136 2.359411 1_555
Hf11 O71 1.925191 1_555
Hf11 O143 2.004802 1_555
Hf11 O69 2.030693 1_555
Hf11 O139 2.064705 1_555
Hf11 O67 2.232106 1_555
Hf11 O141 2.327845 1_555
O0 Si0 1.614259 1_545
O0 Zn0 2.048546 1_445
O1 Si1 1.644427 1_555
O1 Zn1 1.981122 1_545
O2 Si2 1.613858 1_555
O2 Zn1 1.960849 1_555
O3 Si3 1.623233 1_555
O3 Zn0 1.984019 1_555
O4 S1 1.474188 1_555
O4 Zn1 2.195249 1_545
O5 S0 1.468496 1_655
O5 Zn0 2.160380 1_545
O6 Si4 1.650237 1_555
O6 Zn2 1.997422 1_455
O7 Si5 1.625302 1_555
O7 Zn3 1.934365 1_555
O8 S3 1.482388 1_555
O8 Zn3 2.116013 1_565
O9 S2 1.477612 1_555
O9 Zn2 2.142718 1_565
O10 Si6 1.639239 1_545
O10 Zn3 1.963000 1_555
O11 Si7 1.619783 1_555
O11 Zn2 1.939435 1_555
O12 Si6 1.662150 1_555
O13 Si7 1.642270 1_565
O14 Si4 1.658962 1_555
O15 Si5 1.661806 1_555
O16 S2 1.489936 1_455
O17 S3 1.490450 1_555
O18 Si2 1.650558 1_555
O19 Si3 1.683454 1_555
O20 S0 1.500486 1_555
O21 S1 1.497100 1_555
O22 Si0 1.672845 1_555
O23 Si1 1.673322 1_565
O24 Si8 1.623718 1_555
O24 Zn4 1.952570 1_555
O25 Si9 1.634545 1_555
O26 S4 1.477105 1_555
O26 Zn4 2.179789 1_555
O27 Si10 1.661020 1_555
O28 S5 1.464106 1_555
O28 Zn4 2.410661 1_555
O29 Si11 1.640923 1_555
O30 Si12 1.630269 1_555
O31 Si13 1.608890 1_555
O31 Zn5 1.973570 1_555
O32 Si14 1.634932 1_555
O33 S6 1.462849 1_555
O33 Zn5 2.385100 1_555
O34 Si15 1.651025 1_555
O35 S7 1.471158 1_555
O35 Zn5 2.240315 1_555
O36 Si15 1.629239 1_555
O36 Zn6 1.955524 1_555
O37 S7 1.483849 1_555
O37 Zn7 2.163305 1_554
O38 Si12 1.633337 1_555
O38 Zn6 1.945153 1_555
O39 Si13 1.626087 1_555
O39 Zn7 1.982062 1_554
O40 Si14 1.617469 1_555
O40 Zn6 1.937344 1_555
O41 S6 1.465852 1_555
O41 Zn7 2.360926 1_554
O42 S4 1.481411 1_555
O42 Zn8 2.217534 1_555
O43 Si10 1.616523 1_555
O43 Zn9 2.002430 1_555
O44 S5 1.472834 1_555
O44 Zn8 2.355818 1_555
O45 Si11 1.609271 1_555
O45 Zn9 2.045265 1_555
O46 Si8 1.630070 1_555
O46 Zn8 1.976892 1_555
O47 Si9 1.609841 1_555
O47 Zn9 1.996634 1_555
O48 S8 1.509512 1_555
O49 Si16 1.667308 1_555
O50 S9 1.505853 1_555
O51 S10 1.510326 1_555
O52 S11 1.515627 1_555
O53 Si17 1.675327 1_555
O54 Si18 1.669044 1_555
O55 Si19 1.676266 1_555
O56 Si20 1.673144 1_555
O57 S12 1.514265 1_555
O58 S13 1.515281 1_555
O59 S14 1.495321 1_555
O60 S13 1.496954 1_555
O61 S14 1.477339 1_555
O61 Zn10 2.290279 1_555
O62 Si18 1.662069 1_555
O63 Si19 1.629891 1_555
O63 Zn10 1.909816 1_555
O64 Si20 1.660854 1_555
O65 S12 1.479738 1_555
O65 Zn10 2.301431 1_555
O66 S9 1.480364 1_555
O66 Zn11 2.187797 1_555
O67 S10 1.490644 1_555
O68 S11 1.480670 1_555
O68 Zn11 2.218013 1_555
O69 Si17 1.655227 1_555
O70 S8 1.483918 1_555
O70 Zn11 2.078563 1_555
O71 Si16 1.661574 1_555
O72 S13 1.479210 1_555
O72 Zn0 2.377418 1_455
O73 S14 1.490654 1_555
O73 Zn1 2.440297 1_555
O74 Si18 1.635704 1_555
O74 Zn1 2.235436 1_555
O75 Si19 1.646296 1_555
O75 Zn0 2.146764 1_555
O76 Si20 1.619314 1_555
O76 Zn0 2.239045 1_445
O77 S12 1.493424 1_555
O77 Zn1 2.525082 1_545
O78 S9 1.484160 1_555
O78 Zn2 2.503921 1_455
O79 S10 1.478625 1_555
O79 Zn3 2.453373 1_555
O80 S11 1.485719 1_555
O80 Zn2 2.621054 1_465
O81 Si17 1.640442 1_555
O81 Zn3 2.235631 1_565
O82 S8 1.483515 1_555
O82 Zn3 2.578968 1_565
O83 Si16 1.636650 1_555
O83 Zn2 2.265377 1_565
O84 Si8 1.711996 1_555
O85 Si9 1.684120 1_555
O86 S4 1.487587 1_555
O87 Si10 1.640425 1_555
O88 S5 1.496047 1_555
O89 Si11 1.656016 1_555
O90 Si12 1.674836 1_555
O91 Si13 1.698120 1_555
O92 Si14 1.636294 1_555
O93 S6 1.500809 1_555
O94 Si15 1.634342 1_555
O95 S7 1.492600 1_555
O96 Si6 1.644574 1_545
O96 Zn4 2.061571 1_555
O97 Si7 1.644198 1_555
O98 Si4 1.652463 1_555
O98 Zn4 2.087905 1_555
O99 Si5 1.632923 1_555
O100 S3 1.473222 1_555
O100 Zn4 2.332031 1_555
O101 S2 1.488431 1_555
O102 Si2 1.648299 1_555
O103 Si3 1.645312 1_555
O103 Zn5 2.010929 1_555
O104 S1 1.496860 1_555
O105 S0 1.470154 1_655
O105 Zn5 2.270149 1_555
O106 Si0 1.647191 1_545
O107 Si1 1.644750 1_555
O107 Zn5 2.053883 1_555
O108 S8 1.479068 1_555
O109 Si16 1.634183 1_555
O109 Zn7 2.042874 1_555
O110 S10 1.469210 1_555
O111 S9 1.479179 1_655
O111 Zn7 2.317747 1_555
O112 S11 1.481508 1_545
O113 Si17 1.640137 1_545
O113 Zn7 2.142753 1_555
O114 Si18 1.631666 1_545
O114 Zn8 2.038025 1_555
O115 Si19 1.649543 1_545
O115 Zn9 2.153217 1_555
O116 Si20 1.642526 1_555
O116 Zn8 2.120205 1_555
O117 S12 1.476126 1_555
O118 S14 1.490841 1_555
O118 Zn8 2.252860 1_555
O119 S13 1.449185 1_655
O120 Si15 1.653041 1_555
O121 S7 1.501978 1_555
O122 Si13 1.677106 1_455
O123 Si12 1.658393 1_555
O124 Si14 1.676095 1_565
O125 S6 1.547489 1_565
O126 S4 1.499133 1_565
O127 Si10 1.647959 1_565
O128 S5 1.541350 1_555
O129 Si11 1.683076 1_555
O130 Si9 1.667754 1_455
O131 Si8 1.649511 1_555
O132 Si0 1.656784 1_555
O133 Si1 1.649559 1_565
O133 Zn10 2.086873 1_555
O134 Si2 1.657385 1_555
O135 Si3 1.649819 1_555
O135 Zn10 2.016932 1_555
O136 S0 1.510007 1_555
O137 S1 1.475893 1_555
O137 Zn10 2.535770 1_555
O138 Si4 1.658228 1_555
O138 Zn11 2.028845 1_555
O139 Si5 1.651193 1_555
O140 S2 1.491972 1_455
O140 Zn11 2.327209 1_555
O141 S3 1.504016 1_555
O142 Si6 1.652928 1_555
O142 Zn11 1.987574 1_555
O143 Si7 1.659482 1_565
