# generated using pymatgen
data_Na10Mg4Si5Sn4S7O48
_symmetry_space_group_name_H-M   'P 1'
_cell_length_a   17.92682574
_cell_length_b   8.91357339
_cell_length_c   22.63216827
_cell_angle_alpha   89.74578565
_cell_angle_beta   90.37628322
_cell_angle_gamma   119.69836972
_symmetry_Int_Tables_number   1
_chemical_formula_structural   Na10Mg4Si5Sn4S7O48
_chemical_formula_sum   'Na30 Mg12 Si15 Sn12 S21 O144'
_cell_volume   3141.33509584
_cell_formula_units_Z   3
loop_
 _symmetry_equiv_pos_site_id
 _symmetry_equiv_pos_as_xyz
  1  'x, y, z'
loop_
 _atom_site_type_symbol
 _atom_site_label
 _atom_site_symmetry_multiplicity
 _atom_site_fract_x
 _atom_site_fract_y
 _atom_site_fract_z
 _atom_site_occupancy
  Na  Na0  1  0.32129809  0.01950581  0.25278853  1
  Na  Na1  1  0.67672652  0.34757394  0.25200350  1
  Na  Na2  1  0.99986369  0.63950663  0.24211690  1
  Na  Na3  1  0.50025064  0.63135125  0.24123682  1
  Na  Na4  1  0.31898582  0.62029297  0.75443865  1
  Na  Na5  1  0.81888963  0.61991188  0.75368815  1
  Na  Na6  1  0.99913162  0.36881344  0.74089727  1
  Na  Na7  1  0.49955176  0.36892258  0.74135626  1
  Na  Na8  1  0.17699408  0.00722624  0.75113372  1
  Na  Na9  1  0.67761424  0.00762823  0.75052451  1
  Na  Na10  1  0.33483801  0.97364305  0.57556040  1
  Na  Na11  1  0.83449365  0.97339393  0.57398228  1
  Na  Na12  1  0.33493897  0.69629715  0.07537017  1
  Na  Na13  1  0.83335163  0.69467661  0.07472554  1
  Na  Na14  1  0.47974026  0.67564555  0.91338470  1
  Na  Na15  1  0.97991900  0.67593819  0.91284217  1
  Na  Na16  1  0.48223635  0.28657424  0.41211067  1
  Na  Na17  1  0.16672269  0.02734666  0.40925878  1
  Na  Na18  1  0.98961569  0.00433573  0.49579978  1
  Na  Na19  1  0.49943428  0.99928730  0.49611592  1
  Na  Na20  1  0.99693285  0.99677267  0.99515764  1
  Na  Na21  1  0.49647069  0.99604319  0.99642588  1
  Na  Na22  1  0.32811145  0.34244487  0.83036523  1
  Na  Na23  1  0.82811470  0.34249951  0.82986967  1
  Na  Na24  1  0.32992442  0.32513977  0.32609718  1
  Na  Na25  1  0.82334740  0.29786466  0.33264639  1
  Na  Na26  1  0.15683645  0.66574447  0.16032716  1
  Na  Na27  1  0.65522208  0.67300495  0.16307955  1
  Na  Na28  1  0.15186099  0.63895070  0.66146831  1
  Na  Na29  1  0.65344001  0.64118206  0.66065280  1
  Mg  Mg0  1  0.99583635  0.00089746  0.35295912  1
  Mg  Mg1  1  0.50223048  0.00552510  0.35077361  1
  Mg  Mg2  1  0.99990195  0.99573674  0.85132574  1
  Mg  Mg3  1  0.49984016  0.99567898  0.85153631  1
  Mg  Mg4  1  0.33897390  0.34590945  0.68560056  1
  Mg  Mg5  1  0.83893238  0.34631028  0.68496286  1
  Mg  Mg6  1  0.33674324  0.33247488  0.18637906  1
  Mg  Mg7  1  0.83371541  0.32525474  0.18429662  1
  Mg  Mg8  1  0.16502211  0.66781179  0.01866688  1
  Mg  Mg9  1  0.66424770  0.66644128  0.01872895  1
  Mg  Mg10  1  0.16327576  0.65774600  0.51920794  1
  Mg  Mg11  1  0.66673991  0.66327872  0.51817485  1
  Si  Si0  1  0.14780521  0.00697244  0.25559076  1
  Si  Si1  1  0.65087145  0.00782526  0.25300653  1
  Si  Si2  1  0.50005559  0.29280934  0.25324639  1
  Si  Si3  1  0.14763269  0.29054463  0.75304367  1
  Si  Si4  1  0.64784853  0.29115909  0.75331224  1
  Si  Si5  1  0.99940835  0.70778422  0.75318187  1
  Si  Si6  1  0.49950783  0.70786491  0.75330380  1
  Si  Si7  1  0.48545945  0.33882173  0.58701477  1
  Si  Si8  1  0.98442698  0.33889100  0.58772369  1
  Si  Si9  1  0.48448910  0.63055124  0.08703415  1
  Si  Si10  1  0.98373282  0.62463611  0.08728140  1
  Si  Si11  1  0.31506893  0.67524686  0.92110229  1
  Si  Si12  1  0.81510317  0.67561924  0.92112478  1
  Si  Si13  1  0.31627669  0.95623379  0.42218933  1
  Si  Si14  1  0.81599991  0.95665301  0.42083017  1
  Sn  Sn0  1  0.00753177  0.01231794  0.65002188  1
  Sn  Sn1  1  0.50934666  0.01435817  0.65019616  1
  Sn  Sn2  1  0.00524692  0.99514398  0.14876622  1
  Sn  Sn3  1  0.50812695  0.00318398  0.15076542  1
  Sn  Sn4  1  0.33306967  0.34551510  0.98392934  1
  Sn  Sn5  1  0.83325799  0.34426585  0.98307566  1
  Sn  Sn6  1  0.33786476  0.33122102  0.48433437  1
  Sn  Sn7  1  0.83560776  0.31828134  0.48206118  1
  Sn  Sn8  1  0.16847441  0.67477188  0.31851361  1
  Sn  Sn9  1  0.66894155  0.68163050  0.31572926  1
  Sn  Sn10  1  0.16546691  0.65527956  0.81739847  1
  Sn  Sn11  1  0.66556866  0.65561672  0.81746145  1
  S  S0  1  0.35180949  0.70528502  0.25124294  1
  S  S1  1  0.85470372  0.70970832  0.25028180  1
  S  S2  1  0.00038728  0.28956287  0.25122835  1
  S  S3  1  0.35378827  0.99960019  0.75065802  1
  S  S4  1  0.85365263  0.99963342  0.75097206  1
  S  S5  1  0.18663476  0.04072960  0.58388819  1
  S  S6  1  0.68679761  0.04083216  0.58450933  1
  S  S7  1  0.33281754  0.62500452  0.58443151  1
  S  S8  1  0.83298229  0.62284767  0.58366819  1
  S  S9  1  0.33272091  0.04239098  0.08438695  1
  S  S10  1  0.83378726  0.04398458  0.08473113  1
  S  S11  1  0.18647065  0.33196426  0.08537739  1
  S  S12  1  0.68630560  0.33260049  0.08423470  1
  S  S13  1  0.01907495  0.36822975  0.91886230  1
  S  S14  1  0.51892029  0.36802889  0.91874005  1
  S  S15  1  0.16891883  0.96202854  0.91842478  1
  S  S16  1  0.66892868  0.96184702  0.91840503  1
  S  S17  1  0.16699218  0.37651020  0.41870006  1
  S  S18  1  0.66930741  0.37628679  0.41826031  1
  S  S19  1  0.01882296  0.66471090  0.41782043  1
  S  S20  1  0.51983617  0.67066459  0.41815264  1
  O  O0  1  0.10119374  0.02031944  0.31368124  1
  O  O1  1  0.60274570  0.03436657  0.30754793  1
  O  O2  1  0.40591865  0.78773707  0.30242348  1
  O  O3  1  0.91008912  0.79479793  0.30055952  1
  O  O4  1  0.48122720  0.17454208  0.31052885  1
  O  O5  1  0.98969301  0.18438215  0.30251148  1
  O  O6  1  0.10116708  0.17035211  0.80827417  1
  O  O7  1  0.60085492  0.17001227  0.80820627  1
  O  O8  1  0.48201789  0.78862294  0.81055322  1
  O  O9  1  0.98235945  0.78899287  0.81051804  1
  O  O10  1  0.40836693  0.02826455  0.80163291  1
  O  O11  1  0.90831700  0.02819379  0.80186268  1
  O  O12  1  0.38788198  0.95978770  0.69556171  1
  O  O13  1  0.88751038  0.95932883  0.69588316  1
  O  O14  1  0.08561743  0.22442981  0.69294636  1
  O  O15  1  0.58553939  0.22659637  0.69317901  1
  O  O16  1  0.02195466  0.83240520  0.69259270  1
  O  O17  1  0.52128534  0.83147759  0.69255725  1
  O  O18  1  0.38524947  0.81485582  0.19600425  1
  O  O19  1  0.88874956  0.81606497  0.19417164  1
  O  O20  1  0.01471379  0.21582666  0.19509142  1
  O  O21  1  0.52088540  0.21089208  0.19270901  1
  O  O22  1  0.08296263  0.95091050  0.19649005  1
  O  O23  1  0.58797695  0.95077070  0.19244491  1
  O  O24  1  0.43494065  0.34857737  0.64358197  1
  O  O25  1  0.93706124  0.34986249  0.64594314  1
  O  O26  1  0.23962466  0.12568831  0.63597724  1
  O  O27  1  0.73806226  0.12247827  0.63776106  1
  O  O28  1  0.32142037  0.52022957  0.63671443  1
  O  O29  1  0.82198147  0.52098842  0.63697678  1
  O  O30  1  0.43432626  0.52044707  0.14382927  1
  O  O31  1  0.93548592  0.51699416  0.14539245  1
  O  O32  1  0.32143908  0.12299389  0.13669443  1
  O  O33  1  0.82244608  0.12630904  0.13580067  1
  O  O34  1  0.24000204  0.35281366  0.13647276  1
  O  O35  1  0.73900690  0.35518423  0.13682593  1
  O  O36  1  0.22001655  0.29120257  0.03011876  1
  O  O37  1  0.72370776  0.29550170  0.03025587  1
  O  O38  1  0.42136705  0.55283318  0.02545974  1
  O  O39  1  0.92058512  0.54779090  0.02647632  1
  O  O40  1  0.34536771  0.14818701  0.02895658  1
  O  O41  1  0.84769970  0.14747340  0.02870298  1
  O  O42  1  0.22370451  0.14959162  0.52832927  1
  O  O43  1  0.72399903  0.15224965  0.53070937  1
  O  O44  1  0.34603417  0.54576320  0.52899250  1
  O  O45  1  0.84562162  0.54165627  0.52925011  1
  O  O46  1  0.42221277  0.28847150  0.52544035  1
  O  O47  1  0.91883862  0.28818692  0.52888120  1
  O  O48  1  0.26693645  0.68617287  0.97871720  1
  O  O49  1  0.76711352  0.68678117  0.97879723  1
  O  O50  1  0.07285065  0.45757749  0.96934923  1
  O  O51  1  0.57293833  0.45737758  0.96911003  1
  O  O52  1  0.15526368  0.84723409  0.96816500  1
  O  O53  1  0.65566216  0.84760172  0.96816981  1
  O  O54  1  0.26532490  0.84635414  0.47863543  1
  O  O55  1  0.77063049  0.85153306  0.48009872  1
  O  O56  1  0.15590722  0.46086548  0.46892167  1
  O  O57  1  0.65501344  0.46293445  0.46783687  1
  O  O58  1  0.07508415  0.68818053  0.46754176  1
  O  O59  1  0.57237632  0.68724337  0.46962093  1
  O  O60  1  0.05277112  0.62552613  0.36115339  1
  O  O61  1  0.55236711  0.62428110  0.36310956  1
  O  O62  1  0.25502920  0.88360674  0.36014514  1
  O  O63  1  0.75495625  0.87433274  0.36039214  1
  O  O64  1  0.18166819  0.47916836  0.36176068  1
  O  O65  1  0.68258506  0.47569487  0.36115041  1
  O  O66  1  0.05171910  0.48009916  0.86292124  1
  O  O67  1  0.55171770  0.48012421  0.86274725  1
  O  O68  1  0.18316980  0.88999935  0.86148935  1
  O  O69  1  0.68331831  0.89025369  0.86146039  1
  O  O70  1  0.25839936  0.63946948  0.85790093  1
  O  O71  1  0.75834072  0.63950929  0.85806995  1
  O  O72  1  0.01419851  0.82396574  0.41022649  1
  O  O73  1  0.50954812  0.82070795  0.41007719  1
  O  O74  1  0.41247700  0.98948462  0.41492992  1
  O  O75  1  0.91075105  0.98213083  0.41123283  1
  O  O76  1  0.09335838  0.20106776  0.41161787  1
  O  O77  1  0.59316257  0.20346198  0.41287988  1
  O  O78  1  0.01051462  0.19897689  0.91051150  1
  O  O79  1  0.51049713  0.19888807  0.91031456  1
  O  O80  1  0.09276458  0.98233008  0.91260135  1
  O  O81  1  0.59295509  0.98251184  0.91257703  1
  O  O82  1  0.41192398  0.83614977  0.91443683  1
  O  O83  1  0.91206852  0.83650444  0.91456499  1
  O  O84  1  0.48296322  0.14291914  0.58779291  1
  O  O85  1  0.98320480  0.14358483  0.58787481  1
  O  O86  1  0.09912205  0.02092011  0.58573039  1
  O  O87  1  0.59844972  0.01984154  0.58621669  1
  O  O88  1  0.41187874  0.80028302  0.58814968  1
  O  O89  1  0.91209735  0.79985468  0.58770618  1
  O  O90  1  0.48287251  0.82303785  0.08795353  1
  O  O91  1  0.98235478  0.81755310  0.08689903  1
  O  O92  1  0.41188112  0.02415663  0.08797998  1
  O  O93  1  0.91453275  0.02743948  0.08975067  1
  O  O94  1  0.09683150  0.17842223  0.08910245  1
  O  O95  1  0.59873613  0.17802859  0.08630437  1
  O  O96  1  0.34150337  0.15058151  0.74285155  1
  O  O97  1  0.84130416  0.15050617  0.74325089  1
  O  O98  1  0.24180367  0.30949472  0.74269248  1
  O  O99  1  0.74179464  0.30966433  0.74289755  1
  O  O100  1  0.41893579  0.51478203  0.74549965  1
  O  O101  1  0.91867943  0.51500810  0.74564093  1
  O  O102  1  0.34199389  0.53343410  0.24347909  1
  O  O103  1  0.84706288  0.53726575  0.24354157  1
  O  O104  1  0.41944391  0.32528272  0.24531971  1
  O  O105  1  0.92658080  0.31811849  0.24455979  1
  O  O106  1  0.24331686  0.16292783  0.24418639  1
  O  O107  1  0.74301088  0.18181050  0.24299979  1
  O  O108  1  0.32436499  0.49140726  0.91972478  1
  O  O109  1  0.82490117  0.49233186  0.91963728  1
  O  O110  1  0.43095907  0.35362164  0.92314278  1
  O  O111  1  0.93102644  0.35374093  0.92315131  1
  O  O112  1  0.24926755  0.13496057  0.92452824  1
  O  O113  1  0.74948490  0.13507908  0.92445523  1
  O  O114  1  0.31942266  0.15491492  0.42124298  1
  O  O115  1  0.82060015  0.15319120  0.41905207  1
  O  O116  1  0.24731569  0.35895610  0.42348122  1
  O  O117  1  0.74978330  0.36449366  0.42478109  1
  O  O118  1  0.43086142  0.50736152  0.42262352  1
  O  O119  1  0.93068723  0.51256563  0.42248007  1
  O  O120  1  0.18054177  0.49004355  0.07778848  1
  O  O121  1  0.68103505  0.49114423  0.07684215  1
  O  O122  1  0.07777189  0.65059919  0.07730448  1
  O  O123  1  0.57804964  0.65386445  0.07661823  1
  O  O124  1  0.25805364  0.86693298  0.07793419  1
  O  O125  1  0.76037094  0.86782379  0.07821502  1
  O  O126  1  0.18145599  0.87172063  0.57719955  1
  O  O127  1  0.68092883  0.87101108  0.57777618  1
  O  O128  1  0.25813935  0.65027955  0.57763129  1
  O  O129  1  0.75821511  0.64908078  0.57777061  1
  O  O130  1  0.07776810  0.50263287  0.57736301  1
  O  O131  1  0.57824154  0.50315610  0.57642102  1
  O  O132  1  0.15287559  0.81672964  0.25529284  1
  O  O133  1  0.65417270  0.82356197  0.25384209  1
  O  O134  1  0.26349871  0.68998826  0.25640600  1
  O  O135  1  0.76576433  0.68243415  0.25474811  1
  O  O136  1  0.08049808  0.46847317  0.25630406  1
  O  O137  1  0.59235615  0.48418362  0.25879214  1
  O  O138  1  0.15882189  0.48967057  0.75457807  1
  O  O139  1  0.65882532  0.48999395  0.75475418  1
  O  O140  1  0.09184922  0.69947694  0.75839931  1
  O  O141  1  0.59181096  0.69957914  0.75843496  1
  O  O142  1  0.26567629  0.84257850  0.75581550  1
  O  O143  1  0.76554025  0.84246035  0.75612663  1
loop_
_geom_bond_atom_site_label_1
_geom_bond_atom_site_label_2
_geom_bond_distance
_geom_bond_site_symmetry_2
Na0 O106 2.321970 1_555
Na0 O104 2.408537 1_555
Na0 O134 2.586646 1_545
Na0 O132 2.641993 1_545
Na0 O62 2.714416 1_545
Na0 O32 2.780421 1_555
Na0 O4 2.806815 1_555
Na0 O18 2.899290 1_545
Na1 O107 2.319953 1_555
Na1 O137 2.371416 1_555
Na1 O135 2.596200 1_555
Na1 O103 2.666243 1_555
Na1 O65 2.705560 1_555
Na1 O1 2.730439 1_555
Na1 O21 2.771789 1_555
Na1 O35 2.829795 1_555
Na2 O132 2.410058 1_655
Na2 O103 2.421221 1_555
Na2 O31 2.460848 1_555
Na2 O105 2.491184 1_555
Na2 O136 2.586491 1_655
Na2 O22 2.624444 1_655
Na2 O60 2.872910 1_655
Na2 O3 2.916700 1_555
Na3 O104 2.373490 1_555
Na3 O133 2.437273 1_555
Na3 O30 2.461999 1_555
Na3 O102 2.522124 1_555
Na3 O137 2.595752 1_555
Na3 O23 2.712417 1_555
Na3 O61 2.916799 1_555
Na4 O100 2.410835 1_555
Na4 O98 2.421446 1_555
Na4 O138 2.507430 1_555
Na4 O142 2.591762 1_555
Na4 O70 2.629215 1_555
Na4 O28 2.820887 1_555
Na4 O8 2.833552 1_555
Na4 O12 2.956490 1_555
Na5 O101 2.402292 1_555
Na5 O99 2.414900 1_555
Na5 O139 2.506677 1_555
Na5 O143 2.595056 1_555
Na5 O71 2.648548 1_555
Na5 O29 2.797991 1_555
Na5 O9 2.846910 1_555
Na5 O13 2.945544 1_555
Na6 O101 2.378081 1_555
Na6 O25 2.381289 1_555
Na6 O97 2.517990 1_555
Na6 O138 2.527290 1_655
Na6 O140 2.598886 1_655
Na6 O14 2.692478 1_655
Na6 O66 2.926264 1_655
Na6 O11 2.977743 1_555
Na7 O100 2.377464 1_555
Na7 O24 2.456201 1_555
Na7 O139 2.519417 1_555
Na7 O96 2.520578 1_555
Na7 O141 2.596766 1_555
Na7 O15 2.673305 1_555
Na7 O67 2.911503 1_555
Na7 O10 2.971126 1_555
Na8 O98 2.354184 1_555
Na8 O140 2.394195 1_545
Na8 O96 2.576125 1_555
Na8 O142 2.645900 1_545
Na8 O68 2.725779 1_545
Na8 O16 2.754445 1_545
Na8 O6 2.762727 1_555
Na8 O26 2.829727 1_555
Na9 O99 2.351776 1_555
Na9 O141 2.398297 1_545
Na9 O97 2.561528 1_555
Na9 O143 2.638785 1_545
Na9 O69 2.736436 1_545
Na9 O27 2.765742 1_555
Na9 O17 2.765912 1_545
Na9 O7 2.776091 1_555
Na10 O84 2.329918 1_565
Na10 O126 2.431695 1_555
Na10 O54 2.497478 1_555
Na10 O128 2.504648 1_555
Na10 O88 2.545979 1_555
Na10 O46 2.693480 1_565
Na10 O12 2.893961 1_555
Na10 O26 2.993174 1_565
Na11 O85 2.343764 1_565
Na11 O55 2.400338 1_555
Na11 O127 2.435542 1_555
Na11 O129 2.513238 1_555
Na11 O89 2.558713 1_555
Na11 O47 2.644302 1_565
Na11 O13 2.934451 1_555
Na12 O90 2.326944 1_555
Na12 O120 2.450084 1_555
Na12 O48 2.477297 1_554
Na12 O124 2.509090 1_555
Na12 O92 2.555876 1_565
Na12 O38 2.703855 1_555
Na12 O18 2.903983 1_555
Na13 O91 2.346205 1_555
Na13 O121 2.417013 1_555
Na13 O49 2.452179 1_554
Na13 O125 2.470440 1_555
Na13 O93 2.599349 1_565
Na13 O39 2.723244 1_555
Na13 O19 2.896708 1_555
Na13 O35 2.985841 1_555
Na14 O82 2.291174 1_555
Na14 O108 2.438558 1_555
Na14 O81 2.469928 1_555
Na14 O8 2.524245 1_555
Na14 O110 2.561702 1_555
Na14 O38 2.757244 1_556
Na14 O67 2.877682 1_555
Na14 O53 3.001404 1_555
Na15 O83 2.292482 1_555
Na15 O109 2.433446 1_555
Na15 O80 2.465093 1_655
Na15 O9 2.513436 1_555
Na15 O111 2.563817 1_555
Na15 O39 2.802891 1_556
Na15 O66 2.871134 1_655
Na15 O52 2.998233 1_655
Na16 O74 2.301893 1_545
Na16 O77 2.441850 1_555
Na16 O4 2.506980 1_555
Na16 O114 2.559435 1_555
Na16 O118 2.565319 1_555
Na16 O46 2.791324 1_555
Na16 O61 2.847883 1_555
Na16 O57 2.965989 1_555
Na17 O114 2.401822 1_555
Na17 O72 2.419098 1_545
Na17 O0 2.440889 1_555
Na17 O76 2.479909 1_555
Na17 O116 2.588188 1_555
Na17 O62 2.725558 1_545
Na17 O42 2.894797 1_555
Na17 O58 2.941141 1_545
Na18 O75 2.321998 1_545
Na18 O85 2.462460 1_555
Na18 O76 2.636113 1_655
Na18 O89 2.659771 1_545
Na18 O72 2.696437 1_645
Na18 O86 2.771427 1_655
Na19 O74 2.375424 1_555
Na19 O84 2.537219 1_565
Na19 O77 2.581718 1_565
Na19 O73 2.583893 1_555
Na19 O87 2.641227 1_565
Na19 O88 2.683295 1_555
Na20 O83 2.348488 1_555
Na20 O91 2.548594 1_556
Na20 O78 2.553126 1_665
Na20 O80 2.592762 1_655
Na20 O93 2.699409 1_566
Na20 O94 2.730714 1_666
Na21 O82 2.370188 1_555
Na21 O90 2.516797 1_556
Na21 O79 2.579766 1_565
Na21 O81 2.619030 1_555
Na21 O92 2.660490 1_566
Na21 O95 2.676500 1_566
Na22 O98 2.435546 1_555
Na22 O108 2.443687 1_555
Na22 O100 2.497278 1_555
Na22 O96 2.710789 1_555
Na22 O112 2.715552 1_555
Na22 O110 2.754497 1_555
Na23 O99 2.423026 1_555
Na23 O109 2.452832 1_555
Na23 O101 2.484990 1_555
Na23 O97 2.695268 1_555
Na23 O113 2.722111 1_555
Na23 O111 2.763728 1_555
Na24 O106 2.387341 1_555
Na24 O104 2.440098 1_555
Na24 O102 2.562550 1_555
Na24 O114 2.582229 1_555
Na24 O116 2.762734 1_555
Na24 O118 2.784284 1_555
Na25 O115 2.324975 1_555
Na25 O107 2.400976 1_555
Na25 O105 2.673220 1_555
Na25 O117 2.695023 1_555
Na25 O119 2.798761 1_555
Na25 O103 2.806299 1_555
Na26 O122 2.309856 1_555
Na26 O132 2.560865 1_555
Na26 O124 2.603098 1_555
Na26 O120 2.611267 1_555
Na26 O136 2.702556 1_555
Na26 O134 2.823356 1_555
Na27 O123 2.346419 1_555
Na27 O133 2.463910 1_555
Na27 O137 2.629718 1_555
Na27 O125 2.651828 1_555
Na27 O121 2.726603 1_555
Na27 O135 2.832103 1_555
Na28 O130 2.291735 1_555
Na28 O138 2.522483 1_555
Na28 O140 2.622526 1_555
Na28 O128 2.663726 1_555
Na28 O126 2.666669 1_555
Na28 O142 2.885222 1_555
Na29 O131 2.304077 1_555
Na29 O139 2.542019 1_555
Na29 O127 2.633533 1_555
Na29 O129 2.639246 1_555
Na29 O141 2.645978 1_555
Na29 O143 2.886372 1_555
Mg0 O75 1.966110 1_545
Mg0 O0 2.020932 1_655
Mg0 O5 2.037357 1_555
Mg0 O3 2.083612 1_545
Mg0 O72 2.183134 1_645
Mg0 O76 2.214062 1_655
Mg1 O4 1.945877 1_555
Mg1 O1 1.957542 1_555
Mg1 O74 2.125675 1_545
Mg1 O2 2.149394 1_545
Mg1 O73 2.173635 1_545
Mg1 O77 2.210874 1_555
Mg2 O9 1.945490 1_555
Mg2 O6 1.969134 1_665
Mg2 O83 2.083117 1_555
Mg2 O11 2.115684 1_565
Mg2 O78 2.188382 1_665
Mg2 O80 2.207749 1_655
Mg3 O8 1.948254 1_555
Mg3 O7 1.969054 1_565
Mg3 O82 2.079278 1_555
Mg3 O10 2.119832 1_565
Mg3 O79 2.182241 1_565
Mg3 O81 2.207053 1_555
Mg4 O24 1.960961 1_555
Mg4 O100 2.003235 1_555
Mg4 O28 2.049913 1_555
Mg4 O98 2.067585 1_555
Mg4 O96 2.183963 1_555
Mg4 O26 2.194469 1_555
Mg5 O25 1.959695 1_555
Mg5 O101 2.013269 1_555
Mg5 O29 2.036061 1_555
Mg5 O99 2.078667 1_555
Mg5 O27 2.193263 1_555
Mg5 O97 2.200123 1_555
Mg6 O30 1.974446 1_555
Mg6 O104 2.012206 1_555
Mg6 O106 2.074584 1_555
Mg6 O32 2.081636 1_555
Mg6 O34 2.144823 1_555
Mg6 O102 2.177016 1_555
Mg7 O31 1.985666 1_555
Mg7 O107 1.999298 1_555
Mg7 O33 2.012338 1_555
Mg7 O35 2.128459 1_555
Mg7 O105 2.170269 1_555
Mg7 O103 2.235303 1_555
Mg8 O48 1.976437 1_554
Mg8 O122 2.004711 1_555
Mg8 O52 2.037914 1_554
Mg8 O50 2.100936 1_554
Mg8 O124 2.188502 1_555
Mg8 O120 2.188996 1_555
Mg9 O49 1.984774 1_554
Mg9 O123 1.992623 1_555
Mg9 O53 2.041597 1_554
Mg9 O51 2.094057 1_554
Mg9 O121 2.168956 1_555
Mg9 O125 2.220380 1_555
Mg10 O130 1.975850 1_555
Mg10 O54 1.994283 1_555
Mg10 O56 2.044125 1_555
Mg10 O58 2.082864 1_555
Mg10 O128 2.174086 1_555
Mg10 O126 2.206170 1_555
Mg11 O55 1.984588 1_555
Mg11 O131 2.014672 1_555
Mg11 O57 2.043050 1_555
Mg11 O59 2.108641 1_555
Mg11 O129 2.167819 1_555
Mg11 O127 2.205399 1_555
O0 Si0 1.598488 1_555
O1 Si1 1.594626 1_555
O2 S0 1.452302 1_555
O3 S1 1.450004 1_555
O4 Si2 1.595933 1_555
O5 S2 1.441528 1_655
O6 Si3 1.587965 1_555
O7 Si4 1.587360 1_555
O8 Si6 1.591387 1_555
O9 Si5 1.591860 1_555
O10 S3 1.446940 1_545
O11 S4 1.446469 1_545
O12 S3 1.511033 1_555
O12 Sn1 2.237767 1_565
O13 S4 1.510600 1_555
O13 Sn0 2.224368 1_665
O14 Si3 1.664717 1_555
O14 Sn0 1.963140 1_555
O15 Si4 1.667660 1_555
O15 Sn1 1.956881 1_555
O16 Si5 1.681230 1_455
O16 Sn0 1.990160 1_565
O17 Si6 1.680467 1_555
O17 Sn1 1.987808 1_565
O18 S0 1.514941 1_555
O18 Sn3 2.251426 1_565
O19 S1 1.519885 1_555
O19 Sn2 2.162397 1_655
O20 S2 1.513628 1_555
O20 Sn2 2.163926 1_545
O21 Si2 1.683897 1_555
O21 Sn3 1.993578 1_555
O22 Si0 1.673316 1_565
O22 Sn2 1.945199 1_555
O23 Si1 1.681150 1_565
O23 Sn3 1.948885 1_565
O24 Si7 1.600315 1_555
O25 Si8 1.601512 1_555
O26 S5 1.464941 1_555
O27 S6 1.468759 1_555
O28 S7 1.455469 1_555
O29 S8 1.461106 1_555
O30 Si9 1.597998 1_555
O31 Si10 1.606182 1_555
O32 S9 1.453691 1_555
O33 S10 1.440192 1_555
O34 S11 1.450288 1_555
O35 S12 1.465851 1_555
O36 S11 1.512656 1_555
O36 Sn4 2.117959 1_554
O37 S12 1.511759 1_555
O37 Sn5 2.088912 1_554
O38 Si9 1.706897 1_555
O38 Sn4 1.975193 1_554
O39 Si10 1.692352 1_555
O39 Sn5 1.971855 1_554
O40 S9 1.515214 1_555
O40 Sn4 2.132181 1_554
O41 S10 1.512236 1_555
O41 Sn5 2.154236 1_554
O42 S5 1.524958 1_555
O42 Sn6 2.128430 1_555
O43 S6 1.502431 1_555
O43 Sn7 2.118036 1_555
O44 S7 1.518850 1_555
O44 Sn6 2.106589 1_555
O45 S8 1.505318 1_555
O45 Sn7 2.190745 1_555
O46 Si7 1.705742 1_555
O46 Sn6 1.961227 1_555
O47 Si8 1.678834 1_555
O47 Sn7 1.947909 1_555
O48 Si11 1.597960 1_555
O49 Si12 1.598254 1_555
O50 S13 1.449853 1_555
O51 S14 1.449467 1_555
O52 S15 1.455813 1_555
O53 S16 1.454458 1_555
O54 Si13 1.594791 1_555
O55 Si14 1.608354 1_555
O56 S17 1.433656 1_555
O57 S18 1.458999 1_555
O58 S19 1.451008 1_555
O59 S20 1.454312 1_555
O60 S19 1.536885 1_555
O60 Sn8 2.132278 1_555
O61 S20 1.521818 1_555
O61 Sn9 2.178193 1_555
O62 Si13 1.697029 1_555
O62 Sn8 1.973533 1_555
O63 Si14 1.673484 1_555
O63 Sn9 1.928816 1_555
O64 S17 1.524017 1_555
O64 Sn8 2.108142 1_555
O65 S18 1.515685 1_555
O65 Sn9 2.216053 1_555
O66 S13 1.536239 1_555
O66 Sn10 2.125112 1_555
O67 S14 1.538302 1_555
O67 Sn11 2.124327 1_555
O68 S15 1.520556 1_555
O68 Sn10 2.197770 1_555
O69 S16 1.519710 1_555
O69 Sn11 2.195890 1_555
O70 Si11 1.686329 1_555
O70 Sn10 1.961391 1_555
O71 Si12 1.684055 1_555
O71 Sn11 1.961266 1_555
O72 S19 1.471642 1_555
O73 S20 1.448419 1_555
O74 Si13 1.608039 1_555
O75 Si14 1.614353 1_555
O76 S17 1.472311 1_555
O77 S18 1.472112 1_555
O78 S13 1.451907 1_555
O79 S14 1.452159 1_555
O80 S15 1.468371 1_555
O81 S16 1.467065 1_555
O82 Si11 1.621269 1_555
O83 Si12 1.622239 1_555
O84 Si7 1.724474 1_555
O84 Sn1 2.011327 1_555
O85 Si8 1.730114 1_555
O85 Sn0 2.005113 1_655
O86 S5 1.490114 1_555
O86 Sn0 2.173619 1_555
O87 S6 1.500676 1_555
O87 Sn1 2.145448 1_555
O88 S7 1.504093 1_555
O88 Sn1 2.313855 1_565
O89 S8 1.513775 1_555
O89 Sn0 2.298723 1_665
O90 Si9 1.730503 1_555
O90 Sn3 2.023787 1_565
O91 Si10 1.731935 1_555
O91 Sn2 2.000791 1_655
O92 S9 1.507899 1_555
O92 Sn3 2.305664 1_555
O93 S10 1.529430 1_555
O93 Sn2 2.223360 1_645
O94 S11 1.511301 1_555
O94 Sn2 2.130646 1_545
O95 S12 1.490683 1_555
O95 Sn3 2.167552 1_555
O96 S3 1.477126 1_545
O97 S4 1.476637 1_545
O98 Si3 1.629626 1_555
O99 Si4 1.627499 1_555
O100 Si6 1.617307 1_555
O101 Si5 1.616007 1_555
O102 S0 1.463957 1_555
O103 S1 1.482509 1_555
O104 Si2 1.617072 1_555
O105 S2 1.472731 1_655
O106 Si0 1.604655 1_555
O107 Si1 1.627354 1_555
O108 Si11 1.727740 1_555
O108 Sn4 2.002058 1_555
O109 Si12 1.728010 1_555
O109 Sn5 2.000489 1_555
O110 S14 1.521257 1_555
O110 Sn4 2.209644 1_555
O111 S13 1.522320 1_655
O111 Sn5 2.191317 1_555
O112 S15 1.506364 1_545
O112 Sn4 2.188313 1_555
O113 S16 1.509396 1_545
O113 Sn5 2.171031 1_555
O114 Si13 1.743746 1_545
O114 Sn6 2.028978 1_555
O115 Si14 1.712802 1_545
O115 Sn7 1.972989 1_555
O116 S17 1.526659 1_555
O116 Sn6 2.226683 1_555
O117 S18 1.503822 1_555
O117 Sn7 2.194188 1_555
O118 S20 1.540600 1_555
O118 Sn6 2.147687 1_555
O119 S19 1.491453 1_655
O119 Sn7 2.192541 1_555
O120 S11 1.473848 1_555
O121 S12 1.471064 1_555
O122 Si10 1.601405 1_455
O123 Si9 1.603528 1_555
O124 S9 1.477885 1_565
O125 S10 1.473532 1_565
O126 S5 1.471141 1_565
O127 S6 1.472974 1_565
O128 S7 1.470549 1_555
O129 S8 1.475440 1_555
O130 Si8 1.602294 1_455
O131 Si7 1.599264 1_555
O132 Si0 1.742610 1_565
O132 Sn8 2.013915 1_555
O133 Si1 1.672575 1_565
O133 Sn9 1.985877 1_555
O134 S0 1.525436 1_555
O134 Sn8 2.167226 1_555
O135 S1 1.493070 1_555
O135 Sn9 2.221851 1_555
O136 S2 1.532634 1_555
O136 Sn8 2.229621 1_555
O137 Si2 1.692891 1_555
O137 Sn9 2.060476 1_555
O138 Si3 1.685074 1_555
O138 Sn10 2.014157 1_555
O139 Si4 1.683982 1_555
O139 Sn11 2.011886 1_555
O140 Si5 1.698406 1_455
O140 Sn10 2.041376 1_555
O141 Si6 1.695722 1_555
O141 Sn11 2.042562 1_555
O142 S3 1.509294 1_555
O142 Sn10 2.235498 1_555
O143 S4 1.509844 1_555
O143 Sn11 2.228716 1_555
