# generated using pymatgen
data_RbLi2(IO3)3
_symmetry_space_group_name_H-M   'P 1'
_cell_length_a   11.41012900
_cell_length_b   8.42024200
_cell_length_c   11.44876548
_cell_angle_alpha   68.97660247
_cell_angle_beta   90.00000000
_cell_angle_gamma   90.00000000
_symmetry_Int_Tables_number   1
_chemical_formula_structural   RbLi2(IO3)3
_chemical_formula_sum   'Rb4 Li8 I12 O36'
_cell_volume   1026.73272557
_cell_formula_units_Z   4
loop_
 _symmetry_equiv_pos_site_id
 _symmetry_equiv_pos_as_xyz
  1  'x, y, z'
loop_
 _atom_site_type_symbol
 _atom_site_label
 _atom_site_symmetry_multiplicity
 _atom_site_fract_x
 _atom_site_fract_y
 _atom_site_fract_z
 _atom_site_occupancy
  Rb  Rb0  1  0.45560600  0.71157100  0.33865700  1
  Rb  Rb1  1  0.95560600  0.28842900  0.16134300  1
  Rb  Rb2  1  0.54439400  0.28842900  0.66134300  1
  Rb  Rb3  1  0.04439400  0.71157100  0.83865700  1
  Li  Li0  1  0.21591500  0.62645000  0.13955300  1
  Li  Li1  1  0.71591500  0.37355000  0.36044700  1
  Li  Li2  1  0.78408500  0.37355000  0.86044700  1
  Li  Li3  1  0.28408500  0.62645000  0.63955300  1
  Li  Li4  1  0.21073500  0.01641000  0.15264700  1
  Li  Li5  1  0.71073500  0.98359000  0.34735300  1
  Li  Li6  1  0.78926500  0.98359000  0.84735300  1
  Li  Li7  1  0.28926500  0.01641000  0.65264700  1
  I  I0  1  0.13199200  0.91646400  0.43830800  1
  I  I1  1  0.63199200  0.08353600  0.06169200  1
  I  I2  1  0.86800800  0.08353600  0.56169200  1
  I  I3  1  0.36800800  0.91646400  0.93830800  1
  I  I4  1  0.18211600  0.40937000  0.45399800  1
  I  I5  1  0.68211600  0.59063000  0.04600200  1
  I  I6  1  0.81788400  0.59063000  0.54600200  1
  I  I7  1  0.31788400  0.40937000  0.95399800  1
  I  I8  1  0.44736400  0.22651900  0.32001700  1
  I  I9  1  0.94736400  0.77348100  0.17998300  1
  I  I10  1  0.55263600  0.77348100  0.67998300  1
  I  I11  1  0.05263600  0.22651900  0.82001700  1
  O  O0  1  0.07954500  0.13257000  0.41664700  1
  O  O1  1  0.57954500  0.86743000  0.08335300  1
  O  O2  1  0.92045500  0.86743000  0.58335300  1
  O  O3  1  0.42045500  0.13257000  0.91664700  1
  O  O4  1  0.79509400  0.14027900  0.40873300  1
  O  O5  1  0.29509400  0.85972100  0.09126700  1
  O  O6  1  0.25717300  0.97407600  0.33070400  1
  O  O7  1  0.20490600  0.85972100  0.59126700  1
  O  O8  1  0.45834100  0.95510300  0.66999200  1
  O  O9  1  0.95834100  0.04489700  0.83000800  1
  O  O10  1  0.54165900  0.04489700  0.33000800  1
  O  O11  1  0.04165900  0.95510300  0.16999200  1
  O  O12  1  0.45608100  0.65008100  0.61703300  1
  O  O13  1  0.95608100  0.34991900  0.88296700  1
  O  O14  1  0.54391900  0.34991900  0.38296700  1
  O  O15  1  0.04391900  0.65008100  0.11703300  1
  O  O16  1  0.53692100  0.65175600  0.84757400  1
  O  O17  1  0.03692100  0.34824400  0.65242600  1
  O  O18  1  0.46307900  0.34824400  0.15242600  1
  O  O19  1  0.96307900  0.65175600  0.34757400  1
  O  O20  1  0.28822000  0.25880800  0.55261800  1
  O  O21  1  0.78822000  0.74119200  0.94738200  1
  O  O22  1  0.71178000  0.74119200  0.44738200  1
  O  O23  1  0.21178000  0.25880800  0.05261800  1
  O  O24  1  0.23831400  0.46475900  0.80435200  1
  O  O25  1  0.73831400  0.53524100  0.69564800  1
  O  O26  1  0.76168600  0.53524100  0.19564800  1
  O  O27  1  0.26168600  0.46475900  0.30435200  1
  O  O28  1  0.27574600  0.59849700  0.98822900  1
  O  O29  1  0.77574600  0.40150300  0.51177100  1
  O  O30  1  0.72425400  0.40150300  0.01177100  1
  O  O31  1  0.22425400  0.59849700  0.48822900  1
  O  O32  1  0.24282700  0.97407600  0.83070400  1
  O  O33  1  0.74282700  0.02592400  0.66929600  1
  O  O34  1  0.75717300  0.02592400  0.16929600  1
  O  O35  1  0.70490600  0.14027900  0.90873300  1
loop_
_geom_bond_atom_site_label_1
_geom_bond_atom_site_label_2
_geom_bond_distance
_geom_bond_site_symmetry_2
Li0 O28 1.953328 1_554
Li0 O27 1.960381 1_555
Li0 O15 1.980063 1_555
Li0 O5 2.049585 1_555
Li1 O29 1.953328 1_555
Li1 O26 1.960381 1_555
Li1 O14 1.980063 1_555
Li1 O4 2.049585 1_555
Li2 O30 1.953328 1_556
Li2 O25 1.960381 1_555
Li2 O13 1.980063 1_555
Li2 O35 2.049585 1_555
Li3 O31 1.953328 1_555
Li3 O24 1.960381 1_555
Li3 O12 1.980063 1_555
Li3 O7 2.049585 1_555
Li4 O23 1.949469 1_555
Li4 O5 1.956082 1_545
Li4 O11 1.988491 1_545
Li4 O6 2.010487 1_545
Li5 O22 1.949469 1_555
Li5 O4 1.956082 1_565
Li5 O10 1.988491 1_565
Li5 O34 2.010487 1_565
Li6 O21 1.949469 1_555
Li6 O35 1.956082 1_565
Li6 O9 1.988491 1_565
Li6 O33 2.010487 1_565
Li7 O20 1.949469 1_555
Li7 O7 1.956082 1_545
Li7 O8 1.988491 1_545
Li7 O32 2.010487 1_545
I0 O6 1.834210 1_555
I0 O7 1.840320 1_555
I0 O0 1.845810 1_565
I1 O34 1.834210 1_555
I1 O35 1.840320 1_554
I1 O1 1.845810 1_545
I2 O33 1.834210 1_555
I2 O4 1.840320 1_555
I2 O2 1.845810 1_545
I3 O32 1.834210 1_555
I3 O5 1.840320 1_556
I3 O3 1.845810 1_565
I4 O20 1.822284 1_555
I4 O31 1.835372 1_555
I4 O27 1.844928 1_555
I5 O21 1.822284 1_554
I5 O30 1.835372 1_555
I5 O26 1.844928 1_555
I6 O22 1.822284 1_555
I6 O29 1.835372 1_555
I6 O25 1.844928 1_555
I7 O23 1.822284 1_556
I7 O28 1.835372 1_555
I7 O24 1.844928 1_555
I8 O14 1.830328 1_555
I8 O18 1.831149 1_555
I8 O10 1.839547 1_555
I9 O15 1.830328 1_655
I9 O19 1.831149 1_555
I9 O11 1.839547 1_655
I10 O12 1.830328 1_555
I10 O16 1.831149 1_555
I10 O8 1.839547 1_555
I11 O13 1.830328 1_455
I11 O17 1.831149 1_555
I11 O9 1.839547 1_455
O0 Rb1 3.084366 1_455
O1 Rb0 3.084366 1_555
O2 Rb3 3.084366 1_655
O3 Rb2 3.084366 1_555
O4 Rb1 3.224489 1_555
O5 Rb0 3.224489 1_555
O6 Rb0 3.142597 1_555
O7 Rb3 3.224489 1_555
O8 Rb2 2.941422 1_565
O9 Rb3 2.941422 1_645
O10 Rb0 2.941422 1_545
O11 Rb1 2.941422 1_465
O12 Rb0 3.039983 1_555
O12 Rb2 3.072061 1_555
O13 Rb1 3.039983 1_556
O13 Rb3 3.072061 1_655
O14 Rb2 3.039983 1_555
O14 Rb0 3.072061 1_555
O15 Rb3 3.039983 1_554
O15 Rb1 3.072061 1_455
O20 Rb2 3.221524 1_555
O21 Rb3 3.221524 1_655
O22 Rb0 3.221524 1_555
O23 Rb1 3.221524 1_455
O24 Rb3 3.155107 1_555
O25 Rb2 3.155107 1_555
O26 Rb1 3.155107 1_555
O27 Rb0 3.155107 1_555
O28 Rb3 3.104412 1_555
O29 Rb2 3.104412 1_555
O30 Rb1 3.104412 1_555
O31 Rb0 3.104412 1_555
O32 Rb3 3.142597 1_555
O33 Rb2 3.142597 1_555
O34 Rb1 3.142597 1_555
O35 Rb2 3.224489 1_555
