# generated using pymatgen
data_Li9Ge4
_symmetry_space_group_name_H-M   'P 1'
_cell_length_a   4.46395749
_cell_length_b   4.46395749
_cell_length_c   23.73947476
_cell_angle_alpha   90.00000000
_cell_angle_beta   90.00000000
_cell_angle_gamma   120.02102593
_symmetry_Int_Tables_number   1
_chemical_formula_structural   Li9Ge4
_chemical_formula_sum   'Li18 Ge8'
_cell_volume   409.59041472
_cell_formula_units_Z   2
loop_
 _symmetry_equiv_pos_site_id
 _symmetry_equiv_pos_as_xyz
  1  'x, y, z'
loop_
 _atom_site_type_symbol
 _atom_site_label
 _atom_site_symmetry_multiplicity
 _atom_site_fract_x
 _atom_site_fract_y
 _atom_site_fract_z
 _atom_site_occupancy
  Li  Li0  1  0.83382674  0.16617326  0.25000000  1
  Li  Li1  1  0.16617326  0.83382674  0.75000000  1
  Li  Li2  1  0.16650506  0.83349494  0.51701814  1
  Li  Li3  1  0.83349494  0.16650506  0.48298186  1
  Li  Li4  1  0.83349494  0.16650506  0.01701814  1
  Li  Li5  1  0.16650506  0.83349494  0.98298186  1
  Li  Li6  1  0.16604093  0.83395907  0.63158206  1
  Li  Li7  1  0.83395907  0.16604093  0.36841794  1
  Li  Li8  1  0.83287115  0.16712885  0.59305323  1
  Li  Li9  1  0.16712885  0.83287115  0.40694677  1
  Li  Li10  1  0.16712885  0.83287115  0.09305323  1
  Li  Li11  1  0.83287115  0.16712885  0.90694677  1
  Li  Li12  1  0.49939905  0.50060095  0.82422689  1
  Li  Li13  1  0.50060095  0.49939905  0.17577311  1
  Li  Li14  1  0.50060095  0.49939905  0.32422689  1
  Li  Li15  1  0.49939905  0.50060095  0.67577311  1
  Li  Li16  1  0.16604093  0.83395907  0.86841794  1
  Li  Li17  1  0.83395907  0.16604093  0.13158206  1
  Ge  Ge0  1  0.49973198  0.50026802  0.55449228  1
  Ge  Ge1  1  0.50026802  0.49973198  0.44550772  1
  Ge  Ge2  1  0.50026802  0.49973198  0.05449228  1
  Ge  Ge3  1  0.49973198  0.50026802  0.94550772  1
  Ge  Ge4  1  0.83275650  0.16724350  0.69924320  1
  Ge  Ge5  1  0.16724350  0.83275650  0.30075680  1
  Ge  Ge6  1  0.16724350  0.83275650  0.19924320  1
  Ge  Ge7  1  0.83275650  0.16724350  0.80075680  1
loop_
_geom_bond_atom_site_label_1
_geom_bond_atom_site_label_2
_geom_bond_distance
_geom_bond_site_symmetry_2
Li0 Li17 2.811180 1_555
Li0 Li7 2.811180 1_555
Li1 Li6 2.811180 1_555
Li1 Li16 2.811180 1_555
Li2 Li6 2.719690 1_555
Li3 Li7 2.719690 1_555
Li6 Li8 2.733823 1_465
Li6 Li8 2.734839 1_565
Li6 Li8 2.734839 1_455
Li7 Li9 2.733823 1_645
Li7 Li9 2.734839 1_545
Li7 Li9 2.734839 1_655
Li10 Li17 2.733823 1_465
Li10 Li17 2.734839 1_455
Li10 Li17 2.734839 1_565
Li11 Li16 2.733823 1_645
Li11 Li16 2.734839 1_545
Li11 Li16 2.734839 1_655
Li12 Li16 2.782005 1_655
Li12 Li16 2.782005 1_545
Li12 Li16 2.783030 1_555
Li13 Li17 2.782005 1_455
Li13 Li17 2.782005 1_565
Li13 Li17 2.783030 1_555
Li14 Li7 2.782005 1_565
Li14 Li7 2.782005 1_455
Li14 Li7 2.783030 1_555
Li15 Li6 2.782005 1_655
Li15 Li6 2.782005 1_545
Li15 Li6 2.783030 1_555
Li16 Li5 2.719690 1_555
Li17 Li4 2.719690 1_555
Ge0 Li2 2.725966 1_555
Ge0 Li2 2.726358 1_655
Ge0 Li2 2.726358 1_545
Ge0 Li8 2.733855 1_555
Ge0 Li8 2.735206 1_565
Ge0 Li8 2.735206 1_455
Ge0 Li15 2.879144 1_555
Ge0 Li6 3.159356 1_545
Ge0 Li6 3.159356 1_655
Ge0 Li6 3.163406 1_555
Ge1 Li3 2.725966 1_555
Ge1 Li3 2.726358 1_565
Ge1 Li3 2.726358 1_455
Ge1 Li9 2.733855 1_555
Ge1 Li9 2.735206 1_545
Ge1 Li9 2.735206 1_655
Ge1 Li14 2.879144 1_555
Ge1 Li7 3.159356 1_455
Ge1 Li7 3.159356 1_565
Ge1 Li7 3.163406 1_555
Ge2 Li4 2.725966 1_555
Ge2 Li4 2.726358 1_455
Ge2 Li4 2.726358 1_565
Ge2 Li10 2.733855 1_555
Ge2 Li10 2.735206 1_655
Ge2 Li10 2.735206 1_545
Ge2 Li13 2.879144 1_555
Ge2 Li17 3.159356 1_455
Ge2 Li17 3.159356 1_565
Ge2 Li17 3.163406 1_555
Ge3 Li5 2.725966 1_555
Ge3 Li5 2.726358 1_545
Ge3 Li5 2.726358 1_655
Ge3 Li11 2.733855 1_555
Ge3 Li11 2.735206 1_455
Ge3 Li11 2.735206 1_565
Ge3 Li12 2.879144 1_555
Ge3 Li16 3.159356 1_545
Ge3 Li16 3.159356 1_655
Ge3 Li16 3.163406 1_555
Ge4 Ge7 2.409880 1_555
Ge4 Li8 2.520894 1_555
Ge4 Li15 2.636180 1_545
Ge4 Li15 2.636180 1_655
Ge4 Li15 2.637254 1_555
Ge4 Li1 2.844241 1_545
Ge4 Li1 2.844241 1_655
Ge4 Li1 2.845860 1_645
Ge4 Li6 3.036523 1_655
Ge4 Li6 3.036523 1_545
Ge4 Li6 3.036737 1_645
Ge5 Ge6 2.409880 1_555
Ge5 Li9 2.520894 1_555
Ge5 Li14 2.636180 1_565
Ge5 Li14 2.636180 1_455
Ge5 Li14 2.637254 1_555
Ge5 Li0 2.844241 1_455
Ge5 Li0 2.844241 1_565
Ge5 Li0 2.845860 1_465
Ge5 Li7 3.036523 1_455
Ge5 Li7 3.036523 1_565
Ge5 Li7 3.036737 1_465
Ge6 Li10 2.520894 1_555
Ge6 Li13 2.636180 1_455
Ge6 Li13 2.636180 1_565
Ge6 Li13 2.637254 1_555
Ge6 Li0 2.844241 1_565
Ge6 Li0 2.844241 1_455
Ge6 Li0 2.845860 1_465
Ge6 Li17 3.036523 1_455
Ge6 Li17 3.036523 1_565
Ge6 Li17 3.036737 1_465
Ge7 Li11 2.520894 1_555
Ge7 Li12 2.636180 1_655
Ge7 Li12 2.636180 1_545
Ge7 Li12 2.637254 1_555
Ge7 Li1 2.844241 1_655
Ge7 Li1 2.844241 1_545
Ge7 Li1 2.845860 1_645
Ge7 Li16 3.036523 1_655
Ge7 Li16 3.036523 1_545
Ge7 Li16 3.036737 1_645
