# generated using pymatgen
data_Na14Ti4Al4Si9(SO16)3
_symmetry_space_group_name_H-M   'P 1'
_cell_length_a   17.73826657
_cell_length_b   8.86713621
_cell_length_c   21.67973680
_cell_angle_alpha   90.11590361
_cell_angle_beta   90.16632879
_cell_angle_gamma   120.00197818
_symmetry_Int_Tables_number   1
_chemical_formula_structural   Na14Ti4Al4Si9(SO16)3
_chemical_formula_sum   'Na42 Ti12 Al12 Si27 S9 O144'
_cell_volume   2953.01199735
_cell_formula_units_Z   3
loop_
 _symmetry_equiv_pos_site_id
 _symmetry_equiv_pos_as_xyz
  1  'x, y, z'
loop_
 _atom_site_type_symbol
 _atom_site_label
 _atom_site_symmetry_multiplicity
 _atom_site_fract_x
 _atom_site_fract_y
 _atom_site_fract_z
 _atom_site_occupancy
  Na  Na0  1  0.81919665  0.00747616  0.25474832  1
  Na  Na1  1  0.17311783  0.35384061  0.25572087  1
  Na  Na2  1  0.68990163  0.37044031  0.25447831  1
  Na  Na3  1  0.99742140  0.62863616  0.24629033  1
  Na  Na4  1  0.50252986  0.63733360  0.25260366  1
  Na  Na5  1  0.31727551  0.62859586  0.75058954  1
  Na  Na6  1  0.00100288  0.36448042  0.74371907  1
  Na  Na7  1  0.49883855  0.36787776  0.74225158  1
  Na  Na8  1  0.18821157  0.00945092  0.74909207  1
  Na  Na9  1  0.68020217  0.99610091  0.75003248  1
  Na  Na10  1  0.14882080  0.32765038  0.58210566  1
  Na  Na11  1  0.64763765  0.32824477  0.58070662  1
  Na  Na12  1  0.33562583  0.98110838  0.58902781  1
  Na  Na13  1  0.83281840  0.96806051  0.58156079  1
  Na  Na14  1  0.14220042  0.96130484  0.08022146  1
  Na  Na15  1  0.65237166  0.97429928  0.07790991  1
  Na  Na16  1  0.33301839  0.69393812  0.08098012  1
  Na  Na17  1  0.83569175  0.69047779  0.08882209  1
  Na  Na18  1  0.48185370  0.67507982  0.91415492  1
  Na  Na19  1  0.98227934  0.67212544  0.92413392  1
  Na  Na20  1  0.34784131  0.02787874  0.90671341  1
  Na  Na21  1  0.84775720  0.02741769  0.90860922  1
  Na  Na22  1  0.17068405  0.29899038  0.90803439  1
  Na  Na23  1  0.66670240  0.29588944  0.90979534  1
  Na  Na24  1  0.48575016  0.29858501  0.42893533  1
  Na  Na25  1  0.97975358  0.28595571  0.42064939  1
  Na  Na26  1  0.16591911  0.03856040  0.41452704  1
  Na  Na27  1  0.67257704  0.04555262  0.41576880  1
  Na  Na28  1  0.34843033  0.66865593  0.41442648  1
  Na  Na29  1  0.84731047  0.66621988  0.41884397  1
  Na  Na30  1  0.99924867  0.98840728  0.49968125  1
  Na  Na31  1  0.50557176  0.00925745  0.50193854  1
  Na  Na32  1  0.00284742  0.00015749  0.00082191  1
  Na  Na33  1  0.50397391  0.00920397  0.99735574  1
  Na  Na34  1  0.32997953  0.33806850  0.82873894  1
  Na  Na35  1  0.82699727  0.33689340  0.83110629  1
  Na  Na36  1  0.32685472  0.31249223  0.33506997  1
  Na  Na37  1  0.83012031  0.32423649  0.33301097  1
  Na  Na38  1  0.15547835  0.65065451  0.16716532  1
  Na  Na39  1  0.66173579  0.65049828  0.16856624  1
  Na  Na40  1  0.16014792  0.67079992  0.66790229  1
  Na  Na41  1  0.66043792  0.66112124  0.66444192  1
  Ti  Ti0  1  0.99883237  0.01474175  0.64071354  1
  Ti  Ti1  1  0.50545092  0.01109330  0.65020512  1
  Ti  Ti2  1  0.00434210  0.00040606  0.15006691  1
  Ti  Ti3  1  0.50543401  0.98296760  0.14529907  1
  Ti  Ti4  1  0.82656836  0.32001003  0.68408081  1
  Ti  Ti5  1  0.32925106  0.34941225  0.18849409  1
  Ti  Ti6  1  0.16490448  0.67016035  0.02054574  1
  Ti  Ti7  1  0.66920483  0.67014292  0.02134768  1
  Ti  Ti8  1  0.16820634  0.66802438  0.52143787  1
  Ti  Ti9  1  0.67143298  0.65715547  0.52439202  1
  Ti  Ti10  1  0.17700854  0.67472677  0.30822410  1
  Ti  Ti11  1  0.67804549  0.68205974  0.80688623  1
  Al  Al0  1  0.99850841  0.01618231  0.35074695  1
  Al  Al1  1  0.50420454  0.00786603  0.35336598  1
  Al  Al2  1  0.00459070  0.99797257  0.85199042  1
  Al  Al3  1  0.49809749  0.98113437  0.85013374  1
  Al  Al4  1  0.33552583  0.31915161  0.69101546  1
  Al  Al5  1  0.83550921  0.35130716  0.19148452  1
  Al  Al6  1  0.32434698  0.33811707  0.97857894  1
  Al  Al7  1  0.82095392  0.33851579  0.98131552  1
  Al  Al8  1  0.32221346  0.30544863  0.48141868  1
  Al  Al9  1  0.82481228  0.32101268  0.48200720  1
  Al  Al10  1  0.68318043  0.69032899  0.31422801  1
  Al  Al11  1  0.18108846  0.67701432  0.81229865  1
  Si  Si0  1  0.14596075  0.00154143  0.25370173  1
  Si  Si1  1  0.64768425  0.99547161  0.25404960  1
  Si  Si2  1  0.36106993  0.72408268  0.25126873  1
  Si  Si3  1  0.85712911  0.71496554  0.25289806  1
  Si  Si4  1  0.99640562  0.28963471  0.25116932  1
  Si  Si5  1  0.14474853  0.29461887  0.75217061  1
  Si  Si6  1  0.64509236  0.28869370  0.75561260  1
  Si  Si7  1  0.49708093  0.70497943  0.75136974  1
  Si  Si8  1  0.35641876  0.99822763  0.75283436  1
  Si  Si9  1  0.86259928  0.00675405  0.75265570  1
  Si  Si10  1  0.47305792  0.33592518  0.58287121  1
  Si  Si11  1  0.97664389  0.34607594  0.58163031  1
  Si  Si12  1  0.18991321  0.04403314  0.58558696  1
  Si  Si13  1  0.68278775  0.03436305  0.57972213  1
  Si  Si14  1  0.83927571  0.61712353  0.57913626  1
  Si  Si15  1  0.47713467  0.60989724  0.08118779  1
  Si  Si16  1  0.97288669  0.60956067  0.08283581  1
  Si  Si17  1  0.18335229  0.33260161  0.08002467  1
  Si  Si18  1  0.68834280  0.33517895  0.08607675  1
  Si  Si19  1  0.31462244  0.66896326  0.91665430  1
  Si  Si20  1  0.81535866  0.66955842  0.91617343  1
  Si  Si21  1  0.16849098  0.95950192  0.91315728  1
  Si  Si22  1  0.66883783  0.96507719  0.91730085  1
  Si  Si23  1  0.31604607  0.96131425  0.41636977  1
  Si  Si24  1  0.81530924  0.96386490  0.41722423  1
  Si  Si25  1  0.16813291  0.37210108  0.41688080  1
  Si  Si26  1  0.66679969  0.37644122  0.41160973  1
  S  S0  1  0.49730655  0.28162994  0.25125943  1
  S  S1  1  0.99917912  0.71106674  0.75359992  1
  S  S2  1  0.33523266  0.61634723  0.58105449  1
  S  S3  1  0.33557951  0.05534022  0.08123212  1
  S  S4  1  0.83569774  0.05416012  0.08148812  1
  S  S5  1  0.02240510  0.37766233  0.91559713  1
  S  S6  1  0.51949032  0.37668147  0.91857713  1
  S  S7  1  0.02288668  0.66549754  0.41527802  1
  S  S8  1  0.52286617  0.66893802  0.41461987  1
  O  O0  1  0.10104048  0.04190203  0.31165640  1
  O  O1  1  0.60123320  0.03517028  0.31114428  1
  O  O2  1  0.42285241  0.81596023  0.30988313  1
  O  O3  1  0.92106618  0.81338269  0.31096461  1
  O  O4  1  0.48917540  0.18568788  0.30905307  1
  O  O5  1  0.97960876  0.17530219  0.31312133  1
  O  O6  1  0.10216088  0.16735449  0.81206281  1
  O  O7  1  0.59704870  0.16114587  0.81365800  1
  O  O8  1  0.47898872  0.78237391  0.81415842  1
  O  O9  1  0.99189477  0.79316200  0.81171392  1
  O  O10  1  0.41815257  0.02451531  0.81225092  1
  O  O11  1  0.92242934  0.02830588  0.81219791  1
  O  O12  1  0.40048590  0.96772787  0.69028944  1
  O  O13  1  0.90426433  0.98343355  0.68886537  1
  O  O14  1  0.08103006  0.20374478  0.69140787  1
  O  O15  1  0.58608371  0.20631748  0.69190394  1
  O  O16  1  0.01144225  0.82180733  0.69929792  1
  O  O17  1  0.51860782  0.84663109  0.69561221  1
  O  O18  1  0.40261089  0.82838129  0.18698082  1
  O  O19  1  0.90082504  0.83302262  0.18958403  1
  O  O20  1  0.01858174  0.19193980  0.19464659  1
  O  O21  1  0.50791157  0.19247490  0.19710848  1
  O  O22  1  0.08663182  0.96697333  0.19014820  1
  O  O23  1  0.58306831  0.95552690  0.19124457  1
  O  O24  1  0.42942232  0.35307107  0.64576830  1
  O  O25  1  0.93288680  0.36000324  0.64630392  1
  O  O26  1  0.25160788  0.13297638  0.64552550  1
  O  O27  1  0.74461804  0.12339302  0.64265238  1
  O  O28  1  0.32465831  0.51412093  0.63732406  1
  O  O29  1  0.82010776  0.48631939  0.63810982  1
  O  O30  1  0.43129885  0.50534933  0.14536357  1
  O  O31  1  0.93007807  0.50599670  0.14577881  1
  O  O32  1  0.32672739  0.14335784  0.13605753  1
  O  O33  1  0.82497992  0.13506727  0.13739568  1
  O  O34  1  0.24672479  0.36338113  0.14228151  1
  O  O35  1  0.74940414  0.36469684  0.14576736  1
  O  O36  1  0.22859238  0.29852201  0.02082696  1
  O  O37  1  0.72420507  0.29046240  0.02332625  1
  O  O38  1  0.41419148  0.51323728  0.02315909  1
  O  O39  1  0.91299752  0.51271167  0.02200476  1
  O  O40  1  0.34135252  0.14852645  0.02343018  1
  O  O41  1  0.83948477  0.14820372  0.02435026  1
  O  O42  1  0.22631739  0.15835119  0.52265698  1
  O  O43  1  0.72641673  0.15893906  0.52044408  1
  O  O44  1  0.33910205  0.52916442  0.52405761  1
  O  O45  1  0.84665130  0.52805924  0.51656723  1
  O  O46  1  0.41276704  0.31016651  0.52190244  1
  O  O47  1  0.91503000  0.31258465  0.52268576  1
  O  O48  1  0.26370464  0.69532097  0.97689835  1
  O  O49  1  0.76753731  0.70106902  0.97694366  1
  O  O50  1  0.07742308  0.46690725  0.97087866  1
  O  O51  1  0.57704278  0.46993542  0.97249189  1
  O  O52  1  0.15081336  0.83537725  0.97551774  1
  O  O53  1  0.65367338  0.83785312  0.97778374  1
  O  O54  1  0.26822543  0.83412132  0.47641476  1
  O  O55  1  0.76469148  0.83171639  0.47570000  1
  O  O56  1  0.15344884  0.47033674  0.47685957  1
  O  O57  1  0.64918693  0.46309463  0.47387021  1
  O  O58  1  0.07838217  0.68699801  0.47034213  1
  O  O59  1  0.57725800  0.69031661  0.46914232  1
  O  O60  1  0.06395207  0.64562861  0.35915020  1
  O  O61  1  0.56173276  0.64328082  0.35754913  1
  O  O62  1  0.24861089  0.86094570  0.35867131  1
  O  O63  1  0.75351684  0.88261873  0.35621071  1
  O  O64  1  0.18410950  0.49782046  0.35647243  1
  O  O65  1  0.67771231  0.50413832  0.35359166  1
  O  O66  1  0.06196667  0.48330895  0.85985541  1
  O  O67  1  0.55584690  0.47930161  0.86179124  1
  O  O68  1  0.18198909  0.85732316  0.85549923  1
  O  O69  1  0.68463860  0.87020003  0.85755230  1
  O  O70  1  0.25197774  0.62963677  0.85695766  1
  O  O71  1  0.74705812  0.63360374  0.85959122  1
  O  O72  1  0.01555939  0.82539920  0.41475175  1
  O  O73  1  0.51568477  0.83071965  0.41228274  1
  O  O74  1  0.41146009  0.97759822  0.40933111  1
  O  O75  1  0.91056540  0.97436110  0.41333491  1
  O  O76  1  0.08096183  0.17946897  0.41266216  1
  O  O77  1  0.57936125  0.18037465  0.40915459  1
  O  O78  1  0.01704514  0.20439452  0.91458630  1
  O  O79  1  0.51367550  0.20451892  0.91749575  1
  O  O80  1  0.08155306  0.98092384  0.91044066  1
  O  O81  1  0.58153620  0.98286466  0.91338442  1
  O  O82  1  0.40980030  0.84754754  0.91448776  1
  O  O83  1  0.91146217  0.84338892  0.91024089  1
  O  O84  1  0.48383413  0.15857284  0.58592264  1
  O  O85  1  0.98824634  0.16897907  0.58420845  1
  O  O86  1  0.09359660  0.02359522  0.59383780  1
  O  O87  1  0.58859937  0.02291710  0.58762907  1
  O  O88  1  0.41073535  0.79440352  0.58254673  1
  O  O89  1  0.91971512  0.81629090  0.58713324  1
  O  O90  1  0.48598600  0.80892540  0.08417368  1
  O  O91  1  0.98452357  0.80890270  0.08458674  1
  O  O92  1  0.41102515  0.02713234  0.08444015  1
  O  O93  1  0.91127850  0.02664790  0.08282550  1
  O  O94  1  0.08905699  0.15758806  0.08667979  1
  O  O95  1  0.58994409  0.16235501  0.09370131  1
  O  O96  1  0.34534918  0.17101664  0.74991368  1
  O  O97  1  0.85024858  0.17867136  0.75037089  1
  O  O98  1  0.24208840  0.32022121  0.74211015  1
  O  O99  1  0.74013379  0.30357673  0.74760117  1
  O  O100  1  0.41120061  0.51509175  0.74129570  1
  O  O101  1  0.92154100  0.53655559  0.75055237  1
  O  O102  1  0.35023448  0.52495808  0.24799881  1
  O  O103  1  0.84508570  0.51944161  0.24903491  1
  O  O104  1  0.41873288  0.30134096  0.24767774  1
  O  O105  1  0.91060510  0.30704772  0.24111317  1
  O  O106  1  0.24263946  0.17645545  0.24395331  1
  O  O107  1  0.74308461  0.16426385  0.24232348  1
  O  O108  1  0.32576615  0.49587546  0.92191798  1
  O  O109  1  0.82252075  0.49290086  0.92141485  1
  O  O110  1  0.43056295  0.35155360  0.92563503  1
  O  O111  1  0.93352602  0.35162233  0.92143895  1
  O  O112  1  0.25774251  0.15126642  0.92055188  1
  O  O113  1  0.75840594  0.15539157  0.92391373  1
  O  O114  1  0.32294242  0.15207697  0.42078634  1
  O  O115  1  0.82623073  0.15851724  0.42367914  1
  O  O116  1  0.25775176  0.36071865  0.42301109  1
  O  O117  1  0.75477634  0.35986678  0.41631054  1
  O  O118  1  0.43334806  0.51633947  0.41907513  1
  O  O119  1  0.93564127  0.50905459  0.41864895  1
  O  O120  1  0.18104592  0.51460129  0.07834454  1
  O  O121  1  0.68310053  0.51506646  0.07823510  1
  O  O122  1  0.07487453  0.64751896  0.07661711  1
  O  O123  1  0.57786234  0.65055508  0.07933046  1
  O  O124  1  0.25355458  0.87741148  0.08090018  1
  O  O125  1  0.75421086  0.87315543  0.08048356  1
  O  O126  1  0.18421890  0.85282086  0.57724890  1
  O  O127  1  0.67834670  0.84688774  0.57642211  1
  O  O128  1  0.25347116  0.63301157  0.58023597  1
  O  O129  1  0.74889583  0.63261504  0.57845835  1
  O  O130  1  0.07762268  0.51050956  0.57848049  1
  O  O131  1  0.57362588  0.49983383  0.57662710  1
  O  O132  1  0.15016980  0.82258079  0.25697789  1
  O  O133  1  0.65051774  0.81319616  0.25848331  1
  O  O134  1  0.26100303  0.68719914  0.25234159  1
  O  O135  1  0.75988347  0.69651692  0.25498512  1
  O  O136  1  0.08390168  0.48355634  0.25571990  1
  O  O137  1  0.57552301  0.45994767  0.25296211  1
  O  O138  1  0.14934090  0.48524760  0.75888735  1
  O  O139  1  0.64934362  0.47702226  0.75906408  1
  O  O140  1  0.07854193  0.69118752  0.75672608  1
  O  O141  1  0.58471132  0.68588847  0.75630281  1
  O  O142  1  0.25874431  0.82277933  0.75430655  1
  O  O143  1  0.76250150  0.83595870  0.75352191  1
loop_
_geom_bond_atom_site_label_1
_geom_bond_atom_site_label_2
_geom_bond_distance
_geom_bond_site_symmetry_2
Na0 O105 2.339059 1_555
Na0 O107 2.388437 1_555
Na0 O135 2.410119 1_545
Na0 O63 2.481219 1_545
Na0 O133 2.602685 1_545
Na0 O5 2.765752 1_555
Na0 O33 2.767749 1_555
Na0 O19 2.954371 1_545
Na1 O136 2.376503 1_555
Na1 O106 2.449462 1_555
Na1 O64 2.485213 1_555
Na1 O134 2.562489 1_555
Na1 O0 2.691080 1_555
Na1 O20 2.713677 1_555
Na1 O102 2.727196 1_555
Na1 O34 2.769343 1_555
Na2 O103 2.387942 1_555
Na2 O107 2.454783 1_555
Na2 O135 2.512259 1_555
Na2 O65 2.513578 1_555
Na2 O137 2.521394 1_555
Na2 O35 2.595949 1_555
Na2 O1 2.858484 1_555
Na3 O103 2.372218 1_555
Na3 O132 2.384822 1_655
Na3 O136 2.454117 1_655
Na3 O31 2.456428 1_555
Na3 O105 2.474198 1_555
Na3 O60 2.684407 1_655
Na3 O22 2.874765 1_655
Na3 O3 2.950356 1_555
Na4 O133 2.289621 1_555
Na4 O102 2.367858 1_555
Na4 O137 2.487407 1_555
Na4 O61 2.492461 1_555
Na4 O104 2.581875 1_555
Na4 O30 2.620035 1_555
Na4 O23 2.786817 1_555
Na4 O2 2.879120 1_555
Na5 O100 2.346783 1_555
Na5 O98 2.374647 1_555
Na5 O142 2.415976 1_555
Na5 O70 2.585648 1_555
Na5 O138 2.595976 1_555
Na5 O28 2.683660 1_555
Na5 O8 2.836335 1_555
Na5 O12 2.918687 1_555
Na6 O138 2.313888 1_555
Na6 O97 2.341656 1_455
Na6 O25 2.420458 1_455
Na6 O140 2.524545 1_555
Na6 O101 2.547131 1_455
Na6 O14 2.712712 1_555
Na6 O66 2.730006 1_555
Na7 O139 2.367661 1_555
Na7 O24 2.393951 1_555
Na7 O96 2.395482 1_555
Na7 O141 2.462286 1_555
Na7 O100 2.479983 1_555
Na7 O67 2.773146 1_555
Na7 O15 2.803451 1_555
Na8 O96 2.414164 1_555
Na8 O98 2.428715 1_555
Na8 O140 2.507873 1_545
Na8 O26 2.509676 1_555
Na8 O142 2.527629 1_545
Na8 O68 2.649278 1_545
Na8 O6 2.880227 1_555
Na8 O16 2.919122 1_545
Na9 O99 2.380894 1_565
Na9 O141 2.407745 1_555
Na9 O143 2.495234 1_555
Na9 O27 2.595255 1_565
Na9 O69 2.604494 1_555
Na9 O97 2.614483 1_565
Na9 O17 2.745835 1_555
Na9 O7 2.895252 1_565
Na10 O86 2.378284 1_555
Na10 O128 2.398614 1_555
Na10 O85 2.467349 1_455
Na10 O130 2.505605 1_555
Na10 O56 2.592798 1_555
Na10 O14 2.640860 1_555
Na10 O42 2.805455 1_555
Na10 O28 2.950982 1_555
Na11 O87 2.369865 1_555
Na11 O129 2.380269 1_555
Na11 O131 2.458420 1_555
Na11 O84 2.519849 1_555
Na11 O57 2.602683 1_555
Na11 O15 2.649140 1_555
Na11 O43 2.830909 1_555
Na11 O29 2.924943 1_555
Na12 O84 2.292695 1_565
Na12 O126 2.347711 1_555
Na12 O12 2.506012 1_555
Na12 O88 2.596454 1_555
Na12 O128 2.680465 1_555
Na12 O54 2.738702 1_555
Na12 O26 2.746955 1_565
Na12 O46 2.922271 1_565
Na13 O127 2.393385 1_555
Na13 O85 2.421777 1_565
Na13 O89 2.505121 1_555
Na13 O129 2.576498 1_555
Na13 O55 2.588583 1_555
Na13 O13 2.616365 1_555
Na13 O27 2.873792 1_565
Na13 O47 2.942752 1_565
Na14 O94 2.361788 1_565
Na14 O122 2.418576 1_555
Na14 O91 2.424881 1_455
Na14 O124 2.434020 1_555
Na14 O52 2.566166 1_554
Na14 O22 2.591597 1_555
Na14 O36 2.896889 1_565
Na15 O125 2.385492 1_555
Na15 O95 2.443479 1_565
Na15 O53 2.488763 1_554
Na15 O123 2.488947 1_555
Na15 O90 2.560165 1_555
Na15 O37 2.707972 1_565
Na15 O23 2.718577 1_555
Na16 O120 2.347485 1_555
Na16 O90 2.374595 1_555
Na16 O92 2.561121 1_565
Na16 O48 2.569543 1_554
Na16 O18 2.593623 1_555
Na16 O124 2.631899 1_555
Na16 O34 2.870761 1_555
Na16 O38 2.919170 1_555
Na17 O91 2.304386 1_555
Na17 O121 2.362813 1_555
Na17 O19 2.493635 1_555
Na17 O93 2.589558 1_565
Na17 O125 2.662047 1_555
Na17 O49 2.729620 1_554
Na17 O35 2.795592 1_555
Na17 O39 2.937234 1_555
Na18 O8 2.379825 1_555
Na18 O81 2.397817 1_555
Na18 O108 2.413112 1_555
Na18 O82 2.434556 1_555
Na18 O110 2.552148 1_555
Na18 O38 2.718874 1_556
Na18 O67 2.881740 1_555
Na18 O53 2.973785 1_555
Na19 O80 2.422984 1_655
Na19 O83 2.425346 1_555
Na19 O109 2.460595 1_555
Na19 O39 2.510080 1_556
Na19 O111 2.523711 1_555
Na19 O9 2.636475 1_555
Na19 O52 2.814234 1_655
Na20 O82 2.355991 1_545
Na20 O112 2.364619 1_555
Na20 O10 2.408768 1_555
Na20 O110 2.517694 1_555
Na20 O79 2.558871 1_555
Na20 O40 2.770283 1_556
Na20 O68 2.774832 1_545
Na21 O113 2.389552 1_555
Na21 O83 2.405216 1_545
Na21 O11 2.475688 1_555
Na21 O111 2.505331 1_555
Na21 O78 2.604030 1_655
Na21 O69 2.735310 1_545
Na21 O41 2.759226 1_556
Na21 O49 2.916357 1_545
Na22 O6 2.392811 1_555
Na22 O78 2.422310 1_555
Na22 O108 2.428185 1_555
Na22 O80 2.449175 1_545
Na22 O112 2.489207 1_555
Na22 O36 2.650363 1_556
Na22 O70 2.774144 1_555
Na23 O7 2.407649 1_555
Na23 O81 2.408436 1_545
Na23 O79 2.419970 1_555
Na23 O109 2.433124 1_555
Na23 O113 2.513376 1_555
Na23 O37 2.671292 1_556
Na23 O71 2.817319 1_555
Na24 O77 2.404743 1_555
Na24 O46 2.428176 1_555
Na24 O74 2.501829 1_545
Na24 O114 2.510612 1_555
Na24 O118 2.536399 1_555
Na24 O57 2.688908 1_555
Na24 O4 2.794985 1_555
Na25 O115 2.370884 1_555
Na25 O75 2.402342 1_545
Na25 O76 2.416796 1_655
Na25 O119 2.464912 1_555
Na25 O5 2.526917 1_555
Na25 O47 2.559506 1_555
Na26 O72 2.375869 1_545
Na26 O76 2.390961 1_555
Na26 O114 2.446033 1_555
Na26 O116 2.488003 1_555
Na26 O0 2.513682 1_555
Na26 O42 2.570753 1_555
Na26 O62 2.900203 1_545
Na26 O58 2.962864 1_545
Na27 O115 2.393262 1_555
Na27 O117 2.414463 1_555
Na27 O73 2.464961 1_545
Na27 O43 2.467940 1_555
Na27 O77 2.481918 1_555
Na27 O1 2.573103 1_555
Na27 O63 2.809534 1_545
Na27 O59 2.969792 1_545
Na28 O116 2.385191 1_555
Na28 O74 2.388655 1_555
Na28 O118 2.477384 1_555
Na28 O73 2.570325 1_555
Na28 O2 2.625001 1_555
Na28 O44 2.648742 1_555
Na28 O64 2.815064 1_555
Na28 O54 2.841377 1_555
Na29 O117 2.369858 1_555
Na29 O75 2.382226 1_555
Na29 O45 2.446595 1_555
Na29 O119 2.565312 1_555
Na29 O72 2.587734 1_655
Na29 O3 2.684624 1_555
Na29 O55 2.823919 1_555
Na29 O65 2.959778 1_555
Na30 O75 2.404245 1_555
Na30 O89 2.405849 1_555
Na30 O72 2.444110 1_655
Na30 O76 2.470473 1_665
Na30 O85 2.502529 1_565
Na30 O86 2.553512 1_665
Na31 O87 2.332327 1_555
Na31 O84 2.392001 1_555
Na31 O77 2.470472 1_555
Na31 O88 2.517718 1_545
Na31 O74 2.531028 1_545
Na31 O73 2.567110 1_545
Na32 O94 2.364323 1_555
Na32 O91 2.396696 1_445
Na32 O80 2.463787 1_544
Na32 O83 2.476575 1_444
Na32 O93 2.500141 1_455
Na32 O78 2.529571 1_554
Na33 O81 2.365530 1_545
Na33 O82 2.377042 1_545
Na33 O79 2.396329 1_555
Na33 O90 2.499718 1_546
Na33 O95 2.536051 1_556
Na33 O92 2.566525 1_556
Na34 O96 2.363302 1_555
Na34 O98 2.391217 1_555
Na34 O100 2.428937 1_555
Na34 O108 2.477586 1_555
Na34 O112 2.500626 1_555
Na34 O110 2.715569 1_555
Na35 O99 2.294607 1_555
Na35 O97 2.403124 1_555
Na35 O109 2.419291 1_555
Na35 O101 2.461101 1_555
Na35 O113 2.487543 1_555
Na35 O111 2.674647 1_555
Na36 O114 2.322529 1_555
Na36 O106 2.399982 1_555
Na36 O116 2.419658 1_555
Na36 O104 2.536510 1_555
Na36 O102 2.553864 1_555
Na36 O118 2.589286 1_555
Na37 O117 2.362470 1_555
Na37 O103 2.436610 1_555
Na37 O115 2.437000 1_555
Na37 O107 2.458072 1_555
Na37 O105 2.502735 1_555
Na37 O119 2.556569 1_555
Na38 O136 2.374343 1_555
Na38 O122 2.417097 1_555
Na38 O120 2.431441 1_555
Na38 O132 2.501362 1_555
Na38 O134 2.527762 1_555
Na38 O124 2.665143 1_555
Na39 O121 2.422983 1_555
Na39 O123 2.437255 1_555
Na39 O135 2.444412 1_555
Na39 O137 2.446621 1_555
Na39 O133 2.489763 1_555
Na39 O125 2.651413 1_555
Na40 O130 2.411014 1_555
Na40 O126 2.445078 1_555
Na40 O142 2.448985 1_555
Na40 O140 2.472405 1_555
Na40 O138 2.516864 1_555
Na40 O128 2.652398 1_555
Na41 O131 2.410525 1_555
Na41 O127 2.438970 1_555
Na41 O141 2.475380 1_555
Na41 O129 2.532296 1_555
Na41 O143 2.563486 1_555
Na41 O139 2.570283 1_555
Al0 O5 1.801287 1_555
Al0 O3 1.838763 1_545
Al0 O0 1.916498 1_655
Al0 O75 1.961617 1_545
Al0 O76 1.974908 1_655
Al0 O72 2.323260 1_645
Al1 O2 1.842983 1_545
Al1 O1 1.857973 1_555
Al1 O77 1.877167 1_555
Al1 O74 1.954978 1_545
Al1 O4 1.976164 1_555
Al1 O73 2.113484 1_545
Al2 O11 1.823802 1_465
Al2 O6 1.847940 1_565
Al2 O80 1.920794 1_555
Al2 O9 1.922174 1_455
Al2 O83 1.989273 1_455
Al2 O78 2.196475 1_565
Al3 O8 1.795787 1_555
Al3 O10 1.836704 1_565
Al3 O7 1.861530 1_565
Al3 O82 1.991669 1_555
Al3 O81 2.009124 1_555
Al3 O79 2.360333 1_565
Al4 O24 1.826612 1_555
Al4 O26 1.855010 1_555
Al4 O96 1.902785 1_555
Al4 O100 1.913178 1_555
Al4 O98 2.000126 1_555
Al4 O28 2.172794 1_555
Al5 O31 1.841558 1_555
Al5 O35 1.871442 1_555
Al5 O103 1.883142 1_555
Al5 O105 1.897964 1_555
Al5 O107 1.987957 1_555
Al5 O33 2.172089 1_555
Al6 O36 1.805856 1_556
Al6 O38 1.842634 1_556
Al6 O108 1.854272 1_555
Al6 O112 1.936197 1_555
Al6 O40 2.091582 1_556
Al6 O110 2.161034 1_555
Al7 O37 1.798785 1_556
Al7 O39 1.814877 1_556
Al7 O109 1.878989 1_555
Al7 O113 1.896958 1_555
Al7 O41 2.094172 1_556
Al7 O111 2.338700 1_555
Al8 O42 1.785719 1_555
Al8 O46 1.810142 1_555
Al8 O114 1.894208 1_555
Al8 O116 1.924987 1_555
Al8 O44 2.067865 1_555
Al8 O118 2.355618 1_555
Al9 O43 1.819576 1_555
Al9 O45 1.833988 1_555
Al9 O47 1.859029 1_555
Al9 O115 1.924801 1_555
Al9 O117 2.027408 1_555
Al9 O119 2.297513 1_555
Al10 O63 1.775375 1_555
Al10 O65 1.819190 1_555
Al10 O135 1.854607 1_555
Al10 O133 1.901503 1_555
Al10 O61 2.193526 1_555
Al10 O137 2.378461 1_555
Al11 O70 1.793863 1_555
Al11 O142 1.839795 1_555
Al11 O68 1.844445 1_555
Al11 O138 1.892090 1_555
Al11 O66 2.206417 1_555
Al11 O140 2.234411 1_555
O0 Si0 1.621975 1_555
O1 Si1 1.621478 1_545
O2 Si2 1.604488 1_555
O3 Si3 1.621742 1_555
O4 S0 1.482256 1_555
O5 Si4 1.620570 1_555
O6 Si5 1.639871 1_555
O7 Si6 1.623906 1_555
O8 Si7 1.626636 1_555
O9 S1 1.491726 1_555
O10 Si8 1.627296 1_545
O11 Si9 1.617831 1_555
O12 Si8 1.654950 1_555
O12 Ti1 1.914280 1_565
O13 Si9 1.630695 1_565
O13 Ti0 1.877864 1_565
O14 Si5 1.654801 1_555
O14 Ti0 1.918857 1_455
O15 Si6 1.661248 1_555
O15 Ti1 1.835669 1_555
O16 S1 1.479872 1_455
O16 Ti0 2.231535 1_465
O17 Si7 1.647376 1_555
O17 Ti1 1.869502 1_565
O18 Si2 1.634156 1_555
O18 Ti3 1.880550 1_555
O19 Si3 1.667719 1_555
O19 Ti2 1.896660 1_665
O20 Si4 1.657122 1_455
O20 Ti2 1.856131 1_555
O21 S0 1.478118 1_555
O21 Ti3 2.150424 1_545
O22 Si0 1.663477 1_565
O22 Ti2 1.843922 1_565
O23 Si1 1.695910 1_555
O23 Ti3 1.809946 1_555
O24 Si10 1.613871 1_555
O25 Si11 1.638621 1_555
O25 Ti4 1.922098 1_555
O26 Si12 1.622545 1_555
O27 Si13 1.675865 1_555
O27 Ti4 1.846872 1_555
O28 S2 1.476750 1_555
O29 Si14 1.646104 1_555
O29 Ti4 1.831780 1_555
O30 Si15 1.647489 1_555
O30 Ti5 1.890732 1_555
O31 Si16 1.611129 1_555
O32 S3 1.471883 1_555
O32 Ti5 2.131241 1_555
O33 S4 1.467699 1_555
O34 Si17 1.686041 1_555
O34 Ti5 1.826292 1_555
O35 Si18 1.619653 1_555
O36 Si17 1.621515 1_555
O37 Si18 1.633310 1_555
O38 Si15 1.610699 1_555
O39 Si16 1.637132 1_555
O40 S3 1.477803 1_555
O41 S4 1.477498 1_555
O42 Si12 1.631547 1_555
O43 Si13 1.620892 1_555
O44 S2 1.476118 1_555
O45 Si14 1.606511 1_555
O46 Si10 1.639912 1_555
O47 Si11 1.606698 1_555
O48 Si19 1.671207 1_555
O48 Ti6 1.906846 1_556
O49 Si20 1.665958 1_555
O49 Ti7 1.891243 1_556
O50 S5 1.494010 1_555
O50 Ti6 2.000294 1_556
O51 S6 1.495704 1_555
O51 Ti7 2.006479 1_556
O52 Si21 1.673571 1_555
O52 Ti6 1.879423 1_556
O53 Si22 1.664014 1_555
O53 Ti7 1.895596 1_556
O54 Si23 1.655817 1_555
O54 Ti8 1.916320 1_555
O55 Si24 1.657363 1_555
O55 Ti9 1.924266 1_555
O56 Si25 1.655818 1_555
O56 Ti8 1.899491 1_555
O57 Si26 1.657785 1_555
O57 Ti9 1.904527 1_555
O58 S7 1.495008 1_555
O58 Ti8 2.013124 1_555
O59 S8 1.474304 1_555
O59 Ti9 2.189246 1_555
O60 S7 1.474775 1_555
O60 Ti10 2.191759 1_555
O61 S8 1.489496 1_555
O62 Si23 1.646148 1_555
O62 Ti10 1.850170 1_555
O63 Si24 1.633444 1_555
O64 Si25 1.652361 1_555
O64 Ti10 1.942716 1_555
O65 Si26 1.640022 1_555
O66 S5 1.477323 1_555
O67 S6 1.477091 1_555
O67 Ti11 2.339667 1_555
O68 Si21 1.629373 1_555
O69 Si22 1.642473 1_555
O69 Ti11 1.949373 1_555
O70 Si19 1.622857 1_555
O71 Si20 1.636377 1_555
O71 Ti11 1.873145 1_555
O72 S7 1.487189 1_555
O73 S8 1.503232 1_555
O74 Si23 1.632732 1_555
O75 Si24 1.647537 1_555
O76 Si25 1.635270 1_555
O77 Si26 1.653327 1_555
O78 S5 1.491235 1_555
O79 S6 1.477848 1_555
O80 Si21 1.646260 1_555
O81 Si22 1.635157 1_555
O82 Si19 1.639281 1_555
O83 Si20 1.634852 1_555
O84 Si10 1.677790 1_555
O84 Ti1 2.074874 1_555
O85 Si11 1.683731 1_555
O85 Ti0 1.915370 1_555
O86 Si12 1.635861 1_555
O86 Ti0 1.934634 1_455
O87 Si13 1.631934 1_555
O87 Ti1 1.970875 1_555
O88 S2 1.473901 1_555
O88 Ti1 2.326379 1_565
O89 Si14 1.631616 1_555
O89 Ti0 1.981904 1_565
O90 Si15 1.692858 1_555
O90 Ti3 1.927021 1_555
O91 Si16 1.674286 1_555
O91 Ti2 2.100639 1_665
O92 S3 1.480764 1_555
O92 Ti3 2.311658 1_545
O93 S4 1.478053 1_555
O93 Ti2 2.296932 1_655
O94 Si17 1.622733 1_555
O94 Ti2 2.003582 1_555
O95 Si18 1.658312 1_555
O95 Ti3 1.913372 1_545
O96 Si8 1.640491 1_545
O97 Si9 1.645758 1_555
O97 Ti4 2.083932 1_555
O98 Si5 1.640359 1_555
O99 Si6 1.633719 1_555
O99 Ti4 2.014447 1_555
O100 Si7 1.623219 1_555
O101 S1 1.470825 1_555
O101 Ti4 2.311160 1_555
O102 Si2 1.679157 1_555
O102 Ti5 1.906674 1_555
O103 Si3 1.639331 1_555
O104 S0 1.490701 1_555
O104 Ti5 2.239280 1_555
O105 Si4 1.618928 1_555
O106 Si0 1.653667 1_555
O106 Ti5 1.954445 1_555
O107 Si1 1.624661 1_545
O108 Si19 1.646713 1_555
O109 Si20 1.637822 1_555
O110 S6 1.487062 1_555
O111 S5 1.480583 1_655
O112 Si21 1.651886 1_545
O113 Si22 1.645900 1_545
O114 Si23 1.636371 1_545
O115 Si24 1.643377 1_545
O116 Si25 1.647491 1_555
O117 Si26 1.641893 1_555
O118 S8 1.488068 1_555
O119 S7 1.476079 1_655
O120 Si17 1.635133 1_555
O120 Ti6 1.988634 1_555
O121 Si18 1.652631 1_555
O121 Ti7 1.953639 1_555
O122 Si16 1.672399 1_455
O122 Ti6 1.939065 1_555
O123 Si15 1.637163 1_555
O123 Ti7 1.991696 1_555
O124 S3 1.520007 1_565
O124 Ti6 2.156480 1_555
O125 S4 1.531465 1_565
O125 Ti7 2.103025 1_555
O126 Si12 1.656805 1_565
O126 Ti8 1.937599 1_555
O127 Si13 1.625828 1_565
O127 Ti9 1.975605 1_555
O128 S2 1.529614 1_555
O128 Ti8 2.113958 1_555
O129 Si14 1.676122 1_555
O129 Ti9 1.897367 1_555
O130 Si11 1.651742 1_455
O130 Ti8 1.958597 1_555
O131 Si10 1.649946 1_555
O131 Ti9 1.958532 1_555
O132 Si0 1.627169 1_565
O132 Ti10 1.951107 1_555
O133 Si1 1.644964 1_555
O134 Si2 1.636426 1_555
O134 Ti10 1.883108 1_555
O135 Si3 1.650034 1_555
O136 Si4 1.644632 1_455
O136 Ti10 2.019478 1_555
O137 S0 1.493983 1_555
O138 Si5 1.657194 1_555
O139 Si6 1.635082 1_555
O139 Ti11 1.924368 1_555
O140 S1 1.505027 1_455
O141 Si7 1.648801 1_555
O141 Ti11 1.997635 1_555
O142 Si8 1.651686 1_555
O143 Si9 1.660632 1_565
O143 Ti11 1.848510 1_555
