# generated using pymatgen
data_Na7Ca2Nb2Si3(PO8)3
_symmetry_space_group_name_H-M   'P 1'
_cell_length_a   9.28926844
_cell_length_b   9.29956565
_cell_length_c   22.56838576
_cell_angle_alpha   90.00617008
_cell_angle_beta   89.93010247
_cell_angle_gamma   119.84717609
_symmetry_Int_Tables_number   1
_chemical_formula_structural   Na7Ca2Nb2Si3(PO8)3
_chemical_formula_sum   'Na21 Ca6 Nb6 Si9 P9 O72'
_cell_volume   1690.99236638
_cell_formula_units_Z   3
loop_
 _symmetry_equiv_pos_site_id
 _symmetry_equiv_pos_as_xyz
  1  'x, y, z'
loop_
 _atom_site_type_symbol
 _atom_site_label
 _atom_site_symmetry_multiplicity
 _atom_site_fract_x
 _atom_site_fract_y
 _atom_site_fract_z
 _atom_site_occupancy
  Na  Na0  1  0.62351860  0.98177013  0.26003627  1
  Na  Na1  1  0.34765300  0.36910954  0.25520584  1
  Na  Na2  1  0.03153300  0.65448445  0.25530787  1
  Na  Na3  1  0.65803795  0.62772929  0.74508055  1
  Na  Na4  1  0.98107782  0.35440796  0.74080402  1
  Na  Na5  1  0.36967884  0.01994488  0.74205771  1
  Na  Na6  1  0.00731708  0.66933075  0.58483682  1
  Na  Na7  1  0.67334525  0.99843683  0.58418701  1
  Na  Na8  1  0.27127718  0.94145829  0.08703459  1
  Na  Na9  1  0.66794478  0.71816830  0.07755420  1
  Na  Na10  1  0.05459917  0.33642525  0.08807317  1
  Na  Na11  1  0.98647407  0.68872866  0.90636226  1
  Na  Na12  1  0.31727494  0.29305825  0.90789635  1
  Na  Na13  1  0.95798826  0.31175429  0.42835767  1
  Na  Na14  1  0.35713912  0.03426456  0.42474931  1
  Na  Na15  1  0.00212617  0.00291484  0.50186541  1
  Na  Na16  1  0.97426018  0.98317892  0.99397361  1
  Na  Na17  1  0.66820035  0.32904653  0.82011665  1
  Na  Na18  1  0.66585949  0.34112927  0.34876675  1
  Na  Na19  1  0.31691112  0.66695102  0.17264695  1
  Na  Na20  1  0.32707826  0.65335255  0.66284029  1
  Ca  Ca0  1  0.99256521  0.99766283  0.85113946  1
  Ca  Ca1  1  0.99834819  0.99694763  0.14336592  1
  Ca  Ca2  1  0.66606664  0.33401298  0.67298173  1
  Ca  Ca3  1  0.66075180  0.33420240  0.49117780  1
  Ca  Ca4  1  0.33416451  0.66944138  0.02291158  1
  Ca  Ca5  1  0.33650680  0.66793199  0.32053536  1
  Nb  Nb0  1  0.99826377  0.00276411  0.35023788  1
  Nb  Nb1  1  0.01106520  0.00474376  0.65241596  1
  Nb  Nb2  1  0.67021555  0.33327428  0.19190383  1
  Nb  Nb3  1  0.66965656  0.33713155  0.97429154  1
  Nb  Nb4  1  0.33927304  0.66866148  0.51363094  1
  Nb  Nb5  1  0.33744174  0.66746939  0.81573151  1
  Si  Si0  1  0.29869888  0.00515506  0.24570494  1
  Si  Si1  1  0.99638156  0.29490902  0.24505093  1
  Si  Si2  1  0.30190419  0.30477413  0.75612331  1
  Si  Si3  1  0.00450004  0.69797729  0.75496481  1
  Si  Si4  1  0.98708675  0.33365142  0.58261943  1
  Si  Si5  1  0.35003845  0.01443590  0.58174124  1
  Si  Si6  1  0.94906393  0.61672050  0.08291080  1
  Si  Si7  1  0.62969820  0.66299918  0.92294362  1
  Si  Si8  1  0.64275309  0.97063062  0.41191783  1
  P  P0  1  0.71104661  0.70080897  0.24761496  1
  P  P1  1  0.69634531  0.99216135  0.75011747  1
  P  P2  1  0.67038026  0.65497301  0.58669405  1
  P  P3  1  0.66383540  0.05598608  0.08321391  1
  P  P4  1  0.38918466  0.33231607  0.08296396  1
  P  P5  1  0.03598207  0.37884923  0.91942755  1
  P  P6  1  0.34385497  0.96671307  0.91940366  1
  P  P7  1  0.32371796  0.35869880  0.41149276  1
  P  P8  1  0.03637544  0.67639693  0.41403677  1
  O  O0  1  0.18940547  0.02473279  0.30401180  1
  O  O1  1  0.83411320  0.80458323  0.30022193  1
  O  O2  1  0.97320632  0.16261779  0.30279572  1
  O  O3  1  0.22783674  0.20875792  0.81634870  1
  O  O4  1  0.97619981  0.77201540  0.81438596  1
  O  O5  1  0.79990746  0.02227618  0.80508331  1
  O  O6  1  0.78296555  0.96611605  0.69431948  1
  O  O7  1  0.16527320  0.18670999  0.70157065  1
  O  O8  1  0.01847314  0.82661186  0.69882717  1
  O  O9  1  0.77547085  0.79243213  0.18934486  1
  O  O10  1  0.01851516  0.21878644  0.18488956  1
  O  O11  1  0.19501200  0.97457303  0.18599156  1
  O  O12  1  0.92843934  0.39578264  0.63998212  1
  O  O13  1  0.46753490  0.07672831  0.63937330  1
  O  O14  1  0.63208696  0.55956575  0.64509421  1
  O  O15  1  0.83510109  0.50448728  0.14173251  1
  O  O16  1  0.66449649  0.15343387  0.14131566  1
  O  O17  1  0.48852752  0.32942310  0.13914050  1
  O  O18  1  0.48943119  0.33256531  0.02605012  1
  O  O19  1  0.83817805  0.50148599  0.02364154  1
  O  O20  1  0.66089491  0.15764553  0.02842273  1
  O  O21  1  0.41841347  0.12019806  0.52252181  1
  O  O22  1  0.71773402  0.57557866  0.53699814  1
  O  O23  1  0.86114427  0.27988495  0.52735614  1
  O  O24  1  0.54656698  0.66871516  0.98371196  1
  O  O25  1  0.12412399  0.45690972  0.97719330  1
  O  O26  1  0.31812290  0.87014108  0.97642146  1
  O  O27  1  0.52468060  0.84119708  0.46768474  1
  O  O28  1  0.31166296  0.47104351  0.46158397  1
  O  O29  1  0.16121059  0.69211394  0.46578942  1
  O  O30  1  0.10375539  0.65317284  0.35539564  1
  O  O31  1  0.54491192  0.89687664  0.35178875  1
  O  O32  1  0.33331674  0.43604267  0.35132824  1
  O  O33  1  0.13607529  0.50172540  0.86517169  1
  O  O34  1  0.35698369  0.86540283  0.86433754  1
  O  O35  1  0.49884792  0.64508092  0.86478843  1
  O  O36  1  0.04086243  0.84845000  0.41330307  1
  O  O37  1  0.82628510  0.97427665  0.40991754  1
  O  O38  1  0.15028159  0.18719747  0.41360115  1
  O  O39  1  0.01667443  0.20870205  0.91249956  1
  O  O40  1  0.19903870  0.99980071  0.91250769  1
  O  O41  1  0.81937347  0.80471887  0.91802922  1
  O  O42  1  0.00170407  0.16613996  0.59826590  1
  O  O43  1  0.15612689  0.97888394  0.59474801  1
  O  O44  1  0.82061273  0.83719274  0.59337555  1
  O  O45  1  0.95400285  0.79122078  0.07420741  1
  O  O46  1  0.82295726  0.04604495  0.07813152  1
  O  O47  1  0.21882350  0.17557241  0.07741912  1
  O  O48  1  0.66134091  0.13570028  0.74160626  1
  O  O49  1  0.48557558  0.33611346  0.74327225  1
  O  O50  1  0.85292949  0.51183819  0.74476636  1
  O  O51  1  0.71173203  0.53020213  0.24896724  1
  O  O52  1  0.81373985  0.29484039  0.24740727  1
  O  O53  1  0.47762214  0.18994811  0.24672319  1
  O  O54  1  0.62496320  0.47478202  0.91849222  1
  O  O55  1  0.86084706  0.37120837  0.91681516  1
  O  O56  1  0.51054508  0.13956017  0.91926962  1
  O  O57  1  0.67217273  0.15568773  0.42116509  1
  O  O58  1  0.46521280  0.32325495  0.42090767  1
  O  O59  1  0.86526265  0.52812913  0.42599724  1
  O  O60  1  0.37845136  0.49100916  0.08889754  1
  O  O61  1  0.12576133  0.62522948  0.09150605  1
  O  O62  1  0.50555346  0.88663822  0.08851973  1
  O  O63  1  0.31762452  0.81915461  0.57005812  1
  O  O64  1  0.51759776  0.67950558  0.57130399  1
  O  O65  1  0.17462062  0.49062731  0.56516927  1
  O  O66  1  0.33677437  0.85500878  0.25284082  1
  O  O67  1  0.53313159  0.66324705  0.25722521  1
  O  O68  1  0.14677809  0.48072370  0.25346118  1
  O  O69  1  0.30025734  0.48676214  0.75765456  1
  O  O70  1  0.18968935  0.70444388  0.75726825  1
  O  O71  1  0.52335915  0.82275858  0.75639951  1
loop_
_geom_bond_atom_site_label_1
_geom_bond_atom_site_label_2
_geom_bond_distance
_geom_bond_site_symmetry_2
Na0 O31 2.206158 1_555
Na0 O66 2.320896 1_555
Na0 O52 2.560888 1_565
Na0 O67 2.647205 1_555
Na0 O53 2.878843 1_565
Na1 O32 2.278744 1_555
Na1 O67 2.400389 1_555
Na1 O53 2.504365 1_555
Na1 O68 2.547323 1_555
Na1 O51 2.942437 1_555
Na2 O68 2.341089 1_555
Na2 O30 2.358890 1_555
Na2 O66 2.501391 1_555
Na2 O51 2.600933 1_455
Na3 O14 2.323957 1_555
Na3 O49 2.366063 1_555
Na3 O50 2.526103 1_555
Na3 O71 2.679098 1_555
Na3 O69 2.916482 1_555
Na4 O50 2.302802 1_555
Na4 O12 2.398896 1_555
Na4 O69 2.611634 1_655
Na4 O48 2.635443 1_555
Na4 O70 2.865684 1_655
Na5 O48 2.365640 1_555
Na5 O13 2.448044 1_555
Na5 O70 2.576375 1_545
Na5 O49 2.579538 1_555
Na5 O71 2.848216 1_545
Na6 O43 2.507494 1_555
Na6 O63 2.522221 1_555
Na6 O12 2.588476 1_455
Na6 O22 2.614261 1_455
Na6 O65 2.818348 1_555
Na6 O44 2.859361 1_455
Na6 O8 2.935506 1_555
Na6 O29 2.999365 1_555
Na7 O44 2.491094 1_555
Na7 O64 2.589217 1_555
Na7 O23 2.643713 1_565
Na7 O42 2.665379 1_665
Na7 O13 2.667561 1_565
Na7 O6 2.759714 1_555
Na7 O63 2.884277 1_555
Na7 O27 2.992722 1_555
Na8 O11 2.407802 1_555
Na8 O47 2.465933 1_565
Na8 O62 2.470146 1_555
Na8 O61 2.555105 1_555
Na8 O45 2.573982 1_455
Na8 O26 2.673070 1_554
Na9 O24 2.336156 1_554
Na9 O45 2.393940 1_555
Na9 O60 2.470560 1_555
Na9 O46 2.645840 1_565
Na9 O62 2.672598 1_555
Na9 O9 2.675627 1_555
Na10 O10 2.391040 1_555
Na10 O61 2.426755 1_555
Na10 O46 2.487960 1_455
Na10 O60 2.610084 1_555
Na10 O47 2.625469 1_555
Na10 O25 2.685293 1_554
Na11 O4 2.234319 1_555
Na11 O41 2.303873 1_555
Na11 O40 2.569347 1_655
Na11 O55 2.589609 1_555
Na12 O3 2.220150 1_555
Na12 O40 2.381786 1_545
Na12 O39 2.498472 1_555
Na12 O54 2.505218 1_555
Na12 O56 2.806941 1_555
Na13 O57 2.312432 1_555
Na13 O23 2.370400 1_555
Na13 O59 2.553236 1_555
Na13 O38 2.588694 1_655
Na13 O37 2.774637 1_545
Na13 O28 2.951592 1_655
Na14 O21 2.319800 1_555
Na14 O58 2.356318 1_555
Na14 O57 2.560438 1_555
Na14 O36 2.575429 1_545
Na15 O38 2.538779 1_555
Na15 O37 2.572991 1_445
Na15 O36 2.588405 1_545
Na15 O43 2.610778 1_545
Na15 O44 2.624688 1_445
Na15 O42 2.653780 1_555
Na16 O41 2.321769 1_555
Na16 O45 2.483223 1_556
Na16 O46 2.595325 1_566
Na16 O39 2.666699 1_665
Na16 O40 2.726438 1_655
Na16 O47 2.805829 1_666
Na17 O50 2.411652 1_555
Na17 O49 2.451138 1_555
Na17 O48 2.502400 1_555
Na17 O55 2.725748 1_555
Na17 O54 2.732449 1_555
Na17 O56 2.771540 1_555
Na18 O57 2.397626 1_555
Na18 O58 2.415906 1_555
Na18 O59 2.508802 1_555
Na18 O51 2.756597 1_555
Na18 O52 2.808170 1_555
Na18 O53 2.810677 1_555
Na19 O61 2.445166 1_555
Na19 O66 2.459069 1_555
Na19 O68 2.468331 1_555
Na19 O62 2.697875 1_555
Na19 O60 2.739352 1_555
Na19 O67 2.785159 1_555
Na20 O69 2.579948 1_555
Na20 O63 2.627861 1_555
Na20 O70 2.644389 1_555
Na20 O64 2.649846 1_555
Na20 O65 2.651074 1_555
Na20 O71 2.722904 1_555
Ca0 O5 2.178980 1_565
Ca0 O4 2.190184 1_555
Ca0 O3 2.229861 1_665
Ca0 O41 2.282101 1_555
Ca0 O39 2.319954 1_665
Ca0 O40 2.359188 1_655
Ca1 O11 2.165375 1_655
Ca1 O10 2.187373 1_665
Ca1 O9 2.248593 1_555
Ca1 O45 2.341466 1_555
Ca1 O47 2.403268 1_665
Ca1 O46 2.403510 1_565
Ca2 O13 2.304783 1_555
Ca2 O49 2.313884 1_555
Ca2 O12 2.329574 1_555
Ca2 O50 2.349771 1_555
Ca2 O14 2.356952 1_555
Ca2 O48 2.391978 1_555
Ca3 O21 2.250723 1_555
Ca3 O22 2.281741 1_555
Ca3 O23 2.307971 1_555
Ca3 O57 2.331992 1_555
Ca3 O59 2.368302 1_555
Ca3 O58 2.376484 1_555
Ca4 O24 2.164411 1_554
Ca4 O26 2.210024 1_554
Ca4 O25 2.223473 1_554
Ca4 O61 2.348162 1_555
Ca4 O62 2.368770 1_555
Ca4 O60 2.412857 1_555
Ca5 O31 2.163016 1_555
Ca5 O30 2.238956 1_555
Ca5 O32 2.251856 1_555
Ca5 O66 2.314514 1_555
Ca5 O68 2.319564 1_555
Ca5 O67 2.335021 1_555
Nb0 O2 1.937995 1_555
Nb0 O0 1.979191 1_655
Nb0 O37 2.002497 1_545
Nb0 O1 2.049971 1_545
Nb0 O38 2.138775 1_655
Nb0 O36 2.192885 1_645
Nb1 O7 1.933088 1_555
Nb1 O42 1.970876 1_555
Nb1 O43 1.971213 1_545
Nb1 O8 1.989977 1_545
Nb1 O44 2.143506 1_445
Nb1 O6 2.179583 1_445
Nb2 O15 1.931812 1_555
Nb2 O52 1.988170 1_555
Nb2 O16 2.003655 1_555
Nb2 O53 2.032063 1_555
Nb2 O17 2.052431 1_555
Nb2 O51 2.111576 1_555
Nb3 O19 1.910345 1_556
Nb3 O54 1.981780 1_555
Nb3 O18 2.023258 1_556
Nb3 O20 2.037172 1_556
Nb3 O55 2.090817 1_555
Nb3 O56 2.098385 1_555
Nb4 O27 1.965025 1_555
Nb4 O63 1.974831 1_555
Nb4 O65 1.977090 1_555
Nb4 O64 2.070572 1_555
Nb4 O29 2.076720 1_555
Nb4 O28 2.086618 1_555
Nb5 O35 1.957539 1_555
Nb5 O69 2.020934 1_555
Nb5 O70 2.053572 1_555
Nb5 O33 2.060369 1_555
Nb5 O34 2.071687 1_555
Nb5 O71 2.091266 1_555
O0 Si0 1.725149 1_555
O1 P0 1.597725 1_555
O2 Si1 1.730389 1_555
O3 Si2 1.582574 1_555
O4 Si3 1.587661 1_655
O5 P1 1.509102 1_545
O6 P1 1.575857 1_555
O7 Si2 1.717142 1_555
O8 Si3 1.702454 1_555
O9 P0 1.517991 1_555
O10 Si1 1.590869 1_455
O11 Si0 1.598478 1_565
O12 Si4 1.618032 1_555
O13 Si5 1.610134 1_555
O14 P2 1.528338 1_555
O15 Si6 1.693931 1_555
O16 P3 1.592140 1_555
O17 P4 1.577102 1_555
O18 P4 1.584905 1_555
O19 Si6 1.703796 1_555
O20 P3 1.565119 1_555
O21 Si5 1.591657 1_555
O22 P2 1.522635 1_555
O23 Si4 1.611020 1_555
O24 Si7 1.586908 1_555
O25 P5 1.519119 1_555
O26 P6 1.518339 1_555
O27 Si8 1.708414 1_555
O28 P7 1.580483 1_555
O29 P8 1.601506 1_555
O30 P8 1.523930 1_555
O31 Si8 1.587541 1_555
O32 P7 1.518234 1_555
O33 P5 1.615411 1_555
O34 P6 1.600214 1_555
O35 Si7 1.740698 1_555
O36 P8 1.579777 1_555
O37 Si8 1.688807 1_555
O38 P7 1.607406 1_555
O39 P5 1.509241 1_555
O40 P6 1.530066 1_555
O41 Si7 1.594322 1_555
O42 Si4 1.667513 1_455
O43 Si5 1.687035 1_565
O44 P2 1.577463 1_555
O45 Si6 1.612461 1_555
O46 P3 1.530412 1_555
O47 P4 1.532689 1_555
O48 P1 1.535155 1_545
O49 Si2 1.607464 1_555
O50 Si3 1.614475 1_655
O51 P0 1.590044 1_555
O52 Si1 1.697059 1_555
O53 Si0 1.695068 1_555
O54 Si7 1.731777 1_555
O55 P5 1.593869 1_655
O56 P6 1.582382 1_545
O57 Si8 1.616117 1_545
O58 P7 1.520962 1_555
O59 P8 1.522524 1_655
O60 P4 1.533681 1_555
O61 Si6 1.615407 1_455
O62 P3 1.533343 1_565
O63 Si5 1.707033 1_565
O64 P2 1.584434 1_555
O65 Si4 1.669739 1_455
O66 Si0 1.610105 1_565
O67 P0 1.524789 1_555
O68 Si1 1.603562 1_455
O69 Si2 1.700422 1_555
O70 Si3 1.692012 1_555
O71 P1 1.601181 1_555
