# generated using pymatgen
data_BaPrMg(CoO3)2
_symmetry_space_group_name_H-M   'P 1'
_cell_length_a   4.07477471
_cell_length_b   3.75852048
_cell_length_c   10.78676721
_cell_angle_alpha   90.00000000
_cell_angle_beta   90.00000000
_cell_angle_gamma   90.00000000
_symmetry_Int_Tables_number   1
_chemical_formula_structural   BaPrMg(CoO3)2
_chemical_formula_sum   'Ba1 Pr1 Mg1 Co2 O6'
_cell_volume   165.20067953
_cell_formula_units_Z   1
loop_
 _symmetry_equiv_pos_site_id
 _symmetry_equiv_pos_as_xyz
  1  'x, y, z'
loop_
 _atom_site_type_symbol
 _atom_site_label
 _atom_site_symmetry_multiplicity
 _atom_site_fract_x
 _atom_site_fract_y
 _atom_site_fract_z
 _atom_site_occupancy
  Ba  Ba0  1  0.00000000  0.00000000  0.96356842  1
  Pr  Pr0  1  0.00000000  0.00000000  0.35522912  1
  Mg  Mg0  1  0.50000000  0.00000000  0.60698995  1
  Co  Co0  1  0.50000000  0.50000000  0.80627690  1
  Co  Co1  1  0.50000000  0.50000000  0.17774824  1
  O  O0  1  0.00000000  0.50000000  0.79136246  1
  O  O1  1  0.50000000  0.00000000  0.78373316  1
  O  O2  1  0.00000000  0.50000000  0.23587347  1
  O  O3  1  0.50000000  0.00000000  0.25305951  1
  O  O4  1  0.50000000  0.50000000  0.51811186  1
  O  O5  1  0.50000000  0.50000000  0.00804892  1
loop_
_geom_bond_atom_site_label_1
_geom_bond_atom_site_label_2
_geom_bond_distance
_geom_bond_site_symmetry_2
Ba0 O0 2.642365 1_545
Ba0 O0 2.642365 1_555
Ba0 O5 2.812966 1_456
Ba0 O5 2.812966 1_556
Ba0 O5 2.812966 1_446
Ba0 O5 2.812966 1_546
Ba0 O1 2.813171 1_555
Ba0 O1 2.813171 1_455
Mg0 O1 1.906488 1_555
Mg0 O4 2.109677 1_545
Mg0 O4 2.109677 1_555
Co0 O1 1.894928 1_555
Co0 O1 1.894928 1_565
Co0 O0 2.043729 1_655
Co0 O0 2.043729 1_555
Co0 O5 2.176468 1_556
Co1 O5 1.830507 1_555
Co1 O3 2.047329 1_565
Co1 O3 2.047329 1_555
Co1 O2 2.131679 1_555
Co1 O2 2.131679 1_655
O2 Pr0 2.277976 1_565
O2 Pr0 2.277976 1_555
O3 Pr0 2.316361 1_555
O3 Pr0 2.316361 1_655
