# generated using pymatgen
data_LaIn4Ni
_symmetry_space_group_name_H-M   'P 1'
_cell_length_a   8.76631980
_cell_length_b   8.76632006
_cell_length_c   7.23098185
_cell_angle_alpha   90.00000000
_cell_angle_beta   90.00000000
_cell_angle_gamma   150.18192508
_symmetry_Int_Tables_number   1
_chemical_formula_structural   LaIn4Ni
_chemical_formula_sum   'La2 In8 Ni2'
_cell_volume   276.31513656
_cell_formula_units_Z   2
loop_
 _symmetry_equiv_pos_site_id
 _symmetry_equiv_pos_as_xyz
  1  'x, y, z'
loop_
 _atom_site_type_symbol
 _atom_site_label
 _atom_site_symmetry_multiplicity
 _atom_site_fract_x
 _atom_site_fract_y
 _atom_site_fract_z
 _atom_site_occupancy
  La  La0  1  0.88242655  0.11757345  0.75000000  1
  La  La1  1  0.11757345  0.88242655  0.25000000  1
  In  In0  1  0.50000000  0.50000000  -0.00000000  1
  In  In1  1  0.50000000  0.50000000  0.50000000  1
  In  In2  1  0.07607815  0.92392185  0.75000000  1
  In  In3  1  0.92392185  0.07607815  0.25000000  1
  In  In4  1  0.68976621  0.31023379  0.95046267  1
  In  In5  1  0.31023379  0.68976621  0.04953733  1
  In  In6  1  0.68976621  0.31023379  0.54953733  1
  In  In7  1  0.31023379  0.68976621  0.45046267  1
  Ni  Ni0  1  0.22602454  0.77397546  0.75000000  1
  Ni  Ni1  1  0.77397546  0.22602454  0.25000000  1
loop_
_geom_bond_atom_site_label_1
_geom_bond_atom_site_label_2
_geom_bond_distance
_geom_bond_site_symmetry_2
La0 Ni0 3.479743 1_545
La0 Ni0 3.479744 1_655
La1 Ni1 3.479743 1_565
La1 Ni1 3.479744 1_455
In0 In3 3.164863 1_455
In0 In2 3.164863 1_654
In0 In3 3.164863 1_565
In0 In2 3.164863 1_544
In0 In5 3.234990 1_555
In0 In4 3.234990 1_554
In0 La0 3.510406 1_454
In0 La1 3.510406 1_655
In0 La1 3.510406 1_545
In0 La0 3.510406 1_564
In1 In3 3.164863 1_455
In1 In2 3.164863 1_655
In1 In2 3.164863 1_545
In1 In3 3.164863 1_565
In1 In7 3.234990 1_555
In1 In6 3.234990 1_555
In1 La0 3.510406 1_455
In1 La1 3.510406 1_655
In1 La1 3.510406 1_545
In1 La0 3.510406 1_565
In2 Ni0 2.540454 1_555
In2 La0 3.280925 1_465
In2 In6 3.301251 1_565
In2 In4 3.301251 1_565
In2 In6 3.301251 1_455
In2 In4 3.301251 1_455
In2 La1 3.683209 1_555
In2 La1 3.683209 1_556
In3 Ni1 2.540454 1_555
In3 La1 3.280925 1_645
In3 In5 3.301251 1_545
In3 In7 3.301251 1_545
In3 In7 3.301251 1_655
In3 In5 3.301251 1_655
In3 La0 3.683209 1_554
In3 La0 3.683209 1_555
In4 Ni1 2.593613 1_556
In4 Ni0 2.750558 1_655
In4 Ni0 2.750558 1_545
In4 In6 2.899084 1_555
In4 In5 3.125059 1_656
In4 In5 3.125060 1_546
In4 La1 3.357735 1_546
In4 La1 3.357735 1_656
In4 La0 3.571515 1_555
In5 Ni0 2.593613 1_554
In5 Ni1 2.750558 1_455
In5 Ni1 2.750558 1_565
In5 In7 2.899084 1_555
In5 La0 3.357735 1_564
In5 La0 3.357735 1_454
In5 La1 3.571515 1_555
In6 Ni1 2.593613 1_555
In6 Ni0 2.750558 1_655
In6 Ni0 2.750558 1_545
In6 In7 3.125059 1_655
In6 In7 3.125060 1_545
In6 La1 3.357735 1_545
In6 La1 3.357735 1_655
In6 La0 3.571515 1_555
In7 Ni0 2.593613 1_555
In7 Ni1 2.750558 1_455
In7 Ni1 2.750558 1_565
In7 La0 3.357735 1_565
In7 La0 3.357735 1_455
In7 La1 3.571515 1_555
