# generated using pymatgen
data_MgCr4O8
_symmetry_space_group_name_H-M   'P 1'
_cell_length_a   5.86737105
_cell_length_b   5.97020271
_cell_length_c   5.97015740
_cell_angle_alpha   59.99054084
_cell_angle_beta   59.39840968
_cell_angle_gamma   59.36695829
_symmetry_Int_Tables_number   1
_chemical_formula_structural   MgCr4O8
_chemical_formula_sum   'Mg1 Cr4 O8'
_cell_volume   146.47278779
_cell_formula_units_Z   1
loop_
 _symmetry_equiv_pos_site_id
 _symmetry_equiv_pos_as_xyz
  1  'x, y, z'
loop_
 _atom_site_type_symbol
 _atom_site_label
 _atom_site_symmetry_multiplicity
 _atom_site_fract_x
 _atom_site_fract_y
 _atom_site_fract_z
 _atom_site_occupancy
  Mg  Mg0  1  0.98920600  0.00226500  0.00411700  1
  Cr  Cr0  1  0.26761000  0.24372300  0.24433700  1
  Cr  Cr1  1  0.63194300  0.11245200  0.62795300  1
  Cr  Cr2  1  0.63244800  0.62726300  0.11270500  1
  Cr  Cr3  1  0.63318900  0.62717800  0.62775100  1
  O  O0  1  0.39599900  0.36707700  0.36727100  1
  O  O1  1  0.39554800  0.36772600  0.86928900  1
  O  O2  1  0.39600600  0.86867200  0.36790000  1
  O  O3  1  0.86330300  0.37832600  0.37927500  1
  O  O4  1  0.40368600  0.86501100  0.86567400  1
  O  O5  1  0.83400800  0.40457700  0.88027300  1
  O  O6  1  0.83424000  0.87889900  0.40581800  1
  O  O7  1  0.83433100  0.87937800  0.88060000  1
loop_
_geom_bond_atom_site_label_1
_geom_bond_atom_site_label_2
_geom_bond_distance
_geom_bond_site_symmetry_2
Mg0 O7 1.952077 1_544
Mg0 O6 1.953496 1_545
Mg0 O5 1.955791 1_554
Mg0 O4 1.966975 1_644
Cr0 O0 1.821374 1_555
Cr0 O2 1.822076 1_545
Cr0 O1 1.822649 1_554
Cr0 O3 1.918689 1_455
Cr1 O7 1.913566 1_545
Cr1 O6 1.916321 1_545
Cr1 O4 1.993493 1_545
Cr1 O1 2.080884 1_555
Cr1 O0 2.081328 1_555
Cr1 O3 2.086423 1_555
Cr2 O7 1.910045 1_554
Cr2 O5 1.914157 1_554
Cr2 O4 1.992821 1_554
Cr2 O2 2.080858 1_555
Cr2 O0 2.082160 1_555
Cr2 O3 2.086530 1_555
Cr3 O6 1.905019 1_555
Cr3 O5 1.906839 1_555
Cr3 O4 1.992143 1_555
Cr3 O2 2.082809 1_555
Cr3 O1 2.083866 1_555
Cr3 O3 2.086147 1_555
