# generated using pymatgen
data_Gd(Sn3Ru2)2
_symmetry_space_group_name_H-M   'P 1'
_cell_length_a   6.88184421
_cell_length_b   6.88184744
_cell_length_c   6.91137548
_cell_angle_alpha   119.85905992
_cell_angle_beta   119.85863538
_cell_angle_gamma   89.99964582
_symmetry_Int_Tables_number   1
_chemical_formula_structural   Gd(Sn3Ru2)2
_chemical_formula_sum   'Gd1 Sn6 Ru4'
_cell_volume   232.43597875
_cell_formula_units_Z   1
loop_
 _symmetry_equiv_pos_site_id
 _symmetry_equiv_pos_as_xyz
  1  'x, y, z'
loop_
 _atom_site_type_symbol
 _atom_site_label
 _atom_site_symmetry_multiplicity
 _atom_site_fract_x
 _atom_site_fract_y
 _atom_site_fract_z
 _atom_site_occupancy
  Gd  Gd0  1  0.99999514  0.00001390  -0.00000147  1
  Sn  Sn0  1  0.49999970  0.00001798  1.00000120  1
  Sn  Sn1  1  0.46908348  0.46907192  0.58817494  1
  Sn  Sn2  1  0.88087372  0.53091165  0.41179566  1
  Sn  Sn3  1  0.53091830  0.88089033  0.41181820  1
  Sn  Sn4  1  0.11912038  0.11910868  0.58820076  1
  Sn  Sn5  1  1.00000191  0.49999237  1.00000183  1
  Ru  Ru0  1  0.40415581  0.40415201  0.15541814  1
  Ru  Ru1  1  0.75126778  0.75126320  0.15542198  1
  Ru  Ru2  1  0.59584829  0.24873556  0.84458694  1
  Ru  Ru3  1  0.24873449  0.59584340  0.84458082  1
loop_
_geom_bond_atom_site_label_1
_geom_bond_atom_site_label_2
_geom_bond_distance
_geom_bond_site_symmetry_2
Gd0 Ru2 3.267261 1_554
Gd0 Ru0 3.267338 1_655
Gd0 Ru1 3.267443 1_545
Gd0 Ru3 3.267455 1_644
Gd0 Sn3 3.351594 1_544
Gd0 Sn1 3.351620 1_655
Gd0 Sn2 3.351739 1_544
Gd0 Sn4 3.351749 1_655
Gd0 Sn5 3.440764 1_554
Gd0 Sn0 3.440900 1_554
Gd0 Sn0 3.440944 1_654
Gd0 Sn5 3.441083 1_544
Gd0 Sn2 3.753644 1_555
Gd0 Sn4 3.753661 1_654
Gd0 Sn1 3.753792 1_544
Gd0 Sn3 3.753838 1_645
Ru0 Sn1 2.585292 1_555
Ru0 Sn0 2.656053 1_554
Ru0 Sn5 2.656166 1_454
Ru0 Sn2 2.708559 1_555
Ru0 Sn3 2.708658 1_555
Ru0 Sn4 2.783867 1_554
Ru0 Ru2 2.834301 1_554
Ru0 Ru3 2.834340 1_554
Ru1 Sn4 2.585418 1_665
Ru1 Sn5 2.656190 1_554
Ru1 Sn0 2.656313 1_564
Ru1 Sn2 2.708602 1_555
Ru1 Sn3 2.708699 1_555
Ru1 Sn1 2.784012 1_554
Ru1 Ru2 2.834330 1_554
Ru1 Ru3 2.834371 1_554
Ru2 Sn3 2.585349 1_545
Ru2 Sn0 2.656070 1_555
Ru2 Sn5 2.656180 1_555
Ru2 Sn4 2.708614 1_555
Ru2 Sn1 2.708714 1_555
Ru2 Sn2 2.783824 1_556
Ru3 Sn2 2.585468 1_455
Ru3 Sn5 2.656201 1_455
Ru3 Sn0 2.656310 1_565
Ru3 Sn4 2.708651 1_555
Ru3 Sn1 2.708747 1_555
Ru3 Sn3 2.783965 1_556
