# generated using pymatgen
data_Na5Zr2Al2SiP5O24
_symmetry_space_group_name_H-M   'P 1'
_cell_length_a   8.84236199
_cell_length_b   8.82893512
_cell_length_c   22.26778683
_cell_angle_alpha   89.98828614
_cell_angle_beta   89.92052230
_cell_angle_gamma   119.80046216
_symmetry_Int_Tables_number   1
_chemical_formula_structural   Na5Zr2Al2SiP5O24
_chemical_formula_sum   'Na15 Zr6 Al6 Si3 P15 O72'
_cell_volume   1508.52799028
_cell_formula_units_Z   3
loop_
 _symmetry_equiv_pos_site_id
 _symmetry_equiv_pos_as_xyz
  1  'x, y, z'
loop_
 _atom_site_type_symbol
 _atom_site_label
 _atom_site_symmetry_multiplicity
 _atom_site_fract_x
 _atom_site_fract_y
 _atom_site_fract_z
 _atom_site_occupancy
  Na  Na0  1  0.00225815  0.63434727  0.25220329  1
  Na  Na1  1  0.63444550  0.64158788  0.75274313  1
  Na  Na2  1  0.36261337  0.99654918  0.75348185  1
  Na  Na3  1  0.66285668  0.96736484  0.58429223  1
  Na  Na4  1  0.29727406  0.96800238  0.08479022  1
  Na  Na5  1  0.67223464  0.69880241  0.08332835  1
  Na  Na6  1  0.02936077  0.33355429  0.08570489  1
  Na  Na7  1  0.96905150  0.30058316  0.41474001  1
  Na  Na8  1  0.33535632  0.03284661  0.41703020  1
  Na  Na9  1  0.00172737  0.98955097  0.49764760  1
  Na  Na10  1  0.00032757  0.99685307  0.99944427  1
  Na  Na11  1  0.67652709  0.33071109  0.83969147  1
  Na  Na12  1  0.65783444  0.33527386  0.33634590  1
  Na  Na13  1  0.34054825  0.66709638  0.17356701  1
  Na  Na14  1  0.31826950  0.65504209  0.66899713  1
  Zr  Zr0  1  0.99606117  0.00268934  0.85670695  1
  Zr  Zr1  1  0.00643662  0.00088240  0.64631854  1
  Zr  Zr2  1  0.66930925  0.32842484  0.68565024  1
  Zr  Zr3  1  0.66516894  0.33039735  0.19087364  1
  Zr  Zr4  1  0.32985876  0.66695187  0.01591890  1
  Zr  Zr5  1  0.33182180  0.66655681  0.51641902  1
  Al  Al0  1  0.99595001  0.99648300  0.34970575  1
  Al  Al1  1  0.99693208  0.99388948  0.15194147  1
  Al  Al2  1  0.67218682  0.34144335  0.97876232  1
  Al  Al3  1  0.66257672  0.33942212  0.48052380  1
  Al  Al4  1  0.34215505  0.66617665  0.31459188  1
  Al  Al5  1  0.33312966  0.66683999  0.81794087  1
  Si  Si0  1  0.69413051  0.99076503  0.75127745  1
  Si  Si1  1  0.37712361  0.04858943  0.57738497  1
  Si  Si2  1  0.95095428  0.62772670  0.08301791  1
  P  P0  1  0.27902866  0.99150590  0.25307758  1
  P  P1  1  0.71038726  0.72508563  0.25192109  1
  P  P2  1  0.01232263  0.28631852  0.25184173  1
  P  P3  1  0.29016197  0.30348779  0.75249902  1
  P  P4  1  0.00878569  0.70472086  0.75332246  1
  P  P5  1  0.95354748  0.33445072  0.57759033  1
  P  P6  1  0.66829089  0.61896479  0.58003619  1
  P  P7  1  0.67503695  0.04978349  0.08170582  1
  P  P8  1  0.37485734  0.32499951  0.08209208  1
  P  P9  1  0.62038739  0.65236363  0.91567641  1
  P  P10  1  0.03505836  0.38250658  0.91552328  1
  P  P11  1  0.34857025  0.97107732  0.91544875  1
  P  P12  1  0.63089381  0.95938910  0.41204928  1
  P  P13  1  0.33568130  0.37314330  0.41147120  1
  P  P14  1  0.03383107  0.66627870  0.41177835  1
  O  O0  1  0.19171840  0.01714449  0.30868347  1
  O  O1  1  0.83427089  0.81051708  0.30481763  1
  O  O2  1  0.98416833  0.17474262  0.30791287  1
  O  O3  1  0.21225002  0.17639375  0.80504134  1
  O  O4  1  0.97385640  0.79290082  0.80624851  1
  O  O5  1  0.82622765  0.02456317  0.80591633  1
  O  O6  1  0.77834094  0.95715976  0.68995334  1
  O  O7  1  0.18147608  0.21726321  0.69540924  1
  O  O8  1  0.04352705  0.82223393  0.69670525  1
  O  O9  1  0.79201011  0.82608825  0.19255288  1
  O  O10  1  0.02868610  0.19919975  0.19351643  1
  O  O11  1  0.16888976  0.96477008  0.19518859  1
  O  O12  1  0.87439911  0.36055509  0.63559470  1
  O  O13  1  0.48731459  0.12490144  0.64010258  1
  O  O14  1  0.64500380  0.52369236  0.64014493  1
  O  O15  1  0.87545290  0.50683811  0.14391618  1
  O  O16  1  0.63121680  0.12338809  0.13802634  1
  O  O17  1  0.49031786  0.36254572  0.13836414  1
  O  O18  1  0.46022902  0.29209828  0.02750838  1
  O  O19  1  0.82221668  0.52963094  0.02758487  1
  O  O20  1  0.70243103  0.16626698  0.02721444  1
  O  O21  1  0.47810615  0.16390498  0.51956992  1
  O  O22  1  0.69094321  0.52571202  0.52628723  1
  O  O23  1  0.84063186  0.31104816  0.52208838  1
  O  O24  1  0.54312979  0.68491487  0.97388797  1
  O  O25  1  0.14062651  0.45584663  0.97495996  1
  O  O26  1  0.31524831  0.85912661  0.97347121  1
  O  O27  1  0.55646130  0.85469259  0.47135349  1
  O  O28  1  0.29477862  0.44853576  0.46829730  1
  O  O29  1  0.15533889  0.70536416  0.46718699  1
  O  O30  1  0.12260366  0.62998397  0.35756371  1
  O  O31  1  0.49832025  0.86344774  0.36149828  1
  O  O32  1  0.36067175  0.49426242  0.35862238  1
  O  O33  1  0.13701350  0.50055763  0.86280349  1
  O  O34  1  0.36472049  0.87325215  0.86053739  1
  O  O35  1  0.50798679  0.63710693  0.86065209  1
  O  O36  1  0.02006954  0.83374415  0.40482842  1
  O  O37  1  0.81681182  0.98554779  0.40425729  1
  O  O38  1  0.17054055  0.18648831  0.40524072  1
  O  O39  1  0.02014714  0.20041909  0.91222042  1
  O  O40  1  0.18308774  0.98757625  0.91186008  1
  O  O41  1  0.80390769  0.81622598  0.91221925  1
  O  O42  1  0.96168437  0.16395115  0.58384321  1
  O  O43  1  0.18403626  0.02566175  0.58302932  1
  O  O44  1  0.82822709  0.80569505  0.58376202  1
  O  O45  1  0.97546081  0.82378594  0.09320822  1
  O  O46  1  0.83969471  0.03204388  0.09117582  1
  O  O47  1  0.18977148  0.16523319  0.09164174  1
  O  O48  1  0.66870649  0.16135944  0.74909844  1
  O  O49  1  0.47627521  0.32719295  0.74505619  1
  O  O50  1  0.84028287  0.52930778  0.74612322  1
  O  O51  1  0.69546099  0.53934196  0.24717338  1
  O  O52  1  0.84718271  0.31096088  0.24807318  1
  O  O53  1  0.46255767  0.15442004  0.24798222  1
  O  O54  1  0.63409763  0.48693523  0.92263002  1
  O  O55  1  0.85473345  0.36440140  0.92300274  1
  O  O56  1  0.51285127  0.14860702  0.92404955  1
  O  O57  1  0.64902682  0.14483088  0.41876410  1
  O  O58  1  0.49832412  0.35181216  0.42019516  1
  O  O59  1  0.85541933  0.49855013  0.42255446  1
  O  O60  1  0.35522128  0.49071488  0.07750859  1
  O  O61  1  0.14940376  0.65244675  0.07919665  1
  O  O62  1  0.51496326  0.86182798  0.07704648  1
  O  O63  1  0.36338116  0.85569041  0.57586998  1
  O  O64  1  0.50677563  0.64331648  0.57520421  1
  O  O65  1  0.13806296  0.49203739  0.57465374  1
  O  O66  1  0.29717259  0.82457674  0.25907165  1
  O  O67  1  0.52657807  0.70111876  0.25958686  1
  O  O68  1  0.17098538  0.47529179  0.25726115  1
  O  O69  1  0.30969895  0.48379509  0.76126478  1
  O  O70  1  0.17158608  0.68831779  0.76132131  1
  O  O71  1  0.50394096  0.81740938  0.76043436  1
loop_
_geom_bond_atom_site_label_1
_geom_bond_atom_site_label_2
_geom_bond_distance
_geom_bond_site_symmetry_2
Na0 O66 2.300521 1_555
Na0 O51 2.411347 1_455
Na0 O52 2.479853 1_455
Na0 O68 2.508685 1_555
Na0 O30 2.585711 1_555
Na0 O15 2.663263 1_455
Na0 O11 2.830941 1_555
Na0 O1 2.879354 1_455
Na1 O71 2.355999 1_555
Na1 O49 2.415036 1_555
Na1 O50 2.471812 1_555
Na1 O69 2.498921 1_555
Na1 O35 2.640901 1_555
Na1 O14 2.734191 1_555
Na1 O6 2.793996 1_555
Na1 O4 2.869985 1_555
Na2 O48 2.353102 1_565
Na2 O70 2.391533 1_555
Na2 O71 2.460110 1_555
Na2 O49 2.578808 1_565
Na2 O34 2.624407 1_555
Na2 O8 2.760859 1_555
Na2 O13 2.761026 1_565
Na2 O3 2.775255 1_565
Na3 O63 2.329354 1_555
Na3 O42 2.331519 1_565
Na3 O64 2.491454 1_555
Na3 O44 2.500060 1_555
Na3 O6 2.585489 1_555
Na3 O27 2.697541 1_555
Na3 O13 2.833661 1_565
Na3 O23 2.974585 1_565
Na4 O47 2.367302 1_565
Na4 O61 2.422157 1_555
Na4 O45 2.480086 1_455
Na4 O62 2.531068 1_555
Na4 O26 2.691765 1_554
Na4 O11 2.700545 1_555
Na4 O18 2.790378 1_565
Na4 O16 2.826750 1_565
Na5 O45 2.348618 1_555
Na5 O62 2.452585 1_555
Na5 O60 2.476284 1_555
Na5 O46 2.559321 1_565
Na5 O9 2.669343 1_555
Na5 O24 2.669442 1_554
Na5 O19 2.737786 1_555
Na5 O17 2.854731 1_555
Na6 O46 2.340005 1_455
Na6 O61 2.470539 1_555
Na6 O60 2.507082 1_555
Na6 O47 2.516635 1_555
Na6 O25 2.674217 1_554
Na6 O10 2.676259 1_555
Na6 O15 2.817507 1_455
Na6 O20 2.828793 1_455
Na7 O59 2.416612 1_555
Na7 O37 2.425380 1_545
Na7 O38 2.452880 1_655
Na7 O57 2.457248 1_555
Na7 O2 2.656839 1_555
Na7 O23 2.666248 1_555
Na7 O28 2.773941 1_655
Na7 O30 2.826890 1_655
Na8 O57 2.438531 1_555
Na8 O58 2.445167 1_555
Na8 O38 2.449239 1_555
Na8 O36 2.463201 1_545
Na8 O21 2.589036 1_555
Na8 O0 2.699414 1_555
Na8 O29 2.749566 1_545
Na8 O31 2.824954 1_545
Na9 O43 2.411021 1_565
Na9 O44 2.486154 1_455
Na9 O36 2.532307 1_555
Na9 O42 2.592589 1_465
Na9 O38 2.625981 1_565
Na9 O37 2.636571 1_455
Na10 O45 2.531006 1_456
Na10 O40 2.558289 1_555
Na10 O41 2.567075 1_455
Na10 O46 2.591776 1_466
Na10 O39 2.591893 1_565
Na10 O47 2.601267 1_566
Na11 O55 2.357027 1_555
Na11 O56 2.426230 1_555
Na11 O54 2.442860 1_555
Na11 O48 2.491739 1_555
Na11 O50 2.641752 1_555
Na11 O49 2.744602 1_555
Na12 O58 2.386293 1_555
Na12 O57 2.463657 1_555
Na12 O59 2.514503 1_555
Na12 O53 2.583227 1_555
Na12 O51 2.588555 1_555
Na12 O52 2.657314 1_555
Na13 O67 2.446007 1_555
Na13 O68 2.460955 1_555
Na13 O66 2.496917 1_555
Na13 O61 2.661210 1_555
Na13 O60 2.686758 1_555
Na13 O62 2.703268 1_555
Na14 O70 2.523239 1_555
Na14 O69 2.529318 1_555
Na14 O71 2.562674 1_555
Na14 O65 2.599008 1_555
Na14 O63 2.625180 1_555
Na14 O64 2.704275 1_555
Al0 O1 1.846687 1_555
Al0 O2 1.875248 1_565
Al0 O0 1.883067 1_665
Al0 O37 1.958724 1_555
Al0 O36 1.980191 1_655
Al0 O38 2.039297 1_665
Al1 O9 1.903319 1_555
Al1 O11 1.923011 1_655
Al1 O10 1.928005 1_665
Al1 O45 1.928763 1_555
Al1 O46 2.085194 1_565
Al1 O47 2.104254 1_665
Al2 O19 1.875180 1_556
Al2 O54 1.938132 1_555
Al2 O55 1.964015 1_555
Al2 O56 1.997339 1_555
Al2 O20 2.009692 1_556
Al2 O18 2.015754 1_556
Al3 O21 1.816890 1_555
Al3 O22 1.843337 1_555
Al3 O23 1.947872 1_555
Al3 O58 2.022210 1_555
Al3 O59 2.039541 1_555
Al3 O57 2.157344 1_555
Al4 O32 1.881154 1_555
Al4 O31 1.909318 1_555
Al4 O67 1.936223 1_555
Al4 O30 2.040763 1_555
Al4 O66 2.048425 1_555
Al4 O68 2.057114 1_555
Al5 O33 1.903837 1_555
Al5 O71 1.920015 1_555
Al5 O35 1.942025 1_555
Al5 O34 1.947904 1_555
Al5 O69 1.978940 1_555
Al5 O70 1.984966 1_555
O0 P0 1.533500 1_545
O1 P1 1.529374 1_555
O2 P2 1.531737 1_655
O3 P3 1.526921 1_555
O3 Zr0 2.099778 1_455
O4 P4 1.526057 1_655
O4 Zr0 2.090859 1_565
O5 Si0 1.609770 1_545
O5 Zr0 1.965840 1_555
O6 Si0 1.650503 1_555
O6 Zr1 2.093218 1_665
O7 P3 1.547848 1_555
O7 Zr1 2.075268 1_555
O8 P4 1.562648 1_555
O8 Zr1 2.090147 1_565
O9 P1 1.555939 1_555
O10 P2 1.552378 1_555
O11 P0 1.562358 1_555
O12 P5 1.539209 1_555
O12 Zr2 2.023486 1_555
O13 Si1 1.644808 1_555
O13 Zr2 1.994570 1_555
O14 P6 1.538866 1_555
O14 Zr2 2.100794 1_555
O15 Si2 1.646949 1_555
O15 Zr3 2.022949 1_555
O16 P7 1.547435 1_555
O16 Zr3 2.066840 1_555
O17 P8 1.545861 1_555
O17 Zr3 2.068632 1_555
O18 P8 1.532035 1_555
O19 Si2 1.610586 1_555
O20 P7 1.529622 1_555
O21 Si1 1.607472 1_555
O22 P6 1.521227 1_555
O23 P5 1.538023 1_555
O24 P9 1.556393 1_555
O24 Zr4 2.038434 1_556
O25 P10 1.563761 1_555
O25 Zr4 2.002653 1_556
O26 P11 1.562709 1_555
O26 Zr4 2.001616 1_556
O27 P12 1.556893 1_555
O27 Zr5 2.103796 1_555
O28 P13 1.553532 1_555
O28 Zr5 2.082278 1_555
O29 P14 1.559202 1_555
O29 Zr5 2.071358 1_555
O30 P14 1.556862 1_555
O31 P12 1.541392 1_555
O32 P13 1.530084 1_555
O33 P10 1.529653 1_555
O34 P11 1.544030 1_555
O35 P9 1.541953 1_555
O36 P14 1.550365 1_555
O37 P12 1.551721 1_555
O38 P13 1.573560 1_555
O39 P10 1.548122 1_555
O39 Zr0 2.062312 1_455
O40 P11 1.543019 1_555
O40 Zr0 2.118003 1_465
O41 P9 1.548670 1_555
O41 Zr0 2.082839 1_565
O42 P5 1.548605 1_555
O42 Zr1 2.175267 1_655
O43 Si1 1.621012 1_555
O43 Zr1 2.037749 1_555
O44 P6 1.551711 1_555
O44 Zr1 2.168230 1_665
O45 Si2 1.649925 1_555
O46 P7 1.554454 1_555
O47 P8 1.554892 1_555
O48 Si0 1.630333 1_545
O48 Zr2 2.040378 1_555
O49 P3 1.560903 1_555
O49 Zr2 2.153771 1_555
O50 P4 1.533418 1_655
O50 Zr2 2.141492 1_555
O51 P1 1.582057 1_555
O51 Zr3 2.134785 1_555
O52 P2 1.582008 1_655
O52 Zr3 2.126538 1_555
O53 P0 1.547460 1_545
O53 Zr3 2.113521 1_555
O54 P9 1.532271 1_555
O55 P10 1.530238 1_655
O56 P11 1.530146 1_545
O57 P12 1.570956 1_545
O58 P13 1.552883 1_555
O59 P14 1.554358 1_655
O60 P8 1.560028 1_555
O60 Zr4 2.167747 1_555
O61 Si2 1.659209 1_455
O61 Zr4 2.082909 1_555
O62 P7 1.560064 1_565
O62 Zr4 2.167969 1_555
O63 Si1 1.646439 1_565
O63 Zr5 2.039014 1_555
O64 P6 1.550197 1_555
O64 Zr5 2.114206 1_555
O65 P5 1.531462 1_455
O65 Zr5 2.088098 1_555
O66 P0 1.565459 1_555
O67 P1 1.540426 1_555
O68 P2 1.562198 1_555
O69 P3 1.526116 1_555
O70 P4 1.527381 1_555
O71 Si0 1.628758 1_555
