# generated using pymatgen
data_Na6Ca3TiSi2(SO6)4
_symmetry_space_group_name_H-M   'P 1'
_cell_length_a   9.33632662
_cell_length_b   9.35480326
_cell_length_c   23.02177549
_cell_angle_alpha   90.40777275
_cell_angle_beta   89.22620630
_cell_angle_gamma   119.98971033
_symmetry_Int_Tables_number   1
_chemical_formula_structural   Na6Ca3TiSi2(SO6)4
_chemical_formula_sum   'Na18 Ca9 Ti3 Si6 S12 O72'
_cell_volume   1741.34777775
_cell_formula_units_Z   3
loop_
 _symmetry_equiv_pos_site_id
 _symmetry_equiv_pos_as_xyz
  1  'x, y, z'
loop_
 _atom_site_type_symbol
 _atom_site_label
 _atom_site_symmetry_multiplicity
 _atom_site_fract_x
 _atom_site_fract_y
 _atom_site_fract_z
 _atom_site_occupancy
  Na  Na0  1  0.63500165  0.99931105  0.26159779  1
  Na  Na1  1  0.36692114  0.36306119  0.24017967  1
  Na  Na2  1  0.63612799  0.64967972  0.74102559  1
  Na  Na3  1  0.32176141  0.35063068  0.58902432  1
  Na  Na4  1  0.02137758  0.69981855  0.58243443  1
  Na  Na5  1  0.66175155  0.93785765  0.58185441  1
  Na  Na6  1  0.29734228  0.96982275  0.07238362  1
  Na  Na7  1  0.05520926  0.33925323  0.07106303  1
  Na  Na8  1  0.98471968  0.67274491  0.91804486  1
  Na  Na9  1  0.71031027  0.03798074  0.90396459  1
  Na  Na10  1  0.30322106  0.29298174  0.91686238  1
  Na  Na11  1  0.69167962  0.69093890  0.42341898  1
  Na  Na12  1  0.97877712  0.99672377  0.49600830  1
  Na  Na13  1  0.01770281  0.01726525  0.99449715  1
  Na  Na14  1  0.67457434  0.30576906  0.82644106  1
  Na  Na15  1  0.67426772  0.31644704  0.34028724  1
  Na  Na16  1  0.33664244  0.64887789  0.16039923  1
  Na  Na17  1  0.35696568  0.67519303  0.67454936  1
  Ca  Ca0  1  0.00314334  0.00449298  0.35202377  1
  Ca  Ca1  1  0.99984427  0.00948822  0.84566936  1
  Ca  Ca2  1  0.97686193  0.99068886  0.65582133  1
  Ca  Ca3  1  0.00331250  0.99778626  0.14473329  1
  Ca  Ca4  1  0.66189093  0.32149047  0.68750669  1
  Ca  Ca5  1  0.66972051  0.34519348  0.18167269  1
  Ca  Ca6  1  0.33939261  0.66238019  0.01510435  1
  Ca  Ca7  1  0.33983799  0.67033700  0.51187623  1
  Ca  Ca8  1  0.33755897  0.68612814  0.32601807  1
  Ti  Ti0  1  0.65038000  0.32082510  0.97749769  1
  Ti  Ti1  1  0.66659100  0.33164714  0.48242460  1
  Ti  Ti2  1  0.31575416  0.68680346  0.82047347  1
  Si  Si0  1  0.67277146  0.98385975  0.75549043  1
  Si  Si1  1  0.66592080  0.62397319  0.58319125  1
  Si  Si2  1  0.37146166  0.33330797  0.08416074  1
  Si  Si3  1  0.03091537  0.37531855  0.92036570  1
  Si  Si4  1  0.33306134  0.96785905  0.92262038  1
  Si  Si5  1  0.64709762  0.98709459  0.41907813  1
  S  S0  1  0.30414809  0.99744562  0.24751745  1
  S  S1  1  0.69498228  0.69826716  0.25299047  1
  S  S2  1  0.00289959  0.30122660  0.24838619  1
  S  S3  1  0.30633327  0.31920936  0.75143222  1
  S  S4  1  0.00850095  0.69719023  0.75211413  1
  S  S5  1  0.95445279  0.33362790  0.57949477  1
  S  S6  1  0.37454444  0.04560801  0.57992426  1
  S  S7  1  0.96070037  0.62702250  0.07889190  1
  S  S8  1  0.66960777  0.04880292  0.08071914  1
  S  S9  1  0.63007294  0.65394155  0.91513843  1
  S  S10  1  0.34776071  0.36188719  0.41849344  1
  S  S11  1  0.01381957  0.65404535  0.42160787  1
  O  O0  1  0.21481933  0.01089657  0.29838169  1
  O  O1  1  0.78362830  0.77780579  0.30684582  1
  O  O2  1  0.98533883  0.19574277  0.29835346  1
  O  O3  1  0.22529564  0.21860163  0.80314899  1
  O  O4  1  0.99159171  0.78105108  0.80363209  1
  O  O5  1  0.77817981  0.99381557  0.81171470  1
  O  O6  1  0.73873538  0.93563145  0.69521819  1
  O  O7  1  0.21549356  0.23694243  0.69734379  1
  O  O8  1  0.03455286  0.79353119  0.69813890  1
  O  O9  1  0.78311269  0.79874163  0.20172137  1
  O  O10  1  0.01838446  0.22373680  0.19352946  1
  O  O11  1  0.21606080  0.98808518  0.19359598  1
  O  O12  1  0.88078745  0.35028016  0.63308219  1
  O  O13  1  0.47115382  0.11224015  0.63202760  1
  O  O14  1  0.65108222  0.52549665  0.64187508  1
  O  O15  1  0.88138784  0.53131271  0.13141900  1
  O  O16  1  0.65733896  0.12530735  0.13506555  1
  O  O17  1  0.45674770  0.33511654  0.14459542  1
  O  O18  1  0.49958889  0.32816202  0.02714742  1
  O  O19  1  0.86569691  0.53819946  0.02601602  1
  O  O20  1  0.68202343  0.15447393  0.02889086  1
  O  O21  1  0.47130169  0.14854415  0.52829850  1
  O  O22  1  0.67103284  0.50171866  0.52736433  1
  O  O23  1  0.84716377  0.31627262  0.52864345  1
  O  O24  1  0.56143534  0.68829860  0.96752708  1
  O  O25  1  0.13696615  0.44174358  0.97844221  1
  O  O26  1  0.31204310  0.86895227  0.98088495  1
  O  O27  1  0.55378869  0.86756784  0.47401557  1
  O  O28  1  0.32328584  0.43809629  0.47101889  1
  O  O29  1  0.10568672  0.67188669  0.47495522  1
  O  O30  1  0.09391311  0.63179752  0.37005652  1
  O  O31  1  0.54661971  0.92451799  0.35797232  1
  O  O32  1  0.37133607  0.46491405  0.36632464  1
  O  O33  1  0.14177389  0.51435393  0.86694922  1
  O  O34  1  0.35813494  0.86312646  0.86642139  1
  O  O35  1  0.52505611  0.62918598  0.86404850  1
  O  O36  1  0.98719762  0.79743487  0.41579865  1
  O  O37  1  0.82656230  0.99698877  0.41635405  1
  O  O38  1  0.21022344  0.19243464  0.41291958  1
  O  O39  1  0.99819389  0.18943414  0.91026702  1
  O  O40  1  0.18074763  0.99871232  0.91207298  1
  O  O41  1  0.80325534  0.78967750  0.90828402  1
  O  O42  1  0.97361766  0.18375314  0.58013192  1
  O  O43  1  0.21510305  0.04736269  0.58212706  1
  O  O44  1  0.83828572  0.80429244  0.57651612  1
  O  O45  1  0.97567639  0.79315073  0.08034773  1
  O  O46  1  0.82366151  0.03880497  0.07912585  1
  O  O47  1  0.19581069  0.15849341  0.07392061  1
  O  O48  1  0.64581360  0.14001021  0.75126247  1
  O  O49  1  0.47924023  0.35077182  0.74947353  1
  O  O50  1  0.85960096  0.53226152  0.74837325  1
  O  O51  1  0.67081104  0.52825754  0.25071249  1
  O  O52  1  0.84979433  0.31425918  0.24760213  1
  O  O53  1  0.47442375  0.14886432  0.24807409  1
  O  O54  1  0.63582456  0.49451899  0.92182366  1
  O  O55  1  0.84597938  0.36776100  0.92625300  1
  O  O56  1  0.51367367  0.15239637  0.92567154  1
  O  O57  1  0.66517926  0.17518907  0.43301205  1
  O  O58  1  0.50925848  0.35889100  0.42356056  1
  O  O59  1  0.84234592  0.50181919  0.42581185  1
  O  O60  1  0.34045059  0.48884300  0.08265317  1
  O  O61  1  0.13125937  0.65070884  0.07779837  1
  O  O62  1  0.52017399  0.88458550  0.07715054  1
  O  O63  1  0.33653395  0.87130394  0.57356764  1
  O  O64  1  0.49953902  0.64213165  0.57922994  1
  O  O65  1  0.12039082  0.48329743  0.57261560  1
  O  O66  1  0.32666175  0.85036279  0.25036123  1
  O  O67  1  0.52479933  0.68092237  0.25401917  1
  O  O68  1  0.15587764  0.46540620  0.25336217  1
  O  O69  1  0.31595431  0.48430807  0.75598587  1
  O  O70  1  0.16074522  0.68008536  0.75842244  1
  O  O71  1  0.48576919  0.80308439  0.76752986  1
loop_
_geom_bond_atom_site_label_1
_geom_bond_atom_site_label_2
_geom_bond_distance
_geom_bond_site_symmetry_2
Na0 O31 2.342777 1_555
Na0 O66 2.510123 1_555
Na0 O53 2.533275 1_565
Na0 O67 2.625681 1_555
Na0 O52 2.625910 1_565
Na1 O17 2.403142 1_555
Na1 O51 2.475242 1_555
Na1 O67 2.594926 1_555
Na1 O68 2.599367 1_555
Na1 O53 2.660098 1_555
Na2 O49 2.430584 1_555
Na2 O71 2.526008 1_555
Na2 O6 2.576166 1_555
Na2 O14 2.587510 1_555
Na2 O69 2.608500 1_555
Na2 O50 2.809185 1_555
Na2 O35 2.977108 1_555
Na3 O64 2.390780 1_555
Na3 O43 2.497822 1_555
Na3 O7 2.692602 1_555
Na3 O65 2.752455 1_555
Na3 O42 2.825733 1_455
Na3 O28 2.840612 1_555
Na3 O14 2.941849 1_555
Na4 O44 2.360960 1_455
Na4 O63 2.557844 1_555
Na4 O65 2.620693 1_555
Na4 O29 2.637069 1_555
Na4 O8 2.783324 1_555
Na4 O43 2.821904 1_565
Na5 O64 2.400467 1_555
Na5 O44 2.518702 1_555
Na5 O27 2.644553 1_555
Na5 O42 2.659582 1_565
Na5 O6 2.719315 1_555
Na5 O63 2.787023 1_555
Na6 O26 2.332341 1_554
Na6 O47 2.384478 1_565
Na6 O62 2.577174 1_555
Na6 O61 2.589246 1_555
Na6 O45 2.609934 1_455
Na6 O11 2.908215 1_555
Na7 O25 2.302629 1_554
Na7 O60 2.325927 1_555
Na7 O46 2.555378 1_455
Na7 O47 2.609572 1_555
Na7 O61 2.635475 1_555
Na7 O10 2.980055 1_555
Na8 O41 2.446199 1_555
Na8 O55 2.481959 1_555
Na8 O40 2.662159 1_655
Na8 O19 2.751252 1_556
Na8 O33 2.798185 1_655
Na8 O4 2.817263 1_555
Na8 O54 2.821904 1_555
Na9 O5 2.301181 1_545
Na9 O39 2.335223 1_555
Na9 O56 2.587998 1_555
Na9 O55 2.733804 1_555
Na9 O41 2.859912 1_545
Na9 O34 2.985588 1_545
Na10 O40 2.397928 1_545
Na10 O39 2.514630 1_455
Na10 O54 2.713708 1_555
Na10 O3 2.717761 1_555
Na10 O56 2.868663 1_555
Na10 O25 2.903058 1_555
Na11 O36 2.424299 1_555
Na11 O37 2.491197 1_555
Na11 O58 2.694571 1_555
Na11 O59 2.757372 1_555
Na11 O27 2.793390 1_555
Na11 O1 2.805548 1_555
Na11 O22 2.933203 1_555
Na11 O32 2.981315 1_555
Na12 O37 2.335881 1_555
Na12 O44 2.453082 1_555
Na12 O42 2.616814 1_565
Na12 O36 2.642960 1_555
Na12 O38 2.768307 1_665
Na12 O43 2.843115 1_665
Na13 O47 2.388601 1_556
Na13 O40 2.475772 1_545
Na13 O39 2.595131 1_455
Na13 O46 2.717077 1_456
Na13 O45 2.769732 1_446
Na13 O41 2.875173 1_445
Na14 O48 2.242805 1_555
Na14 O50 2.648567 1_555
Na14 O55 2.707388 1_555
Na14 O56 2.708005 1_555
Na14 O49 2.740125 1_555
Na14 O54 2.938108 1_555
Na15 O57 2.496692 1_555
Na15 O59 2.580853 1_555
Na15 O58 2.593686 1_555
Na15 O52 2.679078 1_555
Na15 O53 2.753393 1_555
Na15 O51 2.881596 1_555
Na16 O60 2.336553 1_555
Na16 O67 2.718045 1_555
Na16 O61 2.724909 1_555
Na16 O68 2.726430 1_555
Na16 O62 2.768677 1_555
Na16 O66 2.822330 1_555
Na17 O71 2.460560 1_555
Na17 O69 2.488969 1_555
Na17 O64 2.646886 1_555
Na17 O70 2.659635 1_555
Ca0 O37 2.176249 1_445
Ca0 O2 2.255996 1_455
Ca0 O0 2.291529 1_555
Ca0 O38 2.331191 1_555
Ca0 O1 2.336766 1_445
Ca0 O36 2.382441 1_445
Ca1 O5 2.157369 1_545
Ca1 O39 2.243933 1_555
Ca1 O3 2.251852 1_655
Ca1 O4 2.305905 1_545
Ca1 O40 2.332797 1_645
Ca1 O41 2.423377 1_545
Ca2 O6 2.199570 1_555
Ca2 O8 2.381972 1_655
Ca2 O44 2.410590 1_555
Ca2 O7 2.465705 1_665
Ca2 O42 2.529836 1_565
Ca2 O43 2.615133 1_665
Ca3 O47 2.324331 1_565
Ca3 O45 2.324758 1_455
Ca3 O10 2.328674 1_565
Ca3 O11 2.336877 1_555
Ca3 O9 2.355843 1_455
Ca3 O46 2.441701 1_465
Ca4 O48 2.198608 1_555
Ca4 O14 2.231555 1_555
Ca4 O13 2.274938 1_555
Ca4 O12 2.281334 1_555
Ca4 O49 2.326775 1_555
Ca4 O50 2.377098 1_555
Ca5 O17 2.132716 1_555
Ca5 O15 2.191463 1_555
Ca5 O16 2.264969 1_555
Ca5 O51 2.324515 1_555
Ca5 O53 2.377302 1_555
Ca5 O52 2.403242 1_555
Ca6 O25 2.159400 1_554
Ca6 O26 2.222730 1_554
Ca6 O24 2.235187 1_554
Ca6 O60 2.259699 1_555
Ca6 O61 2.363373 1_555
Ca6 O62 2.392813 1_555
Ca7 O27 2.108435 1_555
Ca7 O64 2.271275 1_555
Ca7 O28 2.295185 1_555
Ca7 O63 2.360352 1_555
Ca7 O29 2.363012 1_555
Ca7 O65 2.363943 1_555
Ca8 O31 2.233426 1_555
Ca8 O30 2.291282 1_555
Ca8 O66 2.367208 1_555
Ca8 O67 2.410704 1_555
Ca8 O32 2.435284 1_555
Ca8 O68 2.542564 1_555
O0 S0 1.469366 1_545
O1 S1 1.474716 1_555
O2 S2 1.474183 1_655
O3 S3 1.468177 1_555
O4 S4 1.467159 1_655
O5 Si0 1.610487 1_555
O6 Si0 1.659510 1_555
O7 S3 1.491476 1_555
O8 S4 1.484627 1_555
O9 S1 1.473097 1_555
O10 S2 1.492683 1_555
O11 S0 1.476163 1_555
O12 S5 1.449379 1_555
O13 S6 1.448260 1_555
O14 Si1 1.605661 1_555
O15 S7 1.463124 1_555
O16 S8 1.468346 1_555
O17 Si2 1.608163 1_555
O18 Si2 1.780546 1_555
O18 Ti0 1.828998 1_554
O19 S7 1.495648 1_555
O19 Ti0 2.316385 1_554
O20 S8 1.520792 1_555
O20 Ti0 2.098597 1_554
O21 S6 1.507836 1_555
O21 Ti1 2.055561 1_555
O22 Si1 1.730338 1_555
O22 Ti1 1.874862 1_555
O23 S5 1.505534 1_555
O23 Ti1 2.070775 1_555
O24 S9 1.465636 1_555
O25 Si3 1.600930 1_555
O26 Si4 1.588357 1_555
O27 Si5 1.620301 1_555
O28 S10 1.471675 1_555
O29 S11 1.467750 1_555
O30 S11 1.462562 1_555
O31 Si5 1.636041 1_555
O32 S10 1.488979 1_555
O33 Si3 1.708164 1_555
O33 Ti2 1.934890 1_555
O34 Si4 1.700499 1_555
O34 Ti2 1.824900 1_555
O35 S9 1.482780 1_555
O35 Ti2 2.495799 1_555
O36 S11 1.488528 1_655
O37 Si5 1.631608 1_555
O38 S10 1.464532 1_555
O39 Si3 1.623666 1_655
O40 Si4 1.607835 1_555
O41 S9 1.481580 1_555
O42 S5 1.499708 1_555
O43 S6 1.497043 1_555
O44 Si1 1.655918 1_555
O45 S7 1.489311 1_555
O46 S8 1.487211 1_555
O47 Si2 1.656280 1_555
O48 Si0 1.605259 1_545
O49 S3 1.488944 1_555
O50 S4 1.475675 1_655
O51 S1 1.491109 1_555
O52 S2 1.494469 1_655
O53 S0 1.510974 1_545
O54 S9 1.527840 1_555
O54 Ti0 2.134610 1_555
O55 Si3 1.695989 1_655
O55 Ti0 2.016709 1_555
O56 Si4 1.708777 1_545
O56 Ti0 1.881261 1_555
O57 Si5 1.709977 1_545
O57 Ti1 1.842247 1_555
O58 S10 1.528034 1_555
O58 Ti1 2.119439 1_555
O59 S11 1.522808 1_655
O59 Ti1 2.070227 1_555
O60 Si2 1.619932 1_555
O61 S7 1.493892 1_455
O62 S8 1.473734 1_565
O63 S6 1.491870 1_565
O64 Si1 1.648649 1_555
O65 S5 1.487842 1_455
O66 S0 1.494132 1_555
O67 S1 1.514183 1_555
O68 S2 1.490272 1_555
O69 S3 1.504558 1_555
O69 Ti2 2.399150 1_555
O70 S4 1.516693 1_555
O70 Ti2 2.025512 1_555
O71 Si0 1.739797 1_555
O71 Ti2 1.851743 1_555
