# generated using pymatgen
data_MgTe4MoW3(SeS)2
_symmetry_space_group_name_H-M   'P 1'
_cell_length_a   3.40379900
_cell_length_b   3.40374954
_cell_length_c   44.75342306
_cell_angle_alpha   90.00540243
_cell_angle_beta   90.00000000
_cell_angle_gamma   120.00049039
_symmetry_Int_Tables_number   1
_chemical_formula_structural   MgTe4MoW3(SeS)2
_chemical_formula_sum   'Mg1 Te4 Mo1 W3 Se2 S2'
_cell_volume   449.03091670
_cell_formula_units_Z   1
loop_
 _symmetry_equiv_pos_site_id
 _symmetry_equiv_pos_as_xyz
  1  'x, y, z'
loop_
 _atom_site_type_symbol
 _atom_site_label
 _atom_site_symmetry_multiplicity
 _atom_site_fract_x
 _atom_site_fract_y
 _atom_site_fract_z
 _atom_site_occupancy
  Mg  Mg0  1  0.00001300  0.00002600  0.36363500  1
  Te  Te0  1  0.33338700  0.66677700  0.70011800  1
  Te  Te1  1  0.66656700  0.33313600  0.05180200  1
  Te  Te2  1  0.66663600  0.33327000  0.13597900  1
  Te  Te3  1  0.33332700  0.66665500  0.61592900  1
  Mo  Mo0  1  0.66670600  0.33341100  0.27696000  1
  W  W0  1  0.33326700  0.66653400  0.09387200  1
  W  W1  1  0.33332900  0.66665900  0.47631300  1
  W  W2  1  0.66669400  0.33338900  0.65802400  1
  Se  Se0  1  0.66664900  0.33329600  0.43914500  1
  Se  Se1  1  0.66669900  0.33339700  0.51324500  1
  S  S0  1  0.33337600  0.66675400  0.31136900  1
  S  S1  1  0.33334900  0.66669800  0.24388700  1
loop_
_geom_bond_atom_site_label_1
_geom_bond_atom_site_label_2
_geom_bond_distance
_geom_bond_site_symmetry_2
Mg0 S0 3.054890 1_545
Mg0 S0 3.054893 1_445
Mg0 S0 3.055293 1_555
Te0 W2 2.722261 1_455
Te0 W2 2.722266 1_555
Te0 W2 2.722290 1_565
Te1 W0 2.721526 1_545
Te1 W0 2.721529 1_555
Te1 W0 2.721533 1_655
Te2 W0 2.722661 1_545
Te2 W0 2.722680 1_655
Te2 W0 2.722684 1_555
Te3 W2 2.722285 1_565
Te3 W2 2.722313 1_455
Te3 W2 2.722313 1_555
Mo0 S1 2.460180 1_545
Mo0 S1 2.460231 1_655
Mo0 S1 2.460234 1_555
Mo0 S0 2.496593 1_655
Mo0 S0 2.496600 1_555
Mo0 S0 2.496738 1_545
Se0 W1 2.574605 1_655
Se0 W1 2.574612 1_555
Se0 W1 2.574694 1_545
Se1 W1 2.567820 1_655
Se1 W1 2.567824 1_555
Se1 W1 2.567835 1_545
