# generated using pymatgen
data_Na9Mg2Nb10Si9(PO8)9
_symmetry_space_group_name_H-M   'P 1'
_cell_length_a   8.90470805
_cell_length_b   8.89750182
_cell_length_c   22.73459084
_cell_angle_alpha   90.01018454
_cell_angle_beta   89.98767067
_cell_angle_gamma   119.90049483
_symmetry_Int_Tables_number   1
_chemical_formula_structural   Na9Mg2Nb10Si9(PO8)9
_chemical_formula_sum   'Na9 Mg2 Nb10 Si9 P9 O72'
_cell_volume   1561.49327806
_cell_formula_units_Z   1
loop_
 _symmetry_equiv_pos_site_id
 _symmetry_equiv_pos_as_xyz
  1  'x, y, z'
loop_
 _atom_site_type_symbol
 _atom_site_label
 _atom_site_symmetry_multiplicity
 _atom_site_fract_x
 _atom_site_fract_y
 _atom_site_fract_z
 _atom_site_occupancy
  Na  Na0  1  0.63266065  0.00676788  0.24688698  1
  Na  Na1  1  0.37568509  0.36515466  0.24604176  1
  Na  Na2  1  0.99301221  0.36670383  0.74641633  1
  Na  Na3  1  0.00024539  0.99937768  0.49876807  1
  Na  Na4  1  0.99972054  0.99912295  0.99935037  1
  Na  Na5  1  0.65452865  0.33216214  0.82766837  1
  Na  Na6  1  0.67883783  0.34439296  0.32867272  1
  Na  Na7  1  0.32459259  0.66513789  0.16495091  1
  Na  Na8  1  0.34260811  0.67425778  0.66580589  1
  Mg  Mg0  1  0.65858243  0.33268158  0.68604937  1
  Mg  Mg1  1  0.67526149  0.34102752  0.18571586  1
  Nb  Nb0  1  0.99263476  0.99735562  0.35637144  1
  Nb  Nb1  1  0.00644319  0.00363248  0.85619150  1
  Nb  Nb2  1  0.00261643  0.00253185  0.64546030  1
  Nb  Nb3  1  0.99732559  0.00070554  0.14557884  1
  Nb  Nb4  1  0.66737221  0.33457122  0.97771683  1
  Nb  Nb5  1  0.66615696  0.33430913  0.47803102  1
  Nb  Nb6  1  0.33315652  0.66598559  0.01983981  1
  Nb  Nb7  1  0.33315823  0.66611056  0.52016990  1
  Nb  Nb8  1  0.32967822  0.66324493  0.31364754  1
  Nb  Nb9  1  0.33795764  0.66757971  0.81284535  1
  Si  Si0  1  0.71125136  0.70500557  0.25023125  1
  Si  Si1  1  0.99672802  0.29180102  0.24992937  1
  Si  Si2  1  0.29873895  0.29095414  0.74997930  1
  Si  Si3  1  0.62314349  0.66831181  0.91689746  1
  Si  Si4  1  0.04560166  0.37983445  0.91624268  1
  Si  Si5  1  0.33458328  0.95430124  0.91678351  1
  Si  Si6  1  0.61957059  0.95485706  0.41680761  1
  Si  Si7  1  0.33232921  0.37658241  0.41695810  1
  Si  Si8  1  0.04490131  0.66756800  0.41739818  1
  P  P0  1  0.28474920  0.99753049  0.24988678  1
  P  P1  1  0.99875712  0.71142440  0.75010423  1
  P  P2  1  0.71175987  -0.00057108  0.74979443  1
  P  P3  1  0.95417803  0.33454347  0.58581977  1
  P  P4  1  0.38099037  0.04574609  0.58509783  1
  P  P5  1  0.66613156  0.62051738  0.58507690  1
  P  P6  1  0.95535013  0.62102347  0.08453668  1
  P  P7  1  0.66474699  0.04482939  0.08525520  1
  P  P8  1  0.37886991  0.33337404  0.08523110  1
  O  O0  1  0.19811327  0.02537069  0.30429456  1
  O  O1  1  0.83316541  0.80779725  0.30698548  1
  O  O2  1  0.97828357  0.16761120  0.30639929  1
  O  O3  1  0.18724578  0.16835980  0.80649940  1
  O  O4  1  0.97697105  0.80278832  0.80472825  1
  O  O5  1  0.82624294  0.02101079  0.80414005  1
  O  O6  1  0.79952206  0.96950601  0.69443305  1
  O  O7  1  0.16189845  0.19275778  0.69332930  1
  O  O8  1  0.02471560  0.82825981  0.69508069  1
  O  O9  1  0.80706382  0.83776416  0.19330451  1
  O  O10  1  0.03627223  0.19780665  0.19257423  1
  O  O11  1  0.16969497  0.96900441  0.19448364  1
  O  O12  1  0.88057822  0.36196129  0.64179303  1
  O  O13  1  0.48825722  0.12259973  0.63896271  1
  O  O14  1  0.63635833  0.51297298  0.63889556  1
  O  O15  1  0.87888555  0.51347622  0.13872569  1
  O  O16  1  0.63639332  0.11840688  0.14124216  1
  O  O17  1  0.48062864  0.36116503  0.14122433  1
  O  O18  1  0.46943761  0.30949139  0.03015580  1
  O  O19  1  0.84222207  0.53490364  0.02863476  1
  O  O20  1  0.69183382  0.15974134  0.03020900  1
  O  O21  1  0.46357190  0.15846813  0.52888820  1
  O  O22  1  0.69308764  0.53485996  0.52882283  1
  O  O23  1  0.83952455  0.30753962  0.53062655  1
  O  O24  1  0.52943774  0.69655436  0.97399914  1
  O  O25  1  0.16834862  0.47141921  0.97332178  1
  O  O26  1  0.30426531  0.83289971  0.97419307  1
  O  O27  1  0.52653800  0.83191895  0.47360420  1
  O  O28  1  0.30407581  0.47156789  0.47361076  1
  O  O29  1  0.16644655  0.69466345  0.47439705  1
  O  O30  1  0.13603150  0.63478084  0.35958385  1
  O  O31  1  0.50345680  0.86948731  0.35741049  1
  O  O32  1  0.36623070  0.49755952  0.35794768  1
  O  O33  1  0.13202400  0.49807596  0.85730150  1
  O  O34  1  0.36505390  0.86346790  0.85902933  1
  O  O35  1  0.49818049  0.63401549  0.85924843  1
  O  O36  1  0.02691924  0.83840035  0.40971596  1
  O  O37  1  0.81097815  0.97524383  0.41056382  1
  O  O38  1  0.16412684  0.18681856  0.40908782  1
  O  O39  1  0.02257490  0.18746651  0.90879325  1
  O  O40  1  0.16306332  0.97356108  0.90925370  1
  O  O41  1  0.81225788  0.83695518  0.90810838  1
  O  O42  1  0.97375080  0.16716931  0.58984736  1
  O  O43  1  0.19303493  0.02360129  0.59068178  1
  O  O44  1  0.83093267  0.80690410  0.58980537  1
  O  O45  1  0.97692679  0.80733322  0.08922499  1
  O  O46  1  0.83177581  0.02543132  0.08920751  1
  O  O47  1  0.19382668  0.16769525  0.08851910  1
  O  O48  1  0.70264555  0.16439152  0.74412862  1
  O  O49  1  0.48286454  0.30929408  0.74695940  1
  O  O50  1  0.84599909  0.52928032  0.74472403  1
  O  O51  1  0.67557634  0.51266766  0.24619712  1
  O  O52  1  0.82214669  0.29674920  0.24557947  1
  O  O53  1  0.46412538  0.15668237  0.24364441  1
  O  O54  1  0.63983603  0.49539825  0.92620606  1
  O  O55  1  0.85471654  0.35928166  0.92626476  1
  O  O56  1  0.50402244  0.14524211  0.92651142  1
  O  O57  1  0.64087845  0.14600480  0.42651469  1
  O  O58  1  0.50555873  0.36053823  0.42613578  1
  O  O59  1  0.85532891  0.49546321  0.42644352  1
  O  O60  1  0.35332976  0.49377846  0.07569469  1
  O  O61  1  0.14113708  0.64627512  0.07501319  1
  O  O62  1  0.50606835  0.85902832  0.07564460  1
  O  O63  1  0.35257323  0.85895084  0.57529316  1
  O  O64  1  0.50636089  0.64705050  0.57527515  1
  O  O65  1  0.14024785  0.49264774  0.57592527  1
  O  O66  1  0.30390508  0.83332383  0.25529493  1
  O  O67  1  0.52347044  0.70312090  0.25573089  1
  O  O68  1  0.17908751  0.47836902  0.25539185  1
  O  O69  1  0.29626826  0.47687294  0.75555860  1
  O  O70  1  0.16834601  0.69935134  0.75522441  1
  O  O71  1  0.53066560  0.83377705  0.75554499  1
loop_
_geom_bond_atom_site_label_1
_geom_bond_atom_site_label_2
_geom_bond_distance
_geom_bond_site_symmetry_2
Na0 O52 2.272561 1_555
Na0 O67 2.380362 1_545
Na0 O53 2.456169 1_555
Na0 O66 2.546348 1_545
Na0 O16 2.593119 1_555
Na0 O31 2.779948 1_545
Na0 O9 2.912683 1_545
Na0 O2 2.993424 1_555
Na1 O51 2.315067 1_555
Na1 O53 2.349490 1_555
Na1 O68 2.425401 1_555
Na1 O17 2.566168 1_555
Na1 O67 2.622457 1_555
Na1 O32 2.822285 1_555
Na1 O10 2.888532 1_555
Na1 O0 2.937448 1_555
Na2 O48 2.299600 1_555
Na2 O69 2.378521 1_655
Na2 O50 2.386562 1_555
Na2 O12 2.573057 1_555
Na2 O70 2.574989 1_655
Na2 O33 2.794889 1_655
Na2 O7 2.903914 1_655
Na2 O5 2.972333 1_555
Na3 O36 2.558259 1_555
Na3 O37 2.558954 1_455
Na3 O38 2.577085 1_565
Na3 O44 2.629686 1_455
Na3 O42 2.630957 1_465
Na3 O43 2.644359 1_565
Na4 O40 2.586755 1_655
Na4 O39 2.597938 1_665
Na4 O47 2.600490 1_666
Na4 O41 2.602014 1_555
Na4 O45 2.604579 1_556
Na4 O46 2.610007 1_566
Na5 O49 2.331494 1_555
Na5 O50 2.560737 1_555
Na5 O48 2.579783 1_555
Na5 O54 2.708005 1_555
Na5 O56 2.718393 1_555
Na5 O55 2.798779 1_555
Na6 O51 2.408881 1_555
Na6 O52 2.432050 1_555
Na6 O53 2.645484 1_555
Na6 O59 2.666786 1_555
Na6 O58 2.744191 1_555
Na6 O57 2.753942 1_555
Na7 O68 2.553705 1_555
Na7 O61 2.570142 1_555
Na7 O66 2.601054 1_555
Na7 O60 2.625915 1_555
Na7 O67 2.629555 1_555
Na7 O62 2.632534 1_555
Na8 O71 2.571360 1_555
Na8 O69 2.587784 1_555
Na8 O64 2.602196 1_555
Na8 O63 2.607391 1_555
Na8 O70 2.633314 1_555
Na8 O65 2.670397 1_555
Mg0 O14 2.019623 1_555
Mg0 O49 2.020831 1_555
Mg0 O13 2.028240 1_555
Mg0 O12 2.115129 1_555
Mg0 O50 2.171190 1_555
Mg0 O48 2.173982 1_555
Mg1 O15 2.002317 1_555
Mg1 O51 2.053755 1_555
Mg1 O52 2.057413 1_555
Mg1 O17 2.090323 1_555
Mg1 O16 2.093198 1_555
Mg1 O53 2.210146 1_555
Nb0 O1 1.932331 1_555
Nb0 O2 1.948203 1_565
Nb0 O37 1.963466 1_555
Nb0 O36 1.998877 1_655
Nb0 O38 2.010880 1_665
Nb0 O0 2.087156 1_665
Nb1 O3 1.914089 1_555
Nb1 O40 1.960816 1_545
Nb1 O39 1.972634 1_555
Nb1 O41 2.006378 1_445
Nb1 O4 2.040341 1_445
Nb1 O5 2.060912 1_455
Nb2 O7 1.915043 1_555
Nb2 O8 2.005139 1_545
Nb2 O6 2.016441 1_445
Nb2 O43 2.035553 1_555
Nb2 O42 2.046126 1_455
Nb2 O44 2.077233 1_445
Nb3 O9 1.923651 1_545
Nb3 O10 1.931428 1_655
Nb3 O11 2.025862 1_645
Nb3 O46 2.046529 1_555
Nb3 O45 2.079033 1_545
Nb3 O47 2.088024 1_655
Nb4 O54 1.956968 1_555
Nb4 O55 1.957870 1_555
Nb4 O56 1.966171 1_555
Nb4 O19 2.043167 1_556
Nb4 O18 2.045662 1_556
Nb4 O20 2.056682 1_556
Nb5 O58 1.955792 1_555
Nb5 O57 1.962878 1_555
Nb5 O59 1.964875 1_555
Nb5 O22 2.036605 1_555
Nb5 O21 2.055426 1_555
Nb5 O23 2.058468 1_555
Nb6 O26 1.931397 1_554
Nb6 O25 1.932919 1_554
Nb6 O24 1.934000 1_554
Nb6 O61 2.056211 1_555
Nb6 O60 2.065826 1_555
Nb6 O62 2.072172 1_555
Nb7 O29 1.930805 1_555
Nb7 O27 1.931177 1_555
Nb7 O28 1.932929 1_555
Nb7 O64 2.058806 1_555
Nb7 O63 2.061057 1_555
Nb7 O65 2.072716 1_555
Nb8 O30 1.921499 1_555
Nb8 O32 1.942310 1_555
Nb8 O31 1.980099 1_555
Nb8 O68 2.014674 1_555
Nb8 O67 2.055795 1_555
Nb8 O66 2.109433 1_555
Nb9 O35 1.913962 1_555
Nb9 O34 1.943863 1_555
Nb9 O33 1.975152 1_555
Nb9 O69 2.021044 1_555
Nb9 O71 2.073214 1_555
Nb9 O70 2.122209 1_555
O0 P0 1.541604 1_545
O1 Si0 1.640164 1_555
O2 Si1 1.647915 1_555
O3 Si2 1.657371 1_555
O4 P1 1.548363 1_555
O5 P2 1.551754 1_555
O6 P2 1.572462 1_565
O7 Si2 1.686930 1_555
O8 P1 1.568341 1_455
O9 Si0 1.671369 1_555
O10 Si1 1.678306 1_455
O11 P0 1.562616 1_555
O12 P3 1.505756 1_555
O13 P4 1.492852 1_555
O14 P5 1.493424 1_555
O15 P6 1.499162 1_555
O16 P7 1.508907 1_555
O17 P8 1.509869 1_555
O18 P8 1.560026 1_555
O19 P6 1.564536 1_555
O20 P7 1.556962 1_555
O21 P4 1.563469 1_555
O22 P5 1.567163 1_555
O23 P3 1.558997 1_555
O24 Si3 1.628850 1_555
O25 Si4 1.629389 1_555
O26 Si5 1.628731 1_555
O27 Si6 1.626869 1_555
O28 Si7 1.627233 1_555
O29 Si8 1.627610 1_555
O30 Si8 1.645189 1_555
O31 Si6 1.639132 1_555
O32 Si7 1.651048 1_555
O33 Si4 1.639368 1_555
O34 Si5 1.633678 1_555
O35 Si3 1.646524 1_555
O36 Si8 1.615316 1_555
O37 Si6 1.627819 1_555
O38 Si7 1.613965 1_555
O39 Si4 1.627972 1_555
O40 Si5 1.628647 1_555
O41 Si3 1.614939 1_555
O42 P3 1.585983 1_555
O43 P4 1.589751 1_555
O44 P5 1.577654 1_555
O45 P6 1.574364 1_555
O46 P7 1.583050 1_555
O47 P8 1.572270 1_555
O48 P2 1.515362 1_555
O49 Si2 1.566139 1_555
O50 P1 1.514552 1_555
O51 Si0 1.579847 1_555
O52 Si1 1.580124 1_555
O53 P0 1.523687 1_545
O54 Si3 1.631559 1_555
O55 Si4 1.632343 1_655
O56 Si5 1.629747 1_545
O57 Si6 1.629530 1_545
O58 Si7 1.631898 1_555
O59 Si8 1.630823 1_655
O60 P8 1.568236 1_555
O61 P6 1.569588 1_455
O62 P7 1.564724 1_565
O63 P4 1.567352 1_565
O64 P5 1.569877 1_555
O65 P3 1.565555 1_455
O66 P0 1.557999 1_555
O67 Si0 1.668503 1_555
O68 Si1 1.649376 1_455
O69 Si2 1.670090 1_555
O70 P1 1.570803 1_455
O71 P2 1.555712 1_565
