# generated using pymatgen
data_MgHg2(MoO4)2
_symmetry_space_group_name_H-M   'P 1'
_cell_length_a   5.51676718
_cell_length_b   6.58938899
_cell_length_c   6.25909141
_cell_angle_alpha   116.02419697
_cell_angle_beta   114.33975868
_cell_angle_gamma   84.70104445
_symmetry_Int_Tables_number   1
_chemical_formula_structural   MgHg2(MoO4)2
_chemical_formula_sum   'Mg1 Hg2 Mo2 O8'
_cell_volume   185.19760893
_cell_formula_units_Z   1
loop_
 _symmetry_equiv_pos_site_id
 _symmetry_equiv_pos_as_xyz
  1  'x, y, z'
loop_
 _atom_site_type_symbol
 _atom_site_label
 _atom_site_symmetry_multiplicity
 _atom_site_fract_x
 _atom_site_fract_y
 _atom_site_fract_z
 _atom_site_occupancy
  Mg  Mg0  1  0.11182633  0.31241403  0.56477821  1
  Hg  Hg0  1  0.56883035  0.55021223  0.50778094  1
  Hg  Hg1  1  0.95849229  0.72358488  0.26491791  1
  Mo  Mo0  1  0.70140852  0.15408705  0.96295522  1
  Mo  Mo1  1  0.26258738  0.89468700  0.01477593  1
  O  O0  1  0.96961811  0.41586608  0.27511163  1
  O  O1  1  0.49493313  0.27905133  0.75711828  1
  O  O2  1  0.03806916  0.59821764  0.80238234  1
  O  O3  1  0.48765786  0.81431488  0.26211495  1
  O  O4  1  0.01635674  0.01554323  0.23718622  1
  O  O5  1  0.48090482  0.84738962  0.79781287  1
  O  O6  1  0.97702602  0.03865955  0.82200439  1
  O  O7  1  0.51978928  0.21013949  0.20106112  1
loop_
_geom_bond_atom_site_label_1
_geom_bond_atom_site_label_2
_geom_bond_distance
_geom_bond_site_symmetry_2
Mg0 O2 1.955400 1_555
Mg0 O1 2.003411 1_555
Mg0 O4 2.022075 1_555
Mg0 O0 2.044655 1_455
Hg0 O7 2.165438 1_555
Hg0 O5 2.190064 1_555
Hg0 O2 2.430267 1_655
Hg1 O0 2.051007 1_555
Hg1 O4 2.070090 1_665
Hg1 O3 2.605661 1_555
Mo0 O1 1.784208 1_555
Mo0 O6 1.993015 1_555
Mo0 O7 2.010195 1_556
Mo0 O0 2.028122 1_556
Mo0 O5 2.053538 1_545
Mo0 O4 2.328565 1_656
Mo1 O3 1.797881 1_555
Mo1 O2 1.982059 1_554
Mo1 O6 1.999805 1_464
Mo1 O5 2.073486 1_554
Mo1 O7 2.178961 1_565
Mo1 O4 2.191683 1_565
