# generated using pymatgen
data_H3ClO5
_symmetry_space_group_name_H-M   'P 1'
_cell_length_a   9.24460301
_cell_length_b   5.32376157
_cell_length_c   8.50848203
_cell_angle_alpha   60.90797988
_cell_angle_beta   90.00000000
_cell_angle_gamma   90.00000000
_symmetry_Int_Tables_number   1
_chemical_formula_structural   H3ClO5
_chemical_formula_sum   'H12 Cl4 O20'
_cell_volume   365.92395729
_cell_formula_units_Z   4
loop_
 _symmetry_equiv_pos_site_id
 _symmetry_equiv_pos_as_xyz
  1  'x, y, z'
loop_
 _atom_site_type_symbol
 _atom_site_label
 _atom_site_symmetry_multiplicity
 _atom_site_fract_x
 _atom_site_fract_y
 _atom_site_fract_z
 _atom_site_occupancy
  H  H0  1  0.27348913  0.38983712  0.24110212  1
  H  H1  1  0.77348913  0.61016288  0.25889788  1
  H  H2  1  0.72651087  0.61016288  0.75889788  1
  H  H3  1  0.22651087  0.38983712  0.74110212  1
  H  H4  1  0.89826645  0.57878613  0.81918872  1
  H  H5  1  0.39826645  0.42121387  0.68081128  1
  H  H6  1  0.17228315  0.65762853  0.22933496  1
  H  H7  1  0.67228315  0.34237147  0.27066504  1
  H  H8  1  0.82771685  0.34237147  0.77066504  1
  H  H9  1  0.32771685  0.65762853  0.72933496  1
  H  H10  1  0.10173355  0.42121387  0.18081128  1
  H  H11  1  0.60173355  0.57878613  0.31918872  1
  Cl  Cl0  1  0.96861640  0.93698898  0.28176192  1
  Cl  Cl1  1  0.46861640  0.06301102  0.21823808  1
  Cl  Cl2  1  0.03138360  0.06301102  0.71823808  1
  Cl  Cl3  1  0.53138360  0.93698898  0.78176192  1
  O  O0  1  0.12256914  0.87188570  0.30179747  1
  O  O1  1  0.04701123  0.75229191  0.81092575  1
  O  O2  1  0.45298877  0.75229191  0.31092575  1
  O  O3  1  0.54701123  0.24770809  0.68907425  1
  O  O4  1  0.59380468  0.82451750  0.67117533  1
  O  O5  1  0.09380468  0.17548250  0.82882467  1
  O  O6  1  0.40619532  0.17548250  0.32882467  1
  O  O7  1  0.90619532  0.82451750  0.17117533  1
  O  O8  1  0.30790930  0.52761901  0.67709854  1
  O  O9  1  0.80790930  0.47238099  0.82290146  1
  O  O10  1  0.69209070  0.47238099  0.32290146  1
  O  O11  1  0.19209070  0.52761901  0.17709854  1
  O  O12  1  0.87743086  0.12811430  0.69820253  1
  O  O13  1  0.37743086  0.87188570  0.80179747  1
  O  O14  1  0.89825420  0.81249844  0.45184646  1
  O  O15  1  0.39825420  0.18750156  0.04815354  1
  O  O16  1  0.10174580  0.18750156  0.54815354  1
  O  O17  1  0.60174580  0.81249844  0.95184646  1
  O  O18  1  0.95298877  0.24770809  0.18907425  1
  O  O19  1  0.62256914  0.12811430  0.19820253  1
loop_
_geom_bond_atom_site_label_1
_geom_bond_atom_site_label_2
_geom_bond_distance
_geom_bond_site_symmetry_2
H0 O11 1.006190 1_555
H0 O6 1.592537 1_555
H1 O10 1.006190 1_555
H1 O7 1.592537 1_555
H2 O9 1.006190 1_555
H2 O4 1.592537 1_555
H3 O8 1.006190 1_555
H3 O5 1.592537 1_555
H4 O9 1.001121 1_555
H4 O1 1.638866 1_655
H5 O8 1.001121 1_555
H5 O3 1.638866 1_555
H6 O11 1.004623 1_555
H6 O0 1.605090 1_555
H7 O10 1.004623 1_555
H7 O19 1.605090 1_555
H8 O9 1.004623 1_555
H8 O12 1.605090 1_555
H9 O8 1.004623 1_555
H9 O13 1.605090 1_555
H10 O11 1.001121 1_555
H10 O18 1.638866 1_455
H11 O10 1.001121 1_555
H11 O2 1.638866 1_555
Cl0 O14 1.422661 1_555
Cl0 O18 1.452787 1_565
Cl0 O0 1.455102 1_655
Cl0 O7 1.457644 1_555
Cl1 O15 1.422661 1_555
Cl1 O2 1.452787 1_545
Cl1 O19 1.455102 1_555
Cl1 O6 1.457644 1_555
Cl2 O16 1.422661 1_555
Cl2 O1 1.452787 1_545
Cl2 O12 1.455102 1_455
Cl2 O5 1.457644 1_555
Cl3 O17 1.422661 1_555
Cl3 O3 1.452787 1_565
Cl3 O13 1.455102 1_555
Cl3 O4 1.457644 1_555
