# generated using pymatgen
data_K2Si2O5
_symmetry_space_group_name_H-M   'P 1'
_cell_length_a   9.95941379
_cell_length_b   9.95941379
_cell_length_c   9.95320386
_cell_angle_alpha   68.69378314
_cell_angle_beta   68.69378314
_cell_angle_gamma   68.84906620
_symmetry_Int_Tables_number   1
_chemical_formula_structural   K2Si2O5
_chemical_formula_sum   'K12 Si12 O30'
_cell_volume   826.60685852
_cell_formula_units_Z   6
loop_
 _symmetry_equiv_pos_site_id
 _symmetry_equiv_pos_as_xyz
  1  'x, y, z'
loop_
 _atom_site_type_symbol
 _atom_site_label
 _atom_site_symmetry_multiplicity
 _atom_site_fract_x
 _atom_site_fract_y
 _atom_site_fract_z
 _atom_site_occupancy
  K  K0  1  0.61613943  0.09917109  0.93023618  1
  K  K1  1  0.09917109  0.61613943  0.43023618  1
  K  K2  1  0.28505474  0.83757169  0.62346544  1
  K  K3  1  0.83757169  0.28505474  0.12346544  1
  K  K4  1  0.23488940  0.20564089  0.02165447  1
  K  K5  1  0.20564089  0.23488940  0.52165447  1
  K  K6  1  0.43604271  0.96126035  0.78420037  1
  K  K7  1  0.96126035  0.43604271  0.28420037  1
  K  K8  1  0.63745753  0.68274208  0.96683882  1
  K  K9  1  0.68274208  0.63745753  0.46683882  1
  K  K10  1  0.67751512  0.14318375  0.51856080  1
  K  K11  1  0.14318375  0.67751512  0.01856080  1
  Si  Si0  1  0.51545925  0.48433941  0.32464116  1
  Si  Si1  1  0.84445450  0.38566280  0.73733776  1
  Si  Si2  1  0.38566280  0.84445450  0.23733776  1
  Si  Si3  1  0.99378483  0.04547030  0.87566957  1
  Si  Si4  1  0.04547030  0.99378483  0.37566957  1
  Si  Si5  1  0.87440984  0.90907872  0.22165872  1
  Si  Si6  1  0.90907872  0.87440984  0.72165872  1
  Si  Si7  1  0.02590430  0.52156859  0.82465635  1
  Si  Si8  1  0.52156859  0.02590430  0.32465635  1
  Si  Si9  1  0.39632625  0.36051500  0.16571470  1
  Si  Si10  1  0.36051500  0.39632625  0.66571470  1
  Si  Si11  1  0.48433941  0.51545925  0.82464116  1
  O  O0  1  0.88149611  0.47553672  0.82541207  1
  O  O1  1  0.03154728  0.48150631  0.99064398  1
  O  O2  1  0.48150631  0.03154728  0.49064398  1
  O  O3  1  0.43320358  0.17606830  0.21759530  1
  O  O4  1  0.17606830  0.43320358  0.71759530  1
  O  O5  1  0.93617629  0.92325813  0.84952694  1
  O  O6  1  0.92325813  0.93617629  0.34952694  1
  O  O7  1  0.23436214  0.44216798  0.24256809  1
  O  O8  1  0.44216798  0.23436214  0.74256809  1
  O  O9  1  0.93044035  0.41659335  0.56701604  1
  O  O10  1  0.41659335  0.93044035  0.06701604  1
  O  O11  1  0.90373628  0.73711109  0.24586692  1
  O  O12  1  0.20990364  0.87130662  0.34053065  1
  O  O13  1  0.87130662  0.20990364  0.84053065  1
  O  O14  1  0.99791208  0.96780339  0.55890412  1
  O  O15  1  0.96780339  0.99791208  0.05890412  1
  O  O16  1  0.39345625  0.43006196  0.48289008  1
  O  O17  1  0.43006196  0.39345625  0.98289008  1
  O  O18  1  0.40482299  0.52389483  0.69976360  1
  O  O19  1  0.52389483  0.40482299  0.19976360  1
  O  O20  1  0.04212141  0.15958719  0.28461338  1
  O  O21  1  0.15958719  0.04212141  0.78461338  1
  O  O22  1  0.67823500  0.44162347  0.34069667  1
  O  O23  1  0.44162347  0.67823500  0.84069667  1
  O  O24  1  0.44394179  0.66309887  0.26179533  1
  O  O25  1  0.66309887  0.44394179  0.76179533  1
  O  O26  1  0.47553672  0.88149611  0.32541207  1
  O  O27  1  0.69934211  0.00885787  0.23287249  1
  O  O28  1  0.00885787  0.69934211  0.73287249  1
  O  O29  1  0.73711109  0.90373628  0.74586692  1
loop_
_geom_bond_atom_site_label_1
_geom_bond_atom_site_label_2
_geom_bond_distance
_geom_bond_site_symmetry_2
K0 O8 2.672963 1_555
K0 O10 2.721827 1_546
K0 O29 2.811444 1_545
K0 O13 2.851275 1_555
K0 O17 2.964793 1_555
K0 O3 2.980672 1_556
K0 O5 3.001057 1_545
K0 O27 3.142636 1_556
K1 O7 2.672963 1_555
K1 O9 2.721827 1_455
K1 O11 2.811444 1_455
K1 O12 2.851275 1_555
K1 O16 2.964793 1_555
K1 O4 2.980672 1_555
K1 O6 3.001057 1_455
K1 O28 3.142636 1_555
K2 O21 2.713891 1_565
K2 O23 2.792061 1_555
K2 O18 2.829167 1_555
K2 O26 2.856038 1_555
K2 O2 2.880972 1_565
K2 O14 2.885570 1_455
K2 O12 3.044043 1_555
K2 O28 3.180309 1_555
K3 O20 2.713891 1_655
K3 O22 2.792061 1_555
K3 O19 2.829167 1_555
K3 O0 2.856038 1_554
K3 O1 2.880972 1_654
K3 O15 2.885570 1_545
K3 O13 3.044043 1_554
K3 O27 3.180309 1_555
K4 O20 2.618766 1_555
K4 O10 2.665709 1_545
K4 O1 2.750958 1_554
K4 O8 2.782289 1_554
K4 O17 2.996754 1_554
K4 O3 3.123004 1_555
K4 O4 3.159814 1_554
K5 O21 2.618766 1_555
K5 O9 2.665709 1_455
K5 O2 2.750958 1_555
K5 O7 2.782289 1_555
K5 O16 2.996754 1_555
K5 O4 3.123004 1_555
K5 O3 3.159814 1_555
K6 O21 2.573608 1_565
K6 O8 2.618357 1_565
K6 O2 2.648223 1_565
K6 O23 2.650005 1_555
K6 O10 2.659753 1_556
K6 O29 2.748158 1_555
K7 O20 2.573608 1_655
K7 O7 2.618357 1_655
K7 O1 2.648223 1_654
K7 O22 2.650005 1_555
K7 O9 2.659753 1_555
K7 O11 2.748158 1_555
K8 O29 2.671869 1_555
K8 O23 2.695557 1_555
K8 O24 2.848583 1_556
K8 O0 2.855264 1_555
K8 O10 2.862890 1_556
K8 O19 3.163180 1_556
K9 O11 2.671869 1_555
K9 O22 2.695557 1_555
K9 O25 2.848583 1_555
K9 O26 2.855264 1_555
K9 O9 2.862890 1_555
K9 O18 3.163180 1_555
K10 O29 2.681696 1_545
K10 O2 2.703553 1_555
K10 O8 2.725291 1_555
K10 O22 2.854973 1_555
K10 O6 2.993006 1_545
K10 O14 3.129481 1_545
K10 O16 3.233033 1_555
K11 O11 2.681696 1_455
K11 O1 2.703553 1_554
K11 O7 2.725291 1_555
K11 O23 2.854973 1_554
K11 O5 2.993006 1_454
K11 O15 3.129481 1_455
K11 O17 3.233033 1_554
O0 Si7 1.656553 1_655
O0 Si1 1.658094 1_555
O1 Si7 1.569738 1_555
O2 Si8 1.569738 1_555
O3 Si8 1.649314 1_555
O3 Si9 1.654582 1_555
O4 Si7 1.649314 1_555
O4 Si10 1.654582 1_555
O5 Si3 1.649539 1_565
O5 Si6 1.650327 1_555
O6 Si4 1.649539 1_655
O6 Si5 1.650327 1_555
O7 Si9 1.567536 1_555
O8 Si10 1.567536 1_555
O9 Si1 1.567801 1_555
O10 Si2 1.567801 1_555
O11 Si5 1.570653 1_555
O12 Si4 1.656620 1_555
O12 Si2 1.657047 1_555
O13 Si3 1.656620 1_555
O13 Si1 1.657047 1_555
O14 Si6 1.652109 1_555
O14 Si4 1.653842 1_655
O15 Si5 1.652109 1_555
O15 Si3 1.653842 1_564
O16 Si0 1.647415 1_555
O16 Si10 1.653239 1_555
O17 Si11 1.647415 1_555
O17 Si9 1.653239 1_556
O18 Si10 1.658295 1_555
O18 Si11 1.664487 1_555
O19 Si9 1.658295 1_555
O19 Si0 1.664487 1_555
O20 Si4 1.563305 1_545
O21 Si3 1.563305 1_455
O22 Si0 1.573469 1_555
O23 Si11 1.573469 1_555
O24 Si0 1.633275 1_555
O24 Si2 1.638628 1_555
O25 Si11 1.633275 1_555
O25 Si1 1.638628 1_555
O26 Si8 1.656553 1_565
O26 Si2 1.658094 1_555
O27 Si8 1.648790 1_555
O27 Si5 1.651916 1_545
O28 Si7 1.648790 1_555
O28 Si6 1.651916 1_455
O29 Si6 1.570653 1_555
