# generated using pymatgen
data_LiSb(PO3)4
_symmetry_space_group_name_H-M   'P 1'
_cell_length_a   9.35226000
_cell_length_b   10.35642200
_cell_length_c   12.58085301
_cell_angle_alpha   55.11360417
_cell_angle_beta   90.00000000
_cell_angle_gamma   90.00000000
_symmetry_Int_Tables_number   1
_chemical_formula_structural   LiSb(PO3)4
_chemical_formula_sum   'Li4 Sb4 P16 O48'
_cell_volume   999.54557119
_cell_formula_units_Z   4
loop_
 _symmetry_equiv_pos_site_id
 _symmetry_equiv_pos_as_xyz
  1  'x, y, z'
loop_
 _atom_site_type_symbol
 _atom_site_label
 _atom_site_symmetry_multiplicity
 _atom_site_fract_x
 _atom_site_fract_y
 _atom_site_fract_z
 _atom_site_occupancy
  Li  Li0  1  0.05372900  0.13719200  0.88999900  1
  Li  Li1  1  0.55372900  0.86280800  0.61000100  1
  Li  Li2  1  0.44627100  0.13719200  0.38999900  1
  Li  Li3  1  0.94627100  0.86280800  0.11000100  1
  Sb  Sb0  1  0.29725700  0.81116600  0.99238000  1
  Sb  Sb1  1  0.20274300  0.81116600  0.49238000  1
  Sb  Sb2  1  0.79725700  0.18883400  0.50762000  1
  Sb  Sb3  1  0.70274300  0.18883400  0.00762000  1
  P  P0  1  0.34084600  0.20243500  0.96390900  1
  P  P1  1  0.50588500  0.48812000  0.77248700  1
  P  P2  1  0.10803100  0.70755100  0.80974900  1
  P  P3  1  0.00588500  0.51188000  0.72751300  1
  P  P4  1  0.88765000  0.89343400  0.84867400  1
  P  P5  1  0.38765000  0.10656600  0.65132600  1
  P  P6  1  0.84084600  0.79756500  0.53609100  1
  P  P7  1  0.60803100  0.29244900  0.69025100  1
  P  P8  1  0.39196900  0.70755100  0.30974900  1
  P  P9  1  0.15915400  0.20243500  0.46390900  1
  P  P10  1  0.61235000  0.89343400  0.34867400  1
  P  P11  1  0.11235000  0.10656600  0.15132600  1
  P  P12  1  0.99411500  0.48812000  0.27248700  1
  P  P13  1  0.89196900  0.29244900  0.19025100  1
  P  P14  1  0.49411500  0.51188000  0.22751300  1
  P  P15  1  0.65915400  0.79756500  0.03609100  1
  O  O0  1  0.26723100  0.11111900  0.92107400  1
  O  O1  1  0.65955800  0.18702800  0.82788600  1
  O  O2  1  0.62193500  0.42607100  0.87563700  1
  O  O3  1  0.36383500  0.38116300  0.84074100  1
  O  O4  1  0.96630400  0.34330700  0.79884800  1
  O  O5  1  0.20508800  0.66560100  0.92019900  1
  O  O6  1  0.76662300  0.77147400  0.95072500  1
  O  O7  1  0.51950700  0.86081200  0.96039100  1
  O  O8  1  0.04955100  0.54523200  0.83427400  1
  O  O9  1  0.98869600  0.93801000  0.91624500  1
  O  O10  1  0.95869400  0.77547700  0.82148600  1
  O  O11  1  0.54955100  0.45476800  0.66572600  1
  O  O12  1  0.46630400  0.65669300  0.70115200  1
  O  O13  1  0.86383500  0.61883700  0.65925900  1
  O  O14  1  0.12193500  0.57392900  0.62436300  1
  O  O15  1  0.31250300  0.97709900  0.77096700  1
  O  O16  1  0.15955800  0.81297200  0.67211400  1
  O  O17  1  0.81250300  0.02290100  0.72903300  1
  O  O18  1  0.76723100  0.88888100  0.57892600  1
  O  O19  1  0.45869400  0.22452300  0.67851400  1
  O  O20  1  0.48869600  0.06199000  0.58375500  1
  O  O21  1  0.29491200  0.66560100  0.42019900  1
  O  O22  1  0.73337700  0.77147400  0.45072500  1
  O  O23  1  0.98049300  0.86081200  0.46039100  1
  O  O24  1  0.01950700  0.13918800  0.53960900  1
  O  O25  1  0.26662300  0.22852600  0.54927500  1
  O  O26  1  0.70508800  0.33439900  0.57980100  1
  O  O27  1  0.51130400  0.93801000  0.41624500  1
  O  O28  1  0.54130600  0.77547700  0.32148600  1
  O  O29  1  0.23276900  0.11111900  0.42107400  1
  O  O30  1  0.18749700  0.97709900  0.27096700  1
  O  O31  1  0.84044200  0.18702800  0.32788600  1
  O  O32  1  0.68749700  0.02290100  0.22903300  1
  O  O33  1  0.87806500  0.42607100  0.37563700  1
  O  O34  1  0.13616500  0.38116300  0.34074100  1
  O  O35  1  0.53369600  0.34330700  0.29884800  1
  O  O36  1  0.45044900  0.54523200  0.33427400  1
  O  O37  1  0.04130600  0.22452300  0.17851400  1
  O  O38  1  0.01130400  0.06199000  0.08375500  1
  O  O39  1  0.95044900  0.45476800  0.16572600  1
  O  O40  1  0.48049300  0.13918800  0.03960900  1
  O  O41  1  0.23337700  0.22852600  0.04927500  1
  O  O42  1  0.79491200  0.33439900  0.07980100  1
  O  O43  1  0.03369600  0.65669300  0.20115200  1
  O  O44  1  0.63616500  0.61883700  0.15925900  1
  O  O45  1  0.37806500  0.57392900  0.12436300  1
  O  O46  1  0.34044200  0.81297200  0.17211400  1
  O  O47  1  0.73276900  0.88888100  0.07892600  1
loop_
_geom_bond_atom_site_label_1
_geom_bond_atom_site_label_2
_geom_bond_distance
_geom_bond_site_symmetry_2
Li0 O4 1.933906 1_455
Li0 O9 1.988715 1_445
Li0 O0 2.022848 1_555
Li0 O38 2.129389 1_556
Li1 O12 1.933906 1_555
Li1 O20 1.988715 1_565
Li1 O18 2.022848 1_555
Li1 O27 2.129389 1_555
Li2 O35 1.933906 1_555
Li2 O27 1.988715 1_545
Li2 O29 2.022848 1_555
Li2 O20 2.129389 1_555
Li3 O43 1.933906 1_655
Li3 O38 1.988715 1_665
Li3 O47 2.022848 1_555
Li3 O9 2.129389 1_554
O0 P0 1.497245 1_555
O0 Sb0 2.710317 1_545
O1 P7 1.503327 1_555
O1 Sb3 2.307575 1_556
O2 P1 1.523491 1_555
O2 Sb3 2.167500 1_556
O3 P0 1.610138 1_555
O3 P1 1.625169 1_555
O4 P3 1.482587 1_655
O5 P2 1.500989 1_555
O5 Sb0 2.325147 1_555
O6 P15 1.602679 1_556
O6 P4 1.633970 1_555
O7 P15 1.525826 1_556
O7 Sb0 2.123664 1_555
O8 P3 1.618891 1_555
O8 P2 1.620776 1_555
O9 P4 1.509222 1_555
O10 P4 1.590211 1_555
O10 P2 1.608135 1_655
O11 P1 1.618891 1_555
O11 P7 1.620776 1_555
O12 P1 1.482587 1_555
O13 P6 1.610138 1_555
O13 P3 1.625169 1_655
O14 P3 1.523491 1_555
O14 Sb1 2.167500 1_555
O15 P5 1.499564 1_565
O15 Sb0 2.292833 1_555
O16 P2 1.503327 1_555
O16 Sb1 2.307575 1_555
O17 P4 1.499564 1_545
O17 Sb2 2.292833 1_555
O18 P6 1.497245 1_555
O18 Sb2 2.710317 1_565
O19 P5 1.590211 1_555
O19 P7 1.608135 1_555
O20 P5 1.509222 1_555
O21 P8 1.500989 1_555
O21 Sb1 2.325147 1_555
O22 P6 1.602679 1_555
O22 P10 1.633970 1_555
O23 P6 1.525826 1_555
O23 Sb1 2.123664 1_655
O24 P9 1.525826 1_555
O24 Sb2 2.123664 1_455
O25 P9 1.602679 1_555
O25 P5 1.633970 1_555
O26 P7 1.500989 1_555
O26 Sb2 2.325147 1_555
O27 P10 1.509222 1_555
O28 P10 1.590211 1_555
O28 P8 1.608135 1_555
O29 P9 1.497245 1_555
O29 Sb1 2.710317 1_545
O30 P11 1.499564 1_565
O30 Sb1 2.292833 1_555
O31 P13 1.503327 1_555
O31 Sb2 2.307575 1_555
O32 P10 1.499564 1_545
O32 Sb3 2.292833 1_555
O33 P12 1.523491 1_555
O33 Sb2 2.167500 1_555
O34 P9 1.610138 1_555
O34 P12 1.625169 1_455
O35 P14 1.482587 1_555
O36 P14 1.618891 1_555
O36 P8 1.620776 1_555
O37 P11 1.590211 1_555
O37 P13 1.608135 1_455
O38 P11 1.509222 1_555
O39 P12 1.618891 1_555
O39 P13 1.620776 1_555
O40 P0 1.525826 1_554
O40 Sb3 2.123664 1_555
O41 P0 1.602679 1_554
O41 P11 1.633970 1_555
O42 P13 1.500989 1_555
O42 Sb3 2.325147 1_555
O43 P12 1.482587 1_455
O44 P15 1.610138 1_555
O44 P14 1.625169 1_555
O45 P14 1.523491 1_555
O45 Sb0 2.167500 1_554
O46 P8 1.503327 1_555
O46 Sb0 2.307575 1_554
O47 P15 1.497245 1_555
O47 Sb3 2.710317 1_565
