# generated using pymatgen
data_TeSeS(NCl)2
_symmetry_space_group_name_H-M   'P 1'
_cell_length_a   8.18806600
_cell_length_b   8.81618900
_cell_length_c   20.99026600
_cell_angle_alpha   90.00000000
_cell_angle_beta   90.00000000
_cell_angle_gamma   90.00000000
_symmetry_Int_Tables_number   1
_chemical_formula_structural   TeSeS(NCl)2
_chemical_formula_sum   'Te8 Se8 S8 N16 Cl16'
_cell_volume   1515.23561192
_cell_formula_units_Z   8
loop_
 _symmetry_equiv_pos_site_id
 _symmetry_equiv_pos_as_xyz
  1  'x, y, z'
loop_
 _atom_site_type_symbol
 _atom_site_label
 _atom_site_symmetry_multiplicity
 _atom_site_fract_x
 _atom_site_fract_y
 _atom_site_fract_z
 _atom_site_occupancy
  Te  Te0  1  0.92541900  0.60800700  0.90728700  1
  Te  Te1  1  0.42541900  0.39199300  0.59271300  1
  Te  Te2  1  0.57458100  0.10800700  0.09271300  1
  Te  Te3  1  0.07458100  0.89199300  0.40728700  1
  Te  Te4  1  0.07458100  0.39199300  0.09271300  1
  Te  Te5  1  0.57458100  0.60800700  0.40728700  1
  Te  Te6  1  0.42541900  0.89199300  0.90728700  1
  Te  Te7  1  0.92541900  0.10800700  0.59271300  1
  Se  Se0  1  0.82622700  0.50116000  0.79814600  1
  Se  Se1  1  0.32622700  0.49884000  0.70185400  1
  Se  Se2  1  0.67377300  0.00116000  0.20185400  1
  Se  Se3  1  0.17377300  0.99884000  0.29814600  1
  Se  Se4  1  0.17377300  0.49884000  0.20185400  1
  Se  Se5  1  0.67377300  0.50116000  0.29814600  1
  Se  Se6  1  0.32622700  0.99884000  0.79814600  1
  Se  Se7  1  0.82622700  0.00116000  0.70185400  1
  S  S0  1  0.95402900  0.75945300  0.61867500  1
  S  S1  1  0.45402900  0.24054700  0.88132500  1
  S  S2  1  0.54597100  0.25945300  0.38132500  1
  S  S3  1  0.04597100  0.74054700  0.11867500  1
  S  S4  1  0.04597100  0.24054700  0.38132500  1
  S  S5  1  0.54597100  0.75945300  0.11867500  1
  S  S6  1  0.45402900  0.74054700  0.61867500  1
  S  S7  1  0.95402900  0.25945300  0.88132500  1
  N  N0  1  0.00549800  0.10855800  0.42809900  1
  N  N1  1  0.62710500  0.80436000  0.18345100  1
  N  N2  1  0.12710500  0.19564000  0.31654900  1
  N  N3  1  0.12710500  0.69564000  0.18345100  1
  N  N4  1  0.62710500  0.30436000  0.31654900  1
  N  N5  1  0.37289500  0.19564000  0.81654900  1
  N  N6  1  0.87289500  0.80436000  0.68345100  1
  N  N7  1  0.99450200  0.39144200  0.92809900  1
  N  N8  1  0.49450200  0.60855800  0.57190100  1
  N  N9  1  0.50549800  0.89144200  0.07190100  1
  N  N10  1  0.87289500  0.30436000  0.81654900  1
  N  N11  1  0.37289500  0.69564000  0.68345100  1
  N  N12  1  0.50549800  0.39144200  0.42809900  1
  N  N13  1  0.49450200  0.10855800  0.92809900  1
  N  N14  1  0.99450200  0.89144200  0.57190100  1
  N  N15  1  0.00549800  0.60855800  0.07190100  1
  Cl  Cl0  1  0.74310000  0.85654200  0.85131500  1
  Cl  Cl1  1  0.25690000  0.64345800  0.35131500  1
  Cl  Cl2  1  0.75690000  0.35654200  0.14868500  1
  Cl  Cl3  1  0.24310000  0.14345800  0.64868500  1
  Cl  Cl4  1  0.66985200  0.56568300  0.96573400  1
  Cl  Cl5  1  0.74310000  0.35654200  0.64868500  1
  Cl  Cl6  1  0.24310000  0.64345800  0.85131500  1
  Cl  Cl7  1  0.66985200  0.06568300  0.53426600  1
  Cl  Cl8  1  0.16985200  0.93431700  0.96573400  1
  Cl  Cl9  1  0.83014800  0.56568300  0.46573400  1
  Cl  Cl10  1  0.33014800  0.43431700  0.03426600  1
  Cl  Cl11  1  0.33014800  0.93431700  0.46573400  1
  Cl  Cl12  1  0.83014800  0.06568300  0.03426600  1
  Cl  Cl13  1  0.16985200  0.43431700  0.53426600  1
  Cl  Cl14  1  0.75690000  0.85654200  0.35131500  1
  Cl  Cl15  1  0.25690000  0.14345800  0.14868500  1
loop_
_geom_bond_atom_site_label_1
_geom_bond_atom_site_label_2
_geom_bond_distance
_geom_bond_site_symmetry_2
Se0 Te0 2.606761 1_555
Se1 Te1 2.606761 1_555
Se2 Te2 2.606761 1_555
Se3 Te3 2.606761 1_555
Se4 Te4 2.606761 1_555
Se5 Te5 2.606761 1_555
Se6 Te6 2.606761 1_555
Se7 Te7 2.606761 1_555
N0 S4 1.558143 1_555
N0 Te3 2.038663 1_545
N1 S5 1.564215 1_555
N1 Se2 1.818116 1_565
N2 S4 1.564215 1_555
N2 Se3 1.818116 1_545
N3 S3 1.564215 1_555
N3 Se4 1.818116 1_555
N4 S2 1.564215 1_555
N4 Se5 1.818116 1_555
N5 S1 1.564215 1_555
N5 Se6 1.818116 1_545
N6 S0 1.564215 1_555
N6 Se7 1.818116 1_565
N7 S7 1.558143 1_555
N7 Te0 2.038663 1_555
N8 S6 1.558143 1_555
N8 Te1 2.038663 1_555
N9 S5 1.558143 1_555
N9 Te2 2.038663 1_565
N10 S7 1.564215 1_555
N10 Se0 1.818116 1_555
N11 S6 1.564215 1_555
N11 Se1 1.818116 1_555
N12 S2 1.558143 1_555
N12 Te5 2.038663 1_555
N13 S1 1.558143 1_555
N13 Te6 2.038663 1_545
N14 S0 1.558143 1_555
N14 Te7 2.038663 1_565
N15 S3 1.558143 1_555
N15 Te4 2.038663 1_555
Cl0 Te6 2.871272 1_555
Cl0 Te0 2.899990 1_555
Cl1 Te5 2.871272 1_555
Cl1 Te3 2.899990 1_555
Cl2 Te4 2.871272 1_655
Cl2 Te2 2.899990 1_555
Cl3 Te7 2.871272 1_455
Cl3 Te1 2.899990 1_555
Cl4 Te0 2.454238 1_555
Cl5 Te1 2.871272 1_555
Cl5 Te7 2.899990 1_555
Cl6 Te0 2.871272 1_455
Cl6 Te6 2.899990 1_555
Cl7 Te7 2.454238 1_555
Cl8 Te6 2.454238 1_555
Cl9 Te5 2.454238 1_555
Cl10 Te4 2.454238 1_555
Cl11 Te3 2.454238 1_555
Cl12 Te2 2.454238 1_555
Cl13 Te1 2.454238 1_555
Cl14 Te3 2.871272 1_655
Cl14 Te5 2.899990 1_555
Cl15 Te2 2.871272 1_555
Cl15 Te4 2.899990 1_555
