# generated using pymatgen
data_K3(NiO2)2
_symmetry_space_group_name_H-M   'P 1'
_cell_length_a   5.49661939
_cell_length_b   5.49661996
_cell_length_c   10.70782300
_cell_angle_alpha   90.00000000
_cell_angle_beta   90.00000000
_cell_angle_gamma   112.29111706
_symmetry_Int_Tables_number   1
_chemical_formula_structural   K3(NiO2)2
_chemical_formula_sum   'K6 Ni4 O8'
_cell_volume   299.33696718
_cell_formula_units_Z   2
loop_
 _symmetry_equiv_pos_site_id
 _symmetry_equiv_pos_as_xyz
  1  'x, y, z'
loop_
 _atom_site_type_symbol
 _atom_site_label
 _atom_site_symmetry_multiplicity
 _atom_site_fract_x
 _atom_site_fract_y
 _atom_site_fract_z
 _atom_site_occupancy
  K  K0  1  0.29774400  0.70225800  0.25000000  1
  K  K1  1  0.70225700  0.29774300  0.75000000  1
  K  K2  1  0.35008200  0.64991900  0.57250500  1
  K  K3  1  0.64991900  0.35008200  0.07250500  1
  K  K4  1  0.64991900  0.35008200  0.42749500  1
  K  K5  1  0.35008200  0.64991900  0.92749500  1
  Ni  Ni0  1  0.06588900  0.93411100  0.75000000  1
  Ni  Ni1  1  0.00000000  0.00000000  0.50000000  1
  Ni  Ni2  1  0.00000000  0.00000000  0.00000000  1
  Ni  Ni3  1  0.93411100  0.06588800  0.25000000  1
  O  O0  1  0.86452100  0.73194100  0.61557200  1
  O  O1  1  0.86452100  0.73194100  0.88442900  1
  O  O2  1  0.26805900  0.13547900  0.61557200  1
  O  O3  1  0.73194100  0.86452200  0.11557100  1
  O  O4  1  0.13547800  0.26805900  0.38442900  1
  O  O5  1  0.26805900  0.13547900  0.88442900  1
  O  O6  1  0.73194100  0.86452200  0.38442900  1
  O  O7  1  0.13547800  0.26805900  0.11557100  1
loop_
_geom_bond_atom_site_label_1
_geom_bond_atom_site_label_2
_geom_bond_distance
_geom_bond_site_symmetry_2
K0 O3 2.636017 1_555
K0 O6 2.636017 1_555
K0 O4 2.636026 1_555
K0 O7 2.636026 1_555
K1 O2 2.636015 1_555
K1 O0 2.636016 1_555
K1 O5 2.636021 1_555
K1 O1 2.636021 1_555
K2 O0 2.728469 1_555
K2 O2 2.728474 1_555
K2 O6 2.823902 1_555
K2 O4 2.823906 1_555
K2 O2 2.907234 1_565
K2 O0 2.907236 1_455
K3 O3 2.728473 1_555
K3 O7 2.728477 1_555
K3 O1 2.823901 1_554
K3 O5 2.823905 1_554
K3 O7 2.907226 1_655
K3 O3 2.907229 1_545
K4 O6 2.728473 1_555
K4 O4 2.728477 1_555
K4 O0 2.823909 1_555
K4 O2 2.823912 1_555
K4 O4 2.907226 1_655
K4 O6 2.907229 1_545
K5 O1 2.728468 1_555
K5 O5 2.728472 1_555
K5 O3 2.823902 1_556
K5 O7 2.823906 1_556
K5 O5 2.907232 1_565
K5 O1 2.907234 1_455
Ni0 O2 1.897063 1_565
Ni0 O0 1.897063 1_455
Ni0 O5 1.897071 1_565
Ni0 O1 1.897071 1_455
Ni1 O6 1.850558 1_445
Ni1 O4 1.850558 1_555
Ni1 O2 1.850565 1_555
Ni1 O0 1.850566 1_445
Ni2 O3 1.850558 1_445
Ni2 O7 1.850558 1_555
Ni2 O5 1.850558 1_554
Ni2 O1 1.850558 1_444
Ni3 O6 1.897067 1_545
Ni3 O3 1.897067 1_545
Ni3 O7 1.897071 1_655
Ni3 O4 1.897071 1_655
