# generated using pymatgen
data_LiIr
_symmetry_space_group_name_H-M   'P 1'
_cell_length_a   5.30616540
_cell_length_b   5.30616591
_cell_length_c   8.71029500
_cell_angle_alpha   90.00000000
_cell_angle_beta   90.00000000
_cell_angle_gamma   119.99906465
_symmetry_Int_Tables_number   1
_chemical_formula_structural   LiIr
_chemical_formula_sum   'Li8 Ir8'
_cell_volume   212.38761974
_cell_formula_units_Z   8
loop_
 _symmetry_equiv_pos_site_id
 _symmetry_equiv_pos_as_xyz
  1  'x, y, z'
loop_
 _atom_site_type_symbol
 _atom_site_label
 _atom_site_symmetry_multiplicity
 _atom_site_fract_x
 _atom_site_fract_y
 _atom_site_fract_z
 _atom_site_occupancy
  Li  Li0_0  1  0.16666653  0.33333347  0.25000000  1
  Li  Li0_1  1  0.16666653  0.33333347  0.75000000  1
  Li  Li0_2  1  0.16666653  0.83333347  0.25000000  1
  Li  Li0_3  1  0.16666653  0.83333347  0.75000000  1
  Li  Li0_4  1  0.66666653  0.33333347  0.25000000  1
  Li  Li0_5  1  0.66666653  0.33333347  0.75000000  1
  Li  Li0_6  1  0.66666653  0.83333347  0.25000000  1
  Li  Li0_7  1  0.66666653  0.83333347  0.75000000  1
  Ir  Ir0_0  1  0.99999998  0.00000003  0.00000000  1
  Ir  Ir0_1  1  0.99999998  0.00000003  0.50000000  1
  Ir  Ir0_2  1  0.99999998  0.50000003  0.00000000  1
  Ir  Ir0_3  1  0.99999998  0.50000003  0.50000000  1
  Ir  Ir0_4  1  0.49999997  0.00000003  0.00000000  1
  Ir  Ir0_5  1  0.49999997  0.00000003  0.50000000  1
  Ir  Ir0_6  1  0.49999998  0.50000003  0.00000000  1
  Ir  Ir0_7  1  0.49999998  0.50000003  0.50000000  1
loop_
_geom_bond_atom_site_label_1
_geom_bond_atom_site_label_2
_geom_bond_distance
_geom_bond_site_symmetry_2
Li0_0 Li0_4 2.653083 1_555
Li0_0 Li0_4 2.653083 1_455
Li0_0 Li0_2 2.653083 1_555
Li0_0 Li0_2 2.653083 1_545
Li0_0 Li0_6 2.653120 1_445
Li0_0 Li0_6 2.653120 1_555
Li0_1 Li0_5 2.653083 1_555
Li0_1 Li0_5 2.653083 1_455
Li0_1 Li0_3 2.653083 1_555
Li0_1 Li0_3 2.653083 1_545
Li0_1 Li0_7 2.653120 1_445
Li0_1 Li0_7 2.653120 1_555
Li0_2 Li0_6 2.653083 1_455
Li0_2 Li0_6 2.653083 1_555
Li0_2 Li0_4 2.653120 1_565
Li0_2 Li0_4 2.653120 1_455
Li0_3 Li0_7 2.653083 1_455
Li0_3 Li0_7 2.653083 1_555
Li0_3 Li0_5 2.653120 1_565
Li0_3 Li0_5 2.653120 1_455
Li0_4 Li0_6 2.653083 1_555
Li0_4 Li0_6 2.653083 1_545
Li0_5 Li0_7 2.653083 1_555
Li0_5 Li0_7 2.653083 1_545
Ir0_0 Ir0_4 2.653083 1_655
Ir0_0 Ir0_4 2.653083 1_555
Ir0_0 Ir0_2 2.653083 1_545
Ir0_0 Ir0_2 2.653083 1_555
Ir0_0 Ir0_6 2.653120 1_655
Ir0_0 Ir0_6 2.653120 1_545
Ir0_0 Li0_2 2.662346 1_645
Ir0_0 Li0_3 2.662346 1_644
Ir0_0 Li0_6 2.662359 1_545
Ir0_0 Li0_7 2.662359 1_544
Ir0_0 Li0_0 2.662359 1_655
Ir0_0 Li0_1 2.662359 1_654
Ir0_1 Ir0_5 2.653083 1_655
Ir0_1 Ir0_5 2.653083 1_555
Ir0_1 Ir0_3 2.653083 1_545
Ir0_1 Ir0_3 2.653083 1_555
Ir0_1 Ir0_7 2.653120 1_545
Ir0_1 Ir0_7 2.653120 1_655
Ir0_1 Li0_3 2.662346 1_645
Ir0_1 Li0_2 2.662346 1_645
Ir0_1 Li0_7 2.662359 1_545
Ir0_1 Li0_6 2.662359 1_545
Ir0_1 Li0_1 2.662359 1_655
Ir0_1 Li0_0 2.662359 1_655
Ir0_2 Ir0_6 2.653083 1_555
Ir0_2 Ir0_6 2.653083 1_655
Ir0_2 Ir0_4 2.653120 1_665
Ir0_2 Ir0_4 2.653120 1_555
Ir0_2 Li0_0 2.662346 1_655
Ir0_2 Li0_1 2.662346 1_654
Ir0_2 Li0_4 2.662359 1_555
Ir0_2 Li0_5 2.662359 1_554
Ir0_2 Li0_2 2.662359 1_655
Ir0_2 Li0_3 2.662359 1_654
Ir0_3 Ir0_7 2.653083 1_555
Ir0_3 Ir0_7 2.653083 1_655
Ir0_3 Ir0_5 2.653120 1_665
Ir0_3 Ir0_5 2.653120 1_555
Ir0_3 Li0_1 2.662346 1_655
Ir0_3 Li0_0 2.662346 1_655
Ir0_3 Li0_5 2.662359 1_555
Ir0_3 Li0_4 2.662359 1_555
Ir0_3 Li0_3 2.662359 1_655
Ir0_3 Li0_2 2.662359 1_655
Ir0_4 Ir0_6 2.653083 1_545
Ir0_4 Ir0_6 2.653083 1_555
Ir0_4 Li0_6 2.662346 1_545
Ir0_4 Li0_7 2.662346 1_544
Ir0_4 Li0_2 2.662359 1_545
Ir0_4 Li0_3 2.662359 1_544
Ir0_4 Li0_4 2.662359 1_555
Ir0_4 Li0_5 2.662359 1_554
Ir0_5 Ir0_7 2.653083 1_545
Ir0_5 Ir0_7 2.653083 1_555
Ir0_5 Li0_7 2.662346 1_545
Ir0_5 Li0_6 2.662346 1_545
Ir0_5 Li0_3 2.662359 1_545
Ir0_5 Li0_2 2.662359 1_545
Ir0_5 Li0_5 2.662359 1_555
Ir0_5 Li0_4 2.662359 1_555
Ir0_6 Li0_4 2.662346 1_555
Ir0_6 Li0_5 2.662346 1_554
Ir0_6 Li0_0 2.662359 1_555
Ir0_6 Li0_1 2.662359 1_554
Ir0_6 Li0_6 2.662359 1_555
Ir0_6 Li0_7 2.662359 1_554
Ir0_7 Li0_5 2.662346 1_555
Ir0_7 Li0_4 2.662346 1_555
Ir0_7 Li0_1 2.662359 1_555
Ir0_7 Li0_0 2.662359 1_555
Ir0_7 Li0_7 2.662359 1_555
Ir0_7 Li0_6 2.662359 1_555
