# generated using pymatgen
data_MgFe4(AsS)4
_symmetry_space_group_name_H-M   'P 1'
_cell_length_a   5.73098874
_cell_length_b   6.09928351
_cell_length_c   6.03859031
_cell_angle_alpha   109.81323886
_cell_angle_beta   88.82154006
_cell_angle_gamma   91.18000190
_symmetry_Int_Tables_number   1
_chemical_formula_structural   MgFe4(AsS)4
_chemical_formula_sum   'Mg1 Fe4 As4 S4'
_cell_volume   198.52032323
_cell_formula_units_Z   1
loop_
 _symmetry_equiv_pos_site_id
 _symmetry_equiv_pos_as_xyz
  1  'x, y, z'
loop_
 _atom_site_type_symbol
 _atom_site_label
 _atom_site_symmetry_multiplicity
 _atom_site_fract_x
 _atom_site_fract_y
 _atom_site_fract_z
 _atom_site_occupancy
  Mg  Mg0  1  0.02822500  0.48828000  0.00990800  1
  Fe  Fe0  1  0.52142100  0.74898300  0.26698900  1
  Fe  Fe1  1  0.01965400  0.26461300  0.28340200  1
  Fe  Fe2  1  0.52456800  0.23066600  0.75788600  1
  Fe  Fe3  1  0.02615200  0.71448200  0.74016900  1
  As  As0  1  0.66944700  0.83930300  0.65057100  1
  As  As1  1  0.18694800  0.08258900  0.87855400  1
  As  As2  1  0.37786000  0.14118300  0.37320100  1
  As  As3  1  0.86170700  0.89382500  0.14775100  1
  S  S0  1  0.64335900  0.35973300  0.16413000  1
  S  S1  1  0.17541300  0.65619600  0.38829000  1
  S  S2  1  0.40517700  0.61987000  0.85964100  1
  S  S3  1  0.86959100  0.32486000  0.63575800  1
loop_
_geom_bond_atom_site_label_1
_geom_bond_atom_site_label_2
_geom_bond_distance
_geom_bond_site_symmetry_2
Mg0 S1 2.332062 1_555
Mg0 S3 2.333485 1_454
Mg0 S2 2.544827 1_554
Mg0 S0 2.585775 1_455
Fe0 S1 2.228011 1_555
Fe0 S0 2.358289 1_555
Fe0 S2 2.418107 1_554
Fe1 S3 2.193082 1_455
Fe1 S1 2.410866 1_555
Fe1 S0 2.429957 1_455
Fe1 Mg0 2.472294 1_555
Fe2 S3 2.228051 1_555
Fe2 S2 2.354091 1_555
Fe2 S0 2.416311 1_556
Fe3 S1 2.190613 1_555
Fe3 S3 2.402010 1_455
Fe3 S2 2.443399 1_555
Fe3 Mg0 2.466106 1_556
As0 Fe3 2.332428 1_655
As0 Fe0 2.363244 1_555
As0 Fe2 2.412080 1_565
As0 S2 2.581137 1_555
As1 Fe3 2.294113 1_545
As1 Fe2 2.325220 1_555
As1 Fe1 2.497176 1_556
As1 Mg0 2.512343 1_556
As2 Fe1 2.336939 1_555
As2 Fe2 2.367040 1_555
As2 Fe0 2.414512 1_545
As2 S0 2.581523 1_555
As3 Fe1 2.301146 1_665
As3 Fe0 2.324775 1_555
As3 Fe3 2.502854 1_654
As3 Mg0 2.527988 1_655
