# generated using pymatgen
data_MgMn5SbO12
_symmetry_space_group_name_H-M   'P 1'
_cell_length_a   5.40874169
_cell_length_b   5.18094093
_cell_length_c   9.98938150
_cell_angle_alpha   93.45645106
_cell_angle_beta   94.69037206
_cell_angle_gamma   121.33105311
_symmetry_Int_Tables_number   1
_chemical_formula_structural   MgMn5SbO12
_chemical_formula_sum   'Mg1 Mn5 Sb1 O12'
_cell_volume   236.56165558
_cell_formula_units_Z   1
loop_
 _symmetry_equiv_pos_site_id
 _symmetry_equiv_pos_as_xyz
  1  'x, y, z'
loop_
 _atom_site_type_symbol
 _atom_site_label
 _atom_site_symmetry_multiplicity
 _atom_site_fract_x
 _atom_site_fract_y
 _atom_site_fract_z
 _atom_site_occupancy
  Mg  Mg0  1  0.73062087  0.41735392  0.25269491  1
  Mn  Mn0  1  0.16083633  0.81092912  0.49940780  1
  Mn  Mn1  1  0.35710954  0.67926123  0.00694887  1
  Mn  Mn2  1  0.50052190  0.48356408  0.51070303  1
  Mn  Mn3  1  0.68294842  0.33648921  0.96995784  1
  Mn  Mn4  1  0.83030101  0.14984024  0.49953919  1
  Sb  Sb0  1  0.02197796  0.01257919  0.00819413  1
  O  O0  1  0.99447135  0.68370937  0.11323875  1
  O  O1  1  0.30289677  0.96650456  0.90404911  1
  O  O2  1  0.07547785  0.44866858  0.38645355  1
  O  O3  1  0.51360074  0.84260407  0.58996677  1
  O  O4  1  0.17758628  0.16807111  0.58975354  1
  O  O5  1  0.37657338  0.37344705  0.11923601  1
  O  O6  1  0.67308591  0.65997852  0.89336939  1
  O  O7  1  0.80098713  0.77053949  0.40221964  1
  O  O8  1  0.48539072  0.13745983  0.40124168  1
  O  O9  1  0.90077360  0.50826429  0.60226572  1
  O  O10  1  0.70854099  0.06142826  0.10008971  1
  O  O11  1  0.03129927  0.32680789  0.90067036  1
loop_
_geom_bond_atom_site_label_1
_geom_bond_atom_site_label_2
_geom_bond_distance
_geom_bond_site_symmetry_2
Mg0 O0 2.095348 1_555
Mg0 O2 2.131279 1_655
Mg0 O7 2.139480 1_555
Mg0 O5 2.142202 1_555
Mg0 O8 2.155257 1_555
Mg0 O10 2.267342 1_555
Mn0 O9 1.905253 1_455
Mn0 O2 1.940925 1_555
Mn0 O4 1.964020 1_565
Mn0 O3 1.964683 1_555
Mn0 O7 2.004360 1_455
Mn0 O8 2.073227 1_565
Mn1 O11 1.918528 1_554
Mn1 O1 1.986517 1_554
Mn1 O10 1.993423 1_565
Mn1 O5 2.036672 1_555
Mn1 O6 2.167736 1_554
Mn1 O0 2.315100 1_455
Mn2 O4 1.938629 1_555
Mn2 O3 1.941276 1_555
Mn2 O7 1.998875 1_555
Mn2 O8 2.003504 1_555
Mn2 O9 2.216648 1_555
Mn2 O2 2.435660 1_555
Mn3 O6 1.907354 1_555
Mn3 O1 1.965211 1_545
Mn3 O10 2.034436 1_556
Mn3 O0 2.065591 1_556
Mn3 O11 2.083008 1_655
Mn3 O5 2.388722 1_556
Mn4 O9 1.901795 1_555
Mn4 O2 1.937103 1_655
Mn4 O3 1.968440 1_545
Mn4 O4 1.969199 1_655
Mn4 O8 2.004219 1_555
Mn4 O7 2.062135 1_545
O0 Sb0 2.000961 1_665
O1 Sb0 2.013378 1_566
O5 Sb0 2.019220 1_555
O6 Sb0 2.005538 1_666
O10 Sb0 2.110327 1_655
O11 Sb0 1.985184 1_556
