# generated using pymatgen
data_LiCo(PO3)4
_symmetry_space_group_name_H-M   'P 1'
_cell_length_a   8.39892100
_cell_length_b   9.27823600
_cell_length_c   12.73813200
_cell_angle_alpha   90.00000000
_cell_angle_beta   90.00000000
_cell_angle_gamma   90.00000000
_symmetry_Int_Tables_number   1
_chemical_formula_structural   LiCo(PO3)4
_chemical_formula_sum   'Li4 Co4 P16 O48'
_cell_volume   992.64659292
_cell_formula_units_Z   4
loop_
 _symmetry_equiv_pos_site_id
 _symmetry_equiv_pos_as_xyz
  1  'x, y, z'
loop_
 _atom_site_type_symbol
 _atom_site_label
 _atom_site_symmetry_multiplicity
 _atom_site_fract_x
 _atom_site_fract_y
 _atom_site_fract_z
 _atom_site_occupancy
  Li  Li0  1  0.50318500  0.75000000  0.50000000  1
  Li  Li1  1  0.49681500  0.25000000  0.50000000  1
  Li  Li2  1  0.99681500  0.25000000  0.00000000  1
  Li  Li3  1  0.00318500  0.75000000  0.00000000  1
  Co  Co0  1  0.86758700  0.75000000  0.50000000  1
  Co  Co1  1  0.63241300  0.25000000  0.00000000  1
  Co  Co2  1  0.13241300  0.25000000  0.50000000  1
  Co  Co3  1  0.36758700  0.75000000  0.00000000  1
  P  P0  1  0.81870600  0.00484700  0.13896400  1
  P  P1  1  0.81870600  0.49515300  0.86103600  1
  P  P2  1  0.18129400  0.50484700  0.13896400  1
  P  P3  1  0.68129400  0.99515300  0.63896400  1
  P  P4  1  0.03499300  0.51067000  0.35109200  1
  P  P5  1  0.46500700  0.48933000  0.85109300  1
  P  P6  1  0.03499300  0.98933000  0.64890700  1
  P  P7  1  0.31870600  0.00484700  0.36103600  1
  P  P8  1  0.96500700  0.01067000  0.35109200  1
  P  P9  1  0.68129400  0.50484700  0.36103600  1
  P  P10  1  0.31870600  0.49515300  0.63896400  1
  P  P11  1  0.53499300  0.51067000  0.14890800  1
  P  P12  1  0.18129400  0.99515300  0.86103600  1
  P  P13  1  0.46500700  0.01067000  0.14890800  1
  P  P14  1  0.53499300  0.98933000  0.85109300  1
  P  P15  1  0.96500700  0.48933000  0.64890700  1
  O  O0  1  0.36958700  0.87750200  0.12157500  1
  O  O1  1  0.30899400  0.36628300  0.56516300  1
  O  O2  1  0.10486200  0.92582200  0.75556100  1
  O  O3  1  0.64213600  0.53647400  0.82003300  1
  O  O4  1  0.53508500  0.63082100  0.06968200  1
  O  O5  1  0.59571700  0.12595700  0.60471500  1
  O  O6  1  0.40428300  0.62595700  0.60471500  1
  O  O7  1  0.85786400  0.46352600  0.32003300  1
  O  O8  1  0.80899400  0.36628300  0.93483700  1
  O  O9  1  0.53508500  0.86917900  0.93031800  1
  O  O10  1  0.40428300  0.87404300  0.39528500  1
  O  O11  1  0.64213600  0.96352600  0.17996700  1
  O  O12  1  0.96491500  0.13082100  0.43031800  1
  O  O13  1  0.60486200  0.92582200  0.74443900  1
  O  O14  1  0.46491500  0.13082100  0.06968200  1
  O  O15  1  0.90428300  0.62595700  0.89528500  1
  O  O16  1  0.03508500  0.63082100  0.43031800  1
  O  O17  1  0.96491500  0.36917900  0.56968200  1
  O  O18  1  0.10486200  0.57417800  0.24443900  1
  O  O19  1  0.89513800  0.42582200  0.75556100  1
  O  O20  1  0.19100600  0.63371700  0.06516300  1
  O  O21  1  0.59571700  0.37404300  0.39528500  1
  O  O22  1  0.63041300  0.12249800  0.87842500  1
  O  O23  1  0.63041300  0.37750200  0.12157500  1
  O  O24  1  0.46491500  0.36917900  0.93031800  1
  O  O25  1  0.89513800  0.07417800  0.24443900  1
  O  O26  1  0.85786400  0.03647400  0.67996700  1
  O  O27  1  0.14213600  0.53647400  0.67996700  1
  O  O28  1  0.80899400  0.13371700  0.06516300  1
  O  O29  1  0.09571700  0.37404300  0.10471500  1
  O  O30  1  0.19100600  0.86628300  0.93483700  1
  O  O31  1  0.14213600  0.96352600  0.32003300  1
  O  O32  1  0.39513800  0.07417800  0.25556100  1
  O  O33  1  0.13041300  0.37750200  0.37842500  1
  O  O34  1  0.13041300  0.12249800  0.62157500  1
  O  O35  1  0.39513800  0.42582200  0.74443900  1
  O  O36  1  0.69100600  0.86628300  0.56516300  1
  O  O37  1  0.35786400  0.46352600  0.17996700  1
  O  O38  1  0.30899400  0.13371700  0.43483700  1
  O  O39  1  0.69100600  0.63371700  0.43483700  1
  O  O40  1  0.35786400  0.03647400  0.82003300  1
  O  O41  1  0.90428300  0.87404300  0.10471500  1
  O  O42  1  0.86958700  0.87750200  0.37842500  1
  O  O43  1  0.36958700  0.62249800  0.87842500  1
  O  O44  1  0.60486200  0.57417800  0.25556100  1
  O  O45  1  0.09571700  0.12595700  0.89528500  1
  O  O46  1  0.03508500  0.86917900  0.56968200  1
  O  O47  1  0.86958700  0.62249800  0.62157500  1
loop_
_geom_bond_atom_site_label_1
_geom_bond_atom_site_label_2
_geom_bond_distance
_geom_bond_site_symmetry_2
Li0 O6 1.947769 1_555
Li0 O10 1.947769 1_555
Li0 O36 2.083628 1_555
Li0 O39 2.083628 1_555
Li1 O21 1.947769 1_555
Li1 O5 1.947769 1_555
Li1 O1 2.083628 1_555
Li1 O38 2.083628 1_555
Li2 O29 1.947769 1_655
Li2 O45 1.947769 1_654
Li2 O28 2.083628 1_555
Li2 O8 2.083628 1_554
Li3 O41 1.947769 1_455
Li3 O15 1.947769 1_454
Li3 O30 2.083628 1_554
Li3 O20 2.083628 1_555
Co0 O47 1.948855 1_555
Co0 O42 1.948855 1_555
Co0 O16 1.997421 1_655
Co0 O46 1.997421 1_655
Co0 O36 2.013101 1_555
Co0 O39 2.013101 1_555
Co1 O22 1.948855 1_554
Co1 O23 1.948855 1_555
Co1 O24 1.997421 1_554
Co1 O14 1.997421 1_555
Co1 O8 2.013101 1_554
Co1 O28 2.013101 1_555
Co2 O33 1.948855 1_555
Co2 O34 1.948855 1_555
Co2 O17 1.997421 1_455
Co2 O12 1.997421 1_455
Co2 O1 2.013101 1_555
Co2 O38 2.013101 1_555
Co3 O43 1.948855 1_554
Co3 O0 1.948855 1_555
Co3 O9 1.997421 1_554
Co3 O4 1.997421 1_555
Co3 O30 2.013101 1_554
Co3 O20 2.013101 1_555
O0 P13 1.513316 1_565
O1 P10 1.523182 1_555
O2 P6 1.592887 1_555
O2 P12 1.622045 1_555
O3 P5 1.600342 1_555
O3 P1 1.618353 1_555
O4 P11 1.503736 1_555
O5 P3 1.476427 1_545
O6 P10 1.476427 1_555
O7 P4 1.600339 1_655
O7 P9 1.618353 1_555
O8 P1 1.523182 1_555
O9 P14 1.503728 1_555
O10 P7 1.476427 1_565
O11 P13 1.600339 1_565
O11 P0 1.618353 1_565
O12 P8 1.503736 1_555
O13 P14 1.592887 1_555
O13 P3 1.622045 1_555
O14 P13 1.503736 1_555
O15 P1 1.476427 1_555
O16 P4 1.503736 1_555
O17 P15 1.503728 1_555
O18 P4 1.592876 1_555
O18 P2 1.622045 1_555
O19 P15 1.592887 1_555
O19 P1 1.622045 1_555
O20 P2 1.523182 1_555
O21 P9 1.476427 1_555
O22 P14 1.513313 1_545
O23 P11 1.513316 1_555
O24 P5 1.503728 1_555
O25 P8 1.592876 1_555
O25 P0 1.622045 1_555
O26 P6 1.600342 1_645
O26 P3 1.618353 1_545
O27 P15 1.600342 1_455
O27 P10 1.618353 1_555
O28 P0 1.523182 1_555
O29 P2 1.476427 1_555
O30 P12 1.523182 1_555
O31 P8 1.600339 1_465
O31 P7 1.618353 1_565
O32 P13 1.592876 1_555
O32 P7 1.622045 1_555
O33 P4 1.513316 1_555
O34 P6 1.513313 1_545
O35 P5 1.592887 1_555
O35 P10 1.622045 1_555
O36 P3 1.523182 1_555
O37 P11 1.600339 1_555
O37 P2 1.618353 1_555
O38 P7 1.523182 1_555
O39 P9 1.523182 1_555
O40 P14 1.600342 1_545
O40 P12 1.618353 1_545
O41 P0 1.476427 1_565
O42 P8 1.513316 1_565
O43 P5 1.513313 1_555
O44 P11 1.592876 1_555
O44 P9 1.622045 1_555
O45 P12 1.476427 1_545
O46 P6 1.503728 1_555
O47 P15 1.513313 1_555
