# generated using pymatgen
data_Tb5Mg(MoO6)2
_symmetry_space_group_name_H-M   'P 1'
_cell_length_a   6.02547234
_cell_length_b   7.20539102
_cell_length_c   7.44412220
_cell_angle_alpha   105.65438394
_cell_angle_beta   89.79662605
_cell_angle_gamma   115.78009340
_symmetry_Int_Tables_number   1
_chemical_formula_structural   Tb5Mg(MoO6)2
_chemical_formula_sum   'Tb5 Mg1 Mo2 O12'
_cell_volume   277.80632424
_cell_formula_units_Z   1
loop_
 _symmetry_equiv_pos_site_id
 _symmetry_equiv_pos_as_xyz
  1  'x, y, z'
loop_
 _atom_site_type_symbol
 _atom_site_label
 _atom_site_symmetry_multiplicity
 _atom_site_fract_x
 _atom_site_fract_y
 _atom_site_fract_z
 _atom_site_occupancy
  Tb  Tb0  1  0.29419500  0.59039200  0.64767900  1
  Tb  Tb1  1  0.67793300  0.36398000  0.34184700  1
  Tb  Tb2  1  0.30867200  0.61455800  0.19132100  1
  Tb  Tb3  1  0.67305100  0.35937300  0.84236000  1
  Tb  Tb4  1  0.00156500  0.03874500  0.49335300  1
  Mg  Mg0  1  0.86176600  0.71319100  0.68277700  1
  Mo  Mo0  1  0.76039800  0.00284100  0.00123200  1
  Mo  Mo1  1  0.25145800  0.00140200  0.00165300  1
  O  O0  1  0.90647500  0.33556400  0.08841300  1
  O  O1  1  0.43933300  0.35382900  0.09552100  1
  O  O2  1  0.06090100  0.65640700  0.87754100  1
  O  O3  1  0.59954100  0.67062600  0.88107800  1
  O  O4  1  0.07543700  0.67308000  0.44945600  1
  O  O5  1  0.61257100  0.68576900  0.45649300  1
  O  O6  1  0.89047000  0.29826800  0.56823500  1
  O  O7  1  0.39823700  0.30173700  0.56943400  1
  O  O8  1  0.98724300  0.99443100  0.18842100  1
  O  O9  1  0.01501900  0.02152400  0.79905300  1
  O  O10  1  0.49454200  0.97416000  0.19496400  1
  O  O11  1  0.51410900  0.99827000  0.80774000  1
loop_
_geom_bond_atom_site_label_1
_geom_bond_atom_site_label_2
_geom_bond_distance
_geom_bond_site_symmetry_2
Mg0 O9 1.929013 1_665
Mg0 O2 2.113929 1_655
Mg0 O3 2.139138 1_555
Mg0 O5 2.170567 1_555
Mg0 O4 2.189682 1_655
Mo0 O8 1.986154 1_545
Mo0 O11 2.055507 1_544
Mo0 O0 2.066964 1_555
Mo0 O3 2.074130 1_544
Mo0 O10 2.131933 1_545
Mo0 O9 2.133164 1_654
Mo1 O8 2.102967 1_445
Mo1 O11 2.141522 1_544
Mo1 O2 2.153293 1_544
Mo1 O9 2.153649 1_554
Mo1 O10 2.161517 1_545
Mo1 O1 2.183055 1_555
O0 Tb2 2.333559 1_655
O0 Tb1 2.348582 1_555
O0 Tb3 2.400068 1_554
O1 Tb2 2.284136 1_555
O1 Tb1 2.299896 1_555
O1 Tb3 2.347173 1_554
O2 Tb0 2.292486 1_555
O2 Tb3 2.337070 1_455
O2 Tb2 2.927844 1_556
O3 Tb0 2.300747 1_555
O3 Tb3 2.413148 1_555
O3 Tb2 2.903020 1_556
O4 Tb0 2.332633 1_555
O4 Tb1 2.397810 1_455
O4 Tb2 2.429883 1_555
O4 Tb4 2.793082 1_565
O5 Tb0 2.353644 1_555
O5 Tb1 2.446111 1_555
O5 Tb2 2.484893 1_555
O5 Tb4 2.545624 1_665
O6 Tb4 2.186145 1_655
O6 Tb0 2.362724 1_655
O6 Tb1 2.382790 1_555
O6 Tb3 2.464161 1_555
O7 Tb4 2.261667 1_555
O7 Tb0 2.352855 1_555
O7 Tb1 2.375704 1_555
O7 Tb3 2.452056 1_555
O8 Tb4 2.201897 1_665
O9 Tb4 2.315833 1_555
O10 Tb2 2.325258 1_555
O10 Tb1 2.440775 1_565
O11 Tb3 2.286006 1_565
O11 Tb0 2.558673 1_555
