# generated using pymatgen
data_NaMgNiIO6
_symmetry_space_group_name_H-M   'P 1'
_cell_length_a   5.16362058
_cell_length_b   5.17037751
_cell_length_c   5.01197927
_cell_angle_alpha   89.96160885
_cell_angle_beta   90.01876954
_cell_angle_gamma   120.04422988
_symmetry_Int_Tables_number   1
_chemical_formula_structural   NaMgNiIO6
_chemical_formula_sum   'Na1 Mg1 Ni1 I1 O6'
_cell_volume   115.83042346
_cell_formula_units_Z   1
loop_
 _symmetry_equiv_pos_site_id
 _symmetry_equiv_pos_as_xyz
  1  'x, y, z'
loop_
 _atom_site_type_symbol
 _atom_site_label
 _atom_site_symmetry_multiplicity
 _atom_site_fract_x
 _atom_site_fract_y
 _atom_site_fract_z
 _atom_site_occupancy
  Na  Na0  1  0.99842000  0.99920900  0.00000000  1
  Mg  Mg0  1  0.32976700  0.66488400  0.00000300  1
  Ni  Ni0  1  0.33358300  0.66680900  0.49999300  1
  I  I0  1  0.66609500  0.33303000  0.49999700  1
  O  O0  1  0.98553100  0.36611000  0.72364000  1
  O  O1  1  0.63327000  0.01449700  0.27617800  1
  O  O2  1  0.98553300  0.61942000  0.27636100  1
  O  O3  1  0.37976700  0.36629200  0.27619400  1
  O  O4  1  0.63326700  0.61877700  0.72383000  1
  O  O5  1  0.37976700  0.01347300  0.72380500  1
loop_
_geom_bond_atom_site_label_1
_geom_bond_atom_site_label_2
_geom_bond_distance
_geom_bond_site_symmetry_2
Na0 O4 2.372397 1_554
Na0 O1 2.372434 1_565
Na0 O0 2.375810 1_564
Na0 O2 2.375811 1_555
Na0 O3 2.378100 1_665
Na0 O5 2.378106 1_664
Mg0 O2 2.171643 1_455
Mg0 O0 2.171673 1_454
Mg0 O3 2.182267 1_555
Mg0 O5 2.182269 1_564
Mg0 O4 2.191965 1_554
Mg0 O1 2.191986 1_565
Ni0 O1 2.024231 1_565
Ni0 O4 2.024396 1_555
Ni0 O5 2.025418 1_565
Ni0 O3 2.025544 1_555
Ni0 O2 2.025919 1_455
Ni0 O0 2.025997 1_455
I0 O1 1.929336 1_555
I0 O0 1.929478 1_555
I0 O2 1.929491 1_555
I0 O4 1.929550 1_555
I0 O5 1.930437 1_555
I0 O3 1.930536 1_555
