# generated using pymatgen
data_Na3ScTaSi2PO12
_symmetry_space_group_name_H-M   'P 1'
_cell_length_a   15.75845649
_cell_length_b   27.22440287
_cell_length_c   9.02813297
_cell_angle_alpha   90.00000000
_cell_angle_beta   124.89907772
_cell_angle_gamma   90.00000000
_symmetry_Int_Tables_number   1
_chemical_formula_structural   Na3ScTaSi2PO12
_chemical_formula_sum   'Na36 Sc12 Ta12 Si24 P12 O144'
_cell_volume   3176.64838194
_cell_formula_units_Z   12
loop_
 _symmetry_equiv_pos_site_id
 _symmetry_equiv_pos_as_xyz
  1  'x, y, z'
loop_
 _atom_site_type_symbol
 _atom_site_label
 _atom_site_symmetry_multiplicity
 _atom_site_fract_x
 _atom_site_fract_y
 _atom_site_fract_z
 _atom_site_occupancy
  Na  Na0  1  0.25418000  0.25460015  0.00647545  1
  Na  Na1  1  0.24658264  0.58740393  0.01648357  1
  Na  Na2  1  0.24905737  0.91821780  0.01789761  1
  Na  Na3  1  0.75418000  0.24539985  0.50647545  1
  Na  Na4  1  0.74905737  0.58178220  0.51789761  1
  Na  Na5  1  0.74658264  0.91259607  0.51648357  1
  Na  Na6  1  0.74658264  0.08740393  0.01648357  1
  Na  Na7  1  0.74905737  0.41821780  0.01789761  1
  Na  Na8  1  0.75418000  0.75460015  0.00647545  1
  Na  Na9  1  0.24905737  0.08178220  0.51789761  1
  Na  Na10  1  0.24658264  0.41259607  0.51648357  1
  Na  Na11  1  0.25418000  0.74539985  0.50647545  1
  Na  Na12  1  0.49405530  0.03403593  0.75252899  1
  Na  Na13  1  0.49667480  0.36786878  0.75872234  1
  Na  Na14  1  0.49402768  0.70048516  0.74838927  1
  Na  Na15  1  0.49402768  0.29951484  0.24838927  1
  Na  Na16  1  0.49667480  0.63213122  0.25872234  1
  Na  Na17  1  0.49405530  0.96596407  0.25252899  1
  Na  Na18  1  0.99402768  0.20048516  0.74838927  1
  Na  Na19  1  0.99405530  0.53403593  0.75252899  1
  Na  Na20  1  0.99667480  0.86786878  0.75872234  1
  Na  Na21  1  0.99667480  0.13213122  0.25872234  1
  Na  Na22  1  0.99405530  0.46596407  0.25252899  1
  Na  Na23  1  0.99402768  0.79951484  0.24838927  1
  Na  Na24  1  0.81658508  0.64471253  0.20219477  1
  Na  Na25  1  0.81667646  0.97881778  0.20916246  1
  Na  Na26  1  0.19504666  0.30726951  0.28826238  1
  Na  Na27  1  0.19504666  0.69273049  0.78826238  1
  Na  Na28  1  0.81667646  0.02118222  0.70916246  1
  Na  Na29  1  0.81658508  0.35528747  0.70219477  1
  Na  Na30  1  0.31658508  0.14471253  0.20219477  1
  Na  Na31  1  0.31667646  0.47881778  0.20916246  1
  Na  Na32  1  0.69504666  0.80726951  0.28826238  1
  Na  Na33  1  0.69504666  0.19273049  0.78826238  1
  Na  Na34  1  0.31667646  0.52118222  0.70916246  1
  Na  Na35  1  0.31658508  0.85528747  0.70219477  1
  Sc  Sc0  1  0.89802018  0.25038969  0.94102035  1
  Sc  Sc1  1  0.89255703  0.58289099  0.93265946  1
  Sc  Sc2  1  0.89345675  0.91437305  0.93493663  1
  Sc  Sc3  1  0.89345675  0.08562695  0.43493663  1
  Sc  Sc4  1  0.89255703  0.41710901  0.43265946  1
  Sc  Sc5  1  0.89802018  0.74961031  0.44102035  1
  Sc  Sc6  1  0.39255703  0.08289099  0.93265946  1
  Sc  Sc7  1  0.39345675  0.41437305  0.93493663  1
  Sc  Sc8  1  0.39802018  0.75038969  0.94102035  1
  Sc  Sc9  1  0.39802018  0.24961031  0.44102035  1
  Sc  Sc10  1  0.39345675  0.58562695  0.43493663  1
  Sc  Sc11  1  0.39255703  0.91710901  0.43265946  1
  Ta  Ta0  1  0.10684886  0.24802349  0.56618082  1
  Ta  Ta1  1  0.10442412  0.58267048  0.56520403  1
  Ta  Ta2  1  0.10584998  0.91711301  0.56527788  1
  Ta  Ta3  1  0.10584998  0.08288699  0.06527788  1
  Ta  Ta4  1  0.10442412  0.41732952  0.06520403  1
  Ta  Ta5  1  0.10684886  0.75197651  0.06618082  1
  Ta  Ta6  1  0.60442412  0.08267048  0.56520403  1
  Ta  Ta7  1  0.60584998  0.41711301  0.56527788  1
  Ta  Ta8  1  0.60684886  0.74802349  0.56618082  1
  Ta  Ta9  1  0.60684886  0.25197651  0.06618082  1
  Ta  Ta10  1  0.60584998  0.58288699  0.06527788  1
  Ta  Ta11  1  0.60442412  0.91732952  0.06520403  1
  Si  Si0  1  0.34967259  0.29646589  0.74767379  1
  Si  Si1  1  0.35226001  0.63040675  0.75569819  1
  Si  Si2  1  0.35116858  0.96399542  0.75214388  1
  Si  Si3  1  0.64481421  0.30099158  0.73984871  1
  Si  Si4  1  0.64456232  0.63230089  0.73897807  1
  Si  Si5  1  0.64477403  0.96641653  0.73904863  1
  Si  Si6  1  0.64477403  0.03358347  0.23904863  1
  Si  Si7  1  0.64456232  0.36769911  0.23897807  1
  Si  Si8  1  0.64481421  0.69900842  0.23984871  1
  Si  Si9  1  0.35116858  0.03600458  0.25214388  1
  Si  Si10  1  0.35226001  0.36959325  0.25569819  1
  Si  Si11  1  0.34967259  0.70353411  0.24767379  1
  Si  Si12  1  0.85226001  0.13040675  0.75569819  1
  Si  Si13  1  0.85116858  0.46399542  0.75214388  1
  Si  Si14  1  0.84967259  0.79646589  0.74767379  1
  Si  Si15  1  0.14456232  0.13230089  0.73897807  1
  Si  Si16  1  0.14477403  0.46641653  0.73904863  1
  Si  Si17  1  0.14481421  0.80099158  0.73984871  1
  Si  Si18  1  0.14481421  0.19900842  0.23984871  1
  Si  Si19  1  0.14477403  0.53358347  0.23904863  1
  Si  Si20  1  0.14456232  0.86769911  0.23897807  1
  Si  Si21  1  0.84967259  0.20353411  0.24767379  1
  Si  Si22  1  0.85116858  0.53600458  0.25214388  1
  Si  Si23  1  0.85226001  0.86959325  0.25569819  1
  P  P0  1  0.00669286  0.32001899  0.75084947  1
  P  P1  1  0.00131138  0.65328743  0.74672487  1
  P  P2  1  0.00407119  0.98684118  0.74545270  1
  P  P3  1  0.00407119  0.01315882  0.24545270  1
  P  P4  1  0.00131138  0.34671257  0.24672487  1
  P  P5  1  0.00669286  0.67998101  0.25084947  1
  P  P6  1  0.50131138  0.15328743  0.74672487  1
  P  P7  1  0.50407119  0.48684118  0.74545270  1
  P  P8  1  0.50669286  0.82001899  0.75084947  1
  P  P9  1  0.50669286  0.17998101  0.25084947  1
  P  P10  1  0.50407119  0.51315882  0.24545270  1
  P  P11  1  0.50131138  0.84671257  0.24672487  1
  O  O0  1  0.14370241  0.19428409  0.74193657  1
  O  O1  1  0.14548162  0.52877068  0.74589510  1
  O  O2  1  0.14527529  0.86203682  0.74307794  1
  O  O3  1  0.84286271  0.18989361  0.75506692  1
  O  O4  1  0.84707201  0.52283416  0.75498131  1
  O  O5  1  0.84445738  0.85616215  0.75296287  1
  O  O6  1  0.84445738  0.14383785  0.25296287  1
  O  O7  1  0.84707201  0.47716584  0.25498131  1
  O  O8  1  0.84286271  0.81010639  0.25506692  1
  O  O9  1  0.14527529  0.13796318  0.24307794  1
  O  O10  1  0.14548162  0.47122932  0.24589510  1
  O  O11  1  0.14370241  0.80571591  0.24193657  1
  O  O12  1  0.64548162  0.02877068  0.74589510  1
  O  O13  1  0.64527529  0.36203682  0.74307794  1
  O  O14  1  0.64370241  0.69428409  0.74193657  1
  O  O15  1  0.34707201  0.02283416  0.75498131  1
  O  O16  1  0.34445738  0.35616215  0.75296287  1
  O  O17  1  0.34286271  0.68989361  0.75506692  1
  O  O18  1  0.34286271  0.31010639  0.25506692  1
  O  O19  1  0.34445738  0.64383785  0.25296287  1
  O  O20  1  0.34707201  0.97716584  0.25498131  1
  O  O21  1  0.64370241  0.30571591  0.24193657  1
  O  O22  1  0.64527529  0.63796318  0.24307794  1
  O  O23  1  0.64548162  0.97122932  0.24589510  1
  O  O24  1  0.43964822  0.18218422  0.57111142  1
  O  O25  1  0.43833598  0.51707952  0.57361636  1
  O  O26  1  0.44443397  0.85261159  0.58885096  1
  O  O27  1  0.56471446  0.18929180  0.91134218  1
  O  O28  1  0.56400481  0.52247802  0.91343116  1
  O  O29  1  0.57114616  0.85274136  0.92864806  1
  O  O30  1  0.57114616  0.14725864  0.42864806  1
  O  O31  1  0.56400481  0.47752198  0.41343116  1
  O  O32  1  0.56471446  0.81070820  0.41134218  1
  O  O33  1  0.44443397  0.14738841  0.08885096  1
  O  O34  1  0.43833598  0.48292048  0.07361636  1
  O  O35  1  0.43964822  0.81781578  0.07111142  1
  O  O36  1  0.93833598  0.01707952  0.57361636  1
  O  O37  1  0.94443397  0.35261159  0.58885096  1
  O  O38  1  0.93964822  0.68218422  0.57111142  1
  O  O39  1  0.06400481  0.02247802  0.91343116  1
  O  O40  1  0.07114616  0.35274136  0.92864806  1
  O  O41  1  0.06471446  0.68929180  0.91134218  1
  O  O42  1  0.06471446  0.31070820  0.41134218  1
  O  O43  1  0.07114616  0.64725864  0.42864806  1
  O  O44  1  0.06400481  0.97752198  0.41343116  1
  O  O45  1  0.93964822  0.31781578  0.07111142  1
  O  O46  1  0.94443397  0.64738841  0.08885096  1
  O  O47  1  0.93833598  0.98292048  0.07361636  1
  O  O48  1  0.25030351  0.27173011  0.73603304  1
  O  O49  1  0.25319868  0.60551452  0.74784621  1
  O  O50  1  0.25341573  0.93695151  0.74193473  1
  O  O51  1  0.74616267  0.28133101  0.75338202  1
  O  O52  1  0.74636284  0.61298320  0.75967745  1
  O  O53  1  0.74905257  0.95130011  0.75596372  1
  O  O54  1  0.74905257  0.04869989  0.25596372  1
  O  O55  1  0.74636284  0.38701680  0.25967745  1
  O  O56  1  0.74616267  0.71866899  0.25338202  1
  O  O57  1  0.25341573  0.06304849  0.24193473  1
  O  O58  1  0.25319868  0.39448548  0.24784621  1
  O  O59  1  0.25030351  0.72826989  0.23603304  1
  O  O60  1  0.75319868  0.10551452  0.74784621  1
  O  O61  1  0.75341573  0.43695151  0.74193473  1
  O  O62  1  0.75030351  0.77173011  0.73603304  1
  O  O63  1  0.24636284  0.11298320  0.75967745  1
  O  O64  1  0.24905257  0.45130011  0.75596372  1
  O  O65  1  0.24616267  0.78133101  0.75338202  1
  O  O66  1  0.24616267  0.21866899  0.25338202  1
  O  O67  1  0.24905257  0.54869989  0.25596372  1
  O  O68  1  0.24636284  0.88701680  0.25967745  1
  O  O69  1  0.75030351  0.22826989  0.23603304  1
  O  O70  1  0.75341573  0.56304849  0.24193473  1
  O  O71  1  0.75319868  0.89448548  0.24784621  1
  O  O72  1  0.34476853  0.28252677  0.56870021  1
  O  O73  1  0.35094085  0.61179798  0.58628148  1
  O  O74  1  0.35432206  0.94429704  0.58879244  1
  O  O75  1  0.63762182  0.28473378  0.91287995  1
  O  O76  1  0.63894370  0.61864825  0.91886515  1
  O  O77  1  0.64216743  0.95106646  0.92132420  1
  O  O78  1  0.64216743  0.04893354  0.42132420  1
  O  O79  1  0.63894370  0.38135175  0.41886515  1
  O  O80  1  0.63762182  0.71526622  0.41287995  1
  O  O81  1  0.35432206  0.05570296  0.08879244  1
  O  O82  1  0.35094085  0.38820202  0.08628148  1
  O  O83  1  0.34476853  0.71747323  0.06870021  1
  O  O84  1  0.85094085  0.11179798  0.58628148  1
  O  O85  1  0.85432206  0.44429704  0.58879244  1
  O  O86  1  0.84476853  0.78252677  0.56870021  1
  O  O87  1  0.13894370  0.11864825  0.91886515  1
  O  O88  1  0.14216743  0.45106646  0.92132420  1
  O  O89  1  0.13762182  0.78473378  0.91287995  1
  O  O90  1  0.13762182  0.21526622  0.41287995  1
  O  O91  1  0.14216743  0.54893354  0.42132420  1
  O  O92  1  0.13894370  0.88135175  0.41886515  1
  O  O93  1  0.84476853  0.21747323  0.06870021  1
  O  O94  1  0.85432206  0.55570296  0.08879244  1
  O  O95  1  0.85094085  0.88820202  0.08628148  1
  O  O96  1  0.46030463  0.27440328  0.92896353  1
  O  O97  1  0.46092400  0.60762127  0.94047538  1
  O  O98  1  0.46172919  0.94001288  0.93906975  1
  O  O99  1  0.54095601  0.28054802  0.55921795  1
  O  O100  1  0.53762956  0.61530105  0.55805992  1
  O  O101  1  0.54011266  0.94859413  0.55905383  1
  O  O102  1  0.54011266  0.05140587  0.05905383  1
  O  O103  1  0.53762956  0.38469895  0.05805992  1
  O  O104  1  0.54095601  0.71945198  0.05921795  1
  O  O105  1  0.46172919  0.05998712  0.43906975  1
  O  O106  1  0.46092400  0.39237873  0.44047538  1
  O  O107  1  0.46030463  0.72559672  0.42896353  1
  O  O108  1  0.96092400  0.10762127  0.94047538  1
  O  O109  1  0.96172919  0.44001288  0.93906975  1
  O  O110  1  0.96030463  0.77440328  0.92896353  1
  O  O111  1  0.03762956  0.11530105  0.55805992  1
  O  O112  1  0.04011266  0.44859413  0.55905383  1
  O  O113  1  0.04095601  0.78054802  0.55921795  1
  O  O114  1  0.04095601  0.21945198  0.05921795  1
  O  O115  1  0.04011266  0.55140587  0.05905383  1
  O  O116  1  0.03762956  0.88469895  0.05805992  1
  O  O117  1  0.96030463  0.22559672  0.42896353  1
  O  O118  1  0.96172919  0.55998712  0.43906975  1
  O  O119  1  0.96092400  0.89237873  0.44047538  1
  O  O120  1  0.08571016  0.28681127  0.74678373  1
  O  O121  1  0.08893411  0.62347718  0.74841748  1
  O  O122  1  0.08631956  0.95522670  0.74574829  1
  O  O123  1  0.93086125  0.28607253  0.76034380  1
  O  O124  1  0.93365829  0.61637399  0.75980393  1
  O  O125  1  0.93109509  0.95272267  0.75964664  1
  O  O126  1  0.93109509  0.04727733  0.25964664  1
  O  O127  1  0.93365829  0.38362601  0.25980393  1
  O  O128  1  0.93086125  0.71392747  0.26034380  1
  O  O129  1  0.08631956  0.04477330  0.24574829  1
  O  O130  1  0.08893411  0.37652282  0.24841748  1
  O  O131  1  0.08571016  0.71318873  0.24678373  1
  O  O132  1  0.58893411  0.12347718  0.74841748  1
  O  O133  1  0.58631956  0.45522670  0.74574829  1
  O  O134  1  0.58571016  0.78681127  0.74678373  1
  O  O135  1  0.43365829  0.11637399  0.75980393  1
  O  O136  1  0.43109509  0.45272267  0.75964664  1
  O  O137  1  0.43086125  0.78607253  0.76034380  1
  O  O138  1  0.43086125  0.21392747  0.26034380  1
  O  O139  1  0.43109509  0.54727733  0.25964664  1
  O  O140  1  0.43365829  0.88362601  0.25980393  1
  O  O141  1  0.58571016  0.21318873  0.24678373  1
  O  O142  1  0.58631956  0.54477330  0.24574829  1
  O  O143  1  0.58893411  0.87652282  0.24841748  1
loop_
_geom_bond_atom_site_label_1
_geom_bond_atom_site_label_2
_geom_bond_distance
_geom_bond_site_symmetry_2
Na0 O18 2.384229 1_555
Na0 O48 2.451920 1_554
Na0 O120 2.488303 1_554
Na0 O66 2.502801 1_555
Na0 O0 2.583312 1_554
Na0 O138 2.632325 1_555
Na1 O19 2.351485 1_555
Na1 O67 2.385370 1_555
Na1 O121 2.472559 1_554
Na1 O49 2.534828 1_554
Na1 O1 2.569161 1_554
Na1 O139 2.676392 1_555
Na2 O68 2.365184 1_555
Na2 O20 2.399914 1_555
Na2 O122 2.533508 1_554
Na2 O2 2.554765 1_554
Na2 O50 2.582219 1_554
Na2 O140 2.617107 1_555
Na3 O3 2.384229 1_555
Na3 O69 2.451920 1_555
Na3 O141 2.488303 1_555
Na3 O51 2.502801 1_555
Na3 O21 2.583312 1_555
Na3 O123 2.632325 1_555
Na4 O52 2.365184 1_555
Na4 O4 2.399914 1_555
Na4 O142 2.533508 1_555
Na4 O22 2.554765 1_555
Na4 O70 2.582219 1_555
Na4 O124 2.617107 1_555
Na5 O5 2.351485 1_555
Na5 O53 2.385370 1_555
Na5 O143 2.472559 1_555
Na5 O71 2.534828 1_555
Na5 O23 2.569161 1_555
Na5 O125 2.676392 1_555
Na6 O6 2.351485 1_555
Na6 O54 2.385370 1_555
Na6 O132 2.472559 1_554
Na6 O60 2.534828 1_554
Na6 O12 2.569161 1_554
Na6 O126 2.676392 1_555
Na7 O55 2.365184 1_555
Na7 O7 2.399914 1_555
Na7 O133 2.533508 1_554
Na7 O13 2.554765 1_554
Na7 O61 2.582219 1_554
Na7 O127 2.617107 1_555
Na8 O8 2.384229 1_555
Na8 O62 2.451920 1_554
Na8 O134 2.488303 1_554
Na8 O56 2.502801 1_555
Na8 O14 2.583312 1_554
Na8 O128 2.632325 1_555
Na9 O63 2.365184 1_555
Na9 O15 2.399914 1_555
Na9 O129 2.533508 1_555
Na9 O9 2.554765 1_555
Na9 O57 2.582219 1_555
Na9 O135 2.617107 1_555
Na10 O16 2.351485 1_555
Na10 O64 2.385370 1_555
Na10 O130 2.472559 1_555
Na10 O58 2.534828 1_555
Na10 O10 2.569161 1_555
Na10 O136 2.676392 1_555
Na11 O17 2.384229 1_555
Na11 O59 2.451920 1_555
Na11 O131 2.488303 1_555
Na11 O65 2.502801 1_555
Na11 O11 2.583312 1_555
Na11 O137 2.632325 1_555
Na12 O15 2.348849 1_555
Na12 O12 2.425249 1_555
Na12 O135 2.450814 1_555
Na12 O102 2.471907 1_556
Na12 O105 2.667901 1_555
Na13 O16 2.390685 1_555
Na13 O13 2.430482 1_555
Na13 O103 2.435982 1_556
Na13 O136 2.532681 1_555
Na13 O106 2.676860 1_555
Na13 O133 2.802647 1_555
Na13 O75 2.907857 1_555
Na14 O14 2.398399 1_555
Na14 O17 2.434263 1_555
Na14 O104 2.512701 1_556
Na14 O137 2.560198 1_555
Na14 O107 2.704177 1_555
Na14 O134 2.763128 1_555
Na14 O76 2.919909 1_555
Na15 O21 2.398399 1_555
Na15 O18 2.434263 1_555
Na15 O99 2.512701 1_555
Na15 O138 2.560198 1_555
Na15 O96 2.704177 1_554
Na15 O141 2.763128 1_555
Na15 O79 2.919909 1_555
Na16 O19 2.390685 1_555
Na16 O22 2.430482 1_555
Na16 O100 2.435982 1_555
Na16 O139 2.532681 1_555
Na16 O97 2.676860 1_554
Na16 O142 2.802647 1_555
Na16 O80 2.907857 1_555
Na17 O20 2.348849 1_555
Na17 O23 2.425249 1_555
Na17 O140 2.450814 1_555
Na17 O101 2.471907 1_555
Na17 O98 2.667901 1_554
Na18 O0 2.398399 1_655
Na18 O3 2.434263 1_555
Na18 O114 2.512701 1_656
Na18 O123 2.560198 1_555
Na18 O117 2.704177 1_555
Na18 O120 2.763128 1_655
Na18 O87 2.919909 1_655
Na19 O4 2.348849 1_555
Na19 O1 2.425249 1_655
Na19 O124 2.450814 1_555
Na19 O115 2.471907 1_656
Na19 O118 2.667901 1_555
Na20 O5 2.390685 1_555
Na20 O2 2.430482 1_655
Na20 O116 2.435982 1_656
Na20 O125 2.532681 1_555
Na20 O119 2.676860 1_555
Na20 O122 2.802647 1_655
Na20 O89 2.907857 1_655
Na21 O6 2.390685 1_555
Na21 O9 2.430482 1_655
Na21 O111 2.435982 1_655
Na21 O126 2.532681 1_555
Na21 O108 2.676860 1_554
Na21 O129 2.802647 1_655
Na21 O90 2.907857 1_655
Na22 O7 2.348849 1_555
Na22 O10 2.425249 1_655
Na22 O127 2.450814 1_555
Na22 O112 2.471907 1_655
Na22 O109 2.667901 1_554
Na23 O11 2.398399 1_655
Na23 O8 2.434263 1_555
Na23 O113 2.512701 1_655
Na23 O128 2.560198 1_555
Na23 O110 2.704177 1_554
Na23 O131 2.763128 1_655
Na23 O92 2.919909 1_655
Na24 O128 2.446934 1_555
Na24 O56 2.466940 1_555
Na24 O70 2.543851 1_555
Na24 O76 2.586376 1_554
Na24 O46 2.733215 1_555
Na24 O94 2.823217 1_555
Na24 O38 2.916120 1_555
Na24 O22 2.932213 1_555
Na25 O54 2.334280 1_565
Na25 O126 2.447867 1_565
Na25 O77 2.590173 1_554
Na25 O71 2.606431 1_555
Na25 O47 2.805363 1_555
Na25 O95 2.879863 1_555
Na25 O36 2.892875 1_565
Na25 O23 2.907631 1_555
Na26 O72 2.365432 1_555
Na26 O130 2.406639 1_555
Na26 O18 2.514054 1_555
Na26 O66 2.618486 1_555
Na26 O58 2.644485 1_555
Na26 O42 2.841328 1_555
Na26 O40 2.938007 1_554
Na27 O83 2.365432 1_556
Na27 O121 2.406639 1_555
Na27 O17 2.514054 1_555
Na27 O65 2.618486 1_555
Na27 O49 2.644485 1_555
Na27 O41 2.841328 1_555
Na27 O43 2.938007 1_555
Na28 O53 2.334280 1_545
Na28 O125 2.447867 1_545
Na28 O78 2.590173 1_555
Na28 O60 2.606431 1_555
Na28 O36 2.805363 1_555
Na28 O84 2.879863 1_555
Na28 O47 2.892875 1_546
Na28 O12 2.907631 1_555
Na29 O123 2.446934 1_555
Na29 O51 2.466940 1_555
Na29 O61 2.543851 1_555
Na29 O79 2.586376 1_555
Na29 O37 2.733215 1_555
Na29 O85 2.823217 1_555
Na29 O45 2.916120 1_556
Na29 O13 2.932213 1_555
Na30 O138 2.446934 1_555
Na30 O66 2.466940 1_555
Na30 O57 2.543851 1_555
Na30 O87 2.586376 1_554
Na30 O33 2.733215 1_555
Na30 O81 2.823217 1_555
Na30 O24 2.916120 1_555
Na30 O9 2.932213 1_555
Na31 O67 2.334280 1_555
Na31 O139 2.447867 1_555
Na31 O88 2.590173 1_554
Na31 O58 2.606431 1_555
Na31 O34 2.805363 1_555
Na31 O82 2.879863 1_555
Na31 O25 2.892875 1_555
Na31 O10 2.907631 1_555
Na32 O86 2.365432 1_555
Na32 O143 2.406639 1_555
Na32 O8 2.514054 1_555
Na32 O56 2.618486 1_555
Na32 O71 2.644485 1_555
Na32 O32 2.841328 1_555
Na32 O29 2.938007 1_554
Na33 O93 2.365432 1_556
Na33 O132 2.406639 1_555
Na33 O3 2.514054 1_555
Na33 O51 2.618486 1_555
Na33 O60 2.644485 1_555
Na33 O27 2.841328 1_555
Na33 O30 2.938007 1_555
Na34 O64 2.334280 1_555
Na34 O136 2.447867 1_555
Na34 O91 2.590173 1_555
Na34 O49 2.606431 1_555
Na34 O25 2.805363 1_555
Na34 O73 2.879863 1_555
Na34 O34 2.892875 1_556
Na34 O1 2.907631 1_555
Na35 O137 2.446934 1_555
Na35 O65 2.466940 1_555
Na35 O50 2.543851 1_555
Na35 O92 2.586376 1_555
Na35 O26 2.733215 1_555
Na35 O74 2.823217 1_555
Na35 O35 2.916120 1_556
Na35 O2 2.932213 1_555
O0 Si15 1.687844 1_555
O0 Ta0 1.985201 1_555
O1 Si16 1.698484 1_555
O1 Ta1 2.006308 1_555
O2 Si17 1.662119 1_555
O2 Ta2 2.017364 1_555
O3 Si12 1.625964 1_555
O3 Sc0 2.148648 1_555
O4 Si13 1.603944 1_555
O4 Sc1 2.108203 1_555
O5 Si14 1.629351 1_555
O5 Sc2 2.086905 1_555
O6 Si21 1.629351 1_555
O6 Sc3 2.086905 1_555
O7 Si22 1.603944 1_555
O7 Sc4 2.108203 1_555
O8 Si23 1.625964 1_555
O8 Sc5 2.148648 1_555
O9 Si18 1.662119 1_555
O9 Ta3 2.017364 1_555
O10 Si19 1.698484 1_555
O10 Ta4 2.006308 1_555
O11 Si20 1.687844 1_555
O11 Ta5 1.985201 1_555
O12 Si5 1.698484 1_545
O12 Ta6 2.006308 1_555
O13 Si3 1.662119 1_555
O13 Ta7 2.017364 1_555
O14 Si4 1.687844 1_555
O14 Ta8 1.985201 1_555
O15 Si2 1.603944 1_545
O15 Sc6 2.108203 1_555
O16 Si0 1.629351 1_555
O16 Sc7 2.086905 1_555
O17 Si1 1.625964 1_555
O17 Sc8 2.148648 1_555
O18 Si10 1.625964 1_555
O18 Sc9 2.148648 1_555
O19 Si11 1.629351 1_555
O19 Sc10 2.086905 1_555
O20 Si9 1.603944 1_565
O20 Sc11 2.108203 1_555
O21 Si7 1.687844 1_555
O21 Ta9 1.985201 1_555
O22 Si8 1.662119 1_555
O22 Ta10 2.017364 1_555
O23 Si6 1.698484 1_565
O23 Ta11 2.006308 1_555
O24 P6 1.521163 1_555
O24 Sc9 2.073086 1_555
O25 P7 1.522695 1_555
O25 Sc10 2.130043 1_555
O26 P8 1.499003 1_555
O26 Sc11 2.102584 1_555
O27 P6 1.571206 1_555
O27 Ta9 2.060400 1_556
O28 P7 1.579307 1_555
O28 Ta10 1.996115 1_556
O29 P8 1.592572 1_555
O29 Ta11 2.036420 1_556
O30 P9 1.592572 1_555
O30 Ta6 2.036420 1_555
O31 P10 1.579307 1_555
O31 Ta7 1.996115 1_555
O32 P11 1.571206 1_555
O32 Ta8 2.060400 1_555
O33 P9 1.499003 1_555
O33 Sc6 2.102584 1_554
O34 P10 1.522695 1_555
O34 Sc7 2.130043 1_554
O35 P11 1.521163 1_555
O35 Sc8 2.073086 1_554
O36 P2 1.522695 1_645
O36 Sc3 2.130043 1_555
O37 P0 1.499003 1_655
O37 Sc4 2.102584 1_555
O38 P1 1.521163 1_655
O38 Sc5 2.073086 1_555
O39 P2 1.579307 1_545
O39 Ta3 1.996115 1_556
O40 P0 1.592572 1_555
O40 Ta4 2.036420 1_556
O41 P1 1.571206 1_555
O41 Ta5 2.060400 1_556
O42 P4 1.571206 1_555
O42 Ta0 2.060400 1_555
O43 P5 1.592572 1_555
O43 Ta1 2.036420 1_555
O44 P3 1.579307 1_565
O44 Ta2 1.996115 1_555
O45 P4 1.521163 1_655
O45 Sc0 2.073086 1_554
O46 P5 1.499003 1_655
O46 Sc1 2.102584 1_554
O47 P3 1.522695 1_665
O47 Sc2 2.130043 1_554
O48 Si0 1.651750 1_555
O48 Ta0 1.977820 1_555
O49 Si1 1.665693 1_555
O49 Ta1 2.044179 1_555
O50 Si2 1.661637 1_555
O50 Ta2 1.999769 1_555
O51 Si3 1.621372 1_555
O51 Sc0 2.160376 1_555
O52 Si4 1.594360 1_555
O52 Sc1 2.073803 1_555
O53 Si5 1.614269 1_555
O53 Sc2 2.142993 1_555
O54 Si6 1.614269 1_555
O54 Sc3 2.142993 1_555
O55 Si7 1.594360 1_555
O55 Sc4 2.073803 1_555
O56 Si8 1.621372 1_555
O56 Sc5 2.160376 1_555
O57 Si9 1.661637 1_555
O57 Ta3 1.999769 1_555
O58 Si10 1.665693 1_555
O58 Ta4 2.044179 1_555
O59 Si11 1.651750 1_555
O59 Ta5 1.977820 1_555
O60 Si12 1.665693 1_555
O60 Ta6 2.044179 1_555
O61 Si13 1.661637 1_555
O61 Ta7 1.999769 1_555
O62 Si14 1.651750 1_555
O62 Ta8 1.977820 1_555
O63 Si15 1.594360 1_555
O63 Sc6 2.073803 1_555
O64 Si16 1.614269 1_555
O64 Sc7 2.142993 1_555
O65 Si17 1.621372 1_555
O65 Sc8 2.160376 1_555
O66 Si18 1.621372 1_555
O66 Sc9 2.160376 1_555
O67 Si19 1.614269 1_555
O67 Sc10 2.142993 1_555
O68 Si20 1.594360 1_555
O68 Sc11 2.073803 1_555
O69 Si21 1.651750 1_555
O69 Ta9 1.977820 1_555
O70 Si22 1.661637 1_555
O70 Ta10 1.999769 1_555
O71 Si23 1.665693 1_555
O71 Ta11 2.044179 1_555
O72 Si0 1.617992 1_555
O72 Sc9 1.985662 1_555
O73 Si1 1.600040 1_555
O73 Sc10 1.967479 1_555
O74 Si2 1.596507 1_555
O74 Sc11 1.967150 1_555
O75 Si3 1.688685 1_555
O75 Ta9 1.927164 1_556
O76 Si4 1.716988 1_555
O76 Ta10 1.938004 1_556
O77 Si5 1.720958 1_555
O77 Ta11 1.941316 1_556
O78 Si6 1.720958 1_555
O78 Ta6 1.941316 1_555
O79 Si7 1.716988 1_555
O79 Ta7 1.938004 1_555
O80 Si8 1.688685 1_555
O80 Ta8 1.927164 1_555
O81 Si9 1.596507 1_555
O81 Sc6 1.967150 1_554
O82 Si10 1.600040 1_555
O82 Sc7 1.967479 1_554
O83 Si11 1.617992 1_555
O83 Sc8 1.985662 1_554
O84 Si12 1.600040 1_555
O84 Sc3 1.967479 1_555
O85 Si13 1.596507 1_555
O85 Sc4 1.967150 1_555
O86 Si14 1.617992 1_555
O86 Sc5 1.985662 1_555
O87 Si15 1.716988 1_555
O87 Ta3 1.938004 1_556
O88 Si16 1.720958 1_555
O88 Ta4 1.941316 1_556
O89 Si17 1.688685 1_555
O89 Ta5 1.927164 1_556
O90 Si18 1.688685 1_555
O90 Ta0 1.927164 1_555
O91 Si19 1.720958 1_555
O91 Ta1 1.941316 1_555
O92 Si20 1.716988 1_555
O92 Ta2 1.938004 1_555
O93 Si21 1.617992 1_555
O93 Sc0 1.985662 1_554
O94 Si22 1.596507 1_555
O94 Sc1 1.967150 1_554
O95 Si23 1.600040 1_555
O95 Sc2 1.967479 1_554
O96 Si0 1.677475 1_555
O96 Ta9 1.991691 1_556
O97 Si1 1.682623 1_555
O97 Ta10 1.998568 1_556
O98 Si2 1.716199 1_555
O98 Ta11 1.950507 1_556
O99 Si3 1.610506 1_555
O99 Sc9 2.042372 1_555
O100 Si4 1.603795 1_555
O100 Sc10 2.039654 1_555
O101 Si5 1.590442 1_555
O101 Sc11 2.099403 1_555
O102 Si6 1.590442 1_555
O102 Sc6 2.099403 1_554
O103 Si7 1.603795 1_555
O103 Sc7 2.039654 1_554
O104 Si8 1.610506 1_555
O104 Sc8 2.042372 1_554
O105 Si9 1.716199 1_555
O105 Ta6 1.950507 1_555
O106 Si10 1.682623 1_555
O106 Ta7 1.998568 1_555
O107 Si11 1.677475 1_555
O107 Ta8 1.991691 1_555
O108 Si12 1.682623 1_555
O108 Ta3 1.998568 1_656
O109 Si13 1.716199 1_555
O109 Ta4 1.950507 1_656
O110 Si14 1.677475 1_555
O110 Ta5 1.991691 1_656
O111 Si15 1.603795 1_555
O111 Sc3 2.039654 1_455
O112 Si16 1.590442 1_555
O112 Sc4 2.099403 1_455
O113 Si17 1.610506 1_555
O113 Sc5 2.042372 1_455
O114 Si18 1.610506 1_555
O114 Sc0 2.042372 1_454
O115 Si19 1.590442 1_555
O115 Sc1 2.099403 1_454
O116 Si20 1.603795 1_555
O116 Sc2 2.039654 1_454
O117 Si21 1.677475 1_555
O117 Ta0 1.991691 1_655
O118 Si22 1.716199 1_555
O118 Ta1 1.950507 1_655
O119 Si23 1.682623 1_555
O119 Ta2 1.998568 1_655
O120 P0 1.556108 1_555
O120 Ta0 2.122758 1_555
O121 P1 1.594157 1_555
O121 Ta1 2.119372 1_555
O122 P2 1.554581 1_555
O122 Ta2 2.097577 1_555
O123 P0 1.551337 1_655
O123 Sc0 2.199594 1_555
O124 P1 1.518056 1_655
O124 Sc1 2.200540 1_555
O125 P2 1.539577 1_655
O125 Sc2 2.240606 1_555
O126 P3 1.539577 1_655
O126 Sc3 2.240606 1_555
O127 P4 1.518056 1_655
O127 Sc4 2.200540 1_555
O128 P5 1.551337 1_655
O128 Sc5 2.199594 1_555
O129 P3 1.554581 1_555
O129 Ta3 2.097577 1_555
O130 P4 1.594157 1_555
O130 Ta4 2.119372 1_555
O131 P5 1.556108 1_555
O131 Ta5 2.122758 1_555
O132 P6 1.594157 1_555
O132 Ta6 2.119372 1_555
O133 P7 1.554581 1_555
O133 Ta7 2.097577 1_555
O134 P8 1.556108 1_555
O134 Ta8 2.122758 1_555
O135 P6 1.518056 1_555
O135 Sc6 2.200540 1_555
O136 P7 1.539577 1_555
O136 Sc7 2.240606 1_555
O137 P8 1.551337 1_555
O137 Sc8 2.199594 1_555
O138 P9 1.551337 1_555
O138 Sc9 2.199594 1_555
O139 P10 1.539577 1_555
O139 Sc10 2.240606 1_555
O140 P11 1.518056 1_555
O140 Sc11 2.200540 1_555
O141 P9 1.556108 1_555
O141 Ta9 2.122758 1_555
O142 P10 1.554581 1_555
O142 Ta10 2.097577 1_555
O143 P11 1.594157 1_555
O143 Ta11 2.119372 1_555
