# generated using pymatgen
data_TaPbS2
_symmetry_space_group_name_H-M   'P 1'
_cell_length_a   3.36370672
_cell_length_b   3.36370706
_cell_length_c   17.87814616
_cell_angle_alpha   90.00000000
_cell_angle_beta   90.00000000
_cell_angle_gamma   119.99999668
_symmetry_Int_Tables_number   1
_chemical_formula_structural   TaPbS2
_chemical_formula_sum   'Ta2 Pb2 S4'
_cell_volume   175.18197527
_cell_formula_units_Z   2
loop_
 _symmetry_equiv_pos_site_id
 _symmetry_equiv_pos_as_xyz
  1  'x, y, z'
loop_
 _atom_site_type_symbol
 _atom_site_label
 _atom_site_symmetry_multiplicity
 _atom_site_fract_x
 _atom_site_fract_y
 _atom_site_fract_z
 _atom_site_occupancy
  Ta  Ta0  1  0.66666700  0.33333300  0.75000000  1
  Ta  Ta1  1  0.33333300  0.66666700  0.25000000  1
  Pb  Pb0  1  0.00000000  -0.00000000  0.00000000  1
  Pb  Pb1  1  0.00000000  0.00000000  0.50000000  1
  S  S0  1  -0.00000000  -0.00000000  0.16398846  1
  S  S1  1  -0.00000000  -0.00000000  0.66398846  1
  S  S2  1  0.00000000  0.00000000  0.33601154  1
  S  S3  1  0.00000000  0.00000000  0.83601154  1
loop_
_geom_bond_atom_site_label_1
_geom_bond_atom_site_label_2
_geom_bond_distance
_geom_bond_site_symmetry_2
Pb0 S0 2.931810 1_555
Pb0 S3 2.931810 1_554
Pb1 S1 2.931810 1_555
Pb1 S2 2.931810 1_555
S0 Ta1 2.477116 1_545
S0 Ta1 2.477118 1_445
S0 Ta1 2.477119 1_555
S1 Ta0 2.477116 1_455
S1 Ta0 2.477118 1_555
S1 Ta0 2.477119 1_445
S2 Ta1 2.477116 1_545
S2 Ta1 2.477118 1_445
S2 Ta1 2.477119 1_555
S3 Ta0 2.477116 1_455
S3 Ta0 2.477118 1_555
S3 Ta0 2.477119 1_445
