# generated using pymatgen
data_Cs2PdI6
_symmetry_space_group_name_H-M   'P 1'
_cell_length_a   7.92447853
_cell_length_b   7.92446297
_cell_length_c   7.92513957
_cell_angle_alpha   109.82051550
_cell_angle_beta   109.82368945
_cell_angle_gamma   108.77231692
_symmetry_Int_Tables_number   1
_chemical_formula_structural   Cs2PdI6
_chemical_formula_sum   'Cs2 Pd1 I6'
_cell_volume   383.06624742
_cell_formula_units_Z   1
loop_
 _symmetry_equiv_pos_site_id
 _symmetry_equiv_pos_as_xyz
  1  'x, y, z'
loop_
 _atom_site_type_symbol
 _atom_site_label
 _atom_site_symmetry_multiplicity
 _atom_site_fract_x
 _atom_site_fract_y
 _atom_site_fract_z
 _atom_site_occupancy
  Cs  Cs0  1  0.74998598  0.24999098  0.50000102  1
  Cs  Cs1  1  0.24999123  0.74998817  0.50000138  1
  Pd  Pd0  1  0.00000759  0.00001459  0.00003406  1
  I  I0  1  0.79431820  0.20570253  -0.00002292  1
  I  I1  1  0.34477316  0.34476806  -0.00008247  1
  I  I2  1  0.79431415  0.79428692  0.58860130  1
  I  I3  1  0.20569415  0.79431712  0.00001082  1
  I  I4  1  0.20571487  0.20571683  0.41141821  1
  I  I5  1  0.65520067  0.65521582  0.00003861  1
loop_
_geom_bond_atom_site_label_1
_geom_bond_atom_site_label_2
_geom_bond_distance
_geom_bond_site_symmetry_2
Cs0 I4 4.002975 1_555
Cs0 I2 4.003030 1_555
Cs0 I3 4.003088 1_545
Cs0 I0 4.003164 1_556
Cs0 I2 4.003249 1_545
Cs0 I4 4.003288 1_655
Cs0 I3 4.003354 1_656
Cs0 I0 4.003810 1_555
Cs1 I4 4.002998 1_555
Cs1 I2 4.003005 1_455
Cs1 I0 4.003184 1_455
Cs1 I0 4.003248 1_566
Cs1 I4 4.003250 1_565
Cs1 I2 4.003289 1_555
Cs1 I3 4.003484 1_555
Cs1 I3 4.003500 1_556
I0 Pd0 2.650207 1_655
I1 I5 2.864516 1_555
I1 Pd0 3.182374 1_555
I2 Pd0 2.650768 1_666
I3 Pd0 2.650251 1_565
I4 Pd0 2.650455 1_555
I5 Pd0 3.182257 1_665
