# generated using pymatgen
data_Dy2Be2GeO7
_symmetry_space_group_name_H-M   'P 1'
_cell_length_a   7.44772000
_cell_length_b   7.44772000
_cell_length_c   4.82547500
_cell_angle_alpha   90.00000000
_cell_angle_beta   90.00000000
_cell_angle_gamma   90.00000000
_symmetry_Int_Tables_number   1
_chemical_formula_structural   Dy2Be2GeO7
_chemical_formula_sum   'Dy4 Be4 Ge2 O14'
_cell_volume   267.66202024
_cell_formula_units_Z   2
loop_
 _symmetry_equiv_pos_site_id
 _symmetry_equiv_pos_as_xyz
  1  'x, y, z'
loop_
 _atom_site_type_symbol
 _atom_site_label
 _atom_site_symmetry_multiplicity
 _atom_site_fract_x
 _atom_site_fract_y
 _atom_site_fract_z
 _atom_site_occupancy
  Dy  Dy0  1  0.65812100  0.84187900  0.50600800  1
  Dy  Dy1  1  0.15812100  0.65812100  0.49399200  1
  Dy  Dy2  1  0.84187900  0.34187900  0.49399200  1
  Dy  Dy3  1  0.34187900  0.15812100  0.50600800  1
  Be  Be0  1  0.36506500  0.86506500  0.04777000  1
  Be  Be1  1  0.86506500  0.63493500  0.95223000  1
  Be  Be2  1  0.63493500  0.13493500  0.04777000  1
  Be  Be3  1  0.13493500  0.36506500  0.95223000  1
  Ge  Ge0  1  0.50000000  0.50000000  0.00000000  1
  Ge  Ge1  1  0.00000000  0.00000000  0.00000000  1
  O  O0  1  0.91786100  0.82861500  0.78349600  1
  O  O1  1  0.17138500  0.91786100  0.21650400  1
  O  O2  1  0.58213900  0.32861500  0.21650400  1
  O  O3  1  0.41786100  0.67138500  0.21650400  1
  O  O4  1  0.32861500  0.41786100  0.78349600  1
  O  O5  1  0.67138500  0.58213900  0.78349600  1
  O  O6  1  0.00000000  0.50000000  0.81263600  1
  O  O7  1  0.50000000  0.00000000  0.18736400  1
  O  O8  1  0.14201700  0.35798300  0.28158500  1
  O  O9  1  0.64201700  0.14201700  0.71841500  1
  O  O10  1  0.35798300  0.85798300  0.71841500  1
  O  O11  1  0.85798300  0.64201700  0.28158500  1
  O  O12  1  0.08213900  0.17138500  0.78349600  1
  O  O13  1  0.82861500  0.08213900  0.21650400  1
loop_
_geom_bond_atom_site_label_1
_geom_bond_atom_site_label_2
_geom_bond_distance
_geom_bond_site_symmetry_2
Dy0 O7 2.266697 1_565
Dy0 O0 2.354758 1_555
Dy0 O5 2.354758 1_555
Dy0 O11 2.367306 1_555
Dy0 O10 2.462052 1_555
Dy0 O9 2.462052 1_565
Dy0 O3 2.601130 1_555
Dy0 O13 2.601130 1_565
Dy1 O6 2.266697 1_555
Dy1 O1 2.354758 1_555
Dy1 O3 2.354758 1_555
Dy1 O10 2.367306 1_555
Dy1 O8 2.462052 1_555
Dy1 O11 2.462052 1_455
Dy1 O0 2.601130 1_455
Dy1 O4 2.601130 1_555
Dy2 O6 2.266697 1_655
Dy2 O2 2.354758 1_555
Dy2 O13 2.354758 1_555
Dy2 O9 2.367306 1_555
Dy2 O11 2.462052 1_555
Dy2 O8 2.462052 1_655
Dy2 O5 2.601130 1_555
Dy2 O12 2.601130 1_655
Dy3 O7 2.266697 1_555
Dy3 O4 2.354758 1_555
Dy3 O12 2.354758 1_555
Dy3 O8 2.367306 1_555
Dy3 O9 2.462052 1_555
Dy3 O10 2.462052 1_545
Dy3 O1 2.601130 1_545
Dy3 O2 2.601130 1_555
Be0 O7 1.572777 1_565
Be0 O10 1.591044 1_554
Be0 O3 1.702440 1_555
Be0 O1 1.702440 1_555
Be1 O6 1.572777 1_655
Be1 O11 1.591044 1_556
Be1 O5 1.702440 1_555
Be1 O0 1.702440 1_555
Be2 O7 1.572777 1_555
Be2 O9 1.591044 1_554
Be2 O2 1.702440 1_555
Be2 O13 1.702440 1_555
Be3 O6 1.572777 1_555
Be3 O8 1.591044 1_556
Be3 O4 1.702440 1_555
Be3 O12 1.702440 1_555
Ge0 O2 1.759254 1_555
Ge0 O5 1.759254 1_554
Ge0 O4 1.759254 1_554
Ge0 O3 1.759254 1_555
Ge1 O12 1.759254 1_554
Ge1 O1 1.759254 1_545
Ge1 O13 1.759254 1_455
Ge1 O0 1.759254 1_444
