# generated using pymatgen
data_Na10Ca4La4Si3(S3O16)3
_symmetry_space_group_name_H-M   'P 1'
_cell_length_a   19.07272828
_cell_length_b   9.55187751
_cell_length_c   24.27955456
_cell_angle_alpha   89.85292892
_cell_angle_beta   89.59817267
_cell_angle_gamma   120.29016768
_symmetry_Int_Tables_number   1
_chemical_formula_structural   Na10Ca4La4Si3(S3O16)3
_chemical_formula_sum   'Na30 Ca12 La12 Si9 S27 O144'
_cell_volume   3819.21489949
_cell_formula_units_Z   3
loop_
 _symmetry_equiv_pos_site_id
 _symmetry_equiv_pos_as_xyz
  1  'x, y, z'
loop_
 _atom_site_type_symbol
 _atom_site_label
 _atom_site_symmetry_multiplicity
 _atom_site_fract_x
 _atom_site_fract_y
 _atom_site_fract_z
 _atom_site_occupancy
  Na  Na0  1  0.19729516  0.37113806  0.23935897  1
  Na  Na1  1  0.69708569  0.37581179  0.23924855  1
  Na  Na2  1  0.98562581  0.64256458  0.25621764  1
  Na  Na3  1  0.48794687  0.63535266  0.26464953  1
  Na  Na4  1  0.32676449  0.66561653  0.74319388  1
  Na  Na5  1  0.82359084  0.66059608  0.74227447  1
  Na  Na6  1  0.98600326  0.33170319  0.75337746  1
  Na  Na7  1  0.19419492  0.00954904  0.73479331  1
  Na  Na8  1  0.69759340  0.01278757  0.73657164  1
  Na  Na9  1  0.52815983  0.70881640  0.56769996  1
  Na  Na10  1  0.32265744  0.97185954  0.59200886  1
  Na  Na11  1  0.82150150  0.96420337  0.59120754  1
  Na  Na12  1  0.15420384  0.99126711  0.07837249  1
  Na  Na13  1  0.65434716  0.99048545  0.07787087  1
  Na  Na14  1  0.32391453  0.67187944  0.09488439  1
  Na  Na15  1  0.82360212  0.67264673  0.09596574  1
  Na  Na16  1  0.65337652  0.00097681  0.42725953  1
  Na  Na17  1  0.36255218  0.67964741  0.40586802  1
  Na  Na18  1  0.02487920  0.00245603  0.49750267  1
  Na  Na19  1  0.51551530  0.00516405  0.49308599  1
  Na  Na20  1  0.01430805  0.04197243  0.99659424  1
  Na  Na21  1  0.51473293  0.04282966  0.99535843  1
  Na  Na22  1  0.34799066  0.30584612  0.82559195  1
  Na  Na23  1  0.83312100  0.30349711  0.82949653  1
  Na  Na24  1  0.34672162  0.35382866  0.33258406  1
  Na  Na25  1  0.84069619  0.36077498  0.32663344  1
  Na  Na26  1  0.17648153  0.64364913  0.16106390  1
  Na  Na27  1  0.67834282  0.64566900  0.16457133  1
  Na  Na28  1  0.17047795  0.69325044  0.65384760  1
  Na  Na29  1  0.66971564  0.67815956  0.65478536  1
  Ca  Ca0  1  0.99204180  0.98722074  0.34895661  1
  Ca  Ca1  1  0.49558714  0.99420729  0.34758618  1
  Ca  Ca2  1  0.99596523  0.00268575  0.85028499  1
  Ca  Ca3  1  0.49465539  0.00559140  0.84945541  1
  Ca  Ca4  1  0.33175797  0.31815808  0.68119717  1
  Ca  Ca5  1  0.82997951  0.32337932  0.67738181  1
  Ca  Ca6  1  0.33345938  0.33515836  0.18131059  1
  Ca  Ca7  1  0.83276865  0.33462027  0.18064280  1
  Ca  Ca8  1  0.16282085  0.64817526  0.01564677  1
  Ca  Ca9  1  0.66301338  0.64860236  0.01611120  1
  Ca  Ca10  1  0.16060539  0.66842037  0.51643164  1
  Ca  Ca11  1  0.66384654  0.66327085  0.51147832  1
  La  La0  1  0.00583894  0.00155887  0.64825870  1
  La  La1  1  0.50406275  0.01372841  0.65169605  1
  La  La2  1  0.99352022  0.00560319  0.15395744  1
  La  La3  1  0.49490955  0.00636108  0.15273687  1
  La  La4  1  0.32969641  0.33374792  0.98338206  1
  La  La5  1  0.82963378  0.33463320  0.98302176  1
  La  La6  1  0.32814995  0.32527847  0.48283684  1
  La  La7  1  0.82984090  0.33413027  0.48751608  1
  La  La8  1  0.17568407  0.67759135  0.31621667  1
  La  La9  1  0.67099629  0.67251596  0.32109836  1
  La  La10  1  0.17382596  0.67979397  0.82228326  1
  La  La11  1  0.66705909  0.67002551  0.81988887  1
  Si  Si0  1  0.34762312  0.68479971  0.24942935  1
  Si  Si1  1  0.84758206  0.68733120  0.24687934  1
  Si  Si2  1  0.34772878  0.00053421  0.74845517  1
  Si  Si3  1  0.85082789  0.00416814  0.74742318  1
  Si  Si4  1  0.18133206  0.01933132  0.58690413  1
  Si  Si5  1  0.67874244  0.01600482  0.58478680  1
  Si  Si6  1  0.18127326  0.33301837  0.08812344  1
  Si  Si7  1  0.68161296  0.33369809  0.08767317  1
  Si  Si8  1  0.51389424  0.67366565  0.41625062  1
  S  S0  1  0.14838238  0.00315992  0.24926901  1
  S  S1  1  0.65040790  0.00361792  0.24999241  1
  S  S2  1  0.99908706  0.30776832  0.25367665  1
  S  S3  1  0.49970168  0.30819460  0.25269320  1
  S  S4  1  0.15229772  0.30201493  0.75279640  1
  S  S5  1  0.65700606  0.30430086  0.75281012  1
  S  S6  1  0.99729911  0.69443955  0.75356555  1
  S  S7  1  0.49741616  0.70118314  0.75120640  1
  S  S8  1  0.48440388  0.34085274  0.58336228  1
  S  S9  1  0.98489838  0.33720491  0.58605958  1
  S  S10  1  0.33235889  0.63707603  0.58583802  1
  S  S11  1  0.82963414  0.63899065  0.58704740  1
  S  S12  1  0.48689092  0.63771277  0.08484622  1
  S  S13  1  0.98715863  0.63812199  0.08490515  1
  S  S14  1  0.32717329  0.02423093  0.08278450  1
  S  S15  1  0.82770490  0.02540707  0.08251560  1
  S  S16  1  0.32260317  0.67483169  0.91836113  1
  S  S17  1  0.82052924  0.67375340  0.91712961  1
  S  S18  1  0.01519428  0.35863992  0.91489602  1
  S  S19  1  0.51523012  0.35765438  0.91793138  1
  S  S20  1  0.16163971  0.96912373  0.91909312  1
  S  S21  1  0.66228801  0.96798579  0.91822217  1
  S  S22  1  0.32016143  0.96341663  0.42022543  1
  S  S23  1  0.82158464  0.97459386  0.42072281  1
  S  S24  1  0.16246647  0.36484056  0.41657544  1
  S  S25  1  0.66506945  0.35506008  0.41593277  1
  S  S26  1  0.01615281  0.67182494  0.41463498  1
  O  O0  1  0.10566913  0.02528733  0.29634055  1
  O  O1  1  0.60915582  0.02336024  0.29879878  1
  O  O2  1  0.39990408  0.78251588  0.30339514  1
  O  O3  1  0.91140177  0.79555556  0.29450632  1
  O  O4  1  0.49398185  0.21108159  0.30106524  1
  O  O5  1  0.99359020  0.20931654  0.30160139  1
  O  O6  1  0.11320357  0.19595384  0.80075069  1
  O  O7  1  0.61387043  0.20168236  0.80059817  1
  O  O8  1  0.49195659  0.79111085  0.79848967  1
  O  O9  1  0.99083385  0.77971329  0.80174327  1
  O  O10  1  0.40122820  0.99816008  0.79916323  1
  O  O11  1  0.91255948  0.02816369  0.79690817  1
  O  O12  1  0.38491221  0.97504300  0.68918305  1
  O  O13  1  0.88585555  0.97002386  0.68927900  1
  O  O14  1  0.10309975  0.22814013  0.70258865  1
  O  O15  1  0.61102102  0.23378011  0.70151575  1
  O  O16  1  0.01342247  0.79519334  0.70301305  1
  O  O17  1  0.51052044  0.79629449  0.69911911  1
  O  O18  1  0.38865935  0.78427734  0.19096050  1
  O  O19  1  0.88409320  0.77633414  0.18571330  1
  O  O20  1  0.01279666  0.23837381  0.20238665  1
  O  O21  1  0.51022007  0.23360912  0.20166370  1
  O  O22  1  0.10245591  0.98276066  0.19720688  1
  O  O23  1  0.60228131  0.98680563  0.19941440  1
  O  O24  1  0.44472934  0.35980058  0.63281107  1
  O  O25  1  0.94844421  0.35382729  0.63813848  1
  O  O26  1  0.22766058  0.10110160  0.64508117  1
  O  O27  1  0.73011415  0.10712834  0.64019736  1
  O  O28  1  0.32748783  0.54655347  0.63670982  1
  O  O29  1  0.82816623  0.55572795  0.63920574  1
  O  O30  1  0.45057275  0.54362417  0.13585825  1
  O  O31  1  0.95119205  0.54486990  0.13621296  1
  O  O32  1  0.32517903  0.11014188  0.13249768  1
  O  O33  1  0.82571837  0.11091481  0.13237920  1
  O  O34  1  0.23090148  0.35069020  0.14498429  1
  O  O35  1  0.73088431  0.35024691  0.14451258  1
  O  O36  1  0.23198937  0.30863719  0.03636712  1
  O  O37  1  0.73213424  0.30860137  0.03582644  1
  O  O38  1  0.43610551  0.55019334  0.03676220  1
  O  O39  1  0.93612842  0.54933294  0.03703466  1
  O  O40  1  0.33880220  0.12256263  0.03276960  1
  O  O41  1  0.83911663  0.12424243  0.03260711  1
  O  O42  1  0.23423426  0.13710329  0.53467279  1
  O  O43  1  0.72560468  0.12401479  0.52845472  1
  O  O44  1  0.34193027  0.55634306  0.53636694  1
  O  O45  1  0.83701551  0.55129198  0.53915987  1
  O  O46  1  0.43616227  0.32405725  0.53371008  1
  O  O47  1  0.93299744  0.32639057  0.53877060  1
  O  O48  1  0.27596164  0.68056837  0.96638471  1
  O  O49  1  0.77539733  0.67907180  0.96598777  1
  O  O50  1  0.06543486  0.45664869  0.96106540  1
  O  O51  1  0.56206751  0.44833655  0.96627422  1
  O  O52  1  0.15881139  0.87356672  0.96808788  1
  O  O53  1  0.65993836  0.87516206  0.96788642  1
  O  O54  1  0.27719366  0.86761132  0.46984121  1
  O  O55  1  0.78147464  0.87877187  0.47109920  1
  O  O56  1  0.15761955  0.45518572  0.46401090  1
  O  O57  1  0.66376154  0.44727921  0.46359966  1
  O  O58  1  0.06558223  0.67573127  0.46147672  1
  O  O59  1  0.56794363  0.68805855  0.47061610  1
  O  O60  1  0.05361580  0.66062879  0.36131990  1
  O  O61  1  0.55932605  0.66282260  0.35877243  1
  O  O62  1  0.27121238  0.88144962  0.37037930  1
  O  O63  1  0.77041626  0.89133690  0.37183765  1
  O  O64  1  0.16924836  0.45556373  0.36412394  1
  O  O65  1  0.67248039  0.44260626  0.36347902  1
  O  O66  1  0.05213577  0.44260246  0.86105101  1
  O  O67  1  0.55572367  0.44932078  0.86635308  1
  O  O68  1  0.16640058  0.88720498  0.86752383  1
  O  O69  1  0.66716154  0.88420722  0.86727386  1
  O  O70  1  0.27637674  0.65784944  0.86646321  1
  O  O71  1  0.77417326  0.66006801  0.86574018  1
  O  O72  1  0.00992551  0.82083989  0.41484555  1
  O  O73  1  0.50960413  0.84327734  0.41540216  1
  O  O74  1  0.39935541  0.96966722  0.41578668  1
  O  O75  1  0.90337809  0.99796742  0.41460707  1
  O  O76  1  0.09205899  0.19867115  0.41457738  1
  O  O77  1  0.59150110  0.19008895  0.41557460  1
  O  O78  1  0.00898739  0.19746088  0.91639615  1
  O  O79  1  0.50896732  0.19640275  0.91727027  1
  O  O80  1  0.08883336  0.98614243  0.91735103  1
  O  O81  1  0.58965119  0.98540833  0.91617788  1
  O  O82  1  0.40332552  0.82179687  0.91610477  1
  O  O83  1  0.90183538  0.82054005  0.91479756  1
  O  O84  1  0.48859354  0.18859473  0.58675625  1
  O  O85  1  0.98466798  0.18010929  0.58628340  1
  O  O86  1  0.08877289  0.99507536  0.58407296  1
  O  O87  1  0.58444699  0.98444797  0.58472182  1
  O  O88  1  0.40710614  0.80363454  0.58677493  1
  O  O89  1  0.90102703  0.80759936  0.58496400  1
  O  O90  1  0.48994012  0.79862983  0.08685846  1
  O  O91  1  0.99075114  0.79931863  0.08656277  1
  O  O92  1  0.39464665  0.98676909  0.08425797  1
  O  O93  1  0.89552973  0.98904971  0.08382228  1
  O  O94  1  0.09155641  0.16082488  0.08652999  1
  O  O95  1  0.59218120  0.16116003  0.08585045  1
  O  O96  1  0.33183390  0.15393198  0.74950741  1
  O  O97  1  0.84066294  0.16683973  0.74611889  1
  O  O98  1  0.23632703  0.33231881  0.74592847  1
  O  O99  1  0.73927292  0.32096521  0.74841210  1
  O  O100  1  0.42093290  0.54214877  0.74723304  1
  O  O101  1  0.92070445  0.53483792  0.74773243  1
  O  O102  1  0.34260295  0.50656351  0.24995905  1
  O  O103  1  0.84168821  0.50740943  0.24865132  1
  O  O104  1  0.42750824  0.32818420  0.24875887  1
  O  O105  1  0.92646505  0.32564146  0.24900462  1
  O  O106  1  0.23133910  0.14445290  0.24522375  1
  O  O107  1  0.73263819  0.14830464  0.24559193  1
  O  O108  1  0.33085245  0.52769565  0.92053450  1
  O  O109  1  0.82873495  0.52596779  0.91845561  1
  O  O110  1  0.43244252  0.33820785  0.91885129  1
  O  O111  1  0.93264757  0.34002893  0.91770747  1
  O  O112  1  0.23721966  0.13191015  0.91862256  1
  O  O113  1  0.73819332  0.13166048  0.91709185  1
  O  O114  1  0.33159293  0.12842382  0.42054904  1
  O  O115  1  0.82472199  0.13500912  0.42260999  1
  O  O116  1  0.24052693  0.36176631  0.41829503  1
  O  O117  1  0.73751929  0.33059638  0.41755627  1
  O  O118  1  0.41914878  0.51814381  0.41678153  1
  O  O119  1  0.93299730  0.52415483  0.41787499  1
  O  O120  1  0.18052395  0.50374838  0.08050669  1
  O  O121  1  0.68085053  0.50420625  0.08051390  1
  O  O122  1  0.07195248  0.67192316  0.07798967  1
  O  O123  1  0.57181475  0.67298215  0.07796961  1
  O  O124  1  0.24853022  0.86611590  0.07962411  1
  O  O125  1  0.74917017  0.86736562  0.07935045  1
  O  O126  1  0.18098998  0.84715969  0.58151764  1
  O  O127  1  0.67412972  0.83840852  0.58188895  1
  O  O128  1  0.26016388  0.65721231  0.58138738  1
  O  O129  1  0.75482422  0.65054836  0.58316269  1
  O  O130  1  0.06795311  0.47506875  0.57981336  1
  O  O131  1  0.56702201  0.48470413  0.57867554  1
  O  O132  1  0.15058704  0.84905108  0.25522753  1
  O  O133  1  0.65443899  0.85203519  0.25385389  1
  O  O134  1  0.25191840  0.64999007  0.25005185  1
  O  O135  1  0.75319496  0.65455450  0.25211636  1
  O  O136  1  0.07194670  0.47634160  0.25686941  1
  O  O137  1  0.57398757  0.47439392  0.25449652  1
  O  O138  1  0.15681349  0.46319067  0.75895758  1
  O  O139  1  0.67031106  0.47263065  0.75725085  1
  O  O140  1  0.06696092  0.66336317  0.75826525  1
  O  O141  1  0.56995056  0.68022430  0.75579519  1
  O  O142  1  0.25362518  0.82891506  0.75157767  1
  O  O143  1  0.75719238  0.83999342  0.75492818  1
loop_
_geom_bond_atom_site_label_1
_geom_bond_atom_site_label_2
_geom_bond_distance
_geom_bond_site_symmetry_2
Na0 O134 2.335687 1_555
Na0 O34 2.409848 1_555
Na0 O102 2.411555 1_555
Na0 O106 2.558951 1_555
Na1 O135 2.338061 1_555
Na1 O103 2.398273 1_555
Na1 O35 2.430378 1_555
Na1 O107 2.586925 1_555
Na2 O103 2.381197 1_555
Na2 O105 2.650974 1_555
Na2 O3 2.660685 1_555
Na2 O132 2.743811 1_655
Na2 O136 2.805151 1_655
Na2 O60 2.836578 1_655
Na3 O102 2.429237 1_555
Na3 O104 2.585823 1_555
Na3 O61 2.613626 1_555
Na3 O137 2.767474 1_555
Na3 O133 2.791353 1_555
Na3 O2 2.836625 1_555
Na4 O142 2.571565 1_555
Na4 O100 2.600936 1_555
Na4 O98 2.751890 1_555
Na4 O28 2.829881 1_555
Na4 O138 2.836971 1_555
Na4 O12 2.887618 1_555
Na5 O139 2.566966 1_555
Na5 O143 2.611676 1_555
Na5 O101 2.671756 1_555
Na5 O29 2.715013 1_555
Na5 O99 2.804293 1_555
Na5 O13 2.867038 1_555
Na6 O97 2.408290 1_555
Na6 O11 2.711483 1_555
Na6 O140 2.739413 1_655
Na6 O101 2.788086 1_555
Na6 O138 2.844065 1_655
Na6 O66 2.874037 1_655
Na6 O25 2.926455 1_555
Na7 O96 2.298824 1_555
Na7 O26 2.307430 1_555
Na7 O142 2.530533 1_545
Na7 O98 2.780688 1_555
Na8 O97 2.371734 1_555
Na8 O27 2.465156 1_555
Na8 O143 2.472015 1_545
Na8 O99 2.650812 1_555
Na8 O141 2.900123 1_545
Na9 O87 2.327134 1_555
Na9 O127 2.437434 1_555
Na9 O59 2.510043 1_555
Na9 O131 2.608334 1_555
Na9 O88 2.908950 1_555
Na10 O126 2.355633 1_555
Na10 O128 2.629576 1_555
Na10 O12 2.642068 1_555
Na10 O84 2.775254 1_565
Na10 O88 2.793095 1_555
Na10 O26 2.949400 1_565
Na11 O127 2.449252 1_555
Na11 O129 2.606618 1_555
Na11 O89 2.616842 1_555
Na11 O13 2.674368 1_555
Na11 O85 2.733400 1_565
Na11 O27 2.948948 1_565
Na11 O55 3.027841 1_555
Na12 O94 2.457735 1_565
Na12 O124 2.614701 1_555
Na12 O122 2.634165 1_555
Na12 O91 2.709878 1_455
Na12 O36 2.803050 1_565
Na12 O52 2.924614 1_554
Na12 O22 3.030400 1_555
Na13 O95 2.459554 1_565
Na13 O125 2.607935 1_555
Na13 O123 2.619089 1_555
Na13 O90 2.725828 1_555
Na13 O37 2.809187 1_565
Na13 O53 2.912953 1_554
Na14 O120 2.401273 1_555
Na14 O92 2.613661 1_555
Na14 O18 2.614351 1_555
Na14 O90 2.766527 1_555
Na14 O124 2.888181 1_555
Na14 O34 2.915380 1_555
Na15 O121 2.395991 1_555
Na15 O19 2.440051 1_555
Na15 O93 2.628730 1_555
Na15 O91 2.788664 1_555
Na15 O125 2.881859 1_555
Na15 O35 2.908371 1_555
Na16 O73 2.391184 1_545
Na16 O77 2.624633 1_555
Na16 O117 2.727232 1_555
Na16 O59 2.782781 1_545
Na16 O43 2.782945 1_555
Na16 O115 2.846983 1_555
Na17 O118 2.301513 1_555
Na17 O73 2.439598 1_555
Na17 O74 2.503825 1_555
Na17 O2 2.630509 1_555
Na17 O116 2.753900 1_555
Na18 O86 2.455562 1_545
Na18 O72 2.577818 1_545
Na18 O76 2.594252 1_555
Na19 O73 2.409024 1_545
Na19 O77 2.474766 1_555
Na19 O87 2.649322 1_545
Na19 O74 2.801699 1_545
Na20 O78 2.479433 1_555
Na20 O94 2.568702 1_556
Na20 O80 2.595778 1_545
Na20 O83 2.919563 1_445
Na20 O93 2.940238 1_446
Na20 O91 3.042267 1_446
Na21 O79 2.431029 1_555
Na21 O95 2.580859 1_556
Na21 O81 2.606900 1_545
Na21 O82 2.868439 1_545
Na21 O92 2.979756 1_546
Na21 O90 3.073418 1_546
Na22 O96 2.276783 1_555
Na22 O110 2.714685 1_555
Na22 O100 2.724496 1_555
Na22 O112 2.949358 1_555
Na22 O98 2.989868 1_555
Na23 O97 2.453888 1_555
Na23 O113 2.724989 1_555
Na23 O99 2.730657 1_555
Na23 O111 2.775741 1_555
Na23 O101 2.796736 1_555
Na24 O102 2.502358 1_555
Na24 O118 2.533705 1_555
Na24 O104 2.629759 1_555
Na24 O116 2.921532 1_555
Na24 O114 2.936209 1_555
Na24 O106 2.998182 1_555
Na25 O103 2.346516 1_555
Na25 O105 2.618176 1_555
Na25 O119 2.782661 1_555
Na25 O107 2.845363 1_555
Na25 O117 2.862255 1_555
Na26 O120 2.394250 1_555
Na26 O134 2.588104 1_555
Na26 O124 2.703391 1_555
Na26 O136 2.939652 1_555
Na26 O122 2.951720 1_555
Na27 O121 2.463998 1_555
Na27 O135 2.546485 1_555
Na27 O125 2.764608 1_555
Na27 O137 2.835653 1_555
Na28 O126 2.229340 1_555
Na28 O128 2.587377 1_555
Na28 O130 2.712131 1_555
Na28 O142 2.796438 1_555
Na29 O127 2.310106 1_555
Na29 O129 2.474498 1_555
Na29 O131 2.661383 1_555
Na29 O143 2.925667 1_555
Ca0 O3 2.159976 1_555
Ca0 O75 2.355648 1_555
Ca0 O0 2.371658 1_665
Ca0 O72 2.396393 1_655
Ca0 O5 2.397312 1_565
Ca0 O76 2.535602 1_665
Ca1 O2 2.210531 1_555
Ca1 O73 2.289923 1_555
Ca1 O1 2.350822 1_565
Ca1 O4 2.370765 1_565
Ca1 O74 2.384735 1_555
Ca1 O77 2.485486 1_565
Ca2 O11 2.164980 1_555
Ca2 O83 2.345046 1_545
Ca2 O6 2.375110 1_655
Ca2 O78 2.377883 1_655
Ca2 O9 2.395604 1_545
Ca2 O80 2.476942 1_645
Ca3 O10 2.138839 1_545
Ca3 O82 2.365581 1_545
Ca3 O79 2.372184 1_555
Ca3 O8 2.374561 1_545
Ca3 O7 2.395832 1_555
Ca3 O81 2.517178 1_545
Ca4 O26 2.211494 1_555
Ca4 O96 2.280450 1_555
Ca4 O24 2.297500 1_555
Ca4 O98 2.451643 1_555
Ca4 O28 2.470038 1_555
Ca4 O100 2.534963 1_555
Ca5 O27 2.185079 1_555
Ca5 O97 2.315563 1_555
Ca5 O25 2.324441 1_555
Ca5 O29 2.419346 1_555
Ca5 O99 2.425985 1_555
Ca5 O101 2.554395 1_555
Ca6 O34 2.223138 1_555
Ca6 O102 2.284535 1_555
Ca6 O30 2.374781 1_555
Ca6 O32 2.392163 1_555
Ca6 O106 2.425675 1_555
Ca6 O104 2.462723 1_555
Ca7 O35 2.209911 1_555
Ca7 O103 2.283456 1_555
Ca7 O31 2.382719 1_555
Ca7 O33 2.383779 1_555
Ca7 O107 2.411632 1_555
Ca7 O105 2.480179 1_555
Ca8 O120 2.227834 1_555
Ca8 O50 2.274248 1_554
Ca8 O48 2.339062 1_554
Ca8 O122 2.389105 1_555
Ca8 O124 2.457268 1_555
Ca8 O52 2.475638 1_554
Ca9 O121 2.221006 1_555
Ca9 O51 2.271467 1_554
Ca9 O49 2.343605 1_554
Ca9 O123 2.389396 1_555
Ca9 O125 2.451991 1_555
Ca9 O53 2.484669 1_554
Ca10 O126 2.217231 1_555
Ca10 O58 2.287118 1_555
Ca10 O54 2.351615 1_555
Ca10 O130 2.357298 1_555
Ca10 O56 2.380961 1_555
Ca10 O128 2.520028 1_555
Ca11 O59 2.201634 1_555
Ca11 O127 2.334089 1_555
Ca11 O55 2.351984 1_555
Ca11 O57 2.369978 1_555
Ca11 O131 2.397384 1_555
Ca11 O129 2.511746 1_555
La0 O86 2.235890 1_545
La0 O13 2.364450 1_445
La0 O14 2.421629 1_555
La0 O16 2.439395 1_545
La0 O85 2.454792 1_455
La0 O89 2.472233 1_445
La1 O12 2.291613 1_545
La1 O87 2.339422 1_545
La1 O15 2.401028 1_555
La1 O84 2.419317 1_555
La1 O17 2.429443 1_545
La1 O88 2.499008 1_545
La2 O19 2.259284 1_545
La2 O94 2.350029 1_655
La2 O20 2.378265 1_655
La2 O22 2.440049 1_645
La2 O93 2.483059 1_545
La2 O91 2.544718 1_545
La3 O18 2.257199 1_545
La3 O95 2.333174 1_555
La3 O21 2.363647 1_555
La3 O23 2.435242 1_545
La3 O92 2.478189 1_545
La3 O90 2.516591 1_545
La4 O36 2.167757 1_556
La4 O108 2.388451 1_555
La4 O40 2.425095 1_556
La4 O38 2.427140 1_556
La4 O112 2.433988 1_555
La4 O110 2.483789 1_555
La5 O37 2.159183 1_556
La5 O109 2.411471 1_555
La5 O41 2.424458 1_556
La5 O39 2.429054 1_556
La5 O113 2.450929 1_555
La5 O111 2.496280 1_555
La6 O42 2.175354 1_555
La6 O118 2.387188 1_555
La6 O46 2.414463 1_555
La6 O114 2.442301 1_555
La6 O116 2.447763 1_555
La6 O44 2.462500 1_555
La7 O43 2.214832 1_555
La7 O47 2.367625 1_555
La7 O45 2.371311 1_555
La7 O115 2.437359 1_555
La7 O117 2.443185 1_555
La7 O119 2.521836 1_555
La8 O134 2.262832 1_555
La8 O62 2.304025 1_555
La8 O64 2.363994 1_555
La8 O132 2.427433 1_555
La8 O136 2.429758 1_555
La8 O60 2.495730 1_555
La9 O61 2.270432 1_555
La9 O135 2.351252 1_555
La9 O63 2.351572 1_555
La9 O65 2.435948 1_555
La9 O137 2.478933 1_555
La9 O133 2.498956 1_555
La10 O142 2.248621 1_555
La10 O68 2.333157 1_555
La10 O70 2.337101 1_555
La10 O66 2.461671 1_555
La10 O138 2.469008 1_555
La10 O140 2.513536 1_555
La11 O143 2.282999 1_555
La11 O69 2.348863 1_555
La11 O71 2.376852 1_555
La11 O67 2.380016 1_555
La11 O139 2.450142 1_555
La11 O141 2.466408 1_555
O0 S0 1.475256 1_555
O1 S1 1.482078 1_555
O2 Si0 1.633407 1_555
O3 Si1 1.626033 1_555
O4 S3 1.463636 1_555
O5 S2 1.463729 1_555
O6 S4 1.468905 1_555
O7 S5 1.466686 1_555
O8 S7 1.469776 1_555
O9 S6 1.466669 1_555
O10 Si2 1.611920 1_565
O11 Si3 1.622144 1_555
O12 Si2 1.671802 1_565
O13 Si3 1.659686 1_565
O14 S4 1.488944 1_555
O15 S5 1.482455 1_555
O16 S6 1.489076 1_455
O17 S7 1.499265 1_555
O18 Si0 1.660721 1_555
O19 Si1 1.671814 1_555
O20 S2 1.494328 1_455
O21 S3 1.492676 1_555
O22 S0 1.499225 1_565
O23 S1 1.498158 1_565
O24 S8 1.474214 1_555
O25 S9 1.485774 1_555
O26 Si4 1.647115 1_555
O27 Si5 1.640660 1_555
O28 S10 1.481123 1_555
O29 S11 1.486238 1_555
O30 S12 1.475055 1_555
O31 S13 1.477078 1_555
O32 S14 1.472297 1_555
O33 S15 1.473056 1_555
O34 Si6 1.639734 1_555
O35 Si7 1.637699 1_555
O36 Si6 1.667539 1_555
O37 Si7 1.669765 1_555
O38 S12 1.484612 1_555
O39 S13 1.485158 1_555
O40 S14 1.478590 1_555
O41 S15 1.479909 1_555
O42 Si4 1.649698 1_555
O43 Si5 1.667131 1_555
O44 S10 1.488091 1_555
O45 S11 1.481571 1_555
O46 S8 1.480972 1_555
O47 S9 1.490711 1_555
O48 S16 1.479474 1_555
O49 S17 1.476765 1_555
O50 S18 1.471978 1_555
O51 S19 1.471507 1_555
O52 S20 1.481539 1_555
O53 S21 1.481833 1_555
O54 S22 1.477903 1_555
O55 S23 1.481144 1_555
O56 S24 1.470979 1_555
O57 S25 1.463884 1_555
O58 S26 1.470848 1_555
O59 Si8 1.643461 1_555
O60 S26 1.504142 1_555
O61 Si8 1.668359 1_555
O62 S22 1.494201 1_555
O63 S23 1.493921 1_555
O64 S24 1.506133 1_555
O65 S25 1.487943 1_555
O66 S18 1.503472 1_555
O67 S19 1.493329 1_555
O68 S20 1.504436 1_555
O69 S21 1.502567 1_555
O70 S16 1.504578 1_555
O71 S17 1.501763 1_555
O72 S26 1.486838 1_555
O73 Si8 1.662965 1_555
O74 S22 1.484364 1_555
O75 S23 1.466563 1_555
O76 S24 1.475175 1_555
O77 S25 1.490575 1_555
O78 S18 1.483709 1_555
O79 S19 1.483737 1_555
O80 S20 1.478164 1_555
O81 S21 1.477476 1_555
O82 S16 1.470445 1_555
O83 S17 1.476102 1_555
O84 S8 1.498339 1_555
O85 S9 1.498342 1_555
O86 Si4 1.662550 1_565
O87 Si5 1.666897 1_565
O88 S10 1.508883 1_555
O89 S11 1.495625 1_555
O90 S12 1.509495 1_555
O91 S13 1.506989 1_555
O92 S14 1.500181 1_565
O93 S15 1.499574 1_565
O94 Si6 1.672408 1_555
O95 Si7 1.671288 1_555
O96 Si2 1.639405 1_555
O97 Si3 1.660319 1_555
O98 S4 1.485992 1_555
O99 S5 1.498095 1_555
O100 S7 1.487350 1_555
O101 S6 1.495225 1_555
O102 Si0 1.656272 1_555
O103 Si1 1.665146 1_555
O104 S3 1.486092 1_555
O105 S2 1.483630 1_555
O106 S0 1.475655 1_555
O107 S1 1.480390 1_555
O108 S16 1.491830 1_555
O109 S17 1.496974 1_555
O110 S19 1.493926 1_555
O111 S18 1.493676 1_655
O112 S20 1.494815 1_545
O113 S21 1.502299 1_545
O114 S22 1.478247 1_545
O115 S23 1.503805 1_545
O116 S24 1.504718 1_555
O117 S25 1.513940 1_555
O118 Si8 1.662539 1_555
O119 S26 1.500721 1_655
O120 Si6 1.647995 1_555
O121 Si7 1.644833 1_555
O122 S13 1.488999 1_455
O123 S12 1.486729 1_555
O124 S14 1.501237 1_565
O125 S15 1.499875 1_565
O126 Si4 1.646822 1_565
O127 Si5 1.655457 1_565
O128 S10 1.487892 1_555
O129 S11 1.489180 1_555
O130 S9 1.468928 1_455
O131 S8 1.482065 1_555
O132 S0 1.500333 1_565
O133 S1 1.490910 1_565
O134 Si0 1.682270 1_555
O135 Si1 1.668237 1_555
O136 S2 1.508238 1_455
O137 S3 1.503935 1_555
O138 S4 1.505841 1_555
O139 S5 1.500312 1_555
O140 S6 1.505396 1_455
O141 S7 1.499266 1_555
O142 Si2 1.715759 1_565
O143 Si3 1.688378 1_565
