# generated using pymatgen
data_Ba8V7O22
_symmetry_space_group_name_H-M   'P 1'
_cell_length_a   19.77742042
_cell_length_b   19.77742042
_cell_length_c   19.77742084
_cell_angle_alpha   17.12157702
_cell_angle_beta   17.12157702
_cell_angle_gamma   17.12157830
_symmetry_Int_Tables_number   1
_chemical_formula_structural   Ba8V7O22
_chemical_formula_sum   'Ba8 V7 O22'
_cell_volume   584.97230545
_cell_formula_units_Z   1
loop_
 _symmetry_equiv_pos_site_id
 _symmetry_equiv_pos_as_xyz
  1  'x, y, z'
loop_
 _atom_site_type_symbol
 _atom_site_label
 _atom_site_symmetry_multiplicity
 _atom_site_fract_x
 _atom_site_fract_y
 _atom_site_fract_z
 _atom_site_occupancy
  Ba  Ba0  1  0.61223500  0.61223500  0.61223500  1
  Ba  Ba1  1  0.38776500  0.38776500  0.38776500  1
  Ba  Ba2  1  0.81896300  0.81896300  0.81896300  1
  Ba  Ba3  1  0.18103700  0.18103700  0.18103700  1
  Ba  Ba4  1  0.89429000  0.89429000  0.89429000  1
  Ba  Ba5  1  0.10571000  0.10571000  0.10571000  1
  Ba  Ba6  1  0.68084600  0.68084600  0.68084600  1
  Ba  Ba7  1  0.31915400  0.31915400  0.31915400  1
  V  V0  1  0.00000000  0.00000000  0.00000000  1
  V  V1  1  0.74402100  0.74402100  0.74402100  1
  V  V2  1  0.25597900  0.25597900  0.25597900  1
  V  V3  1  0.53458900  0.53458900  0.53458900  1
  V  V4  1  0.46541100  0.46541100  0.46541100  1
  V  V5  1  0.95505600  0.95505600  0.95505600  1
  V  V6  1  0.04494400  0.04494400  0.04494400  1
  O  O0  1  0.56400700  0.56400700  0.56400700  1
  O  O1  1  0.43599300  0.43599300  0.43599300  1
  O  O2  1  0.77364500  0.77364500  0.77364500  1
  O  O3  1  0.22635500  0.22635500  0.22635500  1
  O  O4  1  0.59257800  0.10404500  0.10404500  1
  O  O5  1  0.10404500  0.59257800  0.10404500  1
  O  O6  1  0.10404500  0.10404500  0.59257800  1
  O  O7  1  0.89595500  0.89595500  0.40742200  1
  O  O8  1  0.40742200  0.89595500  0.89595500  1
  O  O9  1  0.89595500  0.40742200  0.89595500  1
  O  O10  1  0.20045300  0.68646600  0.68646600  1
  O  O11  1  0.68646600  0.20045300  0.68646600  1
  O  O12  1  0.68646600  0.68646600  0.20045300  1
  O  O13  1  0.31353400  0.31353400  0.79954700  1
  O  O14  1  0.79954700  0.31353400  0.31353400  1
  O  O15  1  0.17404900  0.71680800  0.17404900  1
  O  O16  1  0.71680800  0.17404900  0.17404900  1
  O  O17  1  0.17404900  0.17404900  0.71680800  1
  O  O18  1  0.82595100  0.82595100  0.28319200  1
  O  O19  1  0.82595100  0.28319200  0.82595100  1
  O  O20  1  0.28319200  0.82595100  0.82595100  1
  O  O21  1  0.31353400  0.79954700  0.31353400  1
loop_
_geom_bond_atom_site_label_1
_geom_bond_atom_site_label_2
_geom_bond_distance
_geom_bond_site_symmetry_2
Ba0 O18 2.660634 1_555
Ba0 O19 2.660635 1_555
Ba0 O20 2.660635 1_555
Ba0 O0 2.818888 1_555
Ba0 O4 3.026855 1_556
Ba0 O5 3.026855 1_556
Ba0 O5 3.026855 1_655
Ba0 O4 3.026855 1_565
Ba0 O6 3.026855 1_655
Ba0 O6 3.026855 1_565
Ba1 O17 2.660634 1_555
Ba1 O15 2.660635 1_555
Ba1 O16 2.660635 1_555
Ba1 O1 2.818888 1_555
Ba1 O8 3.026855 1_554
Ba1 O9 3.026855 1_554
Ba1 O9 3.026855 1_455
Ba1 O8 3.026855 1_545
Ba1 O7 3.026855 1_455
Ba1 O7 3.026855 1_545
Ba2 O2 2.648801 1_555
Ba2 O10 2.864360 1_655
Ba2 O11 2.864360 1_565
Ba2 O12 2.864360 1_556
Ba2 O21 3.002920 1_556
Ba2 O14 3.002920 1_556
Ba2 O14 3.002920 1_565
Ba2 O21 3.002920 1_655
Ba2 O13 3.002921 1_655
Ba2 O13 3.002921 1_565
Ba3 O3 2.648801 1_555
Ba3 O21 2.864360 1_545
Ba3 O14 2.864360 1_455
Ba3 O13 2.864360 1_554
Ba3 O10 3.002920 1_554
Ba3 O11 3.002920 1_554
Ba3 O10 3.002920 1_545
Ba3 O11 3.002920 1_455
Ba3 O12 3.002921 1_545
Ba3 O12 3.002921 1_455
Ba4 O12 2.757382 1_556
Ba4 O10 2.757382 1_655
Ba4 O11 2.757382 1_565
Ba4 O6 2.879321 1_665
Ba4 O5 2.879321 1_656
Ba4 O4 2.879321 1_566
Ba5 O13 2.757382 1_554
Ba5 O21 2.757382 1_545
Ba5 O14 2.757382 1_455
Ba5 O7 2.879321 1_445
Ba5 O9 2.879321 1_454
Ba5 O8 2.879321 1_544
Ba6 O20 2.790423 1_555
Ba6 O19 2.790423 1_555
Ba6 O18 2.790424 1_555
Ba6 O16 2.979668 1_565
Ba6 O15 2.979668 1_655
Ba6 O15 2.979668 1_556
Ba6 O16 2.979668 1_556
Ba6 O17 2.979668 1_565
Ba6 O17 2.979668 1_655
Ba7 O16 2.790423 1_555
Ba7 O15 2.790423 1_555
Ba7 O17 2.790424 1_555
Ba7 O20 2.979668 1_545
Ba7 O19 2.979668 1_455
Ba7 O19 2.979668 1_554
Ba7 O20 2.979668 1_554
Ba7 O18 2.979668 1_545
Ba7 O18 2.979668 1_455
O0 V3 1.719459 1_555
O1 V4 1.719459 1_555
O2 V1 1.731499 1_555
O3 V2 1.731499 1_555
O4 V2 1.778985 1_555
O4 V5 2.145309 1_544
O5 V2 1.778985 1_555
O5 V5 2.145309 1_454
O6 V2 1.778985 1_555
O6 V5 2.145309 1_445
O7 V1 1.778985 1_555
O7 V6 2.145309 1_665
O8 V1 1.778985 1_555
O8 V6 2.145309 1_566
O9 V1 1.778985 1_555
O9 V6 2.145309 1_656
O10 V3 1.755030 1_555
O11 V3 1.755030 1_555
O12 V3 1.755030 1_555
O13 V4 1.755030 1_555
O14 V4 1.755030 1_555
O15 V0 2.003807 1_565
O15 V6 2.066922 1_565
O16 V0 2.003807 1_655
O16 V6 2.066922 1_655
O17 V0 2.003806 1_556
O17 V6 2.066923 1_556
O18 V0 2.003806 1_665
O18 V5 2.066923 1_554
O19 V0 2.003807 1_656
O19 V5 2.066922 1_545
O20 V0 2.003807 1_566
O20 V5 2.066922 1_455
O21 V4 1.755030 1_555
