# generated using pymatgen
data_RbMgCr3O8
_symmetry_space_group_name_H-M   'P 1'
_cell_length_a   5.47323349
_cell_length_b   5.47323376
_cell_length_c   8.81570122
_cell_angle_alpha   80.25538248
_cell_angle_beta   80.25538513
_cell_angle_gamma   60.81142279
_symmetry_Int_Tables_number   1
_chemical_formula_structural   RbMgCr3O8
_chemical_formula_sum   'Rb1 Mg1 Cr3 O8'
_cell_volume   226.06863661
_cell_formula_units_Z   1
loop_
 _symmetry_equiv_pos_site_id
 _symmetry_equiv_pos_as_xyz
  1  'x, y, z'
loop_
 _atom_site_type_symbol
 _atom_site_label
 _atom_site_symmetry_multiplicity
 _atom_site_fract_x
 _atom_site_fract_y
 _atom_site_fract_z
 _atom_site_occupancy
  Rb  Rb0  1  0.08839280  0.08839280  0.04424352  1
  Mg  Mg0  1  0.85759674  0.85759674  0.77446357  1
  Cr  Cr0  1  0.37735173  0.37735173  0.30276745  1
  Cr  Cr1  1  0.60274785  0.60274785  0.68591512  1
  Cr  Cr2  1  0.99529370  0.99529370  0.49041423  1
  O  O0  1  0.77034797  0.23282377  0.66943594  1
  O  O1  1  0.72015157  0.22644126  0.33260371  1
  O  O2  1  0.22644126  0.72015157  0.33260371  1
  O  O3  1  0.23282377  0.77034797  0.66943594  1
  O  O4  1  0.21385953  0.21385953  0.41526193  1
  O  O5  1  0.78355407  0.78355407  0.57066367  1
  O  O6  1  0.65757608  0.65757608  0.87268653  1
  O  O7  1  0.36136292  0.36136292  0.12075470  1
loop_
_geom_bond_atom_site_label_1
_geom_bond_atom_site_label_2
_geom_bond_distance
_geom_bond_site_symmetry_2
Mg0 O6 1.916762 1_555
Mg0 O3 1.962765 1_655
Mg0 O0 1.962765 1_565
Mg0 O5 2.051706 1_555
Cr0 O7 1.640883 1_555
Cr0 O4 1.662872 1_555
Cr0 O1 1.689261 1_555
Cr0 O2 1.689261 1_555
Cr1 O3 1.790205 1_555
Cr1 O0 1.790205 1_555
Cr1 O5 1.807030 1_555
Cr1 O6 1.820300 1_555
Cr2 O5 1.985319 1_555
Cr2 O1 2.014682 1_565
Cr2 O2 2.014682 1_655
Cr2 O4 2.039666 1_665
Cr2 O3 2.042618 1_655
Cr2 O0 2.042618 1_565
O1 Rb0 2.919889 1_655
O2 Rb0 2.919889 1_565
O6 Rb0 3.162238 1_656
O6 Rb0 3.162238 1_566
O7 Rb0 2.789014 1_555
