# generated using pymatgen
data_BaYMgCu2O5
_symmetry_space_group_name_H-M   'P 1'
_cell_length_a   3.96610547
_cell_length_b   3.97017363
_cell_length_c   9.74845740
_cell_angle_alpha   106.27330555
_cell_angle_beta   105.93197095
_cell_angle_gamma   88.81300449
_symmetry_Int_Tables_number   1
_chemical_formula_structural   BaYMgCu2O5
_chemical_formula_sum   'Ba1 Y1 Mg1 Cu2 O5'
_cell_volume   141.42772062
_cell_formula_units_Z   1
loop_
 _symmetry_equiv_pos_site_id
 _symmetry_equiv_pos_as_xyz
  1  'x, y, z'
loop_
 _atom_site_type_symbol
 _atom_site_label
 _atom_site_symmetry_multiplicity
 _atom_site_fract_x
 _atom_site_fract_y
 _atom_site_fract_z
 _atom_site_occupancy
  Ba  Ba0  1  0.82210400  0.82919900  0.02103200  1
  Y  Y0  1  0.08830900  0.09654200  0.41469800  1
  Mg  Mg0  1  0.12122800  0.11322500  0.73653300  1
  Cu  Cu0  1  0.58637200  0.57720700  0.64702100  1
  Cu  Cu1  1  0.48877000  0.49710400  0.26682600  1
  O  O0  1  0.07799700  0.54749700  0.64112000  1
  O  O1  1  0.55536100  0.06785000  0.63937500  1
  O  O2  1  0.00280400  0.50869400  0.28832900  1
  O  O3  1  0.50164700  0.01094900  0.28783000  1
  O  O4  1  0.25540300  0.25172900  0.95348900  1
loop_
_geom_bond_atom_site_label_1
_geom_bond_atom_site_label_2
_geom_bond_distance
_geom_bond_site_symmetry_2
Ba0 O4 2.749646 1_664
Ba0 O4 2.819514 1_564
Ba0 O4 2.873157 1_654
Ba0 O4 3.049018 1_554
Ba0 O3 3.102502 1_565
Ba0 O2 3.113902 1_665
Ba0 O2 3.117349 1_655
Ba0 O3 3.119212 1_665
Ba0 Cu0 3.360296 1_554
Mg0 O4 1.949660 1_555
Mg0 O0 2.160125 1_555
Mg0 O1 2.163563 1_555
Mg0 O0 2.167213 1_545
Mg0 O1 2.172675 1_455
Cu0 O0 1.966553 1_655
Cu0 O1 1.970167 1_565
Cu0 O0 2.006225 1_555
Cu0 O1 2.007714 1_555
Cu1 O2 1.991551 1_655
Cu1 O3 1.992693 1_565
Cu1 O2 1.993395 1_555
Cu1 O3 1.995384 1_555
O0 Y0 2.431232 1_555
O1 Y0 2.478956 1_555
O2 Y0 2.277608 1_555
O2 Y0 2.296000 1_565
O3 Y0 2.277491 1_555
O3 Y0 2.297020 1_655
