# generated using pymatgen
data_Sr7Mn4O15
_symmetry_space_group_name_H-M   'P 1'
_cell_length_a   9.63358938
_cell_length_b   6.82659679
_cell_length_c   10.35096585
_cell_angle_alpha   88.06312089
_cell_angle_beta   90.00000000
_cell_angle_gamma   90.00000000
_symmetry_Int_Tables_number   1
_chemical_formula_structural   Sr7Mn4O15
_chemical_formula_sum   'Sr14 Mn8 O30'
_cell_volume   680.33852109
_cell_formula_units_Z   2
loop_
 _symmetry_equiv_pos_site_id
 _symmetry_equiv_pos_as_xyz
  1  'x, y, z'
loop_
 _atom_site_type_symbol
 _atom_site_label
 _atom_site_symmetry_multiplicity
 _atom_site_fract_x
 _atom_site_fract_y
 _atom_site_fract_z
 _atom_site_occupancy
  Sr  Sr0  1  0.50316575  0.82156405  0.33340617  1
  Sr  Sr1  1  0.00316575  0.17843595  0.16659383  1
  Sr  Sr2  1  0.49683425  0.17843595  0.66659383  1
  Sr  Sr3  1  0.99683425  0.82156405  0.83340617  1
  Sr  Sr4  1  0.50000000  0.50000000  -0.00000000  1
  Sr  Sr5  1  -0.00000000  0.50000000  0.50000000  1
  Sr  Sr6  1  0.64899758  0.64905219  0.69626410  1
  Sr  Sr7  1  0.14899758  0.35094781  0.80373590  1
  Sr  Sr8  1  0.35100242  0.35094781  0.30373590  1
  Sr  Sr9  1  0.85100242  0.64905219  0.19626410  1
  Sr  Sr10  1  0.68563624  0.00201180  0.96548861  1
  Sr  Sr11  1  0.18563624  0.99798820  0.53451139  1
  Sr  Sr12  1  0.31436376  0.99798820  0.03451139  1
  Sr  Sr13  1  0.81436376  0.00201180  0.46548861  1
  Mn  Mn0  1  0.66941493  0.22152285  0.22133905  1
  Mn  Mn1  1  0.16941493  0.77847715  0.27866095  1
  Mn  Mn2  1  0.33058507  0.77847715  0.77866095  1
  Mn  Mn3  1  0.83058507  0.22152285  0.72133905  1
  Mn  Mn4  1  0.66717097  0.42376771  0.42513337  1
  Mn  Mn5  1  0.16717097  0.57623229  0.07486663  1
  Mn  Mn6  1  0.33282903  0.57623229  0.57486663  1
  Mn  Mn7  1  0.83282903  0.42376771  0.92513337  1
  O  O0  1  0.74728713  0.97633502  0.21260323  1
  O  O1  1  0.24728713  0.02366498  0.28739677  1
  O  O2  1  0.25271287  0.02366498  0.78739677  1
  O  O3  1  0.75271287  0.97633502  0.71260323  1
  O  O4  1  0.51827516  0.15989199  0.12466556  1
  O  O5  1  0.01827516  0.84010801  0.37533444  1
  O  O6  1  0.48172484  0.84010801  0.87533444  1
  O  O7  1  0.98172484  0.15989199  0.62466556  1
  O  O8  1  0.50000000  0.50000000  0.50000000  1
  O  O9  1  -0.00000000  0.50000000  -0.00000000  1
  O  O10  1  0.72616334  0.31702772  0.58216375  1
  O  O11  1  0.22616334  0.68297228  0.91783625  1
  O  O12  1  0.27383666  0.68297228  0.41783625  1
  O  O13  1  0.77383666  0.31702772  0.08216375  1
  O  O14  1  0.58219868  0.16320160  0.38510120  1
  O  O15  1  0.08219868  0.83679840  0.11489880  1
  O  O16  1  0.41780132  0.83679840  0.61489880  1
  O  O17  1  0.91780132  0.16320160  0.88510120  1
  O  O18  1  0.74502773  0.66258188  0.45109412  1
  O  O19  1  0.24502773  0.33741812  0.04890588  1
  O  O20  1  0.25497227  0.33741812  0.54890588  1
  O  O21  1  0.75497227  0.66258188  0.95109412  1
  O  O22  1  0.89865372  0.49273925  0.75311074  1
  O  O23  1  0.39865372  0.50726075  0.74688926  1
  O  O24  1  0.10134628  0.50726075  0.24688926  1
  O  O25  1  0.60134628  0.49273925  0.25311074  1
  O  O26  1  0.82556651  0.32140265  0.33684023  1
  O  O27  1  0.32556651  0.67859735  0.16315977  1
  O  O28  1  0.17443349  0.67859735  0.66315977  1
  O  O29  1  0.67443349  0.32140265  0.83684023  1
loop_
_geom_bond_atom_site_label_1
_geom_bond_atom_site_label_2
_geom_bond_distance
_geom_bond_site_symmetry_2
Mn0 O4 1.823949 1_555
Mn0 O0 1.839237 1_545
Mn0 O13 1.857109 1_555
Mn0 O14 1.921507 1_555
Mn0 O25 2.001827 1_555
Mn0 O26 2.052380 1_555
Mn1 O5 1.823949 1_555
Mn1 O1 1.839237 1_565
Mn1 O12 1.857109 1_555
Mn1 O15 1.921507 1_555
Mn1 O24 2.001827 1_555
Mn1 O27 2.052380 1_555
Mn2 O6 1.823949 1_555
Mn2 O2 1.839237 1_565
Mn2 O11 1.857109 1_555
Mn2 O16 1.921507 1_555
Mn2 O23 2.001827 1_555
Mn2 O28 2.052380 1_555
Mn3 O7 1.823949 1_555
Mn3 O3 1.839237 1_545
Mn3 O10 1.857109 1_555
Mn3 O17 1.921507 1_555
Mn3 O22 2.001827 1_555
Mn3 O29 2.052380 1_555
Mn4 O18 1.822696 1_555
Mn4 O10 1.848202 1_555
Mn4 O8 1.868740 1_555
Mn4 O26 1.922283 1_555
Mn4 O25 1.933307 1_555
Mn4 O14 2.013870 1_555
Mn5 O19 1.822696 1_555
Mn5 O11 1.848202 1_554
Mn5 O9 1.868740 1_555
Mn5 O27 1.922283 1_555
Mn5 O24 1.933307 1_555
Mn5 O15 2.013870 1_555
Mn6 O20 1.822696 1_555
Mn6 O12 1.848202 1_555
Mn6 O8 1.868740 1_555
Mn6 O28 1.922283 1_555
Mn6 O23 1.933307 1_555
Mn6 O16 2.013870 1_555
Mn7 O21 1.822696 1_555
Mn7 O13 1.848202 1_556
Mn7 O9 1.868740 1_656
Mn7 O29 1.922283 1_555
Mn7 O22 1.933307 1_555
Mn7 O17 2.013870 1_555
O0 Sr9 2.458500 1_555
O0 Sr10 2.626001 1_564
O0 Sr13 2.707614 1_565
O0 Sr0 2.849803 1_555
O0 Sr1 2.856961 1_665
O1 Sr8 2.458500 1_555
O1 Sr11 2.626001 1_545
O1 Sr12 2.707614 1_545
O1 Sr1 2.849803 1_555
O1 Sr0 2.856961 1_545
O2 Sr7 2.458500 1_555
O2 Sr12 2.626001 1_546
O2 Sr11 2.707614 1_545
O2 Sr2 2.849803 1_555
O2 Sr3 2.856961 1_445
O3 Sr6 2.458500 1_555
O3 Sr13 2.626001 1_565
O3 Sr10 2.707614 1_565
O3 Sr3 2.849803 1_555
O3 Sr2 2.856961 1_565
O4 Sr12 2.453771 1_545
O4 Sr10 2.568235 1_554
O4 Sr4 2.623793 1_555
O4 Sr8 2.810141 1_555
O4 Sr0 3.112350 1_545
O5 Sr13 2.453771 1_465
O5 Sr11 2.568235 1_555
O5 Sr5 2.623793 1_555
O5 Sr9 2.810141 1_455
O5 Sr1 3.112350 1_565
O6 Sr10 2.453771 1_565
O6 Sr12 2.568235 1_556
O6 Sr4 2.623793 1_556
O6 Sr6 2.810141 1_555
O6 Sr2 3.112350 1_565
O7 Sr11 2.453771 1_645
O7 Sr13 2.568235 1_555
O7 Sr5 2.623793 1_655
O7 Sr7 2.810141 1_655
O7 Sr3 3.112350 1_545
O8 Sr8 2.713389 1_555
O8 Sr6 2.713389 1_555
O8 Sr0 2.745447 1_555
O8 Sr2 2.745447 1_555
O9 Sr9 2.713389 1_455
O9 Sr7 2.713389 1_554
O9 Sr1 2.745447 1_555
O9 Sr3 2.745447 1_454
O10 Sr2 2.546337 1_555
O10 Sr13 2.642094 1_555
O10 Sr6 2.695536 1_555
O10 Sr5 3.028349 1_655
O11 Sr3 2.546337 1_455
O11 Sr12 2.642094 1_556
O11 Sr7 2.695536 1_555
O11 Sr4 3.028349 1_556
O12 Sr0 2.546337 1_555
O12 Sr11 2.642094 1_555
O12 Sr8 2.695536 1_555
O12 Sr5 3.028349 1_555
O13 Sr1 2.546337 1_655
O13 Sr10 2.642094 1_554
O13 Sr9 2.695536 1_555
O13 Sr4 3.028349 1_555
O14 Sr0 2.527771 1_545
O14 Sr13 2.616030 1_555
O14 Sr8 2.690662 1_555
O14 Sr2 3.032714 1_555
O15 Sr1 2.527771 1_565
O15 Sr12 2.616030 1_555
O15 Sr9 2.690662 1_455
O15 Sr3 3.032714 1_454
O16 Sr2 2.527771 1_565
O16 Sr11 2.616030 1_555
O16 Sr6 2.690662 1_555
O16 Sr0 3.032714 1_555
O17 Sr3 2.527771 1_545
O17 Sr10 2.616030 1_555
O17 Sr7 2.690662 1_655
O17 Sr1 3.032714 1_656
O18 Sr13 2.420928 1_565
O18 Sr6 2.699755 1_555
O18 Sr5 2.735602 1_655
O18 Sr0 2.828673 1_555
O18 Sr9 2.832830 1_555
O19 Sr12 2.420928 1_545
O19 Sr7 2.699755 1_554
O19 Sr4 2.735602 1_555
O19 Sr1 2.828673 1_555
O19 Sr8 2.832830 1_555
O20 Sr11 2.420928 1_545
O20 Sr8 2.699755 1_555
O20 Sr5 2.735602 1_555
O20 Sr2 2.828673 1_555
O20 Sr7 2.832830 1_555
O21 Sr10 2.420928 1_565
O21 Sr9 2.699755 1_556
O21 Sr4 2.735602 1_556
O21 Sr3 2.828673 1_555
O21 Sr6 2.832830 1_555
O22 Sr3 2.598157 1_555
O22 Sr7 2.644539 1_655
O22 Sr6 2.688289 1_555
O22 Sr5 2.794814 1_655
O23 Sr2 2.598157 1_555
O23 Sr6 2.644539 1_555
O23 Sr7 2.688289 1_555
O23 Sr4 2.794814 1_556
O24 Sr1 2.598157 1_555
O24 Sr9 2.644539 1_455
O24 Sr8 2.688289 1_555
O24 Sr5 2.794814 1_555
O25 Sr0 2.598157 1_555
O25 Sr8 2.644539 1_555
O25 Sr9 2.688289 1_555
O25 Sr4 2.794814 1_555
O26 Sr13 2.518447 1_555
O26 Sr9 2.638241 1_555
O26 Sr1 2.664851 1_655
O26 Sr5 2.702172 1_655
O27 Sr12 2.518447 1_555
O27 Sr8 2.638241 1_555
O27 Sr0 2.664851 1_555
O27 Sr4 2.702172 1_555
O28 Sr11 2.518447 1_555
O28 Sr7 2.638241 1_555
O28 Sr3 2.664851 1_455
O28 Sr5 2.702172 1_555
O29 Sr10 2.518447 1_555
O29 Sr6 2.638241 1_555
O29 Sr2 2.664851 1_555
O29 Sr4 2.702172 1_556
