# generated using pymatgen
data_Na5In4P5SO24
_symmetry_space_group_name_H-M   'P 1'
_cell_length_a   9.09164046
_cell_length_b   9.07932379
_cell_length_c   22.75269433
_cell_angle_alpha   90.22979319
_cell_angle_beta   89.98126891
_cell_angle_gamma   120.06416283
_symmetry_Int_Tables_number   1
_chemical_formula_structural   Na5In4P5SO24
_chemical_formula_sum   'Na15 In12 P15 S3 O72'
_cell_volume   1625.45051440
_cell_formula_units_Z   3
loop_
 _symmetry_equiv_pos_site_id
 _symmetry_equiv_pos_as_xyz
  1  'x, y, z'
loop_
 _atom_site_type_symbol
 _atom_site_label
 _atom_site_symmetry_multiplicity
 _atom_site_fract_x
 _atom_site_fract_y
 _atom_site_fract_z
 _atom_site_occupancy
  Na  Na0  1  0.64396773  0.99894836  0.25038578  1
  Na  Na1  1  0.99707973  0.36141915  0.74914406  1
  Na  Na2  1  0.36332298  0.99990933  0.75045753  1
  Na  Na3  1  0.02963471  0.69787605  0.58212085  1
  Na  Na4  1  0.66826011  0.97156849  0.58423316  1
  Na  Na5  1  0.30435403  0.97279933  0.08003715  1
  Na  Na6  1  0.02801622  0.33405321  0.08409119  1
  Na  Na7  1  0.97802369  0.66662246  0.91693772  1
  Na  Na8  1  0.70199671  0.67318236  0.41858518  1
  Na  Na9  1  0.02353541  0.02198681  0.50036305  1
  Na  Na10  1  0.99666692  0.01184958  0.99850268  1
  Na  Na11  1  0.65137257  0.32234400  0.83410457  1
  Na  Na12  1  0.69248963  0.34448086  0.33320785  1
  Na  Na13  1  0.33845486  0.64021340  0.16786627  1
  Na  Na14  1  0.34996381  0.64814209  0.66643252  1
  In  In0  1  0.99461642  0.99710625  0.34948365  1
  In  In1  1  0.00488404  0.00970833  0.84951620  1
  In  In2  1  0.00167172  0.00200907  0.65142740  1
  In  In3  1  0.99077704  0.99289780  0.15093339  1
  In  In4  1  0.66620851  0.34167954  0.68191881  1
  In  In5  1  0.67297769  0.34746718  0.18269080  1
  In  In6  1  0.66260846  0.32764959  0.98373818  1
  In  In7  1  0.66916347  0.32631054  0.48331584  1
  In  In8  1  0.33905436  0.66583889  0.01590665  1
  In  In9  1  0.32746914  0.66629920  0.51529222  1
  In  In10  1  0.32151668  0.66050721  0.31698329  1
  In  In11  1  0.33732628  0.66854842  0.81764507  1
  P  P0  1  0.69472472  0.69648934  0.25347785  1
  P  P1  1  0.99956591  0.29883571  0.24769637  1
  P  P2  1  0.30026647  0.29998994  0.75059709  1
  P  P3  1  0.99861236  0.70065817  0.75161132  1
  P  P4  1  0.70005271  0.00000311  0.74774955  1
  P  P5  1  0.96796921  0.33342230  0.58555448  1
  P  P6  1  0.36849928  0.03651781  0.58438722  1
  P  P7  1  0.66559468  0.63286053  0.58005248  1
  P  P8  1  0.96718394  0.63410854  0.07989283  1
  P  P9  1  0.66549650  0.03578330  0.08584585  1
  P  P10  1  0.36766375  0.33143917  0.08417666  1
  P  P11  1  0.03123205  0.36572499  0.91717649  1
  P  P12  1  0.33273007  0.96818690  0.91647195  1
  P  P13  1  0.63019133  0.96512800  0.41509654  1
  P  P14  1  0.03042468  0.66788783  0.41832285  1
  S  S0  1  0.30065978  0.00167098  0.24887963  1
  S  S1  1  0.63641725  0.66717373  0.91653278  1
  S  S2  1  0.33365832  0.36579345  0.41660597  1
  O  O0  1  0.21329931  0.01751853  0.30111266  1
  O  O1  1  0.79379713  0.77196910  0.31164518  1
  O  O2  1  0.97443647  0.18086346  0.30022560  1
  O  O3  1  0.22377613  0.18582086  0.80505732  1
  O  O4  1  0.97933086  0.78390916  0.80818136  1
  O  O5  1  0.81966811  0.02995938  0.79992893  1
  O  O6  1  0.77239926  0.97649122  0.68898532  1
  O  O7  1  0.18377862  0.22159695  0.69636114  1
  O  O8  1  0.02452449  0.80855421  0.69583110  1
  O  O9  1  0.78589643  0.81545484  0.20117707  1
  O  O10  1  0.02279545  0.22347762  0.18946612  1
  O  O11  1  0.20715313  0.98478033  0.19354722  1
  O  O12  1  0.89268275  0.36427307  0.64256236  1
  O  O13  1  0.47152634  0.11249953  0.64171098  1
  O  O14  1  0.64229940  0.52618391  0.63476896  1
  O  O15  1  0.88340960  0.51520703  0.13261691  1
  O  O16  1  0.63428680  0.11168237  0.14284850  1
  O  O17  1  0.47172199  0.35575488  0.14015045  1
  O  O18  1  0.44845010  0.30068012  0.02934094  1
  O  O19  1  0.86688350  0.56081901  0.02203321  1
  O  O20  1  0.70039792  0.15537946  0.03319183  1
  O  O21  1  0.45459196  0.14629813  0.53026219  1
  O  O22  1  0.69049509  0.55307203  0.52314847  1
  O  O23  1  0.84864427  0.30001835  0.53275262  1
  O  O24  1  0.55783284  0.68685700  0.97053154  1
  O  O25  1  0.13581695  0.44927929  0.97367108  1
  O  O26  1  0.31315885  0.85949540  0.97170084  1
  O  O27  1  0.54539487  0.85240126  0.46991082  1
  O  O28  1  0.30737171  0.44208415  0.47038274  1
  O  O29  1  0.12251320  0.68317498  0.47725702  1
  O  O30  1  0.11852348  0.64285976  0.36482856  1
  O  O31  1  0.52920905  0.87744165  0.35832580  1
  O  O32  1  0.35915963  0.47248069  0.36415704  1
  O  O33  1  0.11911857  0.47428945  0.86184015  1
  O  O34  1  0.35301681  0.88457344  0.85979676  1
  O  O35  1  0.53663673  0.64776873  0.86314929  1
  O  O36  1  0.01541053  0.83176230  0.41350468  1
  O  O37  1  0.81002225  0.98133650  0.41338757  1
  O  O38  1  0.18358397  0.19180534  0.41106864  1
  O  O39  1  0.00257420  0.18299390  0.91350045  1
  O  O40  1  0.16195734  0.97094665  0.91414862  1
  O  O41  1  0.81058535  0.81970432  0.91356263  1
  O  O42  1  0.98389782  0.17170551  0.58912007  1
  O  O43  1  0.18373901  0.00385505  0.58784599  1
  O  O44  1  0.83128457  0.81191246  0.58508418  1
  O  O45  1  0.99609032  0.81679580  0.08792129  1
  O  O46  1  0.82627007  0.01819027  0.08932885  1
  O  O47  1  0.18691701  0.16767494  0.08815509  1
  O  O48  1  0.68209453  0.16303122  0.74588583  1
  O  O49  1  0.47659595  0.31537793  0.74396314  1
  O  O50  1  0.84415004  0.51769385  0.74739488  1
  O  O51  1  0.67094628  0.51650190  0.24726259  1
  O  O52  1  0.83083262  0.30599440  0.24584542  1
  O  O53  1  0.47512855  0.15344728  0.24795833  1
  O  O54  1  0.65736289  0.51418702  0.91920502  1
  O  O55  1  0.85706845  0.36165268  0.91977770  1
  O  O56  1  0.48769727  0.15020066  0.91994521  1
  O  O57  1  0.64738931  0.14311699  0.41883043  1
  O  O58  1  0.49160079  0.35555726  0.42074100  1
  O  O59  1  0.84475638  0.51261063  0.41951035  1
  O  O60  1  0.33829145  0.48587717  0.07888543  1
  O  O61  1  0.14800450  0.65290280  0.07690993  1
  O  O62  1  0.50223420  0.85971635  0.07834738  1
  O  O63  1  0.35496995  0.85759106  0.57932626  1
  O  O64  1  0.51259605  0.66436694  0.57625947  1
  O  O65  1  0.14389537  0.49702608  0.57873921  1
  O  O66  1  0.32080756  0.84770982  0.25199848  1
  O  O67  1  0.51852697  0.68861316  0.25552231  1
  O  O68  1  0.15489717  0.48014284  0.25394691  1
  O  O69  1  0.31534882  0.47740687  0.75714263  1
  O  O70  1  0.16270398  0.68457681  0.75422862  1
  O  O71  1  0.51804874  0.84462061  0.75450437  1
loop_
_geom_bond_atom_site_label_1
_geom_bond_atom_site_label_2
_geom_bond_distance
_geom_bond_site_symmetry_2
Na0 O52 2.434229 1_565
Na0 O67 2.456886 1_555
Na0 O66 2.545031 1_555
Na0 O53 2.546596 1_565
Na0 O16 2.674423 1_565
Na0 O31 2.684027 1_555
Na0 O9 2.798601 1_555
Na0 O2 2.838330 1_565
Na1 O50 2.434136 1_555
Na1 O48 2.506334 1_555
Na1 O70 2.541695 1_655
Na1 O69 2.541783 1_655
Na1 O12 2.609390 1_555
Na1 O33 2.774456 1_655
Na1 O7 2.842624 1_655
Na1 O5 2.855984 1_555
Na2 O71 2.442027 1_555
Na2 O70 2.510125 1_555
Na2 O48 2.510785 1_565
Na2 O49 2.516774 1_565
Na2 O13 2.673182 1_565
Na2 O34 2.686400 1_555
Na2 O3 2.851301 1_565
Na2 O8 2.945232 1_555
Na3 O43 2.407299 1_565
Na3 O44 2.489706 1_455
Na3 O65 2.511449 1_555
Na3 O29 2.555895 1_555
Na3 O63 2.561005 1_555
Na3 O8 2.780553 1_555
Na4 O64 2.420010 1_555
Na4 O63 2.498460 1_555
Na4 O42 2.514599 1_565
Na4 O44 2.539946 1_555
Na4 O6 2.556796 1_555
Na4 O27 2.820061 1_555
Na4 O23 2.842737 1_565
Na4 O13 2.970673 1_565
Na5 O45 2.432579 1_455
Na5 O62 2.478420 1_555
Na5 O47 2.488911 1_565
Na5 O61 2.514609 1_555
Na5 O26 2.683778 1_554
Na5 O11 2.748725 1_555
Na5 O18 2.833361 1_565
Na5 O16 2.971330 1_565
Na6 O60 2.444741 1_555
Na6 O46 2.516970 1_455
Na6 O61 2.537105 1_555
Na6 O47 2.562283 1_555
Na6 O10 2.594219 1_555
Na6 O25 2.712770 1_554
Na6 O15 2.793520 1_455
Na6 O20 2.826777 1_455
Na7 O40 2.409729 1_655
Na7 O55 2.414735 1_555
Na7 O54 2.524898 1_555
Na7 O41 2.525047 1_555
Na7 O19 2.589589 1_556
Na7 O4 2.695498 1_555
Na7 O33 2.914154 1_655
Na7 O26 2.922643 1_655
Na8 O59 2.388851 1_555
Na8 O37 2.460862 1_555
Na8 O36 2.469061 1_655
Na8 O58 2.540055 1_555
Na8 O1 2.586024 1_555
Na8 O22 2.601281 1_555
Na8 O27 2.888511 1_555
Na8 O32 2.977099 1_555
Na9 O43 2.520968 1_555
Na9 O38 2.529359 1_555
Na9 O42 2.554257 1_455
Na9 O36 2.595933 1_545
Na9 O44 2.663795 1_445
Na9 O37 2.664467 1_445
Na10 O39 2.469475 1_655
Na10 O40 2.575153 1_645
Na10 O41 2.580419 1_545
Na10 O47 2.584886 1_656
Na10 O46 2.600037 1_556
Na10 O45 2.700954 1_546
Na11 O56 2.482758 1_555
Na11 O48 2.565207 1_555
Na11 O49 2.576000 1_555
Na11 O54 2.581461 1_555
Na11 O55 2.598561 1_555
Na11 O50 2.649731 1_555
Na12 O59 2.441894 1_555
Na12 O52 2.467447 1_555
Na12 O57 2.565703 1_555
Na12 O51 2.575435 1_555
Na12 O53 2.686474 1_555
Na12 O58 2.737236 1_555
Na13 O60 2.457139 1_555
Na13 O67 2.474940 1_555
Na13 O68 2.514716 1_555
Na13 O62 2.719342 1_555
Na13 O61 2.738313 1_555
Na13 O66 2.740974 1_555
Na14 O64 2.489887 1_555
Na14 O69 2.509614 1_555
Na14 O71 2.602888 1_555
Na14 O65 2.603561 1_555
Na14 O63 2.736741 1_555
Na14 O70 2.748652 1_555
In0 O2 2.096450 1_565
In0 O1 2.121460 1_555
In0 O37 2.170360 1_555
In0 O36 2.171011 1_655
In0 O0 2.197614 1_665
In0 O38 2.231307 1_665
In1 O3 2.088976 1_555
In1 O5 2.110791 1_455
In1 O39 2.147061 1_555
In1 O4 2.156124 1_445
In1 O40 2.198822 1_545
In1 O41 2.277102 1_445
In2 O7 2.106835 1_555
In2 O8 2.128139 1_545
In2 O6 2.155332 1_445
In2 O42 2.162601 1_455
In2 O43 2.191778 1_555
In2 O44 2.226867 1_445
In3 O9 2.092527 1_555
In3 O46 2.145325 1_565
In3 O10 2.147325 1_665
In3 O45 2.161761 1_555
In3 O47 2.218015 1_665
In3 O11 2.227674 1_655
In4 O14 2.093739 1_555
In4 O13 2.143632 1_555
In4 O49 2.147160 1_555
In4 O12 2.158839 1_555
In4 O50 2.186913 1_555
In4 O48 2.241386 1_555
In5 O15 2.090655 1_555
In5 O17 2.104795 1_555
In5 O51 2.127088 1_555
In5 O16 2.181407 1_555
In5 O52 2.193946 1_555
In5 O53 2.321293 1_555
In6 O20 2.093634 1_556
In6 O18 2.109639 1_556
In6 O56 2.155692 1_555
In6 O19 2.176478 1_556
In6 O55 2.189490 1_555
In6 O54 2.264399 1_555
In7 O23 2.092494 1_555
In7 O21 2.106162 1_555
In7 O57 2.146882 1_555
In7 O22 2.164001 1_555
In7 O59 2.197697 1_555
In7 O58 2.266646 1_555
In8 O25 2.132969 1_554
In8 O26 2.141886 1_554
In8 O24 2.162995 1_554
In8 O62 2.163953 1_555
In8 O60 2.174972 1_555
In8 O61 2.180058 1_555
In9 O27 2.122530 1_555
In9 O29 2.129034 1_555
In9 O65 2.162797 1_555
In9 O63 2.178655 1_555
In9 O64 2.188311 1_555
In9 O28 2.198271 1_555
In10 O30 2.078598 1_555
In10 O68 2.128519 1_555
In10 O31 2.142357 1_555
In10 O67 2.184519 1_555
In10 O32 2.187203 1_555
In10 O66 2.259706 1_555
In11 O34 2.119377 1_555
In11 O33 2.136530 1_555
In11 O69 2.140154 1_555
In11 O71 2.168933 1_555
In11 O35 2.176331 1_555
In11 O70 2.204150 1_555
O0 S0 1.475278 1_555
O1 P0 1.551627 1_555
O2 P1 1.546878 1_555
O3 P2 1.543049 1_555
O4 P3 1.543874 1_555
O5 P4 1.538839 1_555
O6 P4 1.550391 1_565
O7 P2 1.545820 1_555
O8 P3 1.550629 1_455
O9 P0 1.543510 1_555
O10 P1 1.550937 1_455
O11 S0 1.483154 1_565
O12 P5 1.554990 1_555
O13 P6 1.549372 1_555
O14 P7 1.528664 1_555
O15 P8 1.539663 1_555
O16 P9 1.557564 1_555
O17 P10 1.534593 1_555
O18 P10 1.541504 1_555
O19 P8 1.546996 1_555
O20 P9 1.542718 1_555
O21 P6 1.533048 1_555
O22 P7 1.552077 1_555
O23 P5 1.542886 1_555
O24 S1 1.475631 1_555
O25 P11 1.549879 1_555
O26 P12 1.555137 1_555
O27 P13 1.554458 1_555
O28 S2 1.480841 1_555
O29 P14 1.549542 1_555
O30 P14 1.534312 1_555
O31 P13 1.550924 1_555
O32 S2 1.483308 1_555
O33 P11 1.554162 1_555
O34 P12 1.550954 1_555
O35 S1 1.472467 1_555
O36 P14 1.564998 1_555
O37 P13 1.566905 1_555
O38 S2 1.487253 1_555
O39 P11 1.546999 1_555
O40 P12 1.566220 1_555
O41 S1 1.494440 1_555
O42 P5 1.548355 1_555
O43 P6 1.554595 1_555
O44 P7 1.571656 1_555
O45 P8 1.553863 1_555
O46 P9 1.549987 1_555
O47 P10 1.572340 1_555
O48 P4 1.569091 1_555
O49 P2 1.545286 1_555
O50 P3 1.549940 1_555
O51 P0 1.543187 1_555
O52 P1 1.568219 1_555
O53 S0 1.491840 1_555
O54 S1 1.495003 1_555
O55 P11 1.566342 1_655
O56 P12 1.545454 1_545
O57 P13 1.545615 1_545
O58 S2 1.487727 1_555
O59 P14 1.566397 1_655
O60 P10 1.558363 1_555
O61 P8 1.566929 1_455
O62 P9 1.551879 1_565
O63 P6 1.570286 1_565
O64 P7 1.556643 1_555
O65 P5 1.552412 1_455
O66 S0 1.499989 1_565
O67 P0 1.568008 1_555
O68 P1 1.547064 1_455
O69 P2 1.553229 1_555
O70 P3 1.571270 1_455
O71 P4 1.553897 1_565
