# generated using pymatgen
data_Sr3Co2Cl2O5
_symmetry_space_group_name_H-M   'P 1'
_cell_length_a   3.96118800
_cell_length_b   3.96118800
_cell_length_c   12.39741244
_cell_angle_alpha   99.19288827
_cell_angle_beta   99.19288827
_cell_angle_gamma   90.00000000
_symmetry_Int_Tables_number   1
_chemical_formula_structural   Sr3Co2Cl2O5
_chemical_formula_sum   'Sr3 Co2 Cl2 O5'
_cell_volume   189.49799429
_cell_formula_units_Z   1
loop_
 _symmetry_equiv_pos_site_id
 _symmetry_equiv_pos_as_xyz
  1  'x, y, z'
loop_
 _atom_site_type_symbol
 _atom_site_label
 _atom_site_symmetry_multiplicity
 _atom_site_fract_x
 _atom_site_fract_y
 _atom_site_fract_z
 _atom_site_occupancy
  Sr  Sr0  1  0.15287700  0.15287700  0.30575400  1
  Sr  Sr1  1  0.84712300  0.84712300  0.69424600  1
  Sr  Sr2  1  0.00000000  0.00000000  0.00000000  1
  Co  Co0  1  0.42342600  0.42342600  0.84685200  1
  Co  Co1  1  0.57657400  0.57657400  0.15314800  1
  Cl  Cl0  1  0.70108800  0.70108800  0.40217600  1
  Cl  Cl1  1  0.29891200  0.29891200  0.59782400  1
  O  O0  1  0.08632900  0.58632900  0.17265800  1
  O  O1  1  0.91367100  0.41367100  0.82734200  1
  O  O2  1  0.58632900  0.08632900  0.17265800  1
  O  O3  1  0.50000000  0.50000000  0.00000000  1
  O  O4  1  0.41367100  0.91367100  0.82734200  1
loop_
_geom_bond_atom_site_label_1
_geom_bond_atom_site_label_2
_geom_bond_distance
_geom_bond_site_symmetry_2
Co0 O3 1.849546 1_556
Co0 O4 1.994560 1_545
Co0 O1 1.994560 1_455
Co0 O1 1.994560 1_555
Co0 O4 1.994560 1_555
Co1 O3 1.849546 1_555
Co1 O0 1.994560 1_555
Co1 O2 1.994560 1_555
Co1 O0 1.994560 1_655
Co1 O2 1.994560 1_565
Cl0 Co1 3.007474 1_555
Cl0 Sr0 3.033398 1_555
Cl0 Sr0 3.033398 1_655
Cl0 Sr0 3.033398 1_565
Cl0 Sr0 3.033398 1_665
Cl0 Sr1 3.527286 1_555
Cl1 Co0 3.007474 1_555
Cl1 Sr1 3.033398 1_445
Cl1 Sr1 3.033398 1_545
Cl1 Sr1 3.033398 1_455
Cl1 Sr1 3.033398 1_555
Cl1 Sr0 3.527286 1_555
O0 Sr0 2.550769 1_565
O0 Sr0 2.550769 1_555
O0 Sr2 2.875876 1_565
O0 Sr2 2.875876 1_555
O1 Sr1 2.550769 1_545
O1 Sr1 2.550769 1_555
O1 Sr2 2.875876 1_656
O1 Sr2 2.875876 1_666
O2 Sr0 2.550769 1_655
O2 Sr0 2.550769 1_555
O2 Sr2 2.875876 1_555
O2 Sr2 2.875876 1_655
O3 Sr2 2.800983 1_565
O3 Sr2 2.800983 1_555
O3 Sr2 2.800983 1_655
O3 Sr2 2.800983 1_665
O4 Sr1 2.550769 1_455
O4 Sr1 2.550769 1_555
O4 Sr2 2.875876 1_566
O4 Sr2 2.875876 1_666
