# generated using pymatgen
data_Na3Hf3Sc(PO4)6
_symmetry_space_group_name_H-M   'P 1'
_cell_length_a   8.91385330
_cell_length_b   8.91294121
_cell_length_c   23.06823381
_cell_angle_alpha   89.98438823
_cell_angle_beta   90.00902867
_cell_angle_gamma   120.22661595
_symmetry_Int_Tables_number   1
_chemical_formula_structural   Na3Hf3Sc(PO4)6
_chemical_formula_sum   'Na9 Hf9 Sc3 P18 O72'
_cell_volume   1583.56255004
_cell_formula_units_Z   3
loop_
 _symmetry_equiv_pos_site_id
 _symmetry_equiv_pos_as_xyz
  1  'x, y, z'
loop_
 _atom_site_type_symbol
 _atom_site_label
 _atom_site_symmetry_multiplicity
 _atom_site_fract_x
 _atom_site_fract_y
 _atom_site_fract_z
 _atom_site_occupancy
  Na  Na0  1  0.36590073  0.36170968  0.24863207  1
  Na  Na1  1  0.63665316  0.63316720  0.74903164  1
  Na  Na2  1  0.96988056  0.29961900  0.41541027  1
  Na  Na3  1  0.00037553  0.99456804  0.49909816  1
  Na  Na4  1  0.99994650  0.99996412  0.00098603  1
  Na  Na5  1  0.66702453  0.32792545  0.83313967  1
  Na  Na6  1  0.66709370  0.33348585  0.33055914  1
  Na  Na7  1  0.33292146  0.67193265  0.16531467  1
  Na  Na8  1  0.32820086  0.66709526  0.66572281  1
  Hf  Hf0  1  0.00091032  0.00151872  0.85401087  1
  Hf  Hf1  1  0.00157951  0.00155338  0.64593274  1
  Hf  Hf2  1  0.99847695  0.99793382  0.14613303  1
  Hf  Hf3  1  0.66671407  0.33343472  0.98140269  1
  Hf  Hf4  1  0.66114920  0.33386510  0.48187625  1
  Hf  Hf5  1  0.33341075  0.66665616  0.02075734  1
  Hf  Hf6  1  0.33422349  0.66822142  0.52050900  1
  Hf  Hf7  1  0.33445692  0.67345259  0.31308684  1
  Hf  Hf8  1  0.32796377  0.66732175  0.81508913  1
  Sc  Sc0  1  0.99898387  0.99260355  0.35070454  1
  Sc  Sc1  1  0.66725260  0.32688292  0.68454177  1
  Sc  Sc2  1  0.67306475  0.33260540  0.18417111  1
  P  P0  1  0.29062683  0.00065858  0.24986414  1
  P  P1  1  0.71046123  0.70830126  0.25015698  1
  P  P2  1  0.99603395  0.28872267  0.25100403  1
  P  P3  1  0.29109421  0.29004733  0.75009205  1
  P  P4  1  0.00069064  0.70983714  0.74983258  1
  P  P5  1  0.71082857  0.00321350  0.75022349  1
  P  P6  1  0.95659879  0.33342275  0.58333645  1
  P  P7  1  0.37609124  0.04265247  0.58406849  1
  P  P8  1  0.66628822  0.62358743  0.58462264  1
  P  P9  1  0.95685324  0.62333170  0.08350041  1
  P  P10  1  0.66692266  0.04360384  0.08362461  1
  P  P11  1  0.37676938  0.33346688  0.08415405  1
  P  P12  1  0.62291470  0.66552567  0.91647822  1
  P  P13  1  0.04192683  0.37624702  0.91723587  1
  P  P14  1  0.33403321  0.95769907  0.91712295  1
  P  P15  1  0.62492183  0.95727984  0.41712141  1
  P  P16  1  0.33425667  0.37644926  0.41623755  1
  P  P17  1  0.04349786  0.66961866  0.41716473  1
  O  O0  1  0.20887329  0.03267095  0.30377298  1
  O  O1  1  0.82009581  0.79188653  0.30425669  1
  O  O2  1  0.97316833  0.18325352  0.30651500  1
  O  O3  1  0.20313353  0.17655449  0.80399438  1
  O  O4  1  0.96990542  0.79616735  0.80360165  1
  O  O5  1  0.82362837  0.02578819  0.80417680  1
  O  O6  1  0.79347587  0.96590437  0.69663364  1
  O  O7  1  0.17553731  0.20549005  0.69617228  1
  O  O8  1  0.02961752  0.82505940  0.69587762  1
  O  O9  1  0.79350555  0.82383520  0.19602261  1
  O  O10  1  0.03408889  0.20641581  0.19734510  1
  O  O11  1  0.17528333  0.97005160  0.19572041  1
  O  O12  1  0.87538576  0.36378546  0.63678481  1
  O  O13  1  0.48753948  0.12356821  0.63755485  1
  O  O14  1  0.63626564  0.51564728  0.63948438  1
  O  O15  1  0.87686980  0.51260657  0.13745119  1
  O  O16  1  0.63559744  0.12318744  0.13747816  1
  O  O17  1  0.48406224  0.36393051  0.13937961  1
  O  O18  1  0.46186247  0.30522941  0.02975793  1
  O  O19  1  0.84403286  0.53936719  0.02888290  1
  O  O20  1  0.69558064  0.15630966  0.02896539  1
  O  O21  1  0.45985046  0.15548004  0.52925375  1
  O  O22  1  0.69487004  0.53868484  0.53005843  1
  O  O23  1  0.84673536  0.30462757  0.52740868  1
  O  O24  1  0.53714782  0.69505730  0.96983791  1
  O  O25  1  0.15730193  0.46166681  0.97062524  1
  O  O26  1  0.30417944  0.84240409  0.97053775  1
  O  O27  1  0.53652001  0.84337325  0.47071266  1
  O  O28  1  0.30392465  0.46391004  0.46966186  1
  O  O29  1  0.15678825  0.69233813  0.47083347  1
  O  O30  1  0.12623635  0.63254151  0.36359753  1
  O  O31  1  0.50954384  0.87303536  0.36323321  1
  O  O32  1  0.36289430  0.48842649  0.36118767  1
  O  O33  1  0.12733836  0.48911841  0.86278770  1
  O  O34  1  0.36160204  0.87245724  0.86273550  1
  O  O35  1  0.51314202  0.63856865  0.86089681  1
  O  O36  1  0.02333077  0.82873889  0.41101029  1
  O  O37  1  0.80859514  0.98385249  0.41109579  1
  O  O38  1  0.16802578  0.19777026  0.41077150  1
  O  O39  1  0.02379659  0.19542026  0.90919227  1
  O  O40  1  0.17139014  0.97573342  0.90894718  1
  O  O41  1  0.80496523  0.82867516  0.90897568  1
  O  O42  1  0.97630584  0.17060484  0.59017205  1
  O  O43  1  0.19365614  0.02305740  0.59011375  1
  O  O44  1  0.82982118  0.80684790  0.59026379  1
  O  O45  1  0.97704790  0.80618533  0.08993522  1
  O  O46  1  0.82946518  0.02348766  0.09022238  1
  O  O47  1  0.19302007  0.17032733  0.09016310  1
  O  O48  1  0.68997758  0.16167535  0.74416364  1
  O  O49  1  0.47484245  0.31696995  0.74410685  1
  O  O50  1  0.83470360  0.53145196  0.74386853  1
  O  O51  1  0.68076992  0.52317558  0.24365071  1
  O  O52  1  0.83855593  0.31197522  0.24385939  1
  O  O53  1  0.47045508  0.16535596  0.24330260  1
  O  O54  1  0.64246897  0.50370971  0.92362556  1
  O  O55  1  0.86067142  0.35689784  0.92373666  1
  O  O56  1  0.49645855  0.13950002  0.92372199  1
  O  O57  1  0.64705867  0.14203635  0.42415022  1
  O  O58  1  0.49706798  0.35878050  0.42385254  1
  O  O59  1  0.86393640  0.49901799  0.42430432  1
  O  O60  1  0.35578124  0.49486381  0.07506220  1
  O  O61  1  0.13945717  0.64474515  0.07500555  1
  O  O62  1  0.50521756  0.86047144  0.07503153  1
  O  O63  1  0.35524532  0.86058391  0.57544505  1
  O  O64  1  0.50499677  0.64409091  0.57529369  1
  O  O65  1  0.13996376  0.49501202  0.57517925  1
  O  O66  1  0.30834137  0.83697308  0.25692476  1
  O  O67  1  0.52430639  0.68577269  0.25712665  1
  O  O68  1  0.16774434  0.47038154  0.25740977  1
  O  O69  1  0.31377695  0.47517012  0.75730672  1
  O  O70  1  0.16337546  0.69188641  0.75708577  1
  O  O71  1  0.53086246  0.83258775  0.75744306  1
loop_
_geom_bond_atom_site_label_1
_geom_bond_atom_site_label_2
_geom_bond_distance
_geom_bond_site_symmetry_2
Na0 O53 2.364082 1_555
Na0 O68 2.412857 1_555
Na0 O51 2.427967 1_555
Na0 O67 2.503735 1_555
Na0 O17 2.727877 1_555
Na0 O10 2.818078 1_555
Na0 O0 2.836094 1_555
Na0 O32 2.837252 1_555
Na1 O50 2.358864 1_555
Na1 O71 2.402909 1_555
Na1 O49 2.437869 1_555
Na1 O69 2.494424 1_555
Na1 O14 2.735141 1_555
Na1 O35 2.815654 1_555
Na1 O6 2.834579 1_555
Na1 O4 2.859053 1_555
Na2 O38 2.359983 1_655
Na2 O59 2.404702 1_555
Na2 O37 2.433912 1_545
Na2 O57 2.494910 1_555
Na2 O2 2.723758 1_555
Na2 O23 2.816424 1_555
Na2 O30 2.830316 1_655
Na2 O28 2.861202 1_655
Na3 O36 2.581056 1_555
Na3 O37 2.624364 1_455
Na3 O38 2.634175 1_565
Na3 O44 2.640350 1_455
Na3 O43 2.645684 1_565
Na3 O42 2.694908 1_465
Na4 O47 2.620863 1_665
Na4 O45 2.622637 1_555
Na4 O46 2.629225 1_565
Na4 O41 2.680602 1_554
Na4 O39 2.681268 1_664
Na4 O40 2.687667 1_654
Na5 O48 2.599500 1_555
Na5 O56 2.631848 1_555
Na5 O55 2.639004 1_555
Na5 O49 2.644425 1_555
Na5 O50 2.652273 1_555
Na5 O54 2.684562 1_555
Na6 O52 2.582436 1_555
Na6 O51 2.585215 1_555
Na6 O53 2.593344 1_555
Na6 O57 2.701131 1_555
Na6 O58 2.706425 1_555
Na6 O59 2.706678 1_555
Na7 O62 2.630728 1_555
Na7 O61 2.636491 1_555
Na7 O66 2.646534 1_555
Na7 O60 2.681892 1_555
Na7 O67 2.682977 1_555
Na7 O68 2.691499 1_555
Na8 O65 2.634375 1_555
Na8 O63 2.636062 1_555
Na8 O70 2.641488 1_555
Na8 O69 2.680080 1_555
Na8 O64 2.683984 1_555
Na8 O71 2.689512 1_555
Hf0 O3 2.045156 1_555
Hf0 O5 2.051593 1_455
Hf0 O4 2.066471 1_445
Hf0 O39 2.072417 1_555
Hf0 O40 2.078215 1_545
Hf0 O41 2.078971 1_445
Hf1 O7 2.052874 1_555
Hf1 O8 2.063792 1_545
Hf1 O43 2.072766 1_555
Hf1 O42 2.077554 1_455
Hf1 O6 2.077730 1_445
Hf1 O44 2.080927 1_445
Hf2 O9 2.053227 1_555
Hf2 O11 2.061002 1_655
Hf2 O45 2.076143 1_555
Hf2 O46 2.080803 1_565
Hf2 O47 2.086143 1_665
Hf2 O10 2.087211 1_665
Hf3 O19 2.036278 1_556
Hf3 O20 2.042133 1_556
Hf3 O18 2.044532 1_556
Hf3 O56 2.102591 1_555
Hf3 O55 2.106886 1_555
Hf3 O54 2.110785 1_555
Hf4 O21 2.017249 1_555
Hf4 O22 2.026541 1_555
Hf4 O58 2.075172 1_555
Hf4 O23 2.083546 1_555
Hf4 O57 2.120679 1_555
Hf4 O59 2.125731 1_555
Hf5 O62 2.057659 1_555
Hf5 O25 2.062198 1_554
Hf5 O61 2.062468 1_555
Hf5 O60 2.063941 1_555
Hf5 O26 2.067252 1_554
Hf5 O24 2.068723 1_554
Hf6 O27 2.042952 1_555
Hf6 O29 2.050001 1_555
Hf6 O63 2.063566 1_555
Hf6 O28 2.066577 1_555
Hf6 O65 2.068901 1_555
Hf6 O64 2.071119 1_555
Hf7 O31 2.035582 1_555
Hf7 O66 2.048731 1_555
Hf7 O30 2.062663 1_555
Hf7 O67 2.087066 1_555
Hf7 O68 2.103921 1_555
Hf7 O32 2.105919 1_555
Hf8 O33 2.017773 1_555
Hf8 O34 2.022346 1_555
Hf8 O70 2.076858 1_555
Hf8 O35 2.081385 1_555
Hf8 O69 2.123433 1_555
Hf8 O71 2.127565 1_555
O0 P0 1.539089 1_555
O0 Sc0 2.031671 1_445
O1 P1 1.527944 1_555
O1 Sc0 2.004868 1_555
O2 P2 1.539973 1_555
O2 Sc0 2.090985 1_545
O3 P3 1.544408 1_555
O4 P4 1.555338 1_655
O5 P5 1.548087 1_555
O6 P5 1.558438 1_565
O7 P3 1.547457 1_555
O8 P4 1.550188 1_555
O9 P1 1.549165 1_555
O10 P2 1.560961 1_455
O11 P0 1.552065 1_565
O12 P6 1.521577 1_555
O12 Sc1 2.037138 1_555
O13 P7 1.519250 1_555
O13 Sc1 2.025491 1_555
O14 P8 1.529397 1_555
O14 Sc1 2.110476 1_555
O15 P9 1.523924 1_555
O15 Sc2 2.025079 1_555
O16 P10 1.524612 1_555
O16 Sc2 2.031996 1_555
O17 P11 1.532880 1_555
O17 Sc2 2.111119 1_555
O18 P11 1.551107 1_555
O19 P9 1.549580 1_555
O20 P10 1.550886 1_555
O21 P7 1.552829 1_555
O22 P8 1.554546 1_555
O23 P6 1.560812 1_555
O24 P12 1.540127 1_555
O25 P13 1.538155 1_555
O26 P14 1.539212 1_555
O27 P15 1.540820 1_555
O28 P16 1.553201 1_555
O29 P17 1.545125 1_555
O30 P17 1.557562 1_555
O31 P15 1.545778 1_555
O32 P16 1.554609 1_555
O33 P13 1.548469 1_555
O34 P14 1.549289 1_555
O35 P12 1.556341 1_555
O36 P17 1.523294 1_555
O36 Sc0 2.105572 1_455
O37 P15 1.538049 1_555
O37 Sc0 2.166660 1_555
O38 P16 1.540084 1_555
O38 Sc0 2.181938 1_445
O39 P13 1.547909 1_555
O40 P14 1.548479 1_555
O41 P12 1.549817 1_555
O42 P6 1.555056 1_555
O43 P7 1.551958 1_555
O44 P8 1.553244 1_555
O45 P9 1.554126 1_555
O46 P10 1.554360 1_555
O47 P11 1.555088 1_555
O48 P5 1.520867 1_555
O48 Sc1 2.097622 1_555
O49 P3 1.537436 1_555
O49 Sc1 2.164619 1_555
O50 P4 1.538671 1_655
O50 Sc1 2.164704 1_555
O51 P1 1.541284 1_555
O51 Sc2 2.157816 1_555
O52 P2 1.527551 1_555
O52 Sc2 2.092393 1_555
O53 P0 1.542092 1_555
O53 Sc2 2.152574 1_555
O54 P12 1.546170 1_555
O55 P13 1.543432 1_655
O56 P14 1.543698 1_545
O57 P15 1.565216 1_545
O58 P16 1.546569 1_555
O59 P17 1.565439 1_655
O60 P11 1.555353 1_555
O61 P9 1.552915 1_455
O62 P10 1.553205 1_565
O63 P7 1.550495 1_565
O64 P8 1.552801 1_555
O65 P6 1.552750 1_455
O66 P0 1.552970 1_565
O67 P1 1.576144 1_555
O68 P2 1.578287 1_455
O69 P3 1.566935 1_555
O70 P4 1.545974 1_555
O71 P5 1.567662 1_565
