# generated using pymatgen
data_HfAl2O5
_symmetry_space_group_name_H-M   'P 1'
_cell_length_a   5.14128607
_cell_length_b   5.14128607
_cell_length_c   10.28820100
_cell_angle_alpha   90.00000000
_cell_angle_beta   90.00000000
_cell_angle_gamma   138.25045513
_symmetry_Int_Tables_number   1
_chemical_formula_structural   HfAl2O5
_chemical_formula_sum   'Hf2 Al4 O10'
_cell_volume   181.08237063
_cell_formula_units_Z   2
loop_
 _symmetry_equiv_pos_site_id
 _symmetry_equiv_pos_as_xyz
  1  'x, y, z'
loop_
 _atom_site_type_symbol
 _atom_site_label
 _atom_site_symmetry_multiplicity
 _atom_site_fract_x
 _atom_site_fract_y
 _atom_site_fract_z
 _atom_site_occupancy
  Hf  Hf0  1  0.81283400  0.18716600  0.25000000  1
  Hf  Hf1  1  0.18716600  0.81283400  0.75000000  1
  Al  Al0  1  0.86314700  0.13685300  0.95263500  1
  Al  Al1  1  0.13685300  0.86314700  0.04736500  1
  Al  Al2  1  0.86314700  0.13685300  0.54736500  1
  Al  Al3  1  0.13685300  0.86314700  0.45263500  1
  O  O0  1  0.69052700  0.30947300  0.06265600  1
  O  O1  1  0.30947300  0.69052700  0.93734400  1
  O  O2  1  0.30947300  0.69052700  0.56265600  1
  O  O3  1  0.69052700  0.30947300  0.43734400  1
  O  O4  1  0.96000600  0.03999400  0.11312100  1
  O  O5  1  0.03999400  0.96000600  0.88687900  1
  O  O6  1  0.22491600  0.77508400  0.25000000  1
  O  O7  1  0.77508400  0.22491600  0.75000000  1
  O  O8  1  0.96000600  0.03999400  0.38687900  1
  O  O9  1  0.03999400  0.96000600  0.61312100  1
loop_
_geom_bond_atom_site_label_1
_geom_bond_atom_site_label_2
_geom_bond_distance
_geom_bond_site_symmetry_2
Hf0 O8 1.995611 1_555
Hf0 O4 1.995611 1_555
Hf0 O6 2.017333 1_545
Hf0 O6 2.017333 1_655
Hf0 O3 2.257391 1_555
Hf0 O0 2.257391 1_555
Hf1 O5 1.995611 1_555
Hf1 O9 1.995611 1_555
Hf1 O7 2.017333 1_565
Hf1 O7 2.017333 1_455
Hf1 O1 2.257391 1_555
Hf1 O2 2.257391 1_555
Al0 O5 1.828810 1_645
Al0 O4 1.895300 1_556
Al0 O1 1.909664 1_545
Al0 O1 1.909664 1_655
Al0 O0 2.007925 1_556
Al0 O7 2.249895 1_555
Al1 O4 1.828810 1_465
Al1 O5 1.895300 1_554
Al1 O0 1.909664 1_565
Al1 O0 1.909664 1_455
Al1 O1 2.007925 1_554
Al1 O6 2.249895 1_555
Al2 O9 1.828810 1_645
Al2 O8 1.895300 1_555
Al2 O2 1.909664 1_545
Al2 O2 1.909664 1_655
Al2 O3 2.007925 1_555
Al2 O7 2.249895 1_555
Al3 O8 1.828810 1_465
Al3 O9 1.895300 1_555
Al3 O3 1.909664 1_565
Al3 O3 1.909664 1_455
Al3 O2 2.007925 1_555
Al3 O6 2.249895 1_555
