# generated using pymatgen
data_MgZn2Co2(PO5)2
_symmetry_space_group_name_H-M   'P 1'
_cell_length_a   5.54355139
_cell_length_b   7.33528944
_cell_length_c   7.86634085
_cell_angle_alpha   92.13551924
_cell_angle_beta   44.78191439
_cell_angle_gamma   72.71007856
_symmetry_Int_Tables_number   1
_chemical_formula_structural   MgZn2Co2(PO5)2
_chemical_formula_sum   'Mg1 Zn2 Co2 P2 O10'
_cell_volume   199.95322026
_cell_formula_units_Z   1
loop_
 _symmetry_equiv_pos_site_id
 _symmetry_equiv_pos_as_xyz
  1  'x, y, z'
loop_
 _atom_site_type_symbol
 _atom_site_label
 _atom_site_symmetry_multiplicity
 _atom_site_fract_x
 _atom_site_fract_y
 _atom_site_fract_z
 _atom_site_occupancy
  Mg  Mg0  1  0.99925794  0.98576360  0.49543577  1
  Zn  Zn0  1  0.19044131  0.25776399  0.86981419  1
  Zn  Zn1  1  0.80785791  0.71386538  0.12148169  1
  Co  Co0  1  0.49914733  0.48575395  0.99565574  1
  Co  Co1  1  0.49939092  0.98564799  0.99534327  1
  P  P0  1  0.53832342  0.22152134  0.35924452  1
  P  P1  1  0.46011000  0.74997990  0.63175585  1
  O  O0  1  0.48087436  0.05066383  0.28394710  1
  O  O1  1  0.63257218  0.34898746  0.18309558  1
  O  O2  1  0.51730499  0.92100716  0.70698166  1
  O  O3  1  0.36549756  0.62278112  0.80822120  1
  O  O4  1  0.84020426  0.61666126  0.33843205  1
  O  O5  1  0.12341462  0.84667403  0.67456038  1
  O  O6  1  0.15839963  0.35466499  0.65263182  1
  O  O7  1  0.87521772  0.12468553  0.31618577  1
  O  O8  1  0.44494898  0.74961811  0.13167917  1
  O  O9  1  0.55376588  0.22182936  0.85921825  1
loop_
_geom_bond_atom_site_label_1
_geom_bond_atom_site_label_2
_geom_bond_distance
_geom_bond_site_symmetry_2
Mg0 O9 2.083931 1_565
Mg0 O8 2.084039 1_655
Mg0 O7 2.136924 1_565
Mg0 O5 2.136948 1_655
Mg0 O0 2.152134 1_665
Mg0 O2 2.152851 1_555
Co0 O8 2.006248 1_556
Co0 O9 2.006722 1_555
Co0 O1 2.223719 1_556
Co0 O3 2.225237 1_555
Co0 O4 2.296918 1_456
Co0 O6 2.297929 1_655
Co1 O8 2.056289 1_556
Co1 O9 2.056541 1_565
Co1 O5 2.166516 1_655
Co1 O7 2.167023 1_466
Co1 O0 2.225183 1_566
Co1 O2 2.225348 1_555
O0 P0 1.572485 1_555
O0 Zn1 2.199241 1_545
O1 P0 1.557700 1_555
O1 Zn0 1.978108 1_654
O2 P1 1.572264 1_555
O2 Zn0 2.198798 1_565
O3 P1 1.557704 1_555
O3 Zn1 1.977529 1_456
O4 P1 1.557353 1_555
O4 Zn1 1.975389 1_555
O5 P1 1.550270 1_555
O6 P0 1.557275 1_555
O6 Zn0 1.975287 1_555
O7 P0 1.550065 1_555
O8 Zn1 1.891637 1_555
O9 Zn0 1.891436 1_555
