# generated using pymatgen
data_MgCrGaO4
_symmetry_space_group_name_H-M   'P 1'
_cell_length_a   5.23731867
_cell_length_b   6.01717959
_cell_length_c   5.23421229
_cell_angle_alpha   102.23534585
_cell_angle_beta   75.90465588
_cell_angle_gamma   150.51403822
_symmetry_Int_Tables_number   1
_chemical_formula_structural   MgCrGaO4
_chemical_formula_sum   'Mg1 Cr1 Ga1 O4'
_cell_volume   78.74577975
_cell_formula_units_Z   1
loop_
 _symmetry_equiv_pos_site_id
 _symmetry_equiv_pos_as_xyz
  1  'x, y, z'
loop_
 _atom_site_type_symbol
 _atom_site_label
 _atom_site_symmetry_multiplicity
 _atom_site_fract_x
 _atom_site_fract_y
 _atom_site_fract_z
 _atom_site_occupancy
  Mg  Mg0  1  0.20412438  0.99964870  0.20223154  1
  Cr  Cr0  1  0.53170114  0.99969669  0.52629638  1
  Ga  Ga0  1  0.41683437  0.49956710  0.91088957  1
  O  O0  1  0.19257315  0.99951746  0.81767308  1
  O  O1  1  0.19522238  0.49971371  0.68734389  1
  O  O2  1  0.82174941  0.99971345  0.18651819  1
  O  O3  1  0.85686017  0.49967788  0.35256535  1
loop_
_geom_bond_atom_site_label_1
_geom_bond_atom_site_label_2
_geom_bond_distance
_geom_bond_site_symmetry_2
Mg0 O3 1.938611 1_455
Mg0 O3 1.938649 1_565
Mg0 O2 2.024561 1_455
Mg0 O0 2.028256 1_554
Cr0 O1 1.997086 1_665
Cr0 O1 1.997109 1_555
Cr0 O2 2.038251 1_555
Cr0 O0 2.039264 1_555
Cr0 O3 2.064865 1_455
Cr0 O3 2.064885 1_565
Ga0 O1 1.838453 1_555
Ga0 O2 2.042226 1_446
Ga0 O0 2.042727 1_655
Ga0 O2 2.043165 1_556
Ga0 O0 2.043353 1_545
