# generated using pymatgen
data_MgAlAg(WO4)2
_symmetry_space_group_name_H-M   'P 1'
_cell_length_a   5.57013377
_cell_length_b   6.01425732
_cell_length_c   5.94506949
_cell_angle_alpha   101.14943631
_cell_angle_beta   124.59747179
_cell_angle_gamma   94.13556804
_symmetry_Int_Tables_number   1
_chemical_formula_structural   MgAlAg(WO4)2
_chemical_formula_sum   'Mg1 Al1 Ag1 W2 O8'
_cell_volume   156.71414895
_cell_formula_units_Z   1
loop_
 _symmetry_equiv_pos_site_id
 _symmetry_equiv_pos_as_xyz
  1  'x, y, z'
loop_
 _atom_site_type_symbol
 _atom_site_label
 _atom_site_symmetry_multiplicity
 _atom_site_fract_x
 _atom_site_fract_y
 _atom_site_fract_z
 _atom_site_occupancy
  Mg  Mg0  1  0.89657704  0.84568942  0.70655299  1
  Al  Al0  1  0.61754363  0.65125783  0.01836358  1
  Ag  Ag0  1  0.22167207  0.47581692  0.23488745  1
  W  W0  1  0.87206767  0.33802385  0.57140219  1
  W  W1  1  0.34616985  0.05953306  0.59734233  1
  O  O0  1  0.19792689  0.61938101  0.85185574  1
  O  O1  1  0.67785028  0.56268464  0.34153127  1
  O  O2  1  0.17792459  0.14090473  0.81701280  1
  O  O3  1  0.58645756  0.04964317  0.42776173  1
  O  O4  1  0.61376342  0.85838155  0.81806664  1
  O  O5  1  0.02990165  0.80909139  0.30743459  1
  O  O6  1  0.03326691  0.24916495  0.36626534  1
  O  O7  1  0.63737945  0.38796948  0.80428535  1
loop_
_geom_bond_atom_site_label_1
_geom_bond_atom_site_label_2
_geom_bond_distance
_geom_bond_site_symmetry_2
Mg0 O2 2.004657 1_665
Mg0 O4 2.027487 1_555
Mg0 O1 2.088210 1_555
Mg0 O0 2.133984 1_655
Mg0 O3 2.253038 1_565
Al0 O4 1.875935 1_554
Al0 O7 1.882803 1_554
Al0 O5 1.924106 1_655
Al0 O0 1.927229 1_554
Al0 O1 1.943333 1_555
Ag0 O6 2.169280 1_555
Ag0 O1 2.232134 1_555
Ag0 O5 2.417090 1_555
Ag0 O0 2.526510 1_554
Ag0 O7 2.681844 1_454
Ag0 O2 2.755867 1_554
O0 W0 1.991732 1_455
O1 W0 2.027217 1_555
O2 W1 2.008009 1_555
O2 W0 2.139117 1_455
O3 W0 1.937715 1_555
O3 W1 2.081346 1_555
O4 W1 2.014954 1_565
O5 W1 1.872955 1_565
O6 W0 1.907836 1_455
O6 W1 2.097445 1_555
O7 W1 2.092443 1_555
O7 W0 2.380570 1_555
