# generated using pymatgen
data_Na6Y3TaSi2(PO6)4
_symmetry_space_group_name_H-M   'P 1'
_cell_length_a   9.30327427
_cell_length_b   9.32458413
_cell_length_c   22.78608196
_cell_angle_alpha   90.14470473
_cell_angle_beta   90.05084557
_cell_angle_gamma   120.06815781
_symmetry_Int_Tables_number   1
_chemical_formula_structural   Na6Y3TaSi2(PO6)4
_chemical_formula_sum   'Na18 Y9 Ta3 Si6 P12 O72'
_cell_volume   1710.66184685
_cell_formula_units_Z   3
loop_
 _symmetry_equiv_pos_site_id
 _symmetry_equiv_pos_as_xyz
  1  'x, y, z'
loop_
 _atom_site_type_symbol
 _atom_site_label
 _atom_site_symmetry_multiplicity
 _atom_site_fract_x
 _atom_site_fract_y
 _atom_site_fract_z
 _atom_site_occupancy
  Na  Na0  1  0.99072835  0.98389606  0.50483976  1
  Na  Na1  1  0.95540616  0.98020621  0.99491582  1
  Na  Na2  1  0.66196252  0.34082254  0.82963060  1
  Na  Na3  1  0.65495023  0.33226171  0.32842407  1
  Na  Na4  1  0.32911131  0.64286879  0.16657841  1
  Na  Na5  1  0.33491445  0.66316589  0.67048468  1
  Na  Na6  1  0.65940434  0.01215424  0.24277886  1
  Na  Na7  1  0.00305040  0.33850096  0.74553182  1
  Na  Na8  1  0.35598169  0.01263914  0.75468460  1
  Na  Na9  1  0.30498969  0.33271059  0.59374943  1
  Na  Na10  1  0.66313800  0.96878701  0.58486281  1
  Na  Na11  1  0.29014723  0.95474161  0.07815686  1
  Na  Na12  1  0.03833464  0.33927607  0.07520585  1
  Na  Na13  1  0.99851160  0.68448252  0.91678827  1
  Na  Na14  1  0.31302047  0.29094605  0.91239650  1
  Na  Na15  1  0.96030599  0.28662918  0.41211037  1
  Na  Na16  1  0.33815169  0.03759512  0.40560906  1
  Na  Na17  1  0.70056333  0.68186464  0.41702708  1
  Y  Y0  1  0.00342012  0.99956175  0.34549104  1
  Y  Y1  1  0.99311942  0.99629221  0.85068846  1
  Y  Y2  1  0.99541288  0.99127245  0.65418776  1
  Y  Y3  1  0.00029284  0.99337473  0.14854832  1
  Y  Y4  1  0.67262940  0.34776687  0.68414165  1
  Y  Y5  1  0.66346897  0.34209764  0.18693668  1
  Y  Y6  1  0.66852472  0.33533273  0.48145101  1
  Y  Y7  1  0.34641123  0.67002118  0.01799186  1
  Y  Y8  1  0.32663864  0.66814577  0.51940856  1
  Ta  Ta0  1  0.66611141  0.33354261  0.97610837  1
  Ta  Ta1  1  0.33192737  0.67238369  0.31288197  1
  Ta  Ta2  1  0.34123759  0.66579175  0.82131789  1
  Si  Si0  1  0.30749963  0.99649108  0.25151248  1
  Si  Si1  1  0.30453263  0.31200004  0.75208715  1
  Si  Si2  1  0.63401288  0.65954717  0.92016411  1
  Si  Si3  1  0.03213073  0.37196968  0.92052705  1
  Si  Si4  1  0.34017386  0.96516200  0.92037360  1
  Si  Si5  1  0.63005013  0.96445491  0.41787150  1
  P  P0  1  0.68741724  0.69974512  0.25655980  1
  P  P1  1  0.00932417  0.31032134  0.24986152  1
  P  P2  1  0.01676647  0.69536425  0.75739486  1
  P  P3  1  0.68412101  0.99057459  0.74742421  1
  P  P4  1  0.96869150  0.32380439  0.58397677  1
  P  P5  1  0.36230203  0.03636366  0.58369869  1
  P  P6  1  0.66896485  0.64056779  0.57718334  1
  P  P7  1  0.95452677  0.62826182  0.07908832  1
  P  P8  1  0.67538286  0.05481286  0.08362594  1
  P  P9  1  0.36853379  0.32334359  0.07900573  1
  P  P10  1  0.33410708  0.37771277  0.41541631  1
  P  P11  1  0.03623876  0.66248254  0.41274772  1
  O  O0  1  0.22534523  0.01126716  0.31231557  1
  O  O1  1  0.77109918  0.77262966  0.31594779  1
  O  O2  1  0.98021719  0.20192453  0.30504976  1
  O  O3  1  0.21581322  0.19428049  0.80822627  1
  O  O4  1  0.99179893  0.76362956  0.81494147  1
  O  O5  1  0.81161862  0.02198333  0.79530240  1
  O  O6  1  0.74690587  0.96474650  0.68757144  1
  O  O7  1  0.18630418  0.23236560  0.69298645  1
  O  O8  1  0.03405764  0.81037342  0.70566237  1
  O  O9  1  0.78012274  0.82483611  0.20643117  1
  O  O10  1  0.02878785  0.22633755  0.19420367  1
  O  O11  1  0.19449303  0.97374978  0.19360377  1
  O  O12  1  0.87735730  0.32675435  0.63976326  1
  O  O13  1  0.46537032  0.13289874  0.63791735  1
  O  O14  1  0.66507385  0.52696147  0.62652708  1
  O  O15  1  0.86045064  0.52852922  0.13231873  1
  O  O16  1  0.67578400  0.13491786  0.14216926  1
  O  O17  1  0.46393830  0.32589822  0.13328778  1
  O  O18  1  0.47374426  0.32583917  0.02344934  1
  O  O19  1  0.85009583  0.53070419  0.02233288  1
  O  O20  1  0.67795434  0.17331107  0.03218950  1
  O  O21  1  0.44849342  0.13475333  0.52666839  1
  O  O22  1  0.67786475  0.56776820  0.51682040  1
  O  O23  1  0.87266613  0.32362424  0.52774841  1
  O  O24  1  0.55741285  0.68550483  0.97874919  1
  O  O25  1  0.13370504  0.44930830  0.98031363  1
  O  O26  1  0.30119850  0.85689223  0.97921436  1
  O  O27  1  0.54863509  0.86311393  0.47786138  1
  O  O28  1  0.31585298  0.44994434  0.47357869  1
  O  O29  1  0.13407368  0.67925296  0.46847662  1
  O  O30  1  0.14376824  0.65876837  0.35961614  1
  O  O31  1  0.50154638  0.84337415  0.36236083  1
  O  O32  1  0.33224632  0.49013822  0.36425140  1
  O  O33  1  0.14514710  0.50731542  0.86603966  1
  O  O34  1  0.36260178  0.86016111  0.86435004  1
  O  O35  1  0.50407752  0.64273138  0.86486695  1
  O  O36  1  0.01086939  0.81340827  0.40982567  1
  O  O37  1  0.81678693  0.99014303  0.41296533  1
  O  O38  1  0.18520802  0.19881482  0.41057850  1
  O  O39  1  0.00701450  0.19037202  0.91062059  1
  O  O40  1  0.18902745  0.00017474  0.90982563  1
  O  O41  1  0.82492244  0.79939254  0.91235592  1
  O  O42  1  0.97493201  0.15977131  0.58206949  1
  O  O43  1  0.18967670  0.02369963  0.58561623  1
  O  O44  1  0.81988866  0.81787024  0.58268889  1
  O  O45  1  0.97737851  0.80464934  0.07788957  1
  O  O46  1  0.83677865  0.04733989  0.07714885  1
  O  O47  1  0.19776660  0.15923092  0.07530848  1
  O  O48  1  0.65654272  0.14203243  0.74666625  1
  O  O49  1  0.48965008  0.33516171  0.74799206  1
  O  O50  1  0.87758739  0.51264760  0.74900853  1
  O  O51  1  0.66580155  0.52836485  0.24915125  1
  O  O52  1  0.85968429  0.33630194  0.24601928  1
  O  O53  1  0.50161880  0.14219692  0.24973645  1
  O  O54  1  0.62490213  0.47447768  0.92042879  1
  O  O55  1  0.85104912  0.37035358  0.92259894  1
  O  O56  1  0.51444893  0.14909974  0.92609069  1
  O  O57  1  0.63495539  0.14298031  0.41310828  1
  O  O58  1  0.49960793  0.37492093  0.41183500  1
  O  O59  1  0.86757182  0.49884368  0.41038064  1
  O  O60  1  0.33709894  0.47128117  0.08123942  1
  O  O61  1  0.12884582  0.64284800  0.08019724  1
  O  O62  1  0.51408393  0.88492654  0.08102110  1
  O  O63  1  0.35152388  0.86501969  0.58491555  1
  O  O64  1  0.50651086  0.64963095  0.58401652  1
  O  O65  1  0.14898838  0.47329622  0.58562172  1
  O  O66  1  0.32072592  0.82030345  0.25729603  1
  O  O67  1  0.50893174  0.68352555  0.25774301  1
  O  O68  1  0.17337250  0.48214828  0.25850880  1
  O  O69  1  0.30924115  0.49302810  0.76212993  1
  O  O70  1  0.18640732  0.69574625  0.75925408  1
  O  O71  1  0.51106716  0.83336440  0.76025337  1
loop_
_geom_bond_atom_site_label_1
_geom_bond_atom_site_label_2
_geom_bond_distance
_geom_bond_site_symmetry_2
Na0 O44 2.371220 1_555
Na0 O42 2.456670 1_565
Na0 O43 2.500669 1_665
Na0 O37 2.663395 1_555
Na0 O36 2.744338 1_655
Na0 O38 2.880662 1_665
Na1 O41 2.405046 1_555
Na1 O46 2.410579 1_566
Na1 O45 2.578051 1_556
Na1 O39 2.614975 1_665
Na1 O47 2.726117 1_666
Na1 O40 2.849829 1_665
Na2 O49 2.437717 1_555
Na2 O54 2.524163 1_555
Na2 O50 2.601286 1_555
Na2 O48 2.626921 1_555
Na2 O55 2.676366 1_555
Na2 O56 2.734424 1_555
Na3 O53 2.415923 1_555
Na3 O58 2.536972 1_555
Na3 O51 2.539430 1_555
Na3 O57 2.561642 1_555
Na3 O59 2.590926 1_555
Na3 O52 2.662664 1_555
Na4 O60 2.539762 1_555
Na4 O68 2.564863 1_555
Na4 O67 2.571346 1_555
Na4 O66 2.669966 1_555
Na4 O61 2.708970 1_555
Na4 O62 2.827093 1_555
Na5 O70 2.552432 1_555
Na5 O69 2.563701 1_555
Na5 O64 2.579270 1_555
Na5 O71 2.599956 1_555
Na5 O65 2.602632 1_555
Na5 O63 2.663805 1_555
Na6 O53 2.330969 1_555
Na6 O16 2.535396 1_555
Na6 O9 2.637822 1_545
Na6 O52 2.639735 1_555
Na6 O67 2.678361 1_545
Na6 O66 2.755718 1_545
Na6 O2 2.956350 1_555
Na7 O50 2.429885 1_455
Na7 O69 2.493188 1_555
Na7 O7 2.647241 1_555
Na7 O12 2.655760 1_455
Na7 O48 2.798451 1_455
Na7 O5 2.814608 1_455
Na7 O70 2.898959 1_555
Na8 O48 2.434996 1_555
Na8 O70 2.561575 1_545
Na8 O49 2.620910 1_555
Na8 O71 2.703670 1_545
Na8 O8 2.845663 1_545
Na8 O13 2.872041 1_555
Na8 O3 2.874582 1_555
Na8 O34 2.893949 1_545
Na9 O65 2.401315 1_555
Na9 O7 2.487498 1_555
Na9 O43 2.527277 1_555
Na9 O64 2.597941 1_555
Na9 O42 2.671049 1_455
Na9 O28 2.933932 1_555
Na9 O14 2.994882 1_555
Na10 O6 2.472350 1_555
Na10 O44 2.483054 1_555
Na10 O42 2.532609 1_565
Na10 O63 2.555343 1_555
Na10 O64 2.575747 1_555
Na10 O27 2.642286 1_555
Na11 O26 2.451509 1_554
Na11 O47 2.453838 1_565
Na11 O62 2.475358 1_555
Na11 O61 2.517877 1_555
Na11 O45 2.518873 1_455
Na11 O11 2.811254 1_555
Na12 O25 2.370131 1_554
Na12 O46 2.411255 1_455
Na12 O60 2.414480 1_555
Na12 O61 2.518822 1_555
Na12 O47 2.741131 1_555
Na12 O10 2.896592 1_555
Na13 O41 2.345327 1_555
Na13 O4 2.447190 1_555
Na13 O55 2.540657 1_555
Na13 O40 2.570340 1_665
Na13 O19 2.790291 1_556
Na13 O26 2.825338 1_655
Na13 O33 2.859855 1_655
Na14 O40 2.355922 1_555
Na14 O39 2.511974 1_555
Na14 O54 2.530370 1_555
Na14 O3 2.536333 1_555
Na14 O56 2.800571 1_555
Na14 O18 2.871672 1_556
Na15 O37 2.393244 1_545
Na15 O59 2.524399 1_555
Na15 O2 2.597490 1_555
Na15 O38 2.601213 1_655
Na15 O57 2.625634 1_555
Na15 O23 2.829794 1_555
Na16 O0 2.327205 1_555
Na16 O57 2.428714 1_555
Na16 O38 2.537752 1_555
Na16 O36 2.696929 1_545
Na16 O58 2.726356 1_555
Na16 O21 2.921322 1_555
Na17 O1 2.430567 1_555
Na17 O22 2.476901 1_555
Na17 O36 2.513760 1_655
Na17 O37 2.515511 1_555
Na17 O58 2.517329 1_555
Na17 O59 2.829420 1_555
O0 Si0 1.621448 1_545
O0 Y0 2.150216 1_545
O1 P0 1.537034 1_555
O1 Y0 2.238198 1_655
O2 P1 1.552120 1_655
O2 Y0 2.207470 1_645
O3 Si1 1.619749 1_555
O3 Y1 2.194674 1_445
O4 P2 1.524151 1_655
O4 Y1 2.309680 1_555
O5 P3 1.526723 1_545
O5 Y1 2.214589 1_545
O6 P3 1.549154 1_555
O6 Y2 2.327206 1_555
O7 Si1 1.657895 1_555
O7 Y2 2.230674 1_445
O8 P2 1.548975 1_555
O8 Y2 2.228727 1_455
O9 P0 1.552255 1_555
O9 Y3 2.279144 1_655
O10 P1 1.546588 1_555
O10 Y3 2.298340 1_545
O11 Si0 1.632209 1_555
O11 Y3 2.163465 1_555
O12 P4 1.537451 1_555
O12 Y4 2.250546 1_555
O13 P5 1.543816 1_555
O13 Y4 2.226224 1_555
O14 P6 1.534705 1_555
O14 Y4 2.156149 1_555
O15 P7 1.514589 1_555
O15 Y5 2.179880 1_555
O16 P8 1.526300 1_555
O16 Y5 2.235581 1_555
O17 P9 1.514903 1_555
O17 Y5 2.162653 1_555
O18 P9 1.593943 1_555
O18 Ta0 2.060731 1_554
O19 P7 1.596901 1_555
O19 Ta0 2.062232 1_554
O20 P8 1.604758 1_555
O20 Ta0 2.012896 1_554
O21 P5 1.563352 1_555
O21 Y6 2.219674 1_555
O22 P6 1.552832 1_555
O22 Y6 2.270876 1_555
O23 P4 1.560790 1_555
O23 Y6 2.221825 1_555
O24 Si2 1.587876 1_555
O24 Y7 2.096086 1_556
O25 Si3 1.605858 1_555
O25 Y7 2.189896 1_556
O26 Si4 1.609099 1_555
O26 Y7 2.176122 1_556
O27 Si5 1.620588 1_555
O27 Y8 2.171755 1_555
O28 P10 1.532772 1_555
O28 Y8 2.241617 1_555
O29 P11 1.523060 1_555
O29 Y8 2.179412 1_555
O30 P11 1.582500 1_555
O30 Ta1 1.998909 1_555
O31 Si5 1.715051 1_555
O31 Ta1 1.941637 1_555
O32 P10 1.575690 1_555
O32 Ta1 2.067130 1_555
O33 Si3 1.708876 1_555
O33 Ta2 1.964606 1_555
O34 Si4 1.682445 1_555
O34 Ta2 1.978762 1_555
O35 Si2 1.697004 1_555
O35 Ta2 1.910711 1_555
O36 P11 1.540769 1_555
O36 Y0 2.302172 1_555
O37 Si5 1.634458 1_555
O37 Y0 2.288863 1_655
O38 P10 1.548233 1_555
O38 Y0 2.311865 1_545
O39 Si3 1.604490 1_555
O39 Y1 2.215732 1_445
O40 Si4 1.612902 1_545
O40 Y1 2.251261 1_445
O41 Si2 1.602340 1_555
O41 Y1 2.220812 1_555
O42 P4 1.559938 1_555
O42 Y2 2.349000 1_545
O43 P5 1.550852 1_555
O43 Y2 2.293220 1_445
O44 P6 1.546940 1_555
O44 Y2 2.295940 1_555
O45 P7 1.549505 1_555
O45 Y3 2.311637 1_655
O46 P8 1.544783 1_555
O46 Y3 2.445601 1_645
O47 P9 1.560693 1_555
O47 Y3 2.392356 1_545
O48 P3 1.556879 1_545
O48 Y4 2.336417 1_555
O49 Si1 1.627572 1_555
O49 Y4 2.198445 1_555
O50 P2 1.550218 1_655
O50 Y4 2.286947 1_555
O51 P0 1.516329 1_555
O51 Y5 2.230823 1_555
O52 P1 1.530442 1_655
O52 Y5 2.289639 1_555
O53 Si0 1.628099 1_545
O53 Y5 2.234769 1_555
O54 Si2 1.684853 1_555
O54 Ta0 1.999017 1_555
O55 Si3 1.677860 1_655
O55 Ta0 1.994669 1_555
O56 Si4 1.673126 1_545
O56 Ta0 1.950188 1_555
O57 Si5 1.646148 1_545
O57 Y6 2.272300 1_555
O58 P10 1.555117 1_555
O58 Y6 2.387868 1_555
O59 P11 1.547127 1_655
O59 Y6 2.358996 1_555
O60 P9 1.547558 1_555
O60 Y7 2.317655 1_555
O61 P7 1.558221 1_455
O61 Y7 2.379733 1_555
O62 P8 1.543409 1_565
O62 Y7 2.315323 1_555
O63 P5 1.550225 1_565
O63 Y8 2.282828 1_555
O64 P6 1.563303 1_555
O64 Y8 2.298640 1_555
O65 P4 1.553922 1_455
O65 Y8 2.306113 1_555
O66 Si0 1.713238 1_555
O66 Ta1 1.915767 1_555
O67 P0 1.590380 1_555
O67 Ta1 2.033204 1_555
O68 P1 1.575664 1_555
O68 Ta1 2.054540 1_555
O69 Si1 1.681548 1_555
O69 Ta2 2.002610 1_555
O70 P2 1.576965 1_555
O70 Ta2 2.134087 1_555
O71 P3 1.569849 1_555
O71 Ta2 2.101174 1_555
