# generated using pymatgen
data_Na2ZnSn3P4(SO12)2
_symmetry_space_group_name_H-M   'P 1'
_cell_length_a   8.71700974
_cell_length_b   8.72397202
_cell_length_c   22.85532539
_cell_angle_alpha   90.05291923
_cell_angle_beta   89.74972342
_cell_angle_gamma   119.99945674
_symmetry_Int_Tables_number   1
_chemical_formula_structural   Na2ZnSn3P4(SO12)2
_chemical_formula_sum   'Na6 Zn3 Sn9 P12 S6 O72'
_cell_volume   1505.21178405
_cell_formula_units_Z   3
loop_
 _symmetry_equiv_pos_site_id
 _symmetry_equiv_pos_as_xyz
  1  'x, y, z'
loop_
 _atom_site_type_symbol
 _atom_site_label
 _atom_site_symmetry_multiplicity
 _atom_site_fract_x
 _atom_site_fract_y
 _atom_site_fract_z
 _atom_site_occupancy
  Na  Na0  1  0.00066087  0.99525713  0.50414219  1
  Na  Na1  1  0.00469754  0.99925000  0.00241519  1
  Na  Na2  1  0.66288123  0.32879075  0.83201532  1
  Na  Na3  1  0.66701801  0.33340253  0.33747935  1
  Na  Na4  1  0.32966229  0.66223954  0.16939282  1
  Na  Na5  1  0.34173287  0.66946419  0.66501014  1
  Zn  Zn0  1  0.99915928  0.99987459  0.64660322  1
  Zn  Zn1  1  0.00883172  0.99895775  0.14609387  1
  Zn  Zn2  1  0.33357969  0.66720303  0.32326301  1
  Sn  Sn0  1  0.00096142  0.00016857  0.35524745  1
  Sn  Sn1  1  0.00088657  0.00617586  0.85079896  1
  Sn  Sn2  1  0.65279685  0.32402712  0.68418285  1
  Sn  Sn3  1  0.66829196  0.34027357  0.18438310  1
  Sn  Sn4  1  0.66497918  0.33798330  0.97984841  1
  Sn  Sn5  1  0.66126631  0.33502064  0.48038933  1
  Sn  Sn6  1  0.32779045  0.66054767  0.01810217  1
  Sn  Sn7  1  0.34017115  0.67181811  0.51705481  1
  Sn  Sn8  1  0.33913757  0.66699860  0.81429340  1
  P  P0  1  0.28852949  0.29015783  0.74851607  1
  P  P1  1  0.71082722  0.00172269  0.74807501  1
  P  P2  1  0.36866615  0.03742007  0.58260156  1
  P  P3  1  0.66944497  0.62862062  0.58346221  1
  P  P4  1  0.95939834  0.62844698  0.08306707  1
  P  P5  1  0.37141719  0.33148505  0.08321716  1
  P  P6  1  0.62722535  0.66999260  0.91687253  1
  P  P7  1  0.04060254  0.37442929  0.91614079  1
  P  P8  1  0.33187552  0.95701432  0.91666060  1
  P  P9  1  0.62384122  0.96027632  0.41470337  1
  P  P10  1  0.33404596  0.37879479  0.41509015  1
  P  P11  1  0.04267512  0.66352733  0.41562594  1
  S  S0  1  0.29205601  0.99700521  0.24859944  1
  S  S1  1  0.70717156  0.71186845  0.24859048  1
  S  S2  1  0.00199558  0.29245787  0.24803130  1
  S  S3  1  0.99966025  0.70708909  0.74930527  1
  S  S4  1  0.95861810  0.33332829  0.58309874  1
  S  S5  1  0.66779429  0.04087558  0.08312213  1
  O  O0  1  0.21779801  0.03605725  0.30266972  1
  O  O1  1  0.81932649  0.78552686  0.30261050  1
  O  O2  1  0.96430659  0.18108574  0.30245490  1
  O  O3  1  0.21792375  0.18082118  0.80656959  1
  O  O4  1  0.96652211  0.77973461  0.80464992  1
  O  O5  1  0.81587802  0.03375097  0.80655207  1
  O  O6  1  0.78930531  0.96663495  0.69465710  1
  O  O7  1  0.17831731  0.21048174  0.69482371  1
  O  O8  1  0.03150919  0.81430552  0.69745452  1
  O  O9  1  0.79134703  0.81650444  0.19611132  1
  O  O10  1  0.02269752  0.20774445  0.19577031  1
  O  O11  1  0.18686890  0.97509072  0.19657341  1
  O  O12  1  0.88245109  0.36966095  0.63707242  1
  O  O13  1  0.48872853  0.11164131  0.63787671  1
  O  O14  1  0.63164993  0.51047570  0.63925694  1
  O  O15  1  0.88321764  0.50773396  0.13848469  1
  O  O16  1  0.63034383  0.11672062  0.13682949  1
  O  O17  1  0.48968177  0.37052161  0.13863467  1
  O  O18  1  0.45550490  0.29887982  0.02812917  1
  O  O19  1  0.84620419  0.54157320  0.02794063  1
  O  O20  1  0.69612473  0.15016667  0.02975858  1
  O  O21  1  0.45710101  0.15242231  0.52778581  1
  O  O22  1  0.70025308  0.54389697  0.52830146  1
  O  O23  1  0.84974581  0.30580147  0.52992851  1
  O  O24  1  0.54900336  0.70485310  0.97289989  1
  O  O25  1  0.15249603  0.44980681  0.97201804  1
  O  O26  1  0.29936746  0.84559553  0.97289755  1
  O  O27  1  0.55337168  0.84981921  0.47164971  1
  O  O28  1  0.29616534  0.45111837  0.47230874  1
  O  O29  1  0.15291734  0.69998992  0.47244613  1
  O  O30  1  0.11555125  0.63182324  0.35979231  1
  O  O31  1  0.51700926  0.88635955  0.35968319  1
  O  O32  1  0.36721435  0.48461172  0.35967714  1
  O  O33  1  0.11960222  0.49040350  0.86136789  1
  O  O34  1  0.36681879  0.87794534  0.86146449  1
  O  O35  1  0.51235526  0.63137693  0.86220528  1
  O  O36  1  0.02189079  0.83202597  0.41106665  1
  O  O37  1  0.81200161  0.97921214  0.41035487  1
  O  O38  1  0.16628943  0.18953434  0.41098721  1
  O  O39  1  0.02274378  0.18970270  0.91138534  1
  O  O40  1  0.16469196  0.97460750  0.91045168  1
  O  O41  1  0.81300615  0.83492772  0.91038569  1
  O  O42  1  0.97544117  0.17657531  0.58847419  1
  O  O43  1  0.18951342  0.02325075  0.58906636  1
  O  O44  1  0.83183031  0.81001831  0.58898759  1
  O  O45  1  0.97361021  0.80767380  0.08911748  1
  O  O46  1  0.82426367  0.02394814  0.08950449  1
  O  O47  1  0.18926348  0.17003703  0.08909462  1
  O  O48  1  0.69259607  0.17206298  0.74472426  1
  O  O49  1  0.47986843  0.31508589  0.74647678  1
  O  O50  1  0.83966940  0.52624047  0.74489559  1
  O  O51  1  0.69349216  0.52889062  0.24556802  1
  O  O52  1  0.83188875  0.30519919  0.24425244  1
  O  O53  1  0.47498780  0.16552843  0.24410700  1
  O  O54  1  0.64368720  0.50181702  0.92178380  1
  O  O55  1  0.85486833  0.35519439  0.92285960  1
  O  O56  1  0.50066071  0.14171052  0.92298220  1
  O  O57  1  0.64833728  0.14795830  0.42306109  1
  O  O58  1  0.49836236  0.35508296  0.42150802  1
  O  O59  1  0.85521921  0.49853560  0.42323369  1
  O  O60  1  0.36407247  0.50639957  0.07776839  1
  O  O61  1  0.14505296  0.64249229  0.07804556  1
  O  O62  1  0.50269497  0.86426602  0.07772200  1
  O  O63  1  0.35644347  0.85270811  0.57740060  1
  O  O64  1  0.49376263  0.63545089  0.57788324  1
  O  O65  1  0.13566089  0.49813668  0.57771742  1
  O  O66  1  0.31397389  0.84274634  0.25525914  1
  O  O67  1  0.52990690  0.68809276  0.25518905  1
  O  O68  1  0.15586993  0.46918208  0.25468609  1
  O  O69  1  0.30794890  0.47740887  0.75635946  1
  O  O70  1  0.16064018  0.68864736  0.75684157  1
  O  O71  1  0.52076022  0.83674739  0.75599689  1
loop_
_geom_bond_atom_site_label_1
_geom_bond_atom_site_label_2
_geom_bond_distance
_geom_bond_site_symmetry_2
Na0 O44 2.477981 1_455
Na0 O43 2.482355 1_565
Na0 O42 2.569802 1_465
Na0 O36 2.615697 1_555
Na0 O38 2.650082 1_565
Na0 O37 2.668133 1_455
Na1 O45 2.518333 1_455
Na1 O47 2.521585 1_565
Na1 O40 2.585054 1_554
Na1 O46 2.606323 1_465
Na1 O39 2.618407 1_564
Na1 O41 2.626995 1_454
Na2 O49 2.493492 1_555
Na2 O48 2.502291 1_555
Na2 O50 2.575216 1_555
Na2 O56 2.580427 1_555
Na2 O54 2.599956 1_555
Na2 O55 2.609357 1_555
Na3 O58 2.477547 1_555
Na3 O57 2.491863 1_555
Na3 O59 2.503532 1_555
Na3 O51 2.642605 1_555
Na3 O52 2.644225 1_555
Na3 O53 2.659894 1_555
Na4 O68 2.522036 1_555
Na4 O66 2.560705 1_555
Na4 O67 2.564818 1_555
Na4 O60 2.592423 1_555
Na4 O61 2.594145 1_555
Na4 O62 2.663073 1_555
Na5 O64 2.485708 1_555
Na5 O63 2.525881 1_555
Na5 O71 2.575840 1_555
Na5 O69 2.600123 1_555
Na5 O65 2.604264 1_555
Na5 O70 2.675751 1_555
O0 S0 1.508318 1_545
O0 Sn0 2.122230 1_555
O1 S1 1.507959 1_555
O1 Sn0 2.123267 1_665
O2 S2 1.509512 1_655
O2 Sn0 2.135467 1_655
O3 P0 1.567566 1_555
O3 Sn1 2.006548 1_555
O4 S3 1.504496 1_555
O4 Sn1 2.124115 1_665
O5 P1 1.567493 1_555
O5 Sn1 2.020910 1_655
O6 P1 1.501218 1_565
O6 Zn0 2.022187 1_555
O7 P0 1.500998 1_555
O7 Zn0 2.042380 1_445
O8 S3 1.447702 1_455
O8 Zn0 2.124611 1_455
O9 S1 1.461112 1_555
O9 Zn1 2.097947 1_655
O10 S2 1.461261 1_555
O10 Zn1 2.097280 1_545
O11 S0 1.457734 1_555
O11 Zn1 2.030324 1_555
O12 S4 1.505190 1_555
O12 Sn2 2.123776 1_555
O13 P2 1.563007 1_555
O13 Sn2 1.989546 1_555
O14 P3 1.567232 1_555
O14 Sn2 2.009627 1_555
O15 P4 1.565261 1_555
O15 Sn3 1.998357 1_555
O16 S5 1.504040 1_555
O16 Sn3 2.109105 1_555
O17 P5 1.562860 1_555
O17 Sn3 2.003138 1_555
O18 P5 1.550218 1_555
O18 Sn4 2.007100 1_554
O19 P4 1.548134 1_555
O19 Sn4 2.015968 1_554
O20 S5 1.490518 1_555
O20 Sn4 2.123827 1_554
O21 P2 1.546254 1_555
O21 Sn5 2.007427 1_555
O22 P3 1.549726 1_555
O22 Sn5 2.003858 1_555
O23 S4 1.488875 1_555
O23 Sn5 2.117048 1_555
O24 P6 1.547961 1_555
O24 Sn6 2.042825 1_556
O25 P7 1.543598 1_555
O25 Sn6 2.006387 1_556
O26 P8 1.549462 1_555
O26 Sn6 2.034758 1_556
O27 P9 1.550256 1_555
O27 Sn7 2.010587 1_555
O28 P10 1.555758 1_555
O28 Sn7 2.039938 1_555
O29 P11 1.554222 1_555
O29 Sn7 2.044608 1_555
O30 P11 1.508789 1_555
O30 Zn2 1.950495 1_555
O31 P9 1.507517 1_555
O31 Zn2 1.963831 1_555
O32 P10 1.507258 1_555
O32 Zn2 1.946181 1_555
O33 P7 1.537236 1_555
O33 Sn8 2.056729 1_555
O34 P8 1.537917 1_555
O34 Sn8 2.040045 1_555
O35 P6 1.532992 1_555
O35 Sn8 2.014921 1_555
O36 P11 1.572033 1_555
O36 Sn0 2.021306 1_565
O37 P9 1.566866 1_555
O37 Sn0 2.003516 1_665
O38 P10 1.568389 1_555
O38 Sn0 2.015053 1_555
O39 P7 1.543402 1_555
O39 Sn1 2.051922 1_555
O40 P8 1.546950 1_555
O40 Sn1 2.093914 1_565
O41 P6 1.543740 1_555
O41 Sn1 2.075196 1_665
O42 S4 1.451787 1_555
O42 Zn0 2.123446 1_545
O43 P2 1.510272 1_555
O43 Zn0 2.041388 1_445
O44 P3 1.511664 1_555
O44 Zn0 2.049827 1_555
O45 P4 1.511711 1_555
O45 Zn1 2.015417 1_655
O46 S5 1.451422 1_555
O46 Zn1 2.162935 1_645
O47 P5 1.511673 1_555
O47 Zn1 2.009162 1_545
O48 P1 1.573507 1_555
O48 Sn2 2.063987 1_555
O49 P0 1.570984 1_555
O49 Sn2 2.041893 1_555
O50 S3 1.498331 1_555
O50 Sn2 2.198332 1_555
O51 S1 1.541644 1_555
O51 Sn3 2.085280 1_555
O52 S2 1.544194 1_655
O52 Sn3 2.110410 1_555
O53 S0 1.539255 1_545
O53 Sn3 2.107513 1_555
O54 P6 1.548135 1_555
O54 Sn4 2.027160 1_555
O55 P7 1.548951 1_655
O55 Sn4 2.047423 1_555
O56 P8 1.553262 1_545
O56 Sn4 2.057270 1_555
O57 P9 1.553416 1_545
O57 Sn5 2.050872 1_555
O58 P10 1.553741 1_555
O58 Sn5 2.030725 1_555
O59 P11 1.555050 1_655
O59 Sn5 2.042596 1_555
O60 P5 1.564048 1_555
O60 Sn6 2.049533 1_555
O61 P4 1.564404 1_455
O61 Sn6 2.041964 1_555
O62 S5 1.498056 1_565
O62 Sn6 2.154979 1_555
O63 P2 1.565322 1_565
O63 Sn7 2.046108 1_555
O64 P3 1.567815 1_555
O64 Sn7 2.065877 1_555
O65 S4 1.497955 1_455
O65 Sn7 2.162717 1_555
O66 S0 1.458924 1_555
O66 Zn2 2.249141 1_555
O67 S1 1.459789 1_555
O67 Zn2 2.246801 1_555
O68 S2 1.460360 1_555
O68 Zn2 2.276133 1_555
O69 P0 1.566062 1_555
O69 Sn8 2.027862 1_555
O70 S3 1.500875 1_455
O70 Sn8 2.119679 1_555
O71 P1 1.569260 1_565
O71 Sn8 2.028675 1_555
