# generated using pymatgen
data_Na2W2O7
_symmetry_space_group_name_H-M   'P 1'
_cell_length_a   3.81106842
_cell_length_b   5.44282318
_cell_length_c   13.44559429
_cell_angle_alpha   90.00385472
_cell_angle_beta   98.11704283
_cell_angle_gamma   89.99991502
_symmetry_Int_Tables_number   1
_chemical_formula_structural   Na2W2O7
_chemical_formula_sum   'Na4 W4 O14'
_cell_volume   276.10745990
_cell_formula_units_Z   2
loop_
 _symmetry_equiv_pos_site_id
 _symmetry_equiv_pos_as_xyz
  1  'x, y, z'
loop_
 _atom_site_type_symbol
 _atom_site_label
 _atom_site_symmetry_multiplicity
 _atom_site_fract_x
 _atom_site_fract_y
 _atom_site_fract_z
 _atom_site_occupancy
  Na  Na0  1  0.78745701  0.55822809  0.56924048  1
  Na  Na1  1  0.21253498  0.05822304  0.43075304  1
  Na  Na2  1  0.05254288  0.60519599  0.10244529  1
  Na  Na3  1  0.94744950  0.10515850  0.89756606  1
  W  W0  1  0.34165821  0.08568169  0.68068158  1
  W  W1  1  0.65837831  0.58572629  0.31932008  1
  W  W2  1  0.44322630  0.60603486  0.89067515  1
  W  W3  1  0.55676686  0.10603134  0.10933503  1
  O  O0  1  0.30721801  0.81056931  0.61221121  1
  O  O1  1  0.69280279  0.31055883  0.38778330  1
  O  O2  1  0.95232429  0.62221984  0.90544406  1
  O  O3  1  0.04768519  0.12227030  0.09457997  1
  O  O4  1  0.29066301  0.29679206  0.57875212  1
  O  O5  1  0.70933370  0.79681475  0.42125245  1
  O  O6  1  0.85368531  0.10702631  0.70581581  1
  O  O7  1  0.14631561  0.60707945  0.29416524  1
  O  O8  1  0.60831781  0.90857404  0.21688061  1
  O  O9  1  0.39167276  0.40850141  0.78311659  1
  O  O10  1  0.49101980  0.33473046  0.98208964  1
  O  O11  1  0.41045364  0.90638053  0.82039436  1
  O  O12  1  0.58953495  0.40642322  0.17958960  1
  O  O13  1  0.50896307  0.83473868  0.01790934  1
loop_
_geom_bond_atom_site_label_1
_geom_bond_atom_site_label_2
_geom_bond_distance
_geom_bond_site_symmetry_2
Na0 O5 2.359507 1_555
Na0 O4 2.376904 1_655
Na0 O4 2.386252 1_555
Na0 O0 2.412599 1_655
Na0 O0 2.422477 1_555
Na0 O1 2.766031 1_555
Na1 O4 2.359430 1_555
Na1 O5 2.376802 1_445
Na1 O5 2.386138 1_545
Na1 O1 2.412535 1_455
Na1 O1 2.422589 1_555
Na1 O0 2.766162 1_545
Na2 O12 2.415633 1_555
Na2 O12 2.424259 1_455
Na2 O13 2.537133 1_555
Na2 O13 2.545524 1_455
Na2 O7 2.551992 1_555
Na2 O2 2.623917 1_454
Na2 O3 2.630559 1_555
Na2 O3 2.816300 1_565
Na2 O10 2.888181 1_554
Na2 O10 2.896061 1_454
Na2 O8 2.942737 1_555
Na2 O8 2.948800 1_455
Na3 O11 2.415711 1_545
Na3 O11 2.424391 1_645
Na3 O10 2.537070 1_555
Na3 O10 2.545448 1_655
Na3 O6 2.552397 1_555
Na3 O3 2.624090 1_656
Na3 O2 2.630650 1_545
Na3 O2 2.816222 1_555
Na3 O13 2.888084 1_546
Na3 O13 2.895943 1_646
Na3 O9 2.942827 1_555
Na3 O9 2.948922 1_655
O0 W0 1.752895 1_565
O1 W1 1.753207 1_555
O2 W2 1.911079 1_655
O2 W2 1.924265 1_555
O3 W3 1.911111 1_455
O3 W3 1.924225 1_555
O4 W0 1.778012 1_555
O5 W1 1.777846 1_555
O6 W0 1.936316 1_555
O6 W0 1.940013 1_655
O7 W1 1.936464 1_555
O7 W1 1.939971 1_455
O8 W3 1.790132 1_565
O8 W1 2.224275 1_555
O9 W2 1.790403 1_555
O9 W0 2.223972 1_555
O10 W2 1.913497 1_555
O10 W3 2.102048 1_556
O11 W2 1.883554 1_555
O11 W0 2.100270 1_565
O12 W3 1.883489 1_555
O12 W1 2.100367 1_555
O13 W3 1.913415 1_565
O13 W2 2.101807 1_554
