# generated using pymatgen
data_CaCuGe
_symmetry_space_group_name_H-M   'P 1'
_cell_length_a   4.33804284
_cell_length_b   7.42217422
_cell_length_c   21.26730818
_cell_angle_alpha   90.00000000
_cell_angle_beta   90.00000000
_cell_angle_gamma   90.00000000
_symmetry_Int_Tables_number   1
_chemical_formula_structural   CaCuGe
_chemical_formula_sum   'Ca12 Cu12 Ge12'
_cell_volume   684.75861557
_cell_formula_units_Z   12
loop_
 _symmetry_equiv_pos_site_id
 _symmetry_equiv_pos_as_xyz
  1  'x, y, z'
loop_
 _atom_site_type_symbol
 _atom_site_label
 _atom_site_symmetry_multiplicity
 _atom_site_fract_x
 _atom_site_fract_y
 _atom_site_fract_z
 _atom_site_occupancy
  Ca  Ca0  1  0.25000000  0.71416070  0.00163289  1
  Ca  Ca1  1  0.75000000  0.28583930  0.99836711  1
  Ca  Ca2  1  0.75000000  0.21416070  0.49836711  1
  Ca  Ca3  1  0.25000000  0.78583930  0.50163289  1
  Ca  Ca4  1  0.25000000  0.79259545  0.16627288  1
  Ca  Ca5  1  0.75000000  0.20740455  0.83372712  1
  Ca  Ca6  1  0.75000000  0.29259545  0.33372712  1
  Ca  Ca7  1  0.25000000  0.70740455  0.66627288  1
  Ca  Ca8  1  0.25000000  0.70540918  0.33311922  1
  Ca  Ca9  1  0.75000000  0.29459082  0.66688078  1
  Ca  Ca10  1  0.75000000  0.20540918  0.16688078  1
  Ca  Ca11  1  0.25000000  0.79459082  0.83311922  1
  Cu  Cu0  1  0.25000000  0.41566417  0.09773109  1
  Cu  Cu1  1  0.75000000  0.58433583  0.90226891  1
  Cu  Cu2  1  0.75000000  0.91566417  0.40226891  1
  Cu  Cu3  1  0.25000000  0.08433583  0.59773109  1
  Cu  Cu4  1  0.25000000  0.41134101  0.23497307  1
  Cu  Cu5  1  0.75000000  0.58865899  0.76502693  1
  Cu  Cu6  1  0.75000000  0.91134101  0.26502693  1
  Cu  Cu7  1  0.25000000  0.08865899  0.73497307  1
  Cu  Cu8  1  0.25000000  0.41868747  0.43717885  1
  Cu  Cu9  1  0.75000000  0.58131253  0.56282115  1
  Cu  Cu10  1  0.75000000  0.91868747  0.06282115  1
  Cu  Cu11  1  0.25000000  0.08131253  0.93717885  1
  Ge  Ge0  1  0.25000000  0.09164028  0.06896370  1
  Ge  Ge1  1  0.75000000  0.90835972  0.93103630  1
  Ge  Ge2  1  0.75000000  0.59164028  0.43103630  1
  Ge  Ge3  1  0.25000000  0.40835972  0.56896370  1
  Ge  Ge4  1  0.25000000  0.08146483  0.26976759  1
  Ge  Ge5  1  0.75000000  0.91853517  0.73023241  1
  Ge  Ge6  1  0.75000000  0.58146483  0.23023241  1
  Ge  Ge7  1  0.25000000  0.41853517  0.76976759  1
  Ge  Ge8  1  0.25000000  0.08489491  0.39809299  1
  Ge  Ge9  1  0.75000000  0.91510509  0.60190701  1
  Ge  Ge10  1  0.75000000  0.58489491  0.10190701  1
  Ge  Ge11  1  0.25000000  0.41510509  0.89809299  1
loop_
_geom_bond_atom_site_label_1
_geom_bond_atom_site_label_2
_geom_bond_distance
_geom_bond_site_symmetry_2
Ca0 Cu10 2.949998 1_455
Ca0 Cu10 2.949998 1_555
Ca0 Ge1 3.006065 1_554
Ca0 Ge1 3.006065 1_454
Ca0 Cu0 3.014187 1_555
Ca0 Cu11 3.050405 1_564
Ca0 Ge11 3.126609 1_554
Ca0 Ge0 3.146442 1_565
Ca0 Cu1 3.177858 1_554
Ca0 Cu1 3.177858 1_454
Ca0 Ge10 3.189511 1_555
Ca0 Ge10 3.189511 1_455
Ca1 Cu11 2.949998 1_655
Ca1 Cu11 2.949998 1_555
Ca1 Ge0 3.006065 1_656
Ca1 Ge0 3.006065 1_556
Ca1 Cu1 3.014187 1_555
Ca1 Cu10 3.050405 1_546
Ca1 Ge10 3.126609 1_556
Ca1 Ge1 3.146442 1_545
Ca1 Cu0 3.177858 1_656
Ca1 Cu0 3.177858 1_556
Ca1 Ge11 3.189511 1_655
Ca1 Ge11 3.189511 1_555
Ca2 Cu8 2.949998 1_555
Ca2 Cu8 2.949998 1_655
Ca2 Ge3 3.006065 1_655
Ca2 Ge3 3.006065 1_555
Ca2 Cu2 3.014187 1_545
Ca2 Cu9 3.050405 1_555
Ca2 Ge9 3.126609 1_545
Ca2 Ge2 3.146442 1_555
Ca2 Cu3 3.177858 1_655
Ca2 Cu3 3.177858 1_555
Ca2 Ge8 3.189511 1_555
Ca2 Ge8 3.189511 1_655
Ca3 Cu9 2.949998 1_455
Ca3 Cu9 2.949998 1_555
Ca3 Ge2 3.006065 1_555
Ca3 Ge2 3.006065 1_455
Ca3 Cu3 3.014187 1_565
Ca3 Cu8 3.050405 1_555
Ca3 Ge8 3.126609 1_565
Ca3 Ge3 3.146442 1_555
Ca3 Cu2 3.177858 1_455
Ca3 Cu2 3.177858 1_555
Ca3 Ge9 3.189511 1_555
Ca3 Ge9 3.189511 1_455
Ca4 Ge10 2.992492 1_555
Ca4 Ge10 2.992492 1_455
Ca4 Ge6 3.001761 1_455
Ca4 Ge6 3.001761 1_555
Ca4 Ge0 3.034684 1_565
Ca4 Ge4 3.072709 1_565
Ca4 Cu6 3.145220 1_555
Ca4 Cu6 3.145220 1_455
Ca4 Cu0 3.154636 1_555
Ca4 Cu4 3.184671 1_555
Ca4 Cu10 3.228178 1_555
Ca4 Cu10 3.228178 1_455
Ca5 Ge11 2.992492 1_655
Ca5 Ge11 2.992492 1_555
Ca5 Ge7 3.001761 1_555
Ca5 Ge7 3.001761 1_655
Ca5 Ge1 3.034684 1_545
Ca5 Ge5 3.072709 1_545
Ca5 Cu7 3.145220 1_655
Ca5 Cu7 3.145220 1_555
Ca5 Cu1 3.154636 1_555
Ca5 Cu5 3.184671 1_555
Ca5 Cu11 3.228178 1_555
Ca5 Cu11 3.228178 1_655
Ca6 Ge8 2.992492 1_555
Ca6 Ge8 2.992492 1_655
Ca6 Ge4 3.001761 1_555
Ca6 Ge4 3.001761 1_655
Ca6 Ge2 3.034684 1_555
Ca6 Ge6 3.072709 1_555
Ca6 Cu4 3.145220 1_555
Ca6 Cu4 3.145220 1_655
Ca6 Cu2 3.154636 1_545
Ca6 Cu6 3.184671 1_545
Ca6 Cu8 3.228178 1_555
Ca6 Cu8 3.228178 1_655
Ca7 Ge9 2.992492 1_455
Ca7 Ge9 2.992492 1_555
Ca7 Ge5 3.001761 1_455
Ca7 Ge5 3.001761 1_555
Ca7 Ge3 3.034684 1_555
Ca7 Ge7 3.072709 1_555
Ca7 Cu5 3.145220 1_455
Ca7 Cu5 3.145220 1_555
Ca7 Cu3 3.154636 1_565
Ca7 Cu7 3.184671 1_565
Ca7 Cu9 3.228178 1_555
Ca7 Cu9 3.228178 1_455
Ca8 Cu4 3.020048 1_555
Ca8 Cu6 3.022906 1_555
Ca8 Cu6 3.022906 1_455
Ca8 Cu2 3.050035 1_555
Ca8 Cu2 3.050035 1_455
Ca8 Cu8 3.070256 1_555
Ca8 Ge4 3.099321 1_565
Ca8 Ge2 3.123173 1_455
Ca8 Ge2 3.123173 1_555
Ca8 Ge8 3.137309 1_565
Ca8 Ge6 3.215405 1_455
Ca8 Ge6 3.215405 1_555
Ca9 Cu5 3.020048 1_555
Ca9 Cu7 3.022906 1_655
Ca9 Cu7 3.022906 1_555
Ca9 Cu3 3.050035 1_655
Ca9 Cu3 3.050035 1_555
Ca9 Cu9 3.070256 1_555
Ca9 Ge5 3.099321 1_545
Ca9 Ge3 3.123173 1_655
Ca9 Ge3 3.123173 1_555
Ca9 Ge9 3.137309 1_545
Ca9 Ge7 3.215405 1_655
Ca9 Ge7 3.215405 1_555
Ca10 Cu6 3.020048 1_545
Ca10 Cu4 3.022906 1_555
Ca10 Cu4 3.022906 1_655
Ca10 Cu0 3.050035 1_555
Ca10 Cu0 3.050035 1_655
Ca10 Cu10 3.070256 1_545
Ca10 Ge6 3.099321 1_555
Ca10 Ge0 3.123173 1_555
Ca10 Ge0 3.123173 1_655
Ca10 Ge10 3.137309 1_555
Ca10 Ge4 3.215405 1_555
Ca10 Ge4 3.215405 1_655
Ca11 Cu7 3.020048 1_565
Ca11 Cu5 3.022906 1_555
Ca11 Cu5 3.022906 1_455
Ca11 Cu1 3.050035 1_455
Ca11 Cu1 3.050035 1_555
Ca11 Cu11 3.070256 1_565
Ca11 Ge7 3.099321 1_555
Ca11 Ge1 3.123173 1_555
Ca11 Ge1 3.123173 1_455
Ca11 Ge11 3.137309 1_555
Ca11 Ge5 3.215405 1_555
Ca11 Ge5 3.215405 1_455
Cu0 Ge0 2.481561 1_555
Cu0 Ge10 2.508033 1_455
Cu0 Ge10 2.508033 1_555
Cu0 Cu4 2.918944 1_555
Cu1 Ge1 2.481561 1_555
Cu1 Ge11 2.508033 1_555
Cu1 Ge11 2.508033 1_655
Cu1 Cu5 2.918944 1_555
Cu2 Ge2 2.481561 1_555
Cu2 Ge8 2.508033 1_665
Cu2 Ge8 2.508033 1_565
Cu2 Cu6 2.918944 1_555
Cu3 Ge3 2.481561 1_555
Cu3 Ge9 2.508033 1_545
Cu3 Ge9 2.508033 1_445
Cu3 Cu7 2.918944 1_555
Cu4 Ge6 2.511812 1_555
Cu4 Ge6 2.511812 1_455
Cu4 Ge4 2.557779 1_555
Cu5 Ge7 2.511812 1_655
Cu5 Ge7 2.511812 1_555
Cu5 Ge5 2.557779 1_555
Cu6 Ge4 2.511812 1_565
Cu6 Ge4 2.511812 1_665
Cu6 Ge6 2.557779 1_555
Cu7 Ge5 2.511812 1_545
Cu7 Ge5 2.511812 1_445
Cu7 Ge7 2.557779 1_555
Cu8 Ge2 2.523801 1_455
Cu8 Ge2 2.523801 1_555
Cu8 Ge8 2.613201 1_555
Cu8 Ge3 2.803757 1_555
Cu9 Ge3 2.523801 1_655
Cu9 Ge3 2.523801 1_555
Cu9 Ge9 2.613201 1_555
Cu9 Ge2 2.803757 1_555
Cu10 Ge0 2.523801 1_565
Cu10 Ge0 2.523801 1_665
Cu10 Ge10 2.613201 1_555
Cu10 Ge1 2.803757 1_554
Cu11 Ge1 2.523801 1_545
Cu11 Ge1 2.523801 1_445
Cu11 Ge11 2.613201 1_555
Cu11 Ge0 2.803757 1_556
Ge4 Ge8 2.729255 1_555
Ge5 Ge9 2.729255 1_555
Ge10 Ge6 2.729255 1_555
Ge11 Ge7 2.729255 1_555
