# generated using pymatgen
data_Rb6Cl4O
_symmetry_space_group_name_H-M   'P 1'
_cell_length_a   9.01754057
_cell_length_b   9.01754057
_cell_length_c   9.01754060
_cell_angle_alpha   89.04163095
_cell_angle_beta   89.04163095
_cell_angle_gamma   89.04163080
_symmetry_Int_Tables_number   1
_chemical_formula_structural   Rb6Cl4O
_chemical_formula_sum   'Rb12 Cl8 O2'
_cell_volume   732.96633496
_cell_formula_units_Z   2
loop_
 _symmetry_equiv_pos_site_id
 _symmetry_equiv_pos_as_xyz
  1  'x, y, z'
loop_
 _atom_site_type_symbol
 _atom_site_label
 _atom_site_symmetry_multiplicity
 _atom_site_fract_x
 _atom_site_fract_y
 _atom_site_fract_z
 _atom_site_occupancy
  Rb  Rb0  1  0.05761604  0.92948794  0.71497912  1
  Rb  Rb1  1  0.92948794  0.71497912  0.05761604  1
  Rb  Rb2  1  0.71497912  0.05761604  0.92948794  1
  Rb  Rb3  1  0.57051206  0.44238396  0.78502088  1
  Rb  Rb4  1  0.78502088  0.57051206  0.44238396  1
  Rb  Rb5  1  0.44238396  0.78502088  0.57051206  1
  Rb  Rb6  1  0.07051206  0.28502088  0.94238396  1
  Rb  Rb7  1  0.94238396  0.07051206  0.28502088  1
  Rb  Rb8  1  0.28502088  0.94238396  0.07051206  1
  Rb  Rb9  1  0.42948794  0.55761604  0.21497912  1
  Rb  Rb10  1  0.21497912  0.42948794  0.55761604  1
  Rb  Rb11  1  0.55761604  0.21497912  0.42948794  1
  Cl  Cl0  1  0.75000000  0.75000000  0.75000000  1
  Cl  Cl1  1  0.25000000  0.25000000  0.25000000  1
  Cl  Cl2  1  0.75000000  0.37531492  0.12468508  1
  Cl  Cl3  1  0.12468508  0.75000000  0.37531492  1
  Cl  Cl4  1  0.37531492  0.12468508  0.75000000  1
  Cl  Cl5  1  0.25000000  0.62468508  0.87531492  1
  Cl  Cl6  1  0.87531492  0.25000000  0.62468508  1
  Cl  Cl7  1  0.62468508  0.87531492  0.25000000  1
  O  O0  1  0.50000000  0.50000000  0.50000000  1
  O  O1  1  -0.00000000  0.00000000  -0.00000000  1
loop_
_geom_bond_atom_site_label_1
_geom_bond_atom_site_label_2
_geom_bond_distance
_geom_bond_site_symmetry_2
Cl0 Rb5 3.243136 1_555
Cl0 Rb2 3.243136 1_565
Cl0 Rb3 3.243136 1_555
Cl0 Rb0 3.243136 1_655
Cl0 Rb4 3.243136 1_555
Cl0 Rb1 3.243136 1_556
Cl1 Rb8 3.243136 1_545
Cl1 Rb11 3.243136 1_555
Cl1 Rb7 3.243136 1_455
Cl1 Rb9 3.243136 1_555
Cl1 Rb10 3.243136 1_555
Cl1 Rb6 3.243136 1_554
Cl2 Rb9 3.394989 1_555
Cl2 Rb6 3.394989 1_654
Cl2 Rb2 3.409254 1_554
Cl2 Rb4 3.409254 1_555
Cl2 Rb1 3.526776 1_555
Cl2 Rb3 3.526776 1_554
Cl2 Rb7 3.527915 1_555
Cl2 Rb11 3.527915 1_555
Cl3 Rb7 3.394989 1_465
Cl3 Rb10 3.394989 1_555
Cl3 Rb5 3.409254 1_555
Cl3 Rb1 3.409254 1_455
Cl3 Rb4 3.526776 1_455
Cl3 Rb0 3.526776 1_555
Cl3 Rb9 3.527915 1_555
Cl3 Rb8 3.527915 1_555
Cl4 Rb11 3.394989 1_555
Cl4 Rb8 3.394989 1_546
Cl4 Rb0 3.409254 1_545
Cl4 Rb3 3.409254 1_555
Cl4 Rb2 3.526776 1_555
Cl4 Rb5 3.526776 1_545
Cl4 Rb6 3.527915 1_555
Cl4 Rb10 3.527915 1_555
Cl5 Rb3 3.394989 1_555
Cl5 Rb1 3.394989 1_456
Cl5 Rb8 3.409254 1_556
Cl5 Rb10 3.409254 1_555
Cl5 Rb6 3.526776 1_555
Cl5 Rb9 3.526776 1_556
Cl5 Rb0 3.527915 1_555
Cl5 Rb5 3.527915 1_555
Cl6 Rb0 3.394989 1_645
Cl6 Rb4 3.394989 1_555
Cl6 Rb11 3.409254 1_555
Cl6 Rb6 3.409254 1_655
Cl6 Rb10 3.526776 1_655
Cl6 Rb7 3.526776 1_555
Cl6 Rb3 3.527915 1_555
Cl6 Rb2 3.527915 1_555
Cl7 Rb5 3.394989 1_555
Cl7 Rb2 3.394989 1_564
Cl7 Rb7 3.409254 1_565
Cl7 Rb9 3.409254 1_555
Cl7 Rb11 3.526776 1_565
Cl7 Rb8 3.526776 1_555
Cl7 Rb1 3.527915 1_555
Cl7 Rb4 3.527915 1_555
O0 Rb5 2.697971 1_555
O0 Rb11 2.697971 1_555
O0 Rb4 2.697971 1_555
O0 Rb10 2.697971 1_555
O0 Rb3 2.697971 1_555
O0 Rb9 2.697971 1_555
O1 Rb8 2.697971 1_545
O1 Rb2 2.697971 1_454
O1 Rb6 2.697971 1_554
O1 Rb1 2.697971 1_445
O1 Rb7 2.697971 1_455
O1 Rb0 2.697971 1_544
