# generated using pymatgen
data_Ba2NdMgCu3O7
_symmetry_space_group_name_H-M   'P 1'
_cell_length_a   3.74634260
_cell_length_b   4.00244249
_cell_length_c   14.04046767
_cell_angle_alpha   90.00000000
_cell_angle_beta   90.00000000
_cell_angle_gamma   90.00000000
_symmetry_Int_Tables_number   1
_chemical_formula_structural   Ba2NdMgCu3O7
_chemical_formula_sum   'Ba2 Nd1 Mg1 Cu3 O7'
_cell_volume   210.53008458
_cell_formula_units_Z   1
loop_
 _symmetry_equiv_pos_site_id
 _symmetry_equiv_pos_as_xyz
  1  'x, y, z'
loop_
 _atom_site_type_symbol
 _atom_site_label
 _atom_site_symmetry_multiplicity
 _atom_site_fract_x
 _atom_site_fract_y
 _atom_site_fract_z
 _atom_site_occupancy
  Ba  Ba0  1  0.50000000  0.50000000  0.74172775  1
  Ba  Ba1  1  0.50000000  0.50000000  0.20858270  1
  Nd  Nd0  1  0.50000000  0.50000000  0.48033410  1
  Mg  Mg0  1  0.50000000  0.00000000  0.92944065  1
  Cu  Cu0  1  0.00000000  0.00000000  0.60191341  1
  Cu  Cu1  1  0.00000000  0.00000000  0.35624650  1
  Cu  Cu2  1  0.00000000  0.00000000  0.06209509  1
  O  O0  1  0.00000000  0.00000000  0.84793430  1
  O  O1  1  0.00000000  0.00000000  0.19917005  1
  O  O2  1  0.00000000  0.50000000  0.60164222  1
  O  O3  1  0.00000000  0.50000000  0.37298661  1
  O  O4  1  0.50000000  0.00000000  0.60955726  1
  O  O5  1  0.50000000  0.00000000  0.38777167  1
  O  O6  1  0.00000000  0.50000000  0.02837568  1
loop_
_geom_bond_atom_site_label_1
_geom_bond_atom_site_label_2
_geom_bond_distance
_geom_bond_site_symmetry_2
Ba0 O2 2.716125 1_555
Ba0 O2 2.716125 1_655
Ba0 O4 2.729220 1_555
Ba0 O4 2.729220 1_565
Ba0 O0 3.120465 1_565
Ba0 O0 3.120465 1_665
Ba0 O0 3.120465 1_655
Ba0 O0 3.120465 1_555
Ba1 O1 2.744289 1_565
Ba1 O1 2.744289 1_665
Ba1 O1 2.744289 1_555
Ba1 O1 2.744289 1_655
Ba1 O3 2.972719 1_555
Ba1 O3 2.972719 1_655
Ba1 O6 3.148116 1_555
Ba1 O6 3.148116 1_655
Ba1 O5 3.214751 1_555
Ba1 O5 3.214751 1_565
Nd0 O5 2.386189 1_555
Nd0 O5 2.386189 1_565
Nd0 O3 2.404257 1_555
Nd0 O3 2.404257 1_655
Nd0 O2 2.531746 1_655
Nd0 O2 2.531746 1_555
Nd0 O4 2.701253 1_555
Nd0 O4 2.701253 1_565
Mg0 O0 2.195084 1_655
Mg0 O0 2.195084 1_555
Cu0 O4 1.876243 1_455
Cu0 O4 1.876243 1_555
Cu0 O2 2.001225 1_545
Cu0 O2 2.001225 1_555
Cu1 O5 1.924757 1_555
Cu1 O5 1.924757 1_455
Cu1 O3 2.014976 1_545
Cu1 O3 2.014976 1_555
Cu1 O1 2.205427 1_555
Cu2 O1 1.924597 1_555
Cu2 O6 2.056460 1_555
Cu2 O6 2.056460 1_545
