# generated using pymatgen
data_Na6Ca4Ta2P6(SO12)3
_symmetry_space_group_name_H-M   'P 1'
_cell_length_a   9.17566490
_cell_length_b   9.19638206
_cell_length_c   23.01675190
_cell_angle_alpha   90.41753096
_cell_angle_beta   90.00000000
_cell_angle_gamma   119.92550753
_symmetry_Int_Tables_number   1
_chemical_formula_structural   Na6Ca4Ta2P6(SO12)3
_chemical_formula_sum   'Na12 Ca8 Ta4 P12 S6 O72'
_cell_volume   1683.21414982
_cell_formula_units_Z   2
loop_
 _symmetry_equiv_pos_site_id
 _symmetry_equiv_pos_as_xyz
  1  'x, y, z'
loop_
 _atom_site_type_symbol
 _atom_site_label
 _atom_site_symmetry_multiplicity
 _atom_site_fract_x
 _atom_site_fract_y
 _atom_site_fract_z
 _atom_site_occupancy
  Na  Na0  1  0.00022084  0.65403016  0.24643520  1
  Na  Na1  1  0.65380932  0.65403016  0.74643520  1
  Na  Na2  1  0.30539232  0.34449422  0.58551713  1
  Na  Na3  1  0.66398687  0.94779067  0.58086105  1
  Na  Na4  1  0.28380480  0.94779067  0.08086105  1
  Na  Na5  1  0.03910291  0.34449422  0.08551713  1
  Na  Na6  1  0.99035288  0.97536562  0.48920096  1
  Na  Na7  1  0.98501274  0.97536562  0.98920096  1
  Na  Na8  1  0.64937730  0.30056016  0.82565652  1
  Na  Na9  1  0.65118386  0.30056016  0.32565652  1
  Na  Na10  1  0.34781057  0.66411887  0.16997963  1
  Na  Na11  1  0.31630730  0.66411887  0.66997963  1
  Ca  Ca0  1  0.00315443  0.01136268  0.35120728  1
  Ca  Ca1  1  0.00820825  0.01136268  0.85120728  1
  Ca  Ca2  1  0.99923013  0.99841487  0.65551342  1
  Ca  Ca3  1  0.99918474  0.99841487  0.15551342  1
  Ca  Ca4  1  0.66511795  0.32972338  0.68851259  1
  Ca  Ca5  1  0.66460643  0.32972338  0.18851259  1
  Ca  Ca6  1  0.33595197  0.66692575  0.01350210  1
  Ca  Ca7  1  0.33097278  0.66692575  0.51350210  1
  Ta  Ta0  1  0.67524527  0.34454445  0.97347796  1
  Ta  Ta1  1  0.66930018  0.34454445  0.47347796  1
  Ta  Ta2  1  0.32930237  0.66549256  0.32241512  1
  Ta  Ta3  1  0.33618919  0.66549256  0.82241512  1
  P  P0  1  0.30235332  0.98654620  0.25188831  1
  P  P1  1  0.01091692  0.31560961  0.25046348  1
  P  P2  1  0.30469269  0.31560961  0.75046348  1
  P  P3  1  0.68419288  0.98654620  0.75188831  1
  P  P4  1  0.67185017  0.62714812  0.58204803  1
  P  P5  1  0.95529895  0.62714812  0.08204803  1
  P  P6  1  0.63041251  0.66221140  0.91832373  1
  P  P7  1  0.03373024  0.37447997  0.92078348  1
  P  P8  1  0.34341914  0.96957309  0.92186321  1
  P  P9  1  0.62615295  0.96957309  0.42186321  1
  P  P10  1  0.34074873  0.37447997  0.42078348  1
  P  P11  1  0.03179789  0.66221140  0.41832373  1
  S  S0  1  0.68638851  0.70004146  0.25396324  1
  S  S1  1  0.01365295  0.70004146  0.75396324  1
  S  S2  1  0.95157321  0.32899796  0.57942836  1
  S  S3  1  0.38013813  0.05123307  0.57844754  1
  S  S4  1  0.67109594  0.05123307  0.07844754  1
  S  S5  1  0.37742576  0.32899796  0.07942836  1
  O  O0  1  0.19947658  0.99865321  0.30046326  1
  O  O1  1  0.79737658  0.78280210  0.30321153  1
  O  O2  1  0.98098642  0.19545736  0.29865997  1
  O  O3  1  0.21447094  0.19545736  0.79865997  1
  O  O4  1  0.98542552  0.78280210  0.80321153  1
  O  O5  1  0.79917663  0.99865321  0.80046326  1
  O  O6  1  0.73711609  0.93939378  0.69340087  1
  O  O7  1  0.21751295  0.25910298  0.69041211  1
  O  O8  1  0.04655769  0.79583741  0.69960047  1
  O  O9  1  0.74927973  0.79583741  0.19960047  1
  O  O10  1  0.04159003  0.25910298  0.19041211  1
  O  O11  1  0.20227769  0.93939378  0.19340087  1
  O  O12  1  0.87231430  0.34085698  0.63232407  1
  O  O13  1  0.47598410  0.12932201  0.63129006  1
  O  O14  1  0.66116626  0.53302718  0.63715698  1
  O  O15  1  0.87186191  0.53302718  0.13715698  1
  O  O16  1  0.65333890  0.12932201  0.13129006  1
  O  O17  1  0.46854368  0.34085698  0.13232407  1
  O  O18  1  0.47543418  0.32262621  0.02694787  1
  O  O19  1  0.83744069  0.51320178  0.02724837  1
  O  O20  1  0.67828604  0.15690759  0.02636552  1
  O  O21  1  0.47862254  0.15690759  0.52636552  1
  O  O22  1  0.67576209  0.51320178  0.52724837  1
  O  O23  1  0.84719304  0.32262621  0.52694787  1
  O  O24  1  0.55350255  0.68171604  0.97251724  1
  O  O25  1  0.11761248  0.44268954  0.97871148  1
  O  O26  1  0.32486128  0.88428541  0.97960464  1
  O  O27  1  0.55942313  0.88428541  0.47960464  1
  O  O28  1  0.32507606  0.44268954  0.47871148  1
  O  O29  1  0.12821249  0.68171604  0.47251724  1
  O  O30  1  0.12689722  0.63444566  0.36421409  1
  O  O31  1  0.49556650  0.86146151  0.37093903  1
  O  O32  1  0.36296382  0.50205415  0.37030360  1
  O  O33  1  0.13908933  0.50205415  0.87030360  1
  O  O34  1  0.36589401  0.86146151  0.87093903  1
  O  O35  1  0.50754745  0.63444566  0.86421409  1
  O  O36  1  0.99133654  0.79915742  0.40778758  1
  O  O37  1  0.80012828  0.00083558  0.41053644  1
  O  O38  1  0.20166023  0.19856824  0.41048695  1
  O  O39  1  0.99690801  0.19856824  0.91048695  1
  O  O40  1  0.20070730  0.00083558  0.91053644  1
  O  O41  1  0.80782088  0.79915742  0.90778758  1
  O  O42  1  0.95851921  0.16956254  0.57795955  1
  O  O43  1  0.21696545  0.04791228  0.57800242  1
  O  O44  1  0.82755171  0.80248934  0.57716099  1
  O  O45  1  0.97493763  0.80248934  0.07716099  1
  O  O46  1  0.83094684  0.04791228  0.07800242  1
  O  O47  1  0.21104333  0.16956254  0.07795955  1
  O  O48  1  0.65344618  0.13395180  0.74905972  1
  O  O49  1  0.49249105  0.36614832  0.74987522  1
  O  O50  1  0.86561960  0.53011415  0.74845382  1
  O  O51  1  0.66449555  0.53011415  0.24845382  1
  O  O52  1  0.87365827  0.36614832  0.24987522  1
  O  O53  1  0.48050661  0.13395180  0.24905972  1
  O  O54  1  0.63197157  0.48708527  0.92305835  1
  O  O55  1  0.85488727  0.37044808  0.92185661  1
  O  O56  1  0.51611969  0.14717023  0.92397079  1
  O  O57  1  0.63105154  0.14717023  0.42397079  1
  O  O58  1  0.51556181  0.37044808  0.42185661  1
  O  O59  1  0.85511471  0.48708527  0.42305835  1
  O  O60  1  0.34775741  0.47262276  0.07644838  1
  O  O61  1  0.12986673  0.63922419  0.07842315  1
  O  O62  1  0.52262534  0.88179917  0.07499603  1
  O  O63  1  0.35917282  0.88179917  0.57499603  1
  O  O64  1  0.50935646  0.63922419  0.57842315  1
  O  O65  1  0.12486435  0.47262276  0.57644838  1
  O  O66  1  0.31836007  0.82095722  0.26605104  1
  O  O67  1  0.51428900  0.68207945  0.26438581  1
  O  O68  1  0.18128756  0.49343476  0.26529367  1
  O  O69  1  0.31214620  0.49343476  0.76529367  1
  O  O70  1  0.16778945  0.68207945  0.76438581  1
  O  O71  1  0.50259614  0.82095722  0.76605104  1
loop_
_geom_bond_atom_site_label_1
_geom_bond_atom_site_label_2
_geom_bond_distance
_geom_bond_site_symmetry_2
Na0 O52 2.302057 1_455
Na0 O66 2.569159 1_555
Na0 O11 2.646992 1_555
Na0 O51 2.699722 1_455
Na0 O15 2.757423 1_455
Na1 O49 2.302056 1_555
Na1 O71 2.569167 1_555
Na1 O6 2.646992 1_555
Na1 O50 2.699731 1_555
Na1 O14 2.757425 1_555
Na2 O64 2.412672 1_555
Na2 O43 2.431563 1_555
Na2 O65 2.475259 1_555
Na2 O7 2.547895 1_555
Na2 O28 2.600204 1_555
Na2 O42 2.763266 1_455
Na3 O42 2.443415 1_565
Na3 O44 2.458565 1_555
Na3 O64 2.459529 1_555
Na3 O27 2.472724 1_555
Na3 O63 2.552308 1_555
Na3 O6 2.687097 1_555
Na4 O47 2.443422 1_565
Na4 O45 2.458573 1_455
Na4 O61 2.459529 1_555
Na4 O26 2.472719 1_554
Na4 O62 2.552290 1_555
Na4 O11 2.687100 1_555
Na5 O61 2.412676 1_555
Na5 O46 2.431565 1_455
Na5 O60 2.475243 1_555
Na5 O10 2.547893 1_555
Na5 O25 2.600202 1_554
Na5 O47 2.763258 1_555
Na6 O36 2.471389 1_555
Na6 O44 2.556406 1_555
Na6 O37 2.606490 1_565
Na6 O38 2.708945 1_665
Na6 O43 2.746324 1_665
Na6 O42 2.813481 1_565
Na7 O41 2.471389 1_555
Na7 O45 2.556406 1_556
Na7 O40 2.606490 1_665
Na7 O39 2.708945 1_565
Na7 O46 2.746324 1_566
Na7 O47 2.813481 1_666
Na8 O48 2.339855 1_555
Na8 O49 2.521928 1_555
Na8 O56 2.632706 1_555
Na8 O50 2.725159 1_555
Na8 O55 2.764359 1_555
Na8 O54 2.865527 1_555
Na9 O53 2.339855 1_555
Na9 O52 2.521928 1_555
Na9 O57 2.632706 1_555
Na9 O51 2.725159 1_555
Na9 O58 2.764359 1_555
Na9 O59 2.865527 1_555
Na10 O67 2.612531 1_555
Na10 O68 2.696030 1_555
Na10 O66 2.717613 1_555
Na10 O60 2.771236 1_555
Na10 O61 2.833470 1_555
Na10 O62 2.867037 1_555
Na11 O70 2.612531 1_555
Na11 O69 2.696030 1_555
Na11 O71 2.717613 1_555
Na11 O65 2.771236 1_555
Na11 O64 2.833470 1_555
Na11 O63 2.867037 1_555
Ca0 O2 2.178047 1_455
Ca0 O0 2.197925 1_545
Ca0 O38 2.231644 1_555
Ca0 O37 2.272998 1_455
Ca0 O1 2.282528 1_445
Ca0 O36 2.311290 1_445
Ca1 O3 2.178047 1_555
Ca1 O5 2.197925 1_445
Ca1 O39 2.231644 1_455
Ca1 O40 2.272998 1_555
Ca1 O4 2.282528 1_445
Ca1 O41 2.311290 1_445
Ca2 O8 2.350261 1_655
Ca2 O6 2.354539 1_555
Ca2 O7 2.363324 1_665
Ca2 O44 2.470019 1_555
Ca2 O42 2.535893 1_565
Ca2 O43 2.546758 1_665
Ca3 O9 2.350261 1_555
Ca3 O11 2.354539 1_655
Ca3 O10 2.363324 1_665
Ca3 O45 2.470019 1_555
Ca3 O47 2.535893 1_665
Ca3 O46 2.546758 1_565
Ca4 O13 2.217301 1_555
Ca4 O14 2.234728 1_555
Ca4 O48 2.244811 1_555
Ca4 O12 2.259466 1_555
Ca4 O49 2.266814 1_555
Ca4 O50 2.294434 1_555
Ca5 O16 2.217301 1_555
Ca5 O15 2.234728 1_555
Ca5 O53 2.244811 1_555
Ca5 O17 2.259466 1_555
Ca5 O52 2.266814 1_555
Ca5 O51 2.294434 1_555
Ca6 O24 2.150362 1_554
Ca6 O25 2.182035 1_554
Ca6 O26 2.200106 1_554
Ca6 O61 2.323448 1_555
Ca6 O62 2.328984 1_555
Ca6 O60 2.352578 1_555
Ca7 O29 2.150362 1_555
Ca7 O28 2.182035 1_555
Ca7 O27 2.200106 1_555
Ca7 O64 2.323448 1_555
Ca7 O63 2.328984 1_555
Ca7 O65 2.352578 1_555
O0 P0 1.502172 1_555
O1 S0 1.454431 1_555
O2 P1 1.497354 1_655
O3 P2 1.497354 1_555
O4 S1 1.454431 1_655
O5 P3 1.502172 1_555
O6 P3 1.561304 1_555
O7 P2 1.547629 1_555
O8 S1 1.477698 1_555
O9 S0 1.477698 1_555
O10 P1 1.547629 1_555
O11 P0 1.561304 1_555
O12 S2 1.449230 1_555
O13 S3 1.457936 1_555
O14 P4 1.516271 1_555
O15 P5 1.516271 1_555
O16 S4 1.457936 1_555
O17 S5 1.449230 1_555
O18 S5 1.524074 1_555
O18 Ta0 2.133426 1_554
O19 P5 1.645764 1_555
O19 Ta0 1.954789 1_554
O20 S4 1.529322 1_555
O20 Ta0 2.130464 1_554
O21 S3 1.529322 1_555
O21 Ta1 2.130464 1_555
O22 P4 1.645764 1_555
O22 Ta1 1.954789 1_555
O23 S2 1.524074 1_555
O23 Ta1 2.133426 1_555
O24 P6 1.486313 1_555
O25 P7 1.506554 1_555
O26 P8 1.514071 1_555
O27 P9 1.514071 1_555
O28 P10 1.506554 1_555
O29 P11 1.486313 1_555
O30 P11 1.611024 1_555
O30 Ta2 1.982736 1_555
O31 P9 1.610111 1_555
O31 Ta2 2.012505 1_555
O32 P10 1.596630 1_555
O32 Ta2 2.014150 1_555
O33 P7 1.596630 1_555
O33 Ta3 2.014150 1_555
O34 P8 1.610111 1_555
O34 Ta3 2.012505 1_555
O35 P6 1.611024 1_555
O35 Ta3 1.982736 1_555
O36 P11 1.501239 1_655
O37 P9 1.497364 1_545
O38 P10 1.495489 1_555
O39 P7 1.495492 1_655
O40 P8 1.497355 1_545
O41 P6 1.501245 1_555
O42 S2 1.499183 1_555
O43 S3 1.482253 1_555
O44 P4 1.535582 1_555
O45 P5 1.535586 1_555
O46 S4 1.482244 1_555
O47 S5 1.499188 1_555
O48 P3 1.518007 1_545
O49 P2 1.544843 1_555
O50 S1 1.477296 1_655
O51 S0 1.477299 1_555
O52 P1 1.544834 1_655
O53 P0 1.518013 1_545
O54 P6 1.622166 1_555
O54 Ta0 1.940170 1_555
O55 P7 1.623016 1_655
O55 Ta0 1.948798 1_555
O56 P8 1.611679 1_545
O56 Ta0 2.012602 1_555
O57 P9 1.611671 1_545
O57 Ta1 2.012602 1_555
O58 P10 1.623034 1_555
O58 Ta1 1.948798 1_555
O59 P11 1.622157 1_655
O59 Ta1 1.940170 1_555
O60 S5 1.477659 1_555
O61 P5 1.551653 1_455
O62 S4 1.473222 1_565
O63 S3 1.473215 1_565
O64 P4 1.551672 1_555
O65 S2 1.477647 1_455
O66 P0 1.636217 1_555
O66 Ta2 1.976727 1_555
O67 S0 1.522759 1_555
O67 Ta2 2.105454 1_555
O68 P1 1.635792 1_555
O68 Ta2 1.975432 1_555
O69 P2 1.635796 1_555
O69 Ta3 1.975432 1_555
O70 S1 1.522750 1_555
O70 Ta3 2.105454 1_555
O71 P3 1.636222 1_555
O71 Ta3 1.976727 1_555
