# generated using pymatgen
data_Na3La3TaP5SO24
_symmetry_space_group_name_H-M   'P 1'
_cell_length_a   9.33440288
_cell_length_b   9.36509385
_cell_length_c   24.40605045
_cell_angle_alpha   89.81058847
_cell_angle_beta   90.24840251
_cell_angle_gamma   120.37397579
_symmetry_Int_Tables_number   1
_chemical_formula_structural   Na3La3TaP5SO24
_chemical_formula_sum   'Na9 La9 Ta3 P15 S3 O72'
_cell_volume   1840.65923846
_cell_formula_units_Z   3
loop_
 _symmetry_equiv_pos_site_id
 _symmetry_equiv_pos_as_xyz
  1  'x, y, z'
loop_
 _atom_site_type_symbol
 _atom_site_label
 _atom_site_symmetry_multiplicity
 _atom_site_fract_x
 _atom_site_fract_y
 _atom_site_fract_z
 _atom_site_occupancy
  Na  Na0  1  0.64948971  0.64920184  0.75211344  1
  Na  Na1  1  0.30171005  0.95822927  0.08055104  1
  Na  Na2  1  0.33736709  0.02208358  0.41655827  1
  Na  Na3  1  0.97952208  0.99852188  0.50159688  1
  Na  Na4  1  0.98621709  0.99812169  0.99896366  1
  Na  Na5  1  0.66506232  0.32040117  0.83536496  1
  Na  Na6  1  0.66332086  0.33202306  0.32952274  1
  Na  Na7  1  0.33026043  0.66198926  0.16900625  1
  Na  Na8  1  0.31780558  0.65694572  0.66492122  1
  La  La0  1  0.99972982  0.00256561  0.35193940  1
  La  La1  1  0.00740347  0.00538897  0.85272221  1
  La  La2  1  0.99520493  0.00238418  0.65027540  1
  La  La3  1  0.99783333  0.99951303  0.14307996  1
  La  La4  1  0.67076062  0.32805942  0.68729770  1
  La  La5  1  0.66393188  0.33004810  0.18439591  1
  La  La6  1  0.33565046  0.65716704  0.01560838  1
  La  La7  1  0.33616487  0.65601662  0.51662708  1
  La  La8  1  0.33334136  0.67255437  0.32282172  1
  Ta  Ta0  1  0.67022186  0.33812239  0.97821828  1
  Ta  Ta1  1  0.67878269  0.34672238  0.48473544  1
  Ta  Ta2  1  0.32648828  0.66532669  0.82225665  1
  P  P0  1  0.30070630  0.99432698  0.25040666  1
  P  P1  1  0.30203145  0.32238119  0.75434462  1
  P  P2  1  0.01616953  0.70275189  0.75428693  1
  P  P3  1  0.67832290  0.97839001  0.75614849  1
  P  P4  1  0.95235416  0.32556984  0.57982713  1
  P  P5  1  0.67638350  0.62532825  0.58248032  1
  P  P6  1  0.95112023  0.62338569  0.07692985  1
  P  P7  1  0.67126227  0.05497292  0.07565554  1
  P  P8  1  0.38175052  0.32521879  0.07654282  1
  P  P9  1  0.61993850  0.64672500  0.91541224  1
  P  P10  1  0.02554475  0.38124365  0.91669390  1
  P  P11  1  0.35520242  0.97056151  0.91895646  1
  P  P12  1  0.63887041  0.99127718  0.42259607  1
  P  P13  1  0.35116716  0.36042512  0.42005177  1
  P  P14  1  0.02143743  0.65853608  0.42056310  1
  S  S0  1  0.69283328  0.69797543  0.25034402  1
  S  S1  1  0.00550290  0.30759228  0.24992126  1
  S  S2  1  0.37401383  0.04703710  0.57757485  1
  O  O0  1  0.20817450  0.99797650  0.30260355  1
  O  O1  1  0.78417110  0.78614849  0.30023458  1
  O  O2  1  0.99704971  0.21424534  0.29975537  1
  O  O3  1  0.22359708  0.20909013  0.80320088  1
  O  O4  1  0.98134633  0.78580648  0.80177452  1
  O  O5  1  0.79261253  0.00513623  0.80418687  1
  O  O6  1  0.74369118  0.93491153  0.70369080  1
  O  O7  1  0.20082201  0.25092185  0.70112376  1
  O  O8  1  0.05221207  0.80428875  0.70102136  1
  O  O9  1  0.78118529  0.79296202  0.20043324  1
  O  O10  1  0.00647807  0.21739190  0.20001496  1
  O  O11  1  0.20281218  0.99042875  0.19739882  1
  O  O12  1  0.86878330  0.33081329  0.63281451  1
  O  O13  1  0.46239985  0.12553702  0.62888132  1
  O  O14  1  0.66713968  0.53871247  0.63679440  1
  O  O15  1  0.87136769  0.53319069  0.13002034  1
  O  O16  1  0.65892783  0.13179315  0.12928767  1
  O  O17  1  0.46948851  0.33509421  0.13031227  1
  O  O18  1  0.49352766  0.32824237  0.02590294  1
  O  O19  1  0.84142684  0.51360025  0.02545966  1
  O  O20  1  0.67562691  0.16821920  0.02513557  1
  O  O21  1  0.47414612  0.14961721  0.52877756  1
  O  O22  1  0.67228311  0.50770406  0.53312862  1
  O  O23  1  0.83964203  0.32693640  0.52977418  1
  O  O24  1  0.54960543  0.67465501  0.96717144  1
  O  O25  1  0.12180218  0.45109346  0.96887111  1
  O  O26  1  0.32922335  0.87871346  0.97247365  1
  O  O27  1  0.55103553  0.87857358  0.47112479  1
  O  O28  1  0.31836878  0.43843272  0.46926459  1
  O  O29  1  0.13914310  0.69062749  0.46834729  1
  O  O30  1  0.08350127  0.61790001  0.36789555  1
  O  O31  1  0.52600984  0.92431030  0.37079237  1
  O  O32  1  0.38255959  0.46230973  0.36751773  1
  O  O33  1  0.13239339  0.50279276  0.86737703  1
  O  O34  1  0.36839096  0.86090726  0.87007373  1
  O  O35  1  0.49982457  0.62729335  0.86523290  1
  O  O36  1  0.99920915  0.80966933  0.41433706  1
  O  O37  1  0.81409099  0.02050753  0.41531248  1
  O  O38  1  0.20943740  0.17776963  0.41477444  1
  O  O39  1  0.99358654  0.20752479  0.90644930  1
  O  O40  1  0.21196790  0.00055933  0.90780377  1
  O  O41  1  0.79581504  0.78845559  0.90592728  1
  O  O42  1  0.95899824  0.16479523  0.57605286  1
  O  O43  1  0.21104093  0.03813565  0.57591958  1
  O  O44  1  0.83926744  0.79276858  0.57768945  1
  O  O45  1  0.96233368  0.79484098  0.07368118  1
  O  O46  1  0.82837280  0.04125570  0.07301701  1
  O  O47  1  0.21789588  0.15452775  0.07297391  1
  O  O48  1  0.64454615  0.12127617  0.74955750  1
  O  O49  1  0.48567456  0.36681385  0.74838732  1
  O  O50  1  0.86356260  0.52643489  0.74874731  1
  O  O51  1  0.67976922  0.53352619  0.25102811  1
  O  O52  1  0.85761187  0.32734857  0.25073958  1
  O  O53  1  0.47521234  0.15207697  0.25163166  1
  O  O54  1  0.62792718  0.48127478  0.92376498  1
  O  O55  1  0.85297046  0.37472028  0.92227535  1
  O  O56  1  0.52110702  0.14594961  0.92343302  1
  O  O57  1  0.65009889  0.16409103  0.43428041  1
  O  O58  1  0.51005877  0.34398103  0.43257623  1
  O  O59  1  0.84371878  0.50339538  0.43411337  1
  O  O60  1  0.35224436  0.47047003  0.07471056  1
  O  O61  1  0.12931989  0.65405712  0.07455226  1
  O  O62  1  0.50881217  0.88707257  0.07255209  1
  O  O63  1  0.35539008  0.88149137  0.57492800  1
  O  O64  1  0.52232133  0.64220907  0.57713742  1
  O  O65  1  0.12308531  0.48218616  0.57637368  1
  O  O66  1  0.31670724  0.83656084  0.25134555  1
  O  O67  1  0.52492750  0.67918976  0.25032801  1
  O  O68  1  0.15946063  0.47256271  0.25001378  1
  O  O69  1  0.31333081  0.49563856  0.76831522  1
  O  O70  1  0.17281129  0.68508275  0.77035593  1
  O  O71  1  0.50506567  0.81501765  0.76973177  1
loop_
_geom_bond_atom_site_label_1
_geom_bond_atom_site_label_2
_geom_bond_distance
_geom_bond_site_symmetry_2
Na0 O49 2.291548 1_555
Na0 O6 2.634007 1_555
Na0 O50 2.765319 1_555
Na1 O47 2.340255 1_565
Na1 O62 2.350801 1_555
Na1 O61 2.467892 1_555
Na1 O45 2.738609 1_455
Na1 O26 2.791137 1_554
Na2 O38 2.305114 1_555
Na2 O57 2.558141 1_555
Na2 O31 2.615540 1_545
Na2 O58 2.631946 1_555
Na2 O36 2.751888 1_445
Na2 O29 2.973675 1_545
Na2 O0 2.989980 1_545
Na2 O21 3.001163 1_555
Na3 O42 2.467186 1_565
Na3 O44 2.514377 1_555
Na3 O37 2.674336 1_565
Na3 O43 2.694056 1_665
Na3 O36 2.838002 1_555
Na3 O38 2.878635 1_665
Na4 O46 2.496069 1_566
Na4 O45 2.559429 1_556
Na4 O47 2.620155 1_666
Na4 O41 2.938611 1_555
Na4 O39 2.963844 1_565
Na4 O40 3.063112 1_665
Na5 O56 2.622288 1_555
Na5 O55 2.628136 1_555
Na5 O48 2.749763 1_555
Na5 O54 2.756970 1_555
Na5 O50 2.831375 1_555
Na5 O49 2.863236 1_555
Na6 O53 2.556702 1_555
Na6 O51 2.634468 1_555
Na6 O52 2.664435 1_555
Na6 O58 2.929187 1_555
Na6 O57 2.967372 1_555
Na6 O59 3.030525 1_555
Na7 O68 2.596468 1_555
Na7 O67 2.634737 1_555
Na7 O66 2.638243 1_555
Na7 O61 2.942877 1_555
Na7 O60 2.993170 1_555
Na7 O62 3.034983 1_555
Na8 O65 2.762896 1_555
Na8 O64 2.925308 1_555
Na8 O69 2.926341 1_555
Na8 O63 2.932469 1_555
Na8 O70 2.986328 1_555
Na8 O71 3.026502 1_555
La0 O0 2.311425 1_645
La0 O36 2.357031 1_545
La0 O2 2.363429 1_555
La0 O38 2.370298 1_655
La0 O1 2.370568 1_545
La0 O37 2.396366 1_555
La1 O3 2.298951 1_555
La1 O4 2.311400 1_445
La1 O5 2.323276 1_455
La1 O40 2.349483 1_555
La1 O39 2.363126 1_455
La1 O41 2.379370 1_445
La2 O7 2.474302 1_655
La2 O6 2.476186 1_545
La2 O42 2.491069 1_555
La2 O44 2.494331 1_545
La2 O8 2.497237 1_645
La2 O43 2.609577 1_655
La3 O11 2.359565 1_655
La3 O9 2.416902 1_555
La3 O10 2.439695 1_665
La3 O45 2.454972 1_555
La3 O46 2.485234 1_565
La3 O47 2.500590 1_665
La4 O12 2.271203 1_555
La4 O14 2.337367 1_555
La4 O50 2.356559 1_555
La4 O48 2.371406 1_555
La4 O13 2.382440 1_555
La4 O49 2.449395 1_555
La5 O17 2.259286 1_555
La5 O16 2.277421 1_555
La5 O15 2.325948 1_555
La5 O53 2.368894 1_555
La5 O52 2.431343 1_555
La5 O51 2.455865 1_555
La6 O24 2.258606 1_554
La6 O25 2.260359 1_554
La6 O60 2.327434 1_555
La6 O26 2.351080 1_554
La6 O62 2.379231 1_555
La6 O61 2.397243 1_555
La7 O28 2.277622 1_555
La7 O27 2.318768 1_555
La7 O64 2.328281 1_555
La7 O29 2.336073 1_555
La7 O65 2.338262 1_555
La7 O63 2.479938 1_555
La8 O66 2.376432 1_555
La8 O30 2.392123 1_555
La8 O31 2.424020 1_555
La8 O32 2.484770 1_555
La8 O68 2.494517 1_555
La8 O67 2.499345 1_555
O0 P0 1.552337 1_555
O1 S0 1.475489 1_555
O2 S1 1.474373 1_655
O3 P1 1.515636 1_555
O4 P2 1.522764 1_655
O5 P3 1.515356 1_545
O6 P3 1.561638 1_555
O7 P1 1.543788 1_555
O8 P2 1.542563 1_555
O9 S0 1.488265 1_555
O10 S1 1.487245 1_555
O11 P0 1.570461 1_555
O12 P4 1.526842 1_555
O13 S2 1.474064 1_555
O14 P5 1.531577 1_555
O15 P6 1.520465 1_555
O16 P7 1.528227 1_555
O17 P8 1.521940 1_555
O18 P8 1.611831 1_555
O18 Ta0 1.986173 1_554
O19 P6 1.617489 1_555
O19 Ta0 1.981054 1_554
O20 P7 1.610843 1_555
O20 Ta0 1.978420 1_554
O21 S2 1.519509 1_555
O21 Ta1 2.156480 1_555
O22 P5 1.622162 1_555
O22 Ta1 1.943302 1_555
O23 P4 1.612992 1_555
O23 Ta1 1.939821 1_555
O24 P9 1.509383 1_555
O25 P10 1.502688 1_555
O26 P11 1.512969 1_555
O27 P12 1.521203 1_555
O28 P13 1.518296 1_555
O29 P14 1.521461 1_555
O30 P14 1.537975 1_555
O31 P12 1.557950 1_555
O32 P13 1.533821 1_555
O33 P10 1.610110 1_555
O33 Ta2 2.007337 1_555
O34 P11 1.621813 1_555
O34 Ta2 2.038500 1_555
O35 P9 1.604138 1_555
O35 Ta2 2.100128 1_555
O36 P14 1.537766 1_655
O37 P12 1.526785 1_545
O38 P13 1.550589 1_555
O39 P10 1.519715 1_655
O40 P11 1.522101 1_545
O41 P9 1.519264 1_555
O42 P4 1.541029 1_555
O43 S2 1.481229 1_555
O44 P5 1.540630 1_555
O45 P6 1.557165 1_555
O46 P7 1.537128 1_555
O47 P8 1.558676 1_555
O48 P3 1.529935 1_545
O49 P1 1.553440 1_555
O50 P2 1.547615 1_655
O51 S0 1.482203 1_555
O52 S1 1.482869 1_655
O53 P0 1.550174 1_545
O54 P9 1.600800 1_555
O54 Ta0 2.058714 1_555
O55 P10 1.587306 1_655
O55 Ta0 2.077835 1_555
O56 P11 1.592301 1_545
O56 Ta0 2.104913 1_555
O57 P12 1.594626 1_545
O57 Ta1 2.015277 1_555
O58 P13 1.594883 1_555
O58 Ta1 2.010860 1_555
O59 P14 1.592610 1_655
O59 Ta1 1.941554 1_555
O60 P8 1.518757 1_555
O61 P6 1.539570 1_455
O62 P7 1.538218 1_565
O63 S2 1.471731 1_565
O64 P5 1.529122 1_555
O65 P4 1.527964 1_455
O66 P0 1.558441 1_555
O67 S0 1.486113 1_555
O68 S1 1.485548 1_555
O69 P1 1.609472 1_555
O69 Ta2 2.022050 1_555
O70 P2 1.599490 1_555
O70 Ta2 1.986850 1_555
O71 P3 1.601650 1_555
O71 Ta2 2.007649 1_555
