# generated using pymatgen
data_Er4MgTi2O10
_symmetry_space_group_name_H-M   'P 1'
_cell_length_a   4.05055291
_cell_length_b   5.90630818
_cell_length_c   10.58227300
_cell_angle_alpha   90.00000000
_cell_angle_beta   90.00000000
_cell_angle_gamma   69.87045937
_symmetry_Int_Tables_number   1
_chemical_formula_structural   Er4MgTi2O10
_chemical_formula_sum   'Er4 Mg1 Ti2 O10'
_cell_volume   237.70403336
_cell_formula_units_Z   1
loop_
 _symmetry_equiv_pos_site_id
 _symmetry_equiv_pos_as_xyz
  1  'x, y, z'
loop_
 _atom_site_type_symbol
 _atom_site_label
 _atom_site_symmetry_multiplicity
 _atom_site_fract_x
 _atom_site_fract_y
 _atom_site_fract_z
 _atom_site_occupancy
  Er  Er0  1  0.13607100  0.72721500  0.92679300  1
  Er  Er1  1  0.13607100  0.72721500  0.57320700  1
  Er  Er2  1  0.85715500  0.28767800  0.06262300  1
  Er  Er3  1  0.85715500  0.28767800  0.43737700  1
  Mg  Mg0  1  0.53576800  0.94564500  0.25000000  1
  Ti  Ti0  1  0.21001900  0.58203200  0.25000000  1
  Ti  Ti1  1  0.82015000  0.35770400  0.75000000  1
  O  O0  1  0.04206500  0.90499100  0.37465200  1
  O  O1  1  0.04206500  0.90499100  0.12534800  1
  O  O2  1  0.70351900  0.59321200  0.90578100  1
  O  O3  1  0.70351900  0.59321200  0.59421900  1
  O  O4  1  0.26904000  0.46363100  0.75000000  1
  O  O5  1  0.71247100  0.57564900  0.25000000  1
  O  O6  1  0.28510200  0.43174200  0.07433000  1
  O  O7  1  0.28510200  0.43174200  0.42567000  1
  O  O8  1  0.94403000  0.11366400  0.62371900  1
  O  O9  1  0.94403000  0.11366400  0.87628100  1
loop_
_geom_bond_atom_site_label_1
_geom_bond_atom_site_label_2
_geom_bond_distance
_geom_bond_site_symmetry_2
Er0 O2 2.167965 1_455
Er0 O2 2.169505 1_555
Er0 O9 2.208736 1_465
Er0 O6 2.263285 1_556
Er0 O1 2.321032 1_556
Er0 O4 2.374190 1_555
Er1 O3 2.167965 1_455
Er1 O3 2.169505 1_555
Er1 O8 2.208736 1_465
Er1 O7 2.263285 1_555
Er1 O0 2.321032 1_555
Er1 O4 2.374190 1_555
Er2 O6 2.179774 1_555
Er2 O6 2.181581 1_655
Er2 O9 2.195383 1_554
Er2 O1 2.223775 1_645
Er2 O2 2.371829 1_554
Er2 O5 2.545987 1_555
Er3 O7 2.179774 1_555
Er3 O7 2.181581 1_655
Er3 O8 2.195383 1_555
Er3 O0 2.223775 1_645
Er3 O3 2.371829 1_555
Er3 O5 2.545987 1_555
Mg0 O5 2.052146 1_555
Mg0 O0 2.380014 1_655
Mg0 O1 2.380014 1_655
Mg0 O1 2.475331 1_555
Mg0 O0 2.475331 1_555
O0 Ti0 2.224456 1_555
O1 Ti0 2.224456 1_555
O2 Ti1 2.103171 1_555
O3 Ti1 2.103171 1_555
O4 Ti1 2.100790 1_555
O4 Ti1 2.116705 1_455
O5 Ti0 2.022544 1_555
O5 Ti0 2.028628 1_655
O6 Ti0 2.037267 1_555
O7 Ti0 2.037267 1_555
O8 Ti1 1.901932 1_555
O9 Ti1 1.901932 1_555
