# generated using pymatgen
data_Ba4Mg(CuO2)4
_symmetry_space_group_name_H-M   'P 1'
_cell_length_a   5.96290774
_cell_length_b   12.53903173
_cell_length_c   3.54092694
_cell_angle_alpha   90.00275865
_cell_angle_beta   90.00200228
_cell_angle_gamma   89.55898870
_symmetry_Int_Tables_number   1
_chemical_formula_structural   Ba4Mg(CuO2)4
_chemical_formula_sum   'Ba4 Mg1 Cu4 O8'
_cell_volume   264.74403992
_cell_formula_units_Z   1
loop_
 _symmetry_equiv_pos_site_id
 _symmetry_equiv_pos_as_xyz
  1  'x, y, z'
loop_
 _atom_site_type_symbol
 _atom_site_label
 _atom_site_symmetry_multiplicity
 _atom_site_fract_x
 _atom_site_fract_y
 _atom_site_fract_z
 _atom_site_occupancy
  Ba  Ba0  1  0.24114500  0.12247100  0.50025000  1
  Ba  Ba1  1  0.25895200  0.37797200  0.49970900  1
  Ba  Ba2  1  0.74371400  0.89927700  0.50016400  1
  Ba  Ba3  1  0.75625200  0.60116200  0.49968100  1
  Mg  Mg0  1  0.24995200  0.75025500  0.50024800  1
  Cu  Cu0  1  0.24462100  0.90619200  0.00025300  1
  Cu  Cu1  1  0.25530100  0.59427800  0.00002300  1
  Cu  Cu2  1  0.74610700  0.13487800  0.00001600  1
  Cu  Cu3  1  0.75401500  0.36547500  0.99975400  1
  O  O0  1  0.03127600  0.74882200  0.99976900  1
  O  O1  1  0.97826600  0.24961200  0.99980800  1
  O  O2  1  0.99990900  0.48937900  0.99980000  1
  O  O3  1  0.50008400  0.01109900  0.00012700  1
  O  O4  1  0.46858700  0.75184200  0.00073100  1
  O  O5  1  0.52185400  0.25076000  0.99969100  1
  O  O6  1  0.51459800  0.48967300  0.99971800  1
  O  O7  1  0.98536500  0.01085200  0.00025900  1
loop_
_geom_bond_atom_site_label_1
_geom_bond_atom_site_label_2
_geom_bond_distance
_geom_bond_site_symmetry_2
Ba0 O3 2.726552 1_556
Ba0 O3 2.727100 1_555
Ba0 O7 2.729824 1_455
Ba0 O7 2.730022 1_456
Ba0 O1 2.844141 1_455
Ba0 O1 2.846116 1_454
Ba0 O5 2.925390 1_555
Ba0 O5 2.927950 1_554
Ba1 O2 2.727197 1_454
Ba1 O2 2.727598 1_455
Ba1 O6 2.729947 1_555
Ba1 O6 2.730063 1_554
Ba1 O5 2.845672 1_555
Ba1 O5 2.845724 1_554
Ba1 O1 2.926790 1_454
Ba1 O1 2.927378 1_455
Ba2 O3 2.679388 1_566
Ba2 O3 2.679583 1_565
Ba2 O7 2.682990 1_565
Ba2 O7 2.683279 1_566
Ba2 O4 3.046752 1_555
Ba2 O4 3.049254 1_556
Ba2 O0 3.095032 1_655
Ba2 O0 3.096597 1_654
Ba3 O2 2.679029 1_554
Ba3 O2 2.679608 1_555
Ba3 O6 2.682413 1_554
Ba3 O6 2.682742 1_555
Ba3 O0 3.049297 1_654
Ba3 O0 3.049489 1_655
Ba3 O4 3.095754 1_555
Ba3 O4 3.099968 1_556
Mg0 O4 2.197517 1_555
Mg0 O0 2.197648 1_555
Mg0 O4 2.200197 1_556
Mg0 O0 2.200305 1_554
Cu0 O7 2.020114 1_465
Cu0 O3 2.020312 1_565
Cu0 O4 2.342971 1_555
Cu0 O0 2.356016 1_554
Cu1 O6 2.019856 1_554
Cu1 O2 2.019924 1_454
Cu1 O0 2.345168 1_554
Cu1 O4 2.357873 1_555
Cu2 O5 1.967115 1_554
Cu2 O1 2.004192 1_554
Cu2 O7 2.102328 1_555
Cu2 O3 2.143850 1_555
Cu3 O1 1.966932 1_555
Cu3 O5 2.004028 1_555
Cu3 O6 2.104550 1_555
Cu3 O2 2.144463 1_555
