# generated using pymatgen
data_Ba3Si5O13
_symmetry_space_group_name_H-M   'P 1'
_cell_length_a   4.78093600
_cell_length_b   14.03799100
_cell_length_c   20.51382891
_cell_angle_alpha   81.31362901
_cell_angle_beta   90.00000000
_cell_angle_gamma   90.00000000
_symmetry_Int_Tables_number   1
_chemical_formula_structural   Ba3Si5O13
_chemical_formula_sum   'Ba12 Si20 O52'
_cell_volume   1360.98833259
_cell_formula_units_Z   4
loop_
 _symmetry_equiv_pos_site_id
 _symmetry_equiv_pos_as_xyz
  1  'x, y, z'
loop_
 _atom_site_type_symbol
 _atom_site_label
 _atom_site_symmetry_multiplicity
 _atom_site_fract_x
 _atom_site_fract_y
 _atom_site_fract_z
 _atom_site_occupancy
  Ba  Ba0  1  0.24787100  0.43508200  0.59241300  1
  Ba  Ba1  1  0.74787100  0.06491800  0.40758700  1
  Ba  Ba2  1  0.75212900  0.56491800  0.40758700  1
  Ba  Ba3  1  0.25212900  0.93508200  0.59241300  1
  Ba  Ba4  1  0.70490400  0.29338700  0.77406200  1
  Ba  Ba5  1  0.20490400  0.20661300  0.22593800  1
  Ba  Ba6  1  0.29509600  0.70661300  0.22593800  1
  Ba  Ba7  1  0.79509600  0.79338700  0.77406200  1
  Ba  Ba8  1  0.27494700  0.15632200  0.94896100  1
  Ba  Ba9  1  0.77494700  0.34367800  0.05103900  1
  Ba  Ba10  1  0.72505300  0.84367800  0.05103900  1
  Ba  Ba11  1  0.22505300  0.65632200  0.94896100  1
  Si  Si0  1  0.17783500  0.18245800  0.51684700  1
  Si  Si1  1  0.67783500  0.31754200  0.48315300  1
  Si  Si2  1  0.82216500  0.81754200  0.48315300  1
  Si  Si3  1  0.32216500  0.68245800  0.51684700  1
  Si  Si4  1  0.17712000  0.16562400  0.67412700  1
  Si  Si5  1  0.67712000  0.33437600  0.32587300  1
  Si  Si6  1  0.82288000  0.83437600  0.32587300  1
  Si  Si7  1  0.32288000  0.66562400  0.67412700  1
  Si  Si8  1  0.68162300  0.03858100  0.71394800  1
  Si  Si9  1  0.18162300  0.46141900  0.28605200  1
  Si  Si10  1  0.31837700  0.96141900  0.28605200  1
  Si  Si11  1  0.81837700  0.53858100  0.71394800  1
  Si  Si12  1  0.79118200  0.02050600  0.86347400  1
  Si  Si13  1  0.29118200  0.47949400  0.13652600  1
  Si  Si14  1  0.20881800  0.97949400  0.13652600  1
  Si  Si15  1  0.70881800  0.52050600  0.86347400  1
  Si  Si16  1  0.29248200  0.89262500  0.90680200  1
  Si  Si17  1  0.79248200  0.60737500  0.09319800  1
  Si  Si18  1  0.70751800  0.10737500  0.09319800  1
  Si  Si19  1  0.20751800  0.39262500  0.90680200  1
  O  O0  1  0.85135400  0.21457400  0.49719800  1
  O  O1  1  0.35135400  0.28542600  0.50280200  1
  O  O2  1  0.14864600  0.78542600  0.50280200  1
  O  O3  1  0.64864600  0.71457400  0.49719800  1
  O  O4  1  0.26591200  0.09517500  0.47964000  1
  O  O5  1  0.76591200  0.40482500  0.52036000  1
  O  O6  1  0.73408800  0.90482500  0.52036000  1
  O  O7  1  0.23408800  0.59517500  0.47964000  1
  O  O8  1  0.19024600  0.14555200  0.59696600  1
  O  O9  1  0.69024600  0.35444800  0.40303400  1
  O  O10  1  0.80975400  0.85444800  0.40303400  1
  O  O11  1  0.30975400  0.64555200  0.59696600  1
  O  O12  1  0.26365000  0.27088500  0.68728800  1
  O  O13  1  0.76365000  0.22911500  0.31271200  1
  O  O14  1  0.73635000  0.72911500  0.31271200  1
  O  O15  1  0.23635000  0.77088500  0.68728800  1
  O  O16  1  0.85133300  0.14300400  0.69997100  1
  O  O17  1  0.35133300  0.35699600  0.30002900  1
  O  O18  1  0.14866700  0.85699600  0.30002900  1
  O  O19  1  0.64866700  0.64300400  0.69997100  1
  O  O20  1  0.74995800  0.98683400  0.79022700  1
  O  O21  1  0.35231700  0.07325800  0.71382700  1
  O  O22  1  0.64768300  0.92674200  0.28617300  1
  O  O23  1  0.14768300  0.57325800  0.71382700  1
  O  O24  1  0.74399500  0.96123800  0.66621900  1
  O  O25  1  0.24399500  0.53876200  0.33378100  1
  O  O26  1  0.25600500  0.03876200  0.33378100  1
  O  O27  1  0.75600500  0.46123800  0.66621900  1
  O  O28  1  0.72101200  0.13106200  0.86601000  1
  O  O29  1  0.22101200  0.36893800  0.13399000  1
  O  O30  1  0.27898800  0.86893800  0.13399000  1
  O  O31  1  0.77898800  0.63106200  0.86601000  1
  O  O32  1  0.28388400  0.33862200  0.98012900  1
  O  O33  1  0.78388400  0.16137800  0.01987100  1
  O  O34  1  0.71611600  0.66137800  0.01987100  1
  O  O35  1  0.21611600  0.83862200  0.98012900  1
  O  O36  1  0.22584100  0.32136500  0.85180400  1
  O  O37  1  0.72584100  0.17863500  0.14819600  1
  O  O38  1  0.77415900  0.67863500  0.14819600  1
  O  O39  1  0.27415900  0.82136500  0.85180400  1
  O  O40  1  0.88618300  0.43932700  0.91477100  1
  O  O41  1  0.38618300  0.06067300  0.08522900  1
  O  O42  1  0.11381700  0.56067300  0.08522900  1
  O  O43  1  0.61381700  0.93932700  0.91477100  1
  O  O44  1  0.38279800  0.49657100  0.88668700  1
  O  O45  1  0.88279800  0.00342900  0.11331300  1
  O  O46  1  0.61720200  0.50342900  0.11331300  1
  O  O47  1  0.11720200  0.99657100  0.88668700  1
  O  O48  1  0.75004200  0.48683400  0.79022700  1
  O  O49  1  0.25004200  0.01316600  0.20977300  1
  O  O50  1  0.24995800  0.51316600  0.20977300  1
  O  O51  1  0.85231700  0.42674200  0.28617300  1
loop_
_geom_bond_atom_site_label_1
_geom_bond_atom_site_label_2
_geom_bond_distance
_geom_bond_site_symmetry_2
Ba0 O12 2.784161 1_555
Ba0 O5 2.804314 1_455
Ba0 O27 2.850437 1_455
Ba0 O27 2.914933 1_555
Ba0 O5 2.947697 1_555
Ba0 O7 2.972629 1_555
Ba0 O11 2.984816 1_555
Ba0 O1 3.033835 1_555
Ba1 O13 2.784161 1_555
Ba1 O4 2.804314 1_555
Ba1 O26 2.850437 1_555
Ba1 O26 2.914933 1_655
Ba1 O4 2.947697 1_655
Ba1 O6 2.972629 1_545
Ba1 O10 2.984816 1_545
Ba1 O0 3.033835 1_555
Ba2 O14 2.784161 1_555
Ba2 O7 2.804314 1_655
Ba2 O25 2.850437 1_655
Ba2 O25 2.914933 1_555
Ba2 O7 2.947697 1_555
Ba2 O5 2.972629 1_555
Ba2 O9 2.984816 1_555
Ba2 O3 3.033835 1_555
Ba3 O15 2.784161 1_555
Ba3 O6 2.804314 1_555
Ba3 O24 2.850437 1_555
Ba3 O24 2.914933 1_455
Ba3 O6 2.947697 1_455
Ba3 O4 2.972629 1_565
Ba3 O8 2.984816 1_565
Ba3 O2 3.033835 1_555
Ba4 O28 2.730933 1_555
Ba4 O48 2.793395 1_555
Ba4 O12 2.808684 1_555
Ba4 O36 2.851769 1_555
Ba4 O16 2.868094 1_555
Ba4 O27 2.988549 1_555
Ba4 O36 3.014915 1_655
Ba4 O12 3.251809 1_655
Ba5 O29 2.730933 1_555
Ba5 O49 2.793395 1_555
Ba5 O13 2.808684 1_455
Ba5 O37 2.851769 1_455
Ba5 O17 2.868094 1_555
Ba5 O26 2.988549 1_555
Ba5 O37 3.014915 1_555
Ba5 O13 3.251809 1_555
Ba6 O30 2.730933 1_555
Ba6 O50 2.793395 1_555
Ba6 O14 2.808684 1_555
Ba6 O38 2.851769 1_555
Ba6 O18 2.868094 1_555
Ba6 O25 2.988549 1_555
Ba6 O38 3.014915 1_455
Ba6 O14 3.251809 1_455
Ba7 O31 2.730933 1_555
Ba7 O20 2.793395 1_555
Ba7 O15 2.808684 1_655
Ba7 O39 2.851769 1_655
Ba7 O19 2.868094 1_555
Ba7 O24 2.988549 1_555
Ba7 O39 3.014915 1_555
Ba7 O15 3.251809 1_555
Ba8 O32 2.730198 1_555
Ba8 O33 2.768406 1_456
Ba8 O28 2.784170 1_555
Ba8 O36 2.828522 1_555
Ba8 O33 2.841237 1_556
Ba8 O47 2.845212 1_545
Ba8 O41 2.960767 1_556
Ba8 O28 3.196440 1_455
Ba9 O33 2.730198 1_555
Ba9 O32 2.768406 1_554
Ba9 O29 2.784170 1_655
Ba9 O37 2.828522 1_555
Ba9 O32 2.841237 1_654
Ba9 O46 2.845212 1_555
Ba9 O40 2.960767 1_554
Ba9 O29 3.196440 1_555
Ba10 O34 2.730198 1_555
Ba10 O35 2.768406 1_654
Ba10 O30 2.784170 1_555
Ba10 O38 2.828522 1_555
Ba10 O35 2.841237 1_554
Ba10 O45 2.845212 1_565
Ba10 O43 2.960767 1_554
Ba10 O30 3.196440 1_655
Ba11 O35 2.730198 1_555
Ba11 O34 2.768406 1_556
Ba11 O31 2.784170 1_455
Ba11 O39 2.828522 1_555
Ba11 O34 2.841237 1_456
Ba11 O44 2.845212 1_555
Ba11 O42 2.960767 1_556
Ba11 O31 3.196440 1_555
O0 Si1 1.653721 1_555
O0 Si0 1.657469 1_655
O1 Si0 1.653721 1_555
O1 Si1 1.657469 1_555
O2 Si3 1.653721 1_555
O2 Si2 1.657469 1_455
O3 Si2 1.653721 1_555
O3 Si3 1.657469 1_555
O4 Si0 1.594887 1_555
O5 Si1 1.594887 1_555
O6 Si2 1.594887 1_555
O7 Si3 1.594887 1_555
O8 Si0 1.648025 1_555
O8 Si4 1.650309 1_555
O9 Si1 1.648025 1_555
O9 Si5 1.650309 1_555
O10 Si2 1.648025 1_555
O10 Si6 1.650309 1_555
O11 Si3 1.648025 1_555
O11 Si7 1.650309 1_555
O12 Si4 1.596243 1_555
O13 Si5 1.596243 1_555
O14 Si6 1.596243 1_555
O15 Si7 1.596243 1_555
O16 Si4 1.660441 1_655
O16 Si8 1.662051 1_555
O17 Si5 1.660441 1_555
O17 Si9 1.662051 1_555
O18 Si6 1.660441 1_455
O18 Si10 1.662051 1_555
O19 Si7 1.660441 1_555
O19 Si11 1.662051 1_555
O20 Si12 1.653646 1_565
O20 Si8 1.655176 1_565
O21 Si8 1.647822 1_555
O21 Si4 1.651402 1_555
O22 Si10 1.647822 1_555
O22 Si6 1.651402 1_555
O23 Si11 1.647822 1_455
O23 Si7 1.651402 1_555
O24 Si8 1.596088 1_565
O25 Si9 1.596088 1_555
O26 Si10 1.596088 1_545
O27 Si11 1.596088 1_555
O28 Si12 1.596338 1_555
O29 Si13 1.596338 1_555
O30 Si14 1.596338 1_555
O31 Si15 1.596338 1_555
O32 Si19 1.620566 1_555
O33 Si18 1.620566 1_555
O34 Si17 1.620566 1_555
O35 Si16 1.620566 1_555
O36 Si19 1.619304 1_555
O37 Si18 1.619304 1_555
O38 Si17 1.619304 1_555
O39 Si16 1.619304 1_555
O40 Si15 1.662178 1_555
O40 Si19 1.687920 1_655
O41 Si14 1.662178 1_545
O41 Si18 1.687920 1_555
O42 Si13 1.662178 1_555
O42 Si17 1.687920 1_455
O43 Si12 1.662178 1_565
O43 Si16 1.687920 1_555
O44 Si15 1.649487 1_555
O44 Si19 1.679253 1_555
O45 Si14 1.649487 1_645
O45 Si18 1.679253 1_555
O46 Si13 1.649487 1_555
O46 Si17 1.679253 1_555
O47 Si12 1.649487 1_465
O47 Si16 1.679253 1_555
O48 Si15 1.653646 1_555
O48 Si11 1.655176 1_555
O49 Si14 1.653646 1_545
O49 Si10 1.655176 1_545
O50 Si13 1.653646 1_555
O50 Si9 1.655176 1_555
O51 Si9 1.647822 1_655
O51 Si5 1.651402 1_555
