# generated using pymatgen
data_Eu2MgTi2(ClO3)2
_symmetry_space_group_name_H-M   'P 1'
_cell_length_a   3.67620754
_cell_length_b   6.29418656
_cell_length_c   10.03343324
_cell_angle_alpha   65.42504362
_cell_angle_beta   79.44390715
_cell_angle_gamma   73.02034877
_symmetry_Int_Tables_number   1
_chemical_formula_structural   Eu2MgTi2(ClO3)2
_chemical_formula_sum   'Eu2 Mg1 Ti2 Cl2 O6'
_cell_volume   201.41834610
_cell_formula_units_Z   1
loop_
 _symmetry_equiv_pos_site_id
 _symmetry_equiv_pos_as_xyz
  1  'x, y, z'
loop_
 _atom_site_type_symbol
 _atom_site_label
 _atom_site_symmetry_multiplicity
 _atom_site_fract_x
 _atom_site_fract_y
 _atom_site_fract_z
 _atom_site_occupancy
  Eu  Eu0  1  0.76273000  0.23947700  0.23506400  1
  Eu  Eu1  1  0.23727000  0.76052300  0.76493600  1
  Mg  Mg0  1  0.50000000  0.00000000  0.00000000  1
  Ti  Ti0  1  0.57988600  0.24514400  0.59508300  1
  Ti  Ti1  1  0.42011400  0.75485600  0.40491700  1
  Cl  Cl0  1  0.12224200  0.67798200  0.07753200  1
  Cl  Cl1  1  0.87775800  0.32201800  0.92246800  1
  O  O0  1  0.60858300  0.98847500  0.79435700  1
  O  O1  1  0.57303800  0.47737900  0.37654600  1
  O  O2  1  0.39141700  0.01152500  0.20564300  1
  O  O3  1  0.42696200  0.52262100  0.62345400  1
  O  O4  1  0.14237000  0.14758400  0.56767800  1
  O  O5  1  0.85763000  0.85241700  0.43232200  1
loop_
_geom_bond_atom_site_label_1
_geom_bond_atom_site_label_2
_geom_bond_distance
_geom_bond_site_symmetry_2
Eu0 O1 2.353522 1_555
Eu0 O2 2.377564 1_555
Eu0 O2 2.377567 1_655
Eu0 O5 2.391669 1_545
Eu1 O3 2.353522 1_555
Eu1 O0 2.377564 1_555
Eu1 O0 2.377567 1_455
Eu1 O4 2.391673 1_565
Mg0 O2 2.056123 1_555
Mg0 O0 2.056123 1_544
Cl0 Mg0 2.564848 1_465
Cl0 Mg0 2.564853 1_565
Cl0 Eu1 2.927942 1_554
Cl0 Eu0 3.098282 1_455
Cl0 Eu0 3.098289 1_555
Cl1 Mg0 2.564848 1_656
Cl1 Mg0 2.564853 1_556
Cl1 Eu0 2.927942 1_556
Cl1 Eu1 3.098282 1_655
Cl1 Eu1 3.098289 1_555
O0 Ti0 1.977301 1_565
O1 Ti1 1.796868 1_555
O1 Ti0 2.068322 1_555
O2 Ti1 1.977301 1_545
O3 Ti0 1.796868 1_555
O3 Ti1 2.068322 1_555
O4 Ti0 1.979637 1_555
O4 Ti0 1.979647 1_455
O5 Ti1 1.979641 1_555
O5 Ti1 1.979647 1_655
