# generated using pymatgen
data_CuSi(HO2)2
_symmetry_space_group_name_H-M   'P 1'
_cell_length_a   8.90721355
_cell_length_b   8.90721355
_cell_length_c   8.90721420
_cell_angle_alpha   111.81449140
_cell_angle_beta   111.81449140
_cell_angle_gamma   111.81449863
_symmetry_Int_Tables_number   1
_chemical_formula_structural   CuSi(HO2)2
_chemical_formula_sum   'Cu6 Si6 H12 O24'
_cell_volume   491.18704440
_cell_formula_units_Z   6
loop_
 _symmetry_equiv_pos_site_id
 _symmetry_equiv_pos_as_xyz
  1  'x, y, z'
loop_
 _atom_site_type_symbol
 _atom_site_label
 _atom_site_symmetry_multiplicity
 _atom_site_fract_x
 _atom_site_fract_y
 _atom_site_fract_z
 _atom_site_occupancy
  Cu  Cu0  1  0.47049200  0.66150100  0.06138000  1
  Cu  Cu1  1  0.66150100  0.06138000  0.47049200  1
  Cu  Cu2  1  0.06138000  0.47049200  0.66150100  1
  Cu  Cu3  1  0.52950800  0.33849900  0.93862000  1
  Cu  Cu4  1  0.33849900  0.93862000  0.52950800  1
  Cu  Cu5  1  0.93862000  0.52950800  0.33849900  1
  Si  Si0  1  0.21651700  0.82410800  0.08252300  1
  Si  Si1  1  0.82410800  0.08252300  0.21651700  1
  Si  Si2  1  0.08252300  0.21651700  0.82410800  1
  Si  Si3  1  0.78348300  0.17589200  0.91747700  1
  Si  Si4  1  0.17589200  0.91747700  0.78348300  1
  Si  Si5  1  0.91747700  0.78348300  0.17589200  1
  H  H0  1  0.80301600  0.52000600  0.75171700  1
  H  H1  1  0.52000600  0.75171700  0.80301600  1
  H  H2  1  0.75171700  0.80301600  0.52000600  1
  H  H3  1  0.19698400  0.47999400  0.24828300  1
  H  H4  1  0.47999400  0.24828300  0.19698400  1
  H  H5  1  0.24828300  0.19698400  0.47999400  1
  H  H6  1  0.69088300  0.41902100  0.51245700  1
  H  H7  1  0.41902100  0.51245700  0.69088300  1
  H  H8  1  0.51245700  0.69088300  0.41902100  1
  H  H9  1  0.30911700  0.58097900  0.48754300  1
  H  H10  1  0.58097900  0.48754300  0.30911700  1
  H  H11  1  0.48754300  0.30911700  0.58097900  1
  O  O0  1  0.97444800  0.01210000  0.26363800  1
  O  O1  1  0.26363800  0.97444800  0.01210000  1
  O  O2  1  0.01210000  0.26363800  0.97444800  1
  O  O3  1  0.02555200  0.98790000  0.73636200  1
  O  O4  1  0.73636200  0.02555200  0.98790000  1
  O  O5  1  0.98790000  0.73636200  0.02555200  1
  O  O6  1  0.04475100  0.78526300  0.36554200  1
  O  O7  1  0.36554200  0.04475100  0.78526300  1
  O  O8  1  0.78526300  0.36554200  0.04475100  1
  O  O9  1  0.95524900  0.21473700  0.63445800  1
  O  O10  1  0.63445800  0.95524900  0.21473700  1
  O  O11  1  0.21473700  0.63445800  0.95524900  1
  O  O12  1  0.67631800  0.62524000  0.05102500  1
  O  O13  1  0.05102500  0.67631800  0.62524000  1
  O  O14  1  0.62524000  0.05102500  0.67631800  1
  O  O15  1  0.32368200  0.37476000  0.94897500  1
  O  O16  1  0.94897500  0.32368200  0.37476000  1
  O  O17  1  0.37476000  0.94897500  0.32368200  1
  O  O18  1  0.38414700  0.29456900  0.60716300  1
  O  O19  1  0.60716300  0.38414700  0.29456900  1
  O  O20  1  0.29456900  0.60716300  0.38414700  1
  O  O21  1  0.61585300  0.70543100  0.39283700  1
  O  O22  1  0.39283700  0.61585300  0.70543100  1
  O  O23  1  0.70543100  0.39283700  0.61585300  1
loop_
_geom_bond_atom_site_label_1
_geom_bond_atom_site_label_2
_geom_bond_distance
_geom_bond_site_symmetry_2
Cu0 O10 1.966187 1_555
Cu0 O15 1.969749 1_554
Cu0 O11 1.990900 1_554
Cu0 O12 2.004386 1_555
Cu0 O21 2.543590 1_555
Cu1 O9 1.966187 1_555
Cu1 O17 1.969749 1_545
Cu1 O10 1.990900 1_545
Cu1 O14 2.004386 1_555
Cu1 O23 2.543590 1_555
Cu2 O11 1.966187 1_555
Cu2 O16 1.969750 1_455
Cu2 O9 1.990900 1_455
Cu2 O13 2.004386 1_555
Cu2 O22 2.543590 1_555
Cu3 O7 1.966187 1_555
Cu3 O12 1.969749 1_556
Cu3 O8 1.990900 1_556
Cu3 O15 2.004386 1_555
Cu3 O18 2.543590 1_555
Cu4 O6 1.966187 1_555
Cu4 O14 1.969749 1_565
Cu4 O7 1.990900 1_565
Cu4 O17 2.004386 1_555
Cu4 O20 2.543590 1_555
Cu5 O8 1.966187 1_555
Cu5 O13 1.969750 1_655
Cu5 O6 1.990900 1_655
Cu5 O16 2.004386 1_555
Cu5 O19 2.543590 1_555
H0 O23 0.985296 1_555
H1 O22 0.985296 1_555
H2 O21 0.985296 1_555
H3 O20 0.985296 1_555
H4 O19 0.985296 1_555
H5 O18 0.985296 1_555
H6 O23 1.006367 1_555
H7 O22 1.006367 1_555
H8 O21 1.006367 1_555
H9 O20 1.006367 1_555
H10 O19 1.006367 1_555
H11 O18 1.006367 1_555
O0 Si1 1.662855 1_555
O0 Si5 1.664166 1_545
O1 Si0 1.662855 1_555
O1 Si4 1.664166 1_554
O2 Si2 1.662855 1_555
O2 Si3 1.664166 1_455
O3 Si4 1.662855 1_555
O3 Si2 1.664166 1_565
O4 Si3 1.662855 1_555
O4 Si1 1.664166 1_556
O5 Si5 1.662855 1_555
O5 Si0 1.664166 1_655
O6 Si5 1.637827 1_455
O7 Si4 1.637827 1_545
O8 Si3 1.637827 1_554
O9 Si2 1.637827 1_655
O10 Si1 1.637827 1_565
O11 Si0 1.637827 1_556
O12 Si5 1.626952 1_555
O13 Si4 1.626952 1_555
O14 Si3 1.626952 1_555
O15 Si2 1.626952 1_555
O16 Si1 1.626952 1_555
O17 Si0 1.626952 1_555
