# generated using pymatgen
data_NiPb2(NO2)6
_symmetry_space_group_name_H-M   'P 1'
_cell_length_a   7.08351289
_cell_length_b   7.08351289
_cell_length_c   7.08351289
_cell_angle_alpha   60.00000000
_cell_angle_beta   60.00000000
_cell_angle_gamma   60.00000000
_symmetry_Int_Tables_number   1
_chemical_formula_structural   NiPb2(NO2)6
_chemical_formula_sum   'Ni1 Pb2 N6 O12'
_cell_volume   251.32232456
_cell_formula_units_Z   1
loop_
 _symmetry_equiv_pos_site_id
 _symmetry_equiv_pos_as_xyz
  1  'x, y, z'
loop_
 _atom_site_type_symbol
 _atom_site_label
 _atom_site_symmetry_multiplicity
 _atom_site_fract_x
 _atom_site_fract_y
 _atom_site_fract_z
 _atom_site_occupancy
  Ni  Ni0  1  0.00000000  0.00000000  0.00000000  1
  Pb  Pb0  1  0.75000000  0.75000000  0.75000000  1
  Pb  Pb1  1  0.25000000  0.25000000  0.25000000  1
  N  N0  1  0.79663000  0.79663000  0.20337000  1
  N  N1  1  0.20337000  0.79663000  0.20337000  1
  N  N2  1  0.79663000  0.20337000  0.20337000  1
  N  N3  1  0.20337000  0.20337000  0.79663000  1
  N  N4  1  0.79663000  0.20337000  0.79663000  1
  N  N5  1  0.20337000  0.79663000  0.79663000  1
  O  O0  1  0.00000000  0.00000000  0.37023600  1
  O  O1  1  0.62976400  0.00000000  0.37023600  1
  O  O2  1  0.00000000  0.62976400  0.37023600  1
  O  O3  1  0.62976400  0.37023600  0.00000000  1
  O  O4  1  0.00000000  0.37023600  0.00000000  1
  O  O5  1  0.00000000  0.37023600  0.62976400  1
  O  O6  1  0.37023600  0.62976400  0.00000000  1
  O  O7  1  0.37023600  0.00000000  0.62976400  1
  O  O8  1  0.37023600  0.00000000  0.00000000  1
  O  O9  1  0.00000000  0.00000000  0.62976400  1
  O  O10  1  0.00000000  0.62976400  0.00000000  1
  O  O11  1  0.62976400  0.00000000  0.00000000  1
loop_
_geom_bond_atom_site_label_1
_geom_bond_atom_site_label_2
_geom_bond_distance
_geom_bond_site_symmetry_2
N0 O2 1.863430 1_655
N0 O1 1.863430 1_565
N0 O10 1.863430 1_655
N0 O11 1.863430 1_565
N0 Ni0 2.037279 1_665
N1 O8 1.863430 1_565
N1 O0 1.863430 1_565
N1 O6 1.863430 1_555
N1 O2 1.863430 1_555
N1 Ni0 2.037279 1_565
N2 O0 1.863430 1_655
N2 O4 1.863430 1_655
N2 O1 1.863430 1_555
N2 O3 1.863430 1_555
N2 Ni0 2.037279 1_655
N3 O4 1.863430 1_556
N3 O8 1.863430 1_556
N3 O5 1.863430 1_555
N3 O7 1.863430 1_555
N3 Ni0 2.037279 1_556
N4 O3 1.863430 1_556
N4 O5 1.863430 1_655
N4 O11 1.863430 1_556
N4 O9 1.863430 1_655
N4 Ni0 2.037279 1_656
N5 O7 1.863430 1_565
N5 O6 1.863430 1_556
N5 O9 1.863430 1_565
N5 O10 1.863430 1_556
N5 Ni0 2.037279 1_566
O0 O9 1.838370 1_555
O0 Pb0 2.667756 1_445
O0 Pb1 2.667756 1_555
O1 O7 1.838370 1_555
O1 Pb0 2.667756 1_545
O1 Pb1 2.667756 1_555
O2 O5 1.838370 1_555
O2 Pb0 2.667756 1_455
O2 Pb1 2.667756 1_555
O3 O6 1.838370 1_555
O3 Pb0 2.667756 1_554
O3 Pb1 2.667756 1_555
O4 Pb0 2.667756 1_454
O4 Pb1 2.667756 1_555
O5 Pb0 2.667756 1_455
O5 Pb1 2.667756 1_555
O6 Pb0 2.667756 1_554
O6 Pb1 2.667756 1_555
O7 Pb0 2.667756 1_545
O7 Pb1 2.667756 1_555
O8 Pb0 2.667756 1_544
O8 Pb1 2.667756 1_555
O9 Pb0 2.667756 1_445
O9 Pb1 2.667756 1_555
O10 O4 1.838370 1_555
O10 Pb0 2.667756 1_454
O10 Pb1 2.667756 1_555
O11 O8 1.838370 1_555
O11 Pb0 2.667756 1_544
O11 Pb1 2.667756 1_555
