# generated using pymatgen
data_MgFe6O7F5
_symmetry_space_group_name_H-M   'P 1'
_cell_length_a   5.23093221
_cell_length_b   5.18985377
_cell_length_c   8.85651570
_cell_angle_alpha   86.86399568
_cell_angle_beta   92.12704568
_cell_angle_gamma   102.35678538
_symmetry_Int_Tables_number   1
_chemical_formula_structural   MgFe6O7F5
_chemical_formula_sum   'Mg1 Fe6 O7 F5'
_cell_volume   234.43346511
_cell_formula_units_Z   1
loop_
 _symmetry_equiv_pos_site_id
 _symmetry_equiv_pos_as_xyz
  1  'x, y, z'
loop_
 _atom_site_type_symbol
 _atom_site_label
 _atom_site_symmetry_multiplicity
 _atom_site_fract_x
 _atom_site_fract_y
 _atom_site_fract_z
 _atom_site_occupancy
  Mg  Mg0  1  0.94821266  0.47172348  0.65241135  1
  Fe  Fe0  1  0.96923424  0.02266166  0.02105057  1
  Fe  Fe1  1  0.03746902  0.02725536  0.34676496  1
  Fe  Fe2  1  0.03042467  0.98609931  0.67318386  1
  Fe  Fe3  1  0.57081785  0.40219112  0.16379176  1
  Fe  Fe4  1  0.46468167  0.53906341  0.84651378  1
  Fe  Fe5  1  0.43038408  0.57753887  0.49723520  1
  O  O0  1  0.16244848  0.78079944  0.50504447  1
  O  O1  1  0.31891356  0.26777300  -0.00021439  1
  O  O2  1  0.34269812  0.31532241  0.34043643  1
  O  O3  1  0.27887829  0.33792144  0.67088922  1
  O  O4  1  0.70022852  0.69114813  0.00857496  1
  O  O5  1  0.69232296  0.69180855  0.66946413  1
  O  O6  1  0.83468877  0.18925660  0.17911228  1
  F  F0  1  0.15209820  0.83922039  0.18258981  1
  F  F1  1  0.17984456  0.74559618  0.83725163  1
  F  F2  1  0.70159402  0.71895942  0.34086767  1
  F  F3  1  0.83135875  0.19724156  0.82984135  1
  F  F4  1  0.83980859  0.19841668  0.49947897  1
loop_
_geom_bond_atom_site_label_1
_geom_bond_atom_site_label_2
_geom_bond_distance
_geom_bond_site_symmetry_2
Mg0 O5 1.951253 1_555
Mg0 O3 1.995356 1_655
Mg0 O0 2.154635 1_655
Fe0 O6 1.915339 1_555
Fe0 O4 1.981286 1_545
Fe0 O1 2.000737 1_655
Fe1 O2 1.939928 1_555
Fe1 O0 2.030312 1_545
Fe1 O6 2.040812 1_455
Fe2 O3 2.001417 1_565
Fe2 O5 2.075278 1_455
Fe2 O0 2.096319 1_555
Fe3 O6 1.940979 1_555
Fe3 O2 1.976321 1_555
Fe3 O1 1.976907 1_555
Fe3 O4 2.001488 1_555
Fe4 O4 1.943619 1_556
Fe4 O1 1.953119 1_556
Fe4 O3 2.021111 1_555
Fe4 O5 2.025761 1_555
Fe5 O0 1.931295 1_555
Fe5 O2 1.970567 1_555
Fe5 O3 1.999831 1_555
Fe5 O5 2.037607 1_555
F0 Fe1 1.973944 1_565
F0 Fe0 2.001833 1_465
F1 Fe4 2.010094 1_555
F1 Fe2 2.101204 1_555
F1 Mg0 2.353405 1_455
F1 Fe0 2.645446 1_466
F2 Fe5 2.014495 1_555
F2 Fe1 2.109213 1_665
F2 Fe3 2.313277 1_555
F3 Fe0 2.056690 1_556
F3 Mg0 2.079887 1_555
F3 Fe2 2.229804 1_645
F4 Mg0 1.994227 1_555
F4 Fe1 2.077446 1_655
F4 Fe2 2.178536 1_645
