# generated using pymatgen
data_PbSe
_symmetry_space_group_name_H-M   'P 1'
_cell_length_a   12.40111142
_cell_length_b   12.39927588
_cell_length_c   4.41488996
_cell_angle_alpha   79.76916616
_cell_angle_beta   79.72228448
_cell_angle_gamma   20.50854936
_symmetry_Int_Tables_number   1
_chemical_formula_structural   PbSe
_chemical_formula_sum   'Pb2 Se2'
_cell_volume   233.90997581
_cell_formula_units_Z   2
loop_
 _symmetry_equiv_pos_site_id
 _symmetry_equiv_pos_as_xyz
  1  'x, y, z'
loop_
 _atom_site_type_symbol
 _atom_site_label
 _atom_site_symmetry_multiplicity
 _atom_site_fract_x
 _atom_site_fract_y
 _atom_site_fract_z
 _atom_site_occupancy
  Pb  Pb0  1  0.19073000  0.19473300  0.80526700  1
  Pb  Pb1  1  0.80526700  0.80927000  0.19073000  1
  Se  Se0  1  0.67442300  0.70441900  0.29558100  1
  Se  Se1  1  0.29558100  0.32557700  0.67442300  1
loop_
_geom_bond_atom_site_label_1
_geom_bond_atom_site_label_2
_geom_bond_distance
_geom_bond_site_symmetry_2
Pb0 Se1 2.829695 1_555
Pb0 Se0 3.045239 1_546
Pb0 Se0 3.120221 1_545
Pb0 Se0 3.120221 1_456
Pb0 Se0 3.207666 1_455
Pb1 Se0 2.829695 1_555
Pb1 Se1 3.045239 1_655
Pb1 Se1 3.120221 1_565
Pb1 Se1 3.120221 1_654
Pb1 Se1 3.207666 1_564
