# generated using pymatgen
data_U(MnAl2)4
_symmetry_space_group_name_H-M   'P 1'
_cell_length_a   6.71225122
_cell_length_b   6.71225122
_cell_length_c   6.71225122
_cell_angle_alpha   98.33919049
_cell_angle_beta   98.33919049
_cell_angle_gamma   135.22954467
_symmetry_Int_Tables_number   1
_chemical_formula_structural   U(MnAl2)4
_chemical_formula_sum   'U1 Mn4 Al8'
_cell_volume   196.93249164
_cell_formula_units_Z   1
loop_
 _symmetry_equiv_pos_site_id
 _symmetry_equiv_pos_as_xyz
  1  'x, y, z'
loop_
 _atom_site_type_symbol
 _atom_site_label
 _atom_site_symmetry_multiplicity
 _atom_site_fract_x
 _atom_site_fract_y
 _atom_site_fract_z
 _atom_site_occupancy
  U  U0  1  0.00000000  0.00000000  0.00000000  1
  Mn  Mn0  1  0.50000000  0.00000000  0.00000000  1
  Mn  Mn1  1  0.00000000  0.50000000  0.00000000  1
  Mn  Mn2  1  0.00000000  0.00000000  0.50000000  1
  Mn  Mn3  1  0.50000000  0.50000000  0.50000000  1
  Al  Al0  1  0.50000000  0.28092500  0.78092500  1
  Al  Al1  1  0.00000000  0.34104500  0.34104500  1
  Al  Al2  1  0.28092500  0.50000000  0.78092500  1
  Al  Al3  1  0.34104500  0.00000000  0.34104500  1
  Al  Al4  1  0.65895500  0.00000000  0.65895500  1
  Al  Al5  1  0.50000000  0.71907500  0.21907500  1
  Al  Al6  1  0.00000000  0.65895500  0.65895500  1
  Al  Al7  1  0.71907500  0.50000000  0.21907500  1
loop_
_geom_bond_atom_site_label_1
_geom_bond_atom_site_label_2
_geom_bond_distance
_geom_bond_site_symmetry_2
Mn0 Mn1 2.556240 1_545
Mn0 Mn1 2.556240 1_655
Mn0 U0 3.356126 1_655
Mn0 U0 3.356126 1_555
Mn1 U0 3.356126 1_565
Mn1 U0 3.356126 1_555
Mn2 Mn3 2.556240 1_555
Mn2 Mn3 2.556240 1_445
Mn2 U0 3.356126 1_556
Mn2 U0 3.356126 1_555
Mn3 U0 3.356126 1_666
Mn3 U0 3.356126 1_555
Al0 Mn2 2.553872 1_555
Al0 Mn3 2.553872 1_555
Al0 Mn0 2.553872 1_556
Al0 Mn1 2.553872 1_656
Al0 Al7 2.719354 1_556
Al0 Al2 2.719354 1_555
Al0 Al6 2.771364 1_655
Al0 Al6 2.771364 1_545
Al0 Al3 2.833098 1_555
Al0 Al4 2.833098 1_555
Al0 U0 3.198719 1_666
Al0 U0 3.198719 1_556
Al1 Mn1 2.662176 1_555
Al1 Mn2 2.662176 1_555
Al1 Mn0 2.662176 1_455
Al1 Mn3 2.662176 1_555
Al1 Al5 2.771364 1_445
Al1 Al5 2.771364 1_555
Al1 Al6 2.790372 1_555
Al1 Al7 2.833098 1_455
Al1 Al2 2.833098 1_555
Al1 U0 2.993433 1_555
Al2 Mn2 2.553872 1_555
Al2 Mn3 2.553872 1_555
Al2 Mn0 2.553872 1_566
Al2 Mn1 2.553872 1_556
Al2 Al5 2.719354 1_556
Al2 Al4 2.771364 1_455
Al2 Al4 2.771364 1_565
Al2 Al6 2.833098 1_555
Al2 U0 3.198719 1_666
Al2 U0 3.198719 1_556
Al3 Mn2 2.662176 1_555
Al3 Mn1 2.662176 1_545
Al3 Mn3 2.662176 1_555
Al3 Mn0 2.662176 1_555
Al3 Al7 2.771364 1_445
Al3 Al7 2.771364 1_555
Al3 Al4 2.790372 1_555
Al3 Al5 2.833098 1_545
Al3 U0 2.993433 1_555
Al4 Mn1 2.662176 1_656
Al4 Mn0 2.662176 1_556
Al4 Mn2 2.662176 1_655
Al4 Mn3 2.662176 1_545
Al4 Al5 2.833098 1_545
Al4 U0 2.993433 1_656
Al5 Mn0 2.553872 1_565
Al5 Mn3 2.553872 1_555
Al5 Mn2 2.553872 1_665
Al5 Mn1 2.553872 1_555
Al5 Al7 2.719354 1_555
Al5 U0 3.198719 1_665
Al5 U0 3.198719 1_555
Al6 Mn1 2.662176 1_556
Al6 Mn3 2.662176 1_455
Al6 Mn0 2.662176 1_566
Al6 Mn2 2.662176 1_565
Al6 Al7 2.833098 1_455
Al6 U0 2.993433 1_566
Al7 Mn1 2.553872 1_655
Al7 Mn3 2.553872 1_555
Al7 Mn0 2.553872 1_555
Al7 Mn2 2.553872 1_665
Al7 U0 3.198719 1_555
Al7 U0 3.198719 1_665
