# generated using pymatgen
data_La
_symmetry_space_group_name_H-M   'P 1'
_cell_length_a   7.59262116
_cell_length_b   7.59262482
_cell_length_c   24.08251506
_cell_angle_alpha   90.00000000
_cell_angle_beta   90.00000000
_cell_angle_gamma   120.00000329
_symmetry_Int_Tables_number   1
_chemical_formula_structural   La
_chemical_formula_sum   La32
_cell_volume   1202.30908628
_cell_formula_units_Z   32
loop_
 _symmetry_equiv_pos_site_id
 _symmetry_equiv_pos_as_xyz
  1  'x, y, z'
loop_
 _atom_site_type_symbol
 _atom_site_label
 _atom_site_symmetry_multiplicity
 _atom_site_fract_x
 _atom_site_fract_y
 _atom_site_fract_z
 _atom_site_occupancy
  La  La0_0  1  0.00000000  0.00000000  0.00000000  1
  La  La0_1  1  0.00000000  0.00000000  0.50000000  1
  La  La0_2  1  0.00000000  0.50000000  0.00000000  1
  La  La0_3  1  0.00000000  0.50000000  0.50000000  1
  La  La0_4  1  0.50000000  0.00000000  0.00000000  1
  La  La0_5  1  0.50000000  0.00000000  0.50000000  1
  La  La0_6  1  0.50000000  0.50000000  0.00000000  1
  La  La0_7  1  0.50000000  0.50000000  0.50000000  1
  La  La1_0  1  0.00000000  0.00000000  0.25000000  1
  La  La1_1  1  0.00000000  0.00000000  0.75000000  1
  La  La1_2  1  0.00000000  0.50000000  0.25000000  1
  La  La1_3  1  0.00000000  0.50000000  0.75000000  1
  La  La1_4  1  0.50000000  0.00000000  0.25000000  1
  La  La1_5  1  0.50000000  0.00000000  0.75000000  1
  La  La1_6  1  0.50000000  0.50000000  0.25000000  1
  La  La1_7  1  0.50000000  0.50000000  0.75000000  1
  La  La2_0  1  0.16666650  0.33333350  0.12500000  1
  La  La2_1  1  0.16666650  0.33333350  0.62500000  1
  La  La2_2  1  0.16666650  0.83333350  0.12500000  1
  La  La2_3  1  0.16666650  0.83333350  0.62500000  1
  La  La2_4  1  0.66666650  0.33333350  0.12500000  1
  La  La2_5  1  0.66666650  0.33333350  0.62500000  1
  La  La2_6  1  0.66666650  0.83333350  0.12500000  1
  La  La2_7  1  0.66666650  0.83333350  0.62500000  1
  La  La3_0  1  0.33333350  0.16666650  0.37500000  1
  La  La3_1  1  0.33333350  0.16666650  0.87500000  1
  La  La3_2  1  0.33333350  0.66666650  0.37500000  1
  La  La3_3  1  0.33333350  0.66666650  0.87500000  1
  La  La3_4  1  0.83333350  0.16666650  0.37500000  1
  La  La3_5  1  0.83333350  0.16666650  0.87500000  1
  La  La3_6  1  0.83333350  0.66666650  0.37500000  1
  La  La3_7  1  0.83333350  0.66666650  0.87500000  1
loop_
_geom_bond_atom_site_label_1
_geom_bond_atom_site_label_2
_geom_bond_distance
_geom_bond_site_symmetry_2
La0_0 La2_2 3.723705 1_545
La0_0 La3_5 3.723705 1_454
La0_0 La3_1 3.723706 1_554
La0_0 La2_6 3.723706 1_445
La0_0 La3_7 3.723707 1_444
La0_0 La2_0 3.723707 1_555
La0_0 La0_4 3.796311 1_555
La0_0 La0_4 3.796311 1_455
La0_0 La0_6 3.796311 1_445
La0_0 La0_6 3.796311 1_555
La0_0 La0_2 3.796312 1_555
La0_0 La0_2 3.796312 1_545
La0_1 La3_4 3.723705 1_455
La0_1 La2_3 3.723705 1_545
La0_1 La3_0 3.723706 1_555
La0_1 La2_7 3.723706 1_445
La0_1 La3_6 3.723707 1_445
La0_1 La2_1 3.723707 1_555
La0_1 La0_5 3.796311 1_555
La0_1 La0_5 3.796311 1_455
La0_1 La0_7 3.796311 1_555
La0_1 La0_7 3.796311 1_445
La0_1 La0_3 3.796312 1_555
La0_1 La0_3 3.796312 1_545
La0_2 La2_0 3.723705 1_555
La0_2 La3_7 3.723705 1_454
La0_2 La3_3 3.723706 1_554
La0_2 La2_4 3.723706 1_455
La0_2 La3_5 3.723707 1_454
La0_2 La2_2 3.723707 1_555
La0_2 La0_6 3.796311 1_555
La0_2 La0_6 3.796311 1_455
La0_2 La0_4 3.796311 1_565
La0_2 La0_4 3.796311 1_455
La0_3 La2_1 3.723705 1_555
La0_3 La3_6 3.723705 1_455
La0_3 La3_2 3.723706 1_555
La0_3 La2_5 3.723706 1_455
La0_3 La3_4 3.723707 1_455
La0_3 La2_3 3.723707 1_555
La0_3 La0_7 3.796311 1_555
La0_3 La0_7 3.796311 1_455
La0_3 La0_5 3.796311 1_565
La0_3 La0_5 3.796311 1_455
La0_4 La3_1 3.723705 1_554
La0_4 La2_6 3.723705 1_545
La0_4 La2_2 3.723706 1_545
La0_4 La3_5 3.723706 1_554
La0_4 La2_4 3.723707 1_555
La0_4 La3_3 3.723707 1_544
La0_4 La0_6 3.796312 1_555
La0_4 La0_6 3.796312 1_545
La0_5 La3_0 3.723705 1_555
La0_5 La2_7 3.723705 1_545
La0_5 La3_4 3.723706 1_555
La0_5 La2_3 3.723706 1_545
La0_5 La3_2 3.723707 1_545
La0_5 La2_5 3.723707 1_555
La0_5 La0_7 3.796312 1_555
La0_5 La0_7 3.796312 1_545
La0_6 La2_4 3.723705 1_555
La0_6 La3_3 3.723705 1_554
La0_6 La3_7 3.723706 1_554
La0_6 La2_0 3.723706 1_555
La0_6 La2_6 3.723707 1_555
La0_6 La3_1 3.723707 1_554
La0_7 La3_2 3.723705 1_555
La0_7 La2_5 3.723705 1_555
La0_7 La3_6 3.723706 1_555
La0_7 La2_1 3.723706 1_555
La0_7 La3_0 3.723707 1_555
La0_7 La2_7 3.723707 1_555
La1_0 La2_2 3.723705 1_545
La1_0 La3_4 3.723705 1_455
La1_0 La2_6 3.723706 1_445
La1_0 La3_0 3.723706 1_555
La1_0 La2_0 3.723707 1_555
La1_0 La3_6 3.723707 1_445
La1_0 La1_4 3.796311 1_555
La1_0 La1_4 3.796311 1_455
La1_0 La1_6 3.796311 1_555
La1_0 La1_6 3.796311 1_445
La1_0 La1_2 3.796312 1_555
La1_0 La1_2 3.796312 1_545
La1_1 La3_5 3.723705 1_455
La1_1 La2_3 3.723705 1_545
La1_1 La3_1 3.723706 1_555
La1_1 La2_7 3.723706 1_445
La1_1 La3_7 3.723707 1_445
La1_1 La2_1 3.723707 1_555
La1_1 La1_5 3.796311 1_555
La1_1 La1_5 3.796311 1_455
La1_1 La1_7 3.796311 1_445
La1_1 La1_7 3.796311 1_555
La1_1 La1_3 3.796312 1_555
La1_1 La1_3 3.796312 1_545
La1_2 La2_0 3.723705 1_555
La1_2 La3_6 3.723705 1_455
La1_2 La2_4 3.723706 1_455
La1_2 La3_2 3.723706 1_555
La1_2 La2_2 3.723707 1_555
La1_2 La3_4 3.723707 1_455
La1_2 La1_6 3.796311 1_555
La1_2 La1_6 3.796311 1_455
La1_2 La1_4 3.796311 1_565
La1_2 La1_4 3.796311 1_455
La1_3 La3_7 3.723705 1_455
La1_3 La2_1 3.723705 1_555
La1_3 La3_3 3.723706 1_555
La1_3 La2_5 3.723706 1_455
La1_3 La3_5 3.723707 1_455
La1_3 La2_3 3.723707 1_555
La1_3 La1_7 3.796311 1_555
La1_3 La1_7 3.796311 1_455
La1_3 La1_5 3.796311 1_565
La1_3 La1_5 3.796311 1_455
La1_4 La2_6 3.723705 1_545
La1_4 La3_0 3.723705 1_555
La1_4 La2_2 3.723706 1_545
La1_4 La3_4 3.723706 1_555
La1_4 La2_4 3.723707 1_555
La1_4 La3_2 3.723707 1_545
La1_4 La1_6 3.796312 1_555
La1_4 La1_6 3.796312 1_545
La1_5 La3_1 3.723705 1_555
La1_5 La2_7 3.723705 1_545
La1_5 La3_5 3.723706 1_555
La1_5 La2_3 3.723706 1_545
La1_5 La3_3 3.723707 1_545
La1_5 La2_5 3.723707 1_555
La1_5 La1_7 3.796312 1_555
La1_5 La1_7 3.796312 1_545
La1_6 La2_4 3.723705 1_555
La1_6 La3_2 3.723705 1_555
La1_6 La2_0 3.723706 1_555
La1_6 La3_6 3.723706 1_555
La1_6 La2_6 3.723707 1_555
La1_6 La3_0 3.723707 1_555
La1_7 La3_3 3.723705 1_555
La1_7 La2_5 3.723705 1_555
La1_7 La3_7 3.723706 1_555
La1_7 La2_1 3.723706 1_555
La1_7 La3_1 3.723707 1_555
La1_7 La2_7 3.723707 1_555
La2_0 La2_4 3.796311 1_555
La2_0 La2_4 3.796311 1_455
La2_0 La2_6 3.796311 1_555
La2_0 La2_6 3.796311 1_445
La2_0 La2_2 3.796312 1_555
La2_0 La2_2 3.796312 1_545
La2_1 La2_5 3.796311 1_555
La2_1 La2_5 3.796311 1_455
La2_1 La2_7 3.796311 1_555
La2_1 La2_7 3.796311 1_445
La2_1 La2_3 3.796312 1_555
La2_1 La2_3 3.796312 1_545
La2_2 La2_6 3.796311 1_555
La2_2 La2_6 3.796311 1_455
La2_2 La2_4 3.796311 1_565
La2_2 La2_4 3.796311 1_455
La2_3 La2_7 3.796311 1_555
La2_3 La2_7 3.796311 1_455
La2_3 La2_5 3.796311 1_565
La2_3 La2_5 3.796311 1_455
La2_4 La2_6 3.796312 1_555
La2_4 La2_6 3.796312 1_545
La2_5 La2_7 3.796312 1_555
La2_5 La2_7 3.796312 1_545
La3_0 La3_4 3.796311 1_555
La3_0 La3_4 3.796311 1_455
La3_0 La3_6 3.796311 1_555
La3_0 La3_6 3.796311 1_445
La3_0 La3_2 3.796312 1_555
La3_0 La3_2 3.796312 1_545
La3_1 La3_5 3.796311 1_555
La3_1 La3_5 3.796311 1_455
La3_1 La3_7 3.796311 1_555
La3_1 La3_7 3.796311 1_445
La3_1 La3_3 3.796312 1_555
La3_1 La3_3 3.796312 1_545
La3_2 La3_6 3.796311 1_555
La3_2 La3_6 3.796311 1_455
La3_2 La3_4 3.796311 1_565
La3_2 La3_4 3.796311 1_455
La3_3 La3_7 3.796311 1_555
La3_3 La3_7 3.796311 1_455
La3_3 La3_5 3.796311 1_565
La3_3 La3_5 3.796311 1_455
La3_4 La3_6 3.796312 1_555
La3_4 La3_6 3.796312 1_545
La3_5 La3_7 3.796312 1_555
La3_5 La3_7 3.796312 1_545
