# generated using pymatgen
data_Na3YTi3Si3(SO8)3
_symmetry_space_group_name_H-M   'P 1'
_cell_length_a   8.89446641
_cell_length_b   8.95084429
_cell_length_c   22.71814601
_cell_angle_alpha   89.73459649
_cell_angle_beta   90.54872241
_cell_angle_gamma   120.25759635
_symmetry_Int_Tables_number   1
_chemical_formula_structural   Na3YTi3Si3(SO8)3
_chemical_formula_sum   'Na9 Y3 Ti9 Si9 S9 O72'
_cell_volume   1562.19170138
_cell_formula_units_Z   3
loop_
 _symmetry_equiv_pos_site_id
 _symmetry_equiv_pos_as_xyz
  1  'x, y, z'
loop_
 _atom_site_type_symbol
 _atom_site_label
 _atom_site_symmetry_multiplicity
 _atom_site_fract_x
 _atom_site_fract_y
 _atom_site_fract_z
 _atom_site_occupancy
  Na  Na0  1  0.35311268  0.35422776  0.24187540  1
  Na  Na1  1  0.63219142  0.62513572  0.75547153  1
  Na  Na2  1  0.96953417  0.29010125  0.41593159  1
  Na  Na3  1  0.99429352  0.99960168  0.50308159  1
  Na  Na4  1  0.99514930  0.99113723  0.99953667  1
  Na  Na5  1  0.66405900  0.33072221  0.83560851  1
  Na  Na6  1  0.67585174  0.32721614  0.33141089  1
  Na  Na7  1  0.31126559  0.66339649  0.16345048  1
  Na  Na8  1  0.29889209  0.65317926  0.66521919  1
  Y  Y0  1  0.99618376  0.99759136  0.35765992  1
  Y  Y1  1  0.67814170  0.33601691  0.68726928  1
  Y  Y2  1  0.68891206  0.34539381  0.17760783  1
  Ti  Ti0  1  0.00561164  0.98662789  0.85524748  1
  Ti  Ti1  1  0.01806792  0.02147036  0.64891835  1
  Ti  Ti2  1  0.01699724  0.02089875  0.14094793  1
  Ti  Ti3  1  0.66360421  0.36612971  0.98246596  1
  Ti  Ti4  1  0.65906193  0.30939983  0.47898019  1
  Ti  Ti5  1  0.33768930  0.66247872  0.01923259  1
  Ti  Ti6  1  0.33745052  0.65285368  0.51901724  1
  Ti  Ti7  1  0.34148583  0.65681725  0.31602947  1
  Ti  Ti8  1  0.31800192  0.64752365  0.81259210  1
  Si  Si0  1  0.00309165  0.29985540  0.25222846  1
  Si  Si1  1  0.28086780  0.28610134  0.75565851  1
  Si  Si2  1  0.01620356  0.72691226  0.75016507  1
  Si  Si3  1  0.96699328  0.33129049  0.58152851  1
  Si  Si4  1  0.97635560  0.64645572  0.08046766  1
  Si  Si5  1  0.37229102  0.34095331  0.08375800  1
  Si  Si6  1  0.62127483  0.67486872  0.91490703  1
  Si  Si7  1  0.60754744  0.94742175  0.41938776  1
  Si  Si8  1  0.35312551  0.38289135  0.41925227  1
  S  S0  1  0.28816058  0.98764350  0.24760440  1
  S  S1  1  0.69891947  0.70882395  0.24850662  1
  S  S2  1  0.71448497  0.99041178  0.75294129  1
  S  S3  1  0.36594751  0.03193977  0.58082726  1
  S  S4  1  0.66943885  0.63233144  0.58166958  1
  S  S5  1  0.66699041  0.03418489  0.07856865  1
  S  S6  1  0.04144698  0.37624845  0.91713176  1
  S  S7  1  0.33937175  0.95669731  0.91567671  1
  S  S8  1  0.04753278  0.65334052  0.41945504  1
  O  O0  1  0.20777563  0.00850458  0.30143492  1
  O  O1  1  0.79737480  0.78014006  0.30406151  1
  O  O2  1  0.99448163  0.20272158  0.31337417  1
  O  O3  1  0.17157426  0.16858733  0.81095685  1
  O  O4  1  0.98651650  0.81857280  0.80902037  1
  O  O5  1  0.81627801  0.00806059  0.80650651  1
  O  O6  1  0.79782274  0.97239278  0.69860177  1
  O  O7  1  0.16749516  0.20049112  0.69373694  1
  O  O8  1  0.03108134  0.84627189  0.69236750  1
  O  O9  1  0.78768698  0.80861967  0.19690904  1
  O  O10  1  0.02749938  0.18915753  0.19544611  1
  O  O11  1  0.18029148  0.97211696  0.19467405  1
  O  O12  1  0.89397454  0.36953464  0.64001642  1
  O  O13  1  0.46754323  0.10727408  0.63479550  1
  O  O14  1  0.63617881  0.53617017  0.63806700  1
  O  O15  1  0.92212659  0.52904874  0.13831899  1
  O  O16  1  0.63271985  0.09790053  0.13360782  1
  O  O17  1  0.46667801  0.37220998  0.14619286  1
  O  O18  1  0.47817276  0.31201029  0.02932083  1
  O  O19  1  0.83329984  0.53487342  0.02565045  1
  O  O20  1  0.69308012  0.14796055  0.02795556  1
  O  O21  1  0.45721626  0.14670339  0.52907964  1
  O  O22  1  0.68453060  0.53486405  0.53225251  1
  O  O23  1  0.83439693  0.30442520  0.52386372  1
  O  O24  1  0.51822985  0.69319336  0.97019368  1
  O  O25  1  0.15123171  0.46523285  0.96870692  1
  O  O26  1  0.31204083  0.85290670  0.96873641  1
  O  O27  1  0.50082614  0.83791981  0.47599962  1
  O  O28  1  0.32292749  0.48613496  0.47257482  1
  O  O29  1  0.14770667  0.67122578  0.47288031  1
  O  O30  1  0.12880331  0.63187826  0.36531378  1
  O  O31  1  0.49336910  0.85451876  0.35906478  1
  O  O32  1  0.36817557  0.49702243  0.35826687  1
  O  O33  1  0.12420225  0.48476384  0.86278309  1
  O  O34  1  0.35350934  0.86928458  0.86262820  1
  O  O35  1  0.49951646  0.64468767  0.85570458  1
  O  O36  1  0.02550229  0.80521527  0.41629116  1
  O  O37  1  0.80314681  0.97998104  0.42131598  1
  O  O38  1  0.17883966  0.19581044  0.41963953  1
  O  O39  1  0.02755121  0.20546580  0.91226683  1
  O  O40  1  0.17994624  0.97773823  0.91080614  1
  O  O41  1  0.81724521  0.84479416  0.90898030  1
  O  O42  1  0.98119135  0.15383295  0.58939668  1
  O  O43  1  0.19315160  0.02193681  0.58435478  1
  O  O44  1  0.82737061  0.80570169  0.58575797  1
  O  O45  1  0.97987288  0.82949723  0.09152533  1
  O  O46  1  0.82525697  0.01695299  0.08601109  1
  O  O47  1  0.17753389  0.16444818  0.08700848  1
  O  O48  1  0.69042383  0.14145430  0.75008027  1
  O  O49  1  0.47523415  0.31884388  0.75254261  1
  O  O50  1  0.83898363  0.54079104  0.74998837  1
  O  O51  1  0.65985011  0.52590791  0.24639907  1
  O  O52  1  0.83669916  0.32479180  0.24949444  1
  O  O53  1  0.46122595  0.14731981  0.24349365  1
  O  O54  1  0.63810646  0.49776725  0.92374909  1
  O  O55  1  0.86662802  0.35864464  0.92153043  1
  O  O56  1  0.49632534  0.13199995  0.92049475  1
  O  O57  1  0.63050416  0.14565650  0.42427229  1
  O  O58  1  0.53156681  0.37805574  0.42815906  1
  O  O59  1  0.87273391  0.49159063  0.42225183  1
  O  O60  1  0.34152657  0.50221276  0.06872597  1
  O  O61  1  0.16576869  0.67714868  0.06121384  1
  O  O62  1  0.51477759  0.85705726  0.07052338  1
  O  O63  1  0.33966336  0.85713104  0.57343629  1
  O  O64  1  0.51477824  0.65687441  0.57440383  1
  O  O65  1  0.16014869  0.50034460  0.57050155  1
  O  O66  1  0.30326403  0.83142268  0.25162905  1
  O  O67  1  0.52529858  0.70092416  0.25300411  1
  O  O68  1  0.18919428  0.49090190  0.25582398  1
  O  O69  1  0.29587079  0.47975614  0.76013509  1
  O  O70  1  0.19028408  0.71179428  0.75995311  1
  O  O71  1  0.54063217  0.82792827  0.75515383  1
loop_
_geom_bond_atom_site_label_1
_geom_bond_atom_site_label_2
_geom_bond_distance
_geom_bond_site_symmetry_2
Na0 O68 2.352144 1_555
Na0 O51 2.363556 1_555
Na0 O17 2.376191 1_555
Na0 O53 2.479798 1_555
Na0 O67 2.692531 1_555
Na0 O10 2.706822 1_555
Na0 O32 2.914672 1_555
Na0 O0 3.006867 1_555
Na1 O50 2.318012 1_555
Na1 O71 2.333999 1_555
Na1 O49 2.369044 1_555
Na1 O69 2.595163 1_555
Na1 O35 2.621395 1_555
Na1 O14 2.792733 1_555
Na2 O59 2.363083 1_555
Na2 O38 2.401031 1_655
Na2 O37 2.402240 1_545
Na2 O2 2.508214 1_555
Na2 O57 2.623034 1_555
Na2 O23 2.772767 1_555
Na2 O30 2.884274 1_655
Na2 O28 2.999996 1_655
Na3 O42 2.440522 1_565
Na3 O37 2.452247 1_555
Na3 O43 2.482341 1_665
Na3 O44 2.484096 1_555
Na3 O38 2.548676 1_665
Na3 O36 2.742454 1_655
Na4 O45 2.501671 1_556
Na4 O41 2.515120 1_555
Na4 O47 2.533325 1_666
Na4 O46 2.570834 1_566
Na4 O40 2.654020 1_655
Na4 O39 2.666957 1_665
Na5 O49 2.480800 1_555
Na5 O56 2.541182 1_555
Na5 O55 2.569502 1_555
Na5 O54 2.585125 1_555
Na5 O50 2.610670 1_555
Na5 O48 2.672076 1_555
Na6 O52 2.364989 1_555
Na6 O57 2.564803 1_555
Na6 O59 2.617763 1_555
Na6 O53 2.661819 1_555
Na6 O51 2.670419 1_555
Na6 O58 2.708652 1_555
Na7 O68 2.508159 1_555
Na7 O66 2.533485 1_555
Na7 O67 2.676529 1_555
Na7 O61 2.680448 1_555
Na7 O60 2.686274 1_555
Na7 O62 2.759598 1_555
Na8 O65 2.509917 1_555
Na8 O70 2.530090 1_555
Na8 O69 2.643493 1_555
Na8 O63 2.669075 1_555
Na8 O71 2.792904 1_555
Na8 O64 2.820654 1_555
O0 S0 1.481562 1_545
O0 Y0 2.245582 1_445
O1 S1 1.479931 1_555
O1 Y0 2.215878 1_555
O2 Si0 1.617148 1_655
O2 Y0 2.096253 1_545
O3 Si1 1.615641 1_555
O3 Ti0 1.853232 1_545
O4 Si2 1.663094 1_655
O4 Ti0 1.774325 1_655
O5 S2 1.470403 1_545
O5 Ti0 2.094456 1_645
O6 S2 1.496424 1_555
O6 Ti1 2.115426 1_665
O7 Si1 1.669449 1_555
O7 Ti1 1.792693 1_555
O8 Si2 1.652540 1_555
O8 Ti1 1.900868 1_565
O9 S1 1.446588 1_555
O9 Ti2 2.346973 1_665
O10 Si0 1.710833 1_555
O10 Ti2 1.919142 1_555
O11 S0 1.493609 1_555
O11 Ti2 2.095267 1_565
O12 Si3 1.596659 1_555
O12 Y1 2.093751 1_555
O13 S3 1.465211 1_555
O13 Y1 2.288383 1_555
O14 S4 1.486736 1_555
O14 Y1 2.290348 1_555
O15 Si4 1.597768 1_555
O15 Y2 2.094570 1_555
O16 S5 1.473342 1_555
O16 Y2 2.247571 1_555
O17 Si5 1.593457 1_555
O17 Y2 2.218932 1_555
O18 Si5 1.659709 1_555
O18 Ti3 1.819792 1_554
O19 Si4 1.693481 1_555
O19 Ti3 1.791609 1_554
O20 S5 1.472817 1_555
O20 Ti3 2.332856 1_554
O21 S3 1.504319 1_555
O21 Ti4 2.007057 1_555
O22 S4 1.472915 1_555
O22 Ti4 2.268344 1_555
O23 Si3 1.688924 1_555
O23 Ti4 1.874270 1_555
O24 Si6 1.618626 1_555
O24 Ti5 1.865984 1_556
O25 S6 1.470949 1_555
O25 Ti5 2.053429 1_556
O26 S7 1.463843 1_555
O26 Ti5 2.154552 1_556
O27 Si7 1.609314 1_555
O27 Ti6 1.843105 1_555
O28 Si8 1.631057 1_555
O28 Ti6 1.781708 1_555
O29 S8 1.459439 1_555
O29 Ti6 2.053800 1_555
O30 S8 1.493809 1_555
O30 Ti7 2.120060 1_555
O31 Si7 1.653406 1_555
O31 Ti7 1.869191 1_555
O32 Si8 1.683357 1_555
O32 Ti7 1.829743 1_555
O33 S6 1.515092 1_555
O33 Ti8 1.971128 1_555
O34 S7 1.480270 1_555
O34 Ti8 2.171215 1_555
O35 Si6 1.653901 1_555
O35 Ti8 1.891362 1_555
O36 S8 1.469293 1_555
O36 Y0 2.287328 1_455
O37 Si7 1.612849 1_555
O37 Y0 2.199283 1_555
O38 Si8 1.609753 1_555
O38 Y0 2.200997 1_445
O39 S6 1.474842 1_555
O39 Ti0 2.277359 1_545
O40 S7 1.524594 1_555
O40 Ti0 2.022320 1_555
O41 Si6 1.643340 1_555
O41 Ti0 1.946831 1_655
O42 Si3 1.664327 1_555
O42 Ti1 1.925621 1_655
O43 S3 1.496729 1_555
O43 Ti1 2.147944 1_555
O44 S4 1.480541 1_555
O44 Ti1 2.311618 1_665
O45 Si4 1.643280 1_555
O45 Ti2 1.935298 1_665
O46 S5 1.499333 1_555
O46 Ti2 2.089577 1_655
O47 Si5 1.656958 1_555
O47 Ti2 1.833412 1_555
O48 S2 1.472521 1_545
O48 Y1 2.290558 1_555
O49 Si1 1.603481 1_555
O49 Y1 2.291136 1_555
O50 Si2 1.616651 1_655
O50 Y1 2.186090 1_555
O51 S1 1.493547 1_555
O51 Y2 2.360484 1_555
O52 Si0 1.604683 1_655
O52 Y2 2.151598 1_555
O53 S0 1.485028 1_545
O53 Y2 2.428997 1_555
O54 Si6 1.676689 1_555
O54 Ti3 1.862278 1_555
O55 S6 1.486106 1_655
O55 Ti3 2.313532 1_555
O56 S7 1.487975 1_545
O56 Ti3 2.330778 1_555
O57 Si7 1.684832 1_545
O57 Ti4 1.842005 1_555
O58 Si8 1.620132 1_555
O58 Ti4 1.915010 1_555
O59 S8 1.499987 1_655
O59 Ti4 2.199152 1_555
O60 Si5 1.632974 1_555
O60 Ti5 1.832194 1_555
O61 Si4 1.628396 1_455
O61 Ti5 1.869913 1_555
O62 S5 1.488202 1_565
O62 Ti5 2.022642 1_555
O63 S3 1.471098 1_565
O63 Ti6 2.203697 1_555
O64 S4 1.505891 1_555
O64 Ti6 1.994352 1_555
O65 Si3 1.639783 1_455
O65 Ti6 1.889307 1_555
O66 S0 1.472942 1_555
O66 Ti7 2.281097 1_555
O67 S1 1.514300 1_555
O67 Ti7 2.065925 1_555
O68 Si0 1.678374 1_555
O68 Ti7 1.966496 1_555
O69 Si1 1.673619 1_555
O69 Ti8 1.851523 1_555
O70 Si2 1.633840 1_555
O70 Ti8 1.917726 1_555
O71 S2 1.497742 1_555
O71 Ti8 2.244750 1_555
