# generated using pymatgen
data_Rb3NaMg(MoO4)2
_symmetry_space_group_name_H-M   'P 1'
_cell_length_a   6.26916923
_cell_length_b   6.26913353
_cell_length_c   8.94208201
_cell_angle_alpha   89.99965757
_cell_angle_beta   89.99466549
_cell_angle_gamma   120.00015165
_symmetry_Int_Tables_number   1
_chemical_formula_structural   Rb3NaMg(MoO4)2
_chemical_formula_sum   'Rb3 Na1 Mg1 Mo2 O8'
_cell_volume   304.35898520
_cell_formula_units_Z   1
loop_
 _symmetry_equiv_pos_site_id
 _symmetry_equiv_pos_as_xyz
  1  'x, y, z'
loop_
 _atom_site_type_symbol
 _atom_site_label
 _atom_site_symmetry_multiplicity
 _atom_site_fract_x
 _atom_site_fract_y
 _atom_site_fract_z
 _atom_site_occupancy
  Rb  Rb0  1  0.66667200  0.33334000  0.32055600  1
  Rb  Rb1  1  0.33333500  0.66666500  0.62832000  1
  Rb  Rb2  1  0.99989900  0.99994300  0.94078600  1
  Na  Na0  1  0.00001200  0.00000600  0.57669700  1
  Mg  Mg0  1  0.00001800  0.00001600  0.27888500  1
  Mo  Mo0  1  0.33336100  0.66668200  0.20227200  1
  Mo  Mo1  1  0.66669400  0.33334700  0.78076000  1
  O  O0  1  0.17068000  0.82927300  0.31125300  1
  O  O1  1  0.17075400  0.34141700  0.31126300  1
  O  O2  1  0.65860300  0.82933600  0.31126600  1
  O  O3  1  0.82255100  0.17748200  0.70940600  1
  O  O4  1  0.82251200  0.64506000  0.70940500  1
  O  O5  1  0.35485200  0.17740500  0.70940800  1
  O  O6  1  0.33340300  0.66669900  0.99778400  1
  O  O7  1  0.66665500  0.33332900  0.97860700  1
loop_
_geom_bond_atom_site_label_1
_geom_bond_atom_site_label_2
_geom_bond_distance
_geom_bond_site_symmetry_2
Na0 O5 2.262798 1_555
Na0 O3 2.263074 1_455
Na0 O4 2.263092 1_445
Mg0 O1 1.876035 1_555
Mg0 O0 1.876049 1_545
Mg0 O2 1.876075 1_445
Mg0 Rb2 3.023309 1_444
Mo0 O6 1.828548 1_554
Mo0 O1 2.016972 1_555
Mo0 O0 2.016979 1_555
Mo0 O2 2.017031 1_555
Mo1 O7 1.769164 1_555
Mo1 O4 1.808610 1_555
Mo1 O3 1.808667 1_555
Mo1 O5 1.809367 1_555
O0 Rb0 3.135786 1_455
O0 Rb0 3.136171 1_565
O0 Rb1 3.340300 1_555
O1 Rb0 3.135728 1_555
O1 Rb0 3.136257 1_455
O1 Rb1 3.340192 1_555
O2 Rb0 3.135783 1_565
O2 Rb0 3.136164 1_555
O2 Rb1 3.339975 1_555
O3 Rb2 2.827310 1_545
O3 Rb1 3.219303 1_655
O3 Rb1 3.219642 1_545
O4 Rb2 2.827310 1_555
O4 Rb1 3.219427 1_555
O4 Rb1 3.219546 1_655
O5 Rb2 2.827314 1_445
O5 Rb1 3.219353 1_545
O5 Rb1 3.219572 1_555
O6 Rb1 3.303777 1_555
O7 Rb0 3.057736 1_556
