# generated using pymatgen
data_MnPO4
_symmetry_space_group_name_H-M   'P 1'
_cell_length_a   7.29690857
_cell_length_b   6.22656601
_cell_length_c   5.44837395
_cell_angle_alpha   77.04571076
_cell_angle_beta   56.26324962
_cell_angle_gamma   46.69103962
_symmetry_Int_Tables_number   1
_chemical_formula_structural   MnPO4
_chemical_formula_sum   'Mn2 P2 O8'
_cell_volume   144.68101914
_cell_formula_units_Z   2
loop_
 _symmetry_equiv_pos_site_id
 _symmetry_equiv_pos_as_xyz
  1  'x, y, z'
loop_
 _atom_site_type_symbol
 _atom_site_label
 _atom_site_symmetry_multiplicity
 _atom_site_fract_x
 _atom_site_fract_y
 _atom_site_fract_z
 _atom_site_occupancy
  Mn  Mn0  1  0.28850400  0.21149600  0.28850400  1
  Mn  Mn1  1  0.03850400  0.96149600  0.03850400  1
  P  P0  1  0.63551300  0.86448700  0.63551300  1
  P  P1  1  0.38551300  0.61448700  0.38551300  1
  O  O0  1  0.25386400  0.92841000  0.30378100  1
  O  O1  1  0.59614200  0.02861700  0.85922500  1
  O  O2  1  0.32159000  0.99613600  0.73605600  1
  O  O3  1  0.30378100  0.51394400  0.25386400  1
  O  O4  1  0.22138300  0.65385800  0.73398400  1
  O  O5  1  0.85922500  0.51601600  0.59614200  1
  O  O6  1  0.73605600  0.94621900  0.32159000  1
  O  O7  1  0.73398400  0.39077500  0.22138300  1
loop_
_geom_bond_atom_site_label_1
_geom_bond_atom_site_label_2
_geom_bond_distance
_geom_bond_site_symmetry_2
Mn0 O1 1.913548 1_554
Mn0 O5 1.913548 1_455
Mn0 O3 1.923489 1_555
Mn0 O0 1.923495 1_545
Mn0 O2 2.558543 1_545
Mn0 O6 2.558545 1_545
Mn1 O4 1.913548 1_554
Mn1 O7 1.913548 1_465
Mn1 O6 1.923490 1_455
Mn1 O2 1.923494 1_554
Mn1 O0 2.558538 1_555
Mn1 O3 2.558541 1_555
O0 P1 1.565488 1_555
O1 P0 1.542512 1_545
O2 P0 1.565487 1_555
O3 P1 1.565493 1_555
O4 P1 1.542512 1_555
O5 P0 1.542512 1_555
O6 P0 1.565489 1_555
O7 P1 1.542512 1_555
