# generated using pymatgen
data_ZnH8SO8
_symmetry_space_group_name_H-M   'P 1'
_cell_length_a   13.61312900
_cell_length_b   6.09473600
_cell_length_c   10.00105163
_cell_angle_alpha   52.72076243
_cell_angle_beta   90.00000000
_cell_angle_gamma   90.00000000
_symmetry_Int_Tables_number   1
_chemical_formula_structural   ZnH8SO8
_chemical_formula_sum   'Zn4 H32 S4 O32'
_cell_volume   660.24341352
_cell_formula_units_Z   4
loop_
 _symmetry_equiv_pos_site_id
 _symmetry_equiv_pos_as_xyz
  1  'x, y, z'
loop_
 _atom_site_type_symbol
 _atom_site_label
 _atom_site_symmetry_multiplicity
 _atom_site_fract_x
 _atom_site_fract_y
 _atom_site_fract_z
 _atom_site_occupancy
  Zn  Zn0  1  0.89628700  0.70602400  0.21969300  1
  Zn  Zn1  1  0.39628700  0.29397600  0.28030700  1
  Zn  Zn2  1  0.10371300  0.29397600  0.78030700  1
  Zn  Zn3  1  0.60371300  0.70602400  0.71969300  1
  H  H0  1  0.90000500  0.52390100  0.55127400  1
  H  H1  1  0.40000500  0.47609900  0.94872600  1
  H  H2  1  0.09999500  0.47609900  0.44872600  1
  H  H3  1  0.59999500  0.52390100  0.05127400  1
  H  H4  1  0.81416700  0.74652400  0.45195300  1
  H  H5  1  0.31416700  0.25347600  0.04804700  1
  H  H6  1  0.18583300  0.25347600  0.54804700  1
  H  H7  1  0.68583300  0.74652400  0.95195300  1
  H  H8  1  0.91625700  0.16163300  0.47320800  1
  H  H9  1  0.41625700  0.83836700  0.02679200  1
  H  H10  1  0.08374300  0.83836700  0.52679200  1
  H  H11  1  0.58374300  0.16163300  0.97320800  1
  H  H12  1  0.98403300  0.22543200  0.32351300  1
  H  H13  1  0.48403300  0.77456800  0.17648700  1
  H  H14  1  0.01596700  0.77456800  0.67648700  1
  H  H15  1  0.51596700  0.22543200  0.82351300  1
  H  H16  1  0.91479900  0.24787000  0.05254200  1
  H  H17  1  0.73495900  0.40300100  0.27891700  1
  H  H18  1  0.08520100  0.75213000  0.94745800  1
  H  H19  1  0.58520100  0.24787000  0.55254200  1
  H  H20  1  0.81419500  0.15197800  0.15456500  1
  H  H21  1  0.31419500  0.84802200  0.34543500  1
  H  H22  1  0.18580500  0.84802200  0.84543500  1
  H  H23  1  0.68580500  0.15197800  0.65456500  1
  H  H24  1  0.69293100  0.69271700  0.22288500  1
  H  H25  1  0.19293100  0.30728300  0.27711500  1
  H  H26  1  0.30706900  0.30728300  0.77711500  1
  H  H27  1  0.80706900  0.69271700  0.72288500  1
  H  H28  1  0.76504100  0.40300100  0.77891700  1
  H  H29  1  0.26504100  0.59699900  0.72108300  1
  H  H30  1  0.23495900  0.59699900  0.22108300  1
  H  H31  1  0.41479900  0.75213000  0.44745800  1
  S  S0  1  0.89139600  0.98760100  0.81681400  1
  S  S1  1  0.39139600  0.01239900  0.68318600  1
  S  S2  1  0.10860400  0.01239900  0.18318600  1
  S  S3  1  0.60860400  0.98760100  0.31681400  1
  O  O0  1  0.74931400  0.60178000  0.21185700  1
  O  O1  1  0.24931400  0.39822000  0.28814300  1
  O  O2  1  0.25068600  0.39822000  0.78814300  1
  O  O3  1  0.75068600  0.60178000  0.71185700  1
  O  O4  1  0.87568200  0.67775100  0.43844600  1
  O  O5  1  0.14258600  0.87096300  0.91543700  1
  O  O6  1  0.35741400  0.87096300  0.41543700  1
  O  O7  1  0.85741400  0.12903700  0.08456300  1
  O  O8  1  0.90615800  0.89819500  0.70692100  1
  O  O9  1  0.40615800  0.10180500  0.79307900  1
  O  O10  1  0.09384200  0.10180500  0.29307900  1
  O  O11  1  0.59384200  0.89819500  0.20692100  1
  O  O12  1  0.78613900  0.04728400  0.81745200  1
  O  O13  1  0.28613900  0.95271600  0.68254800  1
  O  O14  1  0.21386100  0.95271600  0.18254800  1
  O  O15  1  0.71386100  0.04728400  0.31745200  1
  O  O16  1  0.57533500  0.28659300  0.84988700  1
  O  O17  1  0.07533500  0.71340700  0.65011300  1
  O  O18  1  0.42466500  0.71340700  0.15011300  1
  O  O19  1  0.92466500  0.28659300  0.34988700  1
  O  O20  1  0.94955500  0.24558400  0.74703600  1
  O  O21  1  0.44955500  0.75441600  0.75296400  1
  O  O22  1  0.05044500  0.75441600  0.25296400  1
  O  O23  1  0.55044500  0.24558400  0.24703600  1
  O  O24  1  0.92823900  0.76231300  0.98908600  1
  O  O25  1  0.42823900  0.23768700  0.51091400  1
  O  O26  1  0.07176100  0.23768700  0.01091400  1
  O  O27  1  0.57176100  0.76231300  0.48908600  1
  O  O28  1  0.62431800  0.67775100  0.93844600  1
  O  O29  1  0.12431800  0.32224900  0.56155400  1
  O  O30  1  0.37568200  0.32224900  0.06155400  1
  O  O31  1  0.64258600  0.12903700  0.58456300  1
loop_
_geom_bond_atom_site_label_1
_geom_bond_atom_site_label_2
_geom_bond_distance
_geom_bond_site_symmetry_2
H0 O4 0.990154 1_555
H1 O30 0.990154 1_556
H2 O29 0.990154 1_555
H3 O28 0.990154 1_554
H4 O4 0.981726 1_555
H5 O30 0.981726 1_555
H6 O29 0.981726 1_555
H7 O28 0.981726 1_555
H8 O19 0.988119 1_555
H9 O18 0.988119 1_555
H10 O17 0.988119 1_555
H11 O16 0.988119 1_555
H12 O19 0.990350 1_555
H13 O18 0.990350 1_555
H14 O17 0.990350 1_555
H15 O16 0.990350 1_555
H16 O7 0.977952 1_555
H17 O0 0.985619 1_555
H18 O5 0.977952 1_555
H19 O31 0.977952 1_555
H20 O7 0.987123 1_555
H21 O6 0.987123 1_555
H22 O5 0.987123 1_555
H23 O31 0.987123 1_555
H24 O0 0.991224 1_555
H25 O1 0.991224 1_555
H26 O2 0.991224 1_555
H27 O3 0.991224 1_555
H28 O3 0.985619 1_555
H29 O2 0.985619 1_555
H30 O1 0.985619 1_555
H31 O6 0.977952 1_555
O0 Zn0 2.114986 1_555
O1 Zn1 2.114986 1_555
O2 Zn2 2.114986 1_555
O3 Zn3 2.114986 1_555
O4 Zn0 2.106652 1_555
O5 Zn2 2.128970 1_565
O6 Zn1 2.128970 1_565
O7 Zn0 2.128970 1_545
O8 S0 1.506880 1_555
O9 S1 1.506880 1_555
O10 S2 1.506880 1_555
O11 S3 1.506880 1_555
O12 S0 1.479292 1_545
O13 S1 1.479292 1_565
O14 S2 1.479292 1_565
O15 S3 1.479292 1_545
O16 Zn3 2.085004 1_555
O17 Zn2 2.085004 1_555
O18 Zn1 2.085004 1_555
O19 Zn0 2.085004 1_555
O20 S0 1.502283 1_545
O20 Zn2 2.172694 1_655
O21 S1 1.502283 1_565
O21 Zn3 2.172694 1_555
O22 S2 1.502283 1_565
O22 Zn0 2.172694 1_455
O23 S3 1.502283 1_545
O23 Zn1 2.172694 1_555
O24 S0 1.496494 1_555
O24 Zn0 2.160436 1_556
O25 S1 1.496494 1_555
O25 Zn1 2.160436 1_555
O26 S2 1.496494 1_555
O26 Zn2 2.160436 1_554
O27 S3 1.496494 1_555
O27 Zn3 2.160436 1_555
O28 Zn3 2.106652 1_555
O29 Zn2 2.106652 1_555
O30 Zn1 2.106652 1_555
O31 Zn3 2.128970 1_545
