# generated using pymatgen
data_KLaTaAlO6
_symmetry_space_group_name_H-M   'P 1'
_cell_length_a   3.96538400
_cell_length_b   3.96538400
_cell_length_c   7.86592200
_cell_angle_alpha   90.00000000
_cell_angle_beta   90.00000000
_cell_angle_gamma   90.00000000
_symmetry_Int_Tables_number   1
_chemical_formula_structural   KLaTaAlO6
_chemical_formula_sum   'K1 La1 Ta1 Al1 O6'
_cell_volume   123.68588343
_cell_formula_units_Z   1
loop_
 _symmetry_equiv_pos_site_id
 _symmetry_equiv_pos_as_xyz
  1  'x, y, z'
loop_
 _atom_site_type_symbol
 _atom_site_label
 _atom_site_symmetry_multiplicity
 _atom_site_fract_x
 _atom_site_fract_y
 _atom_site_fract_z
 _atom_site_occupancy
  K  K0  1  0.50000000  0.50000000  0.26653900  1
  La  La0  1  0.50000000  0.50000000  0.71065200  1
  Ta  Ta0  1  0.00000000  0.00000000  0.00848400  1
  Al  Al0  1  0.00000000  0.00000000  0.49723200  1
  O  O0  1  0.00000000  0.50000000  0.98720300  1
  O  O1  1  0.00000000  0.00000000  0.25296400  1
  O  O2  1  0.50000000  0.00000000  0.98720300  1
  O  O3  1  0.00000000  0.50000000  0.52049600  1
  O  O4  1  0.50000000  0.00000000  0.52049600  1
  O  O5  1  0.00000000  0.00000000  0.74861400  1
loop_
_geom_bond_atom_site_label_1
_geom_bond_atom_site_label_2
_geom_bond_distance
_geom_bond_site_symmetry_2
K0 O1 2.805982 1_665
K0 O1 2.805982 1_555
K0 O1 2.805982 1_655
K0 O1 2.805982 1_565
K0 O3 2.814515 1_555
K0 O4 2.814515 1_565
K0 O4 2.814515 1_555
K0 O3 2.814515 1_655
K0 O2 2.959546 1_564
K0 O0 2.959546 1_654
K0 O2 2.959546 1_554
K0 O0 2.959546 1_554
La0 O4 2.483615 1_565
La0 O3 2.483615 1_555
La0 O4 2.483615 1_555
La0 O3 2.483615 1_655
La0 O5 2.819805 1_555
La0 O5 2.819805 1_655
La0 O5 2.819805 1_565
La0 O5 2.819805 1_665
La0 O0 2.943318 1_655
La0 O0 2.943318 1_555
La0 O2 2.943318 1_555
La0 O2 2.943318 1_565
Al0 O1 1.921393 1_555
Al0 O5 1.977351 1_555
Al0 O4 1.991119 1_555
Al0 O3 1.991119 1_545
Al0 O3 1.991119 1_555
Al0 O4 1.991119 1_455
O0 Ta0 1.989746 1_566
O0 Ta0 1.989746 1_556
O1 Ta0 1.923061 1_555
O2 Ta0 1.989746 1_656
O2 Ta0 1.989746 1_556
O5 Ta0 2.044117 1_556
