# generated using pymatgen
data_ZrCrF6
_symmetry_space_group_name_H-M   'P 1'
_cell_length_a   5.80327464
_cell_length_b   5.96228235
_cell_length_c   5.96228235
_cell_angle_alpha   58.24330266
_cell_angle_beta   60.87834867
_cell_angle_gamma   60.87834867
_symmetry_Int_Tables_number   1
_chemical_formula_structural   ZrCrF6
_chemical_formula_sum   'Zr1 Cr1 F6'
_cell_volume   145.67363818
_cell_formula_units_Z   1
loop_
 _symmetry_equiv_pos_site_id
 _symmetry_equiv_pos_as_xyz
  1  'x, y, z'
loop_
 _atom_site_type_symbol
 _atom_site_label
 _atom_site_symmetry_multiplicity
 _atom_site_fract_x
 _atom_site_fract_y
 _atom_site_fract_z
 _atom_site_occupancy
  Zr  Zr0  1  0.50000000  0.50000000  0.50000000  1
  Cr  Cr0  1  -0.00000000  -0.00000000  0.00000000  1
  F  F0  1  0.75017278  0.24982722  0.75017278  1
  F  F1  1  0.24982722  0.24982722  0.75017278  1
  F  F2  1  0.24982722  0.75017278  0.24982722  1
  F  F3  1  0.26684638  0.73315362  0.73315362  1
  F  F4  1  0.73315362  0.26684638  0.26684638  1
  F  F5  1  0.75017278  0.75017278  0.24982722  1
loop_
_geom_bond_atom_site_label_1
_geom_bond_atom_site_label_2
_geom_bond_distance
_geom_bond_site_symmetry_2
Cr0 F5 2.050349 1_445
Cr0 F1 2.050349 1_554
Cr0 F0 2.050349 1_454
Cr0 F2 2.050349 1_545
Cr0 F3 2.308480 1_544
Cr0 F4 2.308480 1_455
F0 Zr0 2.053185 1_555
F1 Zr0 2.053185 1_555
F2 Zr0 2.053185 1_555
F3 Zr0 2.017005 1_555
F4 Zr0 2.017005 1_555
F5 Zr0 2.053185 1_555
