# generated using pymatgen
data_Ho14Ge23
_symmetry_space_group_name_H-M   'P 1'
_cell_length_a   5.74162472
_cell_length_b   7.45304160
_cell_length_c   40.29495623
_cell_angle_alpha   90.00000000
_cell_angle_beta   90.00000000
_cell_angle_gamma   112.65533015
_symmetry_Int_Tables_number   1
_chemical_formula_structural   Ho14Ge23
_chemical_formula_sum   'Ho28 Ge46'
_cell_volume   1591.27347654
_cell_formula_units_Z   2
loop_
 _symmetry_equiv_pos_site_id
 _symmetry_equiv_pos_as_xyz
  1  'x, y, z'
loop_
 _atom_site_type_symbol
 _atom_site_label
 _atom_site_symmetry_multiplicity
 _atom_site_fract_x
 _atom_site_fract_y
 _atom_site_fract_z
 _atom_site_occupancy
  Ge  Ge0  1  0.80267412  0.60534823  0.00000000  1
  Ge  Ge1  1  0.19732588  0.39465177  0.50000000  1
  Ge  Ge2  1  0.78901673  0.20096907  0.02762733  1
  Ge  Ge3  1  0.58804765  0.79903093  0.47237267  1
  Ge  Ge4  1  0.21098327  0.79903093  0.52762733  1
  Ge  Ge5  1  0.41195235  0.20096907  0.97237267  1
  Ge  Ge6  1  0.30110541  0.10627082  0.10739843  1
  Ge  Ge7  1  0.19483459  0.89372918  0.39260157  1
  Ge  Ge8  1  0.69889459  0.89372918  0.60739843  1
  Ge  Ge9  1  0.80516541  0.10627082  0.89260157  1
  Ge  Ge10  1  0.91990375  0.20425221  0.18768922  1
  Ge  Ge11  1  0.71565154  0.79574779  0.31231078  1
  Ge  Ge12  1  0.08009625  0.79574779  0.68768922  1
  Ge  Ge13  1  0.28434846  0.20425221  0.81231078  1
  Ge  Ge14  1  0.30137350  0.18513202  0.24546434  1
  Ge  Ge15  1  0.11624148  0.81486798  0.25453566  1
  Ge  Ge16  1  0.69862650  0.81486798  0.74546434  1
  Ge  Ge17  1  0.88375852  0.18513202  0.75453566  1
  Ge  Ge18  1  0.16808015  0.33353493  0.06997286  1
  Ge  Ge19  1  0.83454522  0.66646507  0.43002714  1
  Ge  Ge20  1  0.83191985  0.66646507  0.56997286  1
  Ge  Ge21  1  0.16545478  0.33353493  0.93002714  1
  Ge  Ge22  1  0.66523706  0.33154307  0.14455056  1
  Ge  Ge23  1  0.33369399  0.66845693  0.35544944  1
  Ge  Ge24  1  0.33476294  0.66845693  0.64455056  1
  Ge  Ge25  1  0.66630601  0.33154307  0.85544944  1
  Ge  Ge26  1  0.28796628  0.70034692  0.07978421  1
  Ge  Ge27  1  0.58761936  0.29965308  0.42021579  1
  Ge  Ge28  1  0.71203372  0.29965308  0.57978421  1
  Ge  Ge29  1  0.41238064  0.70034692  0.92021579  1
  Ge  Ge30  1  0.91064831  0.69978127  0.13516679  1
  Ge  Ge31  1  0.21086704  0.30021873  0.36483321  1
  Ge  Ge32  1  0.08935169  0.30021873  0.63516679  1
  Ge  Ge33  1  0.78913296  0.69978127  0.86483321  1
  Ge  Ge34  1  0.31469496  0.62748238  0.21603594  1
  Ge  Ge35  1  0.68721258  0.37251762  0.28396406  1
  Ge  Ge36  1  0.68530504  0.37251762  0.71603594  1
  Ge  Ge37  1  0.31278742  0.62748238  0.78396406  1
  Ge  Ge38  1  0.66760440  0.83330194  0.03724418  1
  Ge  Ge39  1  0.83430246  0.16669806  0.46275582  1
  Ge  Ge40  1  0.33239560  0.16669806  0.53724418  1
  Ge  Ge41  1  0.16569754  0.83330194  0.96275582  1
  Ge  Ge42  1  0.66384958  0.83800476  0.17662985  1
  Ge  Ge43  1  0.82584482  0.16199524  0.32337015  1
  Ge  Ge44  1  0.33615042  0.16199524  0.67662985  1
  Ge  Ge45  1  0.17415518  0.83800476  0.82337015  1
  Ho  Ho0  1  0.72214171  0.00000000  0.25000000  1
  Ho  Ho1  1  0.27785829  0.00000000  0.75000000  1
  Ho  Ho2  1  0.25419748  0.50839497  0.00000000  1
  Ho  Ho3  1  0.74580252  0.49160503  0.50000000  1
  Ho  Ho4  1  0.23224962  0.99267000  0.03512571  1
  Ho  Ho5  1  0.23957962  0.00733000  0.46487429  1
  Ho  Ho6  1  0.76775038  0.00733000  0.53512571  1
  Ho  Ho7  1  0.76042038  0.99267000  0.96487429  1
  Ho  Ho8  1  0.75296950  0.00819400  0.10709400  1
  Ho  Ho9  1  0.74477550  0.99180600  0.39290600  1
  Ho  Ho10  1  0.24703050  0.99180600  0.60709400  1
  Ho  Ho11  1  0.25522450  0.00819400  0.89290600  1
  Ho  Ho12  1  0.25775798  0.99226948  0.18014139  1
  Ho  Ho13  1  0.26548851  0.00773052  0.31985861  1
  Ho  Ho14  1  0.74224202  0.00773052  0.68014139  1
  Ho  Ho15  1  0.73451149  0.99226948  0.81985861  1
  Ho  Ho16  1  0.73181786  0.49264318  0.07223389  1
  Ho  Ho17  1  0.23917468  0.50735682  0.42776611  1
  Ho  Ho18  1  0.26818214  0.50735682  0.57223389  1
  Ho  Ho19  1  0.76082532  0.49264318  0.92776611  1
  Ho  Ho20  1  0.26087716  0.49322838  0.14273075  1
  Ho  Ho21  1  0.76764877  0.50677162  0.35726925  1
  Ho  Ho22  1  0.73912284  0.50677162  0.64273075  1
  Ho  Ho23  1  0.23235123  0.49322838  0.85726925  1
  Ho  Ho24  1  0.74921717  0.50651616  0.21283600  1
  Ho  Ho25  1  0.24270100  0.49348384  0.28716400  1
  Ho  Ho26  1  0.25078283  0.49348384  0.71283600  1
  Ho  Ho27  1  0.75729900  0.50651616  0.78716400  1
loop_
_geom_bond_atom_site_label_1
_geom_bond_atom_site_label_2
_geom_bond_distance
_geom_bond_site_symmetry_2
Ge0 Ge41 2.599064 1_654
Ge0 Ge38 2.599064 1_555
Ge0 Ho2 2.947243 1_655
Ge0 Ho2 2.947243 1_555
Ge0 Ho19 3.013269 1_554
Ge0 Ho16 3.013269 1_555
Ge0 Ho4 3.306794 1_655
Ge0 Ho7 3.306794 1_554
Ge1 Ge39 2.599064 1_455
Ge1 Ge40 2.599064 1_555
Ge1 Ho3 2.947243 1_455
Ge1 Ho3 2.947243 1_555
Ge1 Ho17 3.013269 1_555
Ge1 Ho18 3.013269 1_555
Ge1 Ho6 3.306794 1_455
Ge1 Ho5 3.306794 1_555
Ge2 Ge38 2.583299 1_545
Ge2 Ho16 2.935000 1_555
Ge2 Ho7 2.938487 1_544
Ge2 Ho4 2.982850 1_545
Ge2 Ho2 2.984692 1_655
Ge2 Ho4 3.467195 1_645
Ge3 Ge39 2.583299 1_565
Ge3 Ho17 2.935000 1_555
Ge3 Ho6 2.938487 1_565
Ge3 Ho5 2.982850 1_565
Ge3 Ho3 2.984692 1_555
Ge3 Ho5 3.467195 1_665
Ge4 Ge40 2.583299 1_565
Ge4 Ho18 2.935000 1_555
Ge4 Ho5 2.938487 1_565
Ge4 Ho6 2.982850 1_565
Ge4 Ho3 2.984692 1_455
Ge4 Ho6 3.467195 1_465
Ge5 Ho19 2.935000 1_555
Ge5 Ho4 2.938487 1_546
Ge5 Ho7 2.982850 1_545
Ge5 Ho2 2.984692 1_556
Ge5 Ho7 3.467195 1_445
Ge6 Ho8 2.943982 1_455
Ge6 Ho8 2.954071 1_555
Ge6 Ho4 3.016015 1_545
Ge6 Ho12 3.035249 1_545
Ge6 Ho20 3.303181 1_555
Ge6 Ho16 3.306013 1_555
Ge7 Ho9 2.943982 1_455
Ge7 Ho9 2.954071 1_555
Ge7 Ho5 3.016015 1_565
Ge7 Ho13 3.035249 1_565
Ge7 Ho21 3.303181 1_455
Ge7 Ho17 3.306013 1_555
Ge8 Ho10 2.943982 1_655
Ge8 Ho10 2.954071 1_555
Ge8 Ho6 3.016015 1_565
Ge8 Ho14 3.035249 1_565
Ge8 Ho22 3.303181 1_555
Ge8 Ho18 3.306013 1_555
Ge9 Ho11 2.943982 1_655
Ge9 Ho11 2.954071 1_555
Ge9 Ho7 3.016015 1_545
Ge9 Ho15 3.035249 1_545
Ge9 Ho23 3.303181 1_655
Ge9 Ho19 3.306013 1_555
Ge10 Ge42 2.592193 1_545
Ge10 Ge22 2.669890 1_555
Ge10 Ho20 2.916337 1_655
Ge10 Ho0 2.929036 1_555
Ge10 Ho12 2.951712 1_645
Ge10 Ho24 2.960243 1_555
Ge11 Ge43 2.592193 1_565
Ge11 Ge23 2.669890 1_555
Ge11 Ho21 2.916337 1_555
Ge11 Ho0 2.929036 1_565
Ge11 Ho13 2.951712 1_665
Ge11 Ho25 2.960243 1_555
Ge12 Ge44 2.592193 1_565
Ge12 Ge24 2.669890 1_555
Ge12 Ho22 2.916337 1_455
Ge12 Ho1 2.929036 1_565
Ge12 Ho14 2.951712 1_465
Ge12 Ho26 2.960243 1_555
Ge13 Ge45 2.592193 1_545
Ge13 Ge25 2.669890 1_555
Ge13 Ho23 2.916337 1_555
Ge13 Ho1 2.929036 1_555
Ge13 Ho15 2.951712 1_445
Ge13 Ho27 2.960243 1_555
Ge14 Ge15 2.572758 1_545
Ge14 Ge35 2.623243 1_555
Ge14 Ho12 2.963100 1_545
Ge14 Ho25 2.968973 1_555
Ge14 Ho24 3.054998 1_555
Ge14 Ho0 3.076137 1_455
Ge14 Ho0 3.215863 1_555
Ge14 Ho13 3.250698 1_555
Ge15 Ge34 2.623243 1_555
Ge15 Ho13 2.963100 1_565
Ge15 Ho24 2.968973 1_455
Ge15 Ho25 3.054998 1_555
Ge15 Ho0 3.076137 1_465
Ge15 Ho0 3.215863 1_565
Ge15 Ho12 3.250698 1_555
Ge16 Ge17 2.572758 1_565
Ge16 Ge37 2.623243 1_555
Ge16 Ho14 2.963100 1_565
Ge16 Ho27 2.968973 1_555
Ge16 Ho26 3.054998 1_555
Ge16 Ho1 3.076137 1_665
Ge16 Ho1 3.215863 1_565
Ge16 Ho15 3.250698 1_555
Ge17 Ge36 2.623243 1_555
Ge17 Ho15 2.963100 1_545
Ge17 Ho26 2.968973 1_655
Ge17 Ho27 3.054998 1_555
Ge17 Ho1 3.076137 1_655
Ge17 Ho1 3.215863 1_555
Ge17 Ho14 3.250698 1_555
Ge18 Ge26 2.579616 1_555
Ge18 Ge6 2.592920 1_555
Ge18 Ge2 2.639695 1_455
Ge18 Ho16 2.989027 1_555
Ge18 Ho4 3.046726 1_545
Ge18 Ho8 3.057029 1_455
Ge18 Ho2 3.065351 1_555
Ge18 Ho20 3.131652 1_555
Ge18 Ho16 3.158654 1_455
Ge19 Ge27 2.579616 1_555
Ge19 Ge7 2.592920 1_655
Ge19 Ge3 2.639695 1_555
Ge19 Ho17 2.989027 1_655
Ge19 Ho5 3.046726 1_665
Ge19 Ho9 3.057029 1_555
Ge19 Ho3 3.065351 1_555
Ge19 Ho21 3.131652 1_555
Ge19 Ho17 3.158654 1_555
Ge20 Ge28 2.579616 1_555
Ge20 Ge8 2.592920 1_555
Ge20 Ge4 2.639695 1_655
Ge20 Ho18 2.989027 1_555
Ge20 Ho6 3.046726 1_565
Ge20 Ho10 3.057029 1_655
Ge20 Ho3 3.065351 1_555
Ge20 Ho22 3.131652 1_555
Ge20 Ho18 3.158654 1_655
Ge21 Ge29 2.579616 1_555
Ge21 Ge9 2.592920 1_455
Ge21 Ge5 2.639695 1_555
Ge21 Ho19 2.989027 1_455
Ge21 Ho7 3.046726 1_445
Ge21 Ho11 3.057029 1_555
Ge21 Ho2 3.065351 1_556
Ge21 Ho23 3.131652 1_555
Ge21 Ho19 3.158654 1_555
Ge22 Ge30 2.584863 1_555
Ge22 Ge6 2.593633 1_555
Ge22 Ho20 3.000505 1_555
Ge22 Ho24 3.003297 1_555
Ge22 Ho8 3.045445 1_555
Ge22 Ho12 3.060533 1_545
Ge22 Ho16 3.118583 1_555
Ge22 Ho20 3.158902 1_655
Ge23 Ge31 2.584863 1_555
Ge23 Ge7 2.593633 1_555
Ge23 Ho21 3.000505 1_455
Ge23 Ho25 3.003297 1_555
Ge23 Ho9 3.045445 1_555
Ge23 Ho13 3.060533 1_565
Ge23 Ho17 3.118583 1_555
Ge23 Ho21 3.158902 1_555
Ge24 Ge32 2.584863 1_555
Ge24 Ge8 2.593633 1_555
Ge24 Ho22 3.000505 1_555
Ge24 Ho26 3.003297 1_555
Ge24 Ho10 3.045445 1_555
Ge24 Ho14 3.060533 1_565
Ge24 Ho18 3.118583 1_555
Ge24 Ho22 3.158902 1_455
Ge25 Ge33 2.584863 1_555
Ge25 Ge9 2.593633 1_555
Ge25 Ho23 3.000505 1_655
Ge25 Ho27 3.003297 1_555
Ge25 Ho11 3.045445 1_555
Ge25 Ho15 3.060533 1_545
Ge25 Ho19 3.118583 1_555
Ge25 Ho23 3.158902 1_555
Ge26 Ge38 2.647173 1_555
Ge26 Ho4 2.936704 1_555
Ge26 Ho20 2.942039 1_555
Ge26 Ho16 2.979492 1_455
Ge26 Ho8 2.980663 1_565
Ge26 Ho16 3.467359 1_555
Ge27 Ge39 2.647173 1_555
Ge27 Ho5 2.936704 1_555
Ge27 Ho21 2.942039 1_555
Ge27 Ho17 2.979492 1_555
Ge27 Ho9 2.980663 1_545
Ge27 Ho17 3.467359 1_655
Ge28 Ge40 2.647173 1_555
Ge28 Ho6 2.936704 1_555
Ge28 Ho22 2.942039 1_555
Ge28 Ho18 2.979492 1_655
Ge28 Ho10 2.980663 1_545
Ge28 Ho18 3.467359 1_555
Ge29 Ge41 2.647173 1_555
Ge29 Ho7 2.936704 1_555
Ge29 Ho23 2.942039 1_555
Ge29 Ho19 2.979492 1_555
Ge29 Ho11 2.980663 1_565
Ge29 Ho19 3.467359 1_455
Ge30 Ge42 2.642962 1_555
Ge30 Ho16 2.940602 1_555
Ge30 Ho12 2.943018 1_655
Ge30 Ho20 2.981820 1_655
Ge30 Ho8 2.997665 1_565
Ge30 Ho24 3.420564 1_555
Ge30 Ho20 3.457855 1_555
Ge31 Ge43 2.642962 1_455
Ge31 Ho17 2.940602 1_555
Ge31 Ho13 2.943018 1_555
Ge31 Ho21 2.981820 1_555
Ge31 Ho9 2.997665 1_445
Ge31 Ho25 3.420564 1_555
Ge31 Ho21 3.457855 1_455
Ge32 Ge44 2.642962 1_555
Ge32 Ho18 2.940602 1_555
Ge32 Ho14 2.943018 1_455
Ge32 Ho22 2.981820 1_455
Ge32 Ho10 2.997665 1_545
Ge32 Ho26 3.420564 1_555
Ge32 Ho22 3.457855 1_555
Ge33 Ge45 2.642962 1_655
Ge33 Ho19 2.940602 1_555
Ge33 Ho15 2.943018 1_555
Ge33 Ho23 2.981820 1_555
Ge33 Ho11 2.997665 1_665
Ge33 Ho27 3.420564 1_555
Ge33 Ho23 3.457855 1_655
Ge34 Ge42 2.564933 1_555
Ge34 Ho24 2.964217 1_555
Ge34 Ho25 3.010777 1_555
Ge34 Ho24 3.019254 1_455
Ge34 Ho20 3.095739 1_555
Ge34 Ho0 3.170255 1_565
Ge34 Ho12 3.205509 1_555
Ge35 Ge43 2.564933 1_555
Ge35 Ho25 2.964217 1_655
Ge35 Ho24 3.010777 1_555
Ge35 Ho25 3.019254 1_555
Ge35 Ho21 3.095739 1_555
Ge35 Ho0 3.170255 1_555
Ge35 Ho13 3.205509 1_555
Ge36 Ge44 2.564933 1_555
Ge36 Ho26 2.964217 1_555
Ge36 Ho27 3.010777 1_555
Ge36 Ho26 3.019254 1_655
Ge36 Ho22 3.095739 1_555
Ge36 Ho1 3.170255 1_555
Ge36 Ho14 3.205509 1_555
Ge37 Ge45 2.564933 1_555
Ge37 Ho27 2.964217 1_455
Ge37 Ho26 3.010777 1_555
Ge37 Ho27 3.019254 1_555
Ge37 Ho23 3.095739 1_555
Ge37 Ho1 3.170255 1_565
Ge37 Ho15 3.205509 1_555
Ge38 Ho4 2.993664 1_655
Ge38 Ho16 3.048138 1_555
Ge38 Ho2 3.053237 1_555
Ge38 Ho8 3.060892 1_565
Ge38 Ho7 3.116257 1_554
Ge38 Ho4 3.154928 1_555
Ge39 Ho5 2.993664 1_655
Ge39 Ho17 3.048138 1_655
Ge39 Ho3 3.053237 1_555
Ge39 Ho9 3.060892 1_545
Ge39 Ho6 3.116257 1_555
Ge39 Ho5 3.154928 1_555
Ge40 Ho6 2.993664 1_455
Ge40 Ho18 3.048138 1_555
Ge40 Ho3 3.053237 1_555
Ge40 Ho10 3.060892 1_545
Ge40 Ho5 3.116257 1_555
Ge40 Ho6 3.154928 1_555
Ge41 Ge5 2.583299 1_565
Ge41 Ho7 2.993664 1_455
Ge41 Ho19 3.048138 1_455
Ge41 Ho2 3.053237 1_556
Ge41 Ho11 3.060892 1_565
Ge41 Ho4 3.116257 1_556
Ge41 Ho7 3.154928 1_555
Ge42 Ho12 2.973818 1_555
Ge42 Ho8 3.036712 1_565
Ge42 Ho20 3.040061 1_555
Ge42 Ho24 3.066832 1_555
Ge42 Ho12 3.154312 1_655
Ge42 Ho0 3.162121 1_565
Ge43 Ho13 2.973818 1_555
Ge43 Ho9 3.036712 1_545
Ge43 Ho21 3.040061 1_555
Ge43 Ho25 3.066832 1_655
Ge43 Ho13 3.154312 1_655
Ge43 Ho0 3.162121 1_555
Ge44 Ho14 2.973818 1_555
Ge44 Ho10 3.036712 1_545
Ge44 Ho22 3.040061 1_555
Ge44 Ho26 3.066832 1_555
Ge44 Ho14 3.154312 1_455
Ge44 Ho1 3.162121 1_555
Ge45 Ho15 2.973818 1_555
Ge45 Ho11 3.036712 1_565
Ge45 Ho23 3.040061 1_555
Ge45 Ho27 3.066832 1_455
Ge45 Ho15 3.154312 1_455
Ge45 Ho1 3.162121 1_565
