# generated using pymatgen
data_Na14Mg4Ga4Si5S7O48
_symmetry_space_group_name_H-M   'P 1'
_cell_length_a   18.03011874
_cell_length_b   8.92996374
_cell_length_c   22.06511119
_cell_angle_alpha   89.85113460
_cell_angle_beta   90.13166124
_cell_angle_gamma   119.53390078
_symmetry_Int_Tables_number   1
_chemical_formula_structural   Na14Mg4Ga4Si5S7O48
_chemical_formula_sum   'Na42 Mg12 Ga12 Si15 S21 O144'
_cell_volume   3091.03507115
_cell_formula_units_Z   3
loop_
 _symmetry_equiv_pos_site_id
 _symmetry_equiv_pos_as_xyz
  1  'x, y, z'
loop_
 _atom_site_type_symbol
 _atom_site_label
 _atom_site_symmetry_multiplicity
 _atom_site_fract_x
 _atom_site_fract_y
 _atom_site_fract_z
 _atom_site_occupancy
  Na  Na0  1  0.80854985  0.99731007  0.24879531  1
  Na  Na1  1  0.18610440  0.36074450  0.25227386  1
  Na  Na2  1  0.68051290  0.35325378  0.25148475  1
  Na  Na3  1  0.00514325  0.64752993  0.24719293  1
  Na  Na4  1  0.50485556  0.64404414  0.24136719  1
  Na  Na5  1  0.31790378  0.62065975  0.75081131  1
  Na  Na6  1  0.00470019  0.36518503  0.74166355  1
  Na  Na7  1  0.50326040  0.37221280  0.74627531  1
  Na  Na8  1  0.18353643  0.01167710  0.75092425  1
  Na  Na9  1  0.67725198  0.00006093  0.75108178  1
  Na  Na10  1  0.14955705  0.32734643  0.58333491  1
  Na  Na11  1  0.65182953  0.32695470  0.58178564  1
  Na  Na12  1  0.32992936  0.97313664  0.58952265  1
  Na  Na13  1  0.83315638  0.98172091  0.58560442  1
  Na  Na14  1  0.15482301  0.98028456  0.07627737  1
  Na  Na15  1  0.64838918  0.96843083  0.07811408  1
  Na  Na16  1  0.33475809  0.68625202  0.08217967  1
  Na  Na17  1  0.82717662  0.68410550  0.08358823  1
  Na  Na18  1  0.48478866  0.67585493  0.91716889  1
  Na  Na19  1  0.98908463  0.67723525  0.91543294  1
  Na  Na20  1  0.34392868  0.03379449  0.91246805  1
  Na  Na21  1  0.84333425  0.02601326  0.91301700  1
  Na  Na22  1  0.16735540  0.27938687  0.91403167  1
  Na  Na23  1  0.66604638  0.28063876  0.91590351  1
  Na  Na24  1  0.48999220  0.30321015  0.41879838  1
  Na  Na25  1  0.98532189  0.29897452  0.42914432  1
  Na  Na26  1  0.16767750  0.05483693  0.42079506  1
  Na  Na27  1  0.66687276  0.05429337  0.41827840  1
  Na  Na28  1  0.34617322  0.65946121  0.41758265  1
  Na  Na29  1  0.84205411  0.65430212  0.41722293  1
  Na  Na30  1  0.00851360  0.01135403  0.50626612  1
  Na  Na31  1  0.50995341  0.00429124  0.50408627  1
  Na  Na32  1  0.00956365  0.01612988  0.99958542  1
  Na  Na33  1  0.50912840  0.00555755  0.00218124  1
  Na  Na34  1  0.32807933  0.33243479  0.82833263  1
  Na  Na35  1  0.82220598  0.32990758  0.82911495  1
  Na  Na36  1  0.32524587  0.31770713  0.33040202  1
  Na  Na37  1  0.81870515  0.32250447  0.33488307  1
  Na  Na38  1  0.17040600  0.67095252  0.16488805  1
  Na  Na39  1  0.65578266  0.65127888  0.16313478  1
  Na  Na40  1  0.15792502  0.66046592  0.66566173  1
  Na  Na41  1  0.66311946  0.66870563  0.66940365  1
  Mg  Mg0  1  0.01242468  0.01812990  0.35059605  1
  Mg  Mg1  1  0.51018696  0.01931369  0.35017572  1
  Mg  Mg2  1  0.00834792  0.99900743  0.84978244  1
  Mg  Mg3  1  0.51262091  0.99752900  0.84687864  1
  Mg  Mg4  1  0.32801203  0.32574815  0.68443624  1
  Mg  Mg5  1  0.82223837  0.32862106  0.18002811  1
  Mg  Mg6  1  0.32667242  0.33069631  0.98651990  1
  Mg  Mg7  1  0.82303807  0.31607881  0.98343094  1
  Mg  Mg8  1  0.32318445  0.33168399  0.48596327  1
  Mg  Mg9  1  0.82631524  0.32378160  0.48798210  1
  Mg  Mg10  1  0.66456822  0.66339466  0.31576249  1
  Mg  Mg11  1  0.16670140  0.66920925  0.81446680  1
  Ga  Ga0  1  0.01529930  0.02776171  0.64681165  1
  Ga  Ga1  1  0.52610304  0.01176811  0.65796229  1
  Ga  Ga2  1  0.01600340  0.01284669  0.15137998  1
  Ga  Ga3  1  0.51624292  0.00417662  0.14528120  1
  Ga  Ga4  1  0.82370967  0.31384846  0.67670459  1
  Ga  Ga5  1  0.32466684  0.33020823  0.17579674  1
  Ga  Ga6  1  0.16376855  0.65617238  0.01416115  1
  Ga  Ga7  1  0.64521894  0.64663132  0.02278159  1
  Ga  Ga8  1  0.14881184  0.64351793  0.52584522  1
  Ga  Ga9  1  0.66054286  0.66237335  0.51802088  1
  Ga  Ga10  1  0.17623883  0.68593672  0.31717363  1
  Ga  Ga11  1  0.66479840  0.67108754  0.81053521  1
  Si  Si0  1  0.15389753  -0.00011464  0.25034417  1
  Si  Si1  1  0.65050724  0.99790311  0.25236674  1
  Si  Si2  1  0.14862068  0.30232543  0.75264191  1
  Si  Si3  1  0.65569848  0.30968019  0.75048427  1
  Si  Si4  1  0.49688074  0.69618009  0.75295332  1
  Si  Si5  1  0.97524801  0.32945627  0.58507688  1
  Si  Si6  1  0.18382626  0.02713837  0.58185401  1
  Si  Si7  1  0.68107305  0.02391957  0.58042509  1
  Si  Si8  1  0.47517073  0.62060003  0.08533898  1
  Si  Si9  1  0.18075158  0.33796462  0.08207157  1
  Si  Si10  1  0.68277283  0.34156900  0.08187402  1
  Si  Si11  1  0.16796598  0.95738150  0.91801859  1
  Si  Si12  1  0.66818986  0.95095289  0.91728111  1
  Si  Si13  1  0.16720276  0.38630777  0.41581278  1
  Si  Si14  1  0.66824488  0.37886361  0.41731581  1
  S  S0  1  0.35369413  0.71254162  0.25113638  1
  S  S1  1  0.85850400  0.71539060  0.24932436  1
  S  S2  1  0.99859480  0.29135944  0.24962960  1
  S  S3  1  0.49541784  0.28661051  0.24979486  1
  S  S4  1  0.99582562  0.70476067  0.74979127  1
  S  S5  1  0.35660609  0.99869363  0.74953901  1
  S  S6  1  0.85544682  0.99700101  0.75066978  1
  S  S7  1  0.47936148  0.33391200  0.58234149  1
  S  S8  1  0.33685218  0.63585112  0.58261242  1
  S  S9  1  0.83473881  0.62953484  0.58291757  1
  S  S10  1  0.97945171  0.62446418  0.08481139  1
  S  S11  1  0.33503683  0.04034216  0.08368905  1
  S  S12  1  0.83951032  0.04124893  0.08506461  1
  S  S13  1  0.31294655  0.66920122  0.91659287  1
  S  S14  1  0.81363433  0.66880666  0.91690297  1
  S  S15  1  0.01832606  0.37289312  0.91714925  1
  S  S16  1  0.51868655  0.37036170  0.91571249  1
  S  S17  1  0.31498951  0.96111897  0.41696002  1
  S  S18  1  0.81440828  0.95889237  0.41455402  1
  S  S19  1  0.02000185  0.66703095  0.41460091  1
  S  S20  1  0.51806432  0.66409437  0.41635806  1
  O  O0  1  0.11325008  0.04158602  0.30875135  1
  O  O1  1  0.60928384  0.03394780  0.31184660  1
  O  O2  1  0.40359297  0.79570429  0.30635245  1
  O  O3  1  0.90964605  0.79979122  0.30410991  1
  O  O4  1  0.48466147  0.18915750  0.30676780  1
  O  O5  1  0.98266615  0.18518928  0.30489094  1
  O  O6  1  0.10626230  0.18484184  0.81237776  1
  O  O7  1  0.61569363  0.18619699  0.80905924  1
  O  O8  1  0.47452886  0.77061218  0.81275527  1
  O  O9  1  0.98461340  0.77969290  0.80669836  1
  O  O10  1  0.40811746  0.02085749  0.80497984  1
  O  O11  1  0.90616807  0.01598908  0.80575421  1
  O  O12  1  0.39799535  0.97427596  0.69471808  1
  O  O13  1  0.89561528  0.97558451  0.69524760  1
  O  O14  1  0.08518646  0.21674802  0.69260421  1
  O  O15  1  0.59095076  0.23119670  0.69000582  1
  O  O16  1  0.00719633  0.81714731  0.69663135  1
  O  O17  1  0.51783783  0.82665162  0.69461081  1
  O  O18  1  0.39300040  0.81345810  0.19573377  1
  O  O19  1  0.89917131  0.82564560  0.19421490  1
  O  O20  1  0.01154254  0.20385975  0.19632766  1
  O  O21  1  0.50725375  0.19802973  0.19684407  1
  O  O22  1  0.08731011  0.94715746  0.19102714  1
  O  O23  1  0.58782495  0.96010947  0.19250572  1
  O  O24  1  0.43908023  0.35519168  0.63639780  1
  O  O25  1  0.92865036  0.35701198  0.64488181  1
  O  O26  1  0.24510813  0.10692980  0.64072788  1
  O  O27  1  0.74198873  0.10292780  0.64116563  1
  O  O28  1  0.32510852  0.52658425  0.63579988  1
  O  O29  1  0.81797021  0.51278101  0.63541417  1
  O  O30  1  0.43003195  0.50192786  0.14654193  1
  O  O31  1  0.93897122  0.52311491  0.14004308  1
  O  O32  1  0.31721871  0.12149775  0.13670142  1
  O  O33  1  0.82904615  0.12785968  0.13929187  1
  O  O34  1  0.24085848  0.37958632  0.14360839  1
  O  O35  1  0.74194888  0.38835045  0.14282103  1
  O  O36  1  0.21963153  0.29177641  0.02446065  1
  O  O37  1  0.72384705  0.29618668  0.02416010  1
  O  O38  1  0.41997436  0.54109618  0.02475704  1
  O  O39  1  0.92883323  0.54204218  0.02986480  1
  O  O40  1  0.34691298  0.13912507  0.02788208  1
  O  O41  1  0.85336799  0.14574934  0.02963754  1
  O  O42  1  0.22092018  0.14797581  0.52153540  1
  O  O43  1  0.71974963  0.14367555  0.52150020  1
  O  O44  1  0.35007887  0.55868152  0.52629144  1
  O  O45  1  0.84749666  0.55630576  0.52653307  1
  O  O46  1  0.42971063  0.31866779  0.52624433  1
  O  O47  1  0.92209595  0.30216374  0.52311106  1
  O  O48  1  0.27178366  0.69059981  0.97300130  1
  O  O49  1  0.77654576  0.69667203  0.97238442  1
  O  O50  1  0.07598157  0.44813774  0.97103999  1
  O  O51  1  0.57557196  0.44545235  0.96960893  1
  O  O52  1  0.15135912  0.82963695  0.97967778  1
  O  O53  1  0.65543535  0.82981608  0.97784989  1
  O  O54  1  0.27590391  0.85469636  0.47056395  1
  O  O55  1  0.77507716  0.85438730  0.47015224  1
  O  O56  1  0.15403333  0.48406759  0.47460523  1
  O  O57  1  0.65262735  0.47611668  0.47750825  1
  O  O58  1  0.07668619  0.70256107  0.46767629  1
  O  O59  1  0.57572223  0.70223313  0.46983115  1
  O  O60  1  0.05956392  0.64003156  0.35891249  1
  O  O61  1  0.55692747  0.63863808  0.36139291  1
  O  O62  1  0.25772403  0.88906089  0.36233868  1
  O  O63  1  0.76017873  0.87873855  0.36066094  1
  O  O64  1  0.18124691  0.50647193  0.35394564  1
  O  O65  1  0.68305561  0.49457853  0.35707360  1
  O  O66  1  0.05745093  0.47685476  0.86258460  1
  O  O67  1  0.55842834  0.47693424  0.86093728  1
  O  O68  1  0.18141689  0.86719035  0.85899711  1
  O  O69  1  0.68522285  0.85947678  0.85793234  1
  O  O70  1  0.25866506  0.64165070  0.86328973  1
  O  O71  1  0.75662646  0.63195976  0.86372516  1
  O  O72  1  0.00723060  0.81909096  0.40873618  1
  O  O73  1  0.50338554  0.81377788  0.41143396  1
  O  O74  1  0.39862093  0.96923563  0.40754675  1
  O  O75  1  0.89951101  0.97015154  0.40866006  1
  O  O76  1  0.08093507  0.19593200  0.41419125  1
  O  O77  1  0.58030733  0.18895855  0.41776341  1
  O  O78  1  0.00347980  0.19411072  0.91265116  1
  O  O79  1  0.50629677  0.19368753  0.90996737  1
  O  O80  1  0.07987430  0.97179525  0.91822487  1
  O  O81  1  0.58280755  0.97180108  0.91647497  1
  O  O82  1  0.39643985  0.82951639  0.91345906  1
  O  O83  1  0.89864577  0.82777146  0.90875067  1
  O  O84  1  0.48551046  0.17228223  0.58535595  1
  O  O85  1  0.98154772  0.14835132  0.59025814  1
  O  O86  1  0.08809240  0.00945501  0.58978851  1
  O  O87  1  0.58880335  0.02002474  0.58902291  1
  O  O88  1  0.40907054  0.81314400  0.58804239  1
  O  O89  1  0.90789910  0.80336709  0.59140690  1
  O  O90  1  0.48240369  0.81546925  0.09100721  1
  O  O91  1  0.98376561  0.79936419  0.08812464  1
  O  O92  1  0.40875727  0.01380717  0.09282133  1
  O  O93  1  0.91343821  0.00969907  0.09176581  1
  O  O94  1  0.08650412  0.16000455  0.09130963  1
  O  O95  1  0.58773974  0.16752223  0.08899340  1
  O  O96  1  0.34791566  0.15514025  0.74476032  1
  O  O97  1  0.84832402  0.15845887  0.74779449  1
  O  O98  1  0.24183403  0.31629124  0.74499852  1
  O  O99  1  0.74749655  0.31258801  0.73762126  1
  O  O100  1  0.41792769  0.50306463  0.74257355  1
  O  O101  1  0.92229253  0.52908235  0.74473713  1
  O  O102  1  0.34635953  0.53709720  0.24889502  1
  O  O103  1  0.85398095  0.54456271  0.24468124  1
  O  O104  1  0.42132530  0.31462337  0.24497624  1
  O  O105  1  0.92462171  0.31853505  0.24178586  1
  O  O106  1  0.24666032  0.17553563  0.23803577  1
  O  O107  1  0.74609889  0.16957120  0.24540608  1
  O  O108  1  0.32458116  0.51628813  0.92133369  1
  O  O109  1  0.82917826  0.51884707  0.92244878  1
  O  O110  1  0.43486869  0.36046778  0.92315034  1
  O  O111  1  0.93520007  0.36672047  0.92619373  1
  O  O112  1  0.25376392  0.14800085  0.92282120  1
  O  O113  1  0.75474574  0.14236664  0.91850646  1
  O  O114  1  0.32902553  0.13969707  0.42182878  1
  O  O115  1  0.82601281  0.13530397  0.41884502  1
  O  O116  1  0.25363195  0.36764593  0.41714852  1
  O  O117  1  0.75436101  0.35966890  0.42237091  1
  O  O118  1  0.43464508  0.50501718  0.42466186  1
  O  O119  1  0.93568922  0.51056713  0.42080439  1
  O  O120  1  0.17713104  0.52059686  0.07407061  1
  O  O121  1  0.67953354  0.52310495  0.07173495  1
  O  O122  1  0.06803403  0.65398274  0.08179168  1
  O  O123  1  0.57460182  0.65921409  0.08381113  1
  O  O124  1  0.25596369  0.86451402  0.07997164  1
  O  O125  1  0.76063273  0.87145942  0.08065746  1
  O  O126  1  0.18097290  0.83874470  0.57208971  1
  O  O127  1  0.67730805  0.83368103  0.57321784  1
  O  O128  1  0.25625139  0.64589639  0.57747910  1
  O  O129  1  0.75505670  0.64620830  0.57867685  1
  O  O130  1  0.07497092  0.48930293  0.58439305  1
  O  O131  1  0.56872845  0.48448839  0.57916163  1
  O  O132  1  0.15622646  0.81509879  0.25852489  1
  O  O133  1  0.65948166  0.82294765  0.25446566  1
  O  O134  1  0.26436865  0.68558287  0.25379722  1
  O  O135  1  0.77132206  0.69180723  0.25243704  1
  O  O136  1  0.07768647  0.46203457  0.25363554  1
  O  O137  1  0.57507649  0.45984627  0.25336845  1
  O  O138  1  0.15806600  0.49512804  0.75464072  1
  O  O139  1  0.66095013  0.49801820  0.75840651  1
  O  O140  1  0.07586832  0.69201421  0.75329746  1
  O  O141  1  0.58829822  0.69155133  0.75560214  1
  O  O142  1  0.26989755  0.84482299  0.75346259  1
  O  O143  1  0.76756860  0.84729514  0.75341166  1
loop_
_geom_bond_atom_site_label_1
_geom_bond_atom_site_label_2
_geom_bond_distance
_geom_bond_site_symmetry_2
Na0 O107 2.312238 1_565
Na0 O133 2.353425 1_555
Na0 O135 2.468497 1_555
Na0 O105 2.590923 1_565
Na0 O33 2.626489 1_565
Na0 O63 2.657124 1_555
Na1 O106 2.410553 1_555
Na1 O102 2.519661 1_555
Na1 O134 2.524229 1_555
Na1 O136 2.526624 1_555
Na1 O34 2.568459 1_555
Na1 O64 2.619625 1_555
Na1 O0 2.774802 1_555
Na2 O107 2.453775 1_555
Na2 O137 2.511223 1_555
Na2 O35 2.596173 1_555
Na2 O135 2.634660 1_555
Na2 O65 2.642094 1_555
Na2 O103 2.730634 1_555
Na2 O1 2.816310 1_555
Na2 O21 2.975906 1_555
Na3 O132 2.387946 1_555
Na3 O103 2.409493 1_455
Na3 O105 2.559158 1_455
Na3 O136 2.570754 1_555
Na3 O31 2.634669 1_455
Na3 O22 2.640659 1_555
Na3 O60 2.663982 1_555
Na4 O133 2.452754 1_555
Na4 O30 2.474137 1_555
Na4 O102 2.533149 1_555
Na4 O137 2.535369 1_555
Na4 O104 2.561202 1_555
Na4 O23 2.682435 1_555
Na4 O61 2.816080 1_555
Na5 O98 2.368734 1_555
Na5 O100 2.501556 1_555
Na5 O138 2.526806 1_555
Na5 O142 2.543367 1_555
Na5 O28 2.698691 1_555
Na5 O70 2.747270 1_555
Na5 O8 2.810647 1_555
Na6 O138 2.430955 1_555
Na6 O97 2.498948 1_455
Na6 O25 2.516849 1_455
Na6 O101 2.549369 1_455
Na6 O140 2.557486 1_555
Na6 O14 2.635501 1_555
Na6 O66 2.843428 1_555
Na7 O100 2.347462 1_555
Na7 O141 2.493252 1_555
Na7 O96 2.500174 1_555
Na7 O139 2.503279 1_555
Na7 O24 2.656272 1_555
Na7 O67 2.710838 1_555
Na7 O15 2.758097 1_555
Na8 O98 2.387744 1_555
Na8 O140 2.540931 1_545
Na8 O96 2.588698 1_555
Na8 O142 2.633303 1_545
Na8 O26 2.634164 1_555
Na8 O68 2.699733 1_545
Na8 O6 2.883522 1_555
Na9 O141 2.411500 1_545
Na9 O99 2.448230 1_555
Na9 O143 2.589357 1_545
Na9 O27 2.651928 1_555
Na9 O97 2.686831 1_555
Na9 O69 2.704857 1_545
Na9 O7 2.732710 1_555
Na9 O17 2.795972 1_545
Na10 O130 2.412155 1_555
Na10 O86 2.490797 1_555
Na10 O128 2.532506 1_555
Na10 O85 2.642304 1_455
Na10 O14 2.646879 1_555
Na10 O56 2.755554 1_555
Na10 O42 2.851660 1_555
Na10 O28 2.994348 1_555
Na11 O87 2.399401 1_555
Na11 O131 2.510882 1_555
Na11 O129 2.522876 1_555
Na11 O15 2.591168 1_555
Na11 O84 2.612197 1_555
Na11 O57 2.652150 1_555
Na11 O43 2.818261 1_555
Na11 O29 2.867128 1_555
Na12 O126 2.370919 1_555
Na12 O88 2.467549 1_555
Na12 O84 2.474286 1_565
Na12 O128 2.559316 1_555
Na12 O26 2.619018 1_565
Na12 O12 2.620815 1_555
Na12 O54 2.818553 1_555
Na13 O85 2.336163 1_565
Na13 O127 2.460553 1_555
Na13 O89 2.546237 1_555
Na13 O129 2.612462 1_555
Na13 O27 2.673326 1_565
Na13 O13 2.678019 1_555
Na13 O55 2.776328 1_555
Na13 O47 2.850804 1_565
Na14 O94 2.481260 1_565
Na14 O124 2.501679 1_555
Na14 O52 2.507656 1_554
Na14 O122 2.541225 1_555
Na14 O36 2.682384 1_565
Na14 O91 2.698106 1_455
Na14 O22 2.763216 1_555
Na14 O32 2.879528 1_565
Na15 O123 2.405771 1_555
Na15 O95 2.516816 1_565
Na15 O125 2.564293 1_555
Na15 O53 2.571645 1_554
Na15 O90 2.622009 1_555
Na15 O23 2.738711 1_555
Na15 O37 2.810389 1_565
Na16 O90 2.329471 1_555
Na16 O120 2.480261 1_555
Na16 O92 2.558478 1_565
Na16 O124 2.604537 1_555
Na16 O48 2.669188 1_554
Na16 O18 2.738199 1_555
Na16 O34 2.761041 1_555
Na16 O38 2.761754 1_555
Na17 O121 2.333961 1_555
Na17 O91 2.484929 1_555
Na17 O125 2.494172 1_555
Na17 O93 2.539391 1_565
Na17 O49 2.637419 1_554
Na17 O35 2.652357 1_555
Na17 O19 2.761328 1_555
Na17 O39 2.946904 1_555
Na18 O81 2.345887 1_555
Na18 O8 2.490063 1_555
Na18 O110 2.501819 1_555
Na18 O108 2.515020 1_555
Na18 O82 2.565313 1_555
Na18 O38 2.657232 1_556
Na19 O80 2.314692 1_655
Na19 O111 2.455784 1_555
Na19 O109 2.513472 1_555
Na19 O83 2.578119 1_555
Na19 O9 2.580775 1_555
Na19 O39 2.777913 1_556
Na19 O66 2.876307 1_655
Na19 O52 2.913324 1_655
Na20 O112 2.317888 1_555
Na20 O82 2.434541 1_545
Na20 O79 2.547835 1_555
Na20 O110 2.557372 1_555
Na20 O10 2.669038 1_555
Na20 O40 2.708290 1_556
Na20 O68 2.808289 1_545
Na21 O113 2.298524 1_555
Na21 O83 2.424702 1_545
Na21 O78 2.513486 1_655
Na21 O11 2.646972 1_555
Na21 O111 2.668138 1_555
Na21 O41 2.760262 1_556
Na21 O69 2.762179 1_545
Na21 O49 2.882926 1_545
Na22 O112 2.375064 1_555
Na22 O80 2.401933 1_545
Na22 O6 2.457407 1_555
Na22 O108 2.573862 1_555
Na22 O36 2.593419 1_556
Na22 O78 2.663176 1_555
Na23 O81 2.403730 1_545
Na23 O113 2.455933 1_555
Na23 O7 2.517753 1_555
Na23 O37 2.580475 1_556
Na23 O79 2.590391 1_555
Na23 O109 2.651094 1_555
Na23 O51 2.935357 1_555
Na23 O71 2.962069 1_555
Na24 O77 2.308969 1_555
Na24 O118 2.456628 1_555
Na24 O114 2.526276 1_555
Na24 O74 2.613112 1_545
Na24 O46 2.642451 1_555
Na24 O4 2.659447 1_555
Na24 O57 2.861824 1_555
Na24 O61 2.908006 1_555
Na25 O76 2.344256 1_655
Na25 O47 2.375385 1_555
Na25 O119 2.463614 1_555
Na25 O115 2.509612 1_555
Na25 O75 2.597135 1_545
Na25 O56 2.833553 1_655
Na25 O5 2.918455 1_555
Na26 O42 2.401459 1_555
Na26 O116 2.437756 1_555
Na26 O76 2.448576 1_555
Na26 O114 2.619957 1_555
Na26 O72 2.620440 1_545
Na26 O0 2.639121 1_555
Na26 O58 2.925836 1_545
Na26 O62 2.979964 1_545
Na27 O117 2.385930 1_555
Na27 O77 2.394282 1_555
Na27 O43 2.445962 1_555
Na27 O1 2.536000 1_555
Na27 O115 2.590354 1_555
Na27 O73 2.661342 1_545
Na28 O116 2.299617 1_555
Na28 O74 2.452422 1_555
Na28 O73 2.470211 1_555
Na28 O44 2.572741 1_555
Na28 O118 2.576381 1_555
Na28 O2 2.707404 1_555
Na28 O54 2.864703 1_555
Na28 O64 2.943853 1_555
Na29 O117 2.309402 1_555
Na29 O75 2.486306 1_555
Na29 O119 2.576654 1_555
Na29 O45 2.581763 1_555
Na29 O72 2.598161 1_655
Na29 O3 2.799748 1_555
Na29 O65 2.824067 1_555
Na29 O55 2.856449 1_555
Na30 O86 2.338172 1_555
Na30 O85 2.402098 1_455
Na30 O76 2.534232 1_555
Na30 O89 2.635454 1_445
Na30 O72 2.749408 1_545
Na30 O75 2.812123 1_445
Na31 O87 2.312030 1_555
Na31 O77 2.426720 1_555
Na31 O84 2.515898 1_555
Na31 O88 2.567490 1_545
Na31 O73 2.627968 1_545
Na31 O74 2.833596 1_545
Na32 O80 2.344278 1_545
Na32 O94 2.432035 1_556
Na32 O78 2.524425 1_555
Na32 O91 2.622375 1_446
Na32 O93 2.657372 1_456
Na32 O83 2.743828 1_445
Na33 O95 2.398109 1_555
Na33 O81 2.416871 1_544
Na33 O90 2.477038 1_545
Na33 O79 2.651669 1_554
Na33 O82 2.698276 1_544
Na33 O92 2.725660 1_555
Na34 O98 2.363721 1_555
Na34 O100 2.468270 1_555
Na34 O96 2.571274 1_555
Na34 O112 2.583427 1_555
Na34 O108 2.651550 1_555
Na34 O110 2.766964 1_555
Na35 O99 2.386995 1_555
Na35 O113 2.481990 1_555
Na35 O97 2.552341 1_555
Na35 O101 2.592337 1_555
Na35 O109 2.628973 1_555
Na35 O111 2.858386 1_555
Na36 O106 2.449470 1_555
Na36 O116 2.472496 1_555
Na36 O102 2.543067 1_555
Na36 O104 2.572347 1_555
Na36 O114 2.586642 1_555
Na36 O118 2.785823 1_555
Na37 O117 2.361316 1_555
Na37 O107 2.390888 1_555
Na37 O115 2.538521 1_555
Na37 O103 2.653291 1_555
Na37 O119 2.714681 1_555
Na37 O105 2.820115 1_555
Na38 O120 2.451259 1_555
Na38 O124 2.499157 1_555
Na38 O132 2.516304 1_555
Na38 O122 2.549869 1_555
Na38 O134 2.550237 1_555
Na38 O136 2.651640 1_555
Na39 O123 2.302341 1_555
Na39 O121 2.461692 1_555
Na39 O133 2.516009 1_555
Na39 O137 2.558738 1_555
Na39 O125 2.661656 1_555
Na39 O135 2.755891 1_555
Na40 O130 2.353074 1_555
Na40 O138 2.454227 1_555
Na40 O126 2.510925 1_555
Na40 O140 2.536599 1_555
Na40 O128 2.681496 1_555
Na40 O142 2.694681 1_555
Na41 O141 2.400871 1_555
Na41 O139 2.471351 1_555
Na41 O127 2.520892 1_555
Na41 O143 2.562090 1_555
Na41 O131 2.609364 1_555
Na41 O129 2.672336 1_555
Mg0 O0 1.957656 1_555
Mg0 O76 2.021370 1_555
Mg0 O5 2.075894 1_455
Mg0 O72 2.153674 1_545
Mg0 O3 2.174223 1_445
Mg0 O75 2.262496 1_445
Mg1 O1 1.923778 1_555
Mg1 O4 2.026860 1_555
Mg1 O77 2.057254 1_555
Mg1 O2 2.198642 1_545
Mg1 O74 2.229511 1_545
Mg1 O73 2.230877 1_545
Mg2 O6 1.913907 1_565
Mg2 O9 2.025839 1_455
Mg2 O80 2.073878 1_555
Mg2 O11 2.151128 1_465
Mg2 O83 2.227810 1_455
Mg2 O78 2.265262 1_565
Mg3 O8 1.943769 1_555
Mg3 O7 1.975249 1_565
Mg3 O81 2.070822 1_555
Mg3 O10 2.196889 1_565
Mg3 O79 2.286823 1_565
Mg3 O82 2.387788 1_555
Mg4 O98 2.021571 1_555
Mg4 O26 2.026403 1_555
Mg4 O100 2.061870 1_555
Mg4 O28 2.110267 1_555
Mg4 O24 2.166144 1_555
Mg4 O96 2.178968 1_555
Mg5 O35 1.951314 1_555
Mg5 O107 2.014713 1_555
Mg5 O33 2.064686 1_555
Mg5 O31 2.149756 1_555
Mg5 O103 2.236897 1_555
Mg5 O105 2.329037 1_555
Mg6 O36 1.972564 1_556
Mg6 O38 1.989362 1_556
Mg6 O112 2.062588 1_555
Mg6 O40 2.120981 1_556
Mg6 O108 2.205891 1_555
Mg6 O110 2.308828 1_555
Mg7 O37 1.931587 1_556
Mg7 O113 2.023633 1_555
Mg7 O41 2.112227 1_556
Mg7 O109 2.211767 1_555
Mg7 O39 2.228694 1_556
Mg7 O111 2.235255 1_555
Mg8 O42 1.930006 1_555
Mg8 O44 2.043119 1_555
Mg8 O116 2.089748 1_555
Mg8 O46 2.168919 1_555
Mg8 O114 2.268102 1_555
Mg8 O118 2.280139 1_555
Mg9 O43 1.944023 1_555
Mg9 O47 1.985482 1_555
Mg9 O117 2.068946 1_555
Mg9 O45 2.099258 1_555
Mg9 O115 2.272512 1_555
Mg9 O119 2.371911 1_555
Mg10 O65 1.923927 1_555
Mg10 O133 1.996504 1_555
Mg10 O63 2.094043 1_555
Mg10 O61 2.100961 1_555
Mg10 O137 2.216797 1_555
Mg10 O135 2.291424 1_555
Mg11 O68 1.925332 1_555
Mg11 O138 1.988596 1_555
Mg11 O70 2.088817 1_555
Mg11 O66 2.149950 1_555
Mg11 O142 2.203871 1_555
Mg11 O140 2.205124 1_555
Ga0 O14 1.833945 1_555
Ga0 O86 1.884836 1_555
Ga0 O85 1.929430 1_455
Ga0 O16 2.118061 1_545
Ga0 O13 2.243362 1_445
Ga0 O89 2.331530 1_445
Ga1 O17 1.777513 1_545
Ga1 O15 1.857758 1_555
Ga1 O87 1.876835 1_555
Ga1 O12 2.312964 1_545
Ga1 O84 2.484716 1_555
Ga1 O88 2.507629 1_545
Ga2 O94 1.857792 1_555
Ga2 O22 1.870306 1_545
Ga2 O20 2.010982 1_555
Ga2 O19 2.157423 1_445
Ga2 O91 2.199526 1_445
Ga2 O93 2.255790 1_455
Ga3 O23 1.843579 1_545
Ga3 O95 1.864451 1_555
Ga3 O90 1.907782 1_545
Ga3 O21 2.145955 1_555
Ga3 O92 2.292712 1_555
Ga3 O18 2.312583 1_545
Ga4 O25 1.872786 1_555
Ga4 O27 1.897337 1_555
Ga4 O99 1.920474 1_555
Ga4 O29 2.041807 1_555
Ga4 O97 2.274995 1_555
Ga4 O101 2.396174 1_555
Ga5 O30 1.872340 1_555
Ga5 O34 1.905925 1_555
Ga5 O106 1.963598 1_555
Ga5 O32 1.999230 1_555
Ga5 O102 2.338371 1_555
Ga5 O104 2.369059 1_555
Ga6 O52 1.833926 1_554
Ga6 O120 1.883888 1_555
Ga6 O50 1.991264 1_554
Ga6 O48 2.031893 1_554
Ga6 O122 2.277085 1_555
Ga6 O124 2.299392 1_555
Ga7 O53 1.840691 1_554
Ga7 O121 1.852001 1_555
Ga7 O123 1.896539 1_555
Ga7 O51 1.990224 1_554
Ga7 O125 2.423672 1_555
Ga7 O49 2.451387 1_554
Ga8 O126 1.851122 1_555
Ga8 O56 1.858929 1_555
Ga8 O130 1.878570 1_555
Ga8 O58 2.069129 1_555
Ga8 O128 2.236165 1_555
Ga8 O54 2.456764 1_555
Ga9 O57 1.832763 1_555
Ga9 O127 1.861994 1_555
Ga9 O59 2.030615 1_555
Ga9 O131 2.119058 1_555
Ga9 O55 2.197711 1_555
Ga9 O129 2.224202 1_555
Ga10 O64 1.835874 1_555
Ga10 O132 1.880326 1_555
Ga10 O62 1.953772 1_555
Ga10 O134 2.120290 1_555
Ga10 O60 2.144387 1_555
Ga10 O136 2.370901 1_555
Ga11 O69 1.859065 1_555
Ga11 O139 1.902515 1_555
Ga11 O141 1.909121 1_555
Ga11 O143 2.150366 1_555
Ga11 O67 2.154673 1_555
Ga11 O71 2.190900 1_555
O0 Si0 1.616348 1_555
O1 Si1 1.618968 1_545
O2 S0 1.478606 1_555
O3 S1 1.481244 1_555
O4 S3 1.484699 1_555
O5 S2 1.481666 1_555
O6 Si2 1.621352 1_555
O7 Si3 1.618461 1_555
O8 Si4 1.617552 1_555
O9 S4 1.484654 1_555
O10 S5 1.487634 1_545
O11 S6 1.478334 1_545
O12 S5 1.494518 1_555
O13 S6 1.482706 1_555
O14 Si2 1.668428 1_555
O15 Si3 1.681043 1_555
O16 S4 1.489054 1_455
O17 Si4 1.648603 1_555
O18 S0 1.475605 1_555
O19 S1 1.507254 1_555
O20 S2 1.494707 1_455
O21 S3 1.486172 1_555
O22 Si0 1.677741 1_565
O23 Si1 1.659885 1_555
O24 S7 1.458589 1_555
O25 Si5 1.648750 1_555
O26 Si6 1.624237 1_555
O27 Si7 1.653643 1_555
O28 S8 1.471643 1_555
O29 S9 1.484844 1_555
O30 Si8 1.660254 1_555
O31 S10 1.477887 1_555
O32 S11 1.494104 1_555
O33 S12 1.488350 1_555
O34 Si9 1.659831 1_555
O35 Si10 1.636549 1_555
O36 Si9 1.602916 1_555
O37 Si10 1.623977 1_555
O38 Si8 1.607359 1_555
O39 S10 1.477124 1_555
O40 S11 1.466172 1_555
O41 S12 1.481421 1_555
O42 Si6 1.633470 1_555
O43 Si7 1.606905 1_555
O44 S8 1.497988 1_555
O45 S9 1.477241 1_555
O46 S7 1.492547 1_555
O47 Si5 1.616389 1_555
O48 S13 1.510565 1_555
O49 S14 1.475522 1_555
O50 S15 1.501978 1_555
O51 S16 1.495450 1_555
O52 Si11 1.702658 1_555
O53 Si12 1.660671 1_555
O54 S17 1.461668 1_555
O55 S18 1.491440 1_555
O56 Si13 1.647132 1_555
O57 Si14 1.687104 1_555
O58 S19 1.481031 1_555
O59 S20 1.495410 1_555
O60 S19 1.500646 1_555
O61 S20 1.475112 1_555
O62 S17 1.508641 1_555
O63 S18 1.480390 1_555
O64 Si13 1.674870 1_555
O65 Si14 1.621247 1_555
O66 S15 1.470206 1_555
O67 S16 1.485134 1_555
O68 Si11 1.613378 1_555
O69 Si12 1.652642 1_555
O70 S13 1.469870 1_555
O71 S14 1.484790 1_555
O72 S19 1.490251 1_555
O73 S20 1.488762 1_555
O74 S17 1.488530 1_555
O75 S18 1.493384 1_555
O76 Si13 1.644350 1_555
O77 Si14 1.655002 1_555
O78 S15 1.486527 1_555
O79 S16 1.486115 1_555
O80 Si11 1.655561 1_555
O81 Si12 1.639301 1_555
O82 S13 1.481810 1_555
O83 S14 1.500561 1_555
O84 S7 1.502397 1_555
O85 Si5 1.679757 1_555
O86 Si6 1.663583 1_555
O87 Si7 1.658086 1_555
O88 S8 1.477932 1_555
O89 S9 1.471876 1_555
O90 Si8 1.684690 1_555
O91 S10 1.526949 1_555
O92 S11 1.473949 1_555
O93 S12 1.499017 1_555
O94 Si9 1.670988 1_555
O95 Si10 1.658529 1_555
O96 S5 1.484057 1_545
O97 S6 1.510423 1_545
O98 Si2 1.631909 1_555
O99 Si3 1.667464 1_555
O100 Si4 1.622705 1_555
O101 S4 1.476827 1_555
O102 S0 1.506862 1_555
O103 S1 1.490766 1_555
O104 S3 1.478909 1_555
O105 S2 1.478356 1_555
O106 Si0 1.656784 1_555
O107 Si1 1.655100 1_545
O108 S13 1.483617 1_555
O109 S14 1.501930 1_555
O110 S16 1.479200 1_555
O111 S15 1.486288 1_655
O112 Si11 1.644982 1_545
O113 Si12 1.651711 1_545
O114 S17 1.490481 1_545
O115 S18 1.486672 1_545
O116 Si13 1.647064 1_555
O117 Si14 1.647464 1_555
O118 S20 1.485675 1_555
O119 S19 1.479126 1_655
O120 Si9 1.672923 1_555
O121 Si10 1.665190 1_555
O122 S10 1.486656 1_455
O123 Si8 1.650689 1_555
O124 S11 1.515877 1_565
O125 S12 1.484992 1_565
O126 Si6 1.672085 1_565
O127 Si7 1.674383 1_565
O128 S8 1.503496 1_555
O129 S9 1.518278 1_555
O130 Si5 1.655403 1_455
O131 S7 1.507738 1_555
O132 Si0 1.680485 1_565
O133 Si1 1.648658 1_555
O134 S0 1.507774 1_555
O135 S1 1.481215 1_555
O136 S2 1.490537 1_455
O137 S3 1.507264 1_555
O138 Si2 1.645163 1_555
O139 Si3 1.646996 1_555
O140 S4 1.504360 1_455
O141 Si4 1.669918 1_555
O142 S5 1.490581 1_555
O143 S6 1.487650 1_555
