# generated using pymatgen
data_Sr4MgFe2(BrO3)2
_symmetry_space_group_name_H-M   'P 1'
_cell_length_a   4.08068900
_cell_length_b   4.08175600
_cell_length_c   16.34739400
_cell_angle_alpha   90.00000000
_cell_angle_beta   90.00000000
_cell_angle_gamma   90.00000000
_symmetry_Int_Tables_number   1
_chemical_formula_structural   Sr4MgFe2(BrO3)2
_chemical_formula_sum   'Sr4 Mg1 Fe2 Br2 O6'
_cell_volume   272.28835432
_cell_formula_units_Z   1
loop_
 _symmetry_equiv_pos_site_id
 _symmetry_equiv_pos_as_xyz
  1  'x, y, z'
loop_
 _atom_site_type_symbol
 _atom_site_label
 _atom_site_symmetry_multiplicity
 _atom_site_fract_x
 _atom_site_fract_y
 _atom_site_fract_z
 _atom_site_occupancy
  Sr  Sr0  1  0.75000000  0.75000000  0.68051900  1
  Sr  Sr1  1  0.25000000  0.25000000  0.12282300  1
  Sr  Sr2  1  0.75000000  0.75000000  0.87709400  1
  Sr  Sr3  1  0.25000000  0.25000000  0.31949300  1
  Mg  Mg0  1  0.25000000  0.75000000  0.99991600  1
  Fe  Fe0  1  0.25000000  0.25000000  0.79657600  1
  Fe  Fe1  1  0.75000000  0.75000000  0.20336400  1
  Br  Br0  1  0.75000000  0.75000000  0.40345500  1
  Br  Br1  1  0.25000000  0.25000000  0.59648800  1
  O  O0  1  0.75000000  0.25000000  0.78179000  1
  O  O1  1  0.25000000  0.75000000  0.78794200  1
  O  O2  1  0.75000000  0.25000000  0.21822400  1
  O  O3  1  0.25000000  0.75000000  0.21209300  1
  O  O4  1  0.75000000  0.75000000  0.04742500  1
  O  O5  1  0.25000000  0.25000000  0.95279900  1
loop_
_geom_bond_atom_site_label_1
_geom_bond_atom_site_label_2
_geom_bond_distance
_geom_bond_site_symmetry_2
Mg0 O5 2.181388 1_565
Mg0 O5 2.181388 1_555
Mg0 O4 2.183160 1_556
Mg0 O4 2.183160 1_456
Fe0 O1 2.045753 1_555
Fe0 O1 2.045753 1_545
Fe0 O0 2.054612 1_455
Fe0 O0 2.054612 1_555
Fe0 O5 2.553839 1_555
Fe1 O3 2.045328 1_555
Fe1 O3 2.045328 1_655
Fe1 O2 2.055284 1_555
Fe1 O2 2.055284 1_565
Fe1 O4 2.549196 1_555
Br0 Sr3 3.195639 1_565
Br0 Sr3 3.195639 1_555
Br0 Sr3 3.195639 1_655
Br0 Sr3 3.195639 1_665
Br0 Fe1 3.270966 1_555
Br1 Sr0 3.196124 1_545
Br1 Sr0 3.196124 1_455
Br1 Sr0 3.196124 1_555
Br1 Sr0 3.196124 1_445
Br1 Fe0 3.270917 1_555
O0 Sr2 2.567579 1_555
O0 Sr2 2.567579 1_545
O0 Sr0 2.627912 1_545
O0 Sr0 2.627912 1_555
O1 Sr2 2.507395 1_455
O1 Sr2 2.507395 1_555
O1 Sr0 2.691996 1_455
O1 Sr0 2.691996 1_555
O2 Sr1 2.568117 1_655
O2 Sr1 2.568117 1_555
O2 Sr3 2.627477 1_555
O2 Sr3 2.627477 1_655
O3 Sr1 2.508950 1_565
O3 Sr1 2.508950 1_555
O3 Sr3 2.692155 1_565
O3 Sr3 2.692155 1_555
O4 Sr2 2.784468 1_554
O4 Sr1 3.138056 1_555
O4 Sr1 3.138056 1_655
O4 Sr1 3.138056 1_565
O4 Sr1 3.138056 1_665
O5 Sr1 2.779449 1_556
O5 Sr2 3.140031 1_555
O5 Sr2 3.140031 1_545
O5 Sr2 3.140031 1_445
O5 Sr2 3.140031 1_455
