# generated using pymatgen
data_P4(SeO2)3
_symmetry_space_group_name_H-M   'P 1'
_cell_length_a   8.89458400
_cell_length_b   10.26143300
_cell_length_c   13.29265510
_cell_angle_alpha   89.62605865
_cell_angle_beta   90.00000000
_cell_angle_gamma   90.00000000
_symmetry_Int_Tables_number   1
_chemical_formula_structural   P4(SeO2)3
_chemical_formula_sum   'P16 Se12 O24'
_cell_volume   1213.21044791
_cell_formula_units_Z   4
loop_
 _symmetry_equiv_pos_site_id
 _symmetry_equiv_pos_as_xyz
  1  'x, y, z'
loop_
 _atom_site_type_symbol
 _atom_site_label
 _atom_site_symmetry_multiplicity
 _atom_site_fract_x
 _atom_site_fract_y
 _atom_site_fract_z
 _atom_site_occupancy
  P  P0  1  0.56197700  0.59931700  0.29614000  1
  P  P1  1  0.06197700  0.90068300  0.70386000  1
  P  P2  1  0.43802300  0.40068300  0.70386000  1
  P  P3  1  0.93802300  0.09931700  0.29614000  1
  P  P4  1  0.48092600  0.66987600  0.63321500  1
  P  P5  1  0.01907400  0.16987600  0.63321500  1
  P  P6  1  0.51907400  0.33012400  0.36678500  1
  P  P7  1  0.41159500  0.62133700  0.84332500  1
  P  P8  1  0.08840500  0.12133700  0.84332500  1
  P  P9  1  0.58840500  0.37866300  0.15667500  1
  P  P10  1  0.20387100  0.94893000  0.23638000  1
  P  P11  1  0.70387100  0.55107000  0.76362000  1
  P  P12  1  0.79612900  0.05107000  0.76362000  1
  P  P13  1  0.29612900  0.44893000  0.23638000  1
  P  P14  1  0.91159500  0.87866300  0.15667500  1
  P  P15  1  0.98092600  0.83012400  0.36678500  1
  Se  Se0  1  0.30142300  0.69416800  0.96457100  1
  Se  Se1  1  0.80142300  0.80583200  0.03542900  1
  Se  Se2  1  0.69857700  0.30583200  0.03542900  1
  Se  Se3  1  0.19857700  0.19416800  0.96457100  1
  Se  Se4  1  0.94933600  0.70173500  0.48278900  1
  Se  Se5  1  0.44933600  0.79826500  0.51721100  1
  Se  Se6  1  0.05066400  0.29826500  0.51721100  1
  Se  Se7  1  0.55066400  0.20173500  0.48278900  1
  Se  Se8  1  0.42719100  0.95804700  0.20284600  1
  Se  Se9  1  0.92719100  0.54195300  0.79715400  1
  Se  Se10  1  0.57280900  0.04195300  0.79715400  1
  Se  Se11  1  0.07280900  0.45804700  0.20284600  1
  O  O0  1  0.86280600  0.02167600  0.19693400  1
  O  O1  1  0.36280600  0.47832400  0.80306600  1
  O  O2  1  0.13719400  0.97832400  0.80306600  1
  O  O3  1  0.63719400  0.52167600  0.19693400  1
  O  O4  1  0.12088100  0.08386600  0.26672300  1
  O  O5  1  0.62088100  0.41613400  0.73327700  1
  O  O6  1  0.87911900  0.91613400  0.73327700  1
  O  O7  1  0.37911900  0.58386600  0.26672300  1
  O  O8  1  0.92369300  0.97879300  0.38229000  1
  O  O9  1  0.42369300  0.52120700  0.61771000  1
  O  O10  1  0.07630700  0.02120700  0.61771000  1
  O  O11  1  0.57630700  0.47879300  0.38229000  1
  O  O12  1  0.84456400  0.14726900  0.66974300  1
  O  O13  1  0.34456400  0.35273100  0.33025700  1
  O  O14  1  0.89931800  0.79094500  0.26061800  1
  O  O15  1  0.39931800  0.70905500  0.73938200  1
  O  O16  1  0.10068200  0.20905500  0.73938200  1
  O  O17  1  0.60068200  0.29094500  0.26061800  1
  O  O18  1  0.09490000  0.89434000  0.14629400  1
  O  O19  1  0.65543600  0.64726900  0.66974300  1
  O  O20  1  0.59490000  0.60566000  0.85370600  1
  O  O21  1  0.90510000  0.10566000  0.85370600  1
  O  O22  1  0.40510000  0.39434000  0.14629400  1
  O  O23  1  0.15543600  0.85273100  0.33025700  1
loop_
_geom_bond_atom_site_label_1
_geom_bond_atom_site_label_2
_geom_bond_distance
_geom_bond_site_symmetry_2
P4 Se5 2.041051 1_555
P5 Se6 2.041051 1_555
P6 Se7 2.041051 1_555
P7 Se0 2.032743 1_555
P8 Se3 2.032743 1_555
P9 Se2 2.032743 1_555
P10 Se8 2.037755 1_555
P11 Se9 2.037755 1_555
P12 Se10 2.037755 1_555
P13 Se11 2.037755 1_555
P14 Se1 2.032743 1_555
P15 Se4 2.041051 1_555
O0 P14 1.624366 1_545
O0 P3 1.683760 1_555
O1 P7 1.624366 1_555
O1 P2 1.683760 1_555
O2 P8 1.624366 1_565
O2 P1 1.683760 1_555
O3 P9 1.624366 1_555
O3 P0 1.683760 1_555
O4 P10 1.622367 1_545
O4 P3 1.680529 1_455
O5 P11 1.622367 1_555
O5 P2 1.680529 1_555
O6 P12 1.622367 1_565
O6 P1 1.680529 1_655
O7 P13 1.622367 1_555
O7 P0 1.680529 1_555
O8 P15 1.622668 1_555
O8 P3 1.684845 1_565
O9 P4 1.622668 1_555
O9 P2 1.684845 1_555
O10 P5 1.622668 1_555
O10 P1 1.684845 1_545
O11 P6 1.622668 1_555
O11 P0 1.684845 1_555
O12 P5 1.642380 1_655
O12 P12 1.643519 1_555
O13 P6 1.642380 1_555
O13 P13 1.643519 1_555
O14 P15 1.639367 1_555
O14 P14 1.647704 1_555
O15 P4 1.639367 1_555
O15 P7 1.647704 1_555
O16 P5 1.639367 1_555
O16 P8 1.647704 1_555
O17 P6 1.639367 1_555
O17 P9 1.647704 1_555
O18 P10 1.641938 1_555
O18 P14 1.644052 1_455
O19 P4 1.642380 1_555
O19 P11 1.643519 1_555
O20 P11 1.641938 1_555
O20 P7 1.644052 1_555
O21 P12 1.641938 1_555
O21 P8 1.644052 1_655
O22 P13 1.641938 1_555
O22 P9 1.644052 1_555
O23 P15 1.642380 1_455
O23 P10 1.643519 1_555
