# generated using pymatgen
data_Zr2Al2SiS5O24
_symmetry_space_group_name_H-M   'P 1'
_cell_length_a   8.66465699
_cell_length_b   8.68768925
_cell_length_c   22.49311643
_cell_angle_alpha   90.16686674
_cell_angle_beta   89.87123045
_cell_angle_gamma   120.04401094
_symmetry_Int_Tables_number   1
_chemical_formula_structural   Zr2Al2SiS5O24
_chemical_formula_sum   'Zr6 Al6 Si3 S15 O72'
_cell_volume   1465.68661063
_cell_formula_units_Z   3
loop_
 _symmetry_equiv_pos_site_id
 _symmetry_equiv_pos_as_xyz
  1  'x, y, z'
loop_
 _atom_site_type_symbol
 _atom_site_label
 _atom_site_symmetry_multiplicity
 _atom_site_fract_x
 _atom_site_fract_y
 _atom_site_fract_z
 _atom_site_occupancy
  Zr  Zr0  1  0.99686245  0.00639239  0.64767600  1
  Zr  Zr1  1  0.00658049  0.00743196  0.13734043  1
  Zr  Zr2  1  0.67513482  0.32307713  0.47464560  1
  Zr  Zr3  1  0.33498693  0.65882890  0.02278642  1
  Zr  Zr4  1  0.33741457  0.66731645  0.52336613  1
  Zr  Zr5  1  0.34149305  0.67473050  0.30891126  1
  Al  Al0  1  0.99641198  0.00016443  0.35261308  1
  Al  Al1  1  0.00179683  0.99952543  0.85133393  1
  Al  Al2  1  0.67704513  0.33925203  0.69108521  1
  Al  Al3  1  0.66223854  0.33795876  0.18806985  1
  Al  Al4  1  0.65581241  0.32800425  0.97601433  1
  Al  Al5  1  0.33164335  0.66719749  0.81556658  1
  Si  Si0  1  0.94966417  0.34089050  0.58989962  1
  Si  Si1  1  0.40635513  0.33630682  0.08252516  1
  Si  Si2  1  0.64291780  0.95568307  0.41471366  1
  S  S0  1  0.29285128  0.01553741  0.25045259  1
  S  S1  1  0.72468922  0.70348356  0.24966836  1
  S  S2  1  0.98137178  0.28025557  0.24924033  1
  S  S3  1  0.29845771  0.29889916  0.75494920  1
  S  S4  1  0.00167075  0.70500425  0.75532080  1
  S  S5  1  0.70001933  0.99670433  0.75592032  1
  S  S6  1  0.38796433  0.05450713  0.58886021  1
  S  S7  1  0.66386151  0.60908602  0.58873755  1
  S  S8  1  0.93637064  0.60007123  0.08238103  1
  S  S9  1  0.66394769  0.06428939  0.08217021  1
  S  S10  1  0.63160815  0.66998375  0.91188290  1
  S  S11  1  0.03605516  0.36909437  0.91269430  1
  S  S12  1  0.33169551  0.96032639  0.91235376  1
  S  S13  1  0.31911430  0.36289979  0.41363242  1
  S  S14  1  0.04582037  0.68428280  0.41304037  1
  O  O0  1  0.20573650  0.03974272  0.30330087  1
  O  O1  1  0.83564182  0.79334408  0.30211088  1
  O  O2  1  0.95830183  0.16847907  0.30150570  1
  O  O3  1  0.20892632  0.17438556  0.80521120  1
  O  O4  1  0.97111378  0.79828491  0.80590407  1
  O  O5  1  0.82663137  0.03225346  0.80560122  1
  O  O6  1  0.77437933  0.95650260  0.70175587  1
  O  O7  1  0.18340619  0.22373343  0.70111149  1
  O  O8  1  0.04162846  0.81647575  0.70141314  1
  O  O9  1  0.79697503  0.81470006  0.19615294  1
  O  O10  1  0.01699616  0.20237514  0.19542812  1
  O  O11  1  0.18036035  0.98314671  0.19714667  1
  O  O12  1  0.85131181  0.36008656  0.64703618  1
  O  O13  1  0.49437284  0.14300442  0.64185758  1
  O  O14  1  0.63699523  0.49934046  0.64182834  1
  O  O15  1  0.86503795  0.49637625  0.13730187  1
  O  O16  1  0.64417895  0.14319930  0.13734394  1
  O  O17  1  0.51194754  0.36311026  0.14343947  1
  O  O18  1  0.48523763  0.30783611  0.02186262  1
  O  O19  1  0.83538758  0.52021599  0.02785037  1
  O  O20  1  0.69814524  0.16997519  0.02783661  1
  O  O21  1  0.45626935  0.15860982  0.53363365  1
  O  O22  1  0.68804382  0.53575699  0.53326051  1
  O  O23  1  0.83814857  0.30421519  0.52816782  1
  O  O24  1  0.55553207  0.70910620  0.96619298  1
  O  O25  1  0.15163810  0.44568352  0.96678538  1
  O  O26  1  0.29282774  0.84830007  0.96634776  1
  O  O27  1  0.54485978  0.83496467  0.47317530  1
  O  O28  1  0.28131447  0.43857003  0.46736000  1
  O  O29  1  0.15243031  0.70966083  0.46722186  1
  O  O30  1  0.12168217  0.63773723  0.36144694  1
  O  O31  1  0.50696031  0.85995161  0.35835879  1
  O  O32  1  0.34881842  0.47855527  0.36146329  1
  O  O33  1  0.12441653  0.49255464  0.86233175  1
  O  O34  1  0.36266278  0.86861157  0.86158005  1
  O  O35  1  0.50628497  0.63411946  0.86195367  1
  O  O36  1  0.04224760  0.84762185  0.40110462  1
  O  O37  1  0.83034463  0.97493356  0.40105600  1
  O  O38  1  0.16707645  0.18593941  0.40173254  1
  O  O39  1  0.01751768  0.19298246  0.90094808  1
  O  O40  1  0.17610183  0.98349578  0.90054839  1
  O  O41  1  0.80761624  0.82948374  0.90063552  1
  O  O42  1  0.97215594  0.16507829  0.59584274  1
  O  O43  1  0.20538855  0.02561472  0.59586104  1
  O  O44  1  0.82496184  0.78632915  0.59628310  1
  O  O45  1  0.95015435  0.77681279  0.08900031  1
  O  O46  1  0.81851369  0.03526189  0.08826984  1
  O  O47  1  0.20271135  0.16465488  0.08865335  1
  O  O48  1  0.68004362  0.15379294  0.74586794  1
  O  O49  1  0.47455927  0.31537018  0.74326381  1
  O  O50  1  0.83737284  0.53028577  0.74698050  1
  O  O51  1  0.71235318  0.52880936  0.24269325  1
  O  O52  1  0.82147648  0.29584234  0.23935942  1
  O  O53  1  0.47236153  0.16968191  0.24311578  1
  O  O54  1  0.65231800  0.51299952  0.92208969  1
  O  O55  1  0.85949603  0.35210181  0.92468561  1
  O  O56  1  0.49578225  0.13567246  0.92107397  1
  O  O57  1  0.64565607  0.14384734  0.41793608  1
  O  O58  1  0.48108507  0.35383671  0.42232142  1
  O  O59  1  0.86299513  0.53399563  0.42041211  1
  O  O60  1  0.37416263  0.50787214  0.07451305  1
  O  O61  1  0.12018199  0.62948704  0.07577149  1
  O  O62  1  0.50137156  0.88717279  0.07538403  1
  O  O63  1  0.37526349  0.87978514  0.58211150  1
  O  O64  1  0.50552739  0.63059710  0.58380235  1
  O  O65  1  0.14446298  0.51188699  0.57900493  1
  O  O66  1  0.30476176  0.85117729  0.25549680  1
  O  O67  1  0.54098948  0.67458803  0.25653119  1
  O  O68  1  0.13820001  0.45896533  0.25654869  1
  O  O69  1  0.31685363  0.47494902  0.76671638  1
  O  O70  1  0.15715406  0.68187707  0.76714319  1
  O  O71  1  0.52432470  0.83704717  0.76711079  1
loop_
_geom_bond_atom_site_label_1
_geom_bond_atom_site_label_2
_geom_bond_distance
_geom_bond_site_symmetry_2
Al0 O37 1.727525 1_545
Al0 O38 1.902470 1_655
Al0 O36 1.908158 1_645
Al0 O1 1.987027 1_545
Al0 O0 2.001707 1_655
Al0 O2 2.015875 1_555
Al1 O4 1.922726 1_455
Al1 O40 1.935152 1_555
Al1 O41 1.937847 1_455
Al1 O39 1.961940 1_565
Al1 O3 1.968707 1_565
Al1 O5 1.970636 1_465
Al2 O12 1.736398 1_555
Al2 O14 1.943258 1_555
Al2 O13 1.983142 1_555
Al2 O50 1.987971 1_555
Al2 O49 2.031343 1_555
Al2 O48 2.041740 1_555
Al3 O17 1.744525 1_555
Al3 O51 1.927919 1_555
Al3 O15 1.965807 1_555
Al3 O52 1.970692 1_555
Al3 O16 1.978299 1_555
Al3 O53 1.992489 1_555
Al4 O18 1.735948 1_556
Al4 O20 1.973230 1_556
Al4 O56 1.979264 1_555
Al4 O19 1.990990 1_556
Al4 O55 2.028243 1_555
Al4 O54 2.028645 1_555
Al5 O71 1.920153 1_555
Al5 O70 1.920859 1_555
Al5 O34 1.930048 1_555
Al5 O69 1.946522 1_555
Al5 O35 1.976189 1_555
Al5 O33 1.976209 1_555
O0 S0 1.476647 1_555
O1 S1 1.474228 1_555
O2 S2 1.475207 1_555
O3 S3 1.487613 1_555
O4 S4 1.493150 1_655
O5 S5 1.487244 1_545
O6 S5 1.496915 1_555
O6 Zr0 2.130637 1_565
O7 S3 1.495207 1_555
O7 Zr0 2.135872 1_455
O8 S4 1.482303 1_555
O8 Zr0 2.233449 1_465
O9 S1 1.473850 1_555
O9 Zr1 2.192972 1_665
O10 S2 1.490243 1_455
O10 Zr1 2.101945 1_555
O11 S0 1.481722 1_565
O11 Zr1 2.109569 1_565
O12 Si0 1.594322 1_555
O13 S6 1.466978 1_555
O14 S7 1.473916 1_555
O15 S8 1.471446 1_555
O16 S9 1.466675 1_555
O17 Si1 1.599709 1_555
O18 Si1 1.597903 1_555
O19 S8 1.464032 1_555
O20 S9 1.468645 1_555
O21 S6 1.476008 1_555
O21 Zr2 2.164450 1_555
O22 S7 1.461074 1_555
O22 Zr2 2.223575 1_555
O23 Si0 1.630451 1_555
O23 Zr2 1.926597 1_555
O24 S10 1.503545 1_555
O24 Zr3 2.149291 1_556
O25 S11 1.503169 1_555
O25 Zr3 2.142236 1_556
O26 S12 1.487438 1_555
O26 Zr3 2.251869 1_556
O27 Si2 1.631481 1_555
O27 Zr4 2.001421 1_555
O28 S13 1.486308 1_555
O28 Zr4 2.189389 1_555
O29 S14 1.478756 1_555
O29 Zr4 2.213916 1_555
O30 S14 1.484025 1_555
O30 Zr5 2.122806 1_555
O31 Si2 1.644921 1_555
O31 Zr5 1.889063 1_555
O32 S13 1.483024 1_555
O32 Zr5 2.103890 1_555
O33 S11 1.483498 1_555
O34 S12 1.489487 1_555
O35 S10 1.483964 1_555
O36 S14 1.460463 1_555
O37 Si2 1.576636 1_555
O38 S13 1.463496 1_555
O39 S11 1.479284 1_555
O40 S12 1.483992 1_555
O41 S10 1.481271 1_555
O42 Si0 1.639565 1_555
O42 Zr0 1.900449 1_555
O43 S6 1.480502 1_555
O43 Zr0 2.083343 1_455
O44 S7 1.481767 1_555
O44 Zr0 2.086480 1_565
O45 S8 1.486351 1_555
O45 Zr1 2.108160 1_665
O46 S9 1.488373 1_555
O46 Zr1 2.082367 1_655
O47 Si1 1.649727 1_555
O47 Zr1 1.904995 1_555
O48 S5 1.477190 1_545
O49 S3 1.482428 1_555
O50 S4 1.483784 1_655
O51 S1 1.474843 1_555
O52 S2 1.475326 1_555
O53 S0 1.467745 1_555
O54 S10 1.480543 1_555
O55 S11 1.485645 1_655
O56 S12 1.487031 1_545
O57 Si2 1.624371 1_545
O57 Zr2 1.925751 1_555
O58 S13 1.458067 1_555
O58 Zr2 2.178128 1_555
O59 S14 1.473319 1_655
O59 Zr2 2.124332 1_555
O60 Si1 1.658310 1_555
O60 Zr3 1.909268 1_555
O61 S8 1.488485 1_455
O61 Zr3 2.113337 1_555
O62 S9 1.484754 1_565
O62 Zr3 2.131600 1_555
O63 S6 1.473340 1_565
O63 Zr4 2.154612 1_555
O64 S7 1.478823 1_555
O64 Zr4 2.132663 1_555
O65 Si0 1.614105 1_455
O65 Zr4 1.981060 1_555
O66 S0 1.486944 1_565
O66 Zr5 2.096566 1_555
O67 S1 1.489751 1_555
O67 Zr5 2.090230 1_555
O68 S2 1.473430 1_455
O68 Zr5 2.166547 1_555
O69 S3 1.479341 1_555
O70 S4 1.482910 1_555
O71 S5 1.480107 1_555
