# generated using pymatgen
data_MgHg2
_symmetry_space_group_name_H-M   'P 1'
_cell_length_a   12.60423543
_cell_length_b   12.60423543
_cell_length_c   13.39762072
_cell_angle_alpha   73.97018292
_cell_angle_beta   73.97018292
_cell_angle_gamma   30.91703734
_symmetry_Int_Tables_number   1
_chemical_formula_structural   MgHg2
_chemical_formula_sum   'Mg16 Hg32'
_cell_volume   1047.73951780
_cell_formula_units_Z   16
loop_
 _symmetry_equiv_pos_site_id
 _symmetry_equiv_pos_as_xyz
  1  'x, y, z'
loop_
 _atom_site_type_symbol
 _atom_site_label
 _atom_site_symmetry_multiplicity
 _atom_site_fract_x
 _atom_site_fract_y
 _atom_site_fract_z
 _atom_site_occupancy
  Mg  Mg0_0  1  0.00211404  0.00211404  0.37440700  1
  Mg  Mg0_1  1  0.00211404  0.00211404  0.87440700  1
  Mg  Mg0_2  1  0.00211404  0.50211405  0.37440700  1
  Mg  Mg0_3  1  0.00211404  0.50211404  0.87440700  1
  Mg  Mg0_4  1  0.50211405  0.00211404  0.37440700  1
  Mg  Mg0_5  1  0.50211405  0.00211404  0.87440700  1
  Mg  Mg0_6  1  0.50211404  0.50211404  0.37440700  1
  Mg  Mg0_7  1  0.50211404  0.50211404  0.87440700  1
  Mg  Mg1_0  1  0.49788595  0.49788595  0.12559300  1
  Mg  Mg1_1  1  0.49788595  0.49788595  0.62559300  1
  Mg  Mg1_2  1  0.49788595  0.99788595  0.12559300  1
  Mg  Mg1_3  1  0.49788595  0.99788595  0.62559300  1
  Mg  Mg1_4  1  0.99788595  0.49788595  0.12559300  1
  Mg  Mg1_5  1  0.99788595  0.49788595  0.62559300  1
  Mg  Mg1_6  1  0.99788595  0.99788595  0.12559300  1
  Mg  Mg1_7  1  0.99788595  0.99788595  0.62559300  1
  Hg  Hg0_0  1  0.32785948  0.32785948  0.46222108  1
  Hg  Hg0_1  1  0.32785948  0.32785948  0.96222108  1
  Hg  Hg0_2  1  0.32785948  0.82785948  0.46222108  1
  Hg  Hg0_3  1  0.32785948  0.82785948  0.96222108  1
  Hg  Hg0_4  1  0.82785948  0.32785948  0.46222108  1
  Hg  Hg0_5  1  0.82785948  0.32785948  0.96222108  1
  Hg  Hg0_6  1  0.82785948  0.82785948  0.46222108  1
  Hg  Hg0_7  1  0.82785948  0.82785948  0.96222108  1
  Hg  Hg1_0  1  0.17214052  0.17214052  0.03777892  1
  Hg  Hg1_1  1  0.17214052  0.17214052  0.53777893  1
  Hg  Hg1_2  1  0.17214052  0.67214052  0.03777892  1
  Hg  Hg1_3  1  0.17214052  0.67214052  0.53777893  1
  Hg  Hg1_4  1  0.67214052  0.17214052  0.03777892  1
  Hg  Hg1_5  1  0.67214052  0.17214052  0.53777893  1
  Hg  Hg1_6  1  0.67214052  0.67214052  0.03777892  1
  Hg  Hg1_7  1  0.67214052  0.67214052  0.53777893  1
  Hg  Hg2_0  1  0.32841977  0.32841977  0.20818987  1
  Hg  Hg2_1  1  0.32841976  0.32841976  0.70818987  1
  Hg  Hg2_2  1  0.32841977  0.82841977  0.20818987  1
  Hg  Hg2_3  1  0.32841976  0.82841976  0.70818986  1
  Hg  Hg2_4  1  0.82841977  0.32841977  0.20818987  1
  Hg  Hg2_5  1  0.82841976  0.32841977  0.70818986  1
  Hg  Hg2_6  1  0.82841977  0.82841977  0.20818986  1
  Hg  Hg2_7  1  0.82841977  0.82841977  0.70818987  1
  Hg  Hg3_0  1  0.17158023  0.17158023  0.29181014  1
  Hg  Hg3_1  1  0.17158023  0.17158023  0.79181014  1
  Hg  Hg3_2  1  0.17158023  0.67158024  0.29181014  1
  Hg  Hg3_3  1  0.17158023  0.67158023  0.79181014  1
  Hg  Hg3_4  1  0.67158024  0.17158024  0.29181014  1
  Hg  Hg3_5  1  0.67158023  0.17158024  0.79181014  1
  Hg  Hg3_6  1  0.67158023  0.67158023  0.29181014  1
  Hg  Hg3_7  1  0.67158023  0.67158023  0.79181014  1
loop_
_geom_bond_atom_site_label_1
_geom_bond_atom_site_label_2
_geom_bond_distance
_geom_bond_site_symmetry_2
Mg0_0 Mg1_7 3.337315 1_445
Mg0_0 Mg0_6 3.359541 1_455
Mg0_0 Mg0_6 3.359541 1_545
Mg0_0 Mg1_6 3.364387 1_445
Mg0_1 Mg1_6 3.337315 1_446
Mg0_1 Mg0_7 3.359541 1_455
Mg0_1 Mg0_7 3.359541 1_545
Mg0_1 Mg1_7 3.364387 1_445
Mg0_2 Mg1_5 3.337315 1_455
Mg0_2 Mg0_4 3.359541 1_465
Mg0_2 Mg0_4 3.359541 1_555
Mg0_2 Mg1_4 3.364387 1_455
Mg0_3 Mg1_4 3.337315 1_456
Mg0_3 Mg0_5 3.359541 1_465
Mg0_3 Mg0_5 3.359541 1_555
Mg0_3 Mg1_5 3.364387 1_455
Mg0_4 Mg1_3 3.337315 1_545
Mg0_4 Mg1_2 3.364387 1_545
Mg0_5 Mg1_2 3.337315 1_546
Mg0_5 Mg1_3 3.364387 1_545
Mg0_6 Mg1_1 3.337315 1_555
Mg0_6 Mg1_0 3.364387 1_555
Mg0_7 Mg1_0 3.337315 1_556
Mg0_7 Mg1_1 3.364387 1_555
Mg1_0 Mg1_6 3.359541 1_545
Mg1_0 Mg1_6 3.359541 1_455
Mg1_1 Mg1_7 3.359541 1_455
Mg1_1 Mg1_7 3.359541 1_545
Mg1_2 Mg1_4 3.359541 1_555
Mg1_2 Mg1_4 3.359541 1_465
Mg1_3 Mg1_5 3.359541 1_465
Mg1_3 Mg1_5 3.359541 1_555
Hg0_0 Mg0_4 2.972091 1_555
Hg0_0 Mg0_2 2.972091 1_555
Hg0_0 Mg1_5 2.991825 1_455
Hg0_0 Mg1_3 2.991825 1_545
Hg0_0 Hg3_2 3.200057 1_555
Hg0_0 Hg3_4 3.200057 1_555
Hg0_0 Hg1_3 3.228375 1_555
Hg0_0 Hg1_5 3.228375 1_555
Hg0_0 Hg2_1 3.299322 1_555
Hg0_0 Hg2_0 3.399539 1_555
Hg0_1 Mg0_5 2.972091 1_555
Hg0_1 Mg0_3 2.972091 1_555
Hg0_1 Mg1_4 2.991825 1_456
Hg0_1 Mg1_2 2.991825 1_546
Hg0_1 Hg3_3 3.200057 1_555
Hg0_1 Hg3_5 3.200057 1_555
Hg0_1 Hg1_2 3.228375 1_556
Hg0_1 Hg1_4 3.228375 1_556
Hg0_1 Hg2_0 3.299322 1_556
Hg0_1 Hg2_1 3.399539 1_555
Hg0_2 Mg0_0 2.972091 1_565
Hg0_2 Mg0_6 2.972091 1_555
Hg0_2 Mg1_1 2.991825 1_555
Hg0_2 Mg1_7 2.991825 1_455
Hg0_2 Hg3_6 3.200057 1_555
Hg0_2 Hg3_0 3.200057 1_565
Hg0_2 Hg1_1 3.228375 1_565
Hg0_2 Hg1_7 3.228375 1_555
Hg0_2 Hg2_3 3.299322 1_555
Hg0_2 Hg2_2 3.399539 1_555
Hg0_3 Mg0_1 2.972091 1_565
Hg0_3 Mg0_7 2.972091 1_555
Hg0_3 Mg1_6 2.991825 1_456
Hg0_3 Mg1_0 2.991825 1_556
Hg0_3 Hg3_7 3.200057 1_555
Hg0_3 Hg3_1 3.200057 1_565
Hg0_3 Hg1_0 3.228375 1_566
Hg0_3 Hg1_6 3.228375 1_556
Hg0_3 Hg2_2 3.299322 1_556
Hg0_3 Hg2_3 3.399539 1_555
Hg0_4 Mg0_0 2.972091 1_655
Hg0_4 Mg0_6 2.972091 1_555
Hg0_4 Mg1_1 2.991825 1_555
Hg0_4 Mg1_7 2.991825 1_545
Hg0_4 Hg3_0 3.200057 1_655
Hg0_4 Hg3_6 3.200057 1_555
Hg0_4 Hg1_1 3.228375 1_655
Hg0_4 Hg1_7 3.228375 1_555
Hg0_4 Hg2_5 3.299322 1_555
Hg0_4 Hg2_4 3.399539 1_555
Hg0_5 Mg0_1 2.972091 1_655
Hg0_5 Mg0_7 2.972091 1_555
Hg0_5 Mg1_0 2.991825 1_556
Hg0_5 Mg1_6 2.991825 1_546
Hg0_5 Hg3_7 3.200057 1_555
Hg0_5 Hg3_1 3.200057 1_655
Hg0_5 Hg1_0 3.228375 1_656
Hg0_5 Hg1_6 3.228375 1_556
Hg0_5 Hg2_4 3.299322 1_556
Hg0_5 Hg2_5 3.399539 1_555
Hg0_6 Mg0_2 2.972091 1_655
Hg0_6 Mg0_4 2.972091 1_565
Hg0_6 Mg1_5 2.991825 1_555
Hg0_6 Mg1_3 2.991825 1_555
Hg0_6 Hg3_2 3.200057 1_655
Hg0_6 Hg3_4 3.200057 1_565
Hg0_6 Hg1_3 3.228375 1_655
Hg0_6 Hg1_5 3.228375 1_565
Hg0_6 Hg2_7 3.299322 1_555
Hg0_6 Hg2_6 3.399539 1_555
Hg0_7 Mg0_5 2.972091 1_565
Hg0_7 Mg0_3 2.972091 1_655
Hg0_7 Mg1_4 2.991825 1_556
Hg0_7 Mg1_2 2.991825 1_556
Hg0_7 Hg3_3 3.200057 1_655
Hg0_7 Hg3_5 3.200057 1_565
Hg0_7 Hg1_2 3.228375 1_656
Hg0_7 Hg1_4 3.228375 1_566
Hg0_7 Hg2_6 3.299322 1_556
Hg0_7 Hg2_7 3.399539 1_555
Hg1_0 Mg1_4 2.972091 1_455
Hg1_0 Mg1_2 2.972091 1_545
Hg1_0 Mg0_3 2.991825 1_554
Hg1_0 Mg0_5 2.991825 1_554
Hg1_0 Hg2_4 3.200057 1_455
Hg1_0 Hg2_2 3.200057 1_545
Hg1_0 Hg3_1 3.299322 1_554
Hg1_0 Hg3_0 3.399539 1_555
Hg1_1 Mg1_3 2.972091 1_545
Hg1_1 Mg1_5 2.972091 1_455
Hg1_1 Mg0_2 2.991825 1_555
Hg1_1 Mg0_4 2.991825 1_555
Hg1_1 Hg2_3 3.200057 1_545
Hg1_1 Hg2_5 3.200057 1_455
Hg1_1 Hg3_0 3.299322 1_555
Hg1_1 Hg3_1 3.399539 1_555
Hg1_2 Mg1_0 2.972091 1_555
Hg1_2 Mg1_6 2.972091 1_455
Hg1_2 Mg0_1 2.991825 1_564
Hg1_2 Mg0_7 2.991825 1_554
Hg1_2 Hg2_6 3.200057 1_455
Hg1_2 Hg2_0 3.200057 1_555
Hg1_2 Hg3_3 3.299322 1_554
Hg1_2 Hg3_2 3.399539 1_555
Hg1_3 Mg1_7 2.972091 1_455
Hg1_3 Mg1_1 2.972091 1_555
Hg1_3 Mg0_6 2.991825 1_555
Hg1_3 Mg0_0 2.991825 1_565
Hg1_3 Hg2_7 3.200057 1_455
Hg1_3 Hg2_1 3.200057 1_555
Hg1_3 Hg3_2 3.299322 1_555
Hg1_3 Hg3_3 3.399539 1_555
Hg1_4 Mg1_0 2.972091 1_555
Hg1_4 Mg1_6 2.972091 1_545
Hg1_4 Mg0_1 2.991825 1_654
Hg1_4 Mg0_7 2.991825 1_554
Hg1_4 Hg2_0 3.200057 1_555
Hg1_4 Hg2_6 3.200057 1_545
Hg1_4 Hg3_5 3.299322 1_554
Hg1_4 Hg3_4 3.399539 1_555
Hg1_5 Mg1_7 2.972091 1_545
Hg1_5 Mg1_1 2.972091 1_555
Hg1_5 Mg0_6 2.991825 1_555
Hg1_5 Mg0_0 2.991825 1_655
Hg1_5 Hg2_7 3.200057 1_545
Hg1_5 Hg2_1 3.200057 1_555
Hg1_5 Hg3_4 3.299322 1_555
Hg1_5 Hg3_5 3.399539 1_555
Hg1_6 Mg1_2 2.972091 1_555
Hg1_6 Mg1_4 2.972091 1_555
Hg1_6 Mg0_3 2.991825 1_654
Hg1_6 Mg0_5 2.991825 1_564
Hg1_6 Hg2_2 3.200057 1_555
Hg1_6 Hg2_4 3.200057 1_555
Hg1_6 Hg3_7 3.299322 1_554
Hg1_6 Hg3_6 3.399539 1_555
Hg1_7 Mg1_3 2.972091 1_555
Hg1_7 Mg1_5 2.972091 1_555
Hg1_7 Mg0_4 2.991825 1_565
Hg1_7 Mg0_2 2.991825 1_655
Hg1_7 Hg2_5 3.200057 1_555
Hg1_7 Hg2_3 3.200057 1_555
Hg1_7 Hg3_6 3.299322 1_555
Hg1_7 Hg3_7 3.399539 1_555
Hg2_0 Mg0_4 2.975272 1_555
Hg2_0 Mg0_2 2.975272 1_555
Hg2_0 Mg1_2 3.019197 1_545
Hg2_0 Mg1_4 3.019197 1_455
Hg2_0 Hg3_4 3.263905 1_555
Hg2_0 Hg3_2 3.263905 1_555
Hg2_0 Hg2_6 3.359541 1_545
Hg2_0 Hg2_6 3.359541 1_455
Hg2_1 Mg0_5 2.975272 1_555
Hg2_1 Mg0_3 2.975272 1_555
Hg2_1 Mg1_5 3.019197 1_455
Hg2_1 Mg1_3 3.019197 1_545
Hg2_1 Hg3_3 3.263905 1_555
Hg2_1 Hg3_5 3.263905 1_555
Hg2_1 Hg2_7 3.359541 1_545
Hg2_1 Hg2_7 3.359541 1_455
Hg2_2 Mg0_0 2.975272 1_565
Hg2_2 Mg0_6 2.975272 1_555
Hg2_2 Mg1_0 3.019197 1_555
Hg2_2 Mg1_6 3.019197 1_455
Hg2_2 Hg3_0 3.263905 1_565
Hg2_2 Hg3_6 3.263905 1_555
Hg2_2 Hg2_4 3.359541 1_555
Hg2_2 Hg2_4 3.359541 1_465
Hg2_3 Mg0_7 2.975272 1_555
Hg2_3 Mg0_1 2.975272 1_565
Hg2_3 Mg1_1 3.019197 1_555
Hg2_3 Mg1_7 3.019197 1_455
Hg2_3 Hg3_1 3.263905 1_565
Hg2_3 Hg3_7 3.263905 1_555
Hg2_3 Hg2_5 3.359541 1_555
Hg2_3 Hg2_5 3.359541 1_465
Hg2_4 Mg0_0 2.975272 1_655
Hg2_4 Mg0_6 2.975272 1_555
Hg2_4 Mg1_6 3.019197 1_545
Hg2_4 Mg1_0 3.019197 1_555
Hg2_4 Hg3_6 3.263905 1_555
Hg2_4 Hg3_0 3.263905 1_655
Hg2_5 Mg0_7 2.975272 1_555
Hg2_5 Mg0_1 2.975272 1_655
Hg2_5 Mg1_1 3.019197 1_555
Hg2_5 Mg1_7 3.019197 1_545
Hg2_5 Hg3_1 3.263905 1_655
Hg2_5 Hg3_7 3.263905 1_555
Hg2_6 Mg0_4 2.975272 1_565
Hg2_6 Mg0_2 2.975272 1_655
Hg2_6 Mg1_4 3.019197 1_555
Hg2_6 Mg1_2 3.019197 1_555
Hg2_6 Hg3_2 3.263905 1_655
Hg2_6 Hg3_4 3.263905 1_565
Hg2_7 Mg0_5 2.975272 1_565
Hg2_7 Mg0_3 2.975272 1_655
Hg2_7 Mg1_5 3.019197 1_555
Hg2_7 Mg1_3 3.019197 1_555
Hg2_7 Hg3_3 3.263905 1_655
Hg2_7 Hg3_5 3.263905 1_565
Hg3_0 Mg1_2 2.975272 1_545
Hg3_0 Mg1_4 2.975272 1_455
Hg3_0 Mg0_2 3.019197 1_555
Hg3_0 Mg0_4 3.019197 1_555
Hg3_0 Hg3_6 3.359541 1_545
Hg3_0 Hg3_6 3.359541 1_455
Hg3_1 Mg1_3 2.975272 1_545
Hg3_1 Mg1_5 2.975272 1_455
Hg3_1 Mg0_3 3.019197 1_555
Hg3_1 Mg0_5 3.019197 1_555
Hg3_1 Hg3_7 3.359541 1_455
Hg3_1 Hg3_7 3.359541 1_545
Hg3_2 Mg1_0 2.975272 1_555
Hg3_2 Mg1_6 2.975272 1_455
Hg3_2 Mg0_0 3.019197 1_565
Hg3_2 Mg0_6 3.019197 1_555
Hg3_2 Hg3_4 3.359541 1_465
Hg3_2 Hg3_4 3.359541 1_555
Hg3_3 Mg1_7 2.975272 1_455
Hg3_3 Mg1_1 2.975272 1_555
Hg3_3 Mg0_7 3.019197 1_555
Hg3_3 Mg0_1 3.019197 1_565
Hg3_3 Hg3_5 3.359541 1_555
Hg3_3 Hg3_5 3.359541 1_465
Hg3_4 Mg1_6 2.975272 1_545
Hg3_4 Mg1_0 2.975272 1_555
Hg3_4 Mg0_6 3.019197 1_555
Hg3_4 Mg0_0 3.019197 1_655
Hg3_5 Mg1_7 2.975272 1_545
Hg3_5 Mg1_1 2.975272 1_555
Hg3_5 Mg0_7 3.019197 1_555
Hg3_5 Mg0_1 3.019197 1_655
Hg3_6 Mg1_2 2.975272 1_555
Hg3_6 Mg1_4 2.975272 1_555
Hg3_6 Mg0_4 3.019197 1_565
Hg3_6 Mg0_2 3.019197 1_655
Hg3_7 Mg1_3 2.975272 1_555
Hg3_7 Mg1_5 2.975272 1_555
Hg3_7 Mg0_3 3.019197 1_655
Hg3_7 Mg0_5 3.019197 1_565
