# generated using pymatgen
data_Na21Mg8Ta4Si3(P5O24)3
_symmetry_space_group_name_H-M   'P 1'
_cell_length_a   9.02371993
_cell_length_b   9.02970556
_cell_length_c   21.94831191
_cell_angle_alpha   89.76258622
_cell_angle_beta   90.21000652
_cell_angle_gamma   119.92015457
_symmetry_Int_Tables_number   1
_chemical_formula_structural   Na21Mg8Ta4Si3(P5O24)3
_chemical_formula_sum   'Na21 Mg8 Ta4 Si3 P15 O72'
_cell_volume   1550.01301740
_cell_formula_units_Z   1
loop_
 _symmetry_equiv_pos_site_id
 _symmetry_equiv_pos_as_xyz
  1  'x, y, z'
loop_
 _atom_site_type_symbol
 _atom_site_label
 _atom_site_symmetry_multiplicity
 _atom_site_fract_x
 _atom_site_fract_y
 _atom_site_fract_z
 _atom_site_occupancy
  Na  Na0  1  0.65725652  0.01285392  0.23950407  1
  Na  Na1  1  0.98890400  0.63815645  0.23907599  1
  Na  Na2  1  0.65487109  0.64044644  0.74431383  1
  Na  Na3  1  0.98441040  0.34203910  0.74667201  1
  Na  Na4  1  0.36045813  0.01374256  0.74460507  1
  Na  Na5  1  0.29309907  0.33366112  0.58634458  1
  Na  Na6  1  0.04517478  0.70934650  0.58093857  1
  Na  Na7  1  0.66366711  0.95344606  0.58170187  1
  Na  Na8  1  0.29185503  0.95845031  0.08559833  1
  Na  Na9  1  0.66688226  0.70638957  0.08449576  1
  Na  Na10  1  0.04468139  0.33707922  0.08036704  1
  Na  Na11  1  0.97774577  0.67661992  0.91374760  1
  Na  Na12  1  0.97518915  0.29518628  0.40414312  1
  Na  Na13  1  0.31417024  0.01812353  0.40876453  1
  Na  Na14  1  0.71279912  0.69293343  0.40921887  1
  Na  Na15  1  0.99288164  0.99319682  0.49609911  1
  Na  Na16  1  0.00214687  0.02392127  0.99358471  1
  Na  Na17  1  0.65574500  0.31703388  0.83049142  1
  Na  Na18  1  0.65057089  0.33527932  0.32139794  1
  Na  Na19  1  0.33357014  0.64715928  0.16015024  1
  Na  Na20  1  0.33576201  0.66885823  0.66114085  1
  Mg  Mg0  1  0.99982563  0.99950868  0.34898785  1
  Mg  Mg1  1  0.00037972  0.00814019  0.85276999  1
  Mg  Mg2  1  0.99797211  0.00031313  0.64898615  1
  Mg  Mg3  1  0.00213316  0.00507132  0.14888353  1
  Mg  Mg4  1  0.66855882  0.33365846  0.68531046  1
  Mg  Mg5  1  0.66192382  0.33264627  0.18500542  1
  Mg  Mg6  1  0.33251421  0.66281647  0.01740256  1
  Mg  Mg7  1  0.33587496  0.66948226  0.51814240  1
  Ta  Ta0  1  0.66433490  0.32972306  0.97871112  1
  Ta  Ta1  1  0.66877286  0.33287474  0.47968323  1
  Ta  Ta2  1  0.33168764  0.66764923  0.31436835  1
  Ta  Ta3  1  0.33212408  0.66359517  0.81877058  1
  Si  Si0  1  0.03365092  0.36191357  0.92293816  1
  Si  Si1  1  0.63037788  0.96088078  0.42110438  1
  Si  Si2  1  0.03988158  0.66992343  0.42137903  1
  P  P0  1  0.29645072  0.00055730  0.25088241  1
  P  P1  1  0.70135382  0.70348737  0.25029643  1
  P  P2  1  0.00332964  0.29861568  0.24956271  1
  P  P3  1  0.29547495  0.29703405  0.74873569  1
  P  P4  1  0.00418155  0.70535254  0.75075426  1
  P  P5  1  0.70099898  0.99477499  0.74792454  1
  P  P6  1  0.96199125  0.33181234  0.58627261  1
  P  P7  1  0.37148023  0.03994864  0.58647495  1
  P  P8  1  0.66662730  0.62666695  0.58608198  1
  P  P9  1  0.95992162  0.62822744  0.08549556  1
  P  P10  1  0.66615498  0.03873877  0.08600920  1
  P  P11  1  0.37550371  0.33391063  0.08469293  1
  P  P12  1  0.63019642  0.66653408  0.92113373  1
  P  P13  1  0.33413819  0.96150775  0.92001770  1
  P  P14  1  0.33437222  0.37600209  0.42100878  1
  O  O0  1  0.21175260  0.01112263  0.30950962  1
  O  O1  1  0.80499657  0.79048091  0.30782357  1
  O  O2  1  0.98738034  0.19389391  0.30669006  1
  O  O3  1  0.20327917  0.17684448  0.80100232  1
  O  O4  1  0.98228180  0.78979801  0.80721130  1
  O  O5  1  0.81960125  0.01808685  0.80037061  1
  O  O6  1  0.76669742  0.95973847  0.68758913  1
  O  O7  1  0.19116950  0.23457456  0.68880879  1
  O  O8  1  0.03628353  0.81432737  0.69258815  1
  O  O9  1  0.77623048  0.81700666  0.19312753  1
  O  O10  1  0.02318397  0.21915755  0.19099893  1
  O  O11  1  0.18438698  0.96621993  0.19401950  1
  O  O12  1  0.87427461  0.34912259  0.64265700  1
  O  O13  1  0.47478079  0.13057027  0.64301173  1
  O  O14  1  0.65490769  0.52462414  0.64307090  1
  O  O15  1  0.87316690  0.51992239  0.14185847  1
  O  O16  1  0.64692429  0.12273043  0.14326111  1
  O  O17  1  0.48602724  0.35355163  0.13941813  1
  O  O18  1  0.47659504  0.32148710  0.02655968  1
  O  O19  1  0.84374151  0.52403111  0.02752629  1
  O  O20  1  0.67519860  0.15870379  0.02978501  1
  O  O21  1  0.47596186  0.15436712  0.52861604  1
  O  O22  1  0.67504757  0.52084139  0.52859888  1
  O  O23  1  0.84502890  0.32272283  0.52848955  1
  O  O24  1  0.54842835  0.68575652  0.97801722  1
  O  O25  1  0.13250064  0.45873442  0.98290024  1
  O  O26  1  0.31851962  0.85944890  0.97691602  1
  O  O27  1  0.55126829  0.84881261  0.48103093  1
  O  O28  1  0.30854914  0.44987477  0.47922870  1
  O  O29  1  0.14677556  0.69062346  0.48162452  1
  O  O30  1  0.13569470  0.63293301  0.36211977  1
  O  O31  1  0.49817978  0.86038203  0.36188778  1
  O  O32  1  0.36344860  0.49991332  0.36590452  1
  O  O33  1  0.14179860  0.50066966  0.86337229  1
  O  O34  1  0.36149382  0.86680829  0.86262304  1
  O  O35  1  0.51131787  0.64765495  0.86364928  1
  O  O36  1  0.01055415  0.82951791  0.41183938  1
  O  O37  1  0.82279238  0.00182396  0.41072516  1
  O  O38  1  0.18641263  0.19610357  0.41048422  1
  O  O39  1  0.00536955  0.17757685  0.91152015  1
  O  O40  1  0.17484693  0.97432816  0.90972505  1
  O  O41  1  0.81221645  0.80958515  0.91132675  1
  O  O42  1  0.96698649  0.16411968  0.58244424  1
  O  O43  1  0.19559458  0.02959035  0.58295538  1
  O  O44  1  0.83213733  0.80147559  0.58231882  1
  O  O45  1  0.96537693  0.80195082  0.08384038  1
  O  O46  1  0.83362974  0.03286881  0.08285028  1
  O  O47  1  0.19947441  0.16845353  0.08354394  1
  O  O48  1  0.67082939  0.14970212  0.74566470  1
  O  O49  1  0.48091615  0.32994854  0.74568762  1
  O  O50  1  0.85207100  0.52033000  0.74646595  1
  O  O51  1  0.68305938  0.52588144  0.24563209  1
  O  O52  1  0.84790653  0.32862131  0.24821341  1
  O  O53  1  0.48289796  0.14493149  0.24724398  1
  O  O54  1  0.63471191  0.49292748  0.92108120  1
  O  O55  1  0.84580003  0.36442124  0.92064261  1
  O  O56  1  0.49982041  0.14230694  0.92091627  1
  O  O57  1  0.62940964  0.14751432  0.42288934  1
  O  O58  1  0.50619642  0.36834066  0.42267167  1
  O  O59  1  0.84703249  0.48951897  0.42253364  1
  O  O60  1  0.35711745  0.49465488  0.07997602  1
  O  O61  1  0.14141648  0.65289344  0.08162042  1
  O  O62  1  0.50724046  0.86000039  0.07982083  1
  O  O63  1  0.35586955  0.86237915  0.58314861  1
  O  O64  1  0.50369938  0.64095232  0.58250307  1
  O  O65  1  0.14064267  0.49039996  0.58143504  1
  O  O66  1  0.30873868  0.82605330  0.25623044  1
  O  O67  1  0.51658081  0.68598720  0.25774884  1
  O  O68  1  0.16926757  0.48429935  0.25584801  1
  O  O69  1  0.31455833  0.48309044  0.75917815  1
  O  O70  1  0.17474269  0.69006231  0.75696476  1
  O  O71  1  0.51591496  0.82792571  0.75696678  1
loop_
_geom_bond_atom_site_label_1
_geom_bond_atom_site_label_2
_geom_bond_distance
_geom_bond_site_symmetry_2
Na0 O16 2.351305 1_555
Na0 O53 2.408777 1_555
Na0 O52 2.496945 1_555
Na0 O67 2.596048 1_545
Na0 O9 2.689423 1_545
Na0 O66 2.753526 1_545
Na1 O15 2.381955 1_555
Na1 O51 2.424007 1_555
Na1 O52 2.433263 1_555
Na1 O66 2.542125 1_655
Na1 O68 2.638481 1_655
Na1 O11 2.764156 1_655
Na2 O49 2.436172 1_555
Na2 O14 2.459913 1_555
Na2 O50 2.503899 1_555
Na2 O71 2.576679 1_555
Na2 O69 2.684467 1_555
Na2 O6 2.820962 1_555
Na2 O4 2.909312 1_555
Na2 O35 2.941585 1_555
Na3 O50 2.436340 1_555
Na3 O48 2.474087 1_555
Na3 O12 2.499850 1_555
Na3 O69 2.604725 1_655
Na3 O70 2.737735 1_655
Na3 O5 2.793213 1_555
Na3 O7 2.805204 1_655
Na3 O33 2.933215 1_655
Na4 O48 2.433387 1_555
Na4 O13 2.461875 1_555
Na4 O49 2.497758 1_555
Na4 O70 2.556360 1_545
Na4 O71 2.682943 1_545
Na4 O3 2.797272 1_555
Na4 O8 2.800150 1_545
Na4 O34 2.907534 1_545
Na5 O65 2.418126 1_555
Na5 O7 2.425217 1_555
Na5 O43 2.430974 1_555
Na5 O64 2.461035 1_555
Na5 O28 2.546349 1_555
Na5 O42 2.552610 1_455
Na6 O29 2.406842 1_555
Na6 O63 2.430409 1_555
Na6 O44 2.446337 1_455
Na6 O43 2.508261 1_565
Na6 O65 2.519856 1_555
Na6 O8 2.647008 1_555
Na7 O27 2.418353 1_555
Na7 O42 2.432356 1_565
Na7 O64 2.445933 1_555
Na7 O63 2.472568 1_555
Na7 O6 2.490251 1_555
Na7 O44 2.505021 1_555
Na8 O61 2.393263 1_555
Na8 O47 2.422548 1_565
Na8 O62 2.512013 1_555
Na8 O45 2.554240 1_455
Na8 O11 2.587339 1_555
Na8 O26 2.604536 1_554
Na9 O45 2.383584 1_555
Na9 O62 2.449642 1_555
Na9 O60 2.479266 1_555
Na9 O24 2.534869 1_554
Na9 O46 2.555494 1_565
Na9 O9 2.583681 1_555
Na10 O25 2.352777 1_554
Na10 O46 2.440555 1_455
Na10 O60 2.443665 1_555
Na10 O47 2.528731 1_555
Na10 O61 2.532227 1_555
Na10 O10 2.616002 1_555
Na11 O41 2.337392 1_555
Na11 O40 2.372168 1_655
Na11 O55 2.457039 1_555
Na11 O4 2.540249 1_555
Na11 O54 2.690423 1_555
Na11 O19 2.815747 1_556
Na11 O33 2.882885 1_655
Na12 O37 2.300723 1_555
Na12 O2 2.354146 1_555
Na12 O38 2.480112 1_655
Na12 O59 2.571614 1_555
Na12 O57 2.745432 1_555
Na12 O30 2.798118 1_655
Na13 O0 2.352017 1_555
Na13 O36 2.399352 1_545
Na13 O38 2.400496 1_555
Na13 O57 2.496821 1_555
Na13 O58 2.762949 1_555
Na14 O36 2.331801 1_655
Na14 O1 2.384733 1_555
Na14 O37 2.450435 1_565
Na14 O58 2.588297 1_555
Na14 O59 2.671850 1_555
Na14 O32 2.896553 1_555
Na14 O27 2.944823 1_555
Na14 O22 2.973363 1_555
Na15 O36 2.426912 1_655
Na15 O37 2.443350 1_565
Na15 O44 2.483951 1_555
Na15 O42 2.532866 1_565
Na15 O43 2.543261 1_665
Na15 O38 2.596405 1_665
Na16 O39 2.260436 1_555
Na16 O46 2.510617 1_456
Na16 O47 2.539620 1_556
Na16 O41 2.576807 1_445
Na16 O40 2.596325 1_545
Na16 O45 2.712951 1_446
Na17 O48 2.449116 1_555
Na17 O49 2.475295 1_555
Na17 O56 2.487539 1_555
Na17 O55 2.507892 1_555
Na17 O50 2.580913 1_555
Na17 O54 2.615642 1_555
Na18 O51 2.299983 1_555
Na18 O53 2.302880 1_555
Na18 O52 2.425531 1_555
Na18 O58 2.672433 1_555
Na18 O57 2.742617 1_555
Na18 O59 2.746559 1_555
Na19 O60 2.313590 1_555
Na19 O61 2.459051 1_555
Na19 O62 2.499138 1_555
Na19 O68 2.568004 1_555
Na19 O67 2.615636 1_555
Na19 O66 2.738504 1_555
Na20 O63 2.382834 1_555
Na20 O64 2.396386 1_555
Na20 O65 2.434663 1_555
Na20 O71 2.607671 1_555
Na20 O70 2.621918 1_555
Na20 O69 2.670832 1_555
Mg0 O2 2.034139 1_565
Mg0 O1 2.040058 1_555
Mg0 O0 2.056762 1_665
Mg0 O36 2.097186 1_655
Mg0 O37 2.106648 1_565
Mg0 O38 2.197611 1_665
Mg1 O39 1.988150 1_555
Mg1 O5 2.030620 1_455
Mg1 O3 2.045074 1_555
Mg1 O40 2.143912 1_545
Mg1 O4 2.146522 1_445
Mg1 O41 2.170087 1_445
Mg2 O8 2.102180 1_645
Mg2 O6 2.110714 1_545
Mg2 O7 2.145483 1_655
Mg2 O42 2.188761 1_555
Mg2 O43 2.212656 1_655
Mg2 O44 2.220237 1_545
Mg3 O10 2.067544 1_555
Mg3 O11 2.090442 1_545
Mg3 O9 2.128310 1_445
Mg3 O47 2.187371 1_555
Mg3 O46 2.199340 1_455
Mg3 O45 2.218866 1_445
Mg4 O14 2.011445 1_555
Mg4 O13 2.021322 1_555
Mg4 O12 2.023590 1_555
Mg4 O48 2.128346 1_555
Mg4 O49 2.140971 1_555
Mg4 O50 2.145462 1_555
Mg5 O17 1.960048 1_555
Mg5 O15 2.043116 1_555
Mg5 O16 2.051380 1_555
Mg5 O51 2.130009 1_555
Mg5 O53 2.148073 1_555
Mg5 O52 2.187659 1_555
Mg6 O25 1.977493 1_554
Mg6 O26 2.041537 1_554
Mg6 O24 2.048044 1_554
Mg6 O60 2.134933 1_555
Mg6 O62 2.176428 1_555
Mg6 O61 2.197925 1_555
Mg7 O29 1.975918 1_555
Mg7 O27 1.980983 1_555
Mg7 O28 2.060881 1_555
Mg7 O64 2.173875 1_555
Mg7 O65 2.192196 1_555
Mg7 O63 2.192560 1_555
O0 P0 1.526428 1_555
O1 P1 1.533828 1_555
O2 P2 1.530606 1_655
O3 P3 1.510601 1_555
O4 P4 1.521806 1_655
O5 P5 1.510955 1_545
O6 P5 1.549694 1_555
O7 P3 1.549677 1_555
O8 P4 1.545950 1_555
O9 P1 1.544768 1_555
O10 P2 1.528606 1_555
O11 P0 1.535420 1_565
O12 P6 1.521404 1_555
O13 P7 1.522273 1_555
O14 P8 1.522803 1_555
O15 P9 1.527394 1_555
O16 P10 1.524829 1_555
O17 P11 1.511741 1_555
O18 P11 1.607645 1_555
O18 Ta0 1.966003 1_554
O19 P9 1.618419 1_555
O19 Ta0 2.004120 1_554
O20 P10 1.613809 1_555
O20 Ta0 1.945972 1_554
O21 P7 1.610950 1_555
O21 Ta1 1.995099 1_555
O22 P8 1.610527 1_555
O22 Ta1 1.988822 1_555
O23 P6 1.622883 1_555
O23 Ta1 1.953892 1_555
O24 P12 1.506522 1_555
O25 Si0 1.585873 1_555
O26 P13 1.513565 1_555
O27 Si1 1.593366 1_555
O28 P14 1.515390 1_555
O29 Si2 1.589539 1_555
O30 Si2 1.688395 1_555
O30 Ta2 1.944837 1_555
O31 Si1 1.689460 1_555
O31 Ta2 1.941364 1_555
O32 P14 1.575357 1_555
O32 Ta2 2.017944 1_555
O33 Si0 1.734191 1_555
O33 Ta3 1.884702 1_555
O34 P13 1.612702 1_555
O34 Ta3 1.972641 1_555
O35 P12 1.606577 1_555
O35 Ta3 1.955752 1_555
O36 Si2 1.602550 1_555
O37 Si1 1.601603 1_545
O38 P14 1.520521 1_555
O39 Si0 1.574084 1_555
O40 P13 1.514580 1_555
O41 P12 1.515396 1_555
O42 P6 1.539842 1_555
O43 P7 1.544283 1_555
O44 P8 1.541761 1_555
O45 P9 1.544985 1_555
O46 P10 1.540190 1_555
O47 P11 1.545468 1_555
O48 P5 1.553346 1_545
O49 P3 1.548383 1_555
O50 P4 1.548167 1_655
O51 P1 1.531929 1_555
O52 P2 1.555630 1_655
O53 P0 1.532518 1_555
O54 P12 1.588338 1_555
O54 Ta0 2.053822 1_555
O55 Si0 1.707079 1_655
O55 Ta0 1.975876 1_555
O56 P13 1.570361 1_545
O56 Ta0 2.043186 1_555
O57 Si1 1.690238 1_545
O57 Ta1 1.975451 1_555
O58 P14 1.586416 1_555
O58 Ta1 2.066991 1_555
O59 Si2 1.689571 1_655
O59 Ta1 1.972780 1_555
O60 P11 1.543983 1_555
O61 P9 1.541450 1_455
O62 P10 1.539877 1_565
O63 P7 1.540013 1_565
O64 P8 1.540326 1_555
O65 P6 1.535515 1_455
O66 P0 1.637570 1_565
O66 Ta2 1.998859 1_555
O67 P1 1.603338 1_555
O67 Ta2 2.023181 1_555
O68 P2 1.602575 1_555
O68 Ta2 2.030272 1_555
O69 P3 1.618330 1_555
O69 Ta3 2.037369 1_555
O70 P4 1.617637 1_555
O70 Ta3 2.058142 1_555
O71 P5 1.608852 1_555
O71 Ta3 2.082607 1_555
