# generated using pymatgen
data_Na3MgC2ClO6
_symmetry_space_group_name_H-M   'P 1'
_cell_length_a   10.02898316
_cell_length_b   10.02898316
_cell_length_c   10.02898316
_cell_angle_alpha   60.00000000
_cell_angle_beta   60.00000000
_cell_angle_gamma   60.00000000
_symmetry_Int_Tables_number   1
_chemical_formula_structural   Na3MgC2ClO6
_chemical_formula_sum   'Na12 Mg4 C8 Cl4 O24'
_cell_volume   713.27287443
_cell_formula_units_Z   4
loop_
 _symmetry_equiv_pos_site_id
 _symmetry_equiv_pos_as_xyz
  1  'x, y, z'
loop_
 _atom_site_type_symbol
 _atom_site_label
 _atom_site_symmetry_multiplicity
 _atom_site_fract_x
 _atom_site_fract_y
 _atom_site_fract_z
 _atom_site_occupancy
  Na  Na0  1  0.72536900  0.72536900  0.27463100  1
  Na  Na1  1  0.27463100  0.72536900  0.72536900  1
  Na  Na2  1  0.72536900  0.27463100  0.27463100  1
  Na  Na3  1  0.72536900  0.27463100  0.72536900  1
  Na  Na4  1  0.27463100  0.27463100  0.72536900  1
  Na  Na5  1  0.97536900  0.52463100  0.97536900  1
  Na  Na6  1  0.97536900  0.52463100  0.52463100  1
  Na  Na7  1  0.52463100  0.97536900  0.97536900  1
  Na  Na8  1  0.52463100  0.97536900  0.52463100  1
  Na  Na9  1  0.97536900  0.97536900  0.52463100  1
  Na  Na10  1  0.27463100  0.72536900  0.27463100  1
  Na  Na11  1  0.52463100  0.52463100  0.97536900  1
  Mg  Mg0  1  0.12500000  0.62500000  0.12500000  1
  Mg  Mg1  1  0.62500000  0.12500000  0.12500000  1
  Mg  Mg2  1  0.12500000  0.12500000  0.12500000  1
  Mg  Mg3  1  0.12500000  0.12500000  0.62500000  1
  C  C0  1  0.90835800  0.90835800  0.27492600  1
  C  C1  1  0.90835800  0.90835800  0.90835800  1
  C  C2  1  0.27492600  0.90835800  0.90835800  1
  C  C3  1  0.90835800  0.27492600  0.90835800  1
  C  C4  1  0.34164200  0.34164200  0.97507400  1
  C  C5  1  0.34164200  0.34164200  0.34164200  1
  C  C6  1  0.97507400  0.34164200  0.34164200  1
  C  C7  1  0.34164200  0.97507400  0.34164200  1
  Cl  Cl0  1  0.62500000  0.12500000  0.62500000  1
  Cl  Cl1  1  0.12500000  0.62500000  0.62500000  1
  Cl  Cl2  1  0.62500000  0.62500000  0.62500000  1
  Cl  Cl3  1  0.62500000  0.62500000  0.12500000  1
  O  O0  1  0.01609600  0.94273900  0.76432300  1
  O  O1  1  0.27684200  0.76432300  0.94273900  1
  O  O2  1  0.76432300  0.94273900  0.27684200  1
  O  O3  1  0.94273900  0.01609600  0.27684200  1
  O  O4  1  0.94273900  0.76432300  0.01609600  1
  O  O5  1  0.76432300  0.01609600  0.94273900  1
  O  O6  1  0.27684200  0.94273900  0.01609600  1
  O  O7  1  0.01609600  0.76432300  0.27684200  1
  O  O8  1  0.76432300  0.27684200  0.01609600  1
  O  O9  1  0.94273900  0.27684200  0.76432300  1
  O  O10  1  0.23390400  0.48567700  0.97315800  1
  O  O11  1  0.97315800  0.30726100  0.23390400  1
  O  O12  1  0.48567700  0.23390400  0.30726100  1
  O  O13  1  0.97315800  0.23390400  0.48567700  1
  O  O14  1  0.30726100  0.48567700  0.23390400  1
  O  O15  1  0.30726100  0.23390400  0.97315800  1
  O  O16  1  0.48567700  0.30726100  0.97315800  1
  O  O17  1  0.97315800  0.48567700  0.30726100  1
  O  O18  1  0.01609600  0.27684200  0.94273900  1
  O  O19  1  0.23390400  0.30726100  0.48567700  1
  O  O20  1  0.30726100  0.97315800  0.48567700  1
  O  O21  1  0.48567700  0.97315800  0.23390400  1
  O  O22  1  0.23390400  0.97315800  0.30726100  1
  O  O23  1  0.27684200  0.01609600  0.76432300  1
loop_
_geom_bond_atom_site_label_1
_geom_bond_atom_site_label_2
_geom_bond_distance
_geom_bond_site_symmetry_2
Na0 O2 2.411260 1_555
Na0 O4 2.411260 1_555
Na0 O17 2.472658 1_555
Na0 O21 2.472658 1_555
Na1 O1 2.411260 1_555
Na1 O0 2.411260 1_555
Na1 O20 2.472658 1_555
Na1 O10 2.472658 1_555
Na2 O3 2.411260 1_555
Na2 O8 2.411260 1_555
Na2 O11 2.472658 1_555
Na2 O12 2.472658 1_555
Na3 O9 2.411260 1_555
Na3 O5 2.411260 1_555
Na3 O16 2.472658 1_555
Na3 O13 2.472658 1_555
Na4 O18 2.411260 1_555
Na4 O23 2.411260 1_555
Na4 O15 2.472658 1_555
Na4 O19 2.472658 1_555
Na5 O10 2.411260 1_655
Na5 O11 2.411260 1_556
Na5 O18 2.472658 1_655
Na5 O4 2.472658 1_556
Na6 O19 2.411260 1_655
Na6 O17 2.411260 1_555
Na6 O7 2.472658 1_655
Na6 O9 2.472658 1_555
Na7 O15 2.411260 1_565
Na7 O21 2.411260 1_556
Na7 O6 2.472658 1_556
Na7 O5 2.472658 1_565
Na8 O12 2.411260 1_565
Na8 O20 2.411260 1_555
Na8 O23 2.472658 1_565
Na8 O2 2.472658 1_555
Na9 O22 2.411260 1_655
Na9 O13 2.411260 1_565
Na9 O3 2.472658 1_565
Na9 O0 2.472658 1_655
Na10 O6 2.411260 1_555
Na10 O7 2.411260 1_555
Na10 O22 2.472658 1_555
Na10 O14 2.472658 1_555
Na11 O14 2.411260 1_556
Na11 O16 2.411260 1_555
Na11 O1 2.472658 1_555
Na11 O8 2.472658 1_556
Mg0 O4 2.098264 1_455
Mg0 O1 2.098264 1_554
Mg0 O14 2.098264 1_555
Mg0 O10 2.098264 1_554
Mg0 O7 2.098264 1_555
Mg0 O17 2.098264 1_455
Mg1 O5 2.098264 1_554
Mg1 O12 2.098264 1_555
Mg1 O2 2.098264 1_545
Mg1 O16 2.098264 1_554
Mg1 O21 2.098264 1_545
Mg1 O8 2.098264 1_555
Mg2 O15 2.098264 1_554
Mg2 O6 2.098264 1_545
Mg2 O3 2.098264 1_455
Mg2 O22 2.098264 1_545
Mg2 O18 2.098264 1_554
Mg2 O11 2.098264 1_455
Mg3 O23 2.098264 1_555
Mg3 O13 2.098264 1_455
Mg3 O9 2.098264 1_455
Mg3 O20 2.098264 1_545
Mg3 O19 2.098264 1_555
Mg3 O0 2.098264 1_545
C0 O2 1.298730 1_555
C0 O7 1.298730 1_655
C0 O3 1.298730 1_565
C1 O4 1.298730 1_556
C1 O5 1.298730 1_565
C1 O0 1.298730 1_655
C2 O1 1.298730 1_555
C2 O23 1.298730 1_565
C2 O6 1.298730 1_556
C3 O9 1.298730 1_555
C3 O8 1.298730 1_556
C3 O18 1.298730 1_655
C4 O15 1.298730 1_555
C4 O16 1.298730 1_555
C4 O10 1.298730 1_555
C5 O19 1.298730 1_555
C5 O14 1.298730 1_555
C5 O12 1.298730 1_555
C6 O17 1.298730 1_555
C6 O13 1.298730 1_555
C6 O11 1.298730 1_555
C7 O21 1.298730 1_555
C7 O20 1.298730 1_555
C7 O22 1.298730 1_555
Cl0 Na2 2.883187 1_555
Cl0 Na8 2.883187 1_545
Cl0 Na4 2.883187 1_555
Cl0 Na7 2.883187 1_545
Cl0 Na9 2.883187 1_545
Cl0 Na3 2.883187 1_555
Cl1 Na10 2.883187 1_555
Cl1 Na6 2.883187 1_455
Cl1 Na5 2.883187 1_455
Cl1 Na4 2.883187 1_555
Cl1 Na1 2.883187 1_555
Cl1 Na9 2.883187 1_455
Cl2 Na0 2.883187 1_555
Cl2 Na3 2.883187 1_555
Cl2 Na1 2.883187 1_555
Cl2 Na11 2.883187 1_555
Cl2 Na8 2.883187 1_555
Cl2 Na6 2.883187 1_555
Cl3 Na2 2.883187 1_555
Cl3 Na10 2.883187 1_555
Cl3 Na11 2.883187 1_554
Cl3 Na7 2.883187 1_554
Cl3 Na5 2.883187 1_554
Cl3 Na0 2.883187 1_555
