# generated using pymatgen
data_Mg(NiO2)2
_symmetry_space_group_name_H-M   'P 1'
_cell_length_a   2.95681523
_cell_length_b   8.84104614
_cell_length_c   2.95623514
_cell_angle_alpha   90.09513161
_cell_angle_beta   119.95580622
_cell_angle_gamma   89.86813267
_symmetry_Int_Tables_number   1
_chemical_formula_structural   Mg(NiO2)2
_chemical_formula_sum   'Mg1 Ni2 O4'
_cell_volume   66.95599310
_cell_formula_units_Z   1
loop_
 _symmetry_equiv_pos_site_id
 _symmetry_equiv_pos_as_xyz
  1  'x, y, z'
loop_
 _atom_site_type_symbol
 _atom_site_label
 _atom_site_symmetry_multiplicity
 _atom_site_fract_x
 _atom_site_fract_y
 _atom_site_fract_z
 _atom_site_occupancy
  Mg  Mg0  1  0.00001256  0.24997289  0.99994788  1
  Ni  Ni0  1  0.99976504  0.95978442  0.00005508  1
  Ni  Ni1  1  0.00022399  0.54013449  0.99991115  1
  O  O0  1  0.66689474  0.10897701  0.33320786  1
  O  O1  1  0.66641546  0.64600180  0.33343270  1
  O  O2  1  0.33311772  0.39106184  0.66670711  1
  O  O3  1  0.33357149  0.85406755  0.66653822  1
loop_
_geom_bond_atom_site_label_1
_geom_bond_atom_site_label_2
_geom_bond_distance
_geom_bond_site_symmetry_2
Mg0 O0 2.113146 1_556
Mg0 O2 2.113657 1_455
Mg0 O0 2.113700 1_455
Mg0 O2 2.114224 1_556
Mg0 O0 2.115060 1_456
Mg0 O2 2.115481 1_555
Ni0 O3 1.945349 1_654
Ni0 O3 1.946675 1_655
Ni0 O3 1.947227 1_554
Ni0 O0 2.153203 1_565
Ni0 O0 2.158646 1_564
Ni0 O0 2.160642 1_665
Ni1 O1 1.946001 1_456
Ni1 O1 1.947304 1_455
Ni1 O1 1.947863 1_556
Ni1 O2 2.152707 1_555
Ni1 O2 2.157893 1_556
Ni1 O2 2.159945 1_455
