# generated using pymatgen
data_Rb2SnCl6
_symmetry_space_group_name_H-M   'P 1'
_cell_length_a   7.18588139
_cell_length_b   7.18588154
_cell_length_c   7.18588174
_cell_angle_alpha   60.00000367
_cell_angle_beta   60.00000299
_cell_angle_gamma   59.99999470
_symmetry_Int_Tables_number   1
_chemical_formula_structural   Rb2SnCl6
_chemical_formula_sum   'Rb2 Sn1 Cl6'
_cell_volume   262.37664239
_cell_formula_units_Z   1
loop_
 _symmetry_equiv_pos_site_id
 _symmetry_equiv_pos_as_xyz
  1  'x, y, z'
loop_
 _atom_site_type_symbol
 _atom_site_label
 _atom_site_symmetry_multiplicity
 _atom_site_fract_x
 _atom_site_fract_y
 _atom_site_fract_z
 _atom_site_occupancy
  Rb  Rb0  1  0.25000000  0.25000000  0.25000000  1
  Rb  Rb1  1  0.75000000  0.75000000  0.75000000  1
  Sn  Sn0  1  -0.00000000  -0.00000000  -0.00000000  1
  Cl  Cl0  1  0.24087845  0.75912155  0.75912155  1
  Cl  Cl1  1  0.24087845  0.75912155  0.24087845  1
  Cl  Cl2  1  0.75912155  0.24087845  0.75912155  1
  Cl  Cl3  1  0.75912155  0.24087845  0.24087845  1
  Cl  Cl4  1  0.75912155  0.75912155  0.24087845  1
  Cl  Cl5  1  0.24087845  0.24087845  0.75912155  1
loop_
_geom_bond_atom_site_label_1
_geom_bond_atom_site_label_2
_geom_bond_distance
_geom_bond_site_symmetry_2
Cl0 Sn0 2.447896 1_566
Cl0 Rb1 3.594136 1_555
Cl0 Rb1 3.594136 1_455
Cl0 Rb0 3.594137 1_556
Cl0 Rb0 3.594137 1_565
Cl1 Sn0 2.447896 1_565
Cl1 Rb0 3.594136 1_555
Cl1 Rb0 3.594136 1_565
Cl1 Rb1 3.594137 1_554
Cl1 Rb1 3.594137 1_455
Cl2 Sn0 2.447896 1_656
Cl2 Rb1 3.594136 1_555
Cl2 Rb1 3.594136 1_545
Cl2 Rb0 3.594137 1_556
Cl2 Rb0 3.594137 1_655
Cl3 Sn0 2.447896 1_655
Cl3 Rb0 3.594136 1_555
Cl3 Rb0 3.594136 1_655
Cl3 Rb1 3.594137 1_554
Cl3 Rb1 3.594137 1_545
Cl4 Sn0 2.447896 1_665
Cl4 Rb0 3.594136 1_565
Cl4 Rb0 3.594136 1_655
Cl4 Rb1 3.594136 1_554
Cl4 Rb1 3.594136 1_555
Cl5 Sn0 2.447896 1_556
Cl5 Rb1 3.594136 1_545
Cl5 Rb1 3.594136 1_455
Cl5 Rb0 3.594136 1_556
Cl5 Rb0 3.594136 1_555
