# generated using pymatgen
data_K2CuH12(SO7)2
_symmetry_space_group_name_H-M   'P 1'
_cell_length_a   12.32451700
_cell_length_b   6.18425500
_cell_length_c   9.13744752
_cell_angle_alpha   75.80575239
_cell_angle_beta   90.00000000
_cell_angle_gamma   90.00000000
_symmetry_Int_Tables_number   1
_chemical_formula_structural   K2CuH12(SO7)2
_chemical_formula_sum   'K4 Cu2 H24 S4 O28'
_cell_volume   675.17531402
_cell_formula_units_Z   2
loop_
 _symmetry_equiv_pos_site_id
 _symmetry_equiv_pos_as_xyz
  1  'x, y, z'
loop_
 _atom_site_type_symbol
 _atom_site_label
 _atom_site_symmetry_multiplicity
 _atom_site_fract_x
 _atom_site_fract_y
 _atom_site_fract_z
 _atom_site_occupancy
  K  K0  1  0.84969900  0.34584700  0.37557900  1
  K  K1  1  0.65030100  0.34584700  0.87557900  1
  K  K2  1  0.34969900  0.65415300  0.12442100  1
  K  K3  1  0.15030100  0.65415300  0.62442100  1
  Cu  Cu0  1  0.00000000  0.00000000  0.00000000  1
  Cu  Cu1  1  0.50000000  0.00000000  0.50000000  1
  H  H0  1  0.56078400  0.67360000  0.39862200  1
  H  H1  1  0.60667800  0.92548100  0.78960000  1
  H  H2  1  0.30460000  0.99547800  0.33643600  1
  H  H3  1  0.43921600  0.32640000  0.60137800  1
  H  H4  1  0.85823700  0.68484800  0.03423600  1
  H  H5  1  0.41065900  0.68169200  0.70343100  1
  H  H6  1  0.10667800  0.07451900  0.71040000  1
  H  H7  1  0.08934100  0.68169200  0.20343100  1
  H  H8  1  0.62390300  0.08458300  0.26105700  1
  H  H9  1  0.93921600  0.67360000  0.89862200  1
  H  H10  1  0.12390300  0.91541700  0.23894300  1
  H  H11  1  0.87609700  0.08458300  0.76105700  1
  H  H12  1  0.64176300  0.68484800  0.53423600  1
  H  H13  1  0.80460000  0.00452200  0.16356400  1
  H  H14  1  0.37609700  0.91541700  0.73894300  1
  H  H15  1  0.35823700  0.31515200  0.46576400  1
  H  H16  1  0.69540000  0.00452200  0.66356400  1
  H  H17  1  0.14176300  0.31515200  0.96576400  1
  H  H18  1  0.89332200  0.92548100  0.28960000  1
  H  H19  1  0.06078400  0.32640000  0.10137800  1
  H  H20  1  0.39332200  0.07451900  0.21040000  1
  H  H21  1  0.58934100  0.31830800  0.29656900  1
  H  H22  1  0.19540000  0.99547800  0.83643600  1
  H  H23  1  0.91065900  0.31830800  0.79656900  1
  S  S0  1  0.86179000  0.72340400  0.60277600  1
  S  S1  1  0.13821000  0.27659600  0.39722400  1
  S  S2  1  0.36179000  0.27659600  0.89722400  1
  S  S3  1  0.63821000  0.72340400  0.10277600  1
  O  O0  1  0.66706400  0.95089900  0.12099400  1
  O  O1  1  0.92260100  0.74056000  0.46025000  1
  O  O2  1  0.16706400  0.04910100  0.37900600  1
  O  O3  1  0.56458100  0.71052200  0.49929400  1
  O  O4  1  0.73898000  0.58813300  0.10372900  1
  O  O5  1  0.06778700  0.39454100  0.26764600  1
  O  O6  1  0.43541900  0.28947800  0.50070600  1
  O  O7  1  0.43221300  0.39454100  0.76764600  1
  O  O8  1  0.11236300  0.83836100  0.15641200  1
  O  O9  1  0.93541900  0.71052200  0.99929400  1
  O  O10  1  0.61236300  0.16163900  0.34358800  1
  O  O11  1  0.56778700  0.60545900  0.23235400  1
  O  O12  1  0.38763700  0.83836100  0.65641200  1
  O  O13  1  0.23898000  0.41186700  0.39627100  1
  O  O14  1  0.06458100  0.28947800  0.00070600  1
  O  O15  1  0.42260100  0.25944000  0.03975000  1
  O  O16  1  0.37764400  0.95871700  0.30452600  1
  O  O17  1  0.26102000  0.41186700  0.89627100  1
  O  O18  1  0.57739900  0.74056000  0.96025000  1
  O  O19  1  0.62235600  0.04128300  0.69547400  1
  O  O20  1  0.88763700  0.16163900  0.84358800  1
  O  O21  1  0.33293600  0.04910100  0.87900600  1
  O  O22  1  0.76102000  0.58813300  0.60372900  1
  O  O23  1  0.87764400  0.04128300  0.19547400  1
  O  O24  1  0.93221300  0.60545900  0.73235400  1
  O  O25  1  0.12235600  0.95871700  0.80452600  1
  O  O26  1  0.83293600  0.95089900  0.62099400  1
  O  O27  1  0.07739900  0.25944000  0.53975000  1
loop_
_geom_bond_atom_site_label_1
_geom_bond_atom_site_label_2
_geom_bond_distance
_geom_bond_site_symmetry_2
K0 O23 2.809745 1_555
K0 O5 2.853439 1_655
K0 O1 2.879329 1_555
K0 O26 2.889784 1_545
K0 O4 2.907252 1_555
K0 O22 3.052453 1_555
K0 O27 3.165124 1_655
K0 O10 3.178433 1_555
K1 O19 2.809745 1_555
K1 O7 2.853439 1_555
K1 O18 2.879329 1_555
K1 O0 2.889784 1_546
K1 O22 2.907252 1_555
K1 O4 3.052453 1_556
K1 O15 3.165124 1_556
K1 O20 3.178433 1_555
K2 O16 2.809745 1_555
K2 O11 2.853439 1_555
K2 O15 2.879329 1_555
K2 O21 2.889784 1_564
K2 O13 2.907252 1_555
K2 O17 3.052453 1_554
K2 O18 3.165124 1_554
K2 O8 3.178433 1_555
K3 O25 2.809745 1_555
K3 O24 2.853439 1_455
K3 O27 2.879329 1_555
K3 O2 2.889784 1_565
K3 O17 2.907252 1_555
K3 O13 3.052453 1_555
K3 O1 3.165124 1_455
K3 O12 3.178433 1_555
Cu0 O14 1.960624 1_555
Cu0 O9 1.960624 1_444
Cu0 O8 2.063722 1_545
Cu0 O20 2.063722 1_454
Cu0 O23 2.398560 1_455
Cu0 O25 2.398560 1_544
Cu1 O6 1.960624 1_555
Cu1 O3 1.960624 1_545
Cu1 O10 2.063722 1_555
Cu1 O12 2.063722 1_545
Cu1 O19 2.398560 1_555
Cu1 O16 2.398560 1_545
H0 O3 1.001761 1_555
H0 O11 1.675462 1_555
H1 O19 0.993911 1_565
H1 K1 2.943817 1_565
H2 O16 0.989760 1_555
H3 O6 1.001761 1_555
H3 O7 1.675462 1_555
H4 O9 1.003558 1_554
H4 O4 1.653770 1_555
H5 O12 0.999838 1_555
H5 O7 1.748533 1_555
H6 O25 0.993911 1_545
H6 K3 2.943817 1_545
H7 O8 0.999838 1_555
H7 O5 1.748533 1_555
H8 O10 0.996119 1_555
H9 O9 1.001761 1_555
H9 O24 1.675462 1_555
H10 O8 0.996119 1_555
H11 O20 0.996119 1_555
H12 O3 1.003558 1_555
H12 O22 1.653770 1_555
H13 O23 0.989760 1_555
H14 O12 0.996119 1_555
H15 O6 1.003558 1_555
H15 O13 1.653770 1_555
H16 O19 0.989760 1_555
H17 O14 1.003558 1_556
H17 O17 1.653770 1_555
H18 O23 0.993911 1_565
H18 K0 2.943817 1_565
H19 O14 1.001761 1_555
H19 O5 1.675462 1_555
H20 O16 0.993911 1_545
H20 K2 2.943817 1_545
H21 O10 0.999838 1_555
H21 O11 1.748533 1_555
H22 O25 0.989760 1_555
H23 O20 0.999838 1_555
H23 O24 1.748533 1_555
O0 S3 1.499452 1_555
O1 S0 1.483658 1_555
O2 S1 1.499452 1_555
O4 S3 1.496242 1_555
O5 S1 1.504552 1_555
O7 S2 1.504552 1_555
O11 S3 1.504552 1_555
O13 S1 1.496242 1_555
O15 S2 1.483658 1_554
O17 S2 1.496242 1_555
O18 S3 1.483658 1_556
O21 S2 1.499452 1_555
O22 S0 1.496242 1_555
O24 S0 1.504552 1_555
O26 S0 1.499452 1_555
O27 S1 1.483658 1_555
