# generated using pymatgen
data_Mn2ZnO4
_symmetry_space_group_name_H-M   'P 1'
_cell_length_a   5.84588742
_cell_length_b   5.85192054
_cell_length_c   6.13048522
_cell_angle_alpha   118.45213065
_cell_angle_beta   118.03155188
_cell_angle_gamma   90.24807377
_symmetry_Int_Tables_number   1
_chemical_formula_structural   Mn2ZnO4
_chemical_formula_sum   'Mn4 Zn2 O8'
_cell_volume   155.56245862
_cell_formula_units_Z   2
loop_
 _symmetry_equiv_pos_site_id
 _symmetry_equiv_pos_as_xyz
  1  'x, y, z'
loop_
 _atom_site_type_symbol
 _atom_site_label
 _atom_site_symmetry_multiplicity
 _atom_site_fract_x
 _atom_site_fract_y
 _atom_site_fract_z
 _atom_site_occupancy
  Mn  Mn0  1  0.99994500  0.00002900  0.99997400  1
  Mn  Mn1  1  0.49997700  0.00006100  0.49999100  1
  Mn  Mn2  1  0.99998600  0.99988500  0.50000400  1
  Mn  Mn3  1  0.00002500  0.50008700  0.00004400  1
  Zn  Zn0  1  0.62109200  0.37143200  0.24575100  1
  Zn  Zn1  1  0.37891700  0.62860900  0.75422700  1
  O  O0  1  0.75135500  0.77667700  0.50618800  1
  O  O1  1  0.77675400  0.24615500  0.99442200  1
  O  O2  1  0.20992100  0.22808000  0.95595000  1
  O  O3  1  0.24872100  0.22330600  0.49386600  1
  O  O4  1  0.24918900  0.76793700  0.49108500  1
  O  O5  1  0.22324100  0.75380000  0.00551500  1
  O  O6  1  0.75078400  0.23207600  0.50895400  1
  O  O7  1  0.79009400  0.77186600  0.04403000  1
loop_
_geom_bond_atom_site_label_1
_geom_bond_atom_site_label_2
_geom_bond_distance
_geom_bond_site_symmetry_2
Mn0 O1 1.949171 1_555
Mn0 O5 1.950027 1_646
Mn0 O2 2.000241 1_655
Mn0 O7 2.000371 1_546
Mn0 O0 2.250009 1_545
Mn0 O3 2.250546 1_656
Mn1 O6 1.957581 1_555
Mn1 O4 1.958160 1_545
Mn1 O3 1.969024 1_555
Mn1 O0 1.970095 1_545
Mn1 O1 2.256169 1_555
Mn1 O5 2.256338 1_545
Mn2 O0 1.975523 1_555
Mn2 O3 1.976614 1_665
Mn2 O4 1.997234 1_655
Mn2 O6 1.998191 1_565
Mn2 O2 2.075401 1_665
Mn2 O7 2.075544 1_555
Mn3 O5 1.950096 1_555
Mn3 O1 1.950658 1_454
Mn3 O7 2.006883 1_455
Mn3 O2 2.007750 1_554
Mn3 O4 2.236833 1_555
Mn3 O6 2.237105 1_454
O0 Zn0 1.996672 1_555
O1 Zn0 1.996697 1_556
O2 Zn0 2.046048 1_556
O3 Zn1 1.996920 1_555
O4 Zn1 1.987716 1_555
O5 Zn1 1.996560 1_554
O6 Zn0 1.988156 1_555
O7 Zn1 2.046081 1_554
