# generated using pymatgen
data_Na6Ti7Zn(PO4)12
_symmetry_space_group_name_H-M   'P 1'
_cell_length_a   17.33945259
_cell_length_b   8.67397743
_cell_length_c   22.24973441
_cell_angle_alpha   90.01947004
_cell_angle_beta   89.98763869
_cell_angle_gamma   120.00067798
_symmetry_Int_Tables_number   1
_chemical_formula_structural   Na6Ti7Zn(PO4)12
_chemical_formula_sum   'Na18 Ti21 Zn3 P36 O144'
_cell_volume   2898.05177784
_cell_formula_units_Z   3
loop_
 _symmetry_equiv_pos_site_id
 _symmetry_equiv_pos_as_xyz
  1  'x, y, z'
loop_
 _atom_site_type_symbol
 _atom_site_label
 _atom_site_symmetry_multiplicity
 _atom_site_fract_x
 _atom_site_fract_y
 _atom_site_fract_z
 _atom_site_occupancy
  Na  Na0  1  0.68559904  0.36627526  0.24795804  1
  Na  Na1  1  0.99719843  0.62848143  0.24793294  1
  Na  Na2  1  0.99632458  0.36454436  0.74669141  1
  Na  Na3  1  0.49642318  0.36463148  0.74675850  1
  Na  Na4  1  0.18524181  0.00461895  0.74672751  1
  Na  Na5  1  0.68525913  0.00466347  0.74681935  1
  Na  Na6  1  0.00005489  0.99964958  0.49957962  1
  Na  Na7  1  0.50010544  0.00033440  0.49967859  1
  Na  Na8  1  0.99966723  0.99927962  0.00054830  1
  Na  Na9  1  0.50050565  0.00122941  0.00040402  1
  Na  Na10  1  0.33311049  0.34031549  0.83287185  1
  Na  Na11  1  0.83292676  0.34009338  0.83349441  1
  Na  Na12  1  0.33322224  0.33338746  0.33428853  1
  Na  Na13  1  0.83319311  0.32539787  0.33341927  1
  Na  Na14  1  0.16921846  0.66641578  0.16612102  1
  Na  Na15  1  0.66750166  0.67448399  0.16574094  1
  Na  Na16  1  0.17001456  0.66565392  0.66318230  1
  Na  Na17  1  0.66999291  0.66570806  0.66334092  1
  Ti  Ti0  1  0.00098988  0.00314949  0.35437669  1
  Ti  Ti1  1  0.49908136  0.99860633  0.35447653  1
  Ti  Ti2  1  0.99996664  0.99863858  0.85432358  1
  Ti  Ti3  1  0.50047071  0.99894737  0.85436044  1
  Ti  Ti4  1  0.99890359  0.99872845  0.64264456  1
  Ti  Ti5  1  0.49899100  0.99847363  0.64268759  1
  Ti  Ti6  1  0.99816481  0.00080516  0.14540614  1
  Ti  Ti7  1  0.50093184  0.99890369  0.14583695  1
  Ti  Ti8  1  0.33316308  0.33482849  0.18647714  1
  Ti  Ti9  1  0.33362857  0.33264243  0.98035397  1
  Ti  Ti10  1  0.83331574  0.33210892  0.98228610  1
  Ti  Ti11  1  0.33332988  0.33377963  0.48175041  1
  Ti  Ti12  1  0.83358202  0.33510635  0.48133681  1
  Ti  Ti13  1  0.16556105  0.66643804  0.02102649  1
  Ti  Ti14  1  0.66754555  0.66658907  0.02105622  1
  Ti  Ti15  1  0.16659161  0.66711512  0.52022065  1
  Ti  Ti16  1  0.66679043  0.66656408  0.52039572  1
  Ti  Ti17  1  0.17013274  0.66593893  0.31472328  1
  Ti  Ti18  1  0.66595217  0.67353283  0.31550590  1
  Ti  Ti19  1  0.16933689  0.66547874  0.81584857  1
  Ti  Ti20  1  0.66927086  0.66597635  0.81608354  1
  Zn  Zn0  1  0.33306923  0.33932331  0.68166866  1
  Zn  Zn1  1  0.83300400  0.33915965  0.68166380  1
  Zn  Zn2  1  0.83324619  0.32593423  0.18277951  1
  P  P0  1  0.14482553  0.00273818  0.24979199  1
  P  P1  1  0.64324597  0.99659198  0.25070548  1
  P  P2  1  0.35674486  0.71315608  0.24976694  1
  P  P3  1  0.85524887  0.71564980  0.25074852  1
  P  P4  1  0.00042770  0.28714462  0.25064672  1
  P  P5  1  0.49837358  0.28679827  0.25010285  1
  P  P6  1  0.14455772  0.28908361  0.75034166  1
  P  P7  1  0.64464711  0.28942098  0.75027613  1
  P  P8  1  0.99830722  0.71109962  0.75048914  1
  P  P9  1  0.49829950  0.71106112  0.75047079  1
  P  P10  1  0.35591723  0.99552307  0.75040618  1
  P  P11  1  0.85579033  0.99543202  0.75034205  1
  P  P12  1  0.47887886  0.33491447  0.58405481  1
  P  P13  1  0.97885499  0.33509668  0.58399347  1
  P  P14  1  0.18874594  0.04245850  0.58421081  1
  P  P15  1  0.68885966  0.04255483  0.58408241  1
  P  P16  1  0.33218671  0.62189330  0.58347763  1
  P  P17  1  0.83228530  0.62191801  0.58352899  1
  P  P18  1  0.47723885  0.62092760  0.08325318  1
  P  P19  1  0.97858818  0.62453694  0.08399981  1
  P  P20  1  0.33348518  0.04561432  0.08355908  1
  P  P21  1  0.83292324  0.04254365  0.08329631  1
  P  P22  1  0.18938407  0.33338014  0.08320228  1
  P  P23  1  0.68806093  0.33339544  0.08411404  1
  P  P24  1  0.31143703  0.66655048  0.91806965  1
  P  P25  1  0.81162408  0.66550017  0.91773704  1
  P  P26  1  0.02171707  0.37755409  0.91705996  1
  P  P27  1  0.52213066  0.37782791  0.91708088  1
  P  P28  1  0.16702468  0.95595406  0.91702284  1
  P  P29  1  0.66722692  0.95629971  0.91732281  1
  P  P30  1  0.31078283  0.95609544  0.41707479  1
  P  P31  1  0.81126806  0.95660178  0.41738302  1
  P  P32  1  0.16725838  0.37809647  0.41744897  1
  P  P33  1  0.66692582  0.37840896  0.41635568  1
  P  P34  1  0.02238751  0.66620763  0.41634682  1
  P  P35  1  0.52165969  0.66581029  0.41741752  1
  O  O0  1  0.10131225  0.03079085  0.30620860  1
  O  O1  1  0.59648090  0.02613692  0.30576146  1
  O  O2  1  0.41451066  0.79891105  0.30608804  1
  O  O3  1  0.91647557  0.80584367  0.30577999  1
  O  O4  1  0.48421211  0.17015007  0.30610703  1
  O  O5  1  0.98877858  0.17013974  0.30638798  1
  O  O6  1  0.09776772  0.16926506  0.80625222  1
  O  O7  1  0.59775290  0.16928274  0.80620312  1
  O  O8  1  0.48801246  0.80566140  0.80673240  1
  O  O9  1  0.98806579  0.80576895  0.80675176  1
  O  O10  1  0.41585858  0.02609367  0.80615555  1
  O  O11  1  0.91586106  0.02614792  0.80608663  1
  O  O12  1  0.39933789  0.96704350  0.69407610  1
  O  O13  1  0.89943498  0.96709017  0.69407697  1
  O  O14  1  0.08342309  0.20416053  0.69481301  1
  O  O15  1  0.58339674  0.20402866  0.69479275  1
  O  O16  1  0.01799435  0.83395003  0.69506413  1
  O  O17  1  0.51786649  0.83381725  0.69504293  1
  O  O18  1  0.39986729  0.83054285  0.19367603  1
  O  O19  1  0.89967596  0.83117653  0.19417112  1
  O  O20  1  0.01546886  0.19960649  0.19430820  1
  O  O21  1  0.51682523  0.20145076  0.19447766  1
  O  O22  1  0.08396661  0.96567532  0.19425459  1
  O  O23  1  0.58438380  0.96828919  0.19420124  1
  O  O24  1  0.44488145  0.37004419  0.64229286  1
  O  O25  1  0.94487000  0.36995767  0.64230753  1
  O  O26  1  0.24086312  0.10999968  0.64229400  1
  O  O27  1  0.74077790  0.10976249  0.64227758  1
  O  O28  1  0.31319033  0.51427535  0.63995188  1
  O  O29  1  0.81313077  0.51426983  0.63999811  1
  O  O30  1  0.43330646  0.50314614  0.13925732  1
  O  O31  1  0.94485323  0.51893962  0.14201877  1
  O  O32  1  0.31821018  0.13388933  0.13933263  1
  O  O33  1  0.81289000  0.11250839  0.13976701  1
  O  O34  1  0.24851827  0.36417506  0.13927916  1
  O  O35  1  0.74104129  0.37154359  0.14207590  1
  O  O36  1  0.23358260  0.30346502  0.02723333  1
  O  O37  1  0.73332776  0.30317363  0.02829966  1
  O  O38  1  0.41818305  0.53319560  0.02719987  1
  O  O39  1  0.91853853  0.53302621  0.02816952  1
  O  O40  1  0.34834253  0.16341121  0.02731405  1
  O  O41  1  0.84849279  0.16199644  0.02695347  1
  O  O42  1  0.23350040  0.16373990  0.52844958  1
  O  O43  1  0.73356519  0.16388569  0.52838198  1
  O  O44  1  0.34862833  0.53475203  0.52706956  1
  O  O45  1  0.84864221  0.53503150  0.52707048  1
  O  O46  1  0.41835966  0.30374421  0.52832806  1
  O  O47  1  0.91830730  0.30363267  0.52829885  1
  O  O48  1  0.26689068  0.69701665  0.97283388  1
  O  O49  1  0.76712442  0.69686873  0.97234276  1
  O  O50  1  0.08222830  0.46754414  0.97200055  1
  O  O51  1  0.58159850  0.46719144  0.97182566  1
  O  O52  1  0.15230159  0.83667960  0.97194511  1
  O  O53  1  0.65140890  0.83591670  0.97200573  1
  O  O54  1  0.26740027  0.83746659  0.47216521  1
  O  O55  1  0.76735256  0.83744848  0.47219325  1
  O  O56  1  0.15149366  0.46537584  0.47240563  1
  O  O57  1  0.65145583  0.46643087  0.47142687  1
  O  O58  1  0.08171845  0.69666964  0.47153590  1
  O  O59  1  0.58122832  0.69760600  0.47230165  1
  O  O60  1  0.06492026  0.63663088  0.35875875  1
  O  O61  1  0.56631605  0.63678751  0.36077375  1
  O  O62  1  0.25193494  0.86658147  0.36047007  1
  O  O63  1  0.75172292  0.86677541  0.36073111  1
  O  O64  1  0.18173698  0.49611953  0.36077964  1
  O  O65  1  0.68143063  0.49246276  0.35867633  1
  O  O66  1  0.06512289  0.49316985  0.85947527  1
  O  O67  1  0.56448595  0.49264319  0.85928877  1
  O  O68  1  0.18182949  0.87072704  0.85935852  1
  O  O69  1  0.68142958  0.87000751  0.85943124  1
  O  O70  1  0.25198907  0.63685765  0.86123159  1
  O  O71  1  0.75199038  0.63714680  0.86101681  1
  O  O72  1  0.01290690  0.83342745  0.40876585  1
  O  O73  1  0.51268542  0.83316015  0.40881407  1
  O  O74  1  0.40360401  0.97399962  0.40874953  1
  O  O75  1  0.90378608  0.97425809  0.40879316  1
  O  O76  1  0.08364964  0.19263561  0.40930272  1
  O  O77  1  0.58310700  0.19183670  0.40857491  1
  O  O78  1  0.01316350  0.19272822  0.90932867  1
  O  O79  1  0.51255693  0.19222053  0.90918250  1
  O  O80  1  0.08357531  0.97446867  0.90963523  1
  O  O81  1  0.58341725  0.97448421  0.90943567  1
  O  O82  1  0.40358951  0.83316913  0.90941467  1
  O  O83  1  0.90361255  0.83340120  0.90916389  1
  O  O84  1  0.48835071  0.16537024  0.58924293  1
  O  O85  1  0.98837214  0.16541803  0.58932169  1
  O  O86  1  0.09458065  0.02392145  0.58980485  1
  O  O87  1  0.59457182  0.02381261  0.58984400  1
  O  O88  1  0.41734472  0.81045119  0.58945501  1
  O  O89  1  0.91731984  0.81049879  0.58947317  1
  O  O90  1  0.48629054  0.80662949  0.09056395  1
  O  O91  1  0.98904381  0.81254251  0.08902253  1
  O  O92  1  0.41676308  0.02644464  0.09102815  1
  O  O93  1  0.91746725  0.02376093  0.08885495  1
  O  O94  1  0.09670618  0.16718277  0.09080114  1
  O  O95  1  0.59394656  0.16431806  0.08943449  1
  O  O96  1  0.34525647  0.16011739  0.74741037  1
  O  O97  1  0.84533907  0.16021586  0.74738252  1
  O  O98  1  0.23522293  0.30410680  0.74725136  1
  O  O99  1  0.73519885  0.30404490  0.74719653  1
  O  O100  1  0.41900303  0.52463331  0.74754654  1
  O  O101  1  0.91903994  0.52472383  0.74754739  1
  O  O102  1  0.34647280  0.52644731  0.24205578  1
  O  O103  1  0.84569220  0.53016397  0.24702992  1
  O  O104  1  0.41600569  0.30782750  0.24241079  1
  O  O105  1  0.91972097  0.31266884  0.24735788  1
  O  O106  1  0.23782171  0.16816791  0.24227865  1
  O  O107  1  0.73403138  0.16497821  0.24699540  1
  O  O108  1  0.32002437  0.49896246  0.92394619  1
  O  O109  1  0.82020984  0.49866789  0.92363545  1
  O  O110  1  0.42917135  0.35943057  0.92393548  1
  O  O111  1  0.92943155  0.36005168  0.92370670  1
  O  O112  1  0.25050385  0.14159865  0.92391388  1
  O  O113  1  0.75043548  0.14164079  0.92370153  1
  O  O114  1  0.32036089  0.14158259  0.42375040  1
  O  O115  1  0.82024185  0.14154311  0.42375081  1
  O  O116  1  0.25052862  0.35906028  0.42373449  1
  O  O117  1  0.75011278  0.35854368  0.42372394  1
  O  O118  1  0.42910819  0.49880103  0.42367633  1
  O  O119  1  0.92935700  0.49921444  0.42382279  1
  O  O120  1  0.18010071  0.50063458  0.07581749  1
  O  O121  1  0.67604682  0.49726390  0.07274648  1
  O  O122  1  0.07265849  0.64658057  0.07257246  1
  O  O123  1  0.57019944  0.64107553  0.07602950  1
  O  O124  1  0.25014009  0.85984516  0.07576031  1
  O  O125  1  0.75105219  0.85391762  0.07242576  1
  O  O126  1  0.17618011  0.85455442  0.57319182  1
  O  O127  1  0.67618278  0.85440872  0.57313484  1
  O  O128  1  0.25123244  0.64877488  0.57268522  1
  O  O129  1  0.75125274  0.64869015  0.57272253  1
  O  O130  1  0.07286913  0.49818561  0.57326416  1
  O  O131  1  0.57282234  0.49804777  0.57317641  1
  O  O132  1  0.15205845  0.83169421  0.25690352  1
  O  O133  1  0.65057684  0.82707648  0.25753827  1
  O  O134  1  0.26326100  0.69329001  0.25722890  1
  O  O135  1  0.76100991  0.69295285  0.25702088  1
  O  O136  1  0.08513806  0.47593961  0.25718774  1
  O  O137  1  0.58409350  0.47153522  0.25704577  1
  O  O138  1  0.14983594  0.47322210  0.75793418  1
  O  O139  1  0.64978147  0.47326235  0.75788214  1
  O  O140  1  0.08527905  0.69700744  0.75752149  1
  O  O141  1  0.58523253  0.69697124  0.75738142  1
  O  O142  1  0.26126850  0.82894538  0.75753601  1
  O  O143  1  0.76123174  0.82890487  0.75743111  1
loop_
_geom_bond_atom_site_label_1
_geom_bond_atom_site_label_2
_geom_bond_distance
_geom_bond_site_symmetry_2
Na0 O107 2.284884 1_555
Na0 O137 2.361989 1_555
Na0 O103 2.404330 1_555
Na0 O135 2.464585 1_555
Na0 O35 2.536031 1_555
Na0 O65 2.710915 1_555
Na0 O21 2.800066 1_555
Na0 O1 2.861652 1_555
Na1 O103 2.321338 1_555
Na1 O132 2.371469 1_655
Na1 O105 2.372508 1_555
Na1 O136 2.477121 1_655
Na1 O31 2.533176 1_555
Na1 O60 2.717056 1_655
Na1 O22 2.800999 1_655
Na1 O3 2.851973 1_555
Na2 O97 2.314150 1_555
Na2 O138 2.351015 1_655
Na2 O101 2.363995 1_555
Na2 O25 2.497028 1_555
Na2 O140 2.510955 1_655
Na2 O66 2.762863 1_655
Na2 O14 2.765452 1_655
Na2 O11 2.866213 1_555
Na3 O96 2.316818 1_555
Na3 O139 2.348328 1_555
Na3 O100 2.364664 1_555
Na3 O24 2.499273 1_555
Na3 O141 2.509518 1_555
Na3 O67 2.753818 1_555
Na3 O15 2.766010 1_555
Na3 O10 2.867145 1_555
Na4 O98 2.290879 1_555
Na4 O140 2.357270 1_545
Na4 O96 2.403186 1_555
Na4 O142 2.475229 1_545
Na4 O26 2.506744 1_555
Na4 O68 2.750559 1_545
Na4 O16 2.762222 1_545
Na4 O6 2.873708 1_555
Na5 O99 2.290129 1_555
Na5 O141 2.357472 1_545
Na5 O97 2.404153 1_555
Na5 O143 2.474668 1_545
Na5 O27 2.508197 1_555
Na5 O69 2.751536 1_545
Na5 O17 2.765254 1_545
Na5 O7 2.872520 1_555
Na6 O85 2.526781 1_465
Na6 O89 2.529339 1_455
Na6 O86 2.533138 1_565
Na6 O76 2.551934 1_565
Na6 O72 2.555456 1_555
Na6 O75 2.559042 1_455
Na7 O84 2.520244 1_555
Na7 O88 2.529716 1_545
Na7 O87 2.533125 1_555
Na7 O77 2.559241 1_555
Na7 O73 2.559632 1_545
Na7 O74 2.562049 1_545
Na8 O91 2.497253 1_555
Na8 O93 2.497638 1_565
Na8 O94 2.556088 1_665
Na8 O80 2.562489 1_654
Na8 O83 2.565436 1_554
Na8 O78 2.568871 1_664
Na9 O95 2.501536 1_555
Na9 O90 2.553458 1_545
Na9 O92 2.556958 1_555
Na9 O81 2.559149 1_544
Na9 O79 2.561948 1_554
Na9 O82 2.568518 1_544
Na10 O100 2.449089 1_555
Na10 O98 2.465071 1_555
Na10 O108 2.522204 1_555
Na10 O96 2.535766 1_555
Na10 O110 2.575298 1_555
Na10 O112 2.580336 1_555
Na11 O101 2.461845 1_555
Na11 O99 2.475317 1_555
Na11 O109 2.502853 1_555
Na11 O97 2.546613 1_555
Na11 O111 2.563281 1_555
Na11 O113 2.564432 1_555
Na12 O116 2.526661 1_555
Na12 O118 2.528316 1_555
Na12 O114 2.531955 1_555
Na12 O104 2.570066 1_555
Na12 O106 2.570982 1_555
Na12 O102 2.585686 1_555
Na13 O105 2.468629 1_555
Na13 O107 2.489416 1_555
Na13 O115 2.505398 1_555
Na13 O103 2.552146 1_555
Na13 O119 2.566078 1_555
Na13 O117 2.570513 1_555
Na14 O120 2.531722 1_555
Na14 O134 2.538419 1_555
Na14 O124 2.544164 1_555
Na14 O136 2.559875 1_555
Na14 O132 2.578390 1_555
Na14 O122 2.622674 1_555
Na15 O133 2.529033 1_555
Na15 O123 2.535130 1_555
Na15 O135 2.553580 1_555
Na15 O125 2.564762 1_555
Na15 O137 2.602451 1_555
Na15 O121 2.625187 1_555
Na16 O128 2.502751 1_555
Na16 O130 2.550030 1_555
Na16 O126 2.555817 1_555
Na16 O142 2.583656 1_555
Na16 O138 2.602125 1_555
Na16 O140 2.652635 1_555
Na17 O129 2.505761 1_555
Na17 O131 2.554894 1_555
Na17 O127 2.558387 1_555
Na17 O143 2.578607 1_555
Na17 O139 2.598291 1_555
Na17 O141 2.647344 1_555
O0 P0 1.545029 1_555
O0 Ti0 1.953038 1_555
O1 P1 1.559150 1_545
O1 Ti1 1.918377 1_545
O2 P2 1.543285 1_555
O2 Ti1 1.941433 1_555
O3 P3 1.551678 1_555
O3 Ti0 1.933132 1_665
O4 P5 1.545646 1_555
O4 Ti1 1.955401 1_545
O5 P4 1.550718 1_655
O5 Ti0 1.894943 1_655
O6 P6 1.563051 1_555
O6 Ti2 1.923703 1_445
O7 P7 1.564805 1_555
O7 Ti3 1.919480 1_545
O8 P9 1.554904 1_555
O8 Ti3 1.901898 1_555
O9 P8 1.554974 1_555
O9 Ti2 1.901404 1_555
O10 P10 1.553673 1_545
O10 Ti3 1.924729 1_545
O11 P11 1.554692 1_545
O11 Ti2 1.919487 1_545
O12 P10 1.544045 1_555
O12 Ti5 1.973743 1_555
O13 P11 1.544598 1_555
O13 Ti4 1.971192 1_555
O14 P6 1.553008 1_555
O14 Ti4 2.014476 1_445
O15 P7 1.553646 1_555
O15 Ti5 2.013660 1_545
O16 P8 1.552335 1_455
O16 Ti4 1.996790 1_455
O17 P9 1.552172 1_555
O17 Ti5 1.993156 1_555
O18 P2 1.546761 1_555
O18 Ti7 1.943602 1_555
O19 P3 1.552650 1_555
O19 Ti6 1.935472 1_565
O20 P4 1.553420 1_555
O20 Ti6 1.931038 1_455
O21 P5 1.555070 1_555
O21 Ti7 1.961762 1_545
O22 P0 1.550774 1_565
O22 Ti6 1.985402 1_465
O23 P1 1.559586 1_555
O23 Ti7 1.925477 1_555
O24 P12 1.516061 1_555
O24 Zn0 2.019938 1_555
O25 P13 1.516482 1_555
O25 Zn1 2.020351 1_555
O26 P14 1.516757 1_555
O26 Zn0 2.024720 1_555
O27 P15 1.517241 1_555
O27 Zn1 2.025309 1_555
O28 P16 1.500632 1_555
O28 Zn0 1.951262 1_555
O29 P17 1.500421 1_555
O29 Zn1 1.951854 1_555
O30 P18 1.548846 1_555
O30 Ti8 1.927591 1_555
O31 P19 1.520608 1_555
O31 Zn2 2.032398 1_555
O32 P20 1.548679 1_555
O32 Ti8 1.937095 1_555
O33 P21 1.509221 1_555
O33 Zn2 1.952715 1_555
O34 P22 1.551090 1_555
O34 Ti8 1.922546 1_555
O35 P23 1.520792 1_555
O35 Zn2 2.041125 1_555
O36 P22 1.550374 1_555
O36 Ti9 1.929170 1_554
O37 P23 1.559524 1_555
O37 Ti10 1.918656 1_554
O38 P18 1.550402 1_555
O38 Ti9 1.926404 1_554
O39 P19 1.559064 1_555
O39 Ti10 1.920195 1_554
O40 P20 1.553695 1_555
O40 Ti9 1.920216 1_554
O41 P21 1.561731 1_555
O41 Ti10 1.903588 1_554
O42 P14 1.559567 1_555
O42 Ti11 1.923140 1_555
O43 P15 1.558538 1_555
O43 Ti12 1.932241 1_555
O44 P16 1.562844 1_555
O44 Ti11 1.913754 1_555
O45 P17 1.561856 1_555
O45 Ti12 1.912314 1_555
O46 P12 1.558285 1_555
O46 Ti11 1.923696 1_555
O47 P13 1.557591 1_555
O47 Ti12 1.930411 1_555
O48 P24 1.534492 1_555
O48 Ti13 1.959724 1_556
O49 P25 1.534553 1_555
O49 Ti14 1.941885 1_556
O50 P26 1.544462 1_555
O50 Ti13 1.939224 1_556
O51 P27 1.532435 1_555
O51 Ti14 1.958058 1_556
O52 P28 1.537997 1_555
O52 Ti13 1.940799 1_556
O53 P29 1.536296 1_555
O53 Ti14 1.959273 1_556
O54 P30 1.534120 1_555
O54 Ti15 1.949198 1_555
O55 P31 1.532539 1_555
O55 Ti16 1.950230 1_555
O56 P32 1.532711 1_555
O56 Ti15 1.950176 1_555
O57 P33 1.536334 1_555
O57 Ti16 1.951559 1_555
O58 P34 1.537696 1_555
O58 Ti15 1.944995 1_555
O59 P35 1.532837 1_555
O59 Ti16 1.954226 1_555
O60 P34 1.562072 1_555
O60 Ti17 1.971895 1_555
O61 P35 1.563846 1_555
O61 Ti18 1.884030 1_555
O62 P30 1.561361 1_555
O62 Ti17 1.899369 1_555
O63 P31 1.567593 1_555
O63 Ti18 1.881632 1_555
O64 P32 1.563518 1_555
O64 Ti17 1.886225 1_555
O65 P33 1.562326 1_555
O65 Ti18 1.970813 1_555
O66 P26 1.568252 1_555
O66 Ti19 1.934106 1_555
O67 P27 1.566419 1_555
O67 Ti20 1.937581 1_555
O68 P28 1.564455 1_555
O68 Ti19 1.940854 1_555
O69 P29 1.569575 1_555
O69 Ti20 1.931974 1_555
O70 P24 1.569400 1_555
O70 Ti19 1.868620 1_555
O71 P25 1.571110 1_555
O71 Ti20 1.865143 1_555
O72 P34 1.548526 1_555
O72 Ti0 1.994979 1_565
O73 P35 1.547273 1_555
O73 Ti1 1.979036 1_555
O74 P30 1.548791 1_555
O74 Ti1 1.972428 1_555
O75 P31 1.545210 1_555
O75 Ti0 1.986564 1_665
O76 P32 1.546008 1_555
O76 Ti0 1.973020 1_555
O77 P33 1.552120 1_555
O77 Ti1 1.984478 1_545
O78 P26 1.543957 1_555
O78 Ti2 1.999478 1_445
O79 P27 1.543681 1_555
O79 Ti3 1.997406 1_545
O80 P28 1.542408 1_555
O80 Ti2 1.991256 1_455
O81 P29 1.548179 1_555
O81 Ti3 1.980237 1_555
O82 P24 1.539386 1_555
O82 Ti3 1.993700 1_555
O83 P25 1.542263 1_555
O83 Ti2 1.984966 1_555
O84 P12 1.563550 1_555
O84 Ti5 1.952470 1_545
O85 P13 1.565394 1_555
O85 Ti4 1.948524 1_545
O86 P14 1.563549 1_555
O86 Ti4 1.954224 1_445
O87 P15 1.565213 1_555
O87 Ti5 1.952558 1_545
O88 P16 1.567762 1_555
O88 Ti5 1.938395 1_555
O89 P17 1.566915 1_555
O89 Ti4 1.938085 1_555
O90 P18 1.546836 1_555
O90 Ti7 1.983358 1_555
O91 P19 1.552080 1_555
O91 Ti6 2.001475 1_565
O92 P20 1.542923 1_555
O92 Ti7 2.005938 1_545
O93 P21 1.558772 1_555
O93 Ti6 1.964763 1_555
O94 P22 1.540310 1_555
O94 Ti6 2.003168 1_455
O95 P23 1.560326 1_555
O95 Ti7 1.980139 1_545
O96 P10 1.529997 1_545
O96 Zn0 2.220510 1_555
O97 P11 1.529464 1_545
O97 Zn1 2.219615 1_555
O98 P6 1.512698 1_555
O98 Zn0 2.140559 1_555
O99 P7 1.512232 1_555
O99 Zn1 2.139510 1_555
O100 P9 1.512011 1_555
O100 Zn0 2.134616 1_555
O101 P8 1.511561 1_555
O101 Zn1 2.136164 1_555
O102 P2 1.547686 1_555
O102 Ti8 1.990017 1_555
O103 P3 1.534981 1_555
O103 Zn2 2.201014 1_555
O104 P5 1.537208 1_555
O104 Ti8 2.001107 1_555
O105 P4 1.524010 1_655
O105 Zn2 2.121234 1_555
O106 P0 1.540555 1_555
O106 Ti8 1.993663 1_555
O107 P1 1.522791 1_545
O107 Zn2 2.132742 1_555
O108 P24 1.539146 1_555
O108 Ti9 2.013391 1_555
O109 P25 1.532664 1_555
O109 Ti10 2.042434 1_555
O110 P27 1.545806 1_555
O110 Ti9 1.997156 1_555
O111 P26 1.537034 1_655
O111 Ti10 2.032339 1_555
O112 P28 1.542964 1_545
O112 Ti9 2.002824 1_555
O113 P29 1.538408 1_545
O113 Ti10 2.029500 1_555
O114 P30 1.539765 1_545
O114 Ti11 2.029519 1_555
O115 P31 1.538801 1_545
O115 Ti12 2.030856 1_555
O116 P32 1.539504 1_555
O116 Ti11 2.022745 1_555
O117 P33 1.544605 1_555
O117 Ti12 2.018526 1_555
O118 P35 1.539002 1_555
O118 Ti11 2.024763 1_555
O119 P34 1.546392 1_655
O119 Ti12 2.014458 1_555
O120 P22 1.546390 1_555
O120 Ti13 1.995492 1_555
O121 P23 1.556951 1_555
O121 Ti14 1.928554 1_555
O122 P19 1.565168 1_455
O122 Ti13 1.913586 1_555
O123 P18 1.540375 1_555
O123 Ti14 2.004967 1_555
O124 P20 1.544755 1_565
O124 Ti13 1.996810 1_555
O125 P21 1.558166 1_565
O125 Ti14 1.920892 1_555
O126 P14 1.551997 1_565
O126 Ti15 1.946423 1_555
O127 P15 1.553065 1_565
O127 Ti16 1.947229 1_555
O128 P16 1.552386 1_555
O128 Ti15 1.943250 1_555
O129 P17 1.553193 1_555
O129 Ti16 1.937086 1_555
O130 P13 1.552262 1_455
O130 Ti15 1.949348 1_555
O131 P12 1.552197 1_555
O131 Ti16 1.946574 1_555
O132 P0 1.558258 1_565
O132 Ti17 2.066981 1_555
O133 P1 1.545425 1_555
O133 Ti18 1.965894 1_555
O134 P2 1.550917 1_555
O134 Ti17 1.979013 1_555
O135 P3 1.551314 1_555
O135 Ti18 2.039606 1_555
O136 P4 1.566815 1_555
O136 Ti17 2.024185 1_555
O137 P5 1.555291 1_555
O137 Ti18 2.070924 1_555
O138 P6 1.562576 1_555
O138 Ti19 1.997647 1_555
O139 P7 1.561180 1_555
O139 Ti20 2.004791 1_555
O140 P8 1.580530 1_455
O140 Ti19 2.069541 1_555
O141 P9 1.579584 1_555
O141 Ti20 2.072292 1_555
O142 P10 1.560440 1_555
O142 Ti19 1.993712 1_555
O143 P11 1.559253 1_555
O143 Ti20 1.997421 1_555
