# generated using pymatgen
data_MgMn2(SbO3)4
_symmetry_space_group_name_H-M   'P 1'
_cell_length_a   9.33739740
_cell_length_b   6.16775584
_cell_length_c   6.19824513
_cell_angle_alpha   84.82605812
_cell_angle_beta   58.76900738
_cell_angle_gamma   60.03580724
_symmetry_Int_Tables_number   1
_chemical_formula_structural   MgMn2(SbO3)4
_chemical_formula_sum   'Mg1 Mn2 Sb4 O12'
_cell_volume   257.47905104
_cell_formula_units_Z   1
loop_
 _symmetry_equiv_pos_site_id
 _symmetry_equiv_pos_as_xyz
  1  'x, y, z'
loop_
 _atom_site_type_symbol
 _atom_site_label
 _atom_site_symmetry_multiplicity
 _atom_site_fract_x
 _atom_site_fract_y
 _atom_site_fract_z
 _atom_site_occupancy
  Mg  Mg0  1  0.02270019  0.49347644  0.97933733  1
  Mn  Mn0  1  0.16668165  0.58472634  0.41665161  1
  Mn  Mn1  1  0.49309316  0.56831559  0.45282445  1
  Sb  Sb0  1  0.00502840  0.99713176  0.00436369  1
  Sb  Sb1  1  0.34676765  0.99265460  0.99550667  1
  Sb  Sb2  1  0.65435337  0.00366003  0.03284920  1
  Sb  Sb3  1  0.83795048  0.41292759  0.58499054  1
  O  O0  1  0.87918835  0.64342926  0.77084404  1
  O  O1  1  0.20209117  0.11128526  0.80383688  1
  O  O2  1  0.14285477  0.88384458  0.20427681  1
  O  O3  1  0.18730753  0.66571756  0.74846703  1
  O  O4  1  0.46259785  0.33085813  0.28328302  1
  O  O5  1  0.47358105  0.85816603  0.20491624  1
  O  O6  1  0.54271881  0.09891548  0.81509550  1
  O  O7  1  0.82106667  0.35165936  0.22994562  1
  O  O8  1  0.53841049  0.65853539  0.73201683  1
  O  O9  1  0.81879402  0.86521479  0.19845774  1
  O  O10  1  0.85026301  0.12292479  0.82540180  1
  O  O11  1  0.13788440  0.35655703  0.21693498  1
loop_
_geom_bond_atom_site_label_1
_geom_bond_atom_site_label_2
_geom_bond_distance
_geom_bond_site_symmetry_2
Mg0 O1 2.043161 1_555
Mg0 O9 2.060589 1_456
Mg0 O11 2.132981 1_556
Mg0 O3 2.148205 1_555
Mg0 O0 2.159455 1_455
Mg0 O7 2.256088 1_456
Mn0 O4 2.076740 1_555
Mn0 O11 2.150005 1_555
Mn0 O2 2.154430 1_555
Mn0 O3 2.282253 1_555
Mn0 O0 2.284329 1_455
Mn1 O4 2.082028 1_555
Mn1 O8 2.156745 1_555
Mn1 O7 2.220486 1_555
Mn1 O3 2.220527 1_555
Mn1 O5 2.249398 1_555
O0 Sb2 2.106446 1_566
O0 Sb3 2.190580 1_555
O1 Sb0 2.047203 1_546
O1 Sb1 2.071661 1_545
O2 Sb0 2.068588 1_555
O2 Sb1 2.077259 1_554
O3 Sb0 1.975074 1_556
O4 Sb2 1.939448 1_555
O5 Sb1 2.047765 1_554
O5 Sb2 2.065321 1_565
O6 Sb2 1.989355 1_556
O6 Sb1 1.992912 1_545
O7 Sb0 1.998965 1_645
O7 Sb3 2.362160 1_555
O8 Sb1 2.002239 1_555
O8 Sb3 2.078840 1_555
O9 Sb0 2.049545 1_655
O9 Sb2 2.075336 1_565
O10 Sb2 2.067649 1_556
O10 Sb0 2.075519 1_646
O10 Sb3 2.219131 1_555
O11 Sb1 2.032786 1_544
O11 Sb3 2.390335 1_455
