# generated using pymatgen
data_Na4HfMg3SiS5O24
_symmetry_space_group_name_H-M   'P 1'
_cell_length_a   8.84443287
_cell_length_b   8.85745296
_cell_length_c   22.63766820
_cell_angle_alpha   89.97478065
_cell_angle_beta   90.22925746
_cell_angle_gamma   120.09927846
_symmetry_Int_Tables_number   1
_chemical_formula_structural   Na4HfMg3SiS5O24
_chemical_formula_sum   'Na12 Hf3 Mg9 Si3 S15 O72'
_cell_volume   1534.26946390
_cell_formula_units_Z   3
loop_
 _symmetry_equiv_pos_site_id
 _symmetry_equiv_pos_as_xyz
  1  'x, y, z'
loop_
 _atom_site_type_symbol
 _atom_site_label
 _atom_site_symmetry_multiplicity
 _atom_site_fract_x
 _atom_site_fract_y
 _atom_site_fract_z
 _atom_site_occupancy
  Na  Na0  1  0.36246537  0.36285199  0.24981419  1
  Na  Na1  1  0.31691032  0.34469355  0.58810046  1
  Na  Na2  1  0.02195246  0.69722577  0.58283533  1
  Na  Na3  1  0.99078785  0.67674308  0.91779538  1
  Na  Na4  1  0.69923767  0.03087302  0.91119758  1
  Na  Na5  1  0.30888215  0.28725511  0.91821214  1
  Na  Na6  1  0.97113284  0.98331094  0.49891033  1
  Na  Na7  1  0.01563073  0.01311047  0.00168550  1
  Na  Na8  1  0.66648927  0.32339464  0.82593602  1
  Na  Na9  1  0.67946989  0.32858322  0.32853813  1
  Na  Na10  1  0.33095250  0.67757371  0.16601873  1
  Na  Na11  1  0.36534159  0.67808333  0.66199925  1
  Hf  Hf0  1  0.66736798  0.32615282  0.98453315  1
  Hf  Hf1  1  0.66985615  0.34318870  0.48003496  1
  Hf  Hf2  1  0.32453210  0.67042952  0.81434351  1
  Mg  Mg0  1  0.99510687  0.99642294  0.34944194  1
  Mg  Mg1  1  0.00603345  0.00748322  0.84935088  1
  Mg  Mg2  1  0.98367343  0.99176591  0.64886492  1
  Mg  Mg3  1  0.99754109  0.99645910  0.15065727  1
  Mg  Mg4  1  0.66181281  0.33751634  0.68406468  1
  Mg  Mg5  1  0.67357363  0.33281857  0.18480956  1
  Mg  Mg6  1  0.31805664  0.66095369  0.01881472  1
  Mg  Mg7  1  0.35049419  0.67484778  0.51548539  1
  Mg  Mg8  1  0.33477156  0.67635509  0.31554975  1
  Si  Si0  1  0.66473255  0.63412046  0.58628387  1
  Si  Si1  1  0.04239280  0.37017901  0.91913098  1
  Si  Si2  1  0.32885618  0.95779101  0.91893966  1
  S  S0  1  0.29191796  0.99941528  0.24980870  1
  S  S1  1  0.70529110  0.70541030  0.24990809  1
  S  S2  1  0.00011397  0.29243808  0.25034762  1
  S  S3  1  0.29663931  0.29283618  0.74908429  1
  S  S4  1  0.99504955  0.70525625  0.74927502  1
  S  S5  1  0.70705790  0.00306653  0.75007652  1
  S  S6  1  0.95806608  0.33244787  0.58441538  1
  S  S7  1  0.37680264  0.04025506  0.58463949  1
  S  S8  1  0.96186224  0.63131832  0.08619381  1
  S  S9  1  0.66683532  0.03303999  0.08620999  1
  S  S10  1  0.37057830  0.33603007  0.08652880  1
  S  S11  1  0.62229822  0.66705596  0.91823208  1
  S  S12  1  0.62887653  0.95912318  0.41526316  1
  S  S13  1  0.32646150  0.36925678  0.41544189  1
  S  S14  1  0.04626767  0.67108750  0.41689011  1
  O  O0  1  0.21088846  0.02980286  0.30247004  1
  O  O1  1  0.81074208  0.78626148  0.30331446  1
  O  O2  1  0.97574059  0.18661360  0.30363917  1
  O  O3  1  0.21053761  0.19383713  0.80317983  1
  O  O4  1  0.97870623  0.78791240  0.80367333  1
  O  O5  1  0.80284885  0.01877841  0.80577484  1
  O  O6  1  0.79325252  0.98170820  0.69842313  1
  O  O7  1  0.19128401  0.21222177  0.69527178  1
  O  O8  1  0.01963417  0.81030041  0.69611201  1
  O  O9  1  0.78599394  0.81018869  0.19672958  1
  O  O10  1  0.03002858  0.21131849  0.19761514  1
  O  O11  1  0.18628116  0.97582354  0.19629333  1
  O  O12  1  0.87437727  0.35570145  0.63635161  1
  O  O13  1  0.48579865  0.11502329  0.63691883  1
  O  O14  1  0.62684350  0.50086844  0.63985476  1
  O  O15  1  0.86691944  0.51846390  0.13584148  1
  O  O16  1  0.64535110  0.12588634  0.13582188  1
  O  O17  1  0.47797312  0.35148467  0.13862462  1
  O  O18  1  0.45931556  0.31565164  0.03140066  1
  O  O19  1  0.85800907  0.54784758  0.02940567  1
  O  O20  1  0.68921027  0.14096731  0.02953746  1
  O  O21  1  0.46400791  0.15047139  0.53089359  1
  O  O22  1  0.69535500  0.53151728  0.52722491  1
  O  O23  1  0.84655482  0.30103997  0.53018333  1
  O  O24  1  0.54901479  0.70051617  0.96991999  1
  O  O25  1  0.17343629  0.45011668  0.97340288  1
  O  O26  1  0.29980579  0.83773556  0.97447161  1
  O  O27  1  0.54795017  0.85836633  0.46921879  1
  O  O28  1  0.30800698  0.45178467  0.46948092  1
  O  O29  1  0.14219538  0.68814104  0.47265866  1
  O  O30  1  0.12911744  0.64507261  0.36546614  1
  O  O31  1  0.52151597  0.88051615  0.36258896  1
  O  O32  1  0.35726177  0.47617394  0.36220083  1
  O  O33  1  0.12860976  0.49981934  0.86054083  1
  O  O34  1  0.38224887  0.87898075  0.86053166  1
  O  O35  1  0.50974380  0.62899352  0.86425725  1
  O  O36  1  0.01909853  0.82184453  0.41108312  1
  O  O37  1  0.80598084  0.98166407  0.40990948  1
  O  O38  1  0.17371784  0.19238977  0.40973616  1
  O  O39  1  0.99782344  0.17200609  0.90801704  1
  O  O40  1  0.15960741  0.97875425  0.90794021  1
  O  O41  1  0.79931146  0.81616639  0.90742432  1
  O  O42  1  0.99023747  0.18438291  0.58902273  1
  O  O43  1  0.20660354  0.03682872  0.58922968  1
  O  O44  1  0.84796506  0.81885407  0.58734257  1
  O  O45  1  0.97541619  0.80422942  0.08936474  1
  O  O46  1  0.82860469  0.02406353  0.08950923  1
  O  O47  1  0.19686429  0.17604163  0.08855281  1
  O  O48  1  0.68416605  0.15676033  0.74487797  1
  O  O49  1  0.47066302  0.30856887  0.74615883  1
  O  O50  1  0.84457067  0.52686990  0.74510298  1
  O  O51  1  0.68053519  0.52472304  0.24433219  1
  O  O52  1  0.84514763  0.31400638  0.24342729  1
  O  O53  1  0.46842461  0.16220566  0.24402166  1
  O  O54  1  0.63904361  0.50658319  0.92466047  1
  O  O55  1  0.85200724  0.36612177  0.92554354  1
  O  O56  1  0.50216171  0.15862995  0.92444344  1
  O  O57  1  0.64812578  0.13854247  0.42191962  1
  O  O58  1  0.48824153  0.34933346  0.42218474  1
  O  O59  1  0.86605743  0.50520587  0.42114741  1
  O  O60  1  0.36023570  0.49546573  0.08075654  1
  O  O61  1  0.13413336  0.64501561  0.08171992  1
  O  O62  1  0.51152161  0.86056884  0.07894172  1
  O  O63  1  0.34009716  0.85976584  0.57537592  1
  O  O64  1  0.48753865  0.64321043  0.57660361  1
  O  O65  1  0.12887965  0.49617114  0.57584470  1
  O  O66  1  0.31358143  0.84513320  0.25637909  1
  O  O67  1  0.52444034  0.68015843  0.25560806  1
  O  O68  1  0.16236479  0.46843702  0.25665576  1
  O  O69  1  0.31880408  0.47346985  0.75420821  1
  O  O70  1  0.16049199  0.69198855  0.75330947  1
  O  O71  1  0.52943574  0.83897875  0.75335462  1
loop_
_geom_bond_atom_site_label_1
_geom_bond_atom_site_label_2
_geom_bond_distance
_geom_bond_site_symmetry_2
Na0 O68 2.386027 1_555
Na0 O53 2.392831 1_555
Na0 O67 2.434951 1_555
Na0 O51 2.437627 1_555
Na0 O17 2.741064 1_555
Na0 O32 2.744439 1_555
Na0 O10 2.803229 1_555
Na0 O0 2.821966 1_555
Na1 O64 2.310139 1_555
Na1 O43 2.391698 1_555
Na1 O42 2.499992 1_455
Na1 O65 2.622358 1_555
Na1 O14 2.640590 1_555
Na1 O7 2.684912 1_555
Na1 O28 2.861401 1_555
Na1 O21 2.930776 1_555
Na2 O44 2.281033 1_455
Na2 O65 2.404459 1_555
Na2 O63 2.441141 1_555
Na2 O43 2.609120 1_565
Na2 O29 2.732298 1_555
Na2 O8 2.757271 1_555
Na2 O22 2.793392 1_455
Na2 O12 2.893334 1_455
Na3 O40 2.330463 1_655
Na3 O55 2.391903 1_555
Na3 O41 2.557797 1_555
Na3 O26 2.685862 1_655
Na3 O54 2.697169 1_555
Na3 O33 2.748075 1_655
Na3 O19 2.782568 1_556
Na3 O4 2.785021 1_555
Na4 O39 2.287384 1_555
Na4 O41 2.469087 1_545
Na4 O56 2.528117 1_555
Na4 O5 2.581264 1_555
Na4 O55 2.592650 1_555
Na4 O34 2.679194 1_545
Na4 O24 2.864593 1_545
Na4 O20 2.868179 1_556
Na5 O40 2.375609 1_545
Na5 O39 2.417103 1_455
Na5 O56 2.488258 1_555
Na5 O54 2.574737 1_555
Na5 O25 2.612237 1_555
Na5 O3 2.735738 1_555
Na5 O18 2.834894 1_556
Na5 O35 2.903577 1_555
Na6 O44 2.395720 1_555
Na6 O37 2.479556 1_555
Na6 O36 2.606940 1_655
Na6 O42 2.657141 1_565
Na6 O38 2.722609 1_665
Na6 O43 2.778311 1_665
Na7 O47 2.485180 1_555
Na7 O40 2.574610 1_544
Na7 O39 2.592081 1_454
Na7 O45 2.613734 1_445
Na7 O46 2.624057 1_455
Na7 O41 2.807113 1_444
Na8 O48 2.409587 1_555
Na8 O49 2.454700 1_555
Na8 O50 2.500069 1_555
Na8 O56 2.666573 1_555
Na8 O55 2.695971 1_555
Na8 O54 2.844121 1_555
Na9 O52 2.467517 1_555
Na9 O53 2.555642 1_555
Na9 O51 2.575423 1_555
Na9 O57 2.629169 1_555
Na9 O59 2.636603 1_555
Na9 O58 2.780156 1_555
Na10 O61 2.495095 1_555
Na10 O62 2.547445 1_555
Na10 O66 2.577686 1_555
Na10 O60 2.611527 1_555
Na10 O67 2.641055 1_555
Na10 O68 2.667476 1_555
Na11 O64 2.313577 1_555
Na11 O71 2.513621 1_555
Na11 O63 2.615137 1_555
Na11 O69 2.658309 1_555
Na11 O65 2.713689 1_555
Na11 O70 2.797216 1_555
Hf0 O56 1.999593 1_555
Hf0 O55 2.003134 1_555
Hf0 O20 2.020031 1_556
Hf0 O18 2.089059 1_556
Hf0 O19 2.097129 1_556
Hf0 O54 2.202461 1_555
Hf1 O22 1.896569 1_555
Hf1 O59 2.089697 1_555
Hf1 O58 2.090196 1_555
Hf1 O23 2.107395 1_555
Hf1 O21 2.109959 1_555
Hf1 O57 2.168885 1_555
Hf2 O33 1.940792 1_555
Hf2 O34 1.953907 1_555
Hf2 O70 2.076541 1_555
Hf2 O35 2.163938 1_555
Hf2 O71 2.173431 1_555
Hf2 O69 2.193662 1_555
Mg0 O1 2.039128 1_555
Mg0 O2 2.056399 1_565
Mg0 O0 2.076138 1_665
Mg0 O37 2.118404 1_555
Mg0 O38 2.146155 1_665
Mg0 O36 2.169825 1_655
Mg1 O40 2.000190 1_545
Mg1 O39 2.000306 1_455
Mg1 O3 2.026727 1_555
Mg1 O5 2.092502 1_455
Mg1 O4 2.106737 1_445
Mg1 O41 2.202824 1_445
Mg2 O44 1.967408 1_555
Mg2 O6 1.991862 1_555
Mg2 O8 2.082575 1_655
Mg2 O42 2.156053 1_565
Mg2 O7 2.162943 1_665
Mg2 O43 2.258510 1_665
Mg3 O11 2.044336 1_655
Mg3 O9 2.056327 1_555
Mg3 O10 2.070085 1_665
Mg3 O45 2.127980 1_555
Mg3 O46 2.134941 1_565
Mg3 O47 2.195411 1_665
Mg4 O14 1.906787 1_555
Mg4 O13 2.087513 1_555
Mg4 O12 2.106989 1_555
Mg4 O49 2.117483 1_555
Mg4 O50 2.144761 1_555
Mg4 O48 2.193397 1_555
Mg5 O15 2.012500 1_555
Mg5 O16 2.047510 1_555
Mg5 O52 2.080539 1_555
Mg5 O17 2.094163 1_555
Mg5 O51 2.145943 1_555
Mg5 O53 2.154088 1_555
Mg6 O26 1.932977 1_554
Mg6 O25 1.943115 1_554
Mg6 O61 2.117063 1_555
Mg6 O60 2.190073 1_555
Mg6 O24 2.195527 1_554
Mg6 O62 2.203562 1_555
Mg7 O64 1.946499 1_555
Mg7 O27 1.988713 1_555
Mg7 O28 2.093674 1_555
Mg7 O29 2.133302 1_555
Mg7 O63 2.164104 1_555
Mg7 O65 2.263125 1_555
Mg8 O31 2.030737 1_555
Mg8 O30 2.042720 1_555
Mg8 O66 2.083614 1_555
Mg8 O67 2.148945 1_555
Mg8 O32 2.156187 1_555
Mg8 O68 2.159511 1_555
O0 S0 1.485871 1_545
O1 S1 1.471799 1_555
O2 S2 1.476103 1_655
O3 S3 1.478249 1_555
O4 S4 1.477068 1_555
O5 S5 1.483344 1_555
O6 S5 1.461584 1_565
O7 S3 1.478662 1_555
O8 S4 1.469537 1_455
O9 S1 1.470198 1_555
O10 S2 1.485003 1_555
O11 S0 1.476335 1_555
O12 S6 1.460371 1_555
O13 S7 1.455936 1_555
O14 Si0 1.606649 1_555
O15 S8 1.460192 1_555
O16 S9 1.460487 1_555
O17 S10 1.473949 1_555
O18 S10 1.534959 1_555
O19 S8 1.534013 1_555
O20 S9 1.552465 1_555
O21 S7 1.509794 1_555
O22 Si0 1.713935 1_555
O23 S6 1.507555 1_555
O24 S11 1.440868 1_555
O25 Si1 1.587556 1_555
O26 Si2 1.582564 1_555
O27 S12 1.471735 1_555
O28 S13 1.476328 1_555
O29 S14 1.483081 1_555
O30 S14 1.456578 1_555
O31 S12 1.461792 1_555
O32 S13 1.471921 1_555
O33 Si1 1.669648 1_555
O34 Si2 1.671823 1_555
O35 S11 1.500534 1_555
O36 S14 1.476326 1_555
O37 S12 1.481871 1_555
O38 S13 1.473765 1_555
O39 Si1 1.614120 1_655
O40 Si2 1.616470 1_555
O41 S11 1.477874 1_555
O42 S6 1.478426 1_555
O43 S7 1.494362 1_555
O44 Si0 1.626133 1_555
O45 S8 1.476839 1_555
O46 S9 1.473841 1_555
O47 S10 1.479030 1_555
O48 S5 1.477902 1_555
O49 S3 1.475955 1_555
O50 S4 1.471971 1_555
O51 S1 1.507891 1_555
O52 S2 1.483385 1_655
O53 S0 1.508990 1_545
O54 S11 1.508052 1_555
O55 Si1 1.673015 1_655
O56 Si2 1.671318 1_545
O57 S12 1.518511 1_545
O58 S13 1.534037 1_555
O59 S14 1.536464 1_655
O60 S10 1.465961 1_555
O61 S8 1.470467 1_455
O62 S9 1.463347 1_565
O63 S7 1.477948 1_565
O64 Si0 1.623068 1_555
O65 S6 1.492543 1_455
O66 S0 1.479356 1_555
O67 S1 1.505968 1_555
O68 S2 1.504871 1_555
O69 S3 1.515629 1_555
O70 S4 1.527950 1_455
O71 S5 1.515441 1_565
