# generated using pymatgen
data_Ba2BiSbO6
_symmetry_space_group_name_H-M   'P 1'
_cell_length_a   6.10849442
_cell_length_b   6.10849442
_cell_length_c   6.15658155
_cell_angle_alpha   60.01430178
_cell_angle_beta   60.01430178
_cell_angle_gamma   60.00222659
_symmetry_Int_Tables_number   1
_chemical_formula_structural   Ba2BiSbO6
_chemical_formula_sum   'Ba2 Bi1 Sb1 O6'
_cell_volume   162.47784885
_cell_formula_units_Z   1
loop_
 _symmetry_equiv_pos_site_id
 _symmetry_equiv_pos_as_xyz
  1  'x, y, z'
loop_
 _atom_site_type_symbol
 _atom_site_label
 _atom_site_symmetry_multiplicity
 _atom_site_fract_x
 _atom_site_fract_y
 _atom_site_fract_z
 _atom_site_occupancy
  Ba  Ba0  1  0.24915000  0.24915000  0.25484500  1
  Ba  Ba1  1  0.75085000  0.75085000  0.74515500  1
  Bi  Bi0  1  0.00000000  0.00000000  0.00000000  1
  Sb  Sb0  1  0.50000000  0.50000000  0.50000000  1
  O  O0  1  0.29558000  0.76364000  0.70089400  1
  O  O1  1  0.23636000  0.70442000  0.29910600  1
  O  O2  1  0.70442000  0.23636000  0.29910600  1
  O  O3  1  0.76364000  0.29558000  0.70089400  1
  O  O4  1  0.73142100  0.73142100  0.21381600  1
  O  O5  1  0.26857900  0.26857900  0.78618400  1
loop_
_geom_bond_atom_site_label_1
_geom_bond_atom_site_label_2
_geom_bond_distance
_geom_bond_site_symmetry_2
Ba0 O5 2.771807 1_554
Ba0 O0 2.865997 1_545
Ba0 O3 2.865997 1_455
Ba0 O2 2.886754 1_555
Ba0 O1 2.886754 1_555
Ba0 O4 3.079404 1_545
Ba0 O4 3.079404 1_455
Ba0 O1 3.238027 1_545
Ba0 O2 3.238027 1_455
Ba0 O0 3.286240 1_554
Ba0 O3 3.286240 1_554
Ba0 O5 3.394017 1_555
Ba1 O4 2.771807 1_556
Ba1 O1 2.865997 1_655
Ba1 O2 2.865997 1_565
Ba1 O0 2.886754 1_555
Ba1 O3 2.886754 1_555
Ba1 O5 3.079404 1_565
Ba1 O5 3.079404 1_655
Ba1 O3 3.238027 1_565
Ba1 O0 3.238027 1_655
Ba1 O1 3.286240 1_556
Ba1 O2 3.286240 1_556
Ba1 O4 3.394017 1_555
Bi0 O0 2.337317 1_544
Bi0 O1 2.337317 1_545
Bi0 O3 2.337317 1_454
Bi0 O2 2.337317 1_455
Bi0 O5 2.343084 1_554
Bi0 O4 2.343084 1_445
O0 Sb0 2.029507 1_555
O1 Sb0 2.029507 1_555
O2 Sb0 2.029507 1_555
O3 Sb0 2.029507 1_555
O4 Sb0 2.029788 1_555
O5 Sb0 2.029788 1_555
