# generated using pymatgen
data_Na42Ca16Ta8Si21(S5O48)3
_symmetry_space_group_name_H-M   'P 1'
_cell_length_a   18.78479469
_cell_length_b   9.42860010
_cell_length_c   22.73553150
_cell_angle_alpha   89.93962939
_cell_angle_beta   90.37922290
_cell_angle_gamma   120.11512159
_symmetry_Int_Tables_number   1
_chemical_formula_structural   Na42Ca16Ta8Si21(S5O48)3
_chemical_formula_sum   'Na42 Ca16 Ta8 Si21 S15 O144'
_cell_volume   3483.16010980
_cell_formula_units_Z   1
loop_
 _symmetry_equiv_pos_site_id
 _symmetry_equiv_pos_as_xyz
  1  'x, y, z'
loop_
 _atom_site_type_symbol
 _atom_site_label
 _atom_site_symmetry_multiplicity
 _atom_site_fract_x
 _atom_site_fract_y
 _atom_site_fract_z
 _atom_site_occupancy
  Na  Na0  1  0.32768028  0.04125334  0.24474742  1
  Na  Na1  1  0.82836420  0.01591122  0.24663784  1
  Na  Na2  1  0.98367702  0.63356637  0.25156197  1
  Na  Na3  1  0.32803619  0.63825427  0.74175205  1
  Na  Na4  1  0.82902593  0.61719181  0.73905946  1
  Na  Na5  1  0.48366010  0.33824834  0.74939170  1
  Na  Na6  1  0.16400472  0.35518826  0.58439308  1
  Na  Na7  1  0.66604568  0.35382907  0.59399732  1
  Na  Na8  1  0.01054343  0.65288509  0.58913254  1
  Na  Na9  1  0.50408706  0.68163736  0.56608550  1
  Na  Na10  1  0.31663854  0.95997121  0.57937631  1
  Na  Na11  1  0.83457167  0.97542910  0.56920585  1
  Na  Na12  1  0.16461611  0.97705029  0.09138659  1
  Na  Na13  1  0.66257585  0.95650395  0.08837208  1
  Na  Na14  1  0.33105487  0.68532018  0.06609541  1
  Na  Na15  1  0.83208197  0.70279634  0.07156765  1
  Na  Na16  1  0.00508446  0.32413428  0.06488052  1
  Na  Na17  1  0.49703219  0.35618092  0.08773549  1
  Na  Na18  1  0.46998348  0.66948181  0.91206544  1
  Na  Na19  1  0.97091859  0.65662429  0.89999299  1
  Na  Na20  1  0.35160602  0.01514941  0.91513442  1
  Na  Na21  1  0.86184456  0.04158368  0.92310882  1
  Na  Na22  1  0.16539937  0.31993773  0.91519203  1
  Na  Na23  1  0.67231387  0.30019900  0.90096087  1
  Na  Na24  1  0.46800868  0.28400956  0.40388208  1
  Na  Na25  1  0.97129040  0.27051236  0.41755876  1
  Na  Na26  1  0.17306142  0.04833285  0.41745439  1
  Na  Na27  1  0.66490686  0.00646035  0.42065350  1
  Na  Na28  1  0.36013765  0.67983974  0.42929957  1
  Na  Na29  1  0.85219327  0.68985466  0.42115035  1
  Na  Na30  1  0.98891029  0.00857056  0.49872910  1
  Na  Na31  1  0.48460659  0.96559343  0.49361471  1
  Na  Na32  1  0.98890007  0.00761283  0.98972830  1
  Na  Na33  1  0.48098345  0.95876045  0.99506234  1
  Na  Na34  1  0.33313460  0.33312063  0.82454470  1
  Na  Na35  1  0.84331812  0.35711001  0.82584249  1
  Na  Na36  1  0.34119621  0.32717160  0.33082569  1
  Na  Na37  1  0.83342263  0.33181099  0.32967314  1
  Na  Na38  1  0.17470146  0.67213042  0.16291979  1
  Na  Na39  1  0.66207326  0.66768150  0.16582935  1
  Na  Na40  1  0.16272021  0.67518824  0.65767977  1
  Na  Na41  1  0.67537958  0.67732319  0.66057155  1
  Ca  Ca0  1  0.99613922  0.99885332  0.34483171  1
  Ca  Ca1  1  0.49879853  0.99805927  0.34956616  1
  Ca  Ca2  1  0.99764415  0.99858485  0.84731776  1
  Ca  Ca3  1  0.49687325  0.99275156  0.84407121  1
  Ca  Ca4  1  0.32943018  0.32505208  0.68069476  1
  Ca  Ca5  1  0.83736271  0.33616874  0.68440670  1
  Ca  Ca6  1  0.33618576  0.33632966  0.18494423  1
  Ca  Ca7  1  0.83236315  0.33193668  0.18269775  1
  Ca  Ca8  1  0.34068541  0.35120252  0.98686481  1
  Ca  Ca9  1  0.84051585  0.33259612  0.97816371  1
  Ca  Ca10  1  0.33228296  0.33680880  0.48377813  1
  Ca  Ca11  1  0.84098597  0.33183755  0.48950984  1
  Ca  Ca12  1  0.16808330  0.66383524  0.01230399  1
  Ca  Ca13  1  0.67070691  0.67414246  0.01861357  1
  Ca  Ca14  1  0.16976318  0.66704084  0.52027919  1
  Ca  Ca15  1  0.66825500  0.67233317  0.51363930  1
  Ta  Ta0  1  0.00249799  0.98625605  0.64689308  1
  Ta  Ta1  1  0.49596587  0.98817904  0.66159917  1
  Ta  Ta2  1  0.99665615  0.00668546  0.16151613  1
  Ta  Ta3  1  0.49733450  0.00701341  0.15076012  1
  Ta  Ta4  1  0.16653459  0.67696953  0.31039971  1
  Ta  Ta5  1  0.66606191  0.66668437  0.31430917  1
  Ta  Ta6  1  0.16597241  0.66342896  0.81254683  1
  Ta  Ta7  1  0.66805127  0.65885776  0.80959888  1
  Si  Si0  1  0.14862789  0.99966915  0.25504135  1
  Si  Si1  1  0.84324525  0.69620343  0.25655042  1
  Si  Si2  1  0.00451296  0.31230137  0.25629618  1
  Si  Si3  1  0.50700628  0.30966651  0.25543198  1
  Si  Si4  1  0.64971926  0.29777644  0.75474460  1
  Si  Si5  1  0.00536148  0.70441433  0.75617232  1
  Si  Si6  1  0.50371290  0.69679990  0.75674443  1
  Si  Si7  1  0.34420437  0.99265498  0.75815897  1
  Si  Si8  1  0.98554776  0.31992377  0.58378238  1
  Si  Si9  1  0.17860859  0.02864244  0.57751456  1
  Si  Si10  1  0.34248834  0.65433387  0.58857243  1
  Si  Si11  1  0.83134652  0.63804017  0.58436159  1
  Si  Si12  1  0.48692093  0.65012824  0.08378428  1
  Si  Si13  1  0.33156739  0.02405522  0.08453528  1
  Si  Si14  1  0.83959937  0.02739264  0.08796547  1
  Si  Si15  1  0.31563136  0.66274749  0.91548185  1
  Si  Si16  1  0.81440212  0.66397926  0.91810485  1
  Si  Si17  1  0.01864992  0.37233779  0.91640641  1
  Si  Si18  1  0.31550146  0.96419618  0.41681382  1
  Si  Si19  1  0.81628429  0.96960675  0.41563038  1
  Si  Si20  1  0.51706308  0.66229348  0.41718479  1
  S  S0  1  0.64677137  0.98719795  0.25202533  1
  S  S1  1  0.34748197  0.71305815  0.24952561  1
  S  S2  1  0.14709825  0.30810443  0.75243850  1
  S  S3  1  0.84419678  0.98363039  0.75120590  1
  S  S4  1  0.48742277  0.31984059  0.58670866  1
  S  S5  1  0.67414597  0.03053063  0.58597643  1
  S  S6  1  0.98585301  0.65340576  0.08623261  1
  S  S7  1  0.17404360  0.31806448  0.08587711  1
  S  S8  1  0.67354393  0.31580517  0.08359037  1
  S  S9  1  0.52270556  0.38088884  0.91378444  1
  S  S10  1  0.17015400  0.96189534  0.91427043  1
  S  S11  1  0.66713464  0.95578839  0.91421691  1
  S  S12  1  0.16743096  0.38291010  0.41233703  1
  S  S13  1  0.67074780  0.38016666  0.41378058  1
  S  S14  1  0.02144288  0.66146639  0.41261038  1
  O  O0  1  0.10605738  0.99601364  0.31501627  1
  O  O1  1  0.61044889  0.00107314  0.30610876  1
  O  O2  1  0.39029672  0.77749773  0.30444723  1
  O  O3  1  0.89373572  0.76005306  0.31661048  1
  O  O4  1  0.49757172  0.20741097  0.31310834  1
  O  O5  1  0.98375337  0.20457201  0.31391146  1
  O  O6  1  0.11112236  0.22125762  0.80711116  1
  O  O7  1  0.60719256  0.21677507  0.81502595  1
  O  O8  1  0.48663320  0.76484190  0.81537343  1
  O  O9  1  0.99675736  0.78540214  0.81502271  1
  O  O10  1  0.39297601  0.01865579  0.81837876  1
  O  O11  1  0.88730575  0.00311621  0.80695254  1
  O  O12  1  0.40577780  0.96969105  0.70411138  1
  O  O13  1  0.88748508  0.95774062  0.70137242  1
  O  O14  1  0.09590299  0.21653052  0.70052737  1
  O  O15  1  0.58421383  0.19661853  0.69782292  1
  O  O16  1  0.01207616  0.83498653  0.70024554  1
  O  O17  1  0.51326942  0.83224575  0.70141672  1
  O  O18  1  0.39753734  0.82997687  0.19973720  1
  O  O19  1  0.90615579  0.84479286  0.20332866  1
  O  O20  1  0.01358252  0.19672164  0.20036487  1
  O  O21  1  0.51502854  0.19127145  0.19791426  1
  O  O22  1  0.08346962  0.97227343  0.19688572  1
  O  O23  1  0.59506738  0.97679105  0.19945871  1
  O  O24  1  0.44863796  0.34302220  0.63876035  1
  O  O25  1  0.93528076  0.36268925  0.62967445  1
  O  O26  1  0.24644374  0.12175866  0.62733587  1
  O  O27  1  0.72915258  0.11625357  0.63489762  1
  O  O28  1  0.33612152  0.55185560  0.64665474  1
  O  O29  1  0.81384061  0.51764851  0.63901101  1
  O  O30  1  0.43564242  0.51265336  0.13122303  1
  O  O31  1  0.94553637  0.55266326  0.13806224  1
  O  O32  1  0.31558507  0.11024879  0.13931253  1
  O  O33  1  0.82689334  0.11379100  0.14477861  1
  O  O34  1  0.22863168  0.34305787  0.13529542  1
  O  O35  1  0.72807812  0.34510765  0.13349430  1
  O  O36  1  0.20856908  0.29760929  0.02982450  1
  O  O37  1  0.70619110  0.28660857  0.02899403  1
  O  O38  1  0.43626604  0.60893803  0.02104114  1
  O  O39  1  0.93603468  0.57700121  0.03253149  1
  O  O40  1  0.35843513  0.13419153  0.02474908  1
  O  O41  1  0.85966053  0.13719987  0.02775981  1
  O  O42  1  0.20325375  0.13423627  0.51671474  1
  O  O43  1  0.70836237  0.11829314  0.52940608  1
  O  O44  1  0.36464050  0.58705431  0.52872171  1
  O  O45  1  0.85355464  0.57753111  0.52335311  1
  O  O46  1  0.43846999  0.29690567  0.53274863  1
  O  O47  1  0.93460963  0.26187859  0.52076420  1
  O  O48  1  0.27422334  0.67006769  0.97648296  1
  O  O49  1  0.77465371  0.67475968  0.97897309  1
  O  O50  1  0.05960374  0.44808310  0.97953205  1
  O  O51  1  0.56600885  0.46386837  0.96775710  1
  O  O52  1  0.15908181  0.87523346  0.97050602  1
  O  O53  1  0.65956736  0.87233624  0.97048078  1
  O  O54  1  0.27353642  0.86315356  0.47499810  1
  O  O55  1  0.77303198  0.87680034  0.47562713  1
  O  O56  1  0.15960772  0.45103187  0.46797268  1
  O  O57  1  0.65986001  0.44712947  0.46903049  1
  O  O58  1  0.06517343  0.66147331  0.46527765  1
  O  O59  1  0.56113901  0.67294876  0.47924413  1
  O  O60  1  0.07042834  0.65660301  0.35810735  1
  O  O61  1  0.58252957  0.66033665  0.36259194  1
  O  O62  1  0.25183285  0.83718934  0.35774372  1
  O  O63  1  0.75450561  0.84402538  0.35876021  1
  O  O64  1  0.16580981  0.48883142  0.36202391  1
  O  O65  1  0.67396494  0.49004981  0.36306297  1
  O  O66  1  0.08331841  0.50341172  0.86320148  1
  O  O67  1  0.57174163  0.48558151  0.86079831  1
  O  O68  1  0.17359991  0.85835256  0.86470464  1
  O  O69  1  0.66818058  0.85124328  0.86444569  1
  O  O70  1  0.25339041  0.66405282  0.86002347  1
  O  O71  1  0.74959122  0.66383655  0.86158741  1
  O  O72  1  0.01461161  0.80948152  0.41086960  1
  O  O73  1  0.51354929  0.83100411  0.41200815  1
  O  O74  1  0.40699604  0.98617623  0.41358403  1
  O  O75  1  0.90730205  0.98606472  0.41591614  1
  O  O76  1  0.09728854  0.21419795  0.40739344  1
  O  O77  1  0.60131621  0.21276695  0.40680345  1
  O  O78  1  0.01297677  0.19424604  0.91219467  1
  O  O79  1  0.51573297  0.21877935  0.91158734  1
  O  O80  1  0.10067082  0.99145961  0.90737568  1
  O  O81  1  0.59655020  0.98349849  0.90976363  1
  O  O82  1  0.40672736  0.82727968  0.91492609  1
  O  O83  1  0.90524934  0.82655724  0.91414446  1
  O  O84  1  0.49466032  0.16772036  0.59354933  1
  O  O85  1  0.98943839  0.15136278  0.60607402  1
  O  O86  1  0.08796527  0.02313148  0.59732892  1
  O  O87  1  0.59245185  0.02541641  0.59322969  1
  O  O88  1  0.42956385  0.84855508  0.59682046  1
  O  O89  1  0.91852716  0.82485377  0.59864287  1
  O  O90  1  0.49805339  0.83564509  0.10437947  1
  O  O91  1  0.99271718  0.81983379  0.09218962  1
  O  O92  1  0.41992474  0.00940068  0.09908411  1
  O  O93  1  0.92778755  0.01336254  0.09671683  1
  O  O94  1  0.09201657  0.15973207  0.09302348  1
  O  O95  1  0.59145281  0.15513680  0.09391358  1
  O  O96  1  0.33849184  0.15198963  0.74428877  1
  O  O97  1  0.82530510  0.11274671  0.74227585  1
  O  O98  1  0.23252684  0.34339225  0.74723424  1
  O  O99  1  0.74211231  0.33980375  0.74776783  1
  O  O100  1  0.43145883  0.51285047  0.74437902  1
  O  O101  1  0.92518873  0.52816982  0.74717252  1
  O  O102  1  0.32988300  0.54776953  0.23777806  1
  O  O103  1  0.83440571  0.52513151  0.23823318  1
  O  O104  1  0.42595163  0.32151141  0.24511828  1
  O  O105  1  0.93185668  0.35132579  0.24288283  1
  O  O106  1  0.24073363  0.14326583  0.24685455  1
  O  O107  1  0.73154878  0.12512588  0.24595724  1
  O  O108  1  0.31602059  0.48940654  0.90830282  1
  O  O109  1  0.81359330  0.49127765  0.90965508  1
  O  O110  1  0.44118804  0.36924005  0.90948173  1
  O  O111  1  0.93008346  0.36281160  0.90740504  1
  O  O112  1  0.24913833  0.11984446  0.91327315  1
  O  O113  1  0.74547482  0.11525362  0.91185523  1
  O  O114  1  0.31516171  0.13511983  0.40818115  1
  O  O115  1  0.81560060  0.14210282  0.40745997  1
  O  O116  1  0.24700954  0.38663835  0.40824231  1
  O  O117  1  0.74975867  0.38124060  0.41231722  1
  O  O118  1  0.42889368  0.49537412  0.40884086  1
  O  O119  1  0.94005075  0.51035500  0.40744223  1
  O  O120  1  0.15735661  0.45626339  0.08358399  1
  O  O121  1  0.65314695  0.44738664  0.07926066  1
  O  O122  1  0.07054046  0.67871306  0.08244235  1
  O  O123  1  0.57983980  0.67761211  0.08207789  1
  O  O124  1  0.25772960  0.83307840  0.08341852  1
  O  O125  1  0.76197882  0.84051742  0.08619137  1
  O  O126  1  0.15015265  0.83559012  0.57781191  1
  O  O127  1  0.65732254  0.85872603  0.58431988  1
  O  O128  1  0.26365650  0.67998641  0.58545149  1
  O  O129  1  0.75677238  0.68012587  0.58374839  1
  O  O130  1  0.08017753  0.46778635  0.58119952  1
  O  O131  1  0.57265054  0.46346138  0.58249371  1
  O  O132  1  0.15127008  0.81512839  0.25562033  1
  O  O133  1  0.65148852  0.83048642  0.25194571  1
  O  O134  1  0.26683137  0.71679361  0.24855639  1
  O  O135  1  0.75763849  0.70742934  0.25488247  1
  O  O136  1  0.09426149  0.48988931  0.25766177  1
  O  O137  1  0.59366783  0.49238963  0.25735801  1
  O  O138  1  0.15126236  0.47466546  0.75337497  1
  O  O139  1  0.65241577  0.48827917  0.75690517  1
  O  O140  1  0.09212578  0.69437906  0.75964405  1
  O  O141  1  0.59339118  0.69709344  0.75993419  1
  O  O142  1  0.25715670  0.81192507  0.75612539  1
  O  O143  1  0.76079328  0.81844239  0.75376137  1
loop_
_geom_bond_atom_site_label_1
_geom_bond_atom_site_label_2
_geom_bond_distance
_geom_bond_site_symmetry_2
Na0 O106 2.274323 1_555
Na0 O104 2.344188 1_555
Na0 O32 2.521668 1_555
Na0 O134 2.676669 1_545
Na1 O33 2.497144 1_555
Na1 O107 2.499395 1_555
Na1 O135 2.526738 1_545
Na1 O105 2.760470 1_555
Na1 O19 2.845398 1_545
Na1 O133 2.878613 1_545
Na1 O5 2.959753 1_555
Na1 O63 2.971770 1_545
Na2 O105 2.338217 1_555
Na2 O103 2.472311 1_555
Na2 O31 2.680541 1_555
Na2 O132 2.727383 1_655
Na2 O60 2.857327 1_655
Na2 O3 2.919364 1_555
Na2 O136 2.998204 1_655
Na2 O22 3.045179 1_655
Na3 O28 2.343824 1_555
Na3 O98 2.441423 1_555
Na3 O142 2.599149 1_555
Na3 O100 2.734843 1_555
Na3 O12 2.839362 1_555
Na3 O138 2.889077 1_555
Na4 O99 2.294189 1_555
Na4 O101 2.349118 1_555
Na4 O29 2.421479 1_555
Na4 O143 2.793331 1_555
Na4 O139 2.935761 1_555
Na4 O13 2.952680 1_555
Na5 O100 2.302767 1_555
Na5 O96 2.392584 1_555
Na5 O24 2.601721 1_555
Na5 O139 2.751880 1_555
Na6 O130 2.299531 1_555
Na6 O128 2.670204 1_555
Na6 O86 2.728537 1_555
Na6 O56 2.810050 1_555
Na6 O85 2.895673 1_455
Na6 O14 2.945581 1_555
Na6 O42 2.968885 1_555
Na7 O131 2.455200 1_555
Na7 O29 2.608355 1_555
Na7 O129 2.676959 1_555
Na7 O87 2.683989 1_555
Na7 O84 2.788311 1_555
Na7 O15 2.808273 1_555
Na7 O57 2.992096 1_555
Na8 O126 2.320780 1_555
Na8 O25 2.542642 1_455
Na8 O130 2.661568 1_555
Na9 O59 2.273745 1_555
Na9 O44 2.450829 1_555
Na9 O127 2.531448 1_555
Na9 O88 2.674128 1_555
Na9 O87 2.869517 1_565
Na9 O131 2.946234 1_555
Na10 O128 2.311508 1_555
Na10 O54 2.521486 1_555
Na10 O26 2.701023 1_565
Na10 O126 2.734129 1_555
Na10 O88 2.825739 1_555
Na10 O84 2.921917 1_565
Na10 O46 3.030335 1_565
Na11 O55 2.370763 1_555
Na11 O129 2.432828 1_555
Na11 O47 2.639482 1_565
Na11 O85 2.654338 1_565
Na11 O89 2.679839 1_555
Na11 O127 2.958531 1_555
Na12 O122 2.466771 1_555
Na12 O94 2.680671 1_565
Na12 O32 2.682345 1_565
Na12 O124 2.705962 1_555
Na12 O91 2.796808 1_455
Na12 O22 2.838668 1_555
Na12 O52 2.896046 1_554
Na13 O123 2.290712 1_555
Na13 O125 2.595292 1_555
Na13 O90 2.731725 1_555
Na13 O53 2.788291 1_554
Na13 O95 2.796772 1_565
Na13 O23 2.882759 1_555
Na13 O33 2.954592 1_565
Na14 O48 2.264750 1_554
Na14 O124 2.434577 1_555
Na14 O38 2.632602 1_555
Na14 O92 2.748767 1_565
Na14 O90 2.848190 1_555
Na14 O120 2.900484 1_555
Na15 O125 2.292047 1_555
Na15 O49 2.313093 1_554
Na15 O93 2.615471 1_565
Na15 O91 2.680263 1_555
Na15 O39 2.890828 1_555
Na15 O121 3.002027 1_555
Na16 O50 2.236166 1_554
Na16 O120 2.514731 1_555
Na16 O41 2.534235 1_455
Na16 O93 2.637807 1_455
Na16 O94 2.828962 1_555
Na16 O122 2.952874 1_555
Na17 O30 2.491862 1_555
Na17 O121 2.617858 1_555
Na17 O123 2.625301 1_555
Na17 O40 2.774633 1_555
Na17 O92 2.847100 1_555
Na17 O51 2.978475 1_554
Na17 O21 3.052020 1_555
Na18 O82 2.324874 1_555
Na18 O8 2.337026 1_555
Na18 O108 2.514778 1_555
Na18 O38 2.553548 1_556
Na18 O110 2.602528 1_555
Na18 O81 2.712738 1_555
Na19 O9 2.204078 1_555
Na19 O111 2.481812 1_555
Na19 O83 2.486380 1_555
Na19 O109 2.568495 1_555
Na19 O80 2.865286 1_655
Na20 O10 2.332551 1_555
Na20 O82 2.459763 1_545
Na20 O112 2.566457 1_555
Na20 O79 2.694653 1_555
Na20 O40 2.710021 1_556
Na20 O110 2.891142 1_555
Na21 O78 2.470064 1_655
Na21 O83 2.545297 1_545
Na21 O41 2.553118 1_556
Na21 O113 2.615788 1_555
Na21 O111 2.655506 1_555
Na21 O11 2.743599 1_555
Na22 O108 2.460036 1_555
Na22 O78 2.489930 1_555
Na22 O6 2.638777 1_555
Na22 O80 2.705808 1_545
Na22 O36 2.763432 1_556
Na23 O7 2.222256 1_555
Na23 O109 2.350309 1_555
Na23 O81 2.592295 1_545
Na23 O79 2.653742 1_555
Na23 O113 2.718503 1_555
Na23 O37 2.991867 1_556
Na24 O4 2.347339 1_555
Na24 O118 2.448488 1_555
Na24 O74 2.453637 1_545
Na24 O114 2.486525 1_555
Na24 O77 2.900353 1_555
Na24 O46 2.999444 1_555
Na25 O75 2.324591 1_545
Na25 O47 2.439642 1_555
Na25 O5 2.480077 1_555
Na25 O115 2.551540 1_555
Na25 O119 2.615319 1_555
Na25 O76 2.684381 1_655
Na26 O42 2.365690 1_555
Na26 O114 2.377932 1_555
Na26 O0 2.567547 1_545
Na26 O76 2.598596 1_555
Na26 O72 2.687330 1_545
Na26 O116 2.775627 1_555
Na27 O115 2.473116 1_555
Na27 O73 2.476417 1_545
Na27 O43 2.647019 1_555
Na27 O77 2.763189 1_555
Na27 O1 2.782802 1_555
Na28 O44 2.439165 1_555
Na28 O73 2.526446 1_555
Na28 O116 2.545912 1_555
Na28 O74 2.587595 1_555
Na28 O118 2.678308 1_555
Na28 O2 2.952739 1_555
Na29 O75 2.446529 1_555
Na29 O3 2.489783 1_555
Na29 O45 2.557876 1_555
Na29 O117 2.566598 1_555
Na29 O72 2.681613 1_655
Na29 O119 2.914793 1_555
Na30 O75 2.361404 1_545
Na30 O89 2.764411 1_545
Na30 O85 2.786065 1_555
Na30 O86 2.862787 1_655
Na30 O76 2.881386 1_655
Na30 O72 2.945664 1_645
Na31 O74 2.392052 1_555
Na31 O73 2.461495 1_555
Na31 O88 2.583464 1_555
Na31 O87 2.889091 1_565
Na31 O84 2.910705 1_565
Na31 O77 3.008936 1_565
Na32 O78 2.369345 1_655
Na32 O83 2.369607 1_545
Na32 O93 2.708740 1_556
Na32 O80 2.882815 1_645
Na32 O94 2.912646 1_656
Na32 O91 2.946677 1_546
Na33 O82 2.244520 1_555
Na33 O81 2.841618 1_555
Na34 O108 2.527927 1_555
Na34 O96 2.537242 1_555
Na34 O100 2.549946 1_555
Na34 O98 2.609581 1_555
Na34 O110 2.687166 1_555
Na34 O112 2.729913 1_555
Na35 O101 2.388905 1_555
Na35 O111 2.443424 1_555
Na35 O109 2.504203 1_555
Na35 O99 2.537014 1_555
Na35 O113 2.869620 1_555
Na35 O97 2.872467 1_555
Na36 O118 2.391780 1_555
Na36 O114 2.393159 1_555
Na36 O104 2.541904 1_555
Na36 O106 2.624585 1_555
Na36 O116 2.753445 1_555
Na37 O115 2.416488 1_555
Na37 O119 2.558889 1_555
Na37 O117 2.644537 1_555
Na37 O105 2.655679 1_555
Na37 O107 2.701813 1_555
Na37 O103 2.757435 1_555
Na38 O124 2.378858 1_555
Na38 O134 2.487777 1_555
Na38 O120 2.614706 1_555
Na38 O132 2.658441 1_555
Na38 O122 2.693386 1_555
Na38 O136 2.702842 1_555
Na39 O123 2.475185 1_555
Na39 O125 2.534913 1_555
Na39 O133 2.558704 1_555
Na39 O137 2.571021 1_555
Na39 O135 2.596298 1_555
Na39 O121 2.805504 1_555
Na40 O126 2.446849 1_555
Na40 O130 2.486066 1_555
Na40 O128 2.499751 1_555
Na40 O140 2.729057 1_555
Na40 O142 2.734447 1_555
Na40 O138 2.818449 1_555
Na41 O129 2.320291 1_555
Na41 O127 2.571774 1_555
Na41 O143 2.579220 1_555
Na41 O131 2.645463 1_555
Na41 O139 2.718967 1_555
Na41 O141 2.800921 1_555
Ca0 O5 2.181363 1_565
Ca0 O0 2.190348 1_655
Ca0 O3 2.195907 1_555
Ca0 O75 2.290126 1_555
Ca0 O76 2.419695 1_665
Ca0 O72 2.484323 1_655
Ca1 O4 2.150765 1_565
Ca1 O74 2.223475 1_555
Ca1 O73 2.236327 1_555
Ca1 O2 2.292301 1_555
Ca1 O1 2.311571 1_565
Ca1 O77 2.358071 1_565
Ca2 O9 2.132815 1_555
Ca2 O78 2.264699 1_665
Ca2 O83 2.270764 1_555
Ca2 O11 2.281154 1_565
Ca2 O6 2.306132 1_665
Ca2 O80 2.389515 1_655
Ca3 O8 2.160289 1_555
Ca3 O10 2.161689 1_565
Ca3 O7 2.194275 1_565
Ca3 O82 2.297039 1_555
Ca3 O81 2.422986 1_555
Ca3 O79 2.503106 1_565
Ca4 O26 2.134783 1_555
Ca4 O28 2.217148 1_555
Ca4 O96 2.247776 1_555
Ca4 O100 2.338421 1_555
Ca4 O24 2.366286 1_555
Ca4 O98 2.446404 1_555
Ca5 O25 2.135969 1_555
Ca5 O29 2.221994 1_555
Ca5 O101 2.238894 1_555
Ca5 O99 2.318095 1_555
Ca5 O27 2.333119 1_555
Ca5 O97 2.395668 1_555
Ca6 O30 2.157596 1_555
Ca6 O104 2.222621 1_555
Ca6 O32 2.222946 1_555
Ca6 O106 2.294028 1_555
Ca6 O34 2.336324 1_555
Ca6 O102 2.382239 1_555
Ca7 O33 2.185120 1_555
Ca7 O103 2.201781 1_555
Ca7 O105 2.241121 1_555
Ca7 O35 2.306345 1_555
Ca7 O31 2.337722 1_555
Ca7 O107 2.404523 1_555
Ca8 O38 2.310836 1_556
Ca8 O108 2.385995 1_555
Ca8 O40 2.390960 1_556
Ca8 O36 2.478133 1_556
Ca8 O110 2.531721 1_555
Ca8 O112 2.592381 1_555
Ca9 O111 2.248088 1_555
Ca9 O41 2.334529 1_556
Ca9 O109 2.379962 1_555
Ca9 O39 2.425931 1_556
Ca9 O113 2.441125 1_555
Ca9 O37 2.613438 1_556
Ca10 O42 2.336458 1_555
Ca10 O44 2.353372 1_555
Ca10 O118 2.396734 1_555
Ca10 O114 2.461623 1_555
Ca10 O46 2.466328 1_555
Ca10 O116 2.540276 1_555
Ca11 O47 2.275878 1_555
Ca11 O45 2.338095 1_555
Ca11 O115 2.459022 1_555
Ca11 O43 2.464916 1_555
Ca11 O119 2.583345 1_555
Ca11 O117 2.644475 1_555
Ca12 O48 2.132101 1_554
Ca12 O50 2.160822 1_554
Ca12 O52 2.288350 1_554
Ca12 O124 2.295463 1_555
Ca12 O120 2.469637 1_555
Ca12 O122 2.493394 1_555
Ca13 O49 2.153342 1_554
Ca13 O125 2.243267 1_555
Ca13 O123 2.255067 1_555
Ca13 O53 2.262385 1_554
Ca13 O51 2.279814 1_554
Ca13 O121 2.423456 1_555
Ca14 O54 2.164353 1_555
Ca14 O126 2.229437 1_555
Ca14 O128 2.251897 1_555
Ca14 O130 2.265538 1_555
Ca14 O56 2.282726 1_555
Ca14 O58 2.300138 1_555
Ca15 O55 2.132774 1_555
Ca15 O59 2.156660 1_555
Ca15 O129 2.270140 1_555
Ca15 O57 2.286597 1_555
Ca15 O131 2.456811 1_555
Ca15 O127 2.466885 1_555
O0 Si0 1.576912 1_555
O1 S0 1.447631 1_545
O2 S1 1.439836 1_555
O3 Si1 1.593169 1_555
O4 Si3 1.584113 1_555
O5 Si2 1.583082 1_655
O6 S2 1.458069 1_555
O7 Si4 1.581094 1_555
O8 Si6 1.582817 1_555
O9 Si5 1.590064 1_655
O10 Si7 1.591444 1_545
O11 S3 1.460652 1_545
O12 Si7 1.779139 1_555
O12 Ta1 1.886729 1_555
O13 S3 1.488775 1_555
O13 Ta0 2.392911 1_655
O14 S2 1.489016 1_555
O14 Ta0 2.331094 1_545
O15 Si4 1.703660 1_555
O15 Ta1 2.001193 1_545
O16 Si5 1.729544 1_555
O16 Ta0 1.946516 1_555
O17 Si6 1.736375 1_555
O17 Ta1 1.886693 1_555
O18 S1 1.533631 1_555
O18 Ta3 2.103374 1_565
O19 Si1 1.782542 1_555
O19 Ta2 1.880986 1_565
O20 Si2 1.739461 1_555
O20 Ta2 1.876061 1_455
O21 Si3 1.775780 1_555
O21 Ta3 1.922960 1_555
O22 Si0 1.724850 1_555
O22 Ta2 1.981008 1_465
O23 S0 1.506830 1_555
O23 Ta3 2.274853 1_565
O24 S4 1.466569 1_555
O25 Si8 1.593374 1_555
O26 Si9 1.593096 1_555
O27 S5 1.451437 1_555
O28 Si10 1.604725 1_555
O29 Si11 1.602583 1_555
O30 Si12 1.590327 1_555
O31 S6 1.466953 1_555
O32 Si13 1.597969 1_555
O33 Si14 1.609473 1_555
O34 S7 1.453348 1_555
O35 S8 1.454070 1_555
O36 S7 1.489582 1_555
O37 S8 1.474061 1_555
O38 Si12 1.644240 1_555
O39 S6 1.481759 1_555
O40 Si13 1.631216 1_555
O41 Si14 1.643131 1_555
O42 Si9 1.630766 1_555
O43 S5 1.492325 1_555
O44 Si10 1.643585 1_555
O45 Si11 1.634509 1_555
O46 S4 1.477671 1_555
O47 Si8 1.651027 1_555
O48 Si15 1.612956 1_555
O49 Si16 1.604081 1_555
O50 Si17 1.611793 1_555
O51 S9 1.459367 1_555
O52 S10 1.475253 1_555
O53 S11 1.470949 1_555
O54 Si18 1.592640 1_555
O55 Si19 1.607856 1_555
O56 S12 1.460485 1_555
O57 S13 1.467304 1_555
O58 S14 1.447601 1_555
O59 Si20 1.608651 1_555
O60 S14 1.562657 1_555
O60 Ta4 2.037204 1_555
O61 Si20 1.759625 1_555
O61 Ta5 1.897161 1_555
O62 Si18 1.792478 1_555
O62 Ta4 1.886723 1_555
O63 Si19 1.739258 1_555
O63 Ta5 1.941937 1_555
O64 S12 1.527893 1_555
O64 Ta4 2.120378 1_555
O65 S13 1.530437 1_555
O65 Ta5 2.065510 1_555
O66 Si17 1.725121 1_555
O66 Ta6 1.919019 1_555
O67 S9 1.540731 1_555
O67 Ta7 2.086881 1_555
O68 S10 1.514560 1_555
O68 Ta6 2.131326 1_555
O69 S11 1.508164 1_555
O69 Ta7 2.201267 1_555
O70 Si15 1.718092 1_555
O70 Ta6 1.956681 1_555
O71 Si16 1.763794 1_555
O71 Ta7 1.910349 1_555
O72 S14 1.464647 1_555
O73 Si20 1.628931 1_555
O74 Si18 1.626809 1_555
O75 Si19 1.637372 1_555
O76 S12 1.474550 1_555
O77 S13 1.466112 1_555
O78 Si17 1.631173 1_555
O79 S9 1.468005 1_555
O80 S10 1.472477 1_555
O81 S11 1.477278 1_555
O82 Si15 1.634433 1_555
O83 Si16 1.626913 1_555
O84 S4 1.514847 1_555
O84 Ta1 2.301209 1_545
O85 Si8 1.703651 1_555
O85 Ta0 1.929251 1_645
O86 Si9 1.739599 1_555
O86 Ta0 1.852371 1_545
O87 S5 1.521058 1_555
O87 Ta1 2.285192 1_545
O88 Si10 1.747852 1_555
O88 Ta1 1.946790 1_555
O89 Si11 1.729001 1_555
O89 Ta0 1.891876 1_655
O90 Si12 1.719281 1_555
O90 Ta3 1.936103 1_565
O91 S6 1.514756 1_555
O91 Ta2 2.338175 1_565
O92 Si13 1.762420 1_555
O92 Ta3 1.872301 1_555
O93 Si14 1.736918 1_555
O93 Ta2 1.975939 1_555
O94 S7 1.524396 1_555
O94 Ta2 2.270320 1_455
O95 S8 1.545245 1_555
O95 Ta3 2.072524 1_555
O96 Si7 1.590030 1_545
O97 S3 1.442649 1_545
O98 S2 1.471936 1_555
O99 Si4 1.583608 1_555
O100 Si6 1.600962 1_555
O101 Si5 1.598960 1_655
O102 S1 1.446399 1_555
O103 Si1 1.591983 1_555
O104 Si3 1.597375 1_555
O105 Si2 1.609142 1_655
O106 Si0 1.585666 1_545
O107 S0 1.473325 1_545
O108 Si15 1.646330 1_555
O109 Si16 1.632300 1_555
O110 S9 1.481807 1_555
O111 Si17 1.632004 1_655
O112 S10 1.484191 1_545
O113 S11 1.486502 1_545
O114 Si18 1.626456 1_545
O115 Si19 1.643207 1_545
O116 S12 1.481093 1_555
O117 S13 1.479743 1_555
O118 Si20 1.623825 1_555
O119 S14 1.481024 1_655
O120 S7 1.486052 1_555
O121 S8 1.473738 1_555
O122 S6 1.488617 1_455
O123 Si12 1.631651 1_555
O124 Si13 1.631015 1_565
O125 Si14 1.628961 1_565
O126 Si9 1.619449 1_565
O127 S5 1.487132 1_565
O128 Si10 1.616913 1_555
O129 Si11 1.636337 1_555
O130 Si8 1.619043 1_455
O131 S4 1.494087 1_555
O132 Si0 1.765419 1_555
O132 Ta4 1.922731 1_555
O133 S0 1.523962 1_555
O133 Ta5 2.210215 1_555
O134 S1 1.532993 1_555
O134 Ta4 2.234202 1_555
O135 Si1 1.663920 1_555
O135 Ta5 2.073357 1_555
O136 Si2 1.677375 1_555
O136 Ta4 1.992996 1_555
O137 Si3 1.674814 1_555
O137 Ta5 1.991257 1_555
O138 S2 1.532848 1_555
O138 Ta6 2.135513 1_555
O139 Si4 1.772025 1_555
O139 Ta7 1.906196 1_555
O140 Si5 1.680662 1_555
O140 Ta6 1.959468 1_555
O141 Si6 1.684283 1_555
O141 Ta7 1.964034 1_555
O142 Si7 1.668154 1_555
O142 Ta6 2.039241 1_555
O143 S3 1.560813 1_555
O143 Ta7 2.074964 1_555
