# generated using pymatgen
data_MgTiZn2WO6
_symmetry_space_group_name_H-M   'P 1'
_cell_length_a   5.33725050
_cell_length_b   5.29543510
_cell_length_c   8.01717865
_cell_angle_alpha   89.81488226
_cell_angle_beta   131.71008897
_cell_angle_gamma   120.47855469
_symmetry_Int_Tables_number   1
_chemical_formula_structural   MgTiZn2WO6
_chemical_formula_sum   'Mg1 Ti1 Zn2 W1 O6'
_cell_volume   124.56189326
_cell_formula_units_Z   1
loop_
 _symmetry_equiv_pos_site_id
 _symmetry_equiv_pos_as_xyz
  1  'x, y, z'
loop_
 _atom_site_type_symbol
 _atom_site_label
 _atom_site_symmetry_multiplicity
 _atom_site_fract_x
 _atom_site_fract_y
 _atom_site_fract_z
 _atom_site_occupancy
  Mg  Mg0  1  0.63474600  0.29470500  0.47518600  1
  Ti  Ti0  1  0.04002800  0.00431900  0.53028500  1
  Zn  Zn0  1  0.99454600  0.47316700  0.24269300  1
  Zn  Zn1  1  0.32061100  0.63972600  0.98269000  1
  W  W0  1  0.90489200  0.93187800  0.92909600  1
  O  O0  1  0.97016900  0.82758600  0.22296500  1
  O  O1  1  0.93960200  0.12449100  0.70246600  1
  O  O2  1  0.34266200  0.46634400  0.22659000  1
  O  O3  1  0.26379500  0.78090500  0.71429000  1
  O  O4  1  0.59220500  0.09567000  0.22224900  1
  O  O5  1  0.59969400  0.43115000  0.70147700  1
loop_
_geom_bond_atom_site_label_1
_geom_bond_atom_site_label_2
_geom_bond_distance
_geom_bond_site_symmetry_2
Mg0 O3 2.067402 1_655
Mg0 O1 2.076512 1_555
Mg0 O0 2.091935 1_445
Mg0 O4 2.105448 1_555
Mg0 O5 2.108479 1_555
Mg0 O2 2.125948 1_555
O0 Zn0 1.944926 1_555
O0 Zn1 2.084768 1_554
O0 W0 2.252023 1_554
O0 Ti0 2.350284 1_665
O1 Ti0 1.983446 1_655
O1 W0 2.149457 1_545
O1 Zn1 2.226746 1_655
O2 Zn0 1.964025 1_455
O2 Zn1 2.114744 1_554
O2 W0 2.253354 1_444
O2 Ti0 2.264146 1_665
O3 Ti0 2.019847 1_565
O3 Zn1 2.152305 1_555
O3 W0 2.169176 1_555
O4 Zn0 1.952779 1_555
O4 Zn1 2.096226 1_544
O4 W0 2.246202 1_444
O4 Ti0 2.314304 1_655
O5 Ti0 1.905406 1_555
O5 W0 2.169891 1_555
O5 Zn1 2.295418 1_655
