# generated using pymatgen
data_NaY3NbP3(SO8)3
_symmetry_space_group_name_H-M   'P 1'
_cell_length_a   9.09700881
_cell_length_b   9.08941430
_cell_length_c   23.83281332
_cell_angle_alpha   90.15825051
_cell_angle_beta   90.08050438
_cell_angle_gamma   120.11272758
_symmetry_Int_Tables_number   1
_chemical_formula_structural   NaY3NbP3(SO8)3
_chemical_formula_sum   'Na3 Y9 Nb3 P9 S9 O72'
_cell_volume   1704.67697974
_cell_formula_units_Z   3
loop_
 _symmetry_equiv_pos_site_id
 _symmetry_equiv_pos_as_xyz
  1  'x, y, z'
loop_
 _atom_site_type_symbol
 _atom_site_label
 _atom_site_symmetry_multiplicity
 _atom_site_fract_x
 _atom_site_fract_y
 _atom_site_fract_z
 _atom_site_occupancy
  Na  Na0  1  0.00248763  0.02563778  0.99905920  1
  Na  Na1  1  0.69049469  0.34604578  0.83446272  1
  Na  Na2  1  0.66334749  0.34457742  0.33533230  1
  Y  Y0  1  0.99800827  0.99666382  0.35806695  1
  Y  Y1  1  0.99915677  0.00269146  0.85405101  1
  Y  Y2  1  0.99478362  0.00184211  0.14853760  1
  Y  Y3  1  0.67016049  0.33610422  0.67865542  1
  Y  Y4  1  0.66900822  0.32932991  0.97833069  1
  Y  Y5  1  0.66328065  0.33339922  0.48798177  1
  Y  Y6  1  0.33391845  0.66090658  0.02605829  1
  Y  Y7  1  0.34160171  0.66278420  0.30959189  1
  Y  Y8  1  0.31885048  0.66114849  0.80717541  1
  Nb  Nb0  1  0.00125422  0.99185871  0.64413658  1
  Nb  Nb1  1  0.65873767  0.33195821  0.18236421  1
  Nb  Nb2  1  0.33084977  0.65546995  0.52255595  1
  P  P0  1  0.71460603  0.69658737  0.24965942  1
  P  P1  1  0.99328417  0.71209133  0.74808172  1
  P  P2  1  0.96799689  0.32713913  0.58352370  1
  P  P3  1  0.36393856  0.02559444  0.58285814  1
  P  P4  1  0.66609470  0.63664622  0.58330974  1
  P  P5  1  0.66722826  0.04700295  0.08387541  1
  P  P6  1  0.37581082  0.32818063  0.08251700  1
  P  P7  1  0.04176242  0.37611410  0.91674697  1
  P  P8  1  0.33732902  0.38174365  0.41779417  1
  S  S0  1  0.30444620  0.01378804  0.24931653  1
  S  S1  1  0.98257492  0.29135443  0.25016723  1
  S  S2  1  0.28786274  0.28105564  0.74642946  1
  S  S3  1  0.71655505  0.00344363  0.74678313  1
  S  S4  1  0.95079621  0.61984696  0.08546296  1
  S  S5  1  0.62357804  0.66730260  0.91582577  1
  S  S6  1  0.33217776  0.95699609  0.91656008  1
  S  S7  1  0.61378767  0.95244146  0.41890565  1
  S  S8  1  0.04956938  0.66168739  0.41855213  1
  O  O0  1  0.23249721  0.05010540  0.29960064  1
  O  O1  1  0.82617493  0.77118568  0.30253385  1
  O  O2  1  0.95277470  0.18372195  0.30023838  1
  O  O3  1  0.21027330  0.18383907  0.79792121  1
  O  O4  1  0.97232799  0.79629407  0.80041781  1
  O  O5  1  0.81767364  0.03085717  0.79835770  1
  O  O6  1  0.81097514  0.99260180  0.69674926  1
  O  O7  1  0.18029365  0.18762045  0.69620447  1
  O  O8  1  0.00249430  0.82669972  0.69502865  1
  O  O9  1  0.79757302  0.80469520  0.19829417  1
  O  O10  1  0.01282741  0.21675232  0.20004467  1
  O  O11  1  0.20329092  0.99080696  0.19915785  1
  O  O12  1  0.90025441  0.37821268  0.63368093  1
  O  O13  1  0.47952900  0.09590104  0.63377013  1
  O  O14  1  0.61768431  0.51981825  0.63368861  1
  O  O15  1  0.85500056  0.51303861  0.13670353  1
  O  O16  1  0.65996956  0.15443060  0.13775747  1
  O  O17  1  0.49275666  0.34130913  0.13754501  1
  O  O18  1  0.46208320  0.30807883  0.03135615  1
  O  O19  1  0.84993312  0.54461110  0.03481468  1
  O  O20  1  0.69647175  0.15532989  0.03202484  1
  O  O21  1  0.43333207  0.14442556  0.53266705  1
  O  O22  1  0.71402578  0.56872099  0.53251274  1
  O  O23  1  0.85301660  0.28296689  0.53235877  1
  O  O24  1  0.54195911  0.68218572  0.96729397  1
  O  O25  1  0.14173350  0.46772142  0.97018816  1
  O  O26  1  0.32263503  0.86300095  0.96777976  1
  O  O27  1  0.52268372  0.84833954  0.46911272  1
  O  O28  1  0.32601101  0.48503604  0.47116209  1
  O  O29  1  0.15343723  0.67486899  0.46949569  1
  O  O30  1  0.12889200  0.64321283  0.36742784  1
  O  O31  1  0.51342148  0.87737627  0.36744179  1
  O  O32  1  0.35962575  0.48930414  0.36610027  1
  O  O33  1  0.13338815  0.47505767  0.86299263  1
  O  O34  1  0.34643842  0.87325264  0.86523881  1
  O  O35  1  0.52779898  0.65770693  0.86457739  1
  O  O36  1  0.03939482  0.81894898  0.41580300  1
  O  O37  1  0.77945197  0.95934026  0.41460763  1
  O  O38  1  0.17171687  0.21068846  0.41363007  1
  O  O39  1  0.02177986  0.19554001  0.91595467  1
  O  O40  1  0.17675606  0.97302068  0.91436307  1
  O  O41  1  0.79798654  0.82018311  0.91453298  1
  O  O42  1  0.99957833  0.17890517  0.60001944  1
  O  O43  1  0.18157676  0.99777952  0.59860490  1
  O  O44  1  0.81702293  0.81901505  0.59846686  1
  O  O45  1  0.97305442  0.79049097  0.09210816  1
  O  O46  1  0.82307956  0.02613738  0.09137341  1
  O  O47  1  0.20295053  0.16928206  0.09109060  1
  O  O48  1  0.69350113  0.15313795  0.74079936  1
  O  O49  1  0.45715256  0.29751677  0.74044551  1
  O  O50  1  0.83637539  0.53466049  0.74047901  1
  O  O51  1  0.69272822  0.51215741  0.23765276  1
  O  O52  1  0.82607999  0.30665964  0.24192955  1
  O  O53  1  0.48139351  0.17088545  0.24131973  1
  O  O54  1  0.64018140  0.51249173  0.91757642  1
  O  O55  1  0.86246874  0.35813006  0.91626474  1
  O  O56  1  0.48387400  0.13150582  0.91727114  1
  O  O57  1  0.63855561  0.12594202  0.42472484  1
  O  O58  1  0.49482445  0.36275017  0.42542550  1
  O  O59  1  0.87786732  0.50967540  0.42414678  1
  O  O60  1  0.37104011  0.49225658  0.08344301  1
  O  O61  1  0.11347675  0.62416442  0.08476842  1
  O  O62  1  0.50051557  0.88046605  0.08275540  1
  O  O63  1  0.33280420  0.84495272  0.56580744  1
  O  O64  1  0.51448345  0.66729464  0.56784824  1
  O  O65  1  0.15107953  0.48285987  0.56761694  1
  O  O66  1  0.32952272  0.86859851  0.25725320  1
  O  O67  1  0.53513910  0.66583324  0.25752332  1
  O  O68  1  0.12712244  0.46435798  0.25789676  1
  O  O69  1  0.30026779  0.44851665  0.74870114  1
  O  O70  1  0.15941325  0.70905432  0.74901700  1
  O  O71  1  0.55252152  0.84494601  0.75047614  1
loop_
_geom_bond_atom_site_label_1
_geom_bond_atom_site_label_2
_geom_bond_distance
_geom_bond_site_symmetry_2
Na0 O39 2.466669 1_555
Na0 O47 2.724880 1_556
Na0 O41 2.736647 1_445
Na0 O46 2.742561 1_456
Na0 O40 2.753351 1_545
Na0 O45 3.001898 1_446
Na1 O55 2.465405 1_555
Na1 O54 2.665117 1_555
Na1 O50 2.732052 1_555
Na1 O56 2.753987 1_555
Na1 O48 2.843393 1_555
Na1 O49 2.960212 1_555
Na2 O58 2.692450 1_555
Na2 O51 2.724684 1_555
Na2 O59 2.751915 1_555
Na2 O53 2.756886 1_555
Na2 O52 2.789727 1_555
Na2 O57 2.848516 1_555
Nb0 O8 1.936973 1_555
Nb0 O43 1.946300 1_555
Nb0 O44 1.950683 1_455
Nb0 O42 2.008002 1_465
Nb0 O7 2.105450 1_565
Nb0 O6 2.141582 1_455
Nb1 O17 1.884898 1_555
Nb1 O16 1.934630 1_555
Nb1 O51 1.998344 1_555
Nb1 O15 2.036580 1_555
Nb1 O53 2.090016 1_555
Nb1 O52 2.175451 1_555
Nb2 O65 1.931067 1_555
Nb2 O64 1.944611 1_555
Nb2 O28 1.955253 1_555
Nb2 O63 1.997139 1_555
Nb2 O29 2.125096 1_555
Nb2 O27 2.165607 1_555
O0 S0 1.479990 1_555
O0 Y0 2.387523 1_445
O1 P0 1.542398 1_555
O1 Y0 2.271588 1_555
O2 S1 1.481852 1_555
O2 Y0 2.381811 1_545
O3 S2 1.472285 1_555
O3 Y1 2.243974 1_455
O4 P1 1.523058 1_555
O4 Y1 2.177012 1_565
O5 S3 1.477922 1_555
O5 Y1 2.229979 1_555
O6 S3 1.502193 1_565
O7 S2 1.506271 1_555
O8 P1 1.615834 1_455
O9 P0 1.516215 1_555
O9 Y2 2.151230 1_565
O10 S1 1.464999 1_455
O10 Y2 2.239219 1_455
O11 S0 1.456747 1_565
O11 Y2 2.290956 1_465
O12 P2 1.519964 1_555
O12 Y3 2.209398 1_555
O13 P3 1.517972 1_555
O13 Y3 2.258605 1_555
O14 P4 1.517388 1_555
O14 Y3 2.230049 1_555
O15 S4 1.534245 1_555
O16 P5 1.632453 1_555
O17 P6 1.653428 1_555
O18 P6 1.510424 1_555
O18 Y4 2.195673 1_554
O19 S4 1.459227 1_555
O19 Y4 2.257811 1_554
O20 P5 1.520574 1_555
O20 Y4 2.146646 1_554
O21 P3 1.523519 1_555
O21 Y5 2.207123 1_555
O22 P4 1.518031 1_555
O22 Y5 2.215814 1_555
O23 P2 1.521360 1_555
O23 Y5 2.258173 1_555
O24 S5 1.475345 1_555
O24 Y6 2.285224 1_556
O25 P7 1.540664 1_555
O25 Y6 2.193872 1_556
O26 S6 1.469435 1_555
O26 Y6 2.348798 1_556
O27 S7 1.495381 1_555
O28 P8 1.612634 1_555
O29 S8 1.504543 1_555
O30 S8 1.468473 1_555
O30 Y7 2.310709 1_555
O31 S7 1.473323 1_555
O31 Y7 2.251326 1_555
O32 P8 1.524202 1_555
O32 Y7 2.144193 1_555
O33 P7 1.549846 1_555
O33 Y8 2.152308 1_555
O34 S6 1.478735 1_555
O34 Y8 2.278932 1_555
O35 S5 1.476057 1_555
O35 Y8 2.353338 1_555
O36 S8 1.479643 1_555
O36 Y0 2.294664 1_455
O37 S7 1.480294 1_555
O37 Y0 2.284106 1_555
O38 P8 1.531448 1_555
O38 Y0 2.220456 1_445
O39 P7 1.558124 1_555
O39 Y1 2.216857 1_455
O40 S6 1.493139 1_555
O40 Y1 2.276383 1_465
O41 S5 1.495777 1_555
O41 Y1 2.270071 1_565
O42 P2 1.563169 1_555
O43 P3 1.593202 1_565
O44 P4 1.573203 1_555
O45 S4 1.468084 1_555
O45 Y2 2.267635 1_565
O46 P5 1.532085 1_555
O46 Y2 2.164825 1_555
O47 P6 1.524520 1_555
O47 Y2 2.214444 1_455
O48 S3 1.484237 1_555
O48 Y3 2.317636 1_555
O49 S2 1.477819 1_555
O49 Y3 2.318491 1_555
O50 P1 1.535914 1_555
O50 Y3 2.226057 1_555
O51 P0 1.610620 1_555
O52 S1 1.510869 1_555
O53 S0 1.537015 1_555
O54 S5 1.489350 1_555
O54 Y4 2.321057 1_555
O55 P7 1.555488 1_655
O55 Y4 2.213832 1_555
O56 S6 1.491327 1_545
O56 Y4 2.264355 1_555
O57 S7 1.482956 1_545
O57 Y5 2.331720 1_555
O58 P8 1.537287 1_555
O58 Y5 2.246848 1_555
O59 S8 1.484153 1_655
O59 Y5 2.361325 1_555
O60 P6 1.513695 1_555
O60 Y6 2.205461 1_555
O61 S4 1.460731 1_455
O61 Y6 2.330087 1_555
O62 P5 1.512699 1_565
O62 Y6 2.247211 1_555
O63 P3 1.571828 1_565
O64 P4 1.581224 1_555
O65 P2 1.600109 1_455
O66 S0 1.460386 1_565
O66 Y7 2.299224 1_555
O67 P0 1.523781 1_555
O67 Y7 2.144254 1_555
O68 S1 1.469253 1_455
O68 Y7 2.242248 1_555
O69 S2 1.469590 1_555
O69 Y8 2.315744 1_555
O70 P1 1.525447 1_455
O70 Y8 2.201335 1_555
O71 S3 1.467621 1_565
O71 Y8 2.364913 1_555
