# generated using pymatgen
data_MgFe2(CoO2)4
_symmetry_space_group_name_H-M   'P 1'
_cell_length_a   5.95218318
_cell_length_b   5.95177882
_cell_length_c   5.84733705
_cell_angle_alpha   71.83839536
_cell_angle_beta   77.94887235
_cell_angle_gamma   119.27010358
_symmetry_Int_Tables_number   1
_chemical_formula_structural   MgFe2(CoO2)4
_chemical_formula_sum   'Mg1 Fe2 Co4 O8'
_cell_volume   154.53961184
_cell_formula_units_Z   1
loop_
 _symmetry_equiv_pos_site_id
 _symmetry_equiv_pos_as_xyz
  1  'x, y, z'
loop_
 _atom_site_type_symbol
 _atom_site_label
 _atom_site_symmetry_multiplicity
 _atom_site_fract_x
 _atom_site_fract_y
 _atom_site_fract_z
 _atom_site_occupancy
  Mg  Mg0  1  0.76707825  0.25715476  0.99324553  1
  Fe  Fe0  1  0.28077216  0.77000049  0.99311812  1
  Fe  Fe1  1  0.53270493  0.52136662  0.49214358  1
  Co  Co0  1  0.52681794  0.01484330  0.49249971  1
  Co  Co1  1  0.18536810  0.19948190  0.14301637  1
  Co  Co2  1  0.86123347  0.82615913  0.84197171  1
  Co  Co3  1  0.02453613  0.51550450  0.49439851  1
  O  O0  1  0.83234172  0.52571046  0.18793422  1
  O  O1  1  0.72331228  0.06633864  0.74010766  1
  O  O2  1  0.75229696  0.54458129  0.70847263  1
  O  O3  1  0.28314360  0.07420888  0.71133961  1
  O  O4  1  0.77023754  0.95756511  0.27791593  1
  O  O5  1  0.30266695  0.49021726  0.27494497  1
  O  O6  1  0.32355928  0.95973080  0.24623224  1
  O  O7  1  0.22976368  0.51671986  0.79849222  1
loop_
_geom_bond_atom_site_label_1
_geom_bond_atom_site_label_2
_geom_bond_distance
_geom_bond_site_symmetry_2
Mg0 O2 2.034588 1_555
Mg0 O4 2.036201 1_546
Mg0 O6 2.111447 1_546
Mg0 O1 2.113828 1_555
Mg0 O7 2.168240 1_655
Mg0 O0 2.171073 1_556
Fe0 O5 2.024051 1_556
Fe0 O3 2.024535 1_565
Fe0 O7 2.103805 1_555
Fe0 O0 2.106878 1_456
Fe0 O1 2.107377 1_565
Fe0 O6 2.109176 1_556
Fe1 O2 1.987541 1_555
Fe1 O4 1.987958 1_555
Fe1 O3 2.035929 1_555
Fe1 O5 2.036379 1_555
Fe1 O0 2.224230 1_555
Fe1 O7 2.243342 1_555
Co0 O4 1.944318 1_545
Co0 O3 1.968229 1_555
Co0 O1 2.047265 1_555
Co0 O6 2.068525 1_545
Co0 O7 2.315905 1_545
Co0 O0 2.364062 1_555
Co1 O4 1.949359 1_445
Co1 O6 1.973612 1_545
Co1 O5 1.988092 1_555
Co1 O7 2.147524 1_554
Co2 O2 1.950050 1_555
Co2 O1 1.973090 1_565
Co2 O3 1.984992 1_665
Co2 O0 2.149075 1_556
Co3 O2 1.945479 1_455
Co3 O5 1.971524 1_555
Co3 O6 2.047476 1_555
Co3 O1 2.066046 1_455
Co3 O0 2.319428 1_455
Co3 O7 2.358048 1_555
