# generated using pymatgen
data_Na3MgMo(OF)3
_symmetry_space_group_name_H-M   'P 1'
_cell_length_a   5.90351497
_cell_length_b   5.88047624
_cell_length_c   5.73823517
_cell_angle_alpha   75.77175572
_cell_angle_beta   58.29628909
_cell_angle_gamma   58.03125407
_symmetry_Int_Tables_number   1
_chemical_formula_structural   Na3MgMo(OF)3
_chemical_formula_sum   'Na3 Mg1 Mo1 O3 F3'
_cell_volume   143.63030907
_cell_formula_units_Z   1
loop_
 _symmetry_equiv_pos_site_id
 _symmetry_equiv_pos_as_xyz
  1  'x, y, z'
loop_
 _atom_site_type_symbol
 _atom_site_label
 _atom_site_symmetry_multiplicity
 _atom_site_fract_x
 _atom_site_fract_y
 _atom_site_fract_z
 _atom_site_occupancy
  Na  Na0  1  0.81995774  0.81815009  0.57289019  1
  Na  Na1  1  0.40221990  0.40949968  0.74267653  1
  Na  Na2  1  0.16075153  0.21885084  0.34485217  1
  Mg  Mg0  1  0.65273329  0.58016445  0.14051904  1
  Mo  Mo0  1  0.02704960  0.00874237  0.95504885  1
  O  O0  1  0.40932361  0.76104846  0.94132664  1
  O  O1  1  0.02491558  0.33731427  0.77922970  1
  O  O2  1  0.76288587  0.21966850  0.31194484  1
  F  F0  1  0.63736859  0.07086124  0.95606498  1
  F  F1  1  0.27531123  0.79537992  0.51405423  1
  F  F2  1  0.93085007  0.65452118  0.17809383  1
loop_
_geom_bond_atom_site_label_1
_geom_bond_atom_site_label_2
_geom_bond_distance
_geom_bond_site_symmetry_2
Na0 O0 2.363333 1_555
Na0 O2 2.424964 1_565
Na0 O1 2.664245 1_655
Na1 O2 2.279641 1_555
Na1 O1 2.377388 1_555
Na1 O0 2.622057 1_555
Na2 O1 2.345710 1_555
Na2 O2 2.450782 1_455
Mg0 O0 2.003232 1_554
Mg0 O2 2.017905 1_555
Mg0 O1 2.123701 1_654
Mo0 O0 1.899889 1_545
Mo0 O1 1.944378 1_555
Mo0 O2 2.002042 1_456
F0 Mo0 2.126691 1_655
F0 Na1 2.247809 1_555
F0 Na2 2.327063 1_556
F0 Na0 2.371429 1_545
F1 Mg0 2.118569 1_555
F1 Na1 2.280554 1_555
F1 Na2 2.306406 1_565
F1 Mo0 2.416861 1_565
F1 Na0 2.458744 1_455
F2 Mg0 2.027815 1_555
F2 Na0 2.309187 1_555
F2 Mo0 2.340435 1_664
F2 Na2 2.408162 1_655
F2 Na1 2.505701 1_654
