# generated using pymatgen
data_Na9Nb2Zn4(PO4)9
_symmetry_space_group_name_H-M   'P 1'
_cell_length_a   9.04215973
_cell_length_b   27.00514436
_cell_length_c   22.11976868
_cell_angle_alpha   89.91495577
_cell_angle_beta   89.97847067
_cell_angle_gamma   120.10671306
_symmetry_Int_Tables_number   1
_chemical_formula_structural   Na9Nb2Zn4(PO4)9
_chemical_formula_sum   'Na54 Nb12 Zn24 P54 O216'
_cell_volume   4672.62621450
_cell_formula_units_Z   6
loop_
 _symmetry_equiv_pos_site_id
 _symmetry_equiv_pos_as_xyz
  1  'x, y, z'
loop_
 _atom_site_type_symbol
 _atom_site_label
 _atom_site_symmetry_multiplicity
 _atom_site_fract_x
 _atom_site_fract_y
 _atom_site_fract_z
 _atom_site_occupancy
  Na  Na0  1  0.02123427  0.00364162  0.49080215  1
  Na  Na1  1  0.00915340  0.33178128  0.49203389  1
  Na  Na2  1  0.98627003  0.66897593  0.50642207  1
  Na  Na3  1  0.99774593  0.00335121  0.99373944  1
  Na  Na4  1  0.01554445  0.33761316  0.00760765  1
  Na  Na5  1  0.99765821  0.66193149  0.01016750  1
  Na  Na6  1  0.65209413  0.10641737  0.82977320  1
  Na  Na7  1  0.68080853  0.44896502  0.83693006  1
  Na  Na8  1  0.66719771  0.77803230  0.83318726  1
  Na  Na9  1  0.65393230  0.10326157  0.32136610  1
  Na  Na10  1  0.67798990  0.45164459  0.34509683  1
  Na  Na11  1  0.69319008  0.78301377  0.33239802  1
  Na  Na12  1  0.32362976  0.22323886  0.17465810  1
  Na  Na13  1  0.31195600  0.55133609  0.17527612  1
  Na  Na14  1  0.33587961  0.89216317  0.16018645  1
  Na  Na15  1  0.31741208  0.21759941  0.65900722  1
  Na  Na16  1  0.33584982  0.55246127  0.67369092  1
  Na  Na17  1  0.33497262  0.89355359  0.65583863  1
  Na  Na18  1  0.63916871  0.32737280  0.26144285  1
  Na  Na19  1  0.62009927  0.66597693  0.24623320  1
  Na  Na20  1  0.37590211  0.12514766  0.25481862  1
  Na  Na21  1  0.34946386  0.45338733  0.25764700  1
  Na  Na22  1  0.36881493  0.78628173  0.23801443  1
  Na  Na23  1  0.99689316  0.21117934  0.24837732  1
  Na  Na24  1  0.62435145  0.20814737  0.74935763  1
  Na  Na25  1  0.62338004  0.54201141  0.74545375  1
  Na  Na26  1  0.64228218  0.87435087  0.74303609  1
  Na  Na27  1  0.00036363  0.12630780  0.74979355  1
  Na  Na28  1  0.99582418  0.45694249  0.75538861  1
  Na  Na29  1  0.38138387  0.33379149  0.74997408  1
  Na  Na30  1  0.37987526  0.66713348  0.74709975  1
  Na  Na31  1  0.29811670  0.77860865  0.58233556  1
  Na  Na32  1  0.01659229  0.56740412  0.58857653  1
  Na  Na33  1  0.02352295  0.89177156  0.57544478  1
  Na  Na34  1  0.65051600  0.32089369  0.57199802  1
  Na  Na35  1  0.68494804  0.66474685  0.59068223  1
  Na  Na36  1  0.31049961  0.66401382  0.09165329  1
  Na  Na37  1  0.31721849  0.98897014  0.07800564  1
  Na  Na38  1  0.68207928  0.23421511  0.09485000  1
  Na  Na39  1  0.64899825  0.89228362  0.07575108  1
  Na  Na40  1  0.03527189  0.77777640  0.08356686  1
  Na  Na41  1  0.95177354  0.22163039  0.91692841  1
  Na  Na42  1  0.95368777  0.88880965  0.91951768  1
  Na  Na43  1  0.71004644  0.01355312  0.92141079  1
  Na  Na44  1  0.70856505  0.34725714  0.91734119  1
  Na  Na45  1  0.69123027  0.68146908  0.92313114  1
  Na  Na46  1  0.33756654  0.09854318  0.91151719  1
  Na  Na47  1  0.33276410  0.42903087  0.91679548  1
  Na  Na48  1  0.98308862  0.10148199  0.40874415  1
  Na  Na49  1  0.95683145  0.43003363  0.41207762  1
  Na  Na50  1  0.33565663  0.34378537  0.41829352  1
  Na  Na51  1  0.35545022  0.68301900  0.42183039  1
  Na  Na52  1  0.69370588  0.22784284  0.40549389  1
  Na  Na53  1  0.70929408  0.88896357  0.41894605  1
  Nb  Nb0  1  0.99431931  0.66314465  0.35258143  1
  Nb  Nb1  1  0.99930714  0.66505102  0.85365950  1
  Nb  Nb2  1  0.00321487  0.00222771  0.64549208  1
  Nb  Nb3  1  0.00508450  0.33160661  0.64735733  1
  Nb  Nb4  1  0.99238197  0.99982125  0.15003874  1
  Nb  Nb5  1  0.67296417  0.44535326  0.18311713  1
  Nb  Nb6  1  0.66004955  0.10998529  0.48342908  1
  Nb  Nb7  1  0.32790490  0.22371961  0.01935091  1
  Nb  Nb8  1  0.33024293  0.55331229  0.02097648  1
  Nb  Nb9  1  0.34046610  0.55464876  0.51772941  1
  Nb  Nb10  1  0.33184596  0.89398360  0.31469214  1
  Nb  Nb11  1  0.33425126  0.89072510  0.81284245  1
  Zn  Zn0  1  0.00586220  0.99931380  0.34919769  1
  Zn  Zn1  1  0.99771456  0.33438932  0.34392129  1
  Zn  Zn2  1  0.00356666  0.00063471  0.84709586  1
  Zn  Zn3  1  0.99877126  0.33347815  0.85132830  1
  Zn  Zn4  1  0.00162416  0.67025254  0.65297845  1
  Zn  Zn5  1  0.00633867  0.33383305  0.15073636  1
  Zn  Zn6  1  0.00026116  0.66670543  0.15031111  1
  Zn  Zn7  1  0.65967819  0.10905695  0.68238003  1
  Zn  Zn8  1  0.66137684  0.44552674  0.67852573  1
  Zn  Zn9  1  0.68524483  0.77683193  0.68064343  1
  Zn  Zn10  1  0.67682934  0.11261462  0.17977997  1
  Zn  Zn11  1  0.66391050  0.77848219  0.18061495  1
  Zn  Zn12  1  0.67183691  0.10984222  0.98842081  1
  Zn  Zn13  1  0.67347901  0.44640123  0.98418792  1
  Zn  Zn14  1  0.65077949  0.77963623  0.98549321  1
  Zn  Zn15  1  0.65528767  0.44250442  0.48700153  1
  Zn  Zn16  1  0.69310697  0.78053189  0.48523175  1
  Zn  Zn17  1  0.33198583  0.88558737  0.01410323  1
  Zn  Zn18  1  0.32624770  0.22141585  0.51589594  1
  Zn  Zn19  1  0.32821096  0.88731809  0.51485185  1
  Zn  Zn20  1  0.33524950  0.22076565  0.32286465  1
  Zn  Zn21  1  0.32530231  0.55444784  0.31700438  1
  Zn  Zn22  1  0.33434431  0.22192477  0.81536072  1
  Zn  Zn23  1  0.32990397  0.55497503  0.81960172  1
  P  P0  1  0.29355426  0.00116861  0.24949842  1
  P  P1  1  0.29654903  0.33386612  0.25111577  1
  P  P2  1  0.29384853  0.66461285  0.24839398  1
  P  P3  1  0.70152058  0.23296800  0.24882070  1
  P  P4  1  0.70588828  0.56898048  0.24652118  1
  P  P5  1  0.70129123  0.90074905  0.25494045  1
  P  P6  1  0.99627358  0.09835758  0.25518881  1
  P  P7  1  0.00151948  0.43247496  0.24901945  1
  P  P8  1  -0.00006898  0.76494474  0.24948844  1
  P  P9  1  0.29625217  0.09839682  0.75308016  1
  P  P10  1  0.29592771  0.43011783  0.75321350  1
  P  P11  1  0.29380880  0.76510124  0.74954073  1
  P  P12  1  0.99580412  0.23404331  0.75489460  1
  P  P13  1  0.00280643  0.56923171  0.74659135  1
  P  P14  1  0.00098630  0.90199820  0.75122964  1
  P  P15  1  0.71017781  0.00134119  0.75381108  1
  P  P16  1  0.70923679  0.33463029  0.75078410  1
  P  P17  1  0.70178521  0.66572843  0.74947018  1
  P  P18  1  0.96101939  0.11257373  0.58727868  1
  P  P19  1  0.96263152  0.44447717  0.58388877  1
  P  P20  1  0.97098682  0.77765966  0.58365269  1
  P  P21  1  0.37024387  0.01211243  0.58767513  1
  P  P22  1  0.37063020  0.34410850  0.58405692  1
  P  P23  1  0.37326391  0.67996753  0.58130824  1
  P  P24  1  0.66500550  0.20941117  0.58779949  1
  P  P25  1  0.66866085  0.54335964  0.58430935  1
  P  P26  1  0.66389391  0.87511281  0.58539184  1
  P  P27  1  0.96257846  0.21142386  0.08268211  1
  P  P28  1  0.96307363  0.54333998  0.07898286  1
  P  P29  1  0.96093897  0.87576094  0.08249994  1
  P  P30  1  0.66536586  0.01208675  0.08244069  1
  P  P31  1  0.66842653  0.34605929  0.07878575  1
  P  P32  1  0.66887016  0.68043457  0.08139060  1
  P  P33  1  0.36922320  0.11067088  0.08270888  1
  P  P34  1  0.37234928  0.44299971  0.07936280  1
  P  P35  1  0.36213005  0.77757769  0.08585142  1
  P  P36  1  0.62426232  0.22100754  0.91587231  1
  P  P37  1  0.62337299  0.55426536  0.91284769  1
  P  P38  1  0.63081387  0.88962235  0.91719632  1
  P  P39  1  0.03717638  0.12539709  0.91341845  1
  P  P40  1  0.03701054  0.45713336  0.91358682  1
  P  P41  1  0.04021680  0.79062266  0.91716822  1
  P  P42  1  0.33761143  0.32144519  0.91183083  1
  P  P43  1  0.33229230  0.65367606  0.91571087  1
  P  P44  1  0.33049764  0.98645576  0.91987557  1
  P  P45  1  0.63159507  0.32250251  0.41786805  1
  P  P46  1  0.62984486  0.65421591  0.41262824  1
  P  P47  1  0.62629392  0.98635622  0.42051113  1
  P  P48  1  0.33164229  0.12302493  0.41762341  1
  P  P49  1  0.33688674  0.45684432  0.41158451  1
  P  P50  1  0.33187084  0.79121560  0.41549890  1
  P  P51  1  0.03680380  0.22173967  0.41557749  1
  P  P52  1  0.03955792  0.55500687  0.41709731  1
  P  P53  1  0.03536042  0.88977075  0.42045129  1
  O  O0  1  0.20911721  0.00844955  0.30494677  1
  O  O1  1  0.23630327  0.35041159  0.30939492  1
  O  O2  1  0.17953553  0.66517281  0.30450264  1
  O  O3  1  0.81058946  0.26191325  0.30593908  1
  O  O4  1  0.81693760  0.59849775  0.30592891  1
  O  O5  1  0.79707369  0.92885681  0.31247943  1
  O  O6  1  0.98403598  0.06663656  0.31368804  1
  O  O7  1  0.95649335  0.39815315  0.30893031  1
  O  O8  1  0.98654618  0.72206397  0.30229461  1
  O  O9  1  0.21540148  0.06691811  0.81223406  1
  O  O10  1  0.21729169  0.39727880  0.81200625  1
  O  O11  1  0.18033649  0.72480796  0.80311791  1
  O  O12  1  0.97493206  0.26137070  0.81243294  1
  O  O13  1  0.99403605  0.60570668  0.80297005  1
  O  O14  1  0.97947967  0.92906636  0.80877241  1
  O  O15  1  0.80476032  0.00701119  0.81294739  1
  O  O16  1  0.81286788  0.34269441  0.80877667  1
  O  O17  1  0.81615579  0.66737577  0.80602372  1
  O  O18  1  0.81181052  0.32981239  0.69436421  1
  O  O19  1  0.78474650  0.65913156  0.69200373  1
  O  O20  1  0.80820899  0.99169623  0.69999396  1
  O  O21  1  0.17159176  0.06023219  0.69877254  1
  O  O22  1  0.17533040  0.39270648  0.69882980  1
  O  O23  1  0.20243989  0.74251448  0.68997622  1
  O  O24  1  0.00050255  0.27298930  0.69899210  1
  O  O25  1  0.02215856  0.60414998  0.68950282  1
  O  O26  1  0.02599003  0.94026537  0.69410959  1
  O  O27  1  0.78475265  0.26869837  0.19152720  1
  O  O28  1  0.79496476  0.60770526  0.19353681  1
  O  O29  1  0.79971698  0.93886310  0.19754900  1
  O  O30  1  0.00472135  0.05857811  0.20159362  1
  O  O31  1  0.02345053  0.40123933  0.19609583  1
  O  O32  1  0.04264895  0.74469333  0.19114185  1
  O  O33  1  0.18283805  0.32439639  0.19704648  1
  O  O34  1  0.19865898  0.66230625  0.19074293  1
  O  O35  1  0.17820928  0.99178352  0.19181178  1
  O  O36  1  0.88031468  0.11760769  0.64556838  1
  O  O37  1  0.89720268  0.46030427  0.64070914  1
  O  O38  1  0.89007923  0.78748034  0.64008883  1
  O  O39  1  0.47012287  0.03967941  0.64422093  1
  O  O40  1  0.48031413  0.37362707  0.64009827  1
  O  O41  1  0.47886754  0.70262605  0.63983808  1
  O  O42  1  0.65432806  0.17783147  0.64587126  1
  O  O43  1  0.63766854  0.51283472  0.64549466  1
  O  O44  1  0.63952818  0.83825767  0.64202955  1
  O  O45  1  0.89511437  0.17753538  0.14151141  1
  O  O46  1  0.86432467  0.50441879  0.13557927  1
  O  O47  1  0.87114961  0.83563576  0.13577554  1
  O  O48  1  0.63709719  0.04337236  0.13403331  1
  O  O49  1  0.65042576  0.38024101  0.13466130  1
  O  O50  1  0.62404230  0.70229069  0.13930470  1
  O  O51  1  0.48147125  0.12403695  0.13855016  1
  O  O52  1  0.49461604  0.45254077  0.13538855  1
  O  O53  1  0.46702371  0.78548459  0.14389504  1
  O  O54  1  0.43573724  0.09522804  0.02578640  1
  O  O55  1  0.45310342  0.43805573  0.02116358  1
  O  O56  1  0.45295962  0.76912378  0.03108607  1
  O  O57  1  0.85327416  0.18199436  0.02650281  1
  O  O58  1  0.86333053  0.51596428  0.02250984  1
  O  O59  1  0.85921591  0.85522570  0.02281942  1
  O  O60  1  0.69715353  0.04271555  0.02119907  1
  O  O61  1  0.67952367  0.37773552  0.02077007  1
  O  O62  1  0.69392566  0.71736619  0.02472003  1
  O  O63  1  0.46910134  0.05123647  0.53117028  1
  O  O64  1  0.43750252  0.37790768  0.52514500  1
  O  O65  1  0.45961183  0.71669502  0.52494783  1
  O  O66  1  0.68326824  0.17556468  0.53183726  1
  O  O67  1  0.69621250  0.51203961  0.53258803  1
  O  O68  1  0.70798946  0.85312029  0.52744897  1
  O  O69  1  0.83883436  0.10305992  0.53131539  1
  O  O70  1  0.85148821  0.43158349  0.52784123  1
  O  O71  1  0.85534797  0.76531636  0.52809367  1
  O  O72  1  0.52163789  0.22583295  0.97229587  1
  O  O73  1  0.52503708  0.56380881  0.96675377  1
  O  O74  1  0.54718842  0.89582463  0.97503860  1
  O  O75  1  0.15799313  0.16289992  0.96780154  1
  O  O76  1  0.16166007  0.49537292  0.96792563  1
  O  O77  1  0.13201021  0.81290842  0.97689323  1
  O  O78  1  0.33282080  0.28253669  0.96771906  1
  O  O79  1  0.30707195  0.61520043  0.97271094  1
  O  O80  1  0.31161053  0.95165419  0.97692684  1
  O  O81  1  0.54852486  0.28704764  0.47522946  1
  O  O82  1  0.53493085  0.61592645  0.47037808  1
  O  O83  1  0.53603735  0.94786203  0.47349691  1
  O  O84  1  0.31024660  0.15433424  0.47059423  1
  O  O85  1  0.32746620  0.49639865  0.46525414  1
  O  O86  1  0.30407741  0.81279420  0.47513824  1
  O  O87  1  0.15092955  0.23144406  0.46960595  1
  O  O88  1  0.15902897  0.56536055  0.47408528  1
  O  O89  1  0.13041423  0.89356379  0.47845471  1
  O  O90  1  0.09732357  0.20535512  0.35721801  1
  O  O91  1  0.12525252  0.54861199  0.36134347  1
  O  O92  1  0.15420308  0.89001047  0.36511380  1
  O  O93  1  0.52223543  0.29354071  0.36079535  1
  O  O94  1  0.52707675  0.62574684  0.35591890  1
  O  O95  1  0.51478274  0.95689453  0.36108709  1
  O  O96  1  0.37771884  0.15754962  0.35784566  1
  O  O97  1  0.34977222  0.48851686  0.35305818  1
  O  O98  1  0.34501353  0.83221829  0.36198826  1
  O  O99  1  0.11569366  0.15826386  0.85468057  1
  O  O100  1  0.11811003  0.48877745  0.85447149  1
  O  O101  1  0.15300351  0.83074505  0.86365743  1
  O  O102  1  0.35851074  0.29418745  0.85423599  1
  O  O103  1  0.35422611  0.62663548  0.85808884  1
  O  O104  1  0.33927623  0.94995077  0.86354057  1
  O  O105  1  0.52088475  0.21305479  0.85786320  1
  O  O106  1  0.52889546  0.54869076  0.85379900  1
  O  O107  1  0.51666869  0.88817361  0.86080939  1
  O  O108  1  0.00928311  0.27353639  0.40959870  1
  O  O109  1  0.03166499  0.61268589  0.41396409  1
  O  O110  1  0.01217547  0.94208436  0.41420109  1
  O  O111  1  0.81249256  0.32856072  0.41331846  1
  O  O112  1  0.80989084  0.65799662  0.41087521  1
  O  O113  1  0.80743671  0.99601772  0.41447561  1
  O  O114  1  0.17500308  0.06300884  0.41354878  1
  O  O115  1  0.16692140  0.39974714  0.41824401  1
  O  O116  1  0.17185425  0.72904682  0.40436653  1
  O  O117  1  0.03209467  0.06758796  0.91884512  1
  O  O118  1  0.03550828  0.39976882  0.92001622  1
  O  O119  1  0.01517876  0.72889024  0.90704000  1
  O  O120  1  0.16848446  0.32199842  0.91771584  1
  O  O121  1  0.16411317  0.65842633  0.91133062  1
  O  O122  1  0.17033003  0.99225212  0.91437395  1
  O  O123  1  0.79939318  0.27692113  0.91819541  1
  O  O124  1  0.80425129  0.61203869  0.91255542  1
  O  O125  1  0.80884963  0.94441456  0.91288387  1
  O  O126  1  0.96933074  0.05441506  0.59113265  1
  O  O127  1  0.98585779  0.39112077  0.59322464  1
  O  O128  1  0.99215897  0.72380408  0.58821001  1
  O  O129  1  0.18883655  0.00955968  0.58809071  1
  O  O130  1  0.18546938  0.33747715  0.59379017  1
  O  O131  1  0.18951238  0.66938613  0.58469002  1
  O  O132  1  0.83552398  0.27071834  0.58691919  1
  O  O133  1  0.81932938  0.60556843  0.58471563  1
  O  O134  1  0.83405350  0.93656080  0.59530077  1
  O  O135  1  0.98512231  0.27161170  0.08522483  1
  O  O136  1  0.00445899  0.60480597  0.08719196  1
  O  O137  1  0.97571954  0.93724788  0.09300600  1
  O  O138  1  0.82968620  0.00455178  0.09308784  1
  O  O139  1  0.81653641  0.33525688  0.08670433  1
  O  O140  1  0.82472009  0.67277386  0.08645600  1
  O  O141  1  0.18386654  0.05708416  0.09328353  1
  O  O142  1  0.19356815  0.39388126  0.08927526  1
  O  O143  1  0.18045944  0.72353561  0.08719860  1
  O  O144  1  0.68985377  0.05322749  0.74561541  1
  O  O145  1  0.69195304  0.38843796  0.74380560  1
  O  O146  1  0.68503326  0.71937115  0.75302129  1
  O  O147  1  0.47607364  0.10711386  0.74717273  1
  O  O148  1  0.47480433  0.43710064  0.74637570  1
  O  O149  1  0.46860969  0.76955390  0.75456791  1
  O  O150  1  0.83830505  0.17403786  0.74925243  1
  O  O151  1  0.83633468  0.51158330  0.75130222  1
  O  O152  1  0.84210527  0.84273837  0.74461284  1
  O  O153  1  0.68258315  0.17219113  0.24658056  1
  O  O154  1  0.69126967  0.50832140  0.24285991  1
  O  O155  1  0.67198081  0.84020820  0.24705751  1
  O  O156  1  0.84212704  0.10622413  0.24704057  1
  O  O157  1  0.83396792  0.43810889  0.23786042  1
  O  O158  1  0.83325851  0.76577043  0.25099826  1
  O  O159  1  0.47024259  0.05314339  0.24114021  1
  O  O160  1  0.48487734  0.38946128  0.23961371  1
  O  O161  1  0.46650785  0.72107062  0.25488117  1
  O  O162  1  0.64162557  0.16723187  0.92287635  1
  O  O163  1  0.64358553  0.50234861  0.92104426  1
  O  O164  1  0.64653735  0.83580699  0.91367381  1
  O  O165  1  0.85842032  0.11847289  0.92038748  1
  O  O166  1  0.85726175  0.44847130  0.91945415  1
  O  O167  1  0.86502705  0.78580631  0.91233014  1
  O  O168  1  0.49712484  0.04413913  0.91527163  1
  O  O169  1  0.49512654  0.38148519  0.91747865  1
  O  O170  1  0.49038428  0.71288880  0.92273314  1
  O  O171  1  0.64177500  0.04720817  0.42384573  1
  O  O172  1  0.65106232  0.38347093  0.42002164  1
  O  O173  1  0.64728255  0.71295561  0.42041167  1
  O  O174  1  0.49933346  0.11739369  0.42876971  1
  O  O175  1  0.49108681  0.44912100  0.41984286  1
  O  O176  1  0.49253366  0.78579062  0.41137890  1
  O  O177  1  0.84869825  0.16619439  0.42697971  1
  O  O178  1  0.86351070  0.50302210  0.42556724  1
  O  O179  1  0.86093309  0.83462301  0.41452962  1
  O  O180  1  0.34652047  0.16427299  0.07323157  1
  O  O181  1  0.36382906  0.50116881  0.07559239  1
  O  O182  1  0.34497248  0.83195688  0.08144268  1
  O  O183  1  0.14789318  0.21808369  0.07298823  1
  O  O184  1  0.14453558  0.54601815  0.07866390  1
  O  O185  1  0.14555428  0.88697475  0.07984144  1
  O  O186  1  0.49801817  0.28489552  0.07974239  1
  O  O187  1  0.49906097  0.61898382  0.07158972  1
  O  O188  1  0.51306823  0.95004601  0.08160445  1
  O  O189  1  0.34816643  0.28390296  0.58152170  1
  O  O190  1  0.35624289  0.61762854  0.57381884  1
  O  O191  1  0.32934501  0.95081112  0.57948034  1
  O  O192  1  0.51692540  0.22031502  0.57995792  1
  O  O193  1  0.50232345  0.55004337  0.57399889  1
  O  O194  1  0.50829963  0.88295469  0.58057752  1
  O  O195  1  0.13970178  0.16166654  0.57737433  1
  O  O196  1  0.14830593  0.49816098  0.57300464  1
  O  O197  1  0.15134960  0.83176553  0.57878775  1
  O  O198  1  0.32407885  0.28209367  0.25703157  1
  O  O199  1  0.32049622  0.61305571  0.25280217  1
  O  O200  1  0.30687590  0.94463036  0.25367267  1
  O  O201  1  0.52049339  0.22689352  0.25339272  1
  O  O202  1  0.52489649  0.55938502  0.25259841  1
  O  O203  1  0.51823620  0.89619947  0.25482099  1
  O  O204  1  0.16597438  0.15549611  0.24841808  1
  O  O205  1  0.15816140  0.49244469  0.25292631  1
  O  O206  1  0.16072322  0.82514151  0.26299149  1
  O  O207  1  0.29794648  0.15587055  0.74668064  1
  O  O208  1  0.30111806  0.48796459  0.74789237  1
  O  O209  1  0.31868862  0.82666880  0.75971697  1
  O  O210  1  0.16501413  0.23359584  0.74897721  1
  O  O211  1  0.16310501  0.56347951  0.75220659  1
  O  O212  1  0.16892053  0.89707245  0.75550971  1
  O  O213  1  0.53416663  0.27873720  0.74848874  1
  O  O214  1  0.52331498  0.61091267  0.75407093  1
  O  O215  1  0.52914900  0.94357881  0.75429732  1
loop_
_geom_bond_atom_site_label_1
_geom_bond_atom_site_label_2
_geom_bond_distance
_geom_bond_site_symmetry_2
Na0 O114 2.275389 1_555
Na0 O110 2.347979 1_545
Na0 O113 2.496848 1_445
Na0 O129 2.591107 1_555
Na0 O126 2.771167 1_455
Na0 O134 2.897916 1_445
Na1 O115 2.330357 1_555
Na1 O108 2.410265 1_555
Na1 O111 2.459468 1_455
Na1 O132 2.641819 1_455
Na1 O130 2.718327 1_555
Na1 O127 2.823345 1_455
Na2 O128 2.323148 1_555
Na2 O133 2.367711 1_555
Na2 O131 2.521262 1_655
Na2 O112 2.574534 1_555
Na2 O109 2.701196 1_655
Na2 O116 2.792652 1_655
Na3 O117 2.302339 1_655
Na3 O125 2.435731 1_545
Na3 O122 2.464914 1_645
Na3 O138 2.680806 1_556
Na3 O141 2.710818 1_656
Na3 O137 2.771108 1_546
Na4 O135 2.387233 1_455
Na4 O142 2.391636 1_555
Na4 O139 2.487096 1_455
Na4 O118 2.507996 1_554
Na4 O120 2.574757 1_554
Na4 O123 2.686393 1_454
Na5 O136 2.318169 1_655
Na5 O143 2.378010 1_655
Na5 O140 2.416075 1_555
Na5 O124 2.680166 1_554
Na5 O121 2.682364 1_654
Na5 O119 2.863314 1_654
Na6 O147 2.429812 1_555
Na6 O168 2.448066 1_555
Na6 O144 2.478843 1_555
Na6 O150 2.499091 1_555
Na6 O165 2.645653 1_555
Na6 O162 2.667056 1_555
Na7 O166 2.429290 1_555
Na7 O151 2.455086 1_555
Na7 O163 2.479444 1_555
Na7 O169 2.496576 1_555
Na7 O148 2.643962 1_555
Na7 O145 2.664605 1_555
Na8 O149 2.427379 1_555
Na8 O167 2.436241 1_555
Na8 O164 2.437047 1_555
Na8 O146 2.438114 1_555
Na8 O152 2.570667 1_555
Na8 O170 2.596119 1_555
Na9 O156 2.337950 1_555
Na9 O159 2.343885 1_555
Na9 O153 2.403200 1_555
Na9 O171 2.695302 1_555
Na9 O174 2.877388 1_555
Na9 O177 2.908544 1_555
Na10 O175 2.340172 1_555
Na10 O178 2.362631 1_555
Na10 O172 2.395068 1_555
Na10 O154 2.697476 1_555
Na10 O157 2.875176 1_555
Na10 O160 2.895875 1_555
Na11 O179 2.330742 1_555
Na11 O158 2.378091 1_555
Na11 O155 2.504922 1_555
Na11 O176 2.546409 1_555
Na11 O161 2.551648 1_555
Na11 O173 2.596629 1_555
Na12 O204 2.326789 1_555
Na12 O198 2.418319 1_555
Na12 O201 2.457261 1_555
Na12 O186 2.649515 1_555
Na12 O183 2.717300 1_555
Na12 O180 2.820083 1_555
Na13 O205 2.276983 1_555
Na13 O199 2.367321 1_555
Na13 O202 2.502715 1_555
Na13 O184 2.581573 1_555
Na13 O181 2.750081 1_555
Na13 O187 2.888571 1_555
Na14 O188 2.347145 1_555
Na14 O182 2.413814 1_555
Na14 O185 2.429182 1_555
Na14 O200 2.594918 1_555
Na14 O203 2.633550 1_555
Na14 O206 2.839843 1_555
Na15 O195 2.387354 1_555
Na15 O189 2.389984 1_555
Na15 O192 2.486336 1_555
Na15 O207 2.503317 1_555
Na15 O210 2.577550 1_555
Na15 O213 2.692802 1_555
Na16 O208 2.295341 1_555
Na16 O214 2.419191 1_555
Na16 O211 2.451610 1_555
Na16 O193 2.688759 1_555
Na16 O196 2.739357 1_555
Na16 O190 2.770200 1_555
Na17 O191 2.305978 1_555
Na17 O197 2.382636 1_555
Na17 O194 2.399814 1_555
Na17 O212 2.695445 1_555
Na17 O215 2.698698 1_555
Na17 O209 2.878280 1_555
Na18 O201 2.372023 1_555
Na18 O93 2.409466 1_555
Na18 O198 2.475392 1_555
Na18 O157 2.650985 1_555
Na18 O160 2.708458 1_555
Na18 O7 2.737863 1_555
Na19 O199 2.348943 1_555
Na19 O158 2.403897 1_555
Na19 O161 2.500504 1_555
Na19 O50 2.552502 1_555
Na19 O202 2.561165 1_555
Na19 O94 2.616913 1_555
Na20 O201 2.378186 1_555
Na20 O153 2.408662 1_555
Na20 O204 2.419807 1_555
Na20 O96 2.439467 1_555
Na20 O159 2.503173 1_555
Na20 O51 2.748370 1_555
Na20 O0 2.942080 1_555
Na21 O97 2.314604 1_555
Na21 O205 2.438391 1_555
Na21 O202 2.483172 1_555
Na21 O160 2.600160 1_555
Na21 O1 2.688033 1_555
Na21 O154 2.694062 1_555
Na21 O31 2.893223 1_555
Na21 O52 3.010675 1_555
Na22 O53 2.267436 1_555
Na22 O161 2.362137 1_555
Na22 O155 2.381532 1_555
Na22 O203 2.599026 1_555
Na22 O206 2.632263 1_555
Na22 O32 2.777976 1_555
Na23 O156 2.452295 1_555
Na23 O153 2.487080 1_555
Na23 O45 2.535623 1_555
Na23 O198 2.602733 1_655
Na23 O90 2.605650 1_655
Na23 O204 2.627743 1_655
Na23 O33 2.880128 1_655
Na23 O3 2.941962 1_555
Na24 O147 2.361092 1_555
Na24 O213 2.420479 1_555
Na24 O42 2.492266 1_555
Na24 O150 2.525658 1_555
Na24 O207 2.554925 1_555
Na24 O105 2.603277 1_555
Na25 O43 2.373486 1_555
Na25 O151 2.446838 1_555
Na25 O214 2.450933 1_555
Na25 O148 2.452197 1_555
Na25 O208 2.521340 1_555
Na25 O106 2.580764 1_555
Na26 O152 2.354164 1_555
Na26 O44 2.434061 1_555
Na26 O149 2.465633 1_555
Na26 O215 2.554093 1_555
Na26 O209 2.563895 1_555
Na27 O150 2.388237 1_455
Na27 O207 2.393125 1_555
Na27 O144 2.495651 1_455
Na27 O210 2.506739 1_555
Na27 O36 2.509220 1_455
Na27 O99 2.513942 1_555
Na28 O100 2.412257 1_655
Na28 O145 2.437232 1_555
Na28 O208 2.455387 1_655
Na28 O211 2.490739 1_655
Na28 O151 2.529782 1_555
Na28 O37 2.705635 1_555
Na28 O16 2.918488 1_555
Na29 O210 2.416383 1_555
Na29 O145 2.433939 1_555
Na29 O148 2.477566 1_555
Na29 O213 2.486094 1_555
Na29 O102 2.505160 1_555
Na29 O40 2.624812 1_555
Na30 O146 2.390950 1_555
Na30 O214 2.446644 1_555
Na30 O149 2.469055 1_555
Na30 O211 2.486906 1_555
Na30 O41 2.545602 1_555
Na30 O103 2.648451 1_555
Na31 O197 2.395612 1_555
Na31 O128 2.398421 1_455
Na31 O194 2.486129 1_555
Na31 O86 2.534001 1_555
Na31 O23 2.552100 1_555
Na31 O131 2.600129 1_555
Na32 O131 2.390827 1_555
Na32 O25 2.434688 1_555
Na32 O133 2.468830 1_455
Na32 O190 2.682776 1_555
Na32 O196 2.696198 1_555
Na32 O37 2.777963 1_455
Na32 O67 2.797195 1_455
Na32 O88 2.853901 1_555
Na33 O89 2.343172 1_555
Na33 O191 2.402981 1_555
Na33 O197 2.417865 1_555
Na33 O134 2.582805 1_455
Na33 O68 2.715648 1_455
Na33 O129 2.768311 1_565
Na33 O38 2.830221 1_455
Na33 O26 2.930225 1_555
Na34 O81 2.330086 1_555
Na34 O192 2.361027 1_555
Na34 O189 2.403242 1_555
Na34 O132 2.648880 1_555
Na34 O127 2.691851 1_555
Na34 O70 2.780656 1_555
Na35 O128 2.412069 1_555
Na35 O133 2.448778 1_555
Na35 O19 2.449105 1_555
Na35 O190 2.607746 1_555
Na35 O193 2.707457 1_555
Na35 O71 2.730553 1_555
Na35 O41 2.759534 1_555
Na35 O82 2.979706 1_555
Na36 O34 2.404210 1_555
Na36 O136 2.405374 1_555
Na36 O143 2.423178 1_555
Na36 O187 2.581438 1_555
Na36 O50 2.698657 1_555
Na36 O184 2.773813 1_555
Na36 O56 2.798312 1_555
Na36 O79 2.937696 1_554
Na37 O185 2.389175 1_555
Na37 O80 2.443883 1_554
Na37 O188 2.472794 1_555
Na37 O141 2.679233 1_565
Na37 O137 2.695736 1_455
Na37 O54 2.760601 1_565
Na37 O48 2.793796 1_565
Na37 O35 2.831396 1_555
Na38 O27 2.332863 1_555
Na38 O139 2.371992 1_555
Na38 O135 2.407578 1_555
Na38 O186 2.653109 1_555
Na38 O180 2.693845 1_555
Na38 O51 2.766445 1_555
Na39 O182 2.394436 1_555
Na39 O188 2.425819 1_555
Na39 O74 2.430771 1_554
Na39 O137 2.598307 1_555
Na39 O138 2.653837 1_565
Na39 O59 2.809926 1_555
Na39 O53 2.919239 1_555
Na39 O29 2.998496 1_555
Na40 O143 2.409234 1_555
Na40 O182 2.423671 1_555
Na40 O140 2.500558 1_455
Na40 O77 2.528278 1_554
Na40 O32 2.553118 1_555
Na40 O185 2.597382 1_555
Na40 O47 2.882310 1_455
Na40 O62 2.973233 1_455
Na41 O120 2.420424 1_655
Na41 O162 2.430261 1_555
Na41 O165 2.473699 1_555
Na41 O123 2.488522 1_555
Na41 O12 2.510986 1_555
Na41 O57 2.616839 1_556
Na42 O164 2.406573 1_555
Na42 O125 2.442130 1_555
Na42 O59 2.447176 1_556
Na42 O122 2.482514 1_655
Na42 O167 2.483872 1_555
Na42 O14 2.640909 1_555
Na43 O60 2.367070 1_556
Na43 O125 2.448291 1_545
Na43 O168 2.450016 1_555
Na43 O165 2.452485 1_555
Na43 O117 2.519726 1_655
Na43 O15 2.583071 1_555
Na44 O166 2.365261 1_555
Na44 O123 2.418185 1_555
Na44 O61 2.490484 1_556
Na44 O169 2.523640 1_555
Na44 O118 2.559030 1_655
Na44 O16 2.605235 1_555
Na45 O170 2.358827 1_555
Na45 O62 2.443913 1_556
Na45 O167 2.453837 1_555
Na45 O124 2.556970 1_555
Na45 O119 2.565432 1_655
Na46 O9 2.415263 1_555
Na46 O162 2.438944 1_555
Na46 O117 2.457080 1_555
Na46 O122 2.484901 1_545
Na46 O168 2.524516 1_555
Na46 O54 2.695464 1_556
Na46 O105 2.926474 1_555
Na47 O169 2.386466 1_555
Na47 O118 2.392244 1_555
Na47 O163 2.499220 1_555
Na47 O120 2.500783 1_555
Na47 O10 2.511512 1_555
Na47 O55 2.512081 1_556
Na48 O6 2.306625 1_555
Na48 O114 2.431188 1_655
Na48 O113 2.472023 1_545
Na48 O177 2.612573 1_555
Na48 O171 2.691523 1_555
Na48 O90 2.705070 1_655
Na48 O84 2.903947 1_655
Na48 O69 3.017865 1_555
Na49 O111 2.371728 1_555
Na49 O172 2.401543 1_555
Na49 O115 2.419686 1_655
Na49 O7 2.439281 1_555
Na49 O178 2.521172 1_555
Na49 O70 2.739443 1_555
Na50 O175 2.461244 1_555
Na50 O172 2.493495 1_555
Na50 O64 2.537762 1_555
Na50 O108 2.594218 1_555
Na50 O1 2.608272 1_555
Na50 O115 2.631530 1_555
Na50 O87 2.861250 1_555
Na50 O93 2.933414 1_555
Na51 O173 2.340400 1_555
Na51 O176 2.416436 1_555
Na51 O65 2.462775 1_555
Na51 O116 2.553309 1_555
Na51 O109 2.575270 1_555
Na52 O111 2.377433 1_555
Na52 O3 2.414457 1_555
Na52 O108 2.478191 1_655
Na52 O174 2.643133 1_555
Na52 O177 2.701942 1_555
Na52 O96 2.728530 1_555
Na53 O110 2.372193 1_655
Na53 O179 2.462112 1_555
Na53 O176 2.481044 1_555
Na53 O5 2.543606 1_555
Na53 O113 2.565252 1_555
Na53 O68 2.584373 1_555
Nb0 O2 1.960939 1_655
Nb0 O8 1.970000 1_555
Nb0 O4 1.970460 1_555
Nb0 O116 2.048828 1_655
Nb0 O112 2.056272 1_555
Nb0 O109 2.066605 1_655
Nb1 O13 1.938176 1_555
Nb1 O11 1.968927 1_655
Nb1 O17 1.990538 1_555
Nb1 O119 2.035900 1_655
Nb1 O121 2.036727 1_655
Nb1 O124 2.077752 1_555
Nb2 O21 1.942913 1_555
Nb2 O126 1.988547 1_455
Nb2 O134 2.000716 1_445
Nb2 O129 2.032905 1_555
Nb2 O20 2.034135 1_445
Nb2 O26 2.083118 1_545
Nb3 O24 1.934118 1_555
Nb3 O130 1.956544 1_555
Nb3 O22 1.961446 1_555
Nb3 O18 2.012755 1_455
Nb3 O132 2.078593 1_455
Nb3 O127 2.078896 1_455
Nb4 O30 1.912724 1_665
Nb4 O138 1.989200 1_565
Nb4 O29 1.991406 1_555
Nb4 O35 2.022553 1_655
Nb4 O137 2.054435 1_555
Nb4 O141 2.066821 1_665
Nb5 O46 1.966908 1_555
Nb5 O157 1.977458 1_555
Nb5 O49 1.982035 1_555
Nb5 O52 2.016833 1_555
Nb5 O160 2.037123 1_555
Nb5 O154 2.095183 1_555
Nb6 O63 1.964406 1_555
Nb6 O174 1.976351 1_555
Nb6 O66 1.989925 1_555
Nb6 O69 2.018505 1_555
Nb6 O177 2.041596 1_555
Nb6 O171 2.089059 1_555
Nb7 O78 1.937260 1_554
Nb7 O183 1.956959 1_555
Nb7 O75 1.957955 1_554
Nb7 O72 2.013319 1_554
Nb7 O180 2.071605 1_555
Nb7 O186 2.082917 1_555
Nb8 O76 1.939810 1_554
Nb8 O181 1.989679 1_555
Nb8 O187 2.004998 1_555
Nb8 O73 2.029237 1_554
Nb8 O184 2.037785 1_555
Nb8 O79 2.079210 1_554
Nb9 O85 1.911975 1_555
Nb9 O193 1.972341 1_555
Nb9 O82 2.000414 1_555
Nb9 O196 2.043230 1_555
Nb9 O88 2.045399 1_555
Nb9 O190 2.053116 1_555
Nb10 O92 1.913363 1_555
Nb10 O95 1.965409 1_555
Nb10 O200 2.011961 1_555
Nb10 O98 2.021133 1_555
Nb10 O206 2.068819 1_555
Nb10 O203 2.120101 1_555
Nb11 O104 1.936544 1_555
Nb11 O101 1.975607 1_555
Nb11 O107 1.991557 1_555
Nb11 O212 2.032339 1_555
Nb11 O209 2.038393 1_555
Nb11 O215 2.071062 1_555
O0 P0 1.508812 1_555
O0 Zn0 1.984879 1_545
O1 P1 1.550354 1_555
O1 Zn1 2.118014 1_455
O2 P2 1.619803 1_555
O3 P3 1.552551 1_555
O3 Zn1 2.020676 1_555
O4 P4 1.603621 1_555
O5 P5 1.513381 1_555
O5 Zn0 2.060620 1_655
O6 P6 1.523803 1_555
O6 Zn0 2.077761 1_645
O7 P7 1.548678 1_655
O7 Zn1 2.084049 1_555
O8 P8 1.604760 1_655
O9 P9 1.530263 1_555
O9 Zn2 2.005681 1_555
O10 P10 1.531851 1_555
O10 Zn3 2.051383 1_455
O11 P11 1.586337 1_555
O12 P12 1.530497 1_555
O12 Zn3 2.040234 1_555
O13 P13 1.616692 1_655
O14 P14 1.528868 1_655
O14 Zn2 2.020922 1_665
O15 P15 1.528399 1_555
O15 Zn2 2.035412 1_655
O16 P16 1.538839 1_555
O16 Zn3 2.047860 1_555
O17 P17 1.609758 1_555
O18 P16 1.598539 1_555
O19 P17 1.531109 1_555
O19 Zn4 2.021920 1_655
O20 P15 1.581906 1_565
O21 P9 1.617116 1_555
O22 P10 1.598830 1_555
O23 P11 1.512681 1_555
O23 Zn4 2.055730 1_555
O24 P12 1.608818 1_455
O25 P13 1.531406 1_555
O25 Zn4 2.049917 1_555
O26 P14 1.573834 1_555
O27 P3 1.539697 1_555
O27 Zn5 2.093045 1_655
O28 P4 1.505519 1_555
O28 Zn6 1.981335 1_655
O29 P5 1.593534 1_555
O30 P6 1.628289 1_455
O31 P7 1.513891 1_555
O31 Zn5 2.016721 1_555
O32 P8 1.525653 1_555
O32 Zn6 2.143421 1_555
O33 P1 1.513618 1_555
O33 Zn5 2.017364 1_555
O34 P2 1.522563 1_555
O34 Zn6 2.060801 1_555
O35 P0 1.586507 1_565
O36 P18 1.520783 1_555
O36 Zn7 2.057316 1_555
O37 P19 1.538535 1_555
O37 Zn8 2.133064 1_555
O38 P20 1.535863 1_555
O38 Zn9 1.944611 1_555
O39 P21 1.504461 1_555
O39 Zn7 1.986099 1_555
O40 P22 1.538327 1_555
O40 Zn8 1.997445 1_555
O41 P23 1.542560 1_555
O41 Zn9 2.137246 1_555
O42 P24 1.516804 1_555
O42 Zn7 2.046864 1_555
O43 P25 1.534408 1_555
O43 Zn8 2.066586 1_555
O44 P26 1.544269 1_555
O44 Zn9 2.082320 1_555
O45 P27 1.529315 1_555
O45 Zn10 2.051532 1_555
O46 P28 1.588397 1_555
O47 P29 1.528056 1_555
O47 Zn11 1.992463 1_555
O48 P30 1.516845 1_555
O48 Zn10 1.995364 1_555
O49 P31 1.600038 1_555
O50 P32 1.547779 1_555
O50 Zn11 2.111918 1_555
O51 P33 1.523444 1_555
O51 Zn10 2.143426 1_555
O52 P34 1.593942 1_555
O53 P35 1.546661 1_555
O53 Zn11 2.050185 1_555
O54 P33 1.540655 1_555
O54 Zn12 2.132822 1_554
O55 P34 1.518517 1_555
O55 Zn13 2.058681 1_554
O56 P35 1.543473 1_555
O56 Zn14 1.945648 1_554
O57 P27 1.539002 1_555
O57 Zn12 1.999157 1_554
O58 P28 1.501686 1_555
O58 Zn13 1.991242 1_554
O59 P29 1.545197 1_555
O59 Zn14 2.132430 1_554
O60 P30 1.536137 1_555
O60 Zn12 2.068030 1_554
O61 P31 1.516308 1_555
O61 Zn13 2.047819 1_554
O62 P32 1.544920 1_555
O62 Zn14 2.094516 1_554
O63 P21 1.589111 1_555
O64 P22 1.529393 1_555
O64 Zn15 2.044739 1_555
O65 P23 1.538262 1_555
O65 Zn16 2.131651 1_555
O66 P24 1.596770 1_555
O67 P25 1.516699 1_555
O67 Zn15 1.997167 1_555
O68 P26 1.547211 1_555
O68 Zn16 2.115104 1_555
O69 P18 1.592551 1_555
O70 P19 1.522951 1_555
O70 Zn15 2.139090 1_555
O71 P20 1.538598 1_555
O71 Zn16 1.955623 1_555
O72 P36 1.598963 1_555
O73 P37 1.583935 1_555
O74 P38 1.537467 1_555
O74 Zn17 2.016914 1_556
O75 P39 1.600265 1_555
O76 P40 1.618177 1_555
O77 P41 1.516074 1_555
O77 Zn17 2.060287 1_556
O78 P42 1.607678 1_555
O79 P43 1.574636 1_555
O80 P44 1.529795 1_555
O80 Zn17 2.053988 1_556
O81 P45 1.537863 1_555
O81 Zn18 2.100060 1_555
O82 P46 1.594521 1_555
O83 P47 1.504957 1_555
O83 Zn19 1.988284 1_555
O84 P48 1.513961 1_555
O84 Zn18 2.012293 1_555
O85 P49 1.628669 1_555
O86 P50 1.513935 1_555
O86 Zn19 2.105796 1_555
O87 P51 1.514064 1_555
O87 Zn18 2.016403 1_555
O88 P52 1.591614 1_555
O89 P53 1.519296 1_555
O89 Zn19 2.044189 1_555
O90 P51 1.551042 1_555
O90 Zn20 2.116274 1_555
O91 P52 1.511732 1_555
O91 Zn21 1.992741 1_555
O92 P53 1.626379 1_555
O93 P45 1.552820 1_555
O93 Zn20 2.024208 1_555
O94 P46 1.521546 1_555
O94 Zn21 2.063693 1_555
O95 P47 1.605223 1_555
O96 P48 1.548378 1_555
O96 Zn20 2.077154 1_555
O97 P49 1.522410 1_555
O97 Zn21 2.060630 1_555
O98 P50 1.582783 1_555
O99 P39 1.530895 1_555
O99 Zn22 2.050661 1_555
O100 P40 1.531392 1_555
O100 Zn23 2.004605 1_555
O101 P41 1.581708 1_555
O102 P42 1.530603 1_555
O102 Zn22 2.042726 1_555
O103 P43 1.531344 1_555
O103 Zn23 2.023904 1_555
O104 P44 1.616487 1_555
O105 P36 1.538402 1_555
O105 Zn22 2.047476 1_555
O106 P37 1.526719 1_555
O106 Zn23 2.036052 1_555
O107 P38 1.607195 1_555
O108 P51 1.544239 1_555
O108 Zn1 2.233279 1_455
O109 P52 1.596032 1_555
O110 P53 1.534749 1_555
O110 Zn0 2.131012 1_555
O111 P45 1.563259 1_555
O111 Zn1 2.217885 1_555
O112 P46 1.579720 1_555
O113 P47 1.529605 1_555
O113 Zn0 2.269241 1_655
O114 P48 1.529240 1_555
O114 Zn0 2.166484 1_545
O115 P49 1.543678 1_555
O115 Zn1 2.336707 1_455
O116 P50 1.592882 1_555
O117 P39 1.543102 1_555
O117 Zn2 2.322807 1_555
O118 P40 1.548700 1_555
O118 Zn3 2.243980 1_455
O119 P41 1.582134 1_555
O120 P42 1.542278 1_555
O120 Zn3 2.255008 1_455
O121 P43 1.591905 1_555
O122 P44 1.537621 1_555
O122 Zn2 2.209709 1_565
O123 P36 1.546527 1_555
O123 Zn3 2.235951 1_555
O124 P37 1.596613 1_555
O125 P38 1.549142 1_555
O125 Zn2 2.198276 1_665
O126 P18 1.611728 1_555
O127 P19 1.570246 1_555
O128 P20 1.562348 1_555
O128 Zn4 2.066243 1_655
O129 P21 1.606863 1_555
O130 P22 1.606353 1_555
O131 P23 1.539935 1_555
O131 Zn4 2.281797 1_555
O132 P24 1.599275 1_555
O133 P25 1.543483 1_555
O133 Zn4 2.273633 1_655
O134 P26 1.615216 1_555
O135 P27 1.534427 1_555
O135 Zn5 2.155026 1_655
O136 P28 1.518571 1_455
O136 Zn6 2.194439 1_555
O137 P29 1.614789 1_555
O138 P30 1.614911 1_555
O139 P31 1.517001 1_555
O139 Zn5 2.240732 1_655
O140 P32 1.527672 1_555
O140 Zn6 2.191640 1_655
O141 P33 1.588520 1_555
O142 P34 1.506153 1_555
O142 Zn5 2.140453 1_555
O143 P35 1.556906 1_555
O143 Zn6 2.107692 1_555
O144 P15 1.512479 1_555
O144 Zn7 2.170435 1_555
O145 P16 1.544953 1_555
O145 Zn8 2.227020 1_555
O146 P17 1.532354 1_555
O146 Zn9 2.227258 1_555
O147 P9 1.527100 1_555
O147 Zn7 2.173387 1_555
O148 P10 1.538917 1_555
O148 Zn8 2.182259 1_555
O149 P11 1.527924 1_555
O149 Zn9 2.481929 1_555
O150 P12 1.534651 1_555
O150 Zn7 2.245493 1_555
O151 P13 1.532567 1_655
O151 Zn8 2.335726 1_555
O152 P14 1.529942 1_655
O152 Zn9 2.158263 1_555
O153 P3 1.563297 1_555
O153 Zn10 2.167408 1_555
O154 P4 1.578163 1_555
O155 P5 1.529632 1_555
O155 Zn11 2.197560 1_555
O156 P6 1.522324 1_555
O156 Zn10 2.176454 1_555
O157 P7 1.615798 1_655
O158 P8 1.518742 1_655
O158 Zn11 2.326804 1_555
O159 P0 1.518568 1_555
O159 Zn10 2.211971 1_555
O160 P1 1.628587 1_555
O161 P2 1.547700 1_555
O161 Zn11 2.345709 1_555
O162 P36 1.544565 1_555
O162 Zn12 2.235379 1_555
O163 P37 1.512703 1_555
O163 Zn13 2.170333 1_555
O164 P38 1.531651 1_555
O164 Zn14 2.208497 1_555
O165 P39 1.538766 1_655
O165 Zn12 2.183556 1_555
O166 P40 1.526941 1_655
O166 Zn13 2.172506 1_555
O167 P41 1.526824 1_655
O167 Zn14 2.464307 1_555
O168 P44 1.533570 1_545
O168 Zn12 2.336738 1_555
O169 P42 1.535271 1_555
O169 Zn13 2.241560 1_555
O170 P43 1.527167 1_555
O170 Zn14 2.160093 1_555
O171 P47 1.579593 1_545
O172 P45 1.566389 1_555
O172 Zn15 2.164252 1_555
O173 P46 1.523377 1_555
O173 Zn16 2.192577 1_555
O174 P48 1.616957 1_555
O175 P49 1.520780 1_555
O175 Zn15 2.170296 1_555
O176 P50 1.534169 1_555
O176 Zn16 2.497593 1_555
O177 P51 1.626538 1_655
O178 P52 1.515571 1_655
O178 Zn15 2.228671 1_555
O179 P53 1.538483 1_655
O179 Zn16 2.156392 1_555
O180 P33 1.574383 1_555
O181 P34 1.612927 1_555
O182 P35 1.555080 1_555
O182 Zn17 2.120003 1_555
O183 P27 1.607293 1_455
O184 P28 1.605761 1_455
O185 P29 1.540948 1_455
O185 Zn17 2.240372 1_555
O186 P31 1.596716 1_555
O187 P32 1.613547 1_555
O188 P30 1.545713 1_565
O188 Zn17 2.256242 1_555
O189 P22 1.535184 1_555
O189 Zn18 2.160100 1_555
O190 P23 1.620533 1_555
O191 P21 1.515551 1_565
O191 Zn19 2.230112 1_555
O192 P24 1.518283 1_555
O192 Zn18 2.243805 1_555
O193 P25 1.618407 1_555
O194 P26 1.527916 1_555
O194 Zn19 2.230011 1_555
O195 P18 1.505327 1_455
O195 Zn18 2.135258 1_555
O196 P19 1.592248 1_455
O197 P20 1.554037 1_455
O197 Zn19 2.096021 1_555
O198 P1 1.543526 1_555
O198 Zn20 2.243755 1_555
O199 P2 1.530446 1_555
O199 Zn21 2.141504 1_555
O200 P0 1.593212 1_565
O201 P3 1.564272 1_555
O201 Zn20 2.216690 1_555
O202 P4 1.528994 1_555
O202 Zn21 2.249591 1_555
O203 P5 1.597128 1_555
O204 P6 1.543288 1_455
O204 Zn20 2.337792 1_555
O205 P7 1.528284 1_555
O205 Zn21 2.136971 1_555
O206 P8 1.573643 1_555
O207 P9 1.550721 1_555
O207 Zn22 2.240012 1_555
O208 P10 1.543470 1_555
O208 Zn23 2.322671 1_555
O209 P11 1.578466 1_555
O210 P12 1.541640 1_455
O210 Zn22 2.254827 1_555
O211 P13 1.538314 1_555
O211 Zn23 2.213151 1_555
O212 P14 1.592224 1_555
O213 P16 1.545956 1_555
O213 Zn22 2.239803 1_555
O214 P17 1.552014 1_555
O214 Zn23 2.186959 1_555
O215 P15 1.597219 1_565
