# generated using pymatgen
data_MgZn(NiO2)4
_symmetry_space_group_name_H-M   'P 1'
_cell_length_a   2.90107696
_cell_length_b   8.01439243
_cell_length_c   7.20955135
_cell_angle_alpha   69.24617815
_cell_angle_beta   78.35677100
_cell_angle_gamma   79.63406154
_symmetry_Int_Tables_number   1
_chemical_formula_structural   MgZn(NiO2)4
_chemical_formula_sum   'Mg1 Zn1 Ni4 O8'
_cell_volume   152.44296948
_cell_formula_units_Z   1
loop_
 _symmetry_equiv_pos_site_id
 _symmetry_equiv_pos_as_xyz
  1  'x, y, z'
loop_
 _atom_site_type_symbol
 _atom_site_label
 _atom_site_symmetry_multiplicity
 _atom_site_fract_x
 _atom_site_fract_y
 _atom_site_fract_z
 _atom_site_occupancy
  Mg  Mg0  1  0.06433947  0.84060230  0.02885433  1
  Zn  Zn0  1  0.31284061  0.15298623  0.21709410  1
  Ni  Ni0  1  0.58261900  0.18609400  0.63970382  1
  Ni  Ni1  1  0.15020465  0.49320551  0.20137394  1
  Ni  Ni2  1  0.83162650  0.49687453  0.83501490  1
  Ni  Ni3  1  0.39741981  0.77938974  0.42240914  1
  O  O0  1  0.88259002  0.65465806  0.57584253  1
  O  O1  1  0.42226522  0.36531755  0.78430448  1
  O  O2  1  0.55799828  0.68287637  0.19758875  1
  O  O3  1  0.13173854  0.27442826  0.45449924  1
  O  O4  1  0.07445378  0.05067633  0.78940443  1
  O  O5  1  0.76824711  0.34695946  0.11079266  1
  O  O6  1  0.88812872  0.96005230  0.26166271  1
  O  O7  1  0.23301129  0.62717335  0.90283999  1
loop_
_geom_bond_atom_site_label_1
_geom_bond_atom_site_label_2
_geom_bond_distance
_geom_bond_site_symmetry_2
Mg0 O4 1.937298 1_564
Mg0 O2 2.022550 1_555
Mg0 O2 2.023033 1_455
Mg0 O6 2.147388 1_455
Mg0 O7 2.147402 1_554
Ni0 O4 1.900729 1_655
Ni0 O4 1.902488 1_555
Ni0 O3 1.922711 1_555
Ni0 O3 1.923328 1_655
Ni0 O1 1.997849 1_555
Ni1 O7 2.022192 1_554
Ni1 O3 2.033261 1_555
Ni1 O2 2.076725 1_455
Ni1 O2 2.077440 1_555
Ni1 O5 2.080531 1_555
Ni1 O5 2.080870 1_455
Ni2 O0 1.842147 1_555
Ni2 O1 1.884553 1_655
Ni2 O1 1.885397 1_555
Ni2 O5 1.915568 1_556
Ni2 O7 1.926651 1_555
Ni2 O7 1.927397 1_655
Ni3 O0 1.881599 1_455
Ni3 O0 1.882144 1_555
Ni3 O2 1.973970 1_555
Ni3 O6 2.086319 1_555
Ni3 O6 2.086757 1_455
O3 Zn0 2.187797 1_555
O5 Zn0 2.058062 1_555
O5 Zn0 2.064138 1_655
O6 Zn0 2.045959 1_665
O6 Zn0 2.053095 1_565
