# generated using pymatgen
data_KScF4
_symmetry_space_group_name_H-M   'P 1'
_cell_length_a   8.02127203
_cell_length_b   8.02127203
_cell_length_c   13.33223753
_cell_angle_alpha   72.48081831
_cell_angle_beta   72.48081831
_cell_angle_gamma   29.49799881
_symmetry_Int_Tables_number   1
_chemical_formula_structural   KScF4
_chemical_formula_sum   'K4 Sc4 F16'
_cell_volume   401.39352123
_cell_formula_units_Z   4
loop_
 _symmetry_equiv_pos_site_id
 _symmetry_equiv_pos_as_xyz
  1  'x, y, z'
loop_
 _atom_site_type_symbol
 _atom_site_label
 _atom_site_symmetry_multiplicity
 _atom_site_fract_x
 _atom_site_fract_y
 _atom_site_fract_z
 _atom_site_occupancy
  K  K0  1  0.24444325  0.24444325  0.86513372  1
  K  K1  1  0.75555675  0.75555675  0.13486628  1
  K  K2  1  0.63825782  0.63825782  0.63601471  1
  K  K3  1  0.36174218  0.36174218  0.36398529  1
  Sc  Sc0  1  0.87797147  0.87797147  0.61435096  1
  Sc  Sc1  1  0.12202853  0.12202853  0.38564904  1
  Sc  Sc2  1  0.97335151  0.97335151  0.86000454  1
  Sc  Sc3  1  0.02664849  0.02664849  0.13999546  1
  F  F0  1  -0.00000000  -0.00000000  0.50000000  1
  F  F1  1  -0.00000000  -0.00000000  0.00000000  1
  F  F2  1  0.95529480  0.95529480  0.71542185  1
  F  F3  1  0.04470520  0.04470520  0.28457815  1
  F  F4  1  0.47174366  0.47174366  0.85584379  1
  F  F5  1  0.52825634  0.52825634  0.14415621  1
  F  F6  1  0.76503667  0.76503667  0.73378910  1
  F  F7  1  0.23496333  0.23496333  0.26621090  1
  F  F8  1  0.89505677  0.89505677  0.21829608  1
  F  F9  1  0.10494323  0.10494323  0.78170392  1
  F  F10  1  0.61929926  0.61929926  0.38160436  1
  F  F11  1  0.38070074  0.38070074  0.61839564  1
  F  F12  1  0.18032571  0.18032571  0.49623448  1
  F  F13  1  0.81967429  0.81967429  0.50376552  1
  F  F14  1  0.16117527  0.16117527  0.07102770  1
  F  F15  1  0.83882473  0.83882473  0.92897230  1
loop_
_geom_bond_atom_site_label_1
_geom_bond_atom_site_label_2
_geom_bond_distance
_geom_bond_site_symmetry_2
F0 Sc1 2.027663 1_555
F0 Sc0 2.027663 1_445
F1 Sc3 2.033459 1_555
F1 Sc2 2.033459 1_444
F2 Sc2 2.032321 1_555
F2 Sc0 2.064248 1_555
F3 Sc3 2.032321 1_555
F3 Sc1 2.064248 1_555
F4 Sc2 2.043212 1_455
F4 Sc2 2.043212 1_545
F5 Sc3 2.043212 1_565
F5 Sc3 2.043212 1_655
F6 Sc0 1.966845 1_555
F6 K0 2.643926 1_655
F6 K0 2.643926 1_565
F6 K2 2.676543 1_555
F7 Sc1 1.966845 1_555
F7 K1 2.643926 1_455
F7 K1 2.643926 1_545
F7 K3 2.676543 1_555
F8 Sc3 1.982608 1_665
F8 K1 2.723900 1_555
F8 K3 2.754100 1_565
F8 K3 2.754100 1_655
F9 Sc2 1.982608 1_445
F9 K0 2.723900 1_555
F9 K2 2.754100 1_545
F9 K2 2.754100 1_455
F10 Sc1 2.043594 1_565
F10 Sc1 2.043594 1_655
F11 Sc0 2.043594 1_455
F11 Sc0 2.043594 1_545
F12 Sc1 1.954951 1_555
F12 K2 2.704042 1_455
F12 K2 2.704042 1_545
F12 K3 2.817924 1_555
F13 Sc0 1.954951 1_555
F13 K3 2.704042 1_565
F13 K3 2.704042 1_655
F13 K2 2.817924 1_555
F14 Sc3 2.001624 1_555
F14 K0 2.645054 1_554
F14 K1 2.795419 1_455
F14 K1 2.795419 1_545
F15 Sc2 2.001624 1_555
F15 K1 2.645054 1_556
F15 K0 2.795419 1_655
F15 K0 2.795419 1_565
