# generated using pymatgen
data_MgV2(CoO4)2
_symmetry_space_group_name_H-M   'P 1'
_cell_length_a   5.22852977
_cell_length_b   5.22853107
_cell_length_c   6.38422700
_cell_angle_alpha   90.00000000
_cell_angle_beta   90.00000000
_cell_angle_gamma   66.12681484
_symmetry_Int_Tables_number   1
_chemical_formula_structural   MgV2(CoO4)2
_chemical_formula_sum   'Mg1 V2 Co2 O8'
_cell_volume   159.59690297
_cell_formula_units_Z   1
loop_
 _symmetry_equiv_pos_site_id
 _symmetry_equiv_pos_as_xyz
  1  'x, y, z'
loop_
 _atom_site_type_symbol
 _atom_site_label
 _atom_site_symmetry_multiplicity
 _atom_site_fract_x
 _atom_site_fract_y
 _atom_site_fract_z
 _atom_site_occupancy
  Mg  Mg0  1  0.34053700  0.34053700  0.75000000  1
  V  V0  1  0.35570500  0.35570500  0.25000000  1
  V  V1  1  0.65423400  0.65423400  0.75000000  1
  Co  Co0  1  0.99803800  0.99803800  0.00815800  1
  Co  Co1  1  0.99803800  0.99803800  0.49184200  1
  O  O0  1  0.24064100  0.24064100  0.02463400  1
  O  O1  1  0.24064100  0.24064100  0.47536600  1
  O  O2  1  0.22322500  0.72165000  0.25000000  1
  O  O3  1  0.27556100  0.76230000  0.75000000  1
  O  O4  1  0.72165000  0.22322500  0.25000000  1
  O  O5  1  0.76230000  0.27556100  0.75000000  1
  O  O6  1  0.76971600  0.76971600  0.96037300  1
  O  O7  1  0.76971600  0.76971600  0.53962700  1
loop_
_geom_bond_atom_site_label_1
_geom_bond_atom_site_label_2
_geom_bond_distance
_geom_bond_site_symmetry_2
Mg0 O1 1.959740 1_555
Mg0 O0 1.959740 1_556
Mg0 O5 2.090915 1_555
Mg0 O3 2.090916 1_555
Co0 O6 2.024073 1_554
Co0 O4 2.116893 1_565
Co0 O2 2.116893 1_655
Co0 O0 2.128705 1_665
Co0 O3 2.212109 1_654
Co0 O5 2.212109 1_564
Co1 O7 2.024073 1_555
Co1 O4 2.116893 1_565
Co1 O2 2.116893 1_655
Co1 O1 2.128705 1_665
Co1 O3 2.212109 1_655
Co1 O5 2.212109 1_565
O0 V0 1.756974 1_555
O1 V0 1.756974 1_555
O2 V0 1.751561 1_555
O3 V1 1.825861 1_555
O4 V0 1.751560 1_555
O5 V1 1.825861 1_555
O6 V1 1.681691 1_555
O7 V1 1.681691 1_555
