# generated using pymatgen
data_Tm2(Ni7B2)3
_symmetry_space_group_name_H-M   'P 1'
_cell_length_a   7.45326285
_cell_length_b   7.45320481
_cell_length_c   7.45325288
_cell_angle_alpha   60.00465652
_cell_angle_beta   60.00391467
_cell_angle_gamma   60.00456575
_symmetry_Int_Tables_number   1
_chemical_formula_structural   Tm2(Ni7B2)3
_chemical_formula_sum   'Tm2 Ni21 B6'
_cell_volume   292.79487194
_cell_formula_units_Z   1
loop_
 _symmetry_equiv_pos_site_id
 _symmetry_equiv_pos_as_xyz
  1  'x, y, z'
loop_
 _atom_site_type_symbol
 _atom_site_label
 _atom_site_symmetry_multiplicity
 _atom_site_fract_x
 _atom_site_fract_y
 _atom_site_fract_z
 _atom_site_occupancy
  Tm  Tm0  1  0.24999877  0.24999849  0.25000017  1
  Tm  Tm1  1  0.75000219  0.75000119  0.75000038  1
  Ni  Ni0  1  0.83801524  0.38732116  0.38734357  1
  Ni  Ni1  1  0.16198403  0.61267889  0.61266021  1
  Ni  Ni2  1  0.61268001  0.61265989  0.61267383  1
  Ni  Ni3  1  0.61266118  0.61268230  0.16198447  1
  Ni  Ni4  1  0.38732365  0.83801855  0.38731994  1
  Ni  Ni5  1  0.66309571  0.33690137  -0.00000811  1
  Ni  Ni6  1  -0.00000574  0.33690497  0.66309019  1
  Ni  Ni7  1  0.38732193  0.38733659  0.38732696  1
  Ni  Ni8  1  0.99999931  -0.00001362  0.33690883  1
  Ni  Ni9  1  -0.00000336  1.00001510  0.66309677  1
  Ni  Ni10  1  0.99999557  0.33689503  0.99999298  1
  Ni  Ni11  1  0.66310128  -0.00000171  0.33689766  1
  Ni  Ni12  1  0.33690881  -0.00001052  1.00000006  1
  Ni  Ni13  1  0.00000026  0.66311038  0.00000450  1
  Ni  Ni14  1  0.33689646  1.00000393  0.66309744  1
  Ni  Ni15  1  1.00000219  0.66309194  0.33691203  1
  Ni  Ni16  1  0.33690678  0.66309375  1.00000606  1
  Ni  Ni17  1  0.61267970  0.16198187  0.61268122  1
  Ni  Ni18  1  -0.00000452  1.00000180  0.99999733  1
  Ni  Ni19  1  0.66309689  1.00001209  -0.00000236  1
  Ni  Ni20  1  0.38734320  0.38731691  0.83801538  1
  B  B0  1  0.72959657  0.72959700  0.27040540  1
  B  B1  1  0.72959510  0.27040648  0.72959509  1
  B  B2  1  0.27040471  0.72959718  0.72959707  1
  B  B3  1  0.27040358  0.27040307  0.72959451  1
  B  B4  1  0.27040529  0.72959307  0.27040541  1
  B  B5  1  0.72959519  0.27040288  0.27040301  1
loop_
_geom_bond_atom_site_label_1
_geom_bond_atom_site_label_2
_geom_bond_distance
_geom_bond_site_symmetry_2
Ni0 Tm0 2.507283 1_655
Ni1 Tm1 2.507273 1_455
Ni2 Tm1 2.507101 1_555
Ni3 Tm1 2.507286 1_554
Ni4 Tm0 2.507261 1_565
Ni5 Tm0 2.902093 1_555
Ni5 Tm1 2.902122 1_554
Ni6 Tm0 2.902055 1_555
Ni6 Tm1 2.902107 1_455
Ni7 Tm0 2.507089 1_555
Ni8 Tm0 2.902012 1_655
Ni8 Tm1 2.902088 1_545
Ni9 Tm1 2.902007 1_455
Ni9 Tm0 2.902114 1_565
Ni10 Ni18 2.510918 1_645
Ni10 Tm0 2.902070 1_656
Ni10 Tm1 2.902174 1_555
Ni11 Ni18 2.511131 1_644
Ni11 Tm0 2.902139 1_555
Ni11 Tm1 2.902150 1_545
Ni12 Ni18 2.511068 1_545
Ni12 Tm0 2.901987 1_556
Ni12 Tm1 2.902109 1_545
Ni13 Ni18 2.510876 1_554
Ni13 Tm1 2.902036 1_454
Ni13 Tm0 2.902218 1_555
Ni14 Ni18 2.511154 1_555
Ni14 Tm0 2.902105 1_565
Ni14 Tm1 2.902177 1_555
Ni15 Ni18 2.511261 1_654
Ni15 Tm1 2.902054 1_555
Ni15 Tm0 2.902095 1_655
Ni16 Ni18 2.511240 1_555
Ni16 Tm1 2.902098 1_555
Ni16 Tm0 2.902098 1_556
Ni17 Tm1 2.507265 1_545
Ni18 Ni9 2.510951 1_555
Ni18 Ni19 2.510954 1_456
Ni18 Ni8 2.511043 1_466
Ni18 Ni5 2.511165 1_466
Ni18 Ni6 2.511208 1_565
Ni19 Tm1 2.901996 1_554
Ni19 Tm0 2.902127 1_565
Ni20 Tm0 2.507290 1_556
B0 Ni11 2.075393 1_565
B0 Ni15 2.075486 1_555
B0 Ni13 2.075518 1_655
B0 Ni19 2.075625 1_555
B0 Ni3 2.083158 1_555
B0 Ni2 2.083329 1_555
B0 Ni4 2.083353 1_555
B0 Ni0 2.083370 1_555
B1 Ni5 2.075368 1_556
B1 Ni6 2.075390 1_655
B1 Ni9 2.075497 1_645
B1 Ni19 2.075516 1_546
B1 Ni17 2.083053 1_555
B1 Ni0 2.083222 1_555
B1 Ni20 2.083225 1_555
B1 Ni2 2.083237 1_555
B2 Ni14 2.075420 1_555
B2 Ni16 2.075492 1_555
B2 Ni13 2.075546 1_556
B2 Ni9 2.075635 1_555
B2 Ni1 2.083187 1_555
B2 Ni2 2.083371 1_555
B2 Ni4 2.083378 1_555
B2 Ni20 2.083397 1_555
B3 Ni14 2.075405 1_545
B3 Ni6 2.075510 1_555
B3 Ni10 2.075528 1_455
B3 Ni12 2.075621 1_555
B3 Ni20 2.083178 1_555
B3 Ni7 2.083323 1_555
B3 Ni1 2.083370 1_555
B3 Ni17 2.083372 1_555
B4 Ni16 2.075401 1_554
B4 Ni15 2.075426 1_455
B4 Ni8 2.075527 1_465
B4 Ni12 2.075542 1_564
B4 Ni4 2.083081 1_555
B4 Ni1 2.083242 1_555
B4 Ni3 2.083249 1_555
B4 Ni7 2.083256 1_555
B5 Ni11 2.075428 1_555
B5 Ni5 2.075509 1_555
B5 Ni10 2.075544 1_554
B5 Ni8 2.075623 1_555
B5 Ni0 2.083206 1_555
B5 Ni7 2.083359 1_555
B5 Ni17 2.083384 1_555
B5 Ni3 2.083392 1_555
