# generated using pymatgen
data_MgCoO2
_symmetry_space_group_name_H-M   'P 1'
_cell_length_a   2.96968780
_cell_length_b   2.96968740
_cell_length_c   5.49500496
_cell_angle_alpha   73.77135543
_cell_angle_beta   73.77134276
_cell_angle_gamma   60.14653297
_symmetry_Int_Tables_number   1
_chemical_formula_structural   MgCoO2
_chemical_formula_sum   'Mg1 Co1 O2'
_cell_volume   39.77796864
_cell_formula_units_Z   1
loop_
 _symmetry_equiv_pos_site_id
 _symmetry_equiv_pos_as_xyz
  1  'x, y, z'
loop_
 _atom_site_type_symbol
 _atom_site_label
 _atom_site_symmetry_multiplicity
 _atom_site_fract_x
 _atom_site_fract_y
 _atom_site_fract_z
 _atom_site_occupancy
  Mg  Mg0  1  0.16673800  0.16673800  0.49073300  1
  Co  Co0  1  0.00057400  0.00057400  0.99882300  1
  O  O0  1  0.58561400  0.58561400  0.24829700  1
  O  O1  1  0.41374100  0.41374100  0.74964600  1
loop_
_geom_bond_atom_site_label_1
_geom_bond_atom_site_label_2
_geom_bond_distance
_geom_bond_site_symmetry_2
Mg0 O0 2.126474 1_545
Mg0 O0 2.126474 1_455
Mg0 O0 2.134819 1_555
Mg0 O1 2.175938 1_455
Mg0 O1 2.175938 1_545
Mg0 O1 2.191474 1_555
Co0 O1 2.122845 1_555
Co0 O0 2.130674 1_446
Co0 O0 2.161447 1_456
Co0 O0 2.161448 1_546
Co0 O1 2.164073 1_545
Co0 O1 2.164074 1_455
