# generated using pymatgen
data_Na10Ca3Ge5(PO4)12
_symmetry_space_group_name_H-M   'P 1'
_cell_length_a   17.71101303
_cell_length_b   8.87119732
_cell_length_c   21.84506655
_cell_angle_alpha   90.05759855
_cell_angle_beta   89.97184735
_cell_angle_gamma   120.23640700
_symmetry_Int_Tables_number   1
_chemical_formula_structural   Na10Ca3Ge5(PO4)12
_chemical_formula_sum   'Na30 Ca9 Ge15 P36 O144'
_cell_volume   2965.30872617
_cell_formula_units_Z   3
loop_
 _symmetry_equiv_pos_site_id
 _symmetry_equiv_pos_as_xyz
  1  'x, y, z'
loop_
 _atom_site_type_symbol
 _atom_site_label
 _atom_site_symmetry_multiplicity
 _atom_site_fract_x
 _atom_site_fract_y
 _atom_site_fract_z
 _atom_site_occupancy
  Na  Na0  1  0.32435137  0.01892397  0.25146932  1
  Na  Na1  1  0.68748166  0.35397446  0.25010011  1
  Na  Na2  1  0.31676205  0.62019102  0.75096780  1
  Na  Na3  1  0.81672597  0.61990955  0.75111193  1
  Na  Na4  1  0.15893937  0.34789207  0.57955564  1
  Na  Na5  1  0.65958559  0.35137315  0.57919820  1
  Na  Na6  1  0.01415960  0.68176618  0.58058960  1
  Na  Na7  1  0.51376038  0.67870493  0.57971964  1
  Na  Na8  1  0.32270570  0.96384907  0.57894079  1
  Na  Na9  1  0.82620287  0.97120810  0.58109765  1
  Na  Na10  1  0.15891687  0.96985494  0.07873359  1
  Na  Na11  1  0.66009773  0.97089951  0.07967771  1
  Na  Na12  1  0.32420911  0.68113197  0.07971735  1
  Na  Na13  1  0.82610354  0.68473354  0.07871344  1
  Na  Na14  1  0.01388350  0.34956773  0.07881547  1
  Na  Na15  1  0.51635316  0.34871388  0.08064429  1
  Na  Na16  1  0.66564604  0.01569116  0.41043030  1
  Na  Na17  1  0.34489320  0.67266634  0.41021395  1
  Na  Na18  1  0.00033537  0.99862984  0.49245136  1
  Na  Na19  1  0.49938819  0.02059430  0.49329653  1
  Na  Na20  1  0.99977110  0.99996800  0.99345955  1
  Na  Na21  1  0.50040040  0.00001099  0.99395294  1
  Na  Na22  1  0.33420519  0.31783559  0.83383848  1
  Na  Na23  1  0.83383583  0.31789617  0.83428923  1
  Na  Na24  1  0.33371404  0.34006826  0.32883644  1
  Na  Na25  1  0.84914429  0.34430972  0.33076607  1
  Na  Na26  1  0.15788043  0.64735712  0.16647076  1
  Na  Na27  1  0.66726425  0.68280322  0.16512259  1
  Na  Na28  1  0.15900377  0.66935715  0.66906857  1
  Na  Na29  1  0.65839360  0.66773416  0.66977846  1
  Ca  Ca0  1  0.49972981  0.00485494  0.35252162  1
  Ca  Ca1  1  0.33377214  0.32438444  0.69557805  1
  Ca  Ca2  1  0.83343870  0.32374721  0.69740596  1
  Ca  Ca3  1  0.32715420  0.33326337  0.18806187  1
  Ca  Ca4  1  0.84334007  0.34012488  0.19242055  1
  Ca  Ca5  1  0.16650221  0.66849299  0.99944363  1
  Ca  Ca6  1  0.66641926  0.66634285  0.00160758  1
  Ca  Ca7  1  0.15581710  0.64972424  0.50503807  1
  Ca  Ca8  1  0.67506898  0.67829838  0.50897618  1
  Ge  Ge0  1  0.00130828  0.99801204  0.35061842  1
  Ge  Ge1  1  0.00127481  0.00248412  0.85284111  1
  Ge  Ge2  1  0.50115307  0.00236098  0.85289374  1
  Ge  Ge3  1  0.00199702  0.00211873  0.65032300  1
  Ge  Ge4  1  0.50122226  0.00248578  0.65000423  1
  Ge  Ge5  1  0.99997579  0.00125655  0.14929232  1
  Ge  Ge6  1  0.50049174  0.99739355  0.15042760  1
  Ge  Ge7  1  0.33286229  0.33570098  0.97670467  1
  Ge  Ge8  1  0.83422180  0.33381338  0.97710492  1
  Ge  Ge9  1  0.33014163  0.32006726  0.47838310  1
  Ge  Ge10  1  0.84005427  0.34510691  0.47749958  1
  Ge  Ge11  1  0.16180938  0.66262430  0.31521682  1
  Ge  Ge12  1  0.66722524  0.66826878  0.31555549  1
  Ge  Ge13  1  0.16360813  0.66760159  0.81851403  1
  Ge  Ge14  1  0.66361824  0.66737817  0.81880556  1
  P  P0  1  0.13480959  0.97247150  0.25306609  1
  P  P1  1  0.64336968  0.97600240  0.25253713  1
  P  P2  1  0.34142212  0.70940009  0.25358957  1
  P  P3  1  0.85338489  0.72834204  0.25377301  1
  P  P4  1  0.01184208  0.29091640  0.25453149  1
  P  P5  1  0.51082840  0.31239674  0.24856688  1
  P  P6  1  0.13494644  0.29738818  0.75398830  1
  P  P7  1  0.63471329  0.29708932  0.75422261  1
  P  P8  1  0.01309733  0.73313742  0.75389673  1
  P  P9  1  0.51279996  0.73320188  0.75359014  1
  P  P10  1  0.35339034  0.97905647  0.75526135  1
  P  P11  1  0.85346599  0.97834066  0.75535019  1
  P  P12  1  0.47697521  0.32026075  0.58360212  1
  P  P13  1  0.97595145  0.31925326  0.58412714  1
  P  P14  1  0.18212034  0.04377030  0.58364021  1
  P  P15  1  0.68256233  0.04808497  0.58241669  1
  P  P16  1  0.33902124  0.63319134  0.58505376  1
  P  P17  1  0.84212779  0.63563628  0.58847440  1
  P  P18  1  0.47712339  0.63271085  0.08154586  1
  P  P19  1  0.97962734  0.63807151  0.08061112  1
  P  P20  1  0.33897249  0.04142759  0.08417963  1
  P  P21  1  0.83918466  0.04579076  0.08143006  1
  P  P22  1  0.18018012  0.32136316  0.07942797  1
  P  P23  1  0.68464116  0.32158074  0.08538719  1
  P  P24  1  0.32292904  0.66577280  0.91475801  1
  P  P25  1  0.82278976  0.66502354  0.91494631  1
  P  P26  1  0.01061324  0.35556572  0.91568287  1
  P  P27  1  0.51068135  0.35541232  0.91639240  1
  P  P28  1  0.16707118  0.97888905  0.91561541  1
  P  P29  1  0.66688677  0.97793519  0.91598025  1
  P  P30  1  0.30864821  0.97229461  0.41908449  1
  P  P31  1  0.82475887  0.98110361  0.41586542  1
  P  P32  1  0.16525586  0.35498376  0.41585080  1
  P  P33  1  0.67965248  0.37672270  0.41927041  1
  P  P34  1  0.01322849  0.67101310  0.41576137  1
  P  P35  1  0.51137118  0.64186043  0.41916944  1
  O  O0  1  0.08778419  0.99221689  0.30757249  1
  O  O1  1  0.60622280  0.99321810  0.31220376  1
  O  O2  1  0.38552774  0.78745850  0.31341701  1
  O  O3  1  0.91080969  0.82593661  0.30777960  1
  O  O4  1  0.49809615  0.20516305  0.30442571  1
  O  O5  1  0.00655517  0.17714555  0.30764990  1
  O  O6  1  0.08570939  0.18240568  0.80739203  1
  O  O7  1  0.58552620  0.18236346  0.80769382  1
  O  O8  1  0.50454736  0.83409646  0.80638960  1
  O  O9  1  0.00465198  0.83425188  0.80649794  1
  O  O10  1  0.40857890  0.98423150  0.80875228  1
  O  O11  1  0.90868201  0.98368445  0.80875342  1
  O  O12  1  0.39391729  0.95123253  0.69344285  1
  O  O13  1  0.89426530  0.95187823  0.69347160  1
  O  O14  1  0.08475123  0.21493042  0.69126042  1
  O  O15  1  0.58486808  0.21490621  0.69153757  1
  O  O16  1  0.02477297  0.83499861  0.69121687  1
  O  O17  1  0.52436275  0.83522967  0.69078552  1
  O  O18  1  0.39274269  0.83471802  0.19575190  1
  O  O19  1  0.89458684  0.82964845  0.19143114  1
  O  O20  1  0.02075334  0.21060054  0.19130995  1
  O  O21  1  0.52534460  0.22060511  0.18888080  1
  O  O22  1  0.08530258  0.96074741  0.19080863  1
  O  O23  1  0.58323411  0.95314245  0.19368605  1
  O  O24  1  0.44183250  0.36330748  0.63936373  1
  O  O25  1  0.93759203  0.35612807  0.63924175  1
  O  O26  1  0.23847054  0.11868041  0.63937587  1
  O  O27  1  0.73997340  0.13115115  0.63695299  1
  O  O28  1  0.32422429  0.53114267  0.64354790  1
  O  O29  1  0.82775404  0.53539127  0.64711734  1
  O  O30  1  0.44041240  0.52025716  0.13725504  1
  O  O31  1  0.94668615  0.53088093  0.13803999  1
  O  O32  1  0.32152985  0.10124524  0.14489071  1
  O  O33  1  0.81959677  0.11921672  0.13714105  1
  O  O34  1  0.23364068  0.36197769  0.13685262  1
  O  O35  1  0.73460229  0.35594274  0.14486541  1
  O  O36  1  0.22643616  0.28682167  0.02289319  1
  O  O37  1  0.73240402  0.28914427  0.02928428  1
  O  O38  1  0.41527209  0.54592471  0.02330922  1
  O  O39  1  0.91638316  0.54608793  0.02380926  1
  O  O40  1  0.35433581  0.17273181  0.02972716  1
  O  O41  1  0.85709683  0.16809482  0.02324990  1
  O  O42  1  0.22631401  0.16730553  0.52557578  1
  O  O43  1  0.72487139  0.15718287  0.52132233  1
  O  O44  1  0.35341331  0.54170301  0.52653677  1
  O  O45  1  0.85700823  0.54157732  0.53136752  1
  O  O46  1  0.41340264  0.27912085  0.52613456  1
  O  O47  1  0.91780210  0.29097475  0.52437139  1
  O  O48  1  0.29565515  0.70120325  0.97585096  1
  O  O49  1  0.79525900  0.70127978  0.97579816  1
  O  O50  1  0.05370043  0.40603206  0.97740395  1
  O  O51  1  0.55426480  0.40547244  0.97814735  1
  O  O52  1  0.14792846  0.89223334  0.97725169  1
  O  O53  1  0.64800441  0.89005583  0.97745675  1
  O  O54  1  0.27242377  0.88106077  0.47927538  1
  O  O55  1  0.80172628  0.89977433  0.47895675  1
  O  O56  1  0.14495523  0.39885453  0.47839154  1
  O  O57  1  0.67294584  0.44757188  0.48029873  1
  O  O58  1  0.05433065  0.71026170  0.47853004  1
  O  O59  1  0.55670084  0.66824078  0.48002649  1
  O  O60  1  0.06623697  0.63641369  0.36542270  1
  O  O61  1  0.56586480  0.62568346  0.36428808  1
  O  O62  1  0.24971466  0.86982816  0.36144300  1
  O  O63  1  0.74893525  0.87050722  0.36786531  1
  O  O64  1  0.18337076  0.50268399  0.36744824  1
  O  O65  1  0.68581361  0.49238945  0.36170985  1
  O  O66  1  0.06555393  0.49720357  0.86504573  1
  O  O67  1  0.56509464  0.49690370  0.86551786  1
  O  O68  1  0.18252543  0.86829890  0.86508730  1
  O  O69  1  0.68271791  0.86881929  0.86497976  1
  O  O70  1  0.25592622  0.63646154  0.86116536  1
  O  O71  1  0.75597505  0.63580884  0.86116735  1
  O  O72  1  0.99477323  0.82115789  0.40245574  1
  O  O73  1  0.49535948  0.79490590  0.41204002  1
  O  O74  1  0.40037635  0.00009139  0.41486191  1
  O  O75  1  0.91661613  0.01097339  0.40157671  1
  O  O76  1  0.09062510  0.16700344  0.40229211  1
  O  O77  1  0.60540344  0.18839118  0.41488599  1
  O  O78  1  0.99540620  0.16958263  0.90275487  1
  O  O79  1  0.49538450  0.16957564  0.90305002  1
  O  O80  1  0.09024600  0.01166687  0.90234447  1
  O  O81  1  0.58994614  0.01049016  0.90271040  1
  O  O82  1  0.41732461  0.82126185  0.90334223  1
  O  O83  1  0.91721859  0.82058720  0.90339647  1
  O  O84  1  0.47674018  0.14058536  0.59017719  1
  O  O85  1  0.97600530  0.14046768  0.58926270  1
  O  O86  1  0.09307645  0.04712274  0.58879615  1
  O  O87  1  0.59255255  0.04760516  0.58799641  1
  O  O88  1  0.42852205  0.81573062  0.58864309  1
  O  O89  1  0.93166666  0.81744175  0.59034439  1
  O  O90  1  0.47785857  0.81308520  0.08883204  1
  O  O91  1  0.97905703  0.81669789  0.08714154  1
  O  O92  1  0.42867315  0.03928736  0.08765816  1
  O  O93  1  0.92842000  0.04367430  0.08833435  1
  O  O94  1  0.09068910  0.14096236  0.08618363  1
  O  O95  1  0.59367156  0.14149522  0.08867611  1
  O  O96  1  0.34237782  0.13624141  0.75704014  1
  O  O97  1  0.84214284  0.13513531  0.75751311  1
  O  O98  1  0.22762247  0.32865762  0.75440240  1
  O  O99  1  0.72735211  0.32834577  0.75504567  1
  O  O100  1  0.43062384  0.55442439  0.75393469  1
  O  O101  1  0.93115975  0.55421824  0.75456403  1
  O  O102  1  0.32214735  0.52511641  0.24831894  1
  O  O103  1  0.83712505  0.54267702  0.25452907  1
  O  O104  1  0.43451287  0.34179641  0.24303384  1
  O  O105  1  0.93394911  0.31611420  0.25707246  1
  O  O106  1  0.22902324  0.12210229  0.25428443  1
  O  O107  1  0.73273997  0.13724850  0.24558792  1
  O  O108  1  0.32704891  0.49272626  0.91637168  1
  O  O109  1  0.82668104  0.49180183  0.91717786  1
  O  O110  1  0.41949275  0.34428740  0.91843397  1
  O  O111  1  0.91977881  0.34587838  0.91719601  1
  O  O112  1  0.25414077  0.15968117  0.91745485  1
  O  O113  1  0.75313788  0.16015548  0.91819438  1
  O  O114  1  0.30978546  0.15061094  0.41853189  1
  O  O115  1  0.82509148  0.15949775  0.41720832  1
  O  O116  1  0.25658070  0.36407394  0.41831950  1
  O  O117  1  0.76790183  0.37133546  0.41807953  1
  O  O118  1  0.41941736  0.46928603  0.41966791  1
  O  O119  1  0.92513329  0.49309021  0.41879216  1
  O  O120  1  0.16234096  0.47073103  0.07008591  1
  O  O121  1  0.66829816  0.47320934  0.07462326  1
  O  O122  1  0.07235982  0.67383120  0.07101506  1
  O  O123  1  0.57048342  0.67020687  0.07269296  1
  O  O124  1  0.26309519  0.85721404  0.07258859  1
  O  O125  1  0.76392789  0.85889528  0.07287012  1
  O  O126  1  0.16226260  0.85625071  0.57649998  1
  O  O127  1  0.66346796  0.85984823  0.57822725  1
  O  O128  1  0.26242966  0.66459646  0.57599346  1
  O  O129  1  0.76671274  0.67139390  0.58153741  1
  O  O130  1  0.06979056  0.46908562  0.57824835  1
  O  O131  1  0.57078352  0.46788820  0.57460794  1
  O  O132  1  0.13418039  0.79491259  0.25675118  1
  O  O133  1  0.64770526  0.80306163  0.25437483  1
  O  O134  1  0.25317810  0.71804504  0.25291490  1
  O  O135  1  0.76306598  0.71992631  0.25900131  1
  O  O136  1  0.09865243  0.47154593  0.25931759  1
  O  O137  1  0.60256214  0.48777210  0.25286843  1
  O  O138  1  0.14032572  0.48072524  0.75797820  1
  O  O139  1  0.64022526  0.48075754  0.75826757  1
  O  O140  1  0.09831020  0.72121599  0.75920067  1
  O  O141  1  0.59799209  0.72104036  0.75913319  1
  O  O142  1  0.26144390  0.80421439  0.75812744  1
  O  O143  1  0.76147024  0.80378915  0.75811536  1
loop_
_geom_bond_atom_site_label_1
_geom_bond_atom_site_label_2
_geom_bond_distance
_geom_bond_site_symmetry_2
Na0 O106 2.290924 1_555
Na0 O134 2.307788 1_545
Na0 O32 2.448816 1_555
Na0 O104 2.533196 1_555
Na0 O62 2.740555 1_545
Na0 O18 2.758096 1_545
Na0 O4 2.901100 1_555
Na1 O103 2.316792 1_555
Na1 O137 2.339280 1_555
Na1 O107 2.429064 1_555
Na1 O35 2.442347 1_555
Na1 O65 2.735601 1_555
Na1 O135 2.826875 1_555
Na1 O21 2.830772 1_555
Na2 O98 2.252745 1_555
Na2 O142 2.293386 1_555
Na2 O100 2.365681 1_555
Na2 O28 2.499828 1_555
Na2 O70 2.670226 1_555
Na2 O138 2.724907 1_555
Na2 O12 2.834591 1_555
Na3 O99 2.253870 1_555
Na3 O143 2.291108 1_555
Na3 O101 2.375445 1_555
Na3 O29 2.429996 1_555
Na3 O71 2.665938 1_555
Na3 O139 2.726478 1_555
Na3 O13 2.841970 1_555
Na4 O56 2.294531 1_555
Na4 O130 2.315052 1_555
Na4 O86 2.320964 1_555
Na4 O128 2.464360 1_555
Na4 O42 2.702031 1_555
Na4 O14 2.741176 1_555
Na4 O85 2.814946 1_455
Na4 O28 2.893610 1_555
Na5 O131 2.278090 1_555
Na5 O57 2.291663 1_555
Na5 O87 2.342430 1_555
Na5 O129 2.497420 1_555
Na5 O15 2.761976 1_555
Na5 O43 2.811309 1_555
Na5 O84 2.818267 1_555
Na5 O29 2.973205 1_555
Na6 O126 2.279303 1_555
Na6 O58 2.314993 1_555
Na6 O89 2.323560 1_455
Na6 O130 2.530837 1_555
Na6 O45 2.638891 1_455
Na6 O16 2.731286 1_555
Na6 O25 2.808215 1_455
Na6 O86 2.815554 1_565
Na7 O127 2.307051 1_555
Na7 O59 2.323554 1_555
Na7 O88 2.375321 1_555
Na7 O131 2.536102 1_555
Na7 O44 2.723265 1_555
Na7 O24 2.750441 1_555
Na7 O17 2.753377 1_555
Na7 O87 2.844206 1_565
Na8 O128 2.310159 1_555
Na8 O54 2.326505 1_555
Na8 O84 2.377618 1_565
Na8 O126 2.501400 1_555
Na8 O46 2.685748 1_565
Na8 O88 2.786554 1_555
Na8 O26 2.813096 1_565
Na8 O12 2.829414 1_555
Na9 O55 2.299897 1_555
Na9 O85 2.305066 1_565
Na9 O129 2.315594 1_555
Na9 O127 2.533646 1_555
Na9 O47 2.754022 1_565
Na9 O13 2.778595 1_555
Na9 O89 2.820913 1_555
Na9 O27 2.830461 1_565
Na10 O122 2.284663 1_555
Na10 O52 2.299778 1_554
Na10 O94 2.374325 1_565
Na10 O124 2.505460 1_555
Na10 O36 2.728293 1_565
Na10 O22 2.755296 1_555
Na10 O91 2.769135 1_455
Na10 O32 2.891652 1_565
Na11 O53 2.321457 1_554
Na11 O123 2.322365 1_555
Na11 O95 2.346364 1_565
Na11 O125 2.496144 1_555
Na11 O37 2.680667 1_565
Na11 O33 2.746587 1_565
Na11 O23 2.803963 1_555
Na11 O90 2.804751 1_555
Na12 O124 2.310698 1_555
Na12 O48 2.351234 1_554
Na12 O90 2.367942 1_555
Na12 O120 2.521419 1_555
Na12 O38 2.738915 1_555
Na12 O34 2.752843 1_555
Na12 O92 2.761703 1_565
Na12 O18 2.843466 1_555
Na13 O125 2.308694 1_555
Na13 O49 2.336016 1_554
Na13 O91 2.355621 1_555
Na13 O121 2.461401 1_555
Na13 O39 2.735643 1_555
Na13 O19 2.759175 1_555
Na13 O93 2.766754 1_565
Na13 O35 2.909929 1_555
Na14 O120 2.293176 1_555
Na14 O50 2.302365 1_554
Na14 O93 2.358437 1_455
Na14 O122 2.525240 1_555
Na14 O41 2.696866 1_455
Na14 O31 2.756747 1_455
Na14 O20 2.780490 1_555
Na14 O94 2.799485 1_555
Na15 O51 2.319056 1_554
Na15 O121 2.342154 1_555
Na15 O92 2.382732 1_555
Na15 O123 2.516031 1_555
Na15 O21 2.663745 1_555
Na15 O40 2.719618 1_555
Na15 O30 2.776721 1_555
Na15 O95 2.796683 1_555
Na16 O77 2.267371 1_555
Na16 O1 2.354090 1_545
Na16 O115 2.448628 1_555
Na16 O63 2.570830 1_545
Na16 O73 2.642754 1_545
Na16 O43 2.685962 1_555
Na16 O117 2.739781 1_555
Na17 O2 2.300205 1_555
Na17 O73 2.317071 1_555
Na17 O116 2.379162 1_555
Na17 O74 2.556908 1_565
Na17 O64 2.643029 1_555
Na17 O118 2.727532 1_555
Na17 O44 2.830639 1_555
Na18 O72 2.488206 1_455
Na18 O76 2.502904 1_565
Na18 O75 2.513617 1_465
Na18 O86 2.569535 1_565
Na18 O89 2.582897 1_455
Na18 O85 2.604102 1_465
Na19 O74 2.392710 1_555
Na19 O77 2.421227 1_555
Na19 O84 2.489506 1_555
Na19 O87 2.581436 1_555
Na19 O88 2.631389 1_545
Na19 O73 2.648305 1_545
Na20 O83 2.488790 1_555
Na20 O94 2.495984 1_666
Na20 O78 2.513860 1_565
Na20 O80 2.523887 1_665
Na20 O91 2.524134 1_556
Na20 O93 2.555777 1_566
Na21 O82 2.498829 1_545
Na21 O81 2.519026 1_555
Na21 O79 2.520858 1_555
Na21 O92 2.523335 1_556
Na21 O95 2.548706 1_556
Na21 O90 2.558197 1_546
Na22 O112 2.305348 1_555
Na22 O110 2.323086 1_555
Na22 O96 2.379047 1_555
Na22 O108 2.421980 1_555
Na22 O100 2.600528 1_555
Na22 O98 2.601898 1_555
Na23 O111 2.297799 1_555
Na23 O113 2.312743 1_555
Na23 O97 2.386995 1_555
Na23 O109 2.421952 1_555
Na23 O99 2.596457 1_555
Na23 O101 2.600846 1_555
Na24 O118 2.408557 1_555
Na24 O116 2.454027 1_555
Na24 O114 2.476308 1_555
Na24 O102 2.485042 1_555
Na24 O106 2.492980 1_555
Na24 O104 2.582594 1_555
Na25 O105 2.298974 1_555
Na25 O119 2.336545 1_555
Na25 O115 2.395263 1_555
Na25 O117 2.471790 1_555
Na25 O103 2.509808 1_555
Na25 O107 2.696230 1_555
Na26 O134 2.396399 1_555
Na26 O136 2.450145 1_555
Na26 O132 2.515259 1_555
Na26 O120 2.648115 1_555
Na26 O122 2.657049 1_555
Na26 O124 2.766653 1_555
Na27 O133 2.329572 1_555
Na27 O137 2.447142 1_555
Na27 O135 2.575348 1_555
Na27 O125 2.596536 1_555
Na27 O123 2.614864 1_555
Na27 O121 2.718964 1_555
Na28 O140 2.395421 1_555
Na28 O138 2.475952 1_555
Na28 O142 2.514099 1_555
Na28 O126 2.598385 1_555
Na28 O130 2.599608 1_555
Na28 O128 2.750510 1_555
Na29 O141 2.384066 1_555
Na29 O139 2.461670 1_555
Na29 O143 2.508589 1_555
Na29 O127 2.600930 1_555
Na29 O131 2.664250 1_555
Na29 O129 2.707582 1_555
Ca0 O4 2.077960 1_555
Ca0 O1 2.130263 1_545
Ca0 O2 2.147069 1_545
Ca0 O74 2.208076 1_555
Ca0 O77 2.222350 1_555
Ca0 O73 2.241640 1_545
Ca1 O26 2.140508 1_555
Ca1 O24 2.150131 1_555
Ca1 O96 2.207391 1_555
Ca1 O28 2.236400 1_555
Ca1 O100 2.281115 1_555
Ca1 O98 2.292704 1_555
Ca2 O27 2.133664 1_555
Ca2 O25 2.136463 1_555
Ca2 O97 2.193603 1_555
Ca2 O29 2.221879 1_555
Ca2 O101 2.273292 1_555
Ca2 O99 2.278627 1_555
Ca3 O34 2.118175 1_555
Ca3 O30 2.158142 1_555
Ca3 O102 2.187380 1_555
Ca3 O104 2.218186 1_555
Ca3 O32 2.219352 1_555
Ca3 O106 2.312249 1_555
Ca4 O31 2.123087 1_555
Ca4 O33 2.154381 1_555
Ca4 O107 2.208279 1_555
Ca4 O105 2.227654 1_555
Ca4 O35 2.254383 1_555
Ca4 O103 2.296924 1_555
Ca5 O48 2.216483 1_555
Ca5 O52 2.223179 1_555
Ca5 O50 2.226694 1_555
Ca5 O122 2.302957 1_556
Ca5 O120 2.310807 1_556
Ca5 O124 2.322815 1_556
Ca6 O49 2.215341 1_554
Ca6 O51 2.221005 1_554
Ca6 O53 2.231035 1_554
Ca6 O125 2.313004 1_555
Ca6 O123 2.314203 1_555
Ca6 O121 2.354504 1_555
Ca7 O54 2.127473 1_555
Ca7 O58 2.197341 1_555
Ca7 O56 2.212482 1_555
Ca7 O130 2.234015 1_555
Ca7 O126 2.364433 1_555
Ca7 O128 2.395185 1_555
Ca8 O57 2.122091 1_555
Ca8 O59 2.148414 1_555
Ca8 O55 2.210130 1_555
Ca8 O127 2.291889 1_555
Ca8 O129 2.292079 1_555
Ca8 O131 2.341309 1_555
Ge0 O5 1.808097 1_565
Ge0 O3 1.819188 1_455
Ge0 O0 1.819450 1_555
Ge0 O72 1.891490 1_455
Ge0 O76 1.906304 1_565
Ge0 O75 1.916811 1_465
Ge1 O9 1.828277 1_545
Ge1 O6 1.835056 1_555
Ge1 O11 1.835883 1_445
Ge1 O80 1.879185 1_555
Ge1 O78 1.883859 1_455
Ge1 O83 1.903249 1_445
Ge2 O8 1.830596 1_545
Ge2 O7 1.832035 1_555
Ge2 O10 1.838365 1_545
Ge2 O81 1.884120 1_555
Ge2 O79 1.886966 1_555
Ge2 O82 1.897246 1_545
Ge3 O14 1.929553 1_555
Ge3 O16 1.940117 1_545
Ge3 O13 1.967314 1_445
Ge3 O89 1.973411 1_445
Ge3 O86 1.979480 1_555
Ge3 O85 2.017509 1_455
Ge4 O15 1.937838 1_555
Ge4 O17 1.943871 1_545
Ge4 O12 1.961587 1_545
Ge4 O84 1.983869 1_555
Ge4 O87 1.989573 1_555
Ge4 O88 2.012029 1_545
Ge5 O20 1.932737 1_655
Ge5 O22 1.945357 1_645
Ge5 O19 1.946340 1_545
Ge5 O93 2.000978 1_555
Ge5 O94 2.003419 1_655
Ge5 O91 2.011540 1_545
Ge6 O23 1.943228 1_555
Ge6 O18 1.982950 1_555
Ge6 O21 1.984836 1_565
Ge6 O90 1.995137 1_555
Ge6 O95 2.013444 1_565
Ge6 O92 2.028569 1_565
Ge7 O108 1.958672 1_555
Ge7 O110 1.964900 1_555
Ge7 O112 1.965328 1_555
Ge7 O38 1.975099 1_556
Ge7 O36 1.983642 1_556
Ge7 O40 2.033213 1_556
Ge8 O111 1.963496 1_555
Ge8 O113 1.965053 1_555
Ge8 O109 1.971882 1_555
Ge8 O39 1.985542 1_556
Ge8 O41 1.986147 1_556
Ge8 O37 1.996844 1_556
Ge9 O114 1.884127 1_555
Ge9 O42 1.942158 1_555
Ge9 O118 1.947040 1_555
Ge9 O46 1.984031 1_555
Ge9 O116 2.021470 1_555
Ge9 O44 2.079027 1_555
Ge10 O119 1.909948 1_555
Ge10 O117 1.916701 1_555
Ge10 O47 1.960478 1_555
Ge10 O45 1.995453 1_555
Ge10 O115 2.018073 1_555
Ge10 O43 2.105570 1_555
Ge11 O136 1.924383 1_555
Ge11 O60 1.929872 1_555
Ge11 O132 1.957008 1_555
Ge11 O134 1.977521 1_555
Ge11 O62 1.984442 1_555
Ge11 O64 2.002562 1_555
Ge12 O133 1.937947 1_555
Ge12 O61 1.953112 1_555
Ge12 O135 1.957865 1_555
Ge12 O137 1.975099 1_555
Ge12 O63 2.000370 1_555
Ge12 O65 2.019945 1_555
Ge13 O66 1.921368 1_555
Ge13 O68 1.926961 1_555
Ge13 O140 1.949163 1_555
Ge13 O138 1.993690 1_555
Ge13 O70 2.018593 1_555
Ge13 O142 2.024203 1_555
Ge14 O69 1.926969 1_555
Ge14 O67 1.927910 1_555
Ge14 O141 1.958778 1_555
Ge14 O139 1.991661 1_555
Ge14 O71 2.018363 1_555
Ge14 O143 2.028392 1_555
O0 P0 1.512496 1_555
O1 P1 1.501675 1_555
O2 P2 1.500731 1_555
O3 P3 1.512660 1_555
O4 P5 1.493588 1_555
O5 P4 1.510285 1_555
O6 P6 1.505798 1_555
O7 P7 1.505852 1_555
O8 P9 1.510746 1_555
O9 P8 1.510052 1_555
O10 P10 1.509553 1_555
O11 P11 1.507934 1_555
O12 P10 1.605177 1_555
O13 P11 1.604278 1_555
O14 P6 1.596047 1_555
O15 P7 1.592794 1_555
O16 P8 1.596296 1_555
O17 P9 1.599689 1_555
O18 P2 1.625558 1_555
O19 P3 1.592432 1_555
O20 P4 1.597186 1_555
O21 P5 1.624065 1_555
O22 P0 1.593211 1_555
O23 P1 1.616031 1_555
O24 P12 1.501577 1_555
O25 P13 1.496790 1_555
O26 P14 1.500564 1_555
O27 P15 1.497005 1_555
O28 P16 1.511319 1_555
O29 P17 1.506893 1_555
O30 P18 1.499124 1_555
O31 P19 1.503799 1_555
O32 P20 1.516318 1_555
O33 P21 1.500447 1_555
O34 P22 1.502209 1_555
O35 P23 1.514190 1_555
O36 P22 1.594166 1_555
O37 P23 1.594944 1_555
O38 P18 1.600374 1_555
O39 P19 1.593423 1_555
O40 P20 1.590304 1_555
O41 P21 1.596515 1_555
O42 P14 1.600143 1_555
O43 P15 1.597057 1_555
O44 P16 1.601157 1_555
O45 P17 1.594062 1_555
O46 P12 1.601101 1_555
O47 P13 1.602510 1_555
O48 P24 1.504880 1_555
O49 P25 1.504901 1_555
O50 P26 1.502135 1_555
O51 P27 1.505837 1_555
O52 P28 1.502655 1_555
O53 P29 1.504072 1_555
O54 P30 1.507948 1_555
O55 P31 1.513774 1_555
O56 P32 1.512163 1_555
O57 P33 1.503272 1_555
O58 P34 1.508661 1_555
O59 P35 1.509266 1_555
O60 P34 1.572699 1_555
O61 P35 1.589788 1_555
O62 P30 1.595215 1_555
O63 P31 1.593065 1_555
O64 P32 1.586454 1_555
O65 P33 1.592349 1_555
O66 P26 1.587327 1_555
O67 P27 1.588348 1_555
O68 P28 1.588626 1_555
O69 P29 1.589883 1_555
O70 P24 1.592621 1_555
O71 P25 1.593594 1_555
O72 P34 1.550741 1_655
O73 P35 1.528480 1_555
O74 P30 1.518243 1_545
O75 P31 1.542691 1_545
O76 P32 1.547645 1_555
O77 P33 1.522125 1_555
O78 P26 1.557575 1_655
O79 P27 1.557400 1_555
O80 P28 1.555313 1_545
O81 P29 1.556051 1_545
O82 P24 1.561295 1_555
O83 P25 1.562363 1_555
O84 P12 1.598454 1_555
O85 P13 1.590597 1_555
O86 P14 1.596163 1_555
O87 P15 1.596625 1_555
O88 P16 1.598675 1_555
O89 P17 1.594284 1_555
O90 P18 1.601389 1_555
O91 P19 1.595985 1_555
O92 P20 1.600178 1_555
O93 P21 1.597198 1_555
O94 P22 1.593959 1_555
O95 P23 1.600326 1_555
O96 P10 1.502582 1_545
O97 P11 1.502667 1_545
O98 P6 1.520731 1_555
O99 P7 1.520205 1_555
O100 P9 1.519504 1_555
O101 P8 1.518447 1_655
O102 P2 1.496666 1_555
O103 P3 1.522626 1_555
O104 P5 1.504919 1_555
O105 P4 1.505565 1_655
O106 P0 1.521917 1_545
O107 P1 1.514751 1_545
O108 P24 1.573568 1_555
O109 P25 1.573321 1_555
O110 P27 1.568280 1_555
O111 P26 1.567587 1_655
O112 P28 1.568750 1_545
O113 P29 1.569047 1_545
O114 P30 1.571891 1_545
O115 P31 1.579854 1_545
O116 P32 1.579331 1_555
O117 P33 1.587788 1_555
O118 P35 1.576438 1_555
O119 P34 1.565226 1_655
O120 P22 1.523003 1_555
O121 P23 1.530121 1_555
O122 P19 1.522193 1_455
O123 P18 1.525775 1_555
O124 P20 1.525899 1_565
O125 P21 1.527874 1_565
O126 P14 1.525000 1_565
O127 P15 1.530434 1_565
O128 P16 1.529027 1_555
O129 P17 1.527951 1_555
O130 P13 1.523387 1_455
O131 P12 1.524111 1_555
O132 P0 1.571722 1_555
O133 P1 1.574810 1_555
O134 P2 1.602956 1_555
O135 P3 1.567490 1_555
O136 P4 1.568779 1_555
O137 P5 1.588420 1_555
O138 P6 1.582902 1_555
O139 P7 1.584823 1_555
O140 P8 1.569477 1_555
O141 P9 1.570684 1_555
O142 P10 1.586764 1_555
O143 P11 1.585959 1_555
