# generated using pymatgen
data_Na15Mg2Ta10Si15(PO24)3
_symmetry_space_group_name_H-M   'P 1'
_cell_length_a   8.98133639
_cell_length_b   8.99119287
_cell_length_c   22.53285376
_cell_angle_alpha   90.04067548
_cell_angle_beta   90.02457605
_cell_angle_gamma   119.95730370
_symmetry_Int_Tables_number   1
_chemical_formula_structural   Na15Mg2Ta10Si15(PO24)3
_chemical_formula_sum   'Na15 Mg2 Ta10 Si15 P3 O72'
_cell_volume   1576.49104499
_cell_formula_units_Z   1
loop_
 _symmetry_equiv_pos_site_id
 _symmetry_equiv_pos_as_xyz
  1  'x, y, z'
loop_
 _atom_site_type_symbol
 _atom_site_label
 _atom_site_symmetry_multiplicity
 _atom_site_fract_x
 _atom_site_fract_y
 _atom_site_fract_z
 _atom_site_occupancy
  Na  Na0  1  0.63429190  0.01882665  0.24468320  1
  Na  Na1  1  0.38220047  0.36688000  0.24123057  1
  Na  Na2  1  0.98623294  0.61572972  0.24054558  1
  Na  Na3  1  0.63296483  0.61769188  0.74194932  1
  Na  Na4  1  0.97964697  0.36769988  0.74315415  1
  Na  Na5  1  0.38310640  0.01342699  0.74029084  1
  Na  Na6  1  0.02229999  0.68536211  0.58466004  1
  Na  Na7  1  0.66044985  0.97784003  0.58490756  1
  Na  Na8  1  0.02288119  0.33886105  0.08627687  1
  Na  Na9  1  0.01120495  0.01197280  0.49763960  1
  Na  Na10  1  0.00085800  0.98822836  0.99878660  1
  Na  Na11  1  0.67242095  0.33223088  0.83200547  1
  Na  Na12  1  0.66741859  0.32899093  0.33246891  1
  Na  Na13  1  0.34179449  0.67497000  0.16189578  1
  Na  Na14  1  0.33226564  0.65398418  0.66291781  1
  Mg  Mg0  1  0.66972552  0.33446873  0.68407443  1
  Mg  Mg1  1  0.66600886  0.33258131  0.18391703  1
  Ta  Ta0  1  0.00367998  0.00541937  0.35805484  1
  Ta  Ta1  1  0.99505454  0.99666487  0.85862816  1
  Ta  Ta2  1  0.99910725  0.99746432  0.64335479  1
  Ta  Ta3  1  0.00792413  0.00008280  0.14271448  1
  Ta  Ta4  1  0.66407259  0.33761175  0.97878433  1
  Ta  Ta5  1  0.66614626  0.33216317  0.47901696  1
  Ta  Ta6  1  0.33318515  0.66745224  0.02010668  1
  Ta  Ta7  1  0.33404309  0.66465316  0.51934770  1
  Ta  Ta8  1  0.32966086  0.66539991  0.31427970  1
  Ta  Ta9  1  0.33306666  0.67008593  0.81469871  1
  Si  Si0  1  0.29025885  0.99929237  0.25108881  1
  Si  Si1  1  0.00014276  0.28921780  0.24978396  1
  Si  Si2  1  0.00023275  0.71008950  0.75093287  1
  Si  Si3  1  0.70918815  0.99869193  0.75077779  1
  Si  Si4  1  0.95815026  0.33635383  0.58588226  1
  Si  Si5  1  0.38000828  0.04771423  0.58572008  1
  Si  Si6  1  0.65867358  0.61427618  0.58673818  1
  Si  Si7  1  0.95458473  0.62164830  0.08595641  1
  Si  Si8  1  0.38297178  0.33861291  0.08669168  1
  Si  Si9  1  0.62008653  0.66274375  0.91658321  1
  Si  Si10  1  0.04088027  0.37716839  0.91726510  1
  Si  Si11  1  0.33701678  0.96047675  0.91754827  1
  Si  Si12  1  0.62314434  0.95960107  0.41654034  1
  Si  Si13  1  0.33923761  0.37891972  0.41572622  1
  Si  Si14  1  0.03918872  0.66388831  0.41754998  1
  P  P0  1  0.71493606  0.71918289  0.25076046  1
  P  P1  1  0.28248967  0.28588347  0.75158466  1
  P  P2  1  0.66312560  0.04219662  0.08525909  1
  O  O0  1  0.18321831  0.01294358  0.30727662  1
  O  O1  1  0.82409395  0.80975228  0.30623774  1
  O  O2  1  0.98171326  0.16590477  0.30623013  1
  O  O3  1  0.19089011  0.17732845  0.80679368  1
  O  O4  1  0.99097207  0.82156382  0.80671615  1
  O  O5  1  0.83356622  0.01764691  0.80688512  1
  O  O6  1  0.80254536  0.97017519  0.69136826  1
  O  O7  1  0.16724468  0.19715970  0.69600260  1
  O  O8  1  0.03282931  0.83230200  0.69126713  1
  O  O9  1  0.80077648  0.83404447  0.19548591  1
  O  O10  1  0.02793105  0.19659518  0.19041345  1
  O  O11  1  0.16177413  0.96684424  0.19284748  1
  O  O12  1  0.89198456  0.38015972  0.64567114  1
  O  O13  1  0.49213902  0.11305964  0.64507333  1
  O  O14  1  0.63232569  0.51765924  0.64800960  1
  O  O15  1  0.88864459  0.50943703  0.14529570  1
  O  O16  1  0.63679688  0.11120308  0.14375869  1
  O  O17  1  0.48089664  0.36364488  0.14770713  1
  O  O18  1  0.47558075  0.30910828  0.02852795  1
  O  O19  1  0.83424848  0.52088683  0.02813110  1
  O  O20  1  0.69506642  0.16228333  0.03146336  1
  O  O21  1  0.47399500  0.16653407  0.52728707  1
  O  O22  1  0.69896309  0.52654404  0.52956405  1
  O  O23  1  0.82931923  0.29942471  0.52887155  1
  O  O24  1  0.52330476  0.68945733  0.97268107  1
  O  O25  1  0.16182452  0.47156084  0.97498051  1
  O  O26  1  0.30821745  0.83336540  0.97270211  1
  O  O27  1  0.52916777  0.84147914  0.47454611  1
  O  O28  1  0.31178749  0.47758804  0.47151650  1
  O  O29  1  0.16067319  0.69262873  0.47495634  1
  O  O30  1  0.13730089  0.64095851  0.35823245  1
  O  O31  1  0.50496880  0.86209701  0.35715975  1
  O  O32  1  0.35930875  0.49279641  0.35573270  1
  O  O33  1  0.13642922  0.49602429  0.85785421  1
  O  O34  1  0.36031170  0.86543248  0.85724085  1
  O  O35  1  0.50615381  0.63996884  0.85640414  1
  O  O36  1  0.02134325  0.83414310  0.40925947  1
  O  O37  1  0.81141106  0.97490895  0.40962107  1
  O  O38  1  0.16532441  0.19001649  0.41042986  1
  O  O39  1  0.02704014  0.18999526  0.90986417  1
  O  O40  1  0.16692655  0.97886418  0.90947662  1
  O  O41  1  0.81058541  0.83402480  0.91040039  1
  O  O42  1  0.97159248  0.15985108  0.59054324  1
  O  O43  1  0.18397698  0.02073210  0.58956238  1
  O  O44  1  0.83790053  0.81207484  0.58954807  1
  O  O45  1  0.96847975  0.81150645  0.08969886  1
  O  O46  1  0.83094681  0.02814564  0.08906894  1
  O  O47  1  0.18141478  0.16574107  0.08864388  1
  O  O48  1  0.68510393  0.16379668  0.74938803  1
  O  O49  1  0.46089207  0.30656996  0.74777247  1
  O  O50  1  0.83129037  0.52407884  0.75070667  1
  O  O51  1  0.69358157  0.53988774  0.24731754  1
  O  O52  1  0.83445962  0.31319637  0.24883662  1
  O  O53  1  0.47742504  0.16639255  0.24848577  1
  O  O54  1  0.64077702  0.49361525  0.92372518  1
  O  O55  1  0.85142215  0.35563207  0.92460204  1
  O  O56  1  0.50886687  0.14610116  0.92470218  1
  O  O57  1  0.64122952  0.14767494  0.42262038  1
  O  O58  1  0.50791600  0.36023737  0.42369017  1
  O  O59  1  0.85319123  0.49216002  0.42370923  1
  O  O60  1  0.34302633  0.49768928  0.07579965  1
  O  O61  1  0.15037174  0.65122465  0.07430740  1
  O  O62  1  0.50876092  0.85889125  0.07462539  1
  O  O63  1  0.34629155  0.84960772  0.57461419  1
  O  O64  1  0.50564074  0.66099974  0.57520227  1
  O  O65  1  0.14995506  0.50240582  0.57349960  1
  O  O66  1  0.30121685  0.82003123  0.25421029  1
  O  O67  1  0.53350778  0.70553881  0.25466231  1
  O  O68  1  0.18217845  0.47785080  0.25429005  1
  O  O69  1  0.29328275  0.46573657  0.75461647  1
  O  O70  1  0.17896094  0.69665440  0.75445592  1
  O  O71  1  0.52131792  0.81575827  0.75437108  1
loop_
_geom_bond_atom_site_label_1
_geom_bond_atom_site_label_2
_geom_bond_distance
_geom_bond_site_symmetry_2
Na0 O52 2.343794 1_555
Na0 O53 2.370541 1_555
Na0 O16 2.417857 1_555
Na0 O67 2.501816 1_545
Na0 O66 2.617399 1_545
Na0 O31 2.851508 1_545
Na1 O17 2.292331 1_555
Na1 O53 2.355335 1_555
Na1 O51 2.431939 1_555
Na1 O68 2.469730 1_555
Na1 O67 2.660037 1_555
Na1 O32 2.865221 1_555
Na1 O10 2.984687 1_555
Na2 O15 2.333853 1_555
Na2 O52 2.364316 1_555
Na2 O51 2.367963 1_555
Na2 O66 2.506140 1_655
Na2 O68 2.628457 1_655
Na2 O30 2.934822 1_655
Na2 O11 2.939819 1_655
Na3 O14 2.298185 1_555
Na3 O50 2.327532 1_555
Na3 O49 2.431859 1_555
Na3 O71 2.457279 1_555
Na3 O69 2.663458 1_555
Na3 O35 2.866725 1_555
Na3 O6 2.974680 1_555
Na4 O48 2.352869 1_555
Na4 O12 2.354636 1_555
Na4 O50 2.377432 1_555
Na4 O69 2.509526 1_655
Na4 O70 2.593853 1_655
Na4 O33 2.892029 1_655
Na4 O7 2.982991 1_655
Na5 O13 2.343742 1_555
Na5 O48 2.358707 1_555
Na5 O49 2.371439 1_555
Na5 O70 2.522312 1_545
Na5 O71 2.646517 1_545
Na5 O34 2.913809 1_545
Na5 O8 2.940610 1_545
Na6 O44 2.436673 1_455
Na6 O65 2.442739 1_555
Na6 O63 2.531569 1_555
Na6 O43 2.615283 1_565
Na6 O8 2.719434 1_555
Na6 O29 2.753363 1_555
Na6 O12 2.754850 1_455
Na6 O22 2.804723 1_455
Na7 O42 2.436288 1_565
Na7 O63 2.468690 1_555
Na7 O64 2.477817 1_555
Na7 O44 2.672957 1_555
Na7 O13 2.726917 1_565
Na7 O6 2.733761 1_555
Na7 O27 2.761668 1_555
Na7 O23 2.807505 1_565
Na8 O46 2.443565 1_455
Na8 O61 2.461966 1_555
Na8 O60 2.502566 1_555
Na8 O47 2.581961 1_555
Na8 O10 2.684474 1_555
Na8 O15 2.723854 1_455
Na8 O25 2.791047 1_554
Na8 O20 2.835536 1_455
Na9 O38 2.476692 1_555
Na9 O43 2.564999 1_555
Na9 O37 2.581335 1_445
Na9 O36 2.582965 1_545
Na9 O42 2.597265 1_455
Na9 O44 2.675083 1_445
Na10 O45 2.519795 1_456
Na10 O40 2.531650 1_555
Na10 O41 2.536922 1_455
Na10 O47 2.585419 1_566
Na10 O39 2.634499 1_565
Na10 O46 2.672948 1_466
Na11 O50 2.432251 1_555
Na11 O48 2.437314 1_555
Na11 O55 2.576991 1_555
Na11 O49 2.612180 1_555
Na11 O54 2.620242 1_555
Na11 O56 2.621772 1_555
Na12 O52 2.457029 1_555
Na12 O53 2.476297 1_555
Na12 O57 2.541977 1_555
Na12 O59 2.590570 1_555
Na12 O58 2.599951 1_555
Na12 O51 2.625419 1_555
Na13 O60 2.513494 1_555
Na13 O62 2.526032 1_555
Na13 O61 2.554684 1_555
Na13 O66 2.575329 1_555
Na13 O67 2.633073 1_555
Na13 O68 2.645929 1_555
Na14 O64 2.497972 1_555
Na14 O65 2.522435 1_555
Na14 O69 2.582721 1_555
Na14 O71 2.602191 1_555
Na14 O70 2.612710 1_555
Na14 O63 2.617727 1_555
Mg0 O14 2.010068 1_555
Mg0 O12 2.021213 1_555
Mg0 O13 2.025954 1_555
Mg0 O48 2.180486 1_555
Mg0 O50 2.188638 1_555
Mg0 O49 2.274607 1_555
Mg1 O17 1.992667 1_555
Mg1 O15 2.027836 1_555
Mg1 O16 2.079723 1_555
Mg1 O53 2.167001 1_555
Mg1 O52 2.172775 1_555
Mg1 O51 2.260836 1_555
O0 Si0 1.631226 1_545
O0 Ta0 1.951052 1_555
O1 P0 1.545029 1_555
O1 Ta0 2.054603 1_665
O2 Si1 1.641126 1_655
O2 Ta0 1.941961 1_655
O3 P1 1.541982 1_555
O3 Ta1 2.060940 1_445
O4 Si2 1.634929 1_655
O4 Ta1 1.946261 1_555
O5 Si3 1.638173 1_545
O5 Ta1 1.941826 1_545
O6 Si3 1.666129 1_555
O6 Ta2 1.979060 1_555
O7 P1 1.564965 1_555
O7 Ta2 2.049169 1_445
O8 Si2 1.667879 1_555
O8 Ta2 1.978305 1_455
O9 P0 1.555528 1_555
O9 Ta3 2.081948 1_665
O10 Si1 1.658848 1_555
O10 Ta3 1.997347 1_555
O11 Si0 1.673595 1_555
O11 Ta3 1.919966 1_565
O12 Si4 1.599046 1_555
O13 Si5 1.598388 1_555
O14 Si6 1.585381 1_555
O15 Si7 1.600716 1_555
O16 P2 1.524487 1_555
O17 Si8 1.585945 1_555
O18 Si8 1.643366 1_555
O18 Ta4 1.938220 1_554
O19 Si7 1.644937 1_555
O19 Ta4 1.941247 1_554
O20 P2 1.552505 1_555
O20 Ta4 2.100518 1_554
O21 Si5 1.640058 1_555
O21 Ta5 1.953519 1_555
O22 Si6 1.642225 1_555
O22 Ta5 1.980168 1_555
O23 Si4 1.647340 1_555
O23 Ta5 1.981466 1_555
O24 Si9 1.618666 1_555
O24 Ta6 1.939392 1_556
O25 Si10 1.633405 1_555
O25 Ta6 1.947731 1_556
O26 Si11 1.620071 1_555
O26 Ta6 1.937197 1_556
O27 Si12 1.629835 1_555
O27 Ta7 1.959379 1_555
O28 Si13 1.626426 1_555
O28 Ta7 1.921444 1_555
O29 Si14 1.627024 1_555
O29 Ta7 1.969394 1_555
O30 Si14 1.669585 1_555
O30 Ta8 1.906967 1_555
O31 Si12 1.659276 1_555
O31 Ta8 1.937949 1_555
O32 Si13 1.651095 1_555
O32 Ta8 1.940706 1_555
O33 Si10 1.660631 1_555
O33 Ta9 1.938337 1_555
O34 Si11 1.672665 1_555
O34 Ta9 1.905753 1_555
O35 Si9 1.648305 1_555
O35 Ta9 1.947460 1_555
O36 Si14 1.627676 1_555
O36 Ta0 1.993558 1_565
O37 Si12 1.634069 1_555
O37 Ta0 1.984028 1_665
O38 Si13 1.639758 1_555
O38 Ta0 1.960734 1_555
O39 Si10 1.632823 1_555
O39 Ta1 1.983713 1_445
O40 Si11 1.626691 1_555
O40 Ta1 1.991656 1_455
O41 Si9 1.639331 1_555
O41 Ta1 1.956700 1_555
O42 Si4 1.653981 1_555
O42 Ta2 1.992852 1_545
O43 Si5 1.655212 1_555
O43 Ta2 1.981154 1_445
O44 Si6 1.702555 1_555
O44 Ta2 1.982437 1_555
O45 Si7 1.650375 1_555
O45 Ta3 1.955566 1_665
O46 P2 1.576464 1_555
O46 Ta3 2.109655 1_655
O47 Si8 1.698514 1_555
O47 Ta3 1.953763 1_555
O48 Si3 1.603817 1_545
O49 P1 1.520466 1_555
O50 Si2 1.601567 1_655
O51 P0 1.527292 1_555
O52 Si1 1.606746 1_655
O53 Si0 1.601370 1_545
O54 Si9 1.629539 1_555
O54 Ta4 1.961059 1_555
O55 Si10 1.622174 1_655
O55 Ta4 2.019376 1_555
O56 Si11 1.618783 1_545
O56 Ta4 1.997880 1_555
O57 Si12 1.621727 1_545
O57 Ta5 2.010597 1_555
O58 Si13 1.615386 1_555
O58 Ta5 1.998666 1_555
O59 Si14 1.618153 1_655
O59 Ta5 2.008853 1_555
O60 Si8 1.657577 1_555
O60 Ta6 2.012414 1_555
O61 Si7 1.662881 1_455
O61 Ta6 1.992847 1_555
O62 P2 1.553382 1_565
O62 Ta6 2.059871 1_555
O63 Si5 1.669628 1_565
O63 Ta7 2.035334 1_555
O64 Si6 1.646099 1_555
O64 Ta7 2.002308 1_555
O65 Si4 1.645255 1_455
O65 Ta7 1.986458 1_555
O66 Si0 1.664637 1_555
O66 Ta8 2.046315 1_555
O67 P0 1.574308 1_555
O67 Ta8 2.151661 1_555
O68 Si1 1.670367 1_555
O68 Ta8 2.046894 1_555
O69 P1 1.572368 1_555
O69 Ta9 2.162578 1_555
O70 Si2 1.670682 1_555
O70 Ta9 2.035787 1_555
O71 Si3 1.669597 1_555
O71 Ta9 2.053006 1_555
