# generated using pymatgen
data_InTe
_symmetry_space_group_name_H-M   'P 1'
_cell_length_a   7.07784085
_cell_length_b   7.07784085
_cell_length_c   7.07784085
_cell_angle_alpha   104.99778738
_cell_angle_beta   104.99778738
_cell_angle_gamma   118.84465582
_symmetry_Int_Tables_number   1
_chemical_formula_structural   InTe
_chemical_formula_sum   'In4 Te4'
_cell_volume   267.39008473
_cell_formula_units_Z   4
loop_
 _symmetry_equiv_pos_site_id
 _symmetry_equiv_pos_as_xyz
  1  'x, y, z'
loop_
 _atom_site_type_symbol
 _atom_site_label
 _atom_site_symmetry_multiplicity
 _atom_site_fract_x
 _atom_site_fract_y
 _atom_site_fract_z
 _atom_site_occupancy
  In  In0  1  0.75000000  0.75000000  -0.00000000  1
  In  In1  1  0.25000000  0.25000000  -0.00000000  1
  In  In2  1  0.25000000  0.75000000  0.50000000  1
  In  In3  1  0.75000000  0.25000000  0.50000000  1
  Te  Te0  1  0.67917574  0.17917574  0.85835249  1
  Te  Te1  1  0.17917574  0.32082426  0.50000000  1
  Te  Te2  1  0.82082426  0.67917574  0.50000000  1
  Te  Te3  1  0.32082426  0.82082426  0.14164751  1
loop_
_geom_bond_atom_site_label_1
_geom_bond_atom_site_label_2
_geom_bond_distance
_geom_bond_site_symmetry_2
In2 Te1 2.830071 1_555
In2 Te2 2.830071 1_455
In2 Te0 2.830073 1_565
In2 Te3 2.830078 1_555
In3 Te2 2.830071 1_555
In3 Te1 2.830071 1_655
In3 Te3 2.830073 1_545
In3 Te0 2.830078 1_555
