# generated using pymatgen
data_La2ReO5
_symmetry_space_group_name_H-M   'P 1'
_cell_length_a   6.03208050
_cell_length_b   7.00703586
_cell_length_c   7.00703617
_cell_angle_alpha   79.32311336
_cell_angle_beta   64.50513143
_cell_angle_gamma   64.50512852
_symmetry_Int_Tables_number   1
_chemical_formula_structural   La2ReO5
_chemical_formula_sum   'La4 Re2 O10'
_cell_volume   241.29560643
_cell_formula_units_Z   2
loop_
 _symmetry_equiv_pos_site_id
 _symmetry_equiv_pos_as_xyz
  1  'x, y, z'
loop_
 _atom_site_type_symbol
 _atom_site_label
 _atom_site_symmetry_multiplicity
 _atom_site_fract_x
 _atom_site_fract_y
 _atom_site_fract_z
 _atom_site_occupancy
  La  La0  1  0.81833289  0.78713563  0.57619859  1
  La  La1  1  0.39453148  0.42380141  0.78713563  1
  La  La2  1  0.60546852  0.57619859  0.21286437  1
  La  La3  1  0.18166711  0.21286437  0.42380141  1
  Re  Re0  1  0.81311585  0.00000000  0.00000000  1
  Re  Re1  1  0.18688415  -0.00000000  -0.00000000  1
  O  O0  1  0.83637586  0.09247813  0.71717364  1
  O  O1  1  0.55354950  0.28282636  0.09247813  1
  O  O2  1  0.92885299  0.71717364  0.90752187  1
  O  O3  1  0.64602763  0.90752187  0.28282636  1
  O  O4  1  0.16362414  0.90752187  0.28282636  1
  O  O5  1  0.44645050  0.71717364  0.90752187  1
  O  O6  1  0.75000000  0.50000000  0.50000000  1
  O  O7  1  0.25000000  0.50000000  0.50000000  1
  O  O8  1  0.35397237  0.09247813  0.71717364  1
  O  O9  1  0.07114701  0.28282636  0.09247813  1
loop_
_geom_bond_atom_site_label_1
_geom_bond_atom_site_label_2
_geom_bond_distance
_geom_bond_site_symmetry_2
La0 O7 2.409238 1_655
La0 O6 2.409238 1_555
La0 O4 2.541578 1_655
La0 O3 2.541578 1_555
La0 O8 2.577097 1_565
La0 O0 2.577097 1_565
La0 O2 2.589186 1_555
La0 O5 2.589189 1_555
La1 O6 2.409238 1_555
La1 O7 2.409238 1_555
La1 O5 2.541578 1_555
La1 O2 2.541582 1_455
La1 O9 2.577093 1_556
La1 O1 2.577097 1_556
La1 O0 2.589189 1_555
La1 O8 2.589189 1_555
La2 O7 2.409238 1_555
La2 O6 2.409238 1_555
La2 O1 2.541578 1_555
La2 O9 2.541582 1_655
La2 O2 2.577093 1_554
La2 O5 2.577097 1_554
La2 O4 2.589189 1_555
La2 O3 2.589189 1_555
La3 O6 2.409238 1_455
La3 O7 2.409238 1_555
La3 O0 2.541578 1_455
La3 O8 2.541578 1_555
La3 O3 2.577097 1_545
La3 O4 2.577097 1_545
La3 O9 2.589186 1_555
La3 O1 2.589189 1_555
O0 Re0 1.931340 1_556
O1 Re0 1.931340 1_555
O2 Re0 1.931342 1_566
O3 Re0 1.931340 1_565
O4 Re1 1.931340 1_565
O5 Re1 1.931340 1_566
O8 Re1 1.931340 1_556
O9 Re1 1.931342 1_555
