# generated using pymatgen
data_Na14Mg2Ti6Si9(SO16)3
_symmetry_space_group_name_H-M   'P 1'
_cell_length_a   17.97861335
_cell_length_b   9.02108612
_cell_length_c   22.12176687
_cell_angle_alpha   90.24425442
_cell_angle_beta   89.94155467
_cell_angle_gamma   120.10446057
_symmetry_Int_Tables_number   1
_chemical_formula_structural   Na14Mg2Ti6Si9(SO16)3
_chemical_formula_sum   'Na42 Mg6 Ti18 Si27 S9 O144'
_cell_volume   3103.86660065
_cell_formula_units_Z   3
loop_
 _symmetry_equiv_pos_site_id
 _symmetry_equiv_pos_as_xyz
  1  'x, y, z'
loop_
 _atom_site_type_symbol
 _atom_site_label
 _atom_site_symmetry_multiplicity
 _atom_site_fract_x
 _atom_site_fract_y
 _atom_site_fract_z
 _atom_site_occupancy
  Na  Na0  1  0.31378824  0.00293974  0.24669083  1
  Na  Na1  1  0.81492893  0.01138025  0.24757380  1
  Na  Na2  1  0.18788399  0.36907636  0.25292391  1
  Na  Na3  1  0.69095145  0.36795829  0.24941605  1
  Na  Na4  1  0.99427720  0.62218442  0.25222180  1
  Na  Na5  1  0.49680792  0.63181745  0.24875511  1
  Na  Na6  1  0.31527311  0.61772887  0.74384655  1
  Na  Na7  1  0.81433717  0.62617023  0.74358398  1
  Na  Na8  1  0.99517091  0.35520258  0.74424955  1
  Na  Na9  1  0.49509990  0.36992645  0.74979185  1
  Na  Na10  1  0.19136178  0.01842990  0.74595857  1
  Na  Na11  1  0.68947675  0.00628004  0.75017074  1
  Na  Na12  1  0.15422377  0.33929089  0.58479054  1
  Na  Na13  1  0.65633343  0.34856738  0.57951676  1
  Na  Na14  1  0.01250396  0.69470716  0.58181740  1
  Na  Na15  1  0.51509739  0.69568333  0.57617589  1
  Na  Na16  1  0.33047320  0.96646502  0.58365165  1
  Na  Na17  1  0.83007289  0.95564716  0.57654762  1
  Na  Na18  1  0.15596674  0.96478932  0.08356635  1
  Na  Na19  1  0.65493945  0.96986425  0.08648357  1
  Na  Na20  1  0.33318257  0.70445582  0.08429974  1
  Na  Na21  1  0.83077609  0.69554480  0.08573131  1
  Na  Na22  1  0.01364417  0.33033959  0.07978479  1
  Na  Na23  1  0.51463351  0.33149719  0.08491244  1
  Na  Na24  1  0.98396754  0.67121255  0.91840668  1
  Na  Na25  1  0.34972207  0.03544602  0.91523601  1
  Na  Na26  1  0.16431690  0.29515628  0.91620708  1
  Na  Na27  1  0.48618293  0.30066050  0.41800830  1
  Na  Na28  1  0.66829512  0.03323804  0.41637145  1
  Na  Na29  1  0.84813674  0.66995045  0.41954116  1
  Na  Na30  1  0.00072904  0.00083941  0.49559705  1
  Na  Na31  1  0.49518727  0.98980561  0.49453261  1
  Na  Na32  1  0.99315050  0.99912543  0.99567654  1
  Na  Na33  1  0.50636281  0.00876118  0.00033781  1
  Na  Na34  1  0.33606914  0.33828913  0.82787485  1
  Na  Na35  1  0.82818124  0.32156328  0.83348850  1
  Na  Na36  1  0.32831707  0.33467476  0.33355515  1
  Na  Na37  1  0.83516261  0.32916101  0.33072827  1
  Na  Na38  1  0.17105857  0.67521012  0.16941383  1
  Na  Na39  1  0.66870471  0.67435448  0.16779855  1
  Na  Na40  1  0.16840031  0.66232173  0.66294281  1
  Na  Na41  1  0.67239541  0.66781733  0.66571534  1
  Mg  Mg0  1  0.32795176  0.33202482  0.68745571  1
  Mg  Mg1  1  0.83379329  0.33357081  0.68387401  1
  Mg  Mg2  1  0.33410821  0.33266741  0.18560816  1
  Mg  Mg3  1  0.82738730  0.32326937  0.18850423  1
  Mg  Mg4  1  0.16541521  0.67233581  0.01435030  1
  Mg  Mg5  1  0.67086482  0.66493237  0.51140828  1
  Ti  Ti0  1  0.99658253  0.99367434  0.35056264  1
  Ti  Ti1  1  0.49817184  0.97878605  0.35761761  1
  Ti  Ti2  1  0.99680565  0.01618077  0.85700925  1
  Ti  Ti3  1  0.50440250  0.01234292  0.84774099  1
  Ti  Ti4  1  0.99593951  0.01355044  0.64103449  1
  Ti  Ti5  1  0.49471669  0.98420230  0.65394700  1
  Ti  Ti6  1  0.99504326  0.00332798  0.15542848  1
  Ti  Ti7  1  0.49762021  0.98064043  0.14416134  1
  Ti  Ti8  1  0.34656564  0.32820775  0.98004834  1
  Ti  Ti9  1  0.82598202  0.31556845  0.97813153  1
  Ti  Ti10  1  0.32625493  0.33711618  0.47742582  1
  Ti  Ti11  1  0.84692132  0.35401407  0.47475073  1
  Ti  Ti12  1  0.66933693  0.65375778  0.02115985  1
  Ti  Ti13  1  0.16922378  0.68394256  0.52018335  1
  Ti  Ti14  1  0.16619016  0.68339261  0.31122549  1
  Ti  Ti15  1  0.67171533  0.67998830  0.32079266  1
  Ti  Ti16  1  0.16371985  0.66699485  0.81573416  1
  Ti  Ti17  1  0.66654877  0.65045176  0.81137551  1
  Si  Si0  1  0.14472440  0.00470653  0.24987395  1
  Si  Si1  1  0.64283913  0.99446943  0.25186684  1
  Si  Si2  1  0.35425135  0.70877542  0.25011998  1
  Si  Si3  1  0.85065133  0.70426273  0.25158595  1
  Si  Si4  1  0.00177406  0.29530651  0.25313195  1
  Si  Si5  1  0.14240246  0.28861266  0.75204440  1
  Si  Si6  1  0.64672355  0.28948512  0.74717334  1
  Si  Si7  1  0.50180041  0.70939564  0.75358868  1
  Si  Si8  1  0.35210908  0.99684163  0.75222208  1
  Si  Si9  1  0.85410284  0.99940708  0.74994376  1
  Si  Si10  1  0.97926855  0.34002387  0.58369526  1
  Si  Si11  1  0.18906130  0.04620125  0.58539046  1
  Si  Si12  1  0.33474729  0.62723155  0.58389646  1
  Si  Si13  1  0.83015270  0.62300828  0.58627953  1
  Si  Si14  1  0.47934115  0.62011289  0.08368375  1
  Si  Si15  1  0.33109659  0.03205678  0.08681960  1
  Si  Si16  1  0.83521242  0.04205669  0.08325102  1
  Si  Si17  1  0.68892865  0.33175804  0.08540605  1
  Si  Si18  1  0.81150905  0.66254497  0.91652586  1
  Si  Si19  1  0.01927621  0.37806796  0.92009122  1
  Si  Si20  1  0.52541611  0.37490798  0.91588666  1
  Si  Si21  1  0.16591583  0.96325481  0.91770235  1
  Si  Si22  1  0.31167391  0.96037919  0.41666324  1
  Si  Si23  1  0.81900178  0.97057709  0.41996524  1
  Si  Si24  1  0.66509457  0.37088028  0.41732371  1
  Si  Si25  1  0.02649000  0.67688908  0.41569501  1
  Si  Si26  1  0.51941698  0.65982632  0.41983881  1
  S  S0  1  0.50095538  0.28883094  0.25000246  1
  S  S1  1  0.00111046  0.71231466  0.75117011  1
  S  S2  1  0.47861846  0.33245963  0.58381320  1
  S  S3  1  0.68543142  0.04015323  0.58388186  1
  S  S4  1  0.97879348  0.62392850  0.08356660  1
  S  S5  1  0.18745162  0.33275620  0.08263160  1
  S  S6  1  0.31386008  0.66650019  0.91679834  1
  S  S7  1  0.66448856  0.95343223  0.91654796  1
  S  S8  1  0.16579850  0.37834449  0.41656092  1
  O  O0  1  0.09410421  0.02864564  0.30644664  1
  O  O1  1  0.59378412  0.02260792  0.30911749  1
  O  O2  1  0.41905829  0.81449424  0.30568056  1
  O  O3  1  0.91456908  0.80284518  0.30896287  1
  O  O4  1  0.48809297  0.18442347  0.30445155  1
  O  O5  1  0.98644286  0.16072661  0.30682446  1
  O  O6  1  0.09417519  0.16462886  0.81007136  1
  O  O7  1  0.59592022  0.16530213  0.80550882  1
  O  O8  1  0.48701362  0.81484754  0.80841743  1
  O  O9  1  0.98966302  0.79240718  0.80575320  1
  O  O10  1  0.41505338  0.02353694  0.81047552  1
  O  O11  1  0.91873202  0.02366714  0.80617986  1
  O  O12  1  0.39845610  0.95950448  0.69292310  1
  O  O13  1  0.89889506  0.96295980  0.69018157  1
  O  O14  1  0.08038502  0.19813159  0.69193107  1
  O  O15  1  0.58153446  0.19731282  0.68896955  1
  O  O16  1  0.01601853  0.81636470  0.69631804  1
  O  O17  1  0.51807400  0.83511481  0.69274958  1
  O  O18  1  0.39868873  0.83350309  0.18927331  1
  O  O19  1  0.89848794  0.83674559  0.19225871  1
  O  O20  1  0.01887415  0.20306316  0.19124491  1
  O  O21  1  0.51306388  0.20784918  0.19467555  1
  O  O22  1  0.08204054  0.96683514  0.18866061  1
  O  O23  1  0.58041411  0.96743340  0.19122496  1
  O  O24  1  0.43893258  0.35548659  0.63911746  1
  O  O25  1  0.94491625  0.37876224  0.64523450  1
  O  O26  1  0.24828672  0.11097881  0.64470581  1
  O  O27  1  0.73765903  0.11756941  0.63894571  1
  O  O28  1  0.31617124  0.51558787  0.64413381  1
  O  O29  1  0.81386280  0.50761399  0.64546775  1
  O  O30  1  0.44282521  0.50750361  0.14336079  1
  O  O31  1  0.93966116  0.52290318  0.13774027  1
  O  O32  1  0.31104370  0.11737024  0.14319323  1
  O  O33  1  0.81576422  0.11831433  0.14268528  1
  O  O34  1  0.23899733  0.36019163  0.13687523  1
  O  O35  1  0.74932223  0.38602649  0.14359419  1
  O  O36  1  0.22797802  0.30848087  0.02724303  1
  O  O37  1  0.73784685  0.30031527  0.02664292  1
  O  O38  1  0.41164699  0.52437743  0.02599745  1
  O  O39  1  0.92561511  0.54517792  0.02833134  1
  O  O40  1  0.34862387  0.16251291  0.02538617  1
  O  O41  1  0.85163386  0.17385152  0.02510177  1
  O  O42  1  0.23767322  0.17614205  0.52756505  1
  O  O43  1  0.72521868  0.14524183  0.52961682  1
  O  O44  1  0.35213513  0.53026704  0.52606562  1
  O  O45  1  0.84829728  0.53003564  0.52606776  1
  O  O46  1  0.42534823  0.30402849  0.52953450  1
  O  O47  1  0.91283842  0.29926184  0.52658580  1
  O  O48  1  0.27453045  0.69423901  0.97162196  1
  O  O49  1  0.76571485  0.69391417  0.97544121  1
  O  O50  1  0.08036473  0.45082323  0.97838530  1
  O  O51  1  0.58212818  0.47091214  0.97548617  1
  O  O52  1  0.14711654  0.84634434  0.97636483  1
  O  O53  1  0.65449729  0.85432319  0.97169706  1
  O  O54  1  0.26601392  0.83805045  0.47571549  1
  O  O55  1  0.77980274  0.84936583  0.47782308  1
  O  O56  1  0.15642679  0.45920969  0.47209378  1
  O  O57  1  0.64059634  0.43954065  0.47691928  1
  O  O58  1  0.08305098  0.69125759  0.47543530  1
  O  O59  1  0.57764948  0.70580982  0.47958127  1
  O  O60  1  0.06942081  0.64010279  0.35596133  1
  O  O61  1  0.56670344  0.63140896  0.35917217  1
  O  O62  1  0.24997211  0.86246728  0.35735970  1
  O  O63  1  0.75245594  0.87241075  0.35967950  1
  O  O64  1  0.17920003  0.48149968  0.36165960  1
  O  O65  1  0.68367803  0.50331491  0.35856804  1
  O  O66  1  0.07049603  0.50547540  0.86045197  1
  O  O67  1  0.56804599  0.49416134  0.85589101  1
  O  O68  1  0.18455266  0.86633351  0.85873268  1
  O  O69  1  0.67772146  0.87612159  0.86141239  1
  O  O70  1  0.25833458  0.64055946  0.86219302  1
  O  O71  1  0.74958080  0.63769201  0.85747894  1
  O  O72  1  0.01132871  0.83969452  0.41185475  1
  O  O73  1  0.51114608  0.83304131  0.40988294  1
  O  O74  1  0.40859618  0.98900135  0.40873865  1
  O  O75  1  0.91175857  0.98288884  0.40838429  1
  O  O76  1  0.09005131  0.20473104  0.41232252  1
  O  O77  1  0.58030046  0.17998123  0.40599799  1
  O  O78  1  0.01118137  0.18920914  0.91001388  1
  O  O79  1  0.50704265  0.17670714  0.91192064  1
  O  O80  1  0.08040617  0.97977780  0.90725826  1
  O  O81  1  0.58809421  0.97514061  0.91183679  1
  O  O82  1  0.39903005  0.82143112  0.91089732  1
  O  O83  1  0.90850481  0.82834711  0.90832830  1
  O  O84  1  0.48843809  0.17612175  0.58751709  1
  O  O85  1  0.98675979  0.16178437  0.58669001  1
  O  O86  1  0.09232087  0.02325873  0.59005749  1
  O  O87  1  0.59820664  0.02745432  0.58849072  1
  O  O88  1  0.42337707  0.82421015  0.58757363  1
  O  O89  1  0.92145662  0.81417292  0.59023872  1
  O  O90  1  0.48659794  0.81203851  0.08639951  1
  O  O91  1  0.98912148  0.80051208  0.08654748  1
  O  O92  1  0.42192601  0.02770928  0.08797701  1
  O  O93  1  0.92326860  0.02165862  0.08626955  1
  O  O94  1  0.10030004  0.17280641  0.08607041  1
  O  O95  1  0.59251106  0.16163259  0.08877027  1
  O  O96  1  0.34768938  0.16909270  0.74886514  1
  O  O97  1  0.84556238  0.16873854  0.74706504  1
  O  O98  1  0.23706150  0.31134331  0.75061535  1
  O  O99  1  0.74029784  0.30937918  0.74798469  1
  O  O100  1  0.41861661  0.52316841  0.74736343  1
  O  O101  1  0.92539526  0.53849267  0.74749261  1
  O  O102  1  0.34589424  0.52272952  0.24616773  1
  O  O103  1  0.84759710  0.52462874  0.24712695  1
  O  O104  1  0.42346418  0.30762912  0.24593165  1
  O  O105  1  0.91896954  0.31569844  0.24589198  1
  O  O106  1  0.23957953  0.16986740  0.24748917  1
  O  O107  1  0.73645585  0.16273259  0.24970779  1
  O  O108  1  0.31801331  0.50705419  0.92067197  1
  O  O109  1  0.82349850  0.49448755  0.92513803  1
  O  O110  1  0.42735591  0.35278143  0.92216810  1
  O  O111  1  0.92600587  0.36783441  0.92188923  1
  O  O112  1  0.25265232  0.15795468  0.92270507  1
  O  O113  1  0.74394746  0.12926466  0.92089502  1
  O  O114  1  0.32292000  0.15191607  0.42564786  1
  O  O115  1  0.81859731  0.15171830  0.42273083  1
  O  O116  1  0.24568664  0.36243265  0.42113603  1
  O  O117  1  0.75219417  0.35439455  0.42280589  1
  O  O118  1  0.42468311  0.48391602  0.42291613  1
  O  O119  1  0.92924253  0.50433524  0.42101573  1
  O  O120  1  0.17583423  0.48488202  0.07751808  1
  O  O121  1  0.67538910  0.50009220  0.07506060  1
  O  O122  1  0.06600998  0.64207056  0.07850821  1
  O  O123  1  0.57694940  0.65482403  0.07204796  1
  O  O124  1  0.24953653  0.83918903  0.07744009  1
  O  O125  1  0.75010170  0.85059265  0.07285590  1
  O  O126  1  0.17518720  0.85053571  0.57529293  1
  O  O127  1  0.67275092  0.86502883  0.57989030  1
  O  O128  1  0.25059374  0.65104071  0.57414233  1
  O  O129  1  0.74765541  0.65176094  0.58088243  1
  O  O130  1  0.07749175  0.49996620  0.57311190  1
  O  O131  1  0.56558420  0.48886610  0.57971411  1
  O  O132  1  0.15001397  0.82564064  0.25411785  1
  O  O133  1  0.64732141  0.81609295  0.25487533  1
  O  O134  1  0.25958157  0.69369624  0.25612033  1
  O  O135  1  0.75676457  0.69322615  0.25478889  1
  O  O136  1  0.09165630  0.47992464  0.25663962  1
  O  O137  1  0.57934234  0.46161920  0.25357148  1
  O  O138  1  0.15027466  0.48065980  0.75921480  1
  O  O139  1  0.65060119  0.47619308  0.75386363  1
  O  O140  1  0.08135384  0.69586690  0.75570319  1
  O  O141  1  0.59126366  0.70385452  0.75758394  1
  O  O142  1  0.25819316  0.81915178  0.75743193  1
  O  O143  1  0.75925238  0.82579842  0.75748351  1
loop_
_geom_bond_atom_site_label_1
_geom_bond_atom_site_label_2
_geom_bond_distance
_geom_bond_site_symmetry_2
Na0 O104 2.450865 1_555
Na0 O134 2.460284 1_545
Na0 O106 2.462339 1_555
Na0 O32 2.526177 1_555
Na0 O132 2.555746 1_545
Na0 O62 2.734603 1_545
Na0 O18 2.932490 1_545
Na0 O4 2.996181 1_555
Na1 O107 2.405952 1_555
Na1 O105 2.426149 1_555
Na1 O33 2.513794 1_555
Na1 O135 2.519769 1_545
Na1 O133 2.624123 1_545
Na1 O63 2.755316 1_545
Na1 O19 2.930873 1_545
Na1 O5 2.977800 1_555
Na2 O136 2.394619 1_555
Na2 O106 2.404413 1_555
Na2 O102 2.462644 1_555
Na2 O134 2.540462 1_555
Na2 O64 2.641265 1_555
Na2 O34 2.740206 1_555
Na2 O0 2.916962 1_555
Na2 O20 2.960322 1_555
Na3 O107 2.369888 1_555
Na3 O103 2.436983 1_555
Na3 O35 2.536659 1_555
Na3 O137 2.539372 1_555
Na3 O135 2.557056 1_555
Na3 O65 2.733670 1_555
Na4 O103 2.326619 1_555
Na4 O105 2.395607 1_555
Na4 O132 2.460576 1_655
Na4 O60 2.627154 1_655
Na4 O136 2.641383 1_655
Na4 O31 2.698808 1_555
Na5 O133 2.364442 1_555
Na5 O102 2.377945 1_555
Na5 O104 2.534884 1_555
Na5 O30 2.554603 1_555
Na5 O137 2.618726 1_555
Na5 O61 2.748908 1_555
Na5 O23 2.917062 1_555
Na5 O2 2.923182 1_555
Na6 O28 2.390074 1_555
Na6 O98 2.396523 1_555
Na6 O100 2.403450 1_555
Na6 O142 2.512055 1_555
Na6 O138 2.601199 1_555
Na6 O70 2.854095 1_555
Na6 O12 2.900400 1_555
Na7 O29 2.413732 1_555
Na7 O143 2.470265 1_555
Na7 O99 2.476772 1_555
Na7 O101 2.490973 1_555
Na7 O139 2.560033 1_555
Na7 O71 2.797781 1_555
Na7 O13 2.886346 1_555
Na8 O97 2.351586 1_555
Na8 O25 2.420731 1_555
Na8 O138 2.449337 1_655
Na8 O101 2.528321 1_555
Na8 O140 2.669596 1_655
Na8 O14 2.802581 1_655
Na8 O66 2.900938 1_655
Na8 O11 2.935715 1_555
Na9 O96 2.343006 1_555
Na9 O100 2.390068 1_555
Na9 O139 2.460545 1_555
Na9 O141 2.620102 1_555
Na9 O24 2.627031 1_555
Na9 O67 2.644671 1_555
Na10 O98 2.342625 1_555
Na10 O26 2.432217 1_555
Na10 O96 2.432743 1_555
Na10 O140 2.580051 1_545
Na10 O142 2.628914 1_545
Na10 O68 2.825151 1_545
Na10 O16 2.948210 1_545
Na10 O6 3.015737 1_555
Na11 O141 2.399699 1_545
Na11 O99 2.410049 1_555
Na11 O97 2.429442 1_555
Na11 O143 2.510430 1_545
Na11 O27 2.637543 1_555
Na11 O69 2.693292 1_545
Na11 O17 2.951598 1_545
Na11 O7 2.964306 1_555
Na12 O130 2.465894 1_555
Na12 O128 2.466445 1_555
Na12 O86 2.489933 1_555
Na12 O85 2.606649 1_455
Na12 O14 2.706462 1_555
Na12 O56 2.714217 1_555
Na12 O28 2.841638 1_555
Na12 O42 2.866174 1_555
Na13 O129 2.381614 1_555
Na13 O57 2.480914 1_555
Na13 O131 2.516990 1_555
Na13 O87 2.547659 1_555
Na13 O84 2.617925 1_555
Na13 O15 2.777353 1_555
Na13 O29 2.849999 1_555
Na13 O43 2.894029 1_555
Na14 O89 2.375493 1_455
Na14 O126 2.535322 1_555
Na14 O130 2.558166 1_555
Na14 O86 2.570297 1_565
Na14 O58 2.679707 1_555
Na14 O16 2.744338 1_555
Na14 O45 2.834729 1_455
Na14 O25 2.850346 1_455
Na15 O59 2.394342 1_555
Na15 O131 2.451759 1_555
Na15 O127 2.455612 1_555
Na15 O88 2.457997 1_555
Na15 O87 2.602351 1_565
Na15 O44 2.765186 1_555
Na15 O17 2.853134 1_555
Na16 O126 2.447995 1_555
Na16 O128 2.469731 1_555
Na16 O84 2.502157 1_565
Na16 O88 2.568207 1_555
Na16 O54 2.649834 1_555
Na16 O12 2.724950 1_555
Na16 O26 2.760498 1_565
Na16 O46 2.903816 1_565
Na17 O55 2.371218 1_555
Na17 O129 2.376352 1_555
Na17 O85 2.487304 1_565
Na17 O127 2.520788 1_555
Na17 O89 2.554915 1_555
Na17 O13 2.788815 1_555
Na17 O47 2.905711 1_565
Na18 O124 2.458145 1_555
Na18 O122 2.525475 1_555
Na18 O94 2.531616 1_565
Na18 O52 2.568965 1_554
Na18 O91 2.596050 1_455
Na18 O22 2.681377 1_555
Na18 O32 2.747747 1_565
Na19 O125 2.453270 1_555
Na19 O123 2.478039 1_555
Na19 O95 2.490376 1_565
Na19 O90 2.619999 1_555
Na19 O23 2.670042 1_555
Na19 O53 2.739265 1_554
Na19 O33 2.794313 1_565
Na19 O37 2.903943 1_565
Na20 O124 2.365901 1_555
Na20 O90 2.422036 1_555
Na20 O120 2.515139 1_555
Na20 O92 2.527208 1_565
Na20 O18 2.596542 1_555
Na20 O48 2.690641 1_554
Na20 O38 2.927422 1_555
Na20 O34 2.935366 1_555
Na21 O121 2.454696 1_555
Na21 O125 2.486066 1_555
Na21 O91 2.509414 1_555
Na21 O93 2.551934 1_565
Na21 O19 2.661325 1_555
Na21 O49 2.703586 1_554
Na21 O35 2.739368 1_555
Na21 O39 2.942914 1_555
Na22 O93 2.424653 1_455
Na22 O122 2.477918 1_555
Na22 O50 2.521767 1_554
Na22 O120 2.524112 1_555
Na22 O94 2.586365 1_555
Na22 O20 2.745852 1_555
Na22 O41 2.794269 1_455
Na22 O31 2.953973 1_455
Na23 O92 2.390019 1_555
Na23 O121 2.511114 1_555
Na23 O95 2.543506 1_555
Na23 O123 2.563587 1_555
Na23 O21 2.670638 1_555
Na23 O51 2.720853 1_554
Na23 O30 2.809790 1_555
Na23 O40 2.896996 1_555
Na24 O111 2.392199 1_555
Na24 O83 2.415019 1_555
Na24 O80 2.445170 1_655
Na24 O109 2.504855 1_555
Na24 O39 2.669909 1_556
Na24 O9 2.706796 1_555
Na24 O52 2.843448 1_655
Na24 O66 2.934624 1_655
Na25 O79 2.452316 1_555
Na25 O110 2.480967 1_555
Na25 O112 2.495392 1_555
Na25 O82 2.497522 1_545
Na25 O10 2.623129 1_555
Na25 O40 2.692717 1_556
Na25 O68 2.855624 1_545
Na25 O48 2.951767 1_545
Na26 O78 2.423251 1_555
Na26 O108 2.449389 1_555
Na26 O112 2.459400 1_555
Na26 O80 2.469740 1_545
Na26 O6 2.642410 1_555
Na26 O36 2.687581 1_556
Na26 O50 2.871872 1_555
Na26 O70 2.956002 1_555
Na27 O118 2.408140 1_555
Na27 O74 2.440056 1_545
Na27 O77 2.442034 1_555
Na27 O114 2.548451 1_555
Na27 O46 2.703924 1_555
Na27 O4 2.724834 1_555
Na27 O57 2.734840 1_555
Na27 O61 2.896298 1_555
Na28 O115 2.359316 1_555
Na28 O73 2.478842 1_545
Na28 O117 2.510420 1_555
Na28 O77 2.532203 1_555
Na28 O43 2.700105 1_555
Na28 O1 2.703492 1_555
Na28 O63 2.854823 1_545
Na28 O59 2.921903 1_545
Na29 O75 2.470816 1_555
Na29 O117 2.481887 1_555
Na29 O72 2.544835 1_655
Na29 O119 2.558394 1_555
Na29 O45 2.678713 1_555
Na29 O3 2.725847 1_555
Na29 O55 2.786562 1_555
Na29 O65 2.890246 1_555
Na30 O72 2.415708 1_545
Na30 O75 2.459842 1_445
Na30 O76 2.532864 1_555
Na30 O85 2.563528 1_455
Na30 O86 2.605455 1_555
Na30 O89 2.620425 1_445
Na31 O73 2.443815 1_555
Na31 O74 2.453630 1_555
Na31 O88 2.494151 1_555
Na31 O77 2.551416 1_565
Na31 O87 2.690137 1_565
Na31 O84 2.691747 1_565
Na32 O93 2.425638 1_566
Na32 O83 2.460052 1_555
Na32 O78 2.470906 1_665
Na32 O80 2.565678 1_655
Na32 O94 2.667938 1_666
Na32 O91 2.675199 1_556
Na33 O95 2.442996 1_555
Na33 O79 2.475459 1_554
Na33 O90 2.508999 1_545
Na33 O92 2.518705 1_555
Na33 O81 2.553486 1_544
Na33 O82 2.683709 1_544
Na34 O100 2.386046 1_555
Na34 O98 2.391077 1_555
Na34 O96 2.392627 1_555
Na34 O110 2.617479 1_555
Na34 O112 2.621394 1_555
Na34 O108 2.665543 1_555
Na35 O99 2.432368 1_555
Na35 O97 2.462097 1_555
Na35 O111 2.520981 1_555
Na35 O113 2.535497 1_555
Na35 O109 2.579838 1_555
Na35 O101 2.664067 1_555
Na36 O106 2.446068 1_555
Na36 O102 2.490759 1_555
Na36 O118 2.523183 1_555
Na36 O116 2.527154 1_555
Na36 O114 2.597253 1_555
Na36 O104 2.674125 1_555
Na37 O107 2.434448 1_555
Na37 O105 2.446008 1_555
Na37 O103 2.492216 1_555
Na37 O115 2.518255 1_555
Na37 O119 2.577999 1_555
Na37 O117 2.599302 1_555
Na38 O134 2.444814 1_555
Na38 O132 2.446998 1_555
Na38 O124 2.498942 1_555
Na38 O136 2.522949 1_555
Na38 O122 2.671443 1_555
Na38 O120 2.684358 1_555
Na39 O133 2.442111 1_555
Na39 O135 2.443720 1_555
Na39 O125 2.601675 1_555
Na39 O137 2.606974 1_555
Na39 O121 2.618400 1_555
Na39 O123 2.636546 1_555
Na40 O128 2.489220 1_555
Na40 O130 2.519110 1_555
Na40 O126 2.545014 1_555
Na40 O142 2.582141 1_555
Na40 O138 2.611530 1_555
Na40 O140 2.686029 1_555
Na41 O129 2.358541 1_555
Na41 O139 2.508382 1_555
Na41 O143 2.517949 1_555
Na41 O131 2.604735 1_555
Na41 O127 2.605217 1_555
Na41 O141 2.612957 1_555
Mg0 O26 2.010896 1_555
Mg0 O28 2.017725 1_555
Mg0 O98 2.085410 1_555
Mg0 O100 2.133533 1_555
Mg0 O96 2.161716 1_555
Mg0 O24 2.177922 1_555
Mg1 O29 1.972734 1_555
Mg1 O25 2.017582 1_555
Mg1 O27 2.092966 1_555
Mg1 O99 2.124689 1_555
Mg1 O97 2.131644 1_555
Mg1 O101 2.244712 1_555
Mg2 O32 2.000470 1_555
Mg2 O30 2.024292 1_555
Mg2 O102 2.096648 1_555
Mg2 O106 2.104206 1_555
Mg2 O34 2.140046 1_555
Mg2 O104 2.187142 1_555
Mg3 O35 2.020414 1_555
Mg3 O33 2.021487 1_555
Mg3 O107 2.059188 1_555
Mg3 O103 2.105278 1_555
Mg3 O105 2.108361 1_555
Mg3 O31 2.223691 1_555
Mg4 O52 1.951489 1_554
Mg4 O50 1.971795 1_554
Mg4 O124 2.050258 1_555
Mg4 O48 2.095205 1_554
Mg4 O122 2.188957 1_555
Mg4 O120 2.277239 1_555
Mg5 O57 1.972336 1_555
Mg5 O55 1.973521 1_555
Mg5 O59 2.016147 1_555
Mg5 O129 2.110124 1_555
Mg5 O131 2.321091 1_555
Mg5 O127 2.338788 1_555
O0 Si0 1.622848 1_555
O0 Ti0 1.889521 1_445
O1 Si1 1.632727 1_545
O1 Ti1 1.892208 1_545
O2 Si2 1.629724 1_555
O2 Ti1 1.847660 1_555
O3 Si3 1.640327 1_555
O3 Ti0 1.851337 1_555
O4 S0 1.477176 1_555
O4 Ti1 2.283342 1_545
O5 Si4 1.623776 1_655
O5 Ti0 1.878516 1_545
O6 Si5 1.639413 1_555
O6 Ti2 1.895381 1_455
O7 Si6 1.654710 1_555
O7 Ti3 1.792867 1_555
O8 Si7 1.640114 1_555
O8 Ti3 1.859369 1_565
O9 S1 1.470923 1_655
O9 Ti2 2.257868 1_565
O10 Si8 1.651133 1_545
O10 Ti3 1.853745 1_555
O11 Si9 1.640481 1_545
O11 Ti2 1.827055 1_555
O12 Si8 1.674552 1_555
O12 Ti5 1.843893 1_555
O13 Si9 1.662575 1_555
O13 Ti4 1.906825 1_565
O14 Si5 1.660918 1_555
O14 Ti4 1.948543 1_455
O15 Si6 1.655048 1_555
O15 Ti5 1.926672 1_545
O16 S1 1.477147 1_555
O16 Ti4 2.335343 1_465
O17 Si7 1.691906 1_555
O17 Ti5 1.816354 1_555
O18 Si2 1.680794 1_555
O18 Ti7 1.886980 1_555
O19 Si3 1.694237 1_555
O19 Ti6 1.823783 1_565
O20 Si4 1.705089 1_555
O20 Ti6 1.808874 1_455
O21 S0 1.493471 1_555
O21 Ti7 2.221974 1_545
O22 Si0 1.683279 1_565
O22 Ti6 1.901617 1_465
O23 Si1 1.686536 1_555
O23 Ti7 1.869749 1_555
O24 S2 1.481127 1_555
O25 Si10 1.602371 1_555
O26 Si11 1.602857 1_555
O27 S3 1.480018 1_555
O28 Si12 1.604589 1_555
O29 Si13 1.608979 1_555
O30 Si14 1.595756 1_555
O31 S4 1.458129 1_555
O32 Si15 1.595855 1_555
O33 Si16 1.599006 1_555
O34 S5 1.459326 1_555
O35 Si17 1.593676 1_555
O36 S5 1.495367 1_555
O36 Ti8 2.298630 1_554
O37 Si17 1.669902 1_555
O37 Ti9 1.860232 1_554
O38 Si14 1.671804 1_555
O38 Ti8 1.855780 1_554
O39 S4 1.491791 1_555
O39 Ti9 2.234881 1_554
O40 Si15 1.723937 1_555
O40 Ti8 1.819312 1_554
O41 Si16 1.677975 1_555
O41 Ti9 1.878967 1_554
O42 Si11 1.660435 1_555
O42 Ti10 1.888248 1_555
O43 S3 1.476192 1_555
O43 Ti11 2.384935 1_555
O44 Si12 1.662373 1_555
O44 Ti10 1.892637 1_555
O45 Si13 1.687634 1_555
O45 Ti11 1.938059 1_555
O46 S2 1.475841 1_555
O46 Ti10 2.265486 1_555
O47 Si10 1.648109 1_555
O47 Ti11 1.886293 1_555
O48 S6 1.485473 1_555
O49 Si18 1.638578 1_555
O49 Ti12 1.877866 1_556
O50 Si19 1.603917 1_555
O51 Si20 1.623310 1_555
O51 Ti12 1.895936 1_556
O52 Si21 1.601188 1_555
O53 S7 1.472333 1_555
O53 Ti12 2.245843 1_556
O54 Si22 1.643030 1_555
O54 Ti13 1.873462 1_555
O55 Si23 1.602359 1_555
O56 S8 1.478161 1_555
O56 Ti13 2.192932 1_555
O57 Si24 1.606620 1_555
O58 Si25 1.632924 1_555
O58 Ti13 1.868353 1_555
O59 Si26 1.605395 1_555
O60 Si25 1.644116 1_555
O60 Ti14 1.864654 1_555
O61 Si26 1.674198 1_555
O61 Ti15 1.909771 1_555
O62 Si22 1.655897 1_555
O62 Ti14 1.862311 1_555
O63 Si23 1.710121 1_555
O63 Ti15 1.822764 1_555
O64 S8 1.477559 1_555
O64 Ti14 2.249842 1_555
O65 Si24 1.685321 1_555
O65 Ti15 1.907962 1_555
O66 Si19 1.690661 1_555
O66 Ti16 1.862753 1_555
O67 Si20 1.639881 1_555
O67 Ti17 1.896673 1_555
O68 Si21 1.691671 1_555
O68 Ti16 1.894537 1_555
O69 S7 1.479617 1_555
O69 Ti17 2.231824 1_555
O70 S6 1.508706 1_555
O70 Ti16 2.102209 1_555
O71 Si18 1.657156 1_555
O71 Ti17 1.859666 1_555
O72 Si25 1.625192 1_555
O72 Ti0 2.055345 1_455
O73 Si26 1.657826 1_555
O73 Ti1 1.854996 1_555
O74 Si22 1.637749 1_555
O74 Ti1 2.006292 1_555
O75 Si23 1.634796 1_555
O75 Ti0 1.954359 1_555
O76 S8 1.475026 1_555
O76 Ti0 2.255762 1_445
O77 Si24 1.648023 1_555
O77 Ti1 1.979433 1_545
O78 Si19 1.649730 1_555
O78 Ti2 1.859684 1_455
O79 Si20 1.649226 1_555
O79 Ti3 2.031775 1_555
O80 Si21 1.633989 1_555
O80 Ti2 2.025889 1_465
O81 S7 1.485228 1_555
O81 Ti3 2.214066 1_565
O82 S6 1.472891 1_555
O82 Ti3 2.291098 1_565
O83 Si18 1.642009 1_555
O83 Ti2 1.998627 1_565
O84 S2 1.509211 1_555
O84 Ti5 2.321178 1_545
O85 Si10 1.681096 1_555
O85 Ti4 1.869813 1_555
O86 Si11 1.648401 1_555
O86 Ti4 2.031405 1_455
O87 S3 1.517323 1_555
O87 Ti5 2.232013 1_545
O88 Si12 1.691707 1_555
O88 Ti5 2.003202 1_555
O89 Si13 1.683879 1_555
O89 Ti4 1.964833 1_565
O90 Si14 1.670577 1_555
O90 Ti7 1.914935 1_555
O91 S4 1.509571 1_555
O91 Ti6 2.337065 1_565
O92 Si15 1.653233 1_555
O92 Ti7 2.040758 1_545
O93 Si16 1.684390 1_555
O93 Ti6 2.062375 1_555
O94 S5 1.508498 1_555
O94 Ti6 2.320437 1_455
O95 Si17 1.642471 1_555
O95 Ti7 2.072757 1_545
O96 Si8 1.597268 1_545
O97 Si9 1.611580 1_545
O98 Si5 1.609091 1_555
O99 Si6 1.599982 1_555
O100 Si7 1.598734 1_555
O101 S1 1.475236 1_655
O102 Si2 1.610230 1_555
O103 Si3 1.596286 1_555
O104 S0 1.488361 1_555
O105 Si4 1.597251 1_655
O106 Si0 1.607027 1_555
O107 Si1 1.605229 1_545
O108 S6 1.480084 1_555
O108 Ti8 2.332832 1_555
O109 Si18 1.646684 1_555
O109 Ti9 2.017419 1_555
O110 Si20 1.677497 1_555
O110 Ti8 1.863858 1_555
O111 Si19 1.632974 1_655
O111 Ti9 2.038139 1_555
O112 Si21 1.667348 1_545
O112 Ti8 2.050667 1_555
O113 S7 1.513905 1_545
O113 Ti9 2.025375 1_555
O114 Si22 1.647002 1_545
O114 Ti10 1.997543 1_555
O115 Si23 1.638632 1_545
O115 Ti11 1.991232 1_555
O116 S8 1.516898 1_555
O116 Ti10 2.009698 1_555
O117 Si24 1.650189 1_555
O117 Ti11 2.056887 1_555
O118 Si26 1.647148 1_555
O118 Ti10 1.999428 1_555
O119 Si25 1.662749 1_655
O119 Ti11 1.854514 1_555
O120 S5 1.492866 1_555
O121 Si17 1.670790 1_555
O121 Ti12 1.876410 1_555
O122 S4 1.496794 1_455
O123 Si14 1.640845 1_555
O123 Ti12 2.009580 1_555
O124 Si15 1.630525 1_565
O125 Si16 1.650343 1_565
O125 Ti12 1.992195 1_555
O126 Si11 1.668180 1_565
O126 Ti13 1.891910 1_555
O127 S3 1.480922 1_565
O128 Si12 1.645844 1_555
O128 Ti13 2.023669 1_555
O129 Si13 1.633378 1_555
O130 Si10 1.643514 1_455
O130 Ti13 2.027853 1_555
O131 S2 1.493788 1_555
O132 Si0 1.668140 1_565
O132 Ti14 1.927742 1_555
O133 Si1 1.652662 1_555
O133 Ti15 2.093558 1_555
O134 Si2 1.643310 1_555
O134 Ti14 2.038159 1_555
O135 Si3 1.641752 1_555
O135 Ti15 2.073165 1_555
O136 Si4 1.640255 1_555
O136 Ti14 2.034672 1_555
O137 S0 1.489136 1_555
O137 Ti15 2.355459 1_555
O138 Si5 1.672838 1_555
O138 Ti16 2.005583 1_555
O139 Si6 1.656431 1_555
O139 Ti17 1.924476 1_555
O140 S1 1.525945 1_555
O140 Ti16 2.101932 1_555
O141 Si7 1.636558 1_555
O141 Ti17 2.035292 1_555
O142 Si8 1.649178 1_555
O142 Ti16 2.025909 1_555
O143 Si9 1.646543 1_555
O143 Ti17 2.017077 1_555
