# generated using pymatgen
data_VMoO5
_symmetry_space_group_name_H-M   'P 1'
_cell_length_a   4.19990801
_cell_length_b   6.58478024
_cell_length_c   6.58468477
_cell_angle_alpha   89.99998241
_cell_angle_beta   89.99942876
_cell_angle_gamma   90.00006480
_symmetry_Int_Tables_number   1
_chemical_formula_structural   VMoO5
_chemical_formula_sum   'V2 Mo2 O10'
_cell_volume   182.10256039
_cell_formula_units_Z   2
loop_
 _symmetry_equiv_pos_site_id
 _symmetry_equiv_pos_as_xyz
  1  'x, y, z'
loop_
 _atom_site_type_symbol
 _atom_site_label
 _atom_site_symmetry_multiplicity
 _atom_site_fract_x
 _atom_site_fract_y
 _atom_site_fract_z
 _atom_site_occupancy
  V  V0  1  0.83976402  0.24999563  0.25000591  1
  V  V1  1  0.16005634  0.75000206  0.74999549  1
  Mo  Mo0  1  0.50007322  0.24999990  0.75000253  1
  Mo  Mo1  1  0.50006300  0.74999827  0.24999470  1
  O  O0  1  0.74010317  0.19944136  0.96385465  1
  O  O1  1  0.74010787  0.53614434  0.19944686  1
  O  O2  1  0.74010369  0.96384937  0.30056276  1
  O  O3  1  0.74011446  0.30055345  0.53615272  1
  O  O4  1  0.22589250  0.24999782  0.25000346  1
  O  O5  1  0.77395565  0.75000433  0.74999506  1
  O  O6  1  0.25994309  0.69942182  0.46378652  1
  O  O7  1  0.25994392  0.03621275  0.69941198  1
  O  O8  1  0.25994219  0.46378944  0.80057843  1
  O  O9  1  0.25993887  0.80058747  0.03620892  1
loop_
_geom_bond_atom_site_label_1
_geom_bond_atom_site_label_2
_geom_bond_distance
_geom_bond_site_symmetry_2
Mo0 O8 1.763466 1_555
Mo0 O7 1.763470 1_555
Mo0 O3 1.763517 1_555
Mo0 O0 1.763524 1_555
Mo1 O6 1.763429 1_555
Mo1 O9 1.763440 1_555
Mo1 O1 1.763563 1_555
Mo1 O2 1.763565 1_555
O0 V0 1.958647 1_556
O1 V0 1.958654 1_555
O2 V0 1.958638 1_565
O3 V0 1.958605 1_555
O4 V0 1.621704 1_455
O5 V1 1.621587 1_655
O6 V1 1.959237 1_555
O7 V1 1.959280 1_545
O8 V1 1.959292 1_555
O9 V1 1.959275 1_554
