# generated using pymatgen
data_CsSnI3
_symmetry_space_group_name_H-M   'P 1'
_cell_length_a   4.78277107
_cell_length_b   10.59766711
_cell_length_c   17.96459847
_cell_angle_alpha   90.00000000
_cell_angle_beta   90.00000000
_cell_angle_gamma   90.00000000
_symmetry_Int_Tables_number   1
_chemical_formula_structural   CsSnI3
_chemical_formula_sum   'Cs4 Sn4 I12'
_cell_volume   910.55751235
_cell_formula_units_Z   4
loop_
 _symmetry_equiv_pos_site_id
 _symmetry_equiv_pos_as_xyz
  1  'x, y, z'
loop_
 _atom_site_type_symbol
 _atom_site_label
 _atom_site_symmetry_multiplicity
 _atom_site_fract_x
 _atom_site_fract_y
 _atom_site_fract_z
 _atom_site_occupancy
  Cs  Cs0  1  0.25000000  0.08414934  0.66989639  1
  Cs  Cs1  1  0.75000000  0.91585066  0.33010361  1
  Cs  Cs2  1  0.25000000  0.58414934  0.83010361  1
  Cs  Cs3  1  0.75000000  0.41585066  0.16989639  1
  Sn  Sn0  1  0.25000000  0.34136170  0.43810399  1
  Sn  Sn1  1  0.75000000  0.65863830  0.56189601  1
  Sn  Sn2  1  0.25000000  0.84136170  0.06189601  1
  Sn  Sn3  1  0.75000000  0.15863830  0.93810399  1
  I  I0  1  0.75000000  0.02685053  0.11559772  1
  I  I1  1  0.25000000  0.97314947  0.88440228  1
  I  I2  1  0.75000000  0.52685053  0.38440228  1
  I  I3  1  0.25000000  0.47314947  0.61559772  1
  I  I4  1  0.75000000  0.29400952  0.79135624  1
  I  I5  1  0.25000000  0.70599048  0.20864376  1
  I  I6  1  0.75000000  0.79400952  0.70864376  1
  I  I7  1  0.25000000  0.20599048  0.29135624  1
  I  I8  1  0.75000000  0.16611362  0.49863138  1
  I  I9  1  0.25000000  0.83388638  0.50136862  1
  I  I10  1  0.75000000  0.66611362  0.00136862  1
  I  I11  1  0.25000000  0.33388638  0.99863138  1
loop_
_geom_bond_atom_site_label_1
_geom_bond_atom_site_label_2
_geom_bond_distance
_geom_bond_site_symmetry_2
Cs0 I4 3.927601 1_455
Cs0 I4 3.927601 1_555
Cs0 I6 3.956979 1_545
Cs0 I6 3.956979 1_445
Cs0 I8 3.992414 1_455
Cs0 I8 3.992414 1_555
Cs0 I9 4.024940 1_545
Cs0 I1 4.029061 1_545
Cs0 I3 4.236327 1_555
Cs1 I5 3.927601 1_655
Cs1 I5 3.927601 1_555
Cs1 I7 3.956979 1_665
Cs1 I7 3.956979 1_565
Cs1 I9 3.992414 1_655
Cs1 I9 3.992414 1_555
Cs1 I8 4.024940 1_565
Cs1 I0 4.029061 1_565
Cs1 I2 4.236327 1_555
Cs2 I6 3.927601 1_455
Cs2 I6 3.927601 1_555
Cs2 I4 3.956979 1_555
Cs2 I4 3.956979 1_455
Cs2 I10 3.992414 1_456
Cs2 I10 3.992414 1_556
Cs2 I11 4.024940 1_555
Cs2 I3 4.029061 1_555
Cs2 I1 4.236327 1_555
Cs3 I7 3.927601 1_555
Cs3 I7 3.927601 1_655
Cs3 I5 3.956979 1_655
Cs3 I5 3.956979 1_555
Cs3 I11 3.992414 1_654
Cs3 I11 3.992414 1_554
Cs3 I10 4.024940 1_555
Cs3 I2 4.029061 1_555
Cs3 I0 4.236327 1_555
I0 Sn2 3.242468 1_545
I0 Sn2 3.242468 1_645
I0 Sn3 3.481064 1_554
I1 Sn3 3.242468 1_565
I1 Sn3 3.242468 1_465
I1 Sn2 3.481064 1_556
I2 Sn0 3.242468 1_555
I2 Sn0 3.242468 1_655
I2 Sn1 3.481064 1_555
I3 Sn1 3.242468 1_455
I3 Sn1 3.242468 1_555
I3 Sn0 3.481064 1_555
I4 Sn3 3.001337 1_555
I5 Sn2 3.001337 1_555
I6 Sn1 3.001337 1_555
I7 Sn0 3.001337 1_555
I8 Sn0 3.217192 1_655
I8 Sn0 3.217192 1_555
I9 Sn1 3.217192 1_455
I9 Sn1 3.217192 1_555
I10 Sn2 3.217192 1_555
I10 Sn2 3.217192 1_655
I11 Sn3 3.217192 1_455
I11 Sn3 3.217192 1_555
