# generated using pymatgen
data_TbInPd
_symmetry_space_group_name_H-M   'P 1'
_cell_length_a   7.70609614
_cell_length_b   7.70609580
_cell_length_c   3.82416876
_cell_angle_alpha   90.00000000
_cell_angle_beta   90.00000000
_cell_angle_gamma   119.99999262
_symmetry_Int_Tables_number   1
_chemical_formula_structural   TbInPd
_chemical_formula_sum   'Tb3 In3 Pd3'
_cell_volume   196.66928556
_cell_formula_units_Z   3
loop_
 _symmetry_equiv_pos_site_id
 _symmetry_equiv_pos_as_xyz
  1  'x, y, z'
loop_
 _atom_site_type_symbol
 _atom_site_label
 _atom_site_symmetry_multiplicity
 _atom_site_fract_x
 _atom_site_fract_y
 _atom_site_fract_z
 _atom_site_occupancy
  Tb  Tb0  1  -0.00000000  0.59149121  0.50000000  1
  Tb  Tb1  1  0.40850879  0.40850879  0.50000000  1
  Tb  Tb2  1  0.59149121  -0.00000000  0.50000000  1
  In  In0  1  0.25934963  -0.00000000  0.00000000  1
  In  In1  1  0.74065037  0.74065037  -0.00000000  1
  In  In2  1  -0.00000000  0.25934963  0.00000000  1
  Pd  Pd0  1  0.66666700  0.33333300  -0.00000000  1
  Pd  Pd1  1  0.33333300  0.66666700  -0.00000000  1
  Pd  Pd2  1  0.00000000  -0.00000000  0.50000000  1
loop_
_geom_bond_atom_site_label_1
_geom_bond_atom_site_label_2
_geom_bond_distance
_geom_bond_site_symmetry_2
In0 Pd2 2.765929 1_554
In0 Pd2 2.765929 1_555
In0 Pd1 2.896155 1_545
In0 Pd0 2.896160 1_555
In0 Tb2 3.194868 1_555
In0 Tb2 3.194868 1_554
In0 Tb1 3.356902 1_555
In0 Tb1 3.356902 1_554
In0 Tb0 3.356902 1_545
In0 Tb0 3.356902 1_544
In1 Pd2 2.765929 1_665
In1 Pd2 2.765929 1_664
In1 Pd0 2.896162 1_555
In1 Pd1 2.896162 1_555
In1 Tb1 3.194868 1_554
In1 Tb1 3.194868 1_555
In1 Tb2 3.356902 1_564
In1 Tb2 3.356902 1_565
In1 Tb0 3.356902 1_655
In1 Tb0 3.356902 1_654
In2 Pd2 2.765929 1_554
In2 Pd2 2.765929 1_555
In2 Pd0 2.896155 1_455
In2 Pd1 2.896160 1_555
In2 Tb0 3.194868 1_554
In2 Tb0 3.194868 1_555
In2 Tb1 3.356902 1_554
In2 Tb1 3.356902 1_555
In2 Tb2 3.356902 1_455
In2 Tb2 3.356902 1_454
Pd0 Tb2 3.016918 1_555
Pd0 Tb2 3.016918 1_554
Pd0 Tb0 3.016920 1_655
Pd0 Tb0 3.016920 1_654
Pd0 Tb1 3.016924 1_555
Pd0 Tb1 3.016924 1_554
Pd1 Tb0 3.016918 1_555
Pd1 Tb0 3.016918 1_554
Pd1 Tb2 3.016920 1_564
Pd1 Tb2 3.016920 1_565
Pd1 Tb1 3.016923 1_554
Pd1 Tb1 3.016923 1_555
Pd2 Tb0 3.148008 1_545
Pd2 Tb2 3.148008 1_455
Pd2 Tb1 3.148008 1_555
