# generated using pymatgen
data_SrFeAsF
_symmetry_space_group_name_H-M   'P 1'
_cell_length_a   4.15741300
_cell_length_b   4.15741300
_cell_length_c   9.37233200
_cell_angle_alpha   90.00000000
_cell_angle_beta   90.00000000
_cell_angle_gamma   90.00000000
_symmetry_Int_Tables_number   1
_chemical_formula_structural   SrFeAsF
_chemical_formula_sum   'Sr2 Fe2 As2 F2'
_cell_volume   161.99216281
_cell_formula_units_Z   2
loop_
 _symmetry_equiv_pos_site_id
 _symmetry_equiv_pos_as_xyz
  1  'x, y, z'
loop_
 _atom_site_type_symbol
 _atom_site_label
 _atom_site_symmetry_multiplicity
 _atom_site_fract_x
 _atom_site_fract_y
 _atom_site_fract_z
 _atom_site_occupancy
  Sr  Sr0  1  0.50000000  0.00000000  0.14935600  1
  Sr  Sr1  1  0.00000000  0.50000000  0.85064400  1
  Fe  Fe0  1  0.50000000  0.50000000  0.50000000  1
  Fe  Fe1  1  0.00000000  0.00000000  0.50000000  1
  As  As0  1  0.50000000  0.00000000  0.67276200  1
  As  As1  1  0.00000000  0.50000000  0.32723800  1
  F  F0  1  0.50000000  0.50000000  0.00000000  1
  F  F1  1  0.00000000  0.00000000  0.00000000  1
loop_
_geom_bond_atom_site_label_1
_geom_bond_atom_site_label_2
_geom_bond_distance
_geom_bond_site_symmetry_2
As0 Fe1 2.634914 1_555
As0 Fe1 2.634914 1_655
As0 Fe0 2.634914 1_545
As0 Fe0 2.634914 1_555
As0 Sr1 3.379570 1_645
As0 Sr1 3.379570 1_655
As0 Sr1 3.379570 1_555
As0 Sr1 3.379570 1_545
As1 Fe0 2.634914 1_455
As1 Fe0 2.634914 1_555
As1 Fe1 2.634914 1_555
As1 Fe1 2.634914 1_565
As1 Sr0 3.379570 1_455
As1 Sr0 3.379570 1_465
As1 Sr0 3.379570 1_555
As1 Sr0 3.379570 1_565
F0 Sr0 2.506093 1_565
F0 Sr0 2.506093 1_555
F0 Sr1 2.506093 1_654
F0 Sr1 2.506093 1_554
F1 Sr0 2.506093 1_555
F1 Sr0 2.506093 1_455
F1 Sr1 2.506093 1_554
F1 Sr1 2.506093 1_544
