# generated using pymatgen
data_MgMn2Tl2O6
_symmetry_space_group_name_H-M   'P 1'
_cell_length_a   5.11757943
_cell_length_b   7.91548251
_cell_length_c   5.11780484
_cell_angle_alpha   108.81393923
_cell_angle_beta   120.00274320
_cell_angle_gamma   90.01222481
_symmetry_Int_Tables_number   1
_chemical_formula_structural   MgMn2Tl2O6
_chemical_formula_sum   'Mg1 Mn2 Tl2 O6'
_cell_volume   166.61099011
_cell_formula_units_Z   1
loop_
 _symmetry_equiv_pos_site_id
 _symmetry_equiv_pos_as_xyz
  1  'x, y, z'
loop_
 _atom_site_type_symbol
 _atom_site_label
 _atom_site_symmetry_multiplicity
 _atom_site_fract_x
 _atom_site_fract_y
 _atom_site_fract_z
 _atom_site_occupancy
  Mg  Mg0  1  0.00000000  0.00000000  0.00000000  1
  Mn  Mn0  1  0.33315122  -0.00032508  0.66644787  1
  Mn  Mn1  1  0.66684878  0.00032508  0.33355213  1
  Tl  Tl0  1  0.13145880  0.39444055  0.26291486  1
  Tl  Tl1  1  0.86854120  0.60555945  0.73708514  1
  O  O0  1  0.04713233  0.13955549  0.44514697  1
  O  O1  1  0.39813911  0.13961916  0.09236763  1
  O  O2  1  0.69439654  0.13964507  0.74141281  1
  O  O3  1  0.30560346  0.86035493  0.25858719  1
  O  O4  1  0.60186089  0.86038084  0.90763237  1
  O  O5  1  0.95286767  0.86044451  0.55485303  1
loop_
_geom_bond_atom_site_label_1
_geom_bond_atom_site_label_2
_geom_bond_distance
_geom_bond_site_symmetry_2
Mg0 O3 2.072074 1_545
Mg0 O2 2.072074 1_454
Mg0 O4 2.072461 1_444
Mg0 O1 2.072461 1_555
Mg0 O0 2.072600 1_555
Mg0 O5 2.072600 1_444
Mn0 O0 1.950067 1_555
Mn0 O1 1.951031 1_556
Mn0 O2 1.951420 1_555
Mn0 O5 1.951851 1_445
Mn0 O4 1.952231 1_545
Mn0 O3 1.952941 1_545
Mn1 O5 1.950067 1_545
Mn1 O4 1.951031 1_544
Mn1 O3 1.951420 1_545
Mn1 O0 1.951851 1_655
Mn1 O1 1.952231 1_555
Mn1 O2 1.952941 1_555
O0 Tl0 2.596584 1_555
O1 Tl0 2.598031 1_555
O2 Tl0 2.598034 1_656
O3 Tl1 2.598034 1_454
O4 Tl1 2.598031 1_555
O5 Tl1 2.596584 1_555
