# generated using pymatgen
data_MgFe12(OF)12
_symmetry_space_group_name_H-M   'P 1'
_cell_length_a   9.69841751
_cell_length_b   14.61073225
_cell_length_c   3.11002465
_cell_angle_alpha   91.78621902
_cell_angle_beta   89.58975387
_cell_angle_gamma   91.96818682
_symmetry_Int_Tables_number   1
_chemical_formula_structural   MgFe12(OF)12
_chemical_formula_sum   'Mg1 Fe12 O12 F12'
_cell_volume   440.21136603
_cell_formula_units_Z   1
loop_
 _symmetry_equiv_pos_site_id
 _symmetry_equiv_pos_as_xyz
  1  'x, y, z'
loop_
 _atom_site_type_symbol
 _atom_site_label
 _atom_site_symmetry_multiplicity
 _atom_site_fract_x
 _atom_site_fract_y
 _atom_site_fract_z
 _atom_site_occupancy
  Mg  Mg0  1  0.46464300  0.17297200  0.11421000  1
  Fe  Fe0  1  0.02505700  0.98879100  0.05780200  1
  Fe  Fe1  1  0.99970300  0.34688800  0.99308800  1
  Fe  Fe2  1  0.01315300  0.67239900  0.00057400  1
  Fe  Fe3  1  0.12863000  0.15820200  0.58248400  1
  Fe  Fe4  1  0.23675900  0.49154700  0.46880700  1
  Fe  Fe5  1  0.26861400  0.85304900  0.52632100  1
  Fe  Fe6  1  0.48531500  0.37804700  0.89579200  1
  Fe  Fe7  1  0.54009100  0.97527900  0.04914000  1
  Fe  Fe8  1  0.51697900  0.66400900  0.00469400  1
  Fe  Fe9  1  0.76840500  0.14092700  0.55612100  1
  Fe  Fe10  1  0.72935100  0.50653200  0.49191000  1
  Fe  Fe11  1  0.74313700  0.82202800  0.52302500  1
  O  O0  1  0.06130800  0.27608200  0.48620000  1
  O  O1  1  0.10469400  0.92689500  0.54604800  1
  O  O2  1  0.17011800  0.09138200  0.07489100  1
  O  O3  1  0.12946400  0.44744500  0.96807400  1
  O  O4  1  0.36829900  0.90183700  0.03083800  1
  O  O5  1  0.37266000  0.40347300  0.40388900  1
  O  O6  1  0.62935000  0.92877100  0.53955400  1
  O  O7  1  0.59108700  0.60170600  0.49567200  1
  O  O8  1  0.65798500  0.09813300  0.05396200  1
  O  O9  1  0.66539600  0.43979900  0.98609900  1
  O  O10  1  0.66187200  0.76281300  0.01589400  1
  O  O11  1  0.93806800  0.07369300  0.56444600  1
  F  F0  1  0.11121800  0.60797100  0.49341600  1
  F  F1  1  0.17736100  0.77299100  0.01708100  1
  F  F2  1  0.32762700  0.21280100  0.66669500  1
  F  F3  1  0.33997800  0.57229900  0.97682900  1
  F  F4  1  0.44315400  0.06339100  0.52282300  1
  F  F5  1  0.40976400  0.73234700  0.50920000  1
  F  F6  1  0.57491900  0.24335500  0.59399600  1
  F  F7  1  0.83383100  0.23188700  0.03167900  1
  F  F8  1  0.85971400  0.89292700  0.03675700  1
  F  F9  1  0.84869900  0.57203800  0.99489500  1
  F  F10  1  0.89112000  0.40659900  0.49052400  1
  F  F11  1  0.91247600  0.73998900  0.50740200  1
loop_
_geom_bond_atom_site_label_1
_geom_bond_atom_site_label_2
_geom_bond_distance
_geom_bond_site_symmetry_2
Mg0 O8 2.206767 1_555
Fe0 O1 1.967349 1_555
Fe0 O1 1.971827 1_554
Fe0 O2 2.019933 1_565
Fe0 O11 2.159699 1_465
Fe0 O11 2.194049 1_464
Fe1 O3 1.904499 1_655
Fe1 O0 1.959506 1_655
Fe1 O0 1.983331 1_656
Fe3 O2 1.878539 1_555
Fe3 O2 1.894527 1_556
Fe3 O0 1.895923 1_555
Fe3 O11 2.187191 1_455
Fe4 O5 1.878927 1_555
Fe4 O3 1.959026 1_554
Fe4 O3 1.975396 1_555
Fe5 O1 1.951290 1_555
Fe5 O4 1.951771 1_556
Fe5 O4 1.953760 1_555
Fe6 O5 1.938905 1_555
Fe6 O5 1.948153 1_556
Fe6 O9 1.956061 1_555
Fe7 O6 1.913448 1_555
Fe7 O6 1.917400 1_554
Fe7 O4 1.950725 1_555
Fe7 O8 2.094547 1_565
Fe8 O7 1.946825 1_554
Fe8 O7 1.955531 1_555
Fe8 O10 1.979418 1_555
Fe9 O11 1.945875 1_555
Fe9 O8 1.973281 1_555
Fe9 O8 1.981314 1_556
Fe10 O9 1.920103 1_554
Fe10 O9 1.932821 1_555
Fe10 O7 1.964375 1_555
Fe11 O10 1.933343 1_556
Fe11 O10 1.934714 1_555
Fe11 O6 1.940416 1_555
F0 Fe2 2.055703 1_556
F0 Fe2 2.076610 1_555
F0 Fe4 2.124766 1_555
F1 Fe5 2.119715 1_555
F1 Fe5 2.121749 1_554
F1 Fe2 2.129472 1_555
F2 Mg0 2.042451 1_556
F2 Fe3 2.078018 1_555
F2 Mg0 2.239396 1_555
F3 Fe8 2.141655 1_556
F3 Fe4 2.171577 1_555
F3 Fe4 2.178240 1_556
F4 Mg0 2.078912 1_555
F4 Fe7 2.157891 1_545
F4 Fe7 2.336033 1_546
F4 Mg0 2.405946 1_556
F5 Fe8 2.119029 1_555
F5 Fe8 2.154765 1_556
F5 Fe5 2.268442 1_555
F6 Mg0 2.068691 1_555
F6 Mg0 2.195964 1_556
F6 Fe6 2.345125 1_555
F6 Fe9 2.439991 1_555
F7 Fe9 2.046768 1_554
F7 Fe9 2.211670 1_555
F7 Fe1 2.291219 1_554
F8 Fe0 2.092610 1_655
F8 Fe11 2.152009 1_555
F8 Fe11 2.178599 1_554
F9 Fe2 2.128961 1_656
F9 Fe10 2.135256 1_555
F9 Fe10 2.153041 1_556
F10 Fe1 2.054037 1_554
F10 Fe1 2.117714 1_555
F10 Fe10 2.179498 1_555
F11 Fe11 2.065620 1_555
F11 Fe2 2.088137 1_655
F11 Fe2 2.112624 1_656
