# generated using pymatgen
data_MgZn2(SbO3)4
_symmetry_space_group_name_H-M   'P 1'
_cell_length_a   5.33789070
_cell_length_b   5.59060548
_cell_length_c   7.80612922
_cell_angle_alpha   92.87295383
_cell_angle_beta   89.19835559
_cell_angle_gamma   89.81696664
_symmetry_Int_Tables_number   1
_chemical_formula_structural   MgZn2(SbO3)4
_chemical_formula_sum   'Mg1 Zn2 Sb4 O12'
_cell_volume   232.63349646
_cell_formula_units_Z   1
loop_
 _symmetry_equiv_pos_site_id
 _symmetry_equiv_pos_as_xyz
  1  'x, y, z'
loop_
 _atom_site_type_symbol
 _atom_site_label
 _atom_site_symmetry_multiplicity
 _atom_site_fract_x
 _atom_site_fract_y
 _atom_site_fract_z
 _atom_site_occupancy
  Mg  Mg0  1  0.49315600  0.44217000  0.78031800  1
  Zn  Zn0  1  0.50951500  0.51073200  0.27266400  1
  Zn  Zn1  1  0.98449600  0.01259900  0.78005600  1
  Sb  Sb0  1  0.49436200  0.00676000  0.03885200  1
  Sb  Sb1  1  0.00522400  0.54046900  0.00439300  1
  Sb  Sb2  1  0.99728700  0.46801300  0.49759900  1
  Sb  Sb3  1  0.50241300  0.96284400  0.50319000  1
  O  O0  1  0.68042200  0.26946500  0.42417600  1
  O  O1  1  0.17308900  0.15445700  0.56209100  1
  O  O2  1  0.86123300  0.87064100  0.01590300  1
  O  O3  1  0.31287000  0.71524700  0.92531200  1
  O  O4  1  0.32114000  0.64425900  0.57291300  1
  O  O5  1  0.79619100  0.74692300  0.42611300  1
  O  O6  1  0.18987300  0.25949600  0.90609600  1
  O  O7  1  0.67333100  0.40957700  0.04707000  1
  O  O8  1  0.13297700  0.44031100  0.24850900  1
  O  O9  1  0.61780600  0.06598600  0.73469900  1
  O  O10  1  0.38985400  0.86773900  0.27195900  1
  O  O11  1  0.86194400  0.54094600  0.73797300  1
loop_
_geom_bond_atom_site_label_1
_geom_bond_atom_site_label_2
_geom_bond_distance
_geom_bond_site_symmetry_2
Mg0 O11 2.072784 1_555
Mg0 O3 2.079617 1_555
Mg0 O6 2.166654 1_555
Mg0 O9 2.214023 1_555
Mg0 O4 2.226912 1_555
Mg0 O7 2.321013 1_556
O0 Zn0 2.057347 1_555
O0 Sb3 2.078886 1_545
O0 Sb2 2.096845 1_555
O1 Sb2 2.073194 1_455
O1 Sb3 2.089287 1_545
O1 Zn1 2.151697 1_455
O2 Sb1 1.994596 1_655
O2 Sb0 2.100761 1_565
O2 Zn1 2.137323 1_564
O3 Sb1 2.018648 1_556
O3 Sb0 2.066262 1_566
O4 Sb2 2.070296 1_455
O4 Sb3 2.120899 1_555
O5 Sb2 1.997067 1_555
O5 Sb3 2.041318 1_555
O5 Zn0 2.329316 1_555
O6 Sb1 1.968710 1_556
O6 Zn1 1.994696 1_455
O6 Sb0 2.427199 1_556
O7 Sb1 1.949684 1_655
O7 Zn0 2.009861 1_555
O7 Sb0 2.447282 1_555
O8 Zn0 2.058772 1_555
O8 Sb2 2.063755 1_455
O8 Sb1 2.133253 1_555
O9 Sb3 1.976560 1_545
O9 Zn1 2.017899 1_555
O9 Sb0 2.493460 1_556
O10 Sb3 1.959074 1_555
O10 Sb0 2.083883 1_565
O10 Zn0 2.093950 1_555
O11 Sb2 2.022996 1_555
O11 Sb1 2.226025 1_656
