# generated using pymatgen
data_MgNb4VO12
_symmetry_space_group_name_H-M   'P 1'
_cell_length_a   5.66223808
_cell_length_b   11.33499784
_cell_length_c   9.99788050
_cell_angle_alpha   27.96624594
_cell_angle_beta   50.75245596
_cell_angle_gamma   55.97475709
_symmetry_Int_Tables_number   1
_chemical_formula_structural   MgNb4VO12
_chemical_formula_sum   'Mg1 Nb4 V1 O12'
_cell_volume   233.03477378
_cell_formula_units_Z   1
loop_
 _symmetry_equiv_pos_site_id
 _symmetry_equiv_pos_as_xyz
  1  'x, y, z'
loop_
 _atom_site_type_symbol
 _atom_site_label
 _atom_site_symmetry_multiplicity
 _atom_site_fract_x
 _atom_site_fract_y
 _atom_site_fract_z
 _atom_site_occupancy
  Mg  Mg0  1  0.28631800  0.50071300  0.28779500  1
  Nb  Nb0  1  0.99554200  0.00173100  0.99720100  1
  Nb  Nb1  1  0.99636100  0.50114600  0.99527100  1
  Nb  Nb2  1  0.49832400  0.99987700  0.50483100  1
  Nb  Nb3  1  0.50433100  0.50403500  0.49438100  1
  V  V0  1  0.29407500  0.00036200  0.29165000  1
  O  O0  1  0.32214600  0.28506400  0.14635500  1
  O  O1  1  0.23653700  0.14092800  0.59031100  1
  O  O2  1  0.15216300  0.30142800  0.71318200  1
  O  O3  1  0.86284100  0.17863600  0.23979100  1
  O  O4  1  0.31622800  0.77929200  0.15176200  1
  O  O5  1  0.71356000  0.41713700  0.31572600  1
  O  O6  1  0.23531400  0.63389300  0.59574500  1
  O  O7  1  0.59881500  0.18773600  0.86102400  1
  O  O8  1  0.14590200  0.80407400  0.71568400  1
  O  O9  1  0.86998300  0.68033900  0.23200300  1
  O  O10  1  0.71551600  0.91204100  0.32419800  1
  O  O11  1  0.58915400  0.68347200  0.87114100  1
loop_
_geom_bond_atom_site_label_1
_geom_bond_atom_site_label_2
_geom_bond_distance
_geom_bond_site_symmetry_2
Mg0 O11 2.068309 1_554
Mg0 O1 2.068348 1_555
Mg0 O9 2.073676 1_455
Mg0 O4 2.137819 1_555
Mg0 O2 2.151630 1_555
Mg0 O5 2.156494 1_555
Nb0 O2 1.880208 1_655
Nb0 O4 1.893845 1_646
Nb0 O10 1.899870 1_546
Nb0 O7 2.200907 1_555
Nb0 O1 2.224366 1_655
Nb0 O9 2.228818 1_546
Nb1 O5 1.887144 1_556
Nb1 O0 1.902007 1_656
Nb1 O8 1.903955 1_655
Nb1 O6 2.207472 1_655
Nb1 O3 2.208971 1_556
Nb1 O11 2.210195 1_555
Nb2 O1 1.908472 1_565
Nb2 O11 1.912329 1_555
Nb2 O3 1.913821 1_565
Nb2 O8 2.172706 1_555
Nb2 O0 2.177055 1_565
Nb2 O10 2.181910 1_555
Nb3 O9 1.912962 1_555
Nb3 O6 1.920006 1_555
Nb3 O7 1.922756 1_555
Nb3 O4 2.149732 1_555
Nb3 O5 2.165284 1_555
Nb3 O2 2.183315 1_555
O0 V0 2.133231 1_555
O3 V0 2.131588 1_655
O6 V0 2.137092 1_565
O7 V0 2.138447 1_556
O8 V0 2.133905 1_565
O10 V0 2.129820 1_565
