# generated using pymatgen
data_NiSeO3
_symmetry_space_group_name_H-M   'P 1'
_cell_length_a   4.94119162
_cell_length_b   5.87229752
_cell_length_c   7.49794122
_cell_angle_alpha   90.00024741
_cell_angle_beta   89.99996045
_cell_angle_gamma   90.00011801
_symmetry_Int_Tables_number   1
_chemical_formula_structural   NiSeO3
_chemical_formula_sum   'Ni4 Se4 O12'
_cell_volume   217.56136685
_cell_formula_units_Z   4
loop_
 _symmetry_equiv_pos_site_id
 _symmetry_equiv_pos_as_xyz
  1  'x, y, z'
loop_
 _atom_site_type_symbol
 _atom_site_label
 _atom_site_symmetry_multiplicity
 _atom_site_fract_x
 _atom_site_fract_y
 _atom_site_fract_z
 _atom_site_occupancy
  Ni  Ni0  1  0.50000000  -0.00000000  0.00000000  1
  Ni  Ni1  1  0.99999900  0.50000000  0.00000000  1
  Ni  Ni2  1  0.99999900  0.50000000  0.50000000  1
  Ni  Ni3  1  0.50000000  -0.00000000  0.50000000  1
  Se  Se0  1  0.98021249  0.01809691  0.24999900  1
  Se  Se1  1  0.48020949  0.48190309  0.75000200  1
  Se  Se2  1  0.51978951  0.51809691  0.24999800  1
  Se  Se3  1  0.01978651  0.98190209  0.75000100  1
  O  O0  1  0.86067111  0.18271335  0.42606505  1
  O  O1  1  0.36067011  0.31728565  0.57393395  1
  O  O2  1  0.63932789  0.68271135  0.07393395  1
  O  O3  1  0.13932789  0.81728465  0.92606805  1
  O  O4  1  0.13932889  0.81728665  0.57393495  1
  O  O5  1  0.63932889  0.68271335  0.42606605  1
  O  O6  1  0.36067111  0.31728665  0.92606705  1
  O  O7  1  0.86067211  0.18271535  0.07393195  1
  O  O8  1  0.32529174  0.07051717  0.25000100  1
  O  O9  1  0.82529474  0.42948283  0.75000000  1
  O  O10  1  0.67470826  0.92948283  0.74999900  1
  O  O11  1  0.17470526  0.57051717  0.25000000  1
loop_
_geom_bond_atom_site_label_1
_geom_bond_atom_site_label_2
_geom_bond_distance
_geom_bond_site_symmetry_2
Ni0 O6 2.062231 1_554
Ni0 O2 2.062242 1_545
Ni0 O8 2.104857 1_555
Ni0 O10 2.104857 1_544
Ni0 O3 2.152807 1_544
Ni0 O7 2.152807 1_555
Ni1 O7 2.062212 1_555
Ni1 O3 2.062216 1_654
Ni1 O9 2.104843 1_554
Ni1 O11 2.104847 1_655
Ni1 O2 2.152798 1_555
Ni1 O6 2.152806 1_654
Ni2 O0 2.062227 1_555
Ni2 O4 2.062230 1_655
Ni2 O9 2.104845 1_555
Ni2 O11 2.104849 1_655
Ni2 O5 2.152803 1_555
Ni2 O1 2.152810 1_655
Ni3 O1 2.062225 1_555
Ni3 O5 2.062229 1_545
Ni3 O8 2.104848 1_555
Ni3 O10 2.104848 1_545
Ni3 O0 2.152805 1_555
Ni3 O4 2.152805 1_545
O0 Se0 1.739570 1_555
O1 Se1 1.739581 1_555
O2 Se2 1.739552 1_555
O3 Se3 1.739586 1_555
O4 Se3 1.739569 1_555
O5 Se2 1.739577 1_555
O6 Se1 1.739564 1_555
O7 Se0 1.739588 1_555
O8 Se0 1.732666 1_455
O9 Se1 1.732696 1_555
O10 Se3 1.732660 1_655
O11 Se2 1.732691 1_555
