# generated using pymatgen
data_Na4YSi2GePO12
_symmetry_space_group_name_H-M   'P 1'
_cell_length_a   9.22380795
_cell_length_b   9.22379786
_cell_length_c   22.60179980
_cell_angle_alpha   91.65546669
_cell_angle_beta   88.34454248
_cell_angle_gamma   120.65773465
_symmetry_Int_Tables_number   1
_chemical_formula_structural   Na4YSi2GePO12
_chemical_formula_sum   'Na24 Y6 Si12 Ge6 P6 O72'
_cell_volume   1653.24329339
_cell_formula_units_Z   6
loop_
 _symmetry_equiv_pos_site_id
 _symmetry_equiv_pos_as_xyz
  1  'x, y, z'
loop_
 _atom_site_type_symbol
 _atom_site_label
 _atom_site_symmetry_multiplicity
 _atom_site_fract_x
 _atom_site_fract_y
 _atom_site_fract_z
 _atom_site_occupancy
  Na  Na0  1  0.63741440  0.00246126  0.25174712  1
  Na  Na1  1  0.36906311  0.37042178  0.24812705  1
  Na  Na2  1  0.99538269  0.62861332  0.25063937  1
  Na  Na3  1  0.62957823  0.63093688  0.74812694  1
  Na  Na4  1  0.99753840  0.36258609  0.75174703  1
  Na  Na5  1  0.37138772  0.00461782  0.75063932  1
  Na  Na6  1  0.30408118  0.33579951  0.58508052  1
  Na  Na7  1  0.03573234  0.70375366  0.58146356  1
  Na  Na8  1  0.66205190  0.96194683  0.58397160  1
  Na  Na9  1  0.29624778  0.96426950  0.08146332  1
  Na  Na10  1  0.66420139  0.69591853  0.08508071  1
  Na  Na11  1  0.03805356  0.33794770  0.08397178  1
  Na  Na12  1  0.97074920  0.66912816  0.91841786  1
  Na  Na13  1  0.70239744  0.03709266  0.91479672  1
  Na  Na14  1  0.32872337  0.29526625  0.91730359  1
  Na  Na15  1  0.96290692  0.29760314  0.41479682  1
  Na  Na16  1  0.33087189  0.02925010  0.41841804  1
  Na  Na17  1  0.70473457  0.67127683  0.41730398  1
  Na  Na18  1  0.99585769  0.99388822  0.50087956  1
  Na  Na19  1  0.00610672  0.00413860  0.00087950  1
  Na  Na20  1  0.66254514  0.32723062  0.83421416  1
  Na  Na21  1  0.67276916  0.33745482  0.33421416  1
  Na  Na22  1  0.32919919  0.66056697  0.16755024  1
  Na  Na23  1  0.33943354  0.67080093  0.66754992  1
  Y  Y0  1  0.99581911  0.99793540  0.35032701  1
  Y  Y1  1  0.00206418  0.00418104  0.85032592  1
  Y  Y2  1  0.66249769  0.33127715  0.68365949  1
  Y  Y3  1  0.66872356  0.33750324  0.18365922  1
  Y  Y4  1  0.32915485  0.66460177  0.01699244  1
  Y  Y5  1  0.33539828  0.67084332  0.51699263  1
  Si  Si0  1  0.69934547  0.71083087  0.24991036  1
  Si  Si1  1  0.00915799  0.29898085  0.25081684  1
  Si  Si2  1  0.28916923  0.30065469  0.74991028  1
  Si  Si3  1  0.70101894  0.99084158  0.75081671  1
  Si  Si4  1  0.36601793  0.04417138  0.58324224  1
  Si  Si5  1  0.67582381  0.63231539  0.58414840  1
  Si  Si6  1  0.95582886  0.63398267  0.08324204  1
  Si  Si7  1  0.36768459  0.32417638  0.08414840  1
  Si  Si8  1  0.03268227  0.37750474  0.91657560  1
  Si  Si9  1  0.34248606  0.96564381  0.91748269  1
  Si  Si10  1  0.62249447  0.96731749  0.41657583  1
  Si  Si11  1  0.03435692  0.65751383  0.41748297  1
  Ge  Ge0  1  0.99922681  0.99457999  0.65093161  1
  Ge  Ge1  1  0.00542031  0.00077340  0.15093190  1
  Ge  Ge2  1  0.66587037  0.32790150  0.98426892  1
  Ge  Ge3  1  0.67209870  0.33412972  0.48426930  1
  Ge  Ge4  1  0.33254773  0.66123463  0.31760146  1
  Ge  Ge5  1  0.33876521  0.66745239  0.81760139  1
  P  P0  1  0.28967381  0.99029963  0.24868806  1
  P  P1  1  0.00970036  0.71032604  0.74868783  1
  P  P2  1  0.95634691  0.32364313  0.58201621  1
  P  P3  1  0.67635697  0.04365339  0.08201631  1
  P  P4  1  0.62300818  0.65697384  0.91534943  1
  P  P5  1  0.34302669  0.37699161  0.41534940  1
  O  O0  1  0.21989575  0.02726130  0.30504500  1
  O  O1  1  0.81243275  0.78040580  0.30744617  1
  O  O2  1  0.97421755  0.19012893  0.30859656  1
  O  O3  1  0.21959554  0.18756800  0.80744609  1
  O  O4  1  0.97273885  0.78010351  0.80504489  1
  O  O5  1  0.80987129  0.02578193  0.80859608  1
  O  O6  1  0.79838053  0.95839585  0.69063470  1
  O  O7  1  0.16029779  0.20247818  0.69123169  1
  O  O8  1  0.03846335  0.82673361  0.69358553  1
  O  O9  1  0.79752181  0.83970209  0.19123172  1
  O  O10  1  0.04160448  0.20161983  0.19063491  1
  O  O11  1  0.17326606  0.96153692  0.19358548  1
  O  O12  1  0.88655855  0.36059608  0.63837514  1
  O  O13  1  0.47909462  0.11374400  0.64077934  1
  O  O14  1  0.64087387  0.52344364  0.64192696  1
  O  O15  1  0.88625642  0.52090567  0.14077919  1
  O  O16  1  0.63940497  0.11344267  0.13837533  1
  O  O17  1  0.47655589  0.35912526  0.14192670  1
  O  O18  1  0.46504808  0.29171750  0.02396926  1
  O  O19  1  0.82694968  0.53580548  0.02456557  1
  O  O20  1  0.70514472  0.16006831  0.02691744  1
  O  O21  1  0.46419467  0.17305034  0.52456558  1
  O  O22  1  0.70828271  0.53495229  0.52396932  1
  O  O23  1  0.83993161  0.29485483  0.52691723  1
  O  O24  1  0.55322504  0.69392314  0.97170934  1
  O  O25  1  0.14576891  0.44707876  0.97411315  1
  O  O26  1  0.30753959  0.85678231  0.97526204  1
  O  O27  1  0.55291909  0.85422976  0.47411345  1
  O  O28  1  0.30607736  0.44677472  0.47170916  1
  O  O29  1  0.14321904  0.69246023  0.47526213  1
  O  O30  1  0.13171703  0.62505728  0.35730140  1
  O  O31  1  0.49361073  0.86913460  0.35790100  1
  O  O32  1  0.37180368  0.49340305  0.36025164  1
  O  O33  1  0.13086586  0.50638973  0.85790092  1
  O  O34  1  0.37494307  0.86828293  0.85730134  1
  O  O35  1  0.50659672  0.62819579  0.86025138  1
  O  O36  1  0.01338843  0.82079045  0.41210268  1
  O  O37  1  0.81178157  0.99911200  0.41202687  1
  O  O38  1  0.18998323  0.19817664  0.40969476  1
  O  O39  1  0.00088767  0.18821726  0.91202665  1
  O  O40  1  0.17920895  0.98661188  0.91210224  1
  O  O41  1  0.80182353  0.81001721  0.90969483  1
  O  O42  1  0.96553153  0.15942297  0.58574068  1
  O  O43  1  0.17753254  0.03320377  0.59141056  1
  O  O44  1  0.85437408  0.82308935  0.59041839  1
  O  O45  1  0.96679604  0.82246719  0.09141047  1
  O  O46  1  0.84057795  0.03446876  0.08574062  1
  O  O47  1  0.17691116  0.14562593  0.09041829  1
  O  O48  1  0.68004374  0.15411217  0.74543469  1
  O  O49  1  0.47846020  0.33245217  0.74536109  1
  O  O50  1  0.85664069  0.53151946  0.74302982  1
  O  O51  1  0.66754737  0.52153984  0.24536134  1
  O  O52  1  0.84588712  0.31995600  0.24543491  1
  O  O53  1  0.46848038  0.14335837  0.24303012  1
  O  O54  1  0.63219171  0.49275459  0.91907363  1
  O  O55  1  0.84419711  0.36653581  0.92474413  1
  O  O56  1  0.52104526  0.15643011  0.92375182  1
  O  O57  1  0.63346425  0.15580258  0.42474423  1
  O  O58  1  0.50724498  0.36780852  0.41907379  1
  O  O59  1  0.84357035  0.47895501  0.42375178  1
  O  O60  1  0.34672431  0.48745121  0.07876980  1
  O  O61  1  0.14512424  0.66579332  0.07869453  1
  O  O62  1  0.52330462  0.86484467  0.07636090  1
  O  O63  1  0.33420693  0.85487709  0.57869472  1
  O  O64  1  0.51254877  0.65327659  0.57876980  1
  O  O65  1  0.13515566  0.47669584  0.57636090  1
  O  O66  1  0.29885939  0.82608195  0.25240753  1
  O  O67  1  0.51084983  0.69986237  0.25807836  1
  O  O68  1  0.18771630  0.48977613  0.25708625  1
  O  O69  1  0.30013754  0.48914952  0.75807845  1
  O  O70  1  0.17391715  0.70114012  0.75240752  1
  O  O71  1  0.51022402  0.81228377  0.75708625  1
loop_
_geom_bond_atom_site_label_1
_geom_bond_atom_site_label_2
_geom_bond_distance
_geom_bond_site_symmetry_2
Na0 O67 2.421592 1_545
Na0 O53 2.500711 1_555
Na0 O52 2.561158 1_555
Na0 O66 2.686317 1_545
Na0 O31 2.711329 1_545
Na0 O16 2.782775 1_555
Na0 O9 2.886368 1_545
Na0 O2 2.986027 1_555
Na1 O51 2.368158 1_555
Na1 O68 2.428264 1_555
Na1 O17 2.590144 1_555
Na1 O67 2.630462 1_555
Na1 O53 2.679404 1_555
Na1 O32 2.741901 1_555
Na1 O10 2.923962 1_555
Na2 O66 2.440783 1_655
Na2 O52 2.450933 1_555
Na2 O51 2.664944 1_555
Na2 O15 2.673518 1_555
Na2 O68 2.674140 1_655
Na2 O30 2.759704 1_655
Na2 O1 2.938853 1_555
Na2 O11 2.958567 1_655
Na3 O49 2.368159 1_555
Na3 O71 2.428263 1_555
Na3 O14 2.590136 1_555
Na3 O69 2.630466 1_555
Na3 O50 2.679399 1_555
Na3 O35 2.741898 1_555
Na3 O6 2.923963 1_555
Na4 O69 2.421598 1_655
Na4 O50 2.500711 1_555
Na4 O48 2.561162 1_555
Na4 O70 2.686306 1_655
Na4 O33 2.711331 1_655
Na4 O12 2.782773 1_555
Na4 O7 2.886372 1_655
Na4 O5 2.986028 1_555
Na5 O70 2.440791 1_545
Na5 O48 2.450926 1_555
Na5 O49 2.664935 1_555
Na5 O13 2.673513 1_555
Na5 O71 2.674137 1_545
Na5 O34 2.759704 1_545
Na5 O3 2.938852 1_555
Na5 O8 2.958573 1_545
Na6 O43 2.421579 1_555
Na6 O65 2.500642 1_555
Na6 O64 2.561024 1_555
Na6 O42 2.686274 1_455
Na6 O7 2.711221 1_555
Na6 O28 2.782733 1_555
Na6 O21 2.886335 1_555
Na6 O14 2.985916 1_555
Na7 O63 2.368082 1_555
Na7 O44 2.428218 1_455
Na7 O29 2.590139 1_555
Na7 O43 2.630523 1_565
Na7 O65 2.679398 1_555
Na7 O8 2.741857 1_555
Na7 O22 2.923920 1_455
Na8 O42 2.440816 1_565
Na8 O64 2.451034 1_555
Na8 O63 2.665034 1_555
Na8 O27 2.673502 1_555
Na8 O44 2.674198 1_555
Na8 O6 2.759687 1_555
Na8 O13 2.938949 1_565
Na8 O23 2.958461 1_565
Na9 O61 2.368092 1_555
Na9 O47 2.428209 1_565
Na9 O26 2.590134 1_554
Na9 O45 2.630539 1_455
Na9 O62 2.679401 1_555
Na9 O11 2.741866 1_555
Na9 O18 2.923904 1_565
Na10 O45 2.421572 1_555
Na10 O62 2.500651 1_555
Na10 O60 2.561026 1_555
Na10 O46 2.686276 1_565
Na10 O9 2.711215 1_555
Na10 O24 2.782739 1_554
Na10 O19 2.886328 1_555
Na10 O17 2.985914 1_555
Na11 O46 2.440808 1_455
Na11 O60 2.451041 1_555
Na11 O61 2.665035 1_555
Na11 O25 2.673506 1_554
Na11 O47 2.674194 1_555
Na11 O10 2.759683 1_555
Na11 O15 2.938951 1_455
Na11 O20 2.958468 1_455
Na12 O55 2.421541 1_555
Na12 O41 2.500595 1_555
Na12 O40 2.561066 1_655
Na12 O54 2.686337 1_555
Na12 O19 2.711189 1_556
Na12 O4 2.782780 1_555
Na12 O33 2.886301 1_655
Na12 O26 2.985881 1_655
Na13 O39 2.368206 1_655
Na13 O56 2.428180 1_555
Na13 O5 2.590112 1_555
Na13 O55 2.630467 1_555
Na13 O41 2.679572 1_545
Na13 O20 2.741790 1_556
Na13 O34 2.923965 1_545
Na14 O54 2.440755 1_555
Na14 O40 2.450903 1_545
Na14 O39 2.664993 1_555
Na14 O3 2.673452 1_555
Na14 O56 2.674037 1_555
Na14 O18 2.759715 1_556
Na14 O25 2.939052 1_555
Na14 O35 2.958590 1_555
Na15 O37 2.368211 1_545
Na15 O59 2.428170 1_555
Na15 O2 2.590104 1_555
Na15 O57 2.630465 1_555
Na15 O38 2.679584 1_655
Na15 O23 2.741782 1_555
Na15 O30 2.923961 1_655
Na16 O57 2.421543 1_555
Na16 O38 2.500600 1_555
Na16 O36 2.561066 1_545
Na16 O58 2.686341 1_555
Na16 O21 2.711187 1_555
Na16 O0 2.782786 1_555
Na16 O31 2.886297 1_545
Na16 O29 2.985874 1_545
Na17 O58 2.440754 1_555
Na17 O36 2.450902 1_655
Na17 O37 2.664989 1_555
Na17 O1 2.673460 1_555
Na17 O59 2.674032 1_555
Na17 O22 2.759706 1_555
Na17 O27 2.939060 1_555
Na17 O32 2.958604 1_555
Na18 O44 2.493081 1_555
Na18 O42 2.514692 1_565
Na18 O36 2.580870 1_655
Na18 O43 2.581063 1_665
Na18 O37 2.684054 1_555
Na18 O38 2.752194 1_665
Na19 O47 2.493106 1_555
Na19 O46 2.514673 1_455
Na19 O40 2.580891 1_544
Na19 O45 2.581052 1_445
Na19 O39 2.684056 1_554
Na19 O41 2.752163 1_444
Na20 O56 2.493092 1_555
Na20 O54 2.514701 1_555
Na20 O48 2.580929 1_555
Na20 O55 2.580938 1_555
Na20 O49 2.684108 1_555
Na20 O50 2.752111 1_555
Na21 O59 2.493094 1_555
Na21 O58 2.514707 1_555
Na21 O52 2.580924 1_555
Na21 O57 2.580941 1_555
Na21 O51 2.684104 1_555
Na21 O53 2.752108 1_555
Na22 O68 2.492999 1_555
Na22 O66 2.514561 1_555
Na22 O67 2.580916 1_555
Na22 O60 2.581017 1_555
Na22 O61 2.684108 1_555
Na22 O62 2.752182 1_555
Na23 O71 2.493003 1_555
Na23 O70 2.514573 1_555
Na23 O69 2.580926 1_555
Na23 O64 2.581007 1_555
Na23 O63 2.684107 1_555
Na23 O65 2.752177 1_555
Ge0 O6 1.907709 1_555
Ge0 O7 1.945763 1_665
Ge0 O43 1.985932 1_665
Ge0 O44 1.995776 1_555
Ge0 O8 2.033482 1_655
Ge0 O42 2.284137 1_565
Ge1 O10 1.907707 1_555
Ge1 O9 1.945764 1_445
Ge1 O45 1.985938 1_445
Ge1 O47 1.995783 1_555
Ge1 O11 2.033474 1_545
Ge1 O46 2.284139 1_455
Ge2 O18 1.907489 1_556
Ge2 O19 1.945780 1_556
Ge2 O55 1.986105 1_555
Ge2 O56 1.995686 1_555
Ge2 O20 2.033518 1_556
Ge2 O54 2.284198 1_555
Ge3 O22 1.907486 1_555
Ge3 O21 1.945777 1_555
Ge3 O57 1.986110 1_555
Ge3 O59 1.995695 1_555
Ge3 O23 2.033513 1_555
Ge3 O58 2.284207 1_555
Ge4 O30 1.907571 1_555
Ge4 O31 1.945747 1_555
Ge4 O67 1.985931 1_555
Ge4 O68 1.995623 1_555
Ge4 O32 2.033425 1_555
Ge4 O66 2.284181 1_555
Ge5 O34 1.907566 1_555
Ge5 O33 1.945744 1_555
Ge5 O69 1.985932 1_555
Ge5 O71 1.995623 1_555
Ge5 O35 2.033427 1_555
Ge5 O70 2.284183 1_555
O0 P0 1.517985 1_545
O0 Y0 2.171654 1_445
O1 Si0 1.593250 1_555
O1 Y0 2.085079 1_555
O2 Si1 1.593370 1_655
O2 Y0 2.130642 1_545
O3 Si2 1.593247 1_555
O3 Y1 2.085080 1_555
O4 P1 1.517984 1_655
O4 Y1 2.171651 1_665
O5 Si3 1.593366 1_545
O5 Y1 2.130629 1_655
O6 Si3 1.710625 1_555
O7 Si2 1.707591 1_555
O8 P1 1.594357 1_555
O9 Si0 1.707590 1_555
O10 Si1 1.710623 1_555
O11 P0 1.594364 1_555
O12 P2 1.518038 1_555
O12 Y2 2.171572 1_555
O13 Si4 1.593227 1_555
O13 Y2 2.085141 1_555
O14 Si5 1.593436 1_555
O14 Y2 2.130551 1_555
O15 Si6 1.593229 1_555
O15 Y3 2.085137 1_555
O16 P3 1.518040 1_555
O16 Y3 2.171564 1_555
O17 Si7 1.593431 1_555
O17 Y3 2.130553 1_555
O18 Si7 1.710636 1_555
O19 Si6 1.707586 1_555
O20 P3 1.594291 1_555
O21 Si4 1.707588 1_555
O22 Si5 1.710633 1_555
O23 P2 1.594295 1_555
O24 P4 1.518017 1_555
O24 Y4 2.171627 1_556
O25 Si8 1.593280 1_555
O25 Y4 2.085029 1_556
O26 Si9 1.593404 1_555
O26 Y4 2.130602 1_556
O27 Si10 1.593286 1_555
O27 Y5 2.085019 1_555
O28 P5 1.518014 1_555
O28 Y5 2.171617 1_555
O29 Si11 1.593404 1_555
O29 Y5 2.130602 1_555
O30 Si11 1.710651 1_555
O31 Si10 1.707584 1_555
O32 P5 1.594271 1_555
O33 Si8 1.707588 1_555
O34 Si9 1.710653 1_555
O35 P4 1.594275 1_555
O36 Si11 1.621517 1_555
O36 Y0 2.249549 1_455
O37 Si10 1.616820 1_555
O37 Y0 2.169692 1_555
O38 P5 1.534028 1_555
O38 Y0 2.245338 1_445
O39 Si8 1.616821 1_555
O39 Y1 2.169692 1_555
O40 Si9 1.621521 1_555
O40 Y1 2.249557 1_565
O41 P4 1.534031 1_555
O41 Y1 2.245351 1_665
O42 P2 1.564394 1_555
O43 Si4 1.694124 1_555
O44 Si5 1.694830 1_555
O45 Si6 1.694116 1_555
O46 P3 1.564402 1_555
O47 Si7 1.694829 1_555
O48 Si3 1.621502 1_545
O48 Y2 2.249587 1_555
O49 Si2 1.616845 1_555
O49 Y2 2.169710 1_555
O50 P1 1.534044 1_655
O50 Y2 2.245300 1_555
O51 Si0 1.616841 1_555
O51 Y3 2.169713 1_555
O52 Si1 1.621506 1_655
O52 Y3 2.249591 1_555
O53 P0 1.534041 1_545
O53 Y3 2.245318 1_555
O54 P4 1.564379 1_555
O55 Si8 1.694117 1_655
O56 Si9 1.694927 1_545
O57 Si10 1.694110 1_545
O58 P5 1.564370 1_555
O59 Si11 1.694926 1_655
O60 Si7 1.621451 1_555
O60 Y4 2.249614 1_555
O61 Si6 1.616839 1_455
O61 Y4 2.169727 1_555
O62 P3 1.534026 1_565
O62 Y4 2.245302 1_555
O63 Si4 1.616826 1_565
O63 Y5 2.169747 1_555
O64 Si5 1.621460 1_555
O64 Y5 2.249601 1_555
O65 P2 1.534028 1_455
O65 Y5 2.245290 1_555
O66 P0 1.564366 1_555
O67 Si0 1.694213 1_555
O68 Si1 1.694968 1_555
O69 Si2 1.694205 1_555
O70 P1 1.564362 1_555
O71 Si3 1.694965 1_555
