# generated using pymatgen
data_AsO2
_symmetry_space_group_name_H-M   'P 1'
_cell_length_a   5.26350720
_cell_length_b   7.29483597
_cell_length_c   8.61476516
_cell_angle_alpha   90.00000000
_cell_angle_beta   90.00000000
_cell_angle_gamma   90.00000000
_symmetry_Int_Tables_number   1
_chemical_formula_structural   AsO2
_chemical_formula_sum   'As8 O16'
_cell_volume   330.77615551
_cell_formula_units_Z   8
loop_
 _symmetry_equiv_pos_site_id
 _symmetry_equiv_pos_as_xyz
  1  'x, y, z'
loop_
 _atom_site_type_symbol
 _atom_site_label
 _atom_site_symmetry_multiplicity
 _atom_site_fract_x
 _atom_site_fract_y
 _atom_site_fract_z
 _atom_site_occupancy
  As  As0  1  0.25000000  0.69931938  0.76592528  1
  As  As1  1  0.75000000  0.30068062  0.23407472  1
  As  As2  1  0.75000000  0.19931938  0.73407472  1
  As  As3  1  0.25000000  0.80068062  0.26592528  1
  As  As4  1  0.25000000  0.33006653  0.57412326  1
  As  As5  1  0.75000000  0.66993347  0.42587674  1
  As  As6  1  0.75000000  0.83006653  0.92587674  1
  As  As7  1  0.25000000  0.16993347  0.07412326  1
  O  O0  1  0.25000000  0.44273821  0.40903078  1
  O  O1  1  0.75000000  0.55726179  0.59096922  1
  O  O2  1  0.75000000  0.94273821  0.09096922  1
  O  O3  1  0.25000000  0.05726179  0.90903078  1
  O  O4  1  0.25000000  0.44924360  0.74794580  1
  O  O5  1  0.75000000  0.55075640  0.25205420  1
  O  O6  1  0.75000000  0.94924360  0.75205420  1
  O  O7  1  0.25000000  0.05075640  0.24794580  1
  O  O8  1  0.99573762  0.31792794  0.08810908  1
  O  O9  1  0.49573762  0.68207206  0.91189092  1
  O  O10  1  0.00426238  0.81792794  0.41189092  1
  O  O11  1  0.50426238  0.18207206  0.58810908  1
  O  O12  1  0.00426238  0.68207206  0.91189092  1
  O  O13  1  0.50426238  0.31792794  0.08810908  1
  O  O14  1  0.99573762  0.18207206  0.58810908  1
  O  O15  1  0.49573762  0.81792794  0.41189092  1
loop_
_geom_bond_atom_site_label_1
_geom_bond_atom_site_label_2
_geom_bond_distance
_geom_bond_site_symmetry_2
As0 O12 1.808321 1_555
As0 O9 1.808321 1_555
As0 O4 1.830825 1_555
As1 O13 1.808321 1_555
As1 O8 1.808321 1_555
As1 O5 1.830825 1_555
As2 O14 1.808321 1_555
As2 O11 1.808321 1_555
As2 O6 1.830825 1_545
As3 O15 1.808321 1_555
As3 O10 1.808321 1_555
As3 O7 1.830825 1_565
As4 O0 1.642651 1_555
As4 O14 1.723694 1_455
As4 O11 1.723694 1_555
As4 O4 1.731515 1_555
As5 O1 1.642651 1_555
As5 O10 1.723694 1_655
As5 O15 1.723694 1_555
As5 O5 1.731515 1_555
As6 O2 1.642651 1_556
As6 O12 1.723694 1_655
As6 O9 1.723694 1_555
As6 O6 1.731515 1_555
As7 O3 1.642651 1_554
As7 O13 1.723694 1_555
As7 O8 1.723694 1_455
As7 O7 1.731515 1_555
