# generated using pymatgen
data_MgCo6(O5F)2
_symmetry_space_group_name_H-M   'P 1'
_cell_length_a   4.95625362
_cell_length_b   14.00895650
_cell_length_c   2.86272104
_cell_angle_alpha   90.00000000
_cell_angle_beta   90.00000000
_cell_angle_gamma   86.85733583
_symmetry_Int_Tables_number   1
_chemical_formula_structural   MgCo6(O5F)2
_chemical_formula_sum   'Mg1 Co6 O10 F2'
_cell_volume   198.46536261
_cell_formula_units_Z   1
loop_
 _symmetry_equiv_pos_site_id
 _symmetry_equiv_pos_as_xyz
  1  'x, y, z'
loop_
 _atom_site_type_symbol
 _atom_site_label
 _atom_site_symmetry_multiplicity
 _atom_site_fract_x
 _atom_site_fract_y
 _atom_site_fract_z
 _atom_site_occupancy
  Mg  Mg0  1  0.00000000  0.50000000  0.98466522  1
  Co  Co0  1  0.00000000  -0.00000000  0.98856011  1
  Co  Co1  1  0.85444283  0.30802773  0.98614815  1
  Co  Co2  1  0.14555717  0.69197227  0.98614815  1
  Co  Co3  1  0.46653784  0.14410899  0.48828002  1
  Co  Co4  1  0.50000000  0.50000000  0.48479834  1
  Co  Co5  1  0.53346316  0.85589101  0.48828002  1
  O  O0  1  0.17547132  0.93718335  0.48853239  1
  O  O1  1  0.17926173  0.58621610  0.48515180  1
  O  O2  1  0.39703789  0.78002214  0.98804585  1
  O  O3  1  0.29565959  0.08652296  0.98836073  1
  O  O4  1  0.35653744  0.43138481  0.98476968  1
  O  O5  1  0.64346356  0.56861519  0.98476968  1
  O  O6  1  0.60296211  0.21997786  0.98804585  1
  O  O7  1  0.70434041  0.91347704  0.98836073  1
  O  O8  1  0.82452868  0.06281665  0.48853239  1
  O  O9  1  0.82073827  0.41378390  0.48515180  1
  F  F0  1  0.09990184  0.25491323  0.48669954  1
  F  F1  1  0.90009816  0.74508677  0.48669954  1
loop_
_geom_bond_atom_site_label_1
_geom_bond_atom_site_label_2
_geom_bond_distance
_geom_bond_site_symmetry_2
Mg0 O5 1.964767 1_455
Mg0 O4 1.964771 1_555
Mg0 O1 2.100146 1_555
Mg0 O9 2.100146 1_455
Mg0 O9 2.102044 1_456
Mg0 O1 2.102044 1_556
Co0 O8 1.869596 1_456
Co0 O0 1.869596 1_546
Co0 O8 1.869718 1_455
Co0 O0 1.869718 1_545
Co0 O7 1.952234 1_445
Co0 O3 1.952234 1_555
Co1 O6 1.801002 1_555
Co1 F0 1.994665 1_655
Co1 F0 1.996929 1_656
Co1 O9 2.058239 1_556
Co1 O9 2.062202 1_555
Co2 O2 1.801002 1_555
Co2 F1 1.994665 1_455
Co2 F1 1.996929 1_456
Co2 O1 2.058239 1_556
Co2 O1 2.062202 1_555
Co3 O3 1.868451 1_554
Co3 O3 1.868805 1_555
Co3 O6 1.926782 1_555
Co3 O6 1.927778 1_554
Co3 O8 2.055111 1_555
Co3 F0 2.324271 1_555
Co4 O4 1.884948 1_555
Co4 O5 1.884950 1_555
Co4 O4 1.885072 1_554
Co4 O5 1.885074 1_554
Co4 O9 1.943008 1_555
Co4 O1 1.943008 1_555
Co5 O7 1.868448 1_554
Co5 O7 1.868802 1_555
Co5 O2 1.926784 1_555
Co5 O2 1.927780 1_554
Co5 O0 2.055115 1_555
Co5 F1 2.324268 1_555
