# generated using pymatgen
data_MgTi6AgS12
_symmetry_space_group_name_H-M   'P 1'
_cell_length_a   10.30214520
_cell_length_b   5.94391077
_cell_length_c   8.70644197
_cell_angle_alpha   69.92408017
_cell_angle_beta   53.72856885
_cell_angle_gamma   90.01178223
_symmetry_Int_Tables_number   1
_chemical_formula_structural   MgTi6AgS12
_chemical_formula_sum   'Mg1 Ti6 Ag1 S12'
_cell_volume   388.89272933
_cell_formula_units_Z   1
loop_
 _symmetry_equiv_pos_site_id
 _symmetry_equiv_pos_as_xyz
  1  'x, y, z'
loop_
 _atom_site_type_symbol
 _atom_site_label
 _atom_site_symmetry_multiplicity
 _atom_site_fract_x
 _atom_site_fract_y
 _atom_site_fract_z
 _atom_site_occupancy
  Mg  Mg0  1  0.15628000  0.49943000  0.00130000  1
  Ti  Ti0  1  0.08308900  0.73929300  0.50029500  1
  Ti  Ti1  1  0.24726400  0.24945500  0.50267600  1
  Ti  Ti2  1  0.42163300  0.74571200  0.48955000  1
  Ti  Ti3  1  0.58190300  0.26012500  0.50175400  1
  Ti  Ti4  1  0.74852700  0.74949300  0.49999200  1
  Ti  Ti5  1  0.91045600  0.25312300  0.51315700  1
  Ag  Ag0  1  0.51432300  0.49933900  0.00133500  1
  S  S0  1  0.03030900  0.69728900  0.26944900  1
  S  S1  1  0.19263900  0.19555700  0.27226500  1
  S  S2  1  0.36369900  0.70133800  0.27127200  1
  S  S3  1  0.13592500  0.80091100  0.72666300  1
  S  S4  1  0.29846700  0.30132100  0.73327500  1
  S  S5  1  0.53094000  0.19263100  0.28068300  1
  S  S6  1  0.69814100  0.69697500  0.27319100  1
  S  S7  1  0.46381600  0.80354700  0.73020300  1
  S  S8  1  0.86116500  0.19779400  0.27606200  1
  S  S9  1  0.63397700  0.29783600  0.73087100  1
  S  S10  1  0.81060900  0.80625900  0.72155300  1
  S  S11  1  0.97005100  0.30185700  0.72952000  1
loop_
_geom_bond_atom_site_label_1
_geom_bond_atom_site_label_2
_geom_bond_distance
_geom_bond_site_symmetry_2
Mg0 S3 2.573782 1_554
Mg0 S8 2.574539 1_455
Mg0 S0 2.611216 1_555
Mg0 S4 2.611590 1_554
Mg0 S1 2.662462 1_555
Mg0 S7 2.663993 1_554
Ag0 S5 2.591684 1_555
Ag0 S10 2.593841 1_554
Ag0 S2 2.644962 1_555
Ag0 S9 2.646005 1_554
Ag0 S1 2.762462 1_555
Ag0 S7 2.763337 1_554
S0 Ti0 2.456625 1_555
S0 Ti5 2.459614 1_455
S0 Ti4 2.466951 1_455
S1 Ti1 2.494094 1_555
S1 Ti0 2.494258 1_545
S1 Ti5 2.499171 1_455
S2 Ti2 2.392392 1_555
S2 Ti0 2.423352 1_555
S2 Ti1 2.477164 1_555
S3 Ti1 2.451408 1_565
S3 Ti0 2.465672 1_555
S3 Ti2 2.511722 1_555
S4 Ti3 2.454446 1_555
S4 Ti2 2.460625 1_555
S4 Ti1 2.466193 1_555
S5 Ti3 2.422180 1_555
S5 Ti2 2.427147 1_545
S5 Ti1 2.481069 1_555
S6 Ti3 2.401669 1_555
S6 Ti2 2.402659 1_555
S6 Ti4 2.429397 1_555
S7 Ti4 2.492028 1_555
S7 Ti3 2.496179 1_565
S7 Ti2 2.503761 1_555
S8 Ti4 2.450159 1_545
S8 Ti3 2.467126 1_555
S8 Ti5 2.516636 1_555
S9 Ti5 2.394675 1_555
S9 Ti3 2.427015 1_555
S9 Ti4 2.475378 1_555
S10 Ti0 2.424422 1_655
S10 Ti5 2.426334 1_565
S10 Ti4 2.480027 1_555
S11 Ti5 2.398408 1_555
S11 Ti0 2.405387 1_655
S11 Ti1 2.429529 1_655
