# generated using pymatgen
data_Na4La2Hf2Si3(SO8)3
_symmetry_space_group_name_H-M   'P 1'
_cell_length_a   9.35595567
_cell_length_b   9.36878908
_cell_length_c   23.73587796
_cell_angle_alpha   90.31828281
_cell_angle_beta   89.79155937
_cell_angle_gamma   119.83087777
_symmetry_Int_Tables_number   1
_chemical_formula_structural   Na4La2Hf2Si3(SO8)3
_chemical_formula_sum   'Na12 La6 Hf6 Si9 S9 O72'
_cell_volume   1804.83800285
_cell_formula_units_Z   3
loop_
 _symmetry_equiv_pos_site_id
 _symmetry_equiv_pos_as_xyz
  1  'x, y, z'
loop_
 _atom_site_type_symbol
 _atom_site_label
 _atom_site_symmetry_multiplicity
 _atom_site_fract_x
 _atom_site_fract_y
 _atom_site_fract_z
 _atom_site_occupancy
  Na  Na0  1  0.98088265  0.64695249  0.25304811  1
  Na  Na1  1  0.98612079  0.34305863  0.73791095  1
  Na  Na2  1  0.65047989  0.98198286  0.59274522  1
  Na  Na3  1  0.66845723  0.69445550  0.07768357  1
  Na  Na4  1  0.33855825  0.31257560  0.89912680  1
  Na  Na5  1  0.30928819  0.00978552  0.42108681  1
  Na  Na6  1  0.01425509  0.98737913  0.51009445  1
  Na  Na7  1  0.97348802  0.96647674  0.99749491  1
  Na  Na8  1  0.64202831  0.31039475  0.81710181  1
  Na  Na9  1  0.65500384  0.34914522  0.33694722  1
  Na  Na10  1  0.32275136  0.67720118  0.17608007  1
  Na  Na11  1  0.31203766  0.66716999  0.66083176  1
  La  La0  1  0.99190566  0.99141401  0.35129596  1
  La  La1  1  0.98219602  0.98053189  0.84898539  1
  La  La2  1  0.64672577  0.33011737  0.68358138  1
  La  La3  1  0.65604971  0.32328801  0.18722427  1
  La  La4  1  0.32426686  0.67589899  0.01707689  1
  La  La5  1  0.30434538  0.64462542  0.51999713  1
  Hf  Hf0  1  0.01897248  0.02688251  0.64912440  1
  Hf  Hf1  1  0.99492837  0.97792061  0.15463440  1
  Hf  Hf2  1  0.67891396  0.35362958  0.98248467  1
  Hf  Hf3  1  0.68210299  0.33884887  0.48778821  1
  Hf  Hf4  1  0.32814863  0.66864250  0.31392799  1
  Hf  Hf5  1  0.36798252  0.67788477  0.80926075  1
  Si  Si0  1  0.29102568  0.98121468  0.25467809  1
  Si  Si1  1  0.68710577  0.70382215  0.24864970  1
  Si  Si2  1  0.29196025  0.30621020  0.75835852  1
  Si  Si3  1  0.70546111  0.99599693  0.74617716  1
  Si  Si4  1  0.95794540  0.31734693  0.59059776  1
  Si  Si5  1  0.36406525  0.04339171  0.57815702  1
  Si  Si6  1  0.95953789  0.64082019  0.08800863  1
  Si  Si7  1  0.62596510  0.65506814  0.92286461  1
  Si  Si8  1  0.02224075  0.64851159  0.41366229  1
  S  S0  1  0.02352344  0.30810795  0.24785040  1
  S  S1  1  0.02446542  0.70436143  0.74931533  1
  S  S2  1  0.69021845  0.64694789  0.57982939  1
  S  S3  1  0.69037082  0.04564873  0.07976744  1
  S  S4  1  0.36007122  0.31651813  0.07890668  1
  S  S5  1  0.02141327  0.37171359  0.91696488  1
  S  S6  1  0.35500050  0.98586889  0.91553073  1
  S  S7  1  0.61147548  0.96947778  0.41675530  1
  S  S8  1  0.35583925  0.37916860  0.41282265  1
  O  O0  1  0.22276546  0.00849667  0.31347373  1
  O  O1  1  0.80945515  0.79404441  0.30023493  1
  O  O2  1  0.00295327  0.22100458  0.30037711  1
  O  O3  1  0.21357718  0.21543158  0.81736355  1
  O  O4  1  0.00103866  0.76900795  0.80290006  1
  O  O5  1  0.80522462  0.01056440  0.80293873  1
  O  O6  1  0.80436631  0.97617229  0.69088441  1
  O  O7  1  0.16750158  0.19609459  0.70425501  1
  O  O8  1  0.03686807  0.80874966  0.70065748  1
  O  O9  1  0.78691565  0.82244015  0.19099949  1
  O  O10  1  0.02970172  0.21121668  0.19808665  1
  O  O11  1  0.15650239  0.96083866  0.20175141  1
  O  O12  1  0.88424752  0.33829566  0.64900589  1
  O  O13  1  0.47762188  0.12645272  0.63259021  1
  O  O14  1  0.66369314  0.56048931  0.63316366  1
  O  O15  1  0.87633352  0.54481203  0.14501695  1
  O  O16  1  0.66647593  0.11207715  0.13236085  1
  O  O17  1  0.45968495  0.33855965  0.12918263  1
  O  O18  1  0.45184546  0.30081663  0.02797148  1
  O  O19  1  0.83093005  0.52944753  0.03306705  1
  O  O20  1  0.68859615  0.14401757  0.03037553  1
  O  O21  1  0.46232523  0.16181210  0.52134835  1
  O  O22  1  0.69423031  0.54143275  0.53163815  1
  O  O23  1  0.83227051  0.30990562  0.53707897  1
  O  O24  1  0.54180360  0.66023732  0.98197515  1
  O  O25  1  0.12260960  0.45590453  0.96678453  1
  O  O26  1  0.32913805  0.89278000  0.96789890  1
  O  O27  1  0.54781920  0.87958001  0.46934898  1
  O  O28  1  0.34822242  0.45452449  0.46570302  1
  O  O29  1  0.14725101  0.68673785  0.46522296  1
  O  O30  1  0.12218921  0.63125710  0.35630654  1
  O  O31  1  0.50179144  0.86707097  0.36787903  1
  O  O32  1  0.35855181  0.48132624  0.36362188  1
  O  O33  1  0.09509583  0.47103813  0.86552007  1
  O  O34  1  0.36166233  0.89134197  0.86583313  1
  O  O35  1  0.49999778  0.63925948  0.86864067  1
  O  O36  1  0.00446711  0.81396792  0.41278992  1
  O  O37  1  0.78268642  0.01148466  0.40845906  1
  O  O38  1  0.21046280  0.21053586  0.41005016  1
  O  O39  1  0.00598342  0.20731407  0.91480609  1
  O  O40  1  0.21929205  0.02400908  0.91203095  1
  O  O41  1  0.81331480  0.80451389  0.91981541  1
  O  O42  1  0.94917438  0.13412524  0.58974981  1
  O  O43  1  0.18088753  0.02657382  0.58909738  1
  O  O44  1  0.84938251  0.80453387  0.58075889  1
  O  O45  1  0.95812463  0.82050488  0.08955075  1
  O  O46  1  0.84876531  0.04173034  0.08098223  1
  O  O47  1  0.19618021  0.16627075  0.08269347  1
  O  O48  1  0.68767631  0.15951540  0.74599219  1
  O  O49  1  0.48135223  0.35167674  0.75345679  1
  O  O50  1  0.88687170  0.53313848  0.74372247  1
  O  O51  1  0.67601249  0.52481047  0.24488906  1
  O  O52  1  0.88824637  0.34605064  0.24223976  1
  O  O53  1  0.47806544  0.12168078  0.24398826  1
  O  O54  1  0.62592840  0.47343384  0.92555524  1
  O  O55  1  0.85253581  0.35318359  0.92617351  1
  O  O56  1  0.51366931  0.14732508  0.91981553  1
  O  O57  1  0.60336605  0.12724622  0.41799158  1
  O  O58  1  0.50815941  0.36441501  0.41212372  1
  O  O59  1  0.84212615  0.47791515  0.42480170  1
  O  O60  1  0.34634199  0.46663767  0.07418942  1
  O  O61  1  0.14626248  0.67678160  0.08076778  1
  O  O62  1  0.55324103  0.87080727  0.07539622  1
  O  O63  1  0.36000866  0.86678312  0.57440722  1
  O  O64  1  0.55502259  0.68293007  0.57112546  1
  O  O65  1  0.14848453  0.45842907  0.58484253  1
  O  O66  1  0.27937073  0.79673737  0.25636200  1
  O  O67  1  0.50699593  0.69092254  0.25796540  1
  O  O68  1  0.18286695  0.47066271  0.24972503  1
  O  O69  1  0.28571566  0.48319565  0.76025069  1
  O  O70  1  0.18207858  0.69690972  0.75358916  1
  O  O71  1  0.52204836  0.82355139  0.75395831  1
loop_
_geom_bond_atom_site_label_1
_geom_bond_atom_site_label_2
_geom_bond_distance
_geom_bond_site_symmetry_2
Na0 O66 2.424004 1_655
Na0 O51 2.497426 1_555
Na0 O52 2.515355 1_555
Na0 O15 2.739973 1_555
Na0 O1 2.809741 1_555
Na0 O30 2.827986 1_655
Na0 O11 2.836935 1_655
Na1 O12 2.309723 1_555
Na1 O50 2.386226 1_555
Na1 O48 2.452179 1_555
Na1 O69 2.490686 1_655
Na1 O7 2.777811 1_655
Na2 O63 2.413536 1_555
Na2 O42 2.425517 1_565
Na2 O64 2.531552 1_555
Na2 O13 2.737581 1_565
Na2 O6 2.757869 1_555
Na3 O45 2.374119 1_555
Na3 O62 2.380762 1_555
Na3 O24 2.510220 1_554
Na3 O60 2.691693 1_555
Na3 O46 2.824028 1_565
Na3 O19 2.851329 1_555
Na3 O9 2.926438 1_555
Na4 O3 2.213626 1_555
Na4 O40 2.377683 1_555
Na4 O54 2.421572 1_555
Na4 O35 2.754982 1_555
Na4 O39 2.781302 1_555
Na4 O56 2.803564 1_555
Na5 O57 2.402839 1_555
Na5 O38 2.489620 1_555
Na5 O36 2.516460 1_545
Na5 O0 2.680451 1_555
Na5 O21 2.774956 1_555
Na5 O29 2.831028 1_545
Na5 O58 2.898384 1_555
Na5 O31 2.997834 1_545
Na6 O44 2.347636 1_455
Na6 O43 2.350702 1_565
Na6 O42 2.575114 1_465
Na6 O36 2.791775 1_555
Na7 O41 2.382122 1_555
Na7 O45 2.549631 1_556
Na7 O46 2.563551 1_566
Na7 O47 2.835993 1_666
Na7 O39 2.897948 1_665
Na7 O40 2.905053 1_665
Na8 O49 2.300654 1_555
Na8 O48 2.366059 1_555
Na8 O50 2.809164 1_555
Na8 O56 2.813337 1_555
Na9 O58 2.294965 1_555
Na9 O59 2.601201 1_555
Na9 O51 2.690125 1_555
Na9 O57 2.700784 1_555
Na9 O53 2.935119 1_555
Na10 O66 2.339437 1_555
Na10 O68 2.452377 1_555
Na10 O67 2.562568 1_555
Na10 O61 2.804509 1_555
Na11 O65 2.534358 1_555
Na11 O70 2.591170 1_555
Na11 O63 2.666045 1_555
Na11 O71 2.832818 1_555
Na11 O69 2.866845 1_555
La0 O1 2.156810 1_555
La0 O36 2.265088 1_655
La0 O0 2.267237 1_665
La0 O2 2.430006 1_665
La0 O37 2.460068 1_565
La0 O38 2.480555 1_665
La1 O5 2.120203 1_565
La1 O3 2.315096 1_665
La1 O41 2.337020 1_555
La1 O4 2.340289 1_655
La1 O40 2.538577 1_665
La1 O39 2.549472 1_665
La2 O13 2.143290 1_555
La2 O12 2.331476 1_555
La2 O49 2.339666 1_555
La2 O48 2.352787 1_555
La2 O14 2.408743 1_555
La2 O50 2.538736 1_555
La3 O53 2.244695 1_555
La3 O51 2.257264 1_555
La3 O15 2.304601 1_555
La3 O17 2.361312 1_555
La3 O16 2.404874 1_555
La3 O52 2.454943 1_555
La4 O61 2.248174 1_555
La4 O24 2.267469 1_554
La4 O25 2.313654 1_554
La4 O26 2.329620 1_554
La4 O62 2.437537 1_555
La4 O60 2.481616 1_555
La5 O29 2.145390 1_555
La5 O65 2.240811 1_555
La5 O63 2.273273 1_555
La5 O28 2.387335 1_555
La5 O64 2.506116 1_555
La5 O27 2.549611 1_555
Hf0 O7 1.988746 1_555
Hf0 O42 2.024173 1_455
Hf0 O6 2.069148 1_445
Hf0 O43 2.076893 1_555
Hf0 O8 2.463809 1_545
Hf0 O44 2.486571 1_445
Hf1 O11 1.953586 1_655
Hf1 O9 1.958519 1_555
Hf1 O45 2.037985 1_555
Hf1 O10 2.284036 1_665
Hf1 O46 2.475070 1_565
Hf1 O47 2.505894 1_665
Hf2 O19 1.958893 1_556
Hf2 O54 1.976564 1_555
Hf2 O55 2.101444 1_555
Hf2 O18 2.206180 1_556
Hf2 O56 2.313128 1_555
Hf2 O20 2.315049 1_556
Hf3 O23 1.952116 1_555
Hf3 O21 2.055080 1_555
Hf3 O59 2.058850 1_555
Hf3 O22 2.112608 1_555
Hf3 O57 2.395180 1_555
Hf3 O58 2.518961 1_555
Hf4 O66 2.020673 1_555
Hf4 O30 2.041069 1_555
Hf4 O67 2.060902 1_555
Hf4 O31 2.172361 1_555
Hf4 O32 2.252563 1_555
Hf4 O68 2.255141 1_555
Hf5 O71 1.926731 1_555
Hf5 O69 1.964401 1_555
Hf5 O35 2.026328 1_555
Hf5 O70 2.265142 1_555
Hf5 O34 2.427586 1_555
Hf5 O33 2.671823 1_555
O0 Si0 1.603979 1_545
O1 Si1 1.600028 1_555
O2 S0 1.452832 1_555
O3 Si2 1.614892 1_555
O4 S1 1.467660 1_555
O5 Si3 1.607912 1_545
O6 Si3 1.665134 1_555
O7 Si2 1.694219 1_555
O8 S1 1.484076 1_555
O9 Si1 1.718903 1_555
O10 S0 1.504112 1_555
O11 Si0 1.722933 1_555
O12 Si4 1.600195 1_555
O13 Si5 1.606214 1_555
O14 S2 1.459252 1_555
O15 Si6 1.598527 1_555
O16 S3 1.457203 1_555
O17 S4 1.466010 1_555
O18 S4 1.528623 1_555
O19 Si6 1.727545 1_555
O20 S3 1.500471 1_555
O21 Si5 1.699149 1_555
O22 S2 1.520229 1_555
O23 Si4 1.711554 1_555
O24 Si7 1.618651 1_555
O25 S5 1.473672 1_555
O26 S6 1.471097 1_555
O27 S7 1.459344 1_555
O28 S8 1.455505 1_555
O29 Si8 1.607109 1_555
O30 Si8 1.700774 1_555
O31 S7 1.528475 1_555
O32 S8 1.506161 1_555
O33 S5 1.483408 1_555
O34 S6 1.490787 1_555
O35 Si7 1.703722 1_555
O36 Si8 1.639452 1_555
O37 S7 1.459774 1_545
O38 S8 1.487269 1_555
O39 S5 1.474355 1_555
O40 S6 1.482951 1_545
O41 Si7 1.611395 1_555
O42 Si4 1.677266 1_555
O43 Si5 1.660706 1_555
O44 S2 1.486713 1_555
O45 Si6 1.690237 1_555
O46 S3 1.500916 1_555
O47 S4 1.481128 1_555
O48 Si3 1.621211 1_545
O49 Si2 1.607137 1_555
O50 S1 1.480712 1_655
O51 Si1 1.629942 1_555
O52 S0 1.481661 1_655
O53 Si0 1.602453 1_545
O54 Si7 1.703075 1_555
O55 S5 1.516365 1_655
O56 S6 1.505835 1_545
O57 S7 1.517389 1_545
O58 S8 1.498689 1_555
O59 Si8 1.669139 1_655
O60 S4 1.479423 1_555
O61 Si6 1.614899 1_455
O62 S3 1.499421 1_565
O63 Si5 1.637988 1_565
O64 S2 1.477552 1_555
O65 Si4 1.612350 1_455
O66 Si0 1.677452 1_555
O67 Si1 1.642570 1_555
O68 S0 1.511548 1_555
O69 Si2 1.688310 1_555
O70 S1 1.514352 1_555
O71 Si3 1.682786 1_555
