# generated using pymatgen
data_Fe4As5O13
_symmetry_space_group_name_H-M   'P 1'
_cell_length_a   8.97622929
_cell_length_b   9.06486462
_cell_length_c   9.13601465
_cell_angle_alpha   94.25450254
_cell_angle_beta   116.51337368
_cell_angle_gamma   112.03259441
_symmetry_Int_Tables_number   1
_chemical_formula_structural   Fe4As5O13
_chemical_formula_sum   'Fe8 As10 O26'
_cell_volume   589.87484759
_cell_formula_units_Z   2
loop_
 _symmetry_equiv_pos_site_id
 _symmetry_equiv_pos_as_xyz
  1  'x, y, z'
loop_
 _atom_site_type_symbol
 _atom_site_label
 _atom_site_symmetry_multiplicity
 _atom_site_fract_x
 _atom_site_fract_y
 _atom_site_fract_z
 _atom_site_occupancy
  Fe  Fe0  1  0.00000000  0.50000000  0.00000000  1
  Fe  Fe1  1  0.00000000  0.50000000  0.50000000  1
  Fe  Fe2  1  0.73726850  0.30199469  0.61872669  1
  Fe  Fe3  1  0.26273150  0.69800531  0.38127331  1
  Fe  Fe4  1  0.35090727  0.87923349  0.80626946  1
  Fe  Fe5  1  0.64909273  0.12076651  0.19373054  1
  Fe  Fe6  1  0.46616134  0.72696133  0.10347405  1
  Fe  Fe7  1  0.53383866  0.27303867  0.89652595  1
  As  As0  1  0.89880820  0.70914447  0.69720494  1
  As  As1  1  0.10119180  0.29085553  0.30279506  1
  As  As2  1  0.16453318  0.33455086  0.83530130  1
  As  As3  1  0.83546682  0.66544914  0.16469870  1
  As  As4  1  0.21252760  0.93465460  0.10011447  1
  As  As5  1  0.78747240  0.06534540  0.89988553  1
  As  As6  1  0.52688979  0.40968191  0.25930958  1
  As  As7  1  0.47311021  0.59031809  0.74069042  1
  As  As8  1  0.69916329  0.94693191  0.45822026  1
  As  As9  1  0.30083671  0.05306809  0.54177974  1
  O  O0  1  0.09304187  0.70745767  0.68673452  1
  O  O1  1  0.90695813  0.29254233  0.31326548  1
  O  O2  1  0.62708265  0.09160687  0.95637988  1
  O  O3  1  0.37291735  0.90839313  0.04362012  1
  O  O4  1  0.00137307  0.65092685  0.35324512  1
  O  O5  1  0.99862693  0.34907315  0.64675488  1
  O  O6  1  0.48012140  0.76183183  0.35163193  1
  O  O7  1  0.51987860  0.23816817  0.64836807  1
  O  O8  1  0.26616069  0.56434171  0.55589472  1
  O  O9  1  0.73383931  0.43565829  0.44410528  1
  O  O10  1  0.86642666  0.26098298  0.85593542  1
  O  O11  1  0.13357334  0.73901702  0.14406458  1
  O  O12  1  0.28867335  0.06613645  0.73334616  1
  O  O13  1  0.71132665  0.93386355  0.26665384  1
  O  O14  1  0.13880049  0.46472133  0.22094136  1
  O  O15  1  0.86119951  0.53527867  0.77905864  1
  O  O16  1  0.77361940  0.47555116  0.02517934  1
  O  O17  1  0.22638060  0.52444884  0.97482066  1
  O  O18  1  0.62024732  0.10371971  0.41831256  1
  O  O19  1  0.37975268  0.89628029  0.58168744  1
  O  O20  1  0.37181801  0.41063919  0.80461381  1
  O  O21  1  0.62818199  0.58936081  0.19538619  1
  O  O22  1  0.97951668  0.12336389  0.10980475  1
  O  O23  1  0.51621023  0.25986005  0.11366454  1
  O  O24  1  0.02048332  0.87663611  0.89019525  1
  O  O25  1  0.48378977  0.74013995  0.88633546  1
loop_
_geom_bond_atom_site_label_1
_geom_bond_atom_site_label_2
_geom_bond_distance
_geom_bond_site_symmetry_2
Fe0 O15 1.969358 1_454
Fe0 O14 1.969358 1_555
Fe0 O10 2.020694 1_454
Fe0 O11 2.020694 1_555
Fe0 O17 2.078043 1_554
Fe0 O16 2.078043 1_455
Fe1 O4 1.985907 1_555
Fe1 O5 1.985907 1_455
Fe1 O9 2.032225 1_455
Fe1 O8 2.032225 1_555
Fe1 O1 2.053793 1_455
Fe1 O0 2.053793 1_555
Fe2 O7 1.965656 1_555
Fe2 O18 2.016038 1_555
Fe2 O15 2.043439 1_555
Fe2 O9 2.070046 1_555
Fe2 O10 2.092498 1_555
Fe2 O5 2.108971 1_555
Fe3 O6 1.965656 1_555
Fe3 O19 2.016038 1_555
Fe3 O14 2.043439 1_555
Fe3 O8 2.070046 1_555
Fe3 O11 2.092498 1_555
Fe3 O4 2.108971 1_555
Fe4 O0 1.939495 1_555
Fe4 O25 2.008432 1_555
Fe4 O12 2.042473 1_565
Fe4 O3 2.074684 1_556
Fe4 O2 2.173649 1_565
Fe4 O19 2.189081 1_555
Fe5 O1 1.939495 1_555
Fe5 O23 2.008432 1_555
Fe5 O13 2.042473 1_545
Fe5 O2 2.074684 1_554
Fe5 O3 2.173649 1_545
Fe5 O18 2.189081 1_555
Fe6 O17 1.959798 1_554
Fe6 O13 2.035294 1_555
Fe6 O25 2.067834 1_554
Fe6 O3 2.112352 1_555
Fe6 O21 2.191377 1_555
Fe6 O6 2.205902 1_555
Fe7 O16 1.959798 1_556
Fe7 O12 2.035294 1_555
Fe7 O23 2.067834 1_556
Fe7 O2 2.112352 1_555
Fe7 O20 2.191377 1_555
Fe7 O7 2.205902 1_555
As0 O15 1.777153 1_555
As0 O0 1.793827 1_655
As0 O24 1.801719 1_655
As1 O14 1.777153 1_555
As1 O1 1.793827 1_455
As1 O22 1.801719 1_455
As2 O5 1.758618 1_455
As2 O17 1.794942 1_555
As2 O20 1.883581 1_555
As3 O4 1.758618 1_655
As3 O16 1.794942 1_555
As3 O21 1.883581 1_555
As4 O24 1.773343 1_554
As4 O11 1.795910 1_555
As4 O3 1.816073 1_555
As5 O22 1.773343 1_556
As5 O10 1.795910 1_555
As5 O2 1.816073 1_555
As6 O23 1.773277 1_555
As6 O9 1.780263 1_555
As6 O21 1.823390 1_555
As7 O25 1.773277 1_555
As7 O8 1.780263 1_555
As7 O20 1.823390 1_555
As8 O6 1.789538 1_555
As8 O13 1.799593 1_555
As8 O18 1.804535 1_565
As9 O7 1.789538 1_555
As9 O12 1.799593 1_555
As9 O19 1.804535 1_545
