# generated using pymatgen
data_MgMn4Cd2O8
_symmetry_space_group_name_H-M   'P 1'
_cell_length_a   5.96655247
_cell_length_b   6.41876488
_cell_length_c   6.51819718
_cell_angle_alpha   117.89787077
_cell_angle_beta   117.25605615
_cell_angle_gamma   90.15647762
_symmetry_Int_Tables_number   1
_chemical_formula_structural   MgMn4Cd2O8
_chemical_formula_sum   'Mg1 Mn4 Cd2 O8'
_cell_volume   188.49541147
_cell_formula_units_Z   1
loop_
 _symmetry_equiv_pos_site_id
 _symmetry_equiv_pos_as_xyz
  1  'x, y, z'
loop_
 _atom_site_type_symbol
 _atom_site_label
 _atom_site_symmetry_multiplicity
 _atom_site_fract_x
 _atom_site_fract_y
 _atom_site_fract_z
 _atom_site_occupancy
  Mg  Mg0  1  0.55749542  0.04817884  0.11397228  1
  Mn  Mn0  1  0.02394995  0.00264744  0.54609622  1
  Mn  Mn1  1  0.00911038  0.98221242  0.01840316  1
  Mn  Mn2  1  0.99969766  0.49009825  0.99951261  1
  Mn  Mn3  1  0.52327138  0.00256970  0.54595810  1
  Cd  Cd0  1  0.57178962  0.51823659  0.14268951  1
  Cd  Cd1  1  0.32339341  0.55128414  0.65155502  1
  O  O0  1  0.74975929  0.75537061  0.02696653  1
  O  O1  1  0.76784958  0.20183310  0.53113435  1
  O  O2  1  0.27617011  0.75476277  0.02806339  1
  O  O3  1  0.25362866  0.21189229  0.99852098  1
  O  O4  1  0.23308540  0.76576498  0.46831944  1
  O  O5  1  0.23941748  0.16424163  0.47691200  1
  O  O6  1  0.78679713  0.81639798  0.57331516  1
  O  O7  1  0.74708454  0.21367627  0.99858123  1
loop_
_geom_bond_atom_site_label_1
_geom_bond_atom_site_label_2
_geom_bond_distance
_geom_bond_site_symmetry_2
Mg0 O1 2.073515 1_555
Mg0 O3 2.111497 1_554
Mg0 O7 2.119952 1_554
Mg0 O0 2.186365 1_545
Mg0 O2 2.193865 1_545
Mn0 O6 1.970290 1_445
Mn0 O5 1.973177 1_555
Mn0 O1 1.992459 1_455
Mn0 O4 1.998600 1_545
Mn0 O3 2.227188 1_555
Mn0 O0 2.556388 1_445
Mn1 O3 2.158458 1_564
Mn1 O0 2.158839 1_455
Mn1 O7 2.162298 1_464
Mn1 O2 2.163619 1_555
Mn1 O6 2.210667 1_454
Mn1 O5 2.268779 1_565
Mn2 O2 2.247091 1_656
Mn2 O0 2.264582 1_556
Mn2 O7 2.320949 1_555
Mn2 O4 2.331731 1_656
Mn2 O1 2.342956 1_555
Mn2 O3 2.344644 1_655
Mn3 O6 1.971020 1_545
Mn3 O5 1.973910 1_555
Mn3 O1 2.002341 1_555
Mn3 O4 2.006867 1_545
Mn3 O7 2.228013 1_555
Mn3 O2 2.550136 1_545
Cd0 O6 2.201950 1_555
Cd0 O3 2.229294 1_554
Cd0 O7 2.233949 1_554
Cd0 O0 2.410928 1_555
Cd0 O2 2.417301 1_555
Cd1 O5 2.131460 1_555
Cd1 O4 2.136694 1_555
Cd1 O2 2.333229 1_556
Cd1 O0 2.335776 1_556
