# generated using pymatgen
data_Na2Ti6Zn2Si3(S3O16)3
_symmetry_space_group_name_H-M   'P 1'
_cell_length_a   17.35746045
_cell_length_b   8.66338253
_cell_length_c   22.45953548
_cell_angle_alpha   90.04729609
_cell_angle_beta   89.86924805
_cell_angle_gamma   119.94013061
_symmetry_Int_Tables_number   1
_chemical_formula_structural   Na2Ti6Zn2Si3(S3O16)3
_chemical_formula_sum   'Na6 Ti18 Zn6 Si9 S27 O144'
_cell_volume   2926.61506775
_cell_formula_units_Z   3
loop_
 _symmetry_equiv_pos_site_id
 _symmetry_equiv_pos_as_xyz
  1  'x, y, z'
loop_
 _atom_site_type_symbol
 _atom_site_label
 _atom_site_symmetry_multiplicity
 _atom_site_fract_x
 _atom_site_fract_y
 _atom_site_fract_z
 _atom_site_occupancy
  Na  Na0  1  0.00149456  0.99663530  0.49667643  1
  Na  Na1  1  0.50049577  0.00516681  0.99867943  1
  Na  Na2  1  0.33365202  0.33109792  0.83671666  1
  Na  Na3  1  0.83443861  0.33416935  0.83643401  1
  Na  Na4  1  0.32865410  0.32813419  0.33481627  1
  Na  Na5  1  0.83488520  0.33771056  0.33468997  1
  Ti  Ti0  1  0.51075038  0.01099421  0.35581461  1
  Ti  Ti1  1  0.01143334  0.01117975  0.85673762  1
  Ti  Ti2  1  0.50399089  0.00158624  0.64182846  1
  Ti  Ti3  1  0.01061796  0.00424823  0.14443649  1
  Ti  Ti4  1  0.32428872  0.32644775  0.68729440  1
  Ti  Ti5  1  0.83308444  0.32174379  0.68306287  1
  Ti  Ti6  1  0.32654730  0.33692143  0.18730900  1
  Ti  Ti7  1  0.82651292  0.31841222  0.18785947  1
  Ti  Ti8  1  0.32699341  0.32032613  0.97604324  1
  Ti  Ti9  1  0.82680100  0.33373692  0.47422500  1
  Ti  Ti10  1  0.16473733  0.67210549  0.02569710  1
  Ti  Ti11  1  0.66145894  0.65382136  0.02329636  1
  Ti  Ti12  1  0.16370684  0.66964563  0.51832138  1
  Ti  Ti13  1  0.66504435  0.66134364  0.52267681  1
  Ti  Ti14  1  0.15797516  0.66832564  0.30978841  1
  Ti  Ti15  1  0.66929963  0.66317216  0.30830780  1
  Ti  Ti16  1  0.16817600  0.67208978  0.81012266  1
  Ti  Ti17  1  0.66083047  0.65898282  0.81496592  1
  Zn  Zn0  1  0.00761352  0.99324675  0.35373501  1
  Zn  Zn1  1  0.50066450  0.00961049  0.85510995  1
  Zn  Zn2  1  0.00137459  0.00601445  0.65182610  1
  Zn  Zn3  1  0.50085280  0.99448496  0.15192014  1
  Zn  Zn4  1  0.83460739  0.33295302  0.98231321  1
  Zn  Zn5  1  0.33411144  0.33355479  0.48070484  1
  Si  Si0  1  0.14577864  0.00398582  0.25162104  1
  Si  Si1  1  0.64246391  0.99422752  0.24815178  1
  Si  Si2  1  0.14231667  0.29078027  0.74829957  1
  Si  Si3  1  0.69084078  0.04271084  0.58101897  1
  Si  Si4  1  0.18994849  0.33740294  0.08150151  1
  Si  Si5  1  0.51991868  0.37156475  0.91833139  1
  Si  Si6  1  0.16607854  0.94724722  0.91691640  1
  Si  Si7  1  0.66477557  0.38328219  0.41634415  1
  Si  Si8  1  0.01953224  0.66794895  0.41721395  1
  S  S0  1  0.35446310  0.71097470  0.25168821  1
  S  S1  1  0.85586695  0.70898112  0.24822746  1
  S  S2  1  0.99846544  0.28558739  0.24980754  1
  S  S3  1  0.49903790  0.28987183  0.25061991  1
  S  S4  1  0.64680981  0.29150712  0.74946030  1
  S  S5  1  0.99792298  0.70638884  0.75083079  1
  S  S6  1  0.49976360  0.71132615  0.75002350  1
  S  S7  1  0.35649154  0.00236094  0.74865130  1
  S  S8  1  0.85326492  0.99800959  0.75120901  1
  S  S9  1  0.47657310  0.33190028  0.58437251  1
  S  S10  1  0.97759755  0.33258226  0.58081316  1
  S  S11  1  0.18760360  0.04132274  0.58133225  1
  S  S12  1  0.33336560  0.62341231  0.58385206  1
  S  S13  1  0.83508419  0.62349267  0.58261740  1
  S  S14  1  0.47661730  0.62148637  0.08128785  1
  S  S15  1  0.97532653  0.62053693  0.08336511  1
  S  S16  1  0.33574100  0.04761515  0.08253097  1
  S  S17  1  0.83370754  0.04137676  0.08300187  1
  S  S18  1  0.68787150  0.33200228  0.08161784  1
  S  S19  1  0.30915570  0.66732171  0.91770369  1
  S  S20  1  0.81011247  0.66816820  0.91566099  1
  S  S21  1  0.02232219  0.38089071  0.91614891  1
  S  S22  1  0.66804847  0.95302877  0.91739057  1
  S  S23  1  0.31015747  0.95221983  0.41512951  1
  S  S24  1  0.80962153  0.95123743  0.41736873  1
  S  S25  1  0.16839730  0.38339198  0.41727744  1
  S  S26  1  0.52246262  0.66362540  0.41593277  1
  O  O0  1  0.11282075  0.05941803  0.30915118  1
  O  O1  1  0.59905037  0.03625203  0.30807266  1
  O  O2  1  0.41300834  0.79705828  0.30346338  1
  O  O3  1  0.90647021  0.77585573  0.30313055  1
  O  O4  1  0.48300815  0.17423040  0.30374625  1
  O  O5  1  0.97688095  0.17898496  0.30391263  1
  O  O6  1  0.09891558  0.16193751  0.80804517  1
  O  O7  1  0.61170066  0.18173052  0.80279693  1
  O  O8  1  0.48166852  0.78376033  0.80361304  1
  O  O9  1  0.98162404  0.78977162  0.80370958  1
  O  O10  1  0.40890399  0.03910354  0.80293244  1
  O  O11  1  0.91093059  0.03135856  0.80319814  1
  O  O12  1  0.39967667  0.97642201  0.69590183  1
  O  O13  1  0.88635939  0.96418674  0.69589725  1
  O  O14  1  0.08760794  0.21673279  0.68947179  1
  O  O15  1  0.58993163  0.20699610  0.69643160  1
  O  O16  1  0.01413490  0.80871566  0.69628179  1
  O  O17  1  0.51289659  0.82391643  0.69655086  1
  O  O18  1  0.38697170  0.81170410  0.19631714  1
  O  O19  1  0.89636415  0.82033442  0.19555185  1
  O  O20  1  0.01015241  0.19965538  0.19641983  1
  O  O21  1  0.51563759  0.21949604  0.19627286  1
  O  O22  1  0.08246424  0.97006000  0.19259532  1
  O  O23  1  0.58795488  0.95847474  0.18926723  1
  O  O24  1  0.43394274  0.36047514  0.63706275  1
  O  O25  1  0.93674958  0.36162184  0.63711105  1
  O  O26  1  0.24383649  0.13206625  0.63629158  1
  O  O27  1  0.75364584  0.14034904  0.64071145  1
  O  O28  1  0.31958750  0.50737373  0.63739922  1
  O  O29  1  0.82201391  0.51007216  0.63650906  1
  O  O30  1  0.44011178  0.51517940  0.13616665  1
  O  O31  1  0.93321991  0.50691510  0.13606556  1
  O  O32  1  0.32221607  0.13163602  0.13578076  1
  O  O33  1  0.81746474  0.13074487  0.13617417  1
  O  O34  1  0.25319834  0.36969268  0.14031026  1
  O  O35  1  0.74361386  0.35697614  0.13561050  1
  O  O36  1  0.23850637  0.30209765  0.02552811  1
  O  O37  1  0.72794529  0.30482154  0.02802072  1
  O  O38  1  0.42246502  0.52908210  0.02866233  1
  O  O39  1  0.92454839  0.54912722  0.02870931  1
  O  O40  1  0.34866331  0.15557660  0.02776854  1
  O  O41  1  0.85253508  0.15287587  0.03012205  1
  O  O42  1  0.22901350  0.15289980  0.52901092  1
  O  O43  1  0.73758644  0.17550969  0.52597186  1
  O  O44  1  0.35457453  0.55378285  0.53123202  1
  O  O45  1  0.84869162  0.54096208  0.52863249  1
  O  O46  1  0.42401904  0.29411793  0.53029796  1
  O  O47  1  0.92157219  0.31440988  0.52955458  1
  O  O48  1  0.26520424  0.68877126  0.97097996  1
  O  O49  1  0.76965606  0.69432957  0.97016233  1
  O  O50  1  0.07518116  0.45639754  0.97069747  1
  O  O51  1  0.58658702  0.48371868  0.97519630  1
  O  O52  1  0.15245831  0.82666282  0.97534028  1
  O  O53  1  0.66055118  0.84672585  0.97125544  1
  O  O54  1  0.26932117  0.84580522  0.47096198  1
  O  O55  1  0.76470987  0.84147033  0.47132823  1
  O  O56  1  0.16334962  0.48108617  0.47262561  1
  O  O57  1  0.65243689  0.47789018  0.47552235  1
  O  O58  1  0.08601838  0.68970276  0.47486703  1
  O  O59  1  0.57596770  0.69409762  0.47115097  1
  O  O60  1  0.06887465  0.63744773  0.35911421  1
  O  O61  1  0.56644808  0.63994231  0.36331816  1
  O  O62  1  0.25252395  0.86405805  0.36289997  1
  O  O63  1  0.75611879  0.87246989  0.36317217  1
  O  O64  1  0.17991948  0.48980859  0.36352070  1
  O  O65  1  0.68160403  0.50698356  0.35852454  1
  O  O66  1  0.06642112  0.49226289  0.86299439  1
  O  O67  1  0.57105882  0.50224735  0.85914733  1
  O  O68  1  0.18169746  0.85708412  0.85803515  1
  O  O69  1  0.67970264  0.86640758  0.86223646  1
  O  O70  1  0.25644510  0.64099522  0.86274299  1
  O  O71  1  0.75141387  0.64122164  0.86219306  1
  O  O72  1  0.00994811  0.84028426  0.41774706  1
  O  O73  1  0.51274634  0.82396023  0.40842697  1
  O  O74  1  0.39691732  0.96350615  0.40759102  1
  O  O75  1  0.89830043  0.97352464  0.41334765  1
  O  O76  1  0.08503674  0.21338626  0.41773214  1
  O  O77  1  0.57595842  0.18822998  0.40729346  1
  O  O78  1  0.01207207  0.20039958  0.90755918  1
  O  O79  1  0.51503381  0.18397393  0.91507626  1
  O  O80  1  0.07670022  0.96423306  0.90709356  1
  O  O81  1  0.58604709  0.96080347  0.91264872  1
  O  O82  1  0.39847262  0.82312643  0.91316231  1
  O  O83  1  0.89638270  0.82920429  0.90585224  1
  O  O84  1  0.48850464  0.17383966  0.59610571  1
  O  O85  1  0.98442740  0.17193736  0.58587736  1
  O  O86  1  0.09760787  0.01149662  0.58836413  1
  O  O87  1  0.59355165  0.02421743  0.59735206  1
  O  O88  1  0.41208802  0.80313302  0.59709896  1
  O  O89  1  0.91318197  0.80083391  0.58941904  1
  O  O90  1  0.48580689  0.79867041  0.08405678  1
  O  O91  1  0.98518219  0.79933751  0.09244069  1
  O  O92  1  0.41354605  0.02468147  0.08798417  1
  O  O93  1  0.90951473  0.01795811  0.09651908  1
  O  O94  1  0.09197004  0.16466527  0.09399678  1
  O  O95  1  0.59732295  0.18364648  0.08793500  1
  O  O96  1  0.34478719  0.16199057  0.73890139  1
  O  O97  1  0.84554383  0.16628902  0.74467255  1
  O  O98  1  0.24436127  0.31279889  0.74079839  1
  O  O99  1  0.73841397  0.31848521  0.73929556  1
  O  O100  1  0.42276807  0.52825405  0.73963857  1
  O  O101  1  0.91780168  0.52399383  0.74539016  1
  O  O102  1  0.34955509  0.53102845  0.24584506  1
  O  O103  1  0.84335578  0.52503955  0.23830604  1
  O  O104  1  0.42076639  0.31472472  0.24549666  1
  O  O105  1  0.92205230  0.31990414  0.23874417  1
  O  O106  1  0.24709218  0.17069971  0.23676351  1
  O  O107  1  0.74421919  0.17520663  0.24088132  1
  O  O108  1  0.31614539  0.50277430  0.92283870  1
  O  O109  1  0.81792015  0.50665395  0.91904035  1
  O  O110  1  0.42661650  0.36995438  0.92486539  1
  O  O111  1  0.93306286  0.36216913  0.92016064  1
  O  O112  1  0.25279753  0.14647057  0.92275126  1
  O  O113  1  0.74859596  0.13059542  0.91996884  1
  O  O114  1  0.31936563  0.13043987  0.42052968  1
  O  O115  1  0.81585790  0.12932434  0.42376722  1
  O  O116  1  0.24829814  0.36473100  0.42258916  1
  O  O117  1  0.75199273  0.35846711  0.42280289  1
  O  O118  1  0.43357078  0.50409150  0.42126950  1
  O  O119  1  0.92581908  0.48209319  0.42641172  1
  O  O120  1  0.17856932  0.50909716  0.06984186  1
  O  O121  1  0.68624820  0.50467769  0.07643367  1
  O  O122  1  0.06571567  0.64005932  0.07776472  1
  O  O123  1  0.56870241  0.64327605  0.07364421  1
  O  O124  1  0.25363747  0.86992988  0.07544395  1
  O  O125  1  0.75190143  0.86661759  0.07592050  1
  O  O126  1  0.18685116  0.86857239  0.57702740  1
  O  O127  1  0.67714066  0.84685616  0.57135393  1
  O  O128  1  0.25453119  0.64181527  0.57775031  1
  O  O129  1  0.75303989  0.63559736  0.57635410  1
  O  O130  1  0.06704635  0.49472280  0.57572994  1
  O  O131  1  0.56600864  0.49113934  0.57809562  1
  O  O132  1  0.15701547  0.82690988  0.25903672  1
  O  O133  1  0.66018016  0.83308059  0.26666854  1
  O  O134  1  0.26386151  0.67712477  0.26341130  1
  O  O135  1  0.76516360  0.68724018  0.25458989  1
  O  O136  1  0.08047386  0.46215474  0.25570179  1
  O  O137  1  0.57854052  0.47006349  0.26087593  1
  O  O138  1  0.16068278  0.48795182  0.76638733  1
  O  O139  1  0.65618729  0.47107212  0.75660512  1
  O  O140  1  0.07631615  0.68263508  0.76094039  1
  O  O141  1  0.58168829  0.69751676  0.75637265  1
  O  O142  1  0.26701916  0.84334023  0.75435788  1
  O  O143  1  0.76260659  0.84691206  0.76246289  1
loop_
_geom_bond_atom_site_label_1
_geom_bond_atom_site_label_2
_geom_bond_distance
_geom_bond_site_symmetry_2
Na0 O72 2.278606 1_555
Na0 O76 2.459330 1_565
Na0 O75 2.531354 1_455
Na0 O86 2.615559 1_565
Na0 O85 2.617108 1_465
Na0 O89 2.638487 1_455
Na1 O79 2.366743 1_555
Na1 O90 2.547638 1_546
Na1 O82 2.556349 1_545
Na1 O92 2.563136 1_556
Na1 O81 2.577131 1_545
Na1 O95 2.578824 1_556
Na2 O112 2.452302 1_555
Na2 O110 2.471419 1_555
Na2 O108 2.547441 1_555
Na2 O98 2.614869 1_555
Na2 O96 2.699149 1_555
Na2 O100 2.723491 1_555
Na3 O111 2.474854 1_555
Na3 O109 2.485546 1_555
Na3 O113 2.494018 1_555
Na3 O101 2.568302 1_555
Na3 O97 2.583203 1_555
Na3 O99 2.710404 1_555
Na4 O116 2.521890 1_555
Na4 O114 2.528573 1_555
Na4 O102 2.565203 1_555
Na4 O118 2.578865 1_555
Na4 O104 2.600864 1_555
Na4 O106 2.606938 1_555
Na5 O117 2.502700 1_555
Na5 O119 2.517829 1_555
Na5 O107 2.587730 1_555
Na5 O115 2.603577 1_555
Na5 O103 2.666025 1_555
Na5 O105 2.678451 1_555
O0 Si0 1.580263 1_555
O0 Zn0 1.900971 1_545
O1 Si1 1.667322 1_545
O1 Ti0 1.790197 1_555
O2 S0 1.479367 1_555
O2 Ti0 2.136043 1_565
O3 S1 1.457218 1_555
O3 Zn0 2.150816 1_655
O4 S3 1.492325 1_555
O4 Ti0 2.069876 1_555
O5 S2 1.457509 1_555
O5 Zn0 2.233489 1_645
O6 Si2 1.665091 1_555
O6 Ti1 1.795187 1_555
O7 S4 1.459753 1_555
O7 Zn1 2.107685 1_555
O8 S6 1.461112 1_555
O8 Zn1 2.151476 1_565
O9 S5 1.487745 1_555
O9 Ti1 2.091363 1_665
O10 S7 1.459657 1_555
O10 Zn1 2.095379 1_555
O11 S8 1.471346 1_545
O11 Ti1 2.198640 1_655
O12 S7 1.476349 1_565
O12 Ti2 2.096953 1_565
O13 S8 1.457137 1_555
O13 Zn2 2.089500 1_665
O14 Si2 1.566913 1_555
O14 Zn2 1.887741 1_555
O15 S4 1.487152 1_555
O15 Ti2 2.061778 1_555
O16 S5 1.455079 1_455
O16 Zn2 2.085500 1_565
O17 S6 1.491463 1_555
O17 Ti2 2.035959 1_565
O18 S0 1.460671 1_555
O18 Zn3 2.068390 1_555
O19 S1 1.464788 1_555
O19 Ti3 2.151298 1_665
O20 S2 1.476918 1_455
O20 Ti3 2.058977 1_555
O21 S3 1.455042 1_555
O21 Zn3 2.087285 1_545
O22 Si0 1.653837 1_565
O22 Ti3 1.785553 1_565
O23 Si1 1.566104 1_555
O23 Zn3 1.887773 1_555
O24 S9 1.479059 1_555
O24 Ti4 2.100710 1_555
O25 S10 1.529118 1_555
O25 Ti5 1.947768 1_555
O26 S11 1.527196 1_555
O26 Ti4 1.937743 1_555
O27 Si3 1.669022 1_555
O27 Ti5 1.765269 1_555
O28 S12 1.508261 1_555
O28 Ti4 1.962214 1_555
O29 S13 1.503396 1_555
O29 Ti5 2.027024 1_555
O30 S14 1.478068 1_555
O30 Ti6 2.131626 1_555
O31 S15 1.477813 1_555
O31 Ti7 2.103494 1_555
O32 S16 1.477547 1_555
O32 Ti6 2.090807 1_555
O33 S17 1.523127 1_555
O33 Ti7 1.938649 1_555
O34 Si4 1.651530 1_555
O34 Ti6 1.784147 1_555
O35 S18 1.499813 1_555
O35 Ti7 2.011813 1_555
O36 Si4 1.623633 1_555
O36 Ti8 1.835639 1_554
O37 S18 1.465449 1_555
O37 Zn4 2.020448 1_554
O38 S14 1.474367 1_555
O38 Ti8 2.104140 1_554
O39 S15 1.458022 1_555
O39 Zn4 2.028836 1_554
O40 S16 1.493016 1_555
O40 Ti8 2.017139 1_554
O41 S17 1.461308 1_555
O41 Zn4 2.042674 1_554
O42 S11 1.461641 1_555
O42 Zn5 2.024414 1_555
O43 Si3 1.605135 1_555
O43 Ti9 1.871710 1_555
O44 S12 1.454170 1_555
O44 Zn5 2.091877 1_555
O45 S13 1.484227 1_555
O45 Ti9 2.044056 1_555
O46 S9 1.456227 1_555
O46 Zn5 2.081709 1_555
O47 S10 1.465542 1_555
O47 Ti9 2.136088 1_555
O48 S19 1.478261 1_555
O48 Ti10 2.076366 1_556
O49 S20 1.482338 1_555
O49 Ti11 2.099250 1_556
O50 S21 1.474917 1_555
O50 Ti10 2.130681 1_556
O51 Si5 1.672324 1_555
O51 Ti11 1.766285 1_556
O52 Si6 1.619674 1_555
O52 Ti10 1.845515 1_556
O53 S22 1.486651 1_555
O53 Ti11 2.046680 1_556
O54 S23 1.506769 1_555
O54 Ti12 2.005551 1_555
O55 S24 1.496110 1_555
O55 Ti13 2.014216 1_555
O56 S25 1.530057 1_555
O56 Ti12 1.925882 1_555
O57 Si7 1.629823 1_555
O57 Ti13 1.829367 1_555
O58 Si8 1.683238 1_555
O58 Ti12 1.743921 1_555
O59 S26 1.493392 1_555
O59 Ti13 2.063238 1_555
O60 Si8 1.651159 1_555
O60 Ti14 1.808426 1_555
O61 S26 1.474195 1_555
O61 Ti15 2.094226 1_555
O62 S23 1.483694 1_555
O62 Ti14 2.054117 1_555
O63 S24 1.476806 1_555
O63 Ti15 2.086715 1_555
O64 S25 1.471168 1_555
O64 Ti14 2.141612 1_555
O65 Si7 1.615013 1_555
O65 Ti15 1.854905 1_555
O66 S21 1.484116 1_555
O66 Ti16 2.050253 1_555
O67 Si5 1.682427 1_555
O67 Ti17 1.771895 1_555
O68 Si6 1.624975 1_555
O68 Ti16 1.845121 1_555
O69 S22 1.512410 1_555
O69 Ti17 1.968380 1_555
O70 S19 1.486344 1_555
O70 Ti16 2.058512 1_555
O71 S20 1.517349 1_555
O71 Ti17 1.967297 1_555
O72 Si8 1.582646 1_555
O72 Zn0 1.970194 1_555
O73 S26 1.490185 1_555
O73 Ti0 2.020495 1_565
O74 S23 1.468992 1_555
O74 Ti0 2.145791 1_565
O75 S24 1.455139 1_555
O75 Zn0 2.255453 1_655
O76 S25 1.461390 1_555
O76 Zn0 2.226016 1_545
O77 Si7 1.635218 1_555
O77 Ti0 1.801049 1_555
O78 S21 1.495285 1_555
O78 Ti1 1.992250 1_555
O79 Si5 1.586190 1_555
O79 Zn1 1.944237 1_555
O80 Si6 1.645176 1_555
O80 Ti1 1.787297 1_565
O81 S22 1.462246 1_555
O81 Zn1 2.163416 1_565
O82 S19 1.465099 1_555
O82 Zn1 2.142153 1_565
O83 S20 1.466587 1_555
O83 Ti1 2.130825 1_665
O84 S9 1.507100 1_555
O84 Ti2 1.938543 1_555
O85 S10 1.459078 1_555
O85 Zn2 2.185011 1_655
O86 S11 1.458730 1_555
O86 Zn2 2.175773 1_555
O87 Si3 1.655029 1_555
O87 Ti2 1.772540 1_555
O88 S12 1.502425 1_555
O88 Ti2 1.943358 1_565
O89 S13 1.463909 1_555
O89 Zn2 2.181091 1_665
O90 S14 1.463236 1_555
O90 Zn3 2.196468 1_555
O91 S15 1.485058 1_555
O91 Ti3 1.981585 1_665
O92 S16 1.465248 1_555
O92 Zn3 2.198462 1_545
O93 S17 1.460518 1_555
O93 Ti3 2.113969 1_655
O94 Si4 1.633580 1_555
O94 Ti3 1.801424 1_555
O95 S18 1.457790 1_555
O95 Zn3 2.192814 1_545
O96 S7 1.510919 1_555
O96 Ti4 2.002644 1_555
O97 S8 1.536348 1_545
O97 Ti5 2.017525 1_555
O98 Si2 1.692180 1_555
O98 Ti4 1.792090 1_555
O99 S4 1.504120 1_555
O99 Ti5 2.059219 1_555
O100 S6 1.496989 1_555
O100 Ti4 2.093635 1_555
O101 S5 1.500929 1_555
O101 Ti5 2.150684 1_555
O102 S0 1.523788 1_555
O102 Ti6 2.011008 1_555
O103 S1 1.513418 1_555
O103 Ti7 2.012307 1_555
O104 S3 1.482606 1_555
O104 Ti6 2.177961 1_555
O105 S2 1.518069 1_555
O105 Ti7 2.010852 1_555
O106 Si0 1.659124 1_555
O106 Ti6 1.795183 1_555
O107 Si1 1.685036 1_545
O107 Ti7 1.795384 1_555
O108 S19 1.494373 1_555
O108 Ti8 2.064689 1_555
O109 S20 1.473622 1_555
O109 Zn4 2.192804 1_555
O110 Si5 1.618901 1_555
O110 Ti8 1.935411 1_555
O111 S21 1.477619 1_655
O111 Zn4 2.119209 1_555
O112 Si6 1.633725 1_545
O112 Ti8 1.851370 1_555
O113 S22 1.475761 1_545
O113 Zn4 2.157734 1_555
O114 S23 1.475671 1_545
O114 Zn5 2.129923 1_555
O115 S24 1.498569 1_545
O115 Ti9 2.029374 1_555
O116 S25 1.479319 1_555
O116 Zn5 2.099112 1_555
O117 Si7 1.638590 1_555
O117 Ti9 1.830501 1_555
O118 S26 1.475134 1_555
O118 Zn5 2.095668 1_555
O119 Si8 1.632725 1_655
O119 Ti9 1.883586 1_555
O120 Si4 1.616862 1_555
O120 Ti10 1.837611 1_555
O121 S18 1.514795 1_555
O121 Ti11 1.959278 1_555
O122 S15 1.496735 1_455
O122 Ti10 1.978335 1_555
O123 S14 1.522332 1_555
O123 Ti11 1.929826 1_555
O124 S16 1.495573 1_565
O124 Ti10 1.982817 1_555
O125 S17 1.479349 1_565
O125 Ti11 2.091892 1_555
O126 S11 1.493182 1_565
O126 Ti12 2.043888 1_555
O127 Si3 1.606096 1_565
O127 Ti13 1.866443 1_555
O128 S12 1.461260 1_555
O128 Ti12 2.171293 1_555
O129 S13 1.486203 1_555
O129 Ti13 2.045713 1_555
O130 S10 1.489711 1_455
O130 Ti12 2.056535 1_555
O131 S9 1.481390 1_555
O131 Ti13 2.035092 1_555
O132 Si0 1.648761 1_565
O132 Ti14 1.792375 1_555
O133 Si1 1.626844 1_555
O133 Ti15 1.817116 1_555
O134 S0 1.471846 1_555
O134 Ti14 2.078520 1_555
O135 S1 1.495857 1_555
O135 Ti15 1.978066 1_555
O136 S2 1.486841 1_455
O136 Ti14 2.020156 1_555
O137 S3 1.498277 1_555
O137 Ti15 1.946637 1_555
O138 Si2 1.624930 1_555
O138 Ti16 1.821405 1_555
O139 S4 1.489703 1_555
O139 Ti17 2.059313 1_555
O140 S5 1.492120 1_455
O140 Ti16 1.981010 1_555
O141 S6 1.492485 1_555
O141 Ti17 2.048670 1_555
O142 S7 1.479849 1_565
O142 Ti16 2.041012 1_555
O143 S8 1.481963 1_555
O143 Ti17 2.069953 1_555
