# generated using pymatgen
data_Na3TiSi2GePO12
_symmetry_space_group_name_H-M   'P 1'
_cell_length_a   8.79483662
_cell_length_b   8.80669068
_cell_length_c   21.71555841
_cell_angle_alpha   89.90222087
_cell_angle_beta   90.12996084
_cell_angle_gamma   120.03885488
_symmetry_Int_Tables_number   1
_chemical_formula_structural   Na3TiSi2GePO12
_chemical_formula_sum   'Na18 Ti6 Si12 Ge6 P6 O72'
_cell_volume   1456.03149321
_cell_formula_units_Z   6
loop_
 _symmetry_equiv_pos_site_id
 _symmetry_equiv_pos_as_xyz
  1  'x, y, z'
loop_
 _atom_site_type_symbol
 _atom_site_label
 _atom_site_symmetry_multiplicity
 _atom_site_fract_x
 _atom_site_fract_y
 _atom_site_fract_z
 _atom_site_occupancy
  Na  Na0  1  0.00171878  0.99632715  0.50023510  1
  Na  Na1  1  0.00580923  0.00052826  0.00036843  1
  Na  Na2  1  0.66718372  0.32807906  0.83492649  1
  Na  Na3  1  0.66849228  0.33228325  0.33227115  1
  Na  Na4  1  0.33214568  0.66338255  0.16559778  1
  Na  Na5  1  0.33774992  0.66568315  0.66846437  1
  Na  Na6  1  0.63576551  0.99972114  0.24901642  1
  Na  Na7  1  0.00136329  0.63704321  0.25153524  1
  Na  Na8  1  0.99333687  0.36424716  0.75042923  1
  Na  Na9  1  0.37152375  0.00258690  0.75433108  1
  Na  Na10  1  0.29928051  0.33524360  0.58292418  1
  Na  Na11  1  0.66658321  0.96457036  0.58615490  1
  Na  Na12  1  0.66842456  0.70470606  0.08318470  1
  Na  Na13  1  0.03712176  0.33042617  0.08463672  1
  Na  Na14  1  0.96517740  0.66693866  0.91762446  1
  Na  Na15  1  0.33517839  0.29721037  0.91996839  1
  Na  Na16  1  0.33139068  0.03753274  0.41557516  1
  Na  Na17  1  0.70370419  0.66502459  0.41909926  1
  Ti  Ti0  1  0.98778775  0.99687612  0.35277573  1
  Ti  Ti1  1  0.99495901  0.99640326  0.64836271  1
  Ti  Ti2  1  0.00621051  0.00255850  0.14443022  1
  Ti  Ti3  1  0.65489403  0.33032538  0.69014771  1
  Ti  Ti4  1  0.67353654  0.33626507  0.47777867  1
  Ti  Ti5  1  0.33512719  0.67615184  0.52133910  1
  Si  Si0  1  0.70102276  0.70184930  0.24839017  1
  Si  Si1  1  0.00348898  0.29430385  0.24687195  1
  Si  Si2  1  0.28699343  0.29429092  0.75392302  1
  Si  Si3  1  0.70896825  0.99020350  0.75392004  1
  Si  Si4  1  0.37361925  0.04373516  0.58322796  1
  Si  Si5  1  0.67246890  0.62403719  0.58192968  1
  Si  Si6  1  0.95506522  0.61751491  0.08116481  1
  Si  Si7  1  0.38582434  0.33455419  0.08004522  1
  Si  Si8  1  0.04263842  0.37631274  0.91707676  1
  Si  Si9  1  0.33780469  0.95271009  0.91656695  1
  Si  Si10  1  0.61803095  0.95407507  0.41414747  1
  Si  Si11  1  0.04665407  0.66240136  0.41218497  1
  Ge  Ge0  1  0.00646007  0.00924496  0.85656536  1
  Ge  Ge1  1  0.67152854  0.34264072  0.18564794  1
  Ge  Ge2  1  0.66452110  0.32609193  0.97859688  1
  Ge  Ge3  1  0.32382717  0.66035113  0.01992481  1
  Ge  Ge4  1  0.33017345  0.65845475  0.31137649  1
  Ge  Ge5  1  0.33598191  0.66947683  0.81490308  1
  P  P0  1  0.29528050  0.00814029  0.24990069  1
  P  P1  1  0.99735105  0.71374929  0.75503545  1
  P  P2  1  0.95507567  0.33813045  0.58625507  1
  P  P3  1  0.65695664  0.04532499  0.08284828  1
  P  P4  1  0.62117897  0.67310727  0.91769727  1
  P  P5  1  0.32893276  0.37944235  0.41626040  1
  O  O0  1  0.21504298  0.02820112  0.31002134  1
  O  O1  1  0.82911525  0.79266069  0.30905983  1
  O  O2  1  0.96846922  0.15877133  0.30414206  1
  O  O3  1  0.20930451  0.16314461  0.81400670  1
  O  O4  1  0.97319351  0.79324142  0.81543069  1
  O  O5  1  0.84908127  0.03384621  0.80979345  1
  O  O6  1  0.79491304  0.96797694  0.68948599  1
  O  O7  1  0.16391341  0.20457481  0.69274754  1
  O  O8  1  0.02489693  0.83589136  0.69955550  1
  O  O9  1  0.79577812  0.83126135  0.18923039  1
  O  O10  1  0.02750571  0.20380439  0.18501534  1
  O  O11  1  0.17029666  0.98009312  0.19516924  1
  O  O12  1  0.87452597  0.35544405  0.64644229  1
  O  O13  1  0.49701596  0.13168465  0.64487131  1
  O  O14  1  0.64669811  0.49254850  0.63941982  1
  O  O15  1  0.87605907  0.49313476  0.14333714  1
  O  O16  1  0.63126557  0.12408282  0.14348647  1
  O  O17  1  0.51941511  0.37724212  0.13841185  1
  O  O18  1  0.46557166  0.30189617  0.01666728  1
  O  O19  1  0.82527577  0.53001171  0.02112494  1
  O  O20  1  0.69834007  0.16916573  0.02730918  1
  O  O21  1  0.46929085  0.16426745  0.52235585  1
  O  O22  1  0.69316993  0.53513411  0.51861052  1
  O  O23  1  0.83620295  0.31369897  0.52981815  1
  O  O24  1  0.54319709  0.70023020  0.97822877  1
  O  O25  1  0.17179104  0.45599794  0.97782816  1
  O  O26  1  0.29236720  0.81509931  0.97350105  1
  O  O27  1  0.53601006  0.83348335  0.47654361  1
  O  O28  1  0.31006070  0.45985975  0.47688653  1
  O  O29  1  0.17632210  0.69085938  0.47068915  1
  O  O30  1  0.13192273  0.63670481  0.34880673  1
  O  O31  1  0.49142463  0.86204767  0.35376000  1
  O  O32  1  0.36498598  0.50201048  0.36006888  1
  O  O33  1  0.12837306  0.50815337  0.85726715  1
  O  O34  1  0.36690191  0.87160654  0.85276261  1
  O  O35  1  0.49526017  0.63417400  0.86272776  1
  O  O36  1  0.03186280  0.84174848  0.41172798  1
  O  O37  1  0.81070749  0.96757573  0.41001649  1
  O  O38  1  0.16775983  0.19451902  0.40997220  1
  O  O39  1  0.03089759  0.18418533  0.91223069  1
  O  O40  1  0.15588701  0.96980103  0.91382898  1
  O  O41  1  0.80853443  0.83435361  0.91226474  1
  O  O42  1  0.96986411  0.16881530  0.58617365  1
  O  O43  1  0.18594984  0.03460127  0.58943994  1
  O  O44  1  0.84052970  0.82143445  0.58735952  1
  O  O45  1  0.96927705  0.80934576  0.08825886  1
  O  O46  1  0.82359443  0.02512983  0.08606087  1
  O  O47  1  0.18624583  0.16609282  0.08665222  1
  O  O48  1  0.69043374  0.16765126  0.74953941  1
  O  O49  1  0.48118337  0.31240703  0.74719510  1
  O  O50  1  0.84014673  0.52767881  0.74885350  1
  O  O51  1  0.69465410  0.51313160  0.24373440  1
  O  O52  1  0.81922588  0.30352946  0.24395534  1
  O  O53  1  0.48129585  0.17010117  0.24266496  1
  O  O54  1  0.64013705  0.50487542  0.91894478  1
  O  O55  1  0.84950192  0.36363465  0.92362925  1
  O  O56  1  0.50919558  0.15244300  0.92170646  1
  O  O57  1  0.63389407  0.14507367  0.41929253  1
  O  O58  1  0.49547755  0.35957417  0.41773661  1
  O  O59  1  0.84870909  0.49411110  0.41773481  1
  O  O60  1  0.36967208  0.51641171  0.07713774  1
  O  O61  1  0.14800538  0.63039702  0.07633817  1
  O  O62  1  0.49463723  0.85910203  0.07663553  1
  O  O63  1  0.36076390  0.85192266  0.57932106  1
  O  O64  1  0.49201570  0.63618262  0.58129004  1
  O  O65  1  0.14198350  0.49706973  0.57976420  1
  O  O66  1  0.31086473  0.83868814  0.24948746  1
  O  O67  1  0.51104725  0.69335647  0.25542732  1
  O  O68  1  0.17462291  0.49129483  0.25304629  1
  O  O69  1  0.29400542  0.48332861  0.76017464  1
  O  O70  1  0.16917758  0.70134017  0.75464543  1
  O  O71  1  0.51096910  0.81682905  0.75753766  1
loop_
_geom_bond_atom_site_label_1
_geom_bond_atom_site_label_2
_geom_bond_distance
_geom_bond_site_symmetry_2
Na0 O44 2.403675 1_455
Na0 O43 2.435696 1_565
Na0 O36 2.447463 1_555
Na0 O37 2.507066 1_455
Na0 O42 2.511341 1_465
Na0 O38 2.543711 1_565
Na1 O40 2.391142 1_544
Na1 O47 2.415431 1_555
Na1 O39 2.441721 1_554
Na1 O45 2.455801 1_445
Na1 O41 2.502949 1_444
Na1 O46 2.537798 1_455
Na2 O56 2.392614 1_555
Na2 O48 2.403328 1_555
Na2 O55 2.421748 1_555
Na2 O49 2.466838 1_555
Na2 O54 2.488389 1_555
Na2 O50 2.494416 1_555
Na3 O59 2.392020 1_555
Na3 O52 2.418447 1_555
Na3 O57 2.423125 1_555
Na3 O51 2.431195 1_555
Na3 O53 2.485468 1_555
Na3 O58 2.489598 1_555
Na4 O68 2.392142 1_555
Na4 O60 2.431735 1_555
Na4 O67 2.433626 1_555
Na4 O61 2.445585 1_555
Na4 O66 2.457155 1_555
Na4 O62 2.506065 1_555
Na5 O71 2.408172 1_555
Na5 O64 2.420346 1_555
Na5 O69 2.463184 1_555
Na5 O63 2.477288 1_555
Na5 O70 2.505934 1_555
Na5 O65 2.512884 1_555
Na6 O52 2.334898 1_565
Na6 O67 2.353410 1_555
Na6 O66 2.473722 1_555
Na6 O53 2.481007 1_565
Na6 O16 2.546979 1_565
Na6 O31 2.591896 1_555
Na6 O2 2.800598 1_565
Na6 O9 2.823493 1_555
Na7 O51 2.355270 1_455
Na7 O66 2.392839 1_555
Na7 O30 2.402648 1_555
Na7 O68 2.434819 1_555
Na7 O52 2.551458 1_455
Na7 O15 2.634637 1_455
Na7 O1 2.797595 1_455
Na7 O11 2.886977 1_555
Na8 O69 2.314927 1_655
Na8 O48 2.340286 1_555
Na8 O50 2.414319 1_555
Na8 O12 2.470999 1_555
Na8 O70 2.572335 1_655
Na8 O33 2.624852 1_655
Na8 O7 2.814868 1_655
Na8 O5 2.834912 1_555
Na9 O70 2.340632 1_545
Na9 O49 2.400728 1_555
Na9 O34 2.417880 1_545
Na9 O48 2.430945 1_555
Na9 O71 2.488568 1_545
Na9 O13 2.628145 1_555
Na9 O3 2.783604 1_555
Na9 O8 2.893513 1_545
Na10 O43 2.319671 1_555
Na10 O64 2.323954 1_555
Na10 O65 2.433655 1_555
Na10 O42 2.509188 1_455
Na10 O28 2.530586 1_555
Na10 O7 2.657279 1_555
Na10 O21 2.915916 1_555
Na10 O14 2.917396 1_555
Na11 O42 2.355110 1_565
Na11 O63 2.359578 1_555
Na11 O44 2.420840 1_555
Na11 O6 2.502923 1_555
Na11 O64 2.507392 1_555
Na11 O27 2.643269 1_555
Na11 O13 2.868482 1_565
Na11 O23 2.928990 1_565
Na12 O60 2.303851 1_555
Na12 O45 2.328141 1_555
Na12 O46 2.444168 1_565
Na12 O62 2.506828 1_555
Na12 O24 2.520841 1_554
Na12 O9 2.558718 1_555
Na12 O17 2.772002 1_555
Na12 O19 2.868167 1_555
Na13 O61 2.319967 1_555
Na13 O46 2.387756 1_455
Na13 O47 2.390882 1_555
Na13 O10 2.429032 1_555
Na13 O60 2.543320 1_555
Na13 O25 2.588006 1_554
Na13 O15 2.780516 1_455
Na13 O20 2.863050 1_455
Na14 O40 2.335603 1_655
Na14 O55 2.337858 1_555
Na14 O4 2.465928 1_555
Na14 O41 2.473353 1_555
Na14 O54 2.474933 1_555
Na14 O19 2.556844 1_556
Na14 O26 2.772324 1_655
Na14 O33 2.785245 1_655
Na15 O39 2.347806 1_555
Na15 O54 2.372323 1_555
Na15 O18 2.380813 1_556
Na15 O56 2.433559 1_555
Na15 O40 2.503302 1_545
Na15 O3 2.569696 1_555
Na15 O25 2.761348 1_555
Na15 O35 2.854115 1_555
Na16 O36 2.317647 1_545
Na16 O57 2.336283 1_555
Na16 O38 2.446997 1_555
Na16 O58 2.455779 1_555
Na16 O0 2.492714 1_555
Na16 O21 2.595056 1_555
Na16 O31 2.892171 1_545
Na16 O29 2.905123 1_545
Na17 O37 2.347888 1_555
Na17 O58 2.378807 1_555
Na17 O59 2.411422 1_555
Na17 O22 2.423457 1_555
Na17 O36 2.506315 1_655
Na17 O1 2.636590 1_555
Na17 O27 2.852626 1_555
Na17 O32 2.878498 1_555
Ge0 O5 1.813128 1_455
Ge0 O3 1.859067 1_555
Ge0 O39 1.885379 1_555
Ge0 O40 1.960160 1_545
Ge0 O4 1.987354 1_445
Ge0 O41 2.045564 1_445
Ge1 O17 1.826371 1_555
Ge1 O15 1.858216 1_555
Ge1 O51 1.893778 1_555
Ge1 O52 1.961676 1_555
Ge1 O16 1.997638 1_555
Ge1 O53 2.024557 1_555
Ge2 O18 1.850163 1_556
Ge2 O20 1.876827 1_556
Ge2 O19 1.880056 1_556
Ge2 O56 1.907430 1_555
Ge2 O55 1.910442 1_555
Ge2 O54 2.129049 1_555
Ge3 O26 1.822551 1_554
Ge3 O25 1.858297 1_554
Ge3 O61 1.886941 1_555
Ge3 O60 1.953739 1_555
Ge3 O24 1.998483 1_554
Ge3 O62 2.050236 1_555
Ge4 O30 1.846341 1_555
Ge4 O32 1.877736 1_555
Ge4 O31 1.878049 1_555
Ge4 O67 1.902392 1_555
Ge4 O68 1.904038 1_555
Ge4 O66 2.148485 1_555
Ge5 O34 1.854168 1_555
Ge5 O35 1.888350 1_555
Ge5 O33 1.898598 1_555
Ge5 O71 1.899473 1_555
Ge5 O69 1.906550 1_555
Ge5 O70 2.084541 1_555
O0 P0 1.537350 1_555
O0 Ti0 2.094830 1_445
O1 Si0 1.655085 1_555
O1 Ti0 1.889497 1_555
O2 Si1 1.641590 1_655
O2 Ti0 1.847592 1_545
O3 Si2 1.646814 1_555
O4 P1 1.551970 1_555
O5 Si3 1.630644 1_545
O6 Si3 1.649648 1_555
O6 Ti1 1.876416 1_555
O7 Si2 1.643654 1_555
O7 Ti1 1.941687 1_445
O8 P1 1.550240 1_455
O8 Ti1 1.915543 1_455
O9 Si0 1.640969 1_555
O9 Ti2 1.963500 1_665
O10 Si1 1.630225 1_555
O10 Ti2 1.903986 1_555
O11 P0 1.550844 1_565
O11 Ti2 1.900953 1_565
O12 P2 1.531790 1_555
O12 Ti3 2.064142 1_555
O13 Si4 1.650752 1_555
O13 Ti3 1.876898 1_555
O14 Si5 1.638430 1_555
O14 Ti3 1.832236 1_555
O15 Si6 1.656094 1_555
O16 P3 1.558024 1_555
O17 Si7 1.637334 1_555
O18 Si7 1.635996 1_555
O19 Si6 1.647032 1_555
O20 P3 1.541626 1_555
O21 Si4 1.639555 1_555
O21 Ti4 1.933120 1_555
O22 Si5 1.638390 1_555
O22 Ti4 1.893460 1_555
O23 P2 1.552794 1_555
O23 Ti4 1.907820 1_555
O24 P4 1.557065 1_555
O25 Si8 1.649672 1_555
O26 Si9 1.633776 1_555
O27 Si10 1.648241 1_555
O27 Ti5 1.881435 1_555
O28 P5 1.544092 1_555
O28 Ti5 2.047840 1_555
O29 Si11 1.638828 1_555
O29 Ti5 1.830539 1_555
O30 Si11 1.638120 1_555
O31 Si10 1.646156 1_555
O32 P5 1.552174 1_555
O33 Si8 1.651158 1_555
O34 Si9 1.638099 1_555
O35 P4 1.544061 1_555
O36 Si11 1.648437 1_555
O36 Ti0 2.043891 1_455
O37 Si10 1.640930 1_555
O37 Ti0 1.908530 1_555
O38 P5 1.539103 1_555
O38 Ti0 2.077942 1_445
O39 Si8 1.646287 1_555
O40 Si9 1.681256 1_555
O41 P4 1.550235 1_555
O42 P2 1.560285 1_555
O42 Ti1 2.122525 1_545
O43 Si4 1.617696 1_555
O43 Ti1 2.003609 1_445
O44 Si5 1.627290 1_555
O44 Ti1 1.969118 1_555
O45 Si6 1.637927 1_555
O45 Ti2 1.985109 1_665
O46 P3 1.563584 1_555
O46 Ti2 2.129589 1_655
O47 Si7 1.641899 1_555
O47 Ti2 1.968572 1_555
O48 Si3 1.652936 1_545
O48 Ti3 2.062442 1_555
O49 Si2 1.640692 1_555
O49 Ti3 1.913155 1_555
O50 P1 1.531810 1_555
O50 Ti3 2.112711 1_555
O51 Si0 1.637950 1_555
O52 Si1 1.663784 1_655
O53 P0 1.549113 1_555
O54 P4 1.571856 1_555
O55 Si8 1.652009 1_655
O56 Si9 1.650450 1_545
O57 Si10 1.620776 1_545
O57 Ti4 1.996804 1_555
O58 P5 1.559951 1_555
O58 Ti4 2.122775 1_555
O59 Si11 1.630633 1_655
O59 Ti4 1.965908 1_555
O60 Si7 1.678262 1_555
O61 Si6 1.646597 1_455
O62 P3 1.549740 1_565
O63 Si4 1.637903 1_565
O63 Ti5 1.920497 1_555
O64 Si5 1.643237 1_555
O64 Ti5 2.049190 1_555
O65 P2 1.542087 1_455
O65 Ti5 2.074431 1_555
O66 P0 1.565469 1_565
O67 Si0 1.642114 1_555
O68 Si1 1.636664 1_555
O69 Si2 1.640648 1_555
O70 P1 1.568790 1_455
O71 Si3 1.645630 1_555
