# generated using pymatgen
data_Mn3CrAs4
_symmetry_space_group_name_H-M   'P 1'
_cell_length_a   3.72386583
_cell_length_b   5.82294620
_cell_length_c   6.44464453
_cell_angle_alpha   90.15479912
_cell_angle_beta   90.00000000
_cell_angle_gamma   90.00000000
_symmetry_Int_Tables_number   1
_chemical_formula_structural   Mn3CrAs4
_chemical_formula_sum   'Mn3 Cr1 As4'
_cell_volume   139.74432642
_cell_formula_units_Z   1
loop_
 _symmetry_equiv_pos_site_id
 _symmetry_equiv_pos_as_xyz
  1  'x, y, z'
loop_
 _atom_site_type_symbol
 _atom_site_label
 _atom_site_symmetry_multiplicity
 _atom_site_fract_x
 _atom_site_fract_y
 _atom_site_fract_z
 _atom_site_occupancy
  Mn  Mn0  1  0.50000000  0.00085710  0.24942214  1
  Mn  Mn1  1  0.00000000  0.49924464  0.74960598  1
  Mn  Mn2  1  0.00000000  0.99925465  0.75015311  1
  Cr  Cr0  1  0.50000000  0.50038342  0.25096647  1
  As  As0  1  0.50000000  0.74443791  0.91735622  1
  As  As1  1  0.50000000  0.25465116  0.58272882  1
  As  As2  1  0.00000000  0.25270806  0.08400716  1
  As  As3  1  0.00000000  0.74846205  0.41576010  1
loop_
_geom_bond_atom_site_label_1
_geom_bond_atom_site_label_2
_geom_bond_distance
_geom_bond_site_symmetry_2
As0 Cr0 2.580422 1_556
As0 Mn1 2.581796 1_655
As0 Mn1 2.581796 1_555
As0 Mn0 2.606133 1_566
As0 Mn2 2.614994 1_655
As0 Mn2 2.614994 1_555
As1 Cr0 2.575926 1_555
As1 Mn1 2.577526 1_655
As1 Mn1 2.577526 1_555
As1 Mn0 2.604019 1_555
As1 Mn2 2.617504 1_545
As1 Mn2 2.617504 1_645
As2 Cr0 2.587685 1_555
As2 Cr0 2.587685 1_455
As2 Mn1 2.592686 1_554
As2 Mn0 2.600452 1_455
As2 Mn0 2.600452 1_555
As2 Mn2 2.605805 1_544
As3 Cr0 2.583243 1_555
As3 Cr0 2.583243 1_455
As3 Mn1 2.598427 1_555
As3 Mn2 2.599969 1_555
As3 Mn0 2.604695 1_465
As3 Mn0 2.604695 1_565
