# generated using pymatgen
data_Ba2NdMgMoO6
_symmetry_space_group_name_H-M   'P 1'
_cell_length_a   5.97366523
_cell_length_b   6.56705959
_cell_length_c   6.47455476
_cell_angle_alpha   55.31902332
_cell_angle_beta   86.23720410
_cell_angle_gamma   113.32721134
_symmetry_Int_Tables_number   1
_chemical_formula_structural   Ba2NdMgMoO6
_chemical_formula_sum   'Ba2 Nd1 Mg1 Mo1 O6'
_cell_volume   176.98595050
_cell_formula_units_Z   1
loop_
 _symmetry_equiv_pos_site_id
 _symmetry_equiv_pos_as_xyz
  1  'x, y, z'
loop_
 _atom_site_type_symbol
 _atom_site_label
 _atom_site_symmetry_multiplicity
 _atom_site_fract_x
 _atom_site_fract_y
 _atom_site_fract_z
 _atom_site_occupancy
  Ba  Ba0  1  0.08856797  0.72323232  0.61732849  1
  Ba  Ba1  1  0.84021277  0.23297944  0.40567764  1
  Nd  Nd0  1  0.28908198  0.13032705  0.84540528  1
  Mg  Mg0  1  0.65489928  0.87913754  0.17723564  1
  Mo  Mo0  1  0.47022888  0.49226969  0.02244505  1
  O  O0  1  0.41011443  0.26074135  0.43307854  1
  O  O1  1  0.51178306  0.66953813  0.59089028  1
  O  O2  1  0.06551840  0.13948484  0.14397961  1
  O  O3  1  0.84447853  0.84054507  0.92135534  1
  O  O4  1  0.62510397  0.23941060  0.01728337  1
  O  O5  1  0.32501072  0.72566698  0.06490376  1
loop_
_geom_bond_atom_site_label_1
_geom_bond_atom_site_label_2
_geom_bond_distance
_geom_bond_site_symmetry_2
Ba0 O0 2.666463 1_565
Ba0 O4 2.682367 1_456
Ba0 O1 2.695004 1_555
Ba0 O2 2.775513 1_565
Ba0 O3 2.972043 1_455
Ba1 O2 2.568730 1_655
Ba1 O0 2.648353 1_555
Ba1 O5 2.709265 1_655
Ba1 O1 2.805497 1_545
Ba1 O3 2.839173 1_545
Ba1 O4 2.884931 1_555
Nd0 O0 2.244439 1_555
Nd0 O5 2.306850 1_546
Nd0 O2 2.319749 1_556
Nd0 O3 2.382857 1_445
Nd0 O4 2.417097 1_556
Nd0 O1 2.522934 1_555
Mg0 O4 2.066678 1_565
Mg0 O1 2.090627 1_555
Mg0 O3 2.133147 1_554
Mg0 O5 2.208512 1_555
Mg0 O2 2.275225 1_665
Mo0 O0 2.085964 1_555
Mo0 O5 2.163005 1_555
Mo0 O3 2.170806 1_554
Mo0 O4 2.211387 1_555
Mo0 O2 2.251948 1_555
Mo0 O1 2.280880 1_554
