# generated using pymatgen
data_In3Sn
_symmetry_space_group_name_H-M   'P 1'
_cell_length_a   6.67662234
_cell_length_b   6.67662234
_cell_length_c   22.54605846
_cell_angle_alpha   78.24430484
_cell_angle_beta   78.24430484
_cell_angle_gamma   61.01096009
_symmetry_Int_Tables_number   1
_chemical_formula_structural   In3Sn
_chemical_formula_sum   'In24 Sn8'
_cell_volume   854.18955277
_cell_formula_units_Z   8
loop_
 _symmetry_equiv_pos_site_id
 _symmetry_equiv_pos_as_xyz
  1  'x, y, z'
loop_
 _atom_site_type_symbol
 _atom_site_label
 _atom_site_symmetry_multiplicity
 _atom_site_fract_x
 _atom_site_fract_y
 _atom_site_fract_z
 _atom_site_occupancy
  In  In0_0  1  0.25303992  0.25303992  0.37539325  1
  In  In0_1  1  0.25303992  0.25303992  0.87539326  1
  In  In0_2  1  0.25303992  0.75303992  0.37539325  1
  In  In0_3  1  0.25303992  0.75303992  0.87539325  1
  In  In0_4  1  0.75303992  0.25303992  0.37539325  1
  In  In0_5  1  0.75303992  0.25303992  0.87539325  1
  In  In0_6  1  0.75303992  0.75303992  0.37539326  1
  In  In0_7  1  0.75303992  0.75303992  0.87539326  1
  In  In1_0  1  0.00000000  0.00000000  0.25000000  1
  In  In1_1  1  1.00000000  1.00000000  0.75000000  1
  In  In1_2  1  1.00000000  0.50000000  0.25000000  1
  In  In1_3  1  0.00000000  0.50000000  0.75000000  1
  In  In1_4  1  0.50000000  1.00000000  0.25000000  1
  In  In1_5  1  0.50000000  0.00000000  0.75000000  1
  In  In1_6  1  0.50000000  0.50000000  0.25000000  1
  In  In1_7  1  0.50000000  0.50000000  0.75000000  1
  In  In2_0  1  0.24696008  0.24696008  0.12460675  1
  In  In2_1  1  0.24696008  0.24696008  0.62460675  1
  In  In2_2  1  0.24696008  0.74696008  0.12460675  1
  In  In2_3  1  0.24696008  0.74696008  0.62460675  1
  In  In2_4  1  0.74696008  0.24696008  0.12460675  1
  In  In2_5  1  0.74696008  0.24696008  0.62460675  1
  In  In2_6  1  0.74696008  0.74696008  0.12460675  1
  In  In2_7  1  0.74696008  0.74696008  0.62460675  1
  Sn  Sn0_0  1  0.00000000  0.00000000  0.00000000  1
  Sn  Sn0_1  1  0.00000000  0.00000000  0.50000000  1
  Sn  Sn0_2  1  0.00000000  0.50000000  0.00000000  1
  Sn  Sn0_3  1  0.00000000  0.50000000  0.50000000  1
  Sn  Sn0_4  1  0.50000000  0.00000000  0.00000000  1
  Sn  Sn0_5  1  0.50000000  0.00000000  0.50000000  1
  Sn  Sn0_6  1  0.50000000  0.50000000  0.00000000  1
  Sn  Sn0_7  1  0.50000000  0.50000000  0.50000000  1
loop_
_geom_bond_atom_site_label_1
_geom_bond_atom_site_label_2
_geom_bond_distance
_geom_bond_site_symmetry_2
In0_0 Sn0_5 3.274002 1_555
In0_0 Sn0_3 3.274002 1_555
In0_0 In1_2 3.303372 1_455
In0_0 In1_4 3.303372 1_545
In0_0 In0_2 3.338311 1_545
In0_0 In0_2 3.338311 1_555
In0_0 In0_4 3.338311 1_455
In0_0 In0_4 3.338311 1_555
In0_0 In0_6 3.389192 1_455
In0_0 In0_6 3.389192 1_545
In0_0 In1_6 3.502340 1_555
In0_0 Sn0_1 3.535491 1_555
In0_1 Sn0_4 3.274002 1_556
In0_1 Sn0_2 3.274002 1_556
In0_1 In1_5 3.303372 1_555
In0_1 In1_3 3.303372 1_555
In0_1 In0_3 3.338311 1_545
In0_1 In0_5 3.338311 1_455
In0_1 In0_5 3.338311 1_555
In0_1 In0_3 3.338311 1_555
In0_1 In0_7 3.389192 1_455
In0_1 In0_7 3.389192 1_545
In0_1 In1_7 3.502340 1_555
In0_1 Sn0_0 3.535491 1_556
In0_2 Sn0_1 3.274002 1_565
In0_2 Sn0_7 3.274002 1_555
In0_2 In1_6 3.303372 1_555
In0_2 In1_0 3.303372 1_565
In0_2 In0_6 3.338311 1_455
In0_2 In0_6 3.338311 1_555
In0_2 In0_4 3.389192 1_555
In0_2 In0_4 3.389192 1_465
In0_2 In1_4 3.502340 1_555
In0_2 Sn0_3 3.535491 1_555
In0_3 Sn0_0 3.274002 1_566
In0_3 Sn0_6 3.274002 1_556
In0_3 In1_1 3.303372 1_455
In0_3 In1_7 3.303372 1_555
In0_3 In0_7 3.338311 1_555
In0_3 In0_7 3.338311 1_455
In0_3 In0_5 3.389192 1_465
In0_3 In0_5 3.389192 1_555
In0_3 In1_5 3.502340 1_565
In0_3 Sn0_2 3.535491 1_556
In0_4 Sn0_1 3.274002 1_655
In0_4 Sn0_7 3.274002 1_555
In0_4 In1_6 3.303372 1_555
In0_4 In1_0 3.303372 1_655
In0_4 In0_6 3.338311 1_545
In0_4 In0_6 3.338311 1_555
In0_4 In1_2 3.502340 1_555
In0_4 Sn0_5 3.535491 1_555
In0_5 Sn0_0 3.274002 1_656
In0_5 Sn0_6 3.274002 1_556
In0_5 In1_1 3.303372 1_545
In0_5 In1_7 3.303372 1_555
In0_5 In0_7 3.338311 1_555
In0_5 In0_7 3.338311 1_545
In0_5 In1_3 3.502340 1_655
In0_5 Sn0_4 3.535491 1_556
In0_6 Sn0_5 3.274002 1_565
In0_6 Sn0_3 3.274002 1_655
In0_6 In1_2 3.303372 1_555
In0_6 In1_4 3.303372 1_555
In0_6 In1_0 3.502340 1_665
In0_6 Sn0_7 3.535491 1_555
In0_7 Sn0_4 3.274002 1_566
In0_7 Sn0_2 3.274002 1_656
In0_7 In1_5 3.303372 1_565
In0_7 In1_3 3.303372 1_655
In0_7 In1_1 3.502340 1_555
In0_7 Sn0_6 3.535491 1_556
In1_0 In2_2 3.303372 1_545
In1_0 In2_4 3.303372 1_455
In1_0 In1_4 3.338311 1_445
In1_0 In1_2 3.338311 1_445
In1_0 In1_2 3.338311 1_455
In1_0 In1_4 3.338311 1_545
In1_0 In1_6 3.389192 1_455
In1_0 In1_6 3.389192 1_545
In1_0 In2_0 3.502340 1_555
In1_1 In2_3 3.303372 1_655
In1_1 In2_5 3.303372 1_565
In1_1 In1_5 3.338311 1_565
In1_1 In1_3 3.338311 1_655
In1_1 In1_3 3.338311 1_665
In1_1 In1_5 3.338311 1_665
In1_1 In1_7 3.389192 1_565
In1_1 In1_7 3.389192 1_655
In1_1 In2_1 3.502340 1_665
In1_2 In2_6 3.303372 1_555
In1_2 In2_0 3.303372 1_655
In1_2 In1_6 3.338311 1_555
In1_2 In1_6 3.338311 1_655
In1_2 In1_4 3.389192 1_555
In1_2 In1_4 3.389192 1_645
In1_2 In2_2 3.502340 1_655
In1_3 In2_7 3.303372 1_455
In1_3 In2_1 3.303372 1_555
In1_3 In1_7 3.338311 1_555
In1_3 In1_7 3.338311 1_455
In1_3 In1_5 3.389192 1_555
In1_3 In1_5 3.389192 1_465
In1_3 In2_3 3.502340 1_555
In1_4 In2_6 3.303372 1_555
In1_4 In2_0 3.303372 1_565
In1_4 In1_6 3.338311 1_555
In1_4 In1_6 3.338311 1_565
In1_4 In2_4 3.502340 1_565
In1_5 In2_7 3.303372 1_545
In1_5 In2_1 3.303372 1_555
In1_5 In1_7 3.338311 1_555
In1_5 In1_7 3.338311 1_545
In1_5 In2_5 3.502340 1_555
In1_6 In2_2 3.303372 1_555
In1_6 In2_4 3.303372 1_555
In1_6 In2_6 3.502340 1_555
In1_7 In2_3 3.303372 1_555
In1_7 In2_5 3.303372 1_555
In1_7 In2_7 3.502340 1_555
In2_0 Sn0_2 3.274002 1_555
In2_0 Sn0_4 3.274002 1_555
In2_0 In2_4 3.338311 1_555
In2_0 In2_2 3.338311 1_555
In2_0 In2_2 3.338311 1_545
In2_0 In2_4 3.338311 1_455
In2_0 In2_6 3.389192 1_455
In2_0 In2_6 3.389192 1_545
In2_0 Sn0_6 3.535491 1_555
In2_1 Sn0_3 3.274002 1_555
In2_1 Sn0_5 3.274002 1_555
In2_1 In2_3 3.338311 1_545
In2_1 In2_5 3.338311 1_555
In2_1 In2_5 3.338311 1_455
In2_1 In2_3 3.338311 1_555
In2_1 In2_7 3.389192 1_455
In2_1 In2_7 3.389192 1_545
In2_1 Sn0_7 3.535491 1_555
In2_2 Sn0_6 3.274002 1_555
In2_2 Sn0_0 3.274002 1_565
In2_2 In2_6 3.338311 1_555
In2_2 In2_6 3.338311 1_455
In2_2 In2_4 3.389192 1_555
In2_2 In2_4 3.389192 1_465
In2_2 Sn0_4 3.535491 1_565
In2_3 Sn0_7 3.274002 1_555
In2_3 Sn0_1 3.274002 1_565
In2_3 In2_7 3.338311 1_555
In2_3 In2_7 3.338311 1_455
In2_3 In2_5 3.389192 1_465
In2_3 In2_5 3.389192 1_555
In2_3 Sn0_5 3.535491 1_565
In2_4 Sn0_6 3.274002 1_555
In2_4 Sn0_0 3.274002 1_655
In2_4 In2_6 3.338311 1_555
In2_4 In2_6 3.338311 1_545
In2_4 Sn0_2 3.535491 1_655
In2_5 Sn0_7 3.274002 1_555
In2_5 Sn0_1 3.274002 1_655
In2_5 In2_7 3.338311 1_555
In2_5 In2_7 3.338311 1_545
In2_5 Sn0_3 3.535491 1_655
In2_6 Sn0_4 3.274002 1_565
In2_6 Sn0_2 3.274002 1_655
In2_6 Sn0_0 3.535491 1_665
In2_7 Sn0_5 3.274002 1_565
In2_7 Sn0_3 3.274002 1_655
In2_7 Sn0_1 3.535491 1_665
Sn0_0 Sn0_4 3.338311 1_455
Sn0_0 Sn0_4 3.338311 1_555
Sn0_0 Sn0_2 3.338311 1_555
Sn0_0 Sn0_2 3.338311 1_545
Sn0_0 Sn0_6 3.389192 1_455
Sn0_0 Sn0_6 3.389192 1_545
Sn0_1 Sn0_5 3.338311 1_555
Sn0_1 Sn0_5 3.338311 1_455
Sn0_1 Sn0_3 3.338311 1_555
Sn0_1 Sn0_3 3.338311 1_545
Sn0_1 Sn0_7 3.389192 1_455
Sn0_1 Sn0_7 3.389192 1_545
Sn0_2 Sn0_6 3.338311 1_555
Sn0_2 Sn0_6 3.338311 1_455
Sn0_2 Sn0_4 3.389192 1_555
Sn0_2 Sn0_4 3.389192 1_465
Sn0_3 Sn0_7 3.338311 1_555
Sn0_3 Sn0_7 3.338311 1_455
Sn0_3 Sn0_5 3.389192 1_555
Sn0_3 Sn0_5 3.389192 1_465
Sn0_4 Sn0_6 3.338311 1_555
Sn0_4 Sn0_6 3.338311 1_545
Sn0_5 Sn0_7 3.338311 1_555
Sn0_5 Sn0_7 3.338311 1_545
