# generated using pymatgen
data_VPt
_symmetry_space_group_name_H-M   'P 1'
_cell_length_a   3.79896637
_cell_length_b   3.79896637
_cell_length_c   3.89257502
_cell_angle_alpha   90.00000000
_cell_angle_beta   90.00000000
_cell_angle_gamma   90.00000000
_symmetry_Int_Tables_number   1
_chemical_formula_structural   VPt
_chemical_formula_sum   'V2 Pt2'
_cell_volume   56.17820898
_cell_formula_units_Z   2
loop_
 _symmetry_equiv_pos_site_id
 _symmetry_equiv_pos_as_xyz
  1  'x, y, z'
loop_
 _atom_site_type_symbol
 _atom_site_label
 _atom_site_symmetry_multiplicity
 _atom_site_fract_x
 _atom_site_fract_y
 _atom_site_fract_z
 _atom_site_occupancy
  V  V0  1  0.50000000  -0.00000000  0.50000000  1
  V  V1  1  0.00000000  0.50000000  0.50000000  1
  Pt  Pt0  1  0.50000000  0.50000000  0.00000000  1
  Pt  Pt1  1  -0.00000000  0.00000000  0.00000000  1
loop_
_geom_bond_atom_site_label_1
_geom_bond_atom_site_label_2
_geom_bond_distance
_geom_bond_site_symmetry_2
V0 V1 2.686275 1_545
V0 V1 2.686275 1_645
V0 V1 2.686275 1_555
V0 V1 2.686275 1_655
Pt0 Pt1 2.686275 1_665
Pt0 Pt1 2.686275 1_555
Pt0 Pt1 2.686275 1_655
Pt0 Pt1 2.686275 1_565
Pt0 V1 2.719572 1_654
Pt0 V0 2.719572 1_564
Pt0 V0 2.719572 1_565
Pt0 V0 2.719572 1_555
Pt0 V1 2.719572 1_554
Pt0 V1 2.719572 1_655
Pt0 V0 2.719572 1_554
Pt0 V1 2.719572 1_555
Pt1 V1 2.719572 1_544
Pt1 V0 2.719572 1_454
Pt1 V0 2.719572 1_555
Pt1 V1 2.719572 1_554
Pt1 V0 2.719572 1_455
Pt1 V0 2.719572 1_554
Pt1 V1 2.719572 1_545
Pt1 V1 2.719572 1_555
