# generated using pymatgen
data_V4O5F7
_symmetry_space_group_name_H-M   'P 1'
_cell_length_a   5.35940839
_cell_length_b   5.36461700
_cell_length_c   9.17093447
_cell_angle_alpha   74.04762090
_cell_angle_beta   90.04449062
_cell_angle_gamma   60.17750116
_symmetry_Int_Tables_number   1
_chemical_formula_structural   V4O5F7
_chemical_formula_sum   'V4 O5 F7'
_cell_volume   216.94056615
_cell_formula_units_Z   1
loop_
 _symmetry_equiv_pos_site_id
 _symmetry_equiv_pos_as_xyz
  1  'x, y, z'
loop_
 _atom_site_type_symbol
 _atom_site_label
 _atom_site_symmetry_multiplicity
 _atom_site_fract_x
 _atom_site_fract_y
 _atom_site_fract_z
 _atom_site_occupancy
  V  V0  1  0.75717600  0.48669900  0.23746800  1
  V  V1  1  0.50519700  0.96767600  0.49330400  1
  V  V2  1  0.28972700  0.49124600  0.73321900  1
  V  V3  1  0.04267500  0.98256100  0.00607600  1
  O  O0  1  0.91179000  0.26309800  0.12619500  1
  O  O1  1  0.58284200  0.75234200  0.37854400  1
  O  O2  1  0.39253900  0.77304400  0.09305400  1
  O  O3  1  0.40830300  0.73337300  0.66016700  1
  O  O4  1  0.41647000  0.25920000  0.62786300  1
  F  F0  1  0.90759800  0.76436000  0.60275800  1
  F  F1  1  0.90837000  0.75415500  0.15817700  1
  F  F2  1  0.56687900  0.27614700  0.34756700  1
  F  F3  1  0.58617700  0.24084000  0.90795300  1
  F  F4  1  0.06394100  0.74454300  0.87609500  1
  F  F5  1  0.07338600  0.27083000  0.83850300  1
  F  F6  1  0.08692900  0.23988600  0.41305700  1
loop_
_geom_bond_atom_site_label_1
_geom_bond_atom_site_label_2
_geom_bond_distance
_geom_bond_site_symmetry_2
O0 V0 1.688913 1_555
O0 V3 1.957808 1_645
O1 V1 1.675148 1_555
O1 V0 2.066090 1_555
O2 V3 1.680510 1_555
O2 V0 1.955671 1_555
O3 V2 1.698009 1_555
O3 V1 1.945385 1_555
O4 V2 1.663044 1_555
O4 V1 2.125287 1_545
F0 V2 1.954618 1_655
F0 V1 1.975730 1_555
F1 V0 1.956484 1_555
F1 V3 1.975994 1_655
F2 V0 1.963670 1_555
F2 V1 1.990764 1_545
F3 V2 1.893859 1_555
F3 V3 2.157495 1_646
F4 V3 1.938169 1_556
F4 V2 2.091251 1_555
F5 V3 1.930691 1_546
F5 V2 2.100624 1_555
F6 V1 1.962126 1_545
F6 V0 1.991406 1_455
