# generated using pymatgen
data_SbAs2Cl13
_symmetry_space_group_name_H-M   'P 1'
_cell_length_a   9.56590628
_cell_length_b   9.56590628
_cell_length_c   11.80707793
_cell_angle_alpha   90.00000000
_cell_angle_beta   90.00000000
_cell_angle_gamma   115.05084525
_symmetry_Int_Tables_number   1
_chemical_formula_structural   SbAs2Cl13
_chemical_formula_sum   'Sb2 As4 Cl26'
_cell_volume   978.79211332
_cell_formula_units_Z   2
loop_
 _symmetry_equiv_pos_site_id
 _symmetry_equiv_pos_as_xyz
  1  'x, y, z'
loop_
 _atom_site_type_symbol
 _atom_site_label
 _atom_site_symmetry_multiplicity
 _atom_site_fract_x
 _atom_site_fract_y
 _atom_site_fract_z
 _atom_site_occupancy
  Sb  Sb0  1  0.78870901  0.21129099  0.00062769  1
  Sb  Sb1  1  0.21129099  0.78870901  0.50062769  1
  As  As0  1  0.54958435  0.45041565  0.85032868  1
  As  As1  1  0.86173492  0.13826508  0.53918066  1
  As  As2  1  0.45041565  0.54958435  0.35032868  1
  As  As3  1  0.13826508  0.86173492  0.03918066  1
  Cl  Cl0  1  0.08487820  0.24464524  0.60252948  1
  Cl  Cl1  1  0.30079714  0.37482590  0.87091402  1
  Cl  Cl2  1  0.33617375  0.66382625  0.60895479  1
  Cl  Cl3  1  0.66382625  0.33617375  0.10895479  1
  Cl  Cl4  1  0.08700174  0.91299826  0.39021950  1
  Cl  Cl5  1  0.91299826  0.08700174  0.89021950  1
  Cl  Cl6  1  0.31940232  0.01045297  0.61990673  1
  Cl  Cl7  1  0.68059768  0.98954703  0.11990673  1
  Cl  Cl8  1  0.98954703  0.68059768  0.61990673  1
  Cl  Cl9  1  0.01045297  0.31940232  0.11990673  1
  Cl  Cl10  1  0.43303617  0.89861256  0.37871941  1
  Cl  Cl11  1  0.56696383  0.10138744  0.87871941  1
  Cl  Cl12  1  0.10138744  0.56696383  0.37871941  1
  Cl  Cl13  1  0.89861256  0.43303617  0.87871941  1
  Cl  Cl14  1  0.62517410  0.69920286  0.87091402  1
  Cl  Cl15  1  0.24464524  0.08487820  0.10252948  1
  Cl  Cl16  1  0.75535476  0.91512180  0.60252948  1
  Cl  Cl17  1  0.91512180  0.75535476  0.10252948  1
  Cl  Cl18  1  0.73856145  0.26143855  0.58951020  1
  Cl  Cl19  1  0.26143855  0.73856145  0.08951020  1
  Cl  Cl20  1  0.86591744  0.13408256  0.36321668  1
  Cl  Cl21  1  0.13408256  0.86591744  0.86321668  1
  Cl  Cl22  1  0.55384746  0.44615254  0.66262450  1
  Cl  Cl23  1  0.44615254  0.55384746  0.16262450  1
  Cl  Cl24  1  0.37482590  0.30079714  0.37091402  1
  Cl  Cl25  1  0.69920286  0.62517410  0.37091402  1
loop_
_geom_bond_atom_site_label_1
_geom_bond_atom_site_label_2
_geom_bond_distance
_geom_bond_site_symmetry_2
As0 Cl14 2.188250 1_555
As0 Cl1 2.188250 1_555
As0 Cl22 2.217306 1_555
As1 Cl18 2.074953 1_555
As1 Cl0 2.076507 1_655
As1 Cl16 2.076507 1_545
As1 Cl20 2.078717 1_555
As2 Cl25 2.188250 1_555
As2 Cl24 2.188250 1_555
As2 Cl23 2.217306 1_555
As3 Cl19 2.074953 1_555
As3 Cl15 2.076507 1_565
As3 Cl17 2.076507 1_455
As3 Cl21 2.078717 1_554
Cl2 Sb1 2.387188 1_555
Cl3 Sb0 2.387188 1_555
Cl4 Sb1 2.392405 1_555
Cl5 Sb0 2.392405 1_556
Cl6 Sb1 2.386346 1_545
Cl7 Sb0 2.386346 1_565
Cl8 Sb1 2.386346 1_655
Cl9 Sb0 2.386346 1_455
Cl10 Sb1 2.405836 1_555
Cl11 Sb0 2.405836 1_556
Cl12 Sb1 2.405836 1_555
Cl13 Sb0 2.405836 1_556
