# generated using pymatgen
data_Nb2Zn4(SO4)9
_symmetry_space_group_name_H-M   'P 1'
_cell_length_a   8.74038391
_cell_length_b   8.74038363
_cell_length_c   22.52397231
_cell_angle_alpha   90.00000000
_cell_angle_beta   90.00000000
_cell_angle_gamma   120.00000109
_symmetry_Int_Tables_number   1
_chemical_formula_structural   Nb2Zn4(SO4)9
_chemical_formula_sum   'Nb4 Zn8 S18 O72'
_cell_volume   1490.17274365
_cell_formula_units_Z   2
loop_
 _symmetry_equiv_pos_site_id
 _symmetry_equiv_pos_as_xyz
  1  'x, y, z'
loop_
 _atom_site_type_symbol
 _atom_site_label
 _atom_site_symmetry_multiplicity
 _atom_site_fract_x
 _atom_site_fract_y
 _atom_site_fract_z
 _atom_site_occupancy
  Nb  Nb0  1  0.66666700  0.33333300  0.98152333  1
  Nb  Nb1  1  0.66666700  0.33333300  0.48152333  1
  Nb  Nb2  1  0.33333300  0.66666700  0.30801272  1
  Nb  Nb3  1  0.33333300  0.66666700  0.80801272  1
  Zn  Zn0  1  -0.00000000  0.00000000  0.35202288  1
  Zn  Zn1  1  -0.00000000  0.00000000  0.85202288  1
  Zn  Zn2  1  -0.00000000  0.00000000  0.64571527  1
  Zn  Zn3  1  -0.00000000  0.00000000  0.14571527  1
  Zn  Zn4  1  0.66666700  0.33333300  0.68679855  1
  Zn  Zn5  1  0.66666700  0.33333300  0.18679855  1
  Zn  Zn6  1  0.33333300  0.66666700  0.02146851  1
  Zn  Zn7  1  0.33333300  0.66666700  0.52146851  1
  S  S0  1  0.29044861  0.00810084  0.24980912  1
  S  S1  1  0.71765224  0.70955139  0.24980912  1
  S  S2  1  0.99189916  0.28234776  0.24980912  1
  S  S3  1  0.29044861  0.28234776  0.74980912  1
  S  S4  1  0.99189916  0.70955139  0.74980912  1
  S  S5  1  0.71765224  0.00810084  0.74980912  1
  S  S6  1  0.96164738  0.33452998  0.58575889  1
  S  S7  1  0.37288360  0.03835262  0.58575889  1
  S  S8  1  0.66547002  0.62711640  0.58575889  1
  S  S9  1  0.96164738  0.62711640  0.08575889  1
  S  S10  1  0.66547002  0.03835262  0.08575889  1
  S  S11  1  0.37288360  0.33452998  0.08575889  1
  S  S12  1  0.62484799  0.67118573  0.91761148  1
  S  S13  1  0.04633674  0.37515201  0.91761148  1
  S  S14  1  0.32881427  0.95366326  0.91761148  1
  S  S15  1  0.62484799  0.95366326  0.41761148  1
  S  S16  1  0.32881427  0.37515201  0.41761148  1
  S  S17  1  0.04633674  0.67118573  0.41761148  1
  O  O0  1  0.21260624  0.02938109  0.30423990  1
  O  O1  1  0.81677484  0.78739376  0.30423990  1
  O  O2  1  0.97061891  0.18322516  0.30423990  1
  O  O3  1  0.21260624  0.18322516  0.80423990  1
  O  O4  1  0.97061891  0.78739376  0.80423990  1
  O  O5  1  0.81677484  0.02938109  0.80423990  1
  O  O6  1  0.78188589  0.96105024  0.69713474  1
  O  O7  1  0.17916436  0.21811411  0.69713474  1
  O  O8  1  0.03894976  0.82083564  0.69713474  1
  O  O9  1  0.78188589  0.82083564  0.19713474  1
  O  O10  1  0.03894976  0.21811411  0.19713474  1
  O  O11  1  0.17916436  0.96105024  0.19713474  1
  O  O12  1  0.87650399  0.36511865  0.63615367  1
  O  O13  1  0.48861566  0.12349601  0.63615367  1
  O  O14  1  0.63488135  0.51138434  0.63615367  1
  O  O15  1  0.87650399  0.51138434  0.13615367  1
  O  O16  1  0.63488135  0.12349601  0.13615367  1
  O  O17  1  0.48861566  0.36511865  0.13615367  1
  O  O18  1  0.46793730  0.30653565  0.02945186  1
  O  O19  1  0.83859935  0.53206270  0.02945186  1
  O  O20  1  0.69346435  0.16140065  0.02945186  1
  O  O21  1  0.46793730  0.16140065  0.52945186  1
  O  O22  1  0.69346435  0.53206270  0.52945186  1
  O  O23  1  0.83859935  0.30653565  0.52945186  1
  O  O24  1  0.54304900  0.69587048  0.96984881  1
  O  O25  1  0.15282047  0.45695100  0.96984881  1
  O  O26  1  0.30412952  0.84717953  0.96984881  1
  O  O27  1  0.54304900  0.84717953  0.46984881  1
  O  O28  1  0.30412952  0.45695100  0.46984881  1
  O  O29  1  0.15282047  0.69587048  0.46984881  1
  O  O30  1  0.12753557  0.63502296  0.36335154  1
  O  O31  1  0.50748639  0.87246443  0.36335154  1
  O  O32  1  0.36497704  0.49251361  0.36335154  1
  O  O33  1  0.12753557  0.49251361  0.86335154  1
  O  O34  1  0.36497704  0.87246443  0.86335154  1
  O  O35  1  0.50748639  0.63502296  0.86335154  1
  O  O36  1  0.02113189  0.82085816  0.40733874  1
  O  O37  1  0.79972627  0.97886811  0.40733874  1
  O  O38  1  0.17914184  0.20027373  0.40733874  1
  O  O39  1  0.02113189  0.20027373  0.90733874  1
  O  O40  1  0.17914184  0.97886811  0.90733874  1
  O  O41  1  0.79972627  0.82085816  0.90733874  1
  O  O42  1  0.96974870  0.17232280  0.58884927  1
  O  O43  1  0.20257410  0.03025130  0.58884927  1
  O  O44  1  0.82767720  0.79742590  0.58884927  1
  O  O45  1  0.96974870  0.79742590  0.08884927  1
  O  O46  1  0.82767720  0.03025130  0.08884927  1
  O  O47  1  0.20257410  0.17232280  0.08884927  1
  O  O48  1  0.68410176  0.15381620  0.74247664  1
  O  O49  1  0.46971544  0.31589824  0.74247664  1
  O  O50  1  0.84618380  0.53028456  0.74247664  1
  O  O51  1  0.68410176  0.53028456  0.24247664  1
  O  O52  1  0.84618380  0.31589824  0.24247664  1
  O  O53  1  0.46971544  0.15381620  0.24247664  1
  O  O54  1  0.63860770  0.50528438  0.92485674  1
  O  O55  1  0.86667768  0.36139230  0.92485674  1
  O  O56  1  0.49471562  0.13332232  0.92485674  1
  O  O57  1  0.63860770  0.13332232  0.42485674  1
  O  O58  1  0.49471562  0.36139230  0.42485674  1
  O  O59  1  0.86667768  0.50528438  0.42485674  1
  O  O60  1  0.36045017  0.49102362  0.07353993  1
  O  O61  1  0.13057245  0.63954983  0.07353993  1
  O  O62  1  0.50897638  0.86942755  0.07353993  1
  O  O63  1  0.36045017  0.86942755  0.57353993  1
  O  O64  1  0.50897638  0.63954983  0.57353993  1
  O  O65  1  0.13057245  0.49102362  0.57353993  1
  O  O66  1  0.30919623  0.83907857  0.26106492  1
  O  O67  1  0.52988134  0.69080377  0.26106492  1
  O  O68  1  0.16092143  0.47011866  0.26106492  1
  O  O69  1  0.30919623  0.47011866  0.76106492  1
  O  O70  1  0.16092143  0.69080377  0.76106492  1
  O  O71  1  0.52988134  0.83907857  0.76106492  1
loop_
_geom_bond_atom_site_label_1
_geom_bond_atom_site_label_2
_geom_bond_distance
_geom_bond_site_symmetry_2
Nb0 O19 1.957170 1_556
Nb0 O20 1.957170 1_556
Nb0 O18 1.957170 1_556
Nb0 O56 2.077642 1_555
Nb0 O54 2.077642 1_555
Nb0 O55 2.077642 1_555
Nb1 O22 1.957170 1_555
Nb1 O21 1.957170 1_555
Nb1 O23 1.957170 1_555
Nb1 O57 2.077642 1_555
Nb1 O59 2.077642 1_555
Nb1 O58 2.077642 1_555
Nb2 O68 1.936878 1_555
Nb2 O66 1.936879 1_555
Nb2 O67 1.936879 1_555
Nb2 O31 2.090007 1_555
Nb2 O32 2.090007 1_555
Nb2 O30 2.090008 1_555
Nb3 O69 1.936878 1_555
Nb3 O71 1.936879 1_555
Nb3 O70 1.936879 1_555
Nb3 O34 2.090007 1_555
Nb3 O33 2.090007 1_555
Nb3 O35 2.090008 1_555
O0 S0 1.458464 1_555
O0 Zn0 2.049442 1_555
O1 S1 1.458464 1_555
O1 Zn0 2.049442 1_665
O2 S2 1.458464 1_555
O2 Zn0 2.049442 1_655
O3 S3 1.458464 1_555
O3 Zn1 2.049442 1_555
O4 S4 1.458464 1_555
O4 Zn1 2.049442 1_665
O5 S5 1.458464 1_555
O5 Zn1 2.049442 1_655
O6 S5 1.456994 1_565
O6 Zn2 2.107751 1_665
O7 S3 1.456994 1_555
O7 Zn2 2.107751 1_555
O8 S4 1.456994 1_455
O8 Zn2 2.107751 1_565
O9 S1 1.456994 1_555
O9 Zn3 2.107751 1_665
O10 S2 1.456994 1_455
O10 Zn3 2.107751 1_555
O11 S0 1.456994 1_565
O11 Zn3 2.107751 1_565
O12 S6 1.453508 1_555
O12 Zn4 2.057343 1_555
O13 S7 1.453508 1_555
O13 Zn4 2.057343 1_555
O14 S8 1.453508 1_555
O14 Zn4 2.057343 1_555
O15 S9 1.453508 1_555
O15 Zn5 2.057343 1_555
O16 S10 1.453508 1_555
O16 Zn5 2.057343 1_555
O17 S11 1.453508 1_555
O17 Zn5 2.057343 1_555
O18 S11 1.600584 1_555
O19 S9 1.600584 1_555
O20 S10 1.600584 1_555
O21 S7 1.600584 1_555
O22 S8 1.600584 1_555
O23 S6 1.600584 1_555
O24 S12 1.447872 1_555
O24 Zn6 2.075811 1_556
O25 S13 1.447872 1_555
O25 Zn6 2.075811 1_556
O26 S14 1.447872 1_555
O26 Zn6 2.075811 1_556
O27 S15 1.447872 1_555
O27 Zn7 2.075811 1_555
O28 S16 1.447872 1_555
O28 Zn7 2.075811 1_555
O29 S17 1.447872 1_555
O29 Zn7 2.075811 1_555
O30 S17 1.523667 1_555
O31 S15 1.523667 1_555
O32 S16 1.523667 1_555
O33 S13 1.523667 1_555
O34 S14 1.523667 1_555
O35 S12 1.523667 1_555
O36 S17 1.449703 1_555
O36 Zn0 2.080215 1_565
O37 S15 1.449711 1_555
O37 Zn0 2.080215 1_665
O38 S16 1.449708 1_555
O38 Zn0 2.080215 1_555
O39 S13 1.449711 1_555
O39 Zn1 2.080215 1_555
O40 S14 1.449703 1_555
O40 Zn1 2.080215 1_565
O41 S12 1.449708 1_555
O41 Zn1 2.080215 1_665
O42 S6 1.456115 1_555
O42 Zn2 2.092192 1_655
O43 S7 1.456124 1_555
O43 Zn2 2.092192 1_555
O44 S8 1.456120 1_555
O44 Zn2 2.092192 1_665
O45 S9 1.456124 1_555
O45 Zn3 2.092192 1_665
O46 S10 1.456115 1_555
O46 Zn3 2.092192 1_655
O47 S11 1.456120 1_555
O47 Zn3 2.092192 1_555
O48 S5 1.452179 1_555
O48 Zn4 2.072914 1_555
O49 S3 1.452188 1_555
O49 Zn4 2.072914 1_555
O50 S4 1.452185 1_555
O50 Zn4 2.072914 1_555
O51 S1 1.452188 1_555
O51 Zn5 2.072914 1_555
O52 S2 1.452179 1_555
O52 Zn5 2.072914 1_555
O53 S0 1.452185 1_555
O53 Zn5 2.072914 1_555
O54 S12 1.522532 1_555
O55 S13 1.522515 1_655
O56 S14 1.522523 1_545
O57 S15 1.522515 1_545
O58 S16 1.522532 1_555
O59 S17 1.522523 1_655
O60 S11 1.451591 1_555
O60 Zn6 2.037753 1_555
O61 S9 1.451574 1_455
O61 Zn6 2.037753 1_555
O62 S10 1.451581 1_565
O62 Zn6 2.037753 1_555
O63 S7 1.451574 1_565
O63 Zn7 2.037753 1_555
O64 S8 1.451591 1_555
O64 Zn7 2.037753 1_555
O65 S6 1.451581 1_455
O65 Zn7 2.037753 1_555
O66 S0 1.586088 1_565
O67 S1 1.586096 1_555
O68 S2 1.586093 1_455
O69 S3 1.586096 1_555
O70 S4 1.586088 1_455
O71 S5 1.586093 1_565
