# generated using pymatgen
data_MgTe2Mo2W2(Se2S)2
_symmetry_space_group_name_H-M   'P 1'
_cell_length_a   6.67614200
_cell_length_b   6.67680103
_cell_length_c   90.36464158
_cell_angle_alpha   90.01912083
_cell_angle_beta   89.99999366
_cell_angle_gamma   119.99672505
_symmetry_Int_Tables_number   1
_chemical_formula_structural   MgTe2Mo2W2(Se2S)2
_chemical_formula_sum   'Mg8 Te16 Mo16 W16 Se32 S16'
_cell_volume   3488.48982342
_cell_formula_units_Z   8
loop_
 _symmetry_equiv_pos_site_id
 _symmetry_equiv_pos_as_xyz
  1  'x, y, z'
loop_
 _atom_site_type_symbol
 _atom_site_label
 _atom_site_symmetry_multiplicity
 _atom_site_fract_x
 _atom_site_fract_y
 _atom_site_fract_z
 _atom_site_occupancy
  Mg  Mg0_0  1  0.00001850  0.00003650  0.18661700  1
  Mg  Mg0_1  1  0.00001850  0.00003650  0.68661700  1
  Mg  Mg0_2  1  0.00001850  0.50003650  0.18661700  1
  Mg  Mg0_3  1  0.00001850  0.50003650  0.68661700  1
  Mg  Mg0_4  1  0.50001850  0.00003650  0.18661700  1
  Mg  Mg0_5  1  0.50001850  0.00003650  0.68661700  1
  Mg  Mg0_6  1  0.50001850  0.50003650  0.18661700  1
  Mg  Mg0_7  1  0.50001850  0.50003650  0.68661700  1
  Te  Te0_0  1  0.33326900  0.16653800  0.02571950  1
  Te  Te0_1  1  0.33326900  0.16653800  0.52571950  1
  Te  Te0_2  1  0.33326900  0.66653800  0.02571950  1
  Te  Te0_3  1  0.33326900  0.66653800  0.52571950  1
  Te  Te0_4  1  0.83326900  0.16653800  0.02571950  1
  Te  Te0_5  1  0.83326900  0.16653800  0.52571950  1
  Te  Te0_6  1  0.83326900  0.66653800  0.02571950  1
  Te  Te0_7  1  0.83326900  0.66653800  0.52571950  1
  Te  Te1_0  1  0.33334350  0.16668600  0.06770150  1
  Te  Te1_1  1  0.33334350  0.16668600  0.56770150  1
  Te  Te1_2  1  0.33334350  0.66668600  0.06770150  1
  Te  Te1_3  1  0.33334350  0.66668600  0.56770150  1
  Te  Te1_4  1  0.83334350  0.16668600  0.06770150  1
  Te  Te1_5  1  0.83334350  0.16668600  0.56770150  1
  Te  Te1_6  1  0.83334350  0.66668600  0.06770150  1
  Te  Te1_7  1  0.83334350  0.66668600  0.56770150  1
  Mo  Mo0_0  1  0.16664000  0.33328050  0.04671150  1
  Mo  Mo0_1  1  0.16664000  0.33328050  0.54671150  1
  Mo  Mo0_2  1  0.16664000  0.83328050  0.04671150  1
  Mo  Mo0_3  1  0.16664000  0.83328050  0.54671150  1
  Mo  Mo0_4  1  0.66664000  0.33328050  0.04671150  1
  Mo  Mo0_5  1  0.66664000  0.33328050  0.54671150  1
  Mo  Mo0_6  1  0.66664000  0.83328050  0.04671150  1
  Mo  Mo0_7  1  0.66664000  0.83328050  0.54671150  1
  Mo  Mo1_0  1  0.33329000  0.16658050  0.13803950  1
  Mo  Mo1_1  1  0.33329000  0.16658050  0.63803950  1
  Mo  Mo1_2  1  0.33329000  0.66658050  0.13803950  1
  Mo  Mo1_3  1  0.33329000  0.66658050  0.63803950  1
  Mo  Mo1_4  1  0.83329000  0.16658050  0.13803950  1
  Mo  Mo1_5  1  0.83329000  0.16658050  0.63803950  1
  Mo  Mo1_6  1  0.83329000  0.66658050  0.13803950  1
  Mo  Mo1_7  1  0.83329000  0.66658050  0.63803950  1
  W  W0_0  1  0.16665100  0.33330200  0.23891850  1
  W  W0_1  1  0.16665100  0.33330200  0.73891850  1
  W  W0_2  1  0.16665100  0.83330200  0.23891850  1
  W  W0_3  1  0.16665100  0.83330200  0.73891850  1
  W  W0_4  1  0.66665100  0.33330200  0.23891850  1
  W  W0_5  1  0.66665100  0.33330200  0.73891850  1
  W  W0_6  1  0.66665100  0.83330200  0.23891850  1
  W  W0_7  1  0.66665100  0.83330200  0.73891850  1
  W  W1_0  1  0.33341900  0.16683950  0.32885050  1
  W  W1_1  1  0.33341900  0.16683950  0.82885050  1
  W  W1_2  1  0.33341900  0.66683950  0.32885050  1
  W  W1_3  1  0.33341900  0.66683950  0.82885050  1
  W  W1_4  1  0.83341900  0.16683950  0.32885050  1
  W  W1_5  1  0.83341900  0.16683950  0.82885050  1
  W  W1_6  1  0.83341900  0.66683950  0.32885050  1
  W  W1_7  1  0.83341900  0.66683950  0.82885050  1
  Se  Se0_0  1  0.16671150  0.33342300  0.15681100  1
  Se  Se0_1  1  0.16671150  0.33342300  0.65681100  1
  Se  Se0_2  1  0.16671150  0.83342300  0.15681100  1
  Se  Se0_3  1  0.16671150  0.83342300  0.65681100  1
  Se  Se0_4  1  0.66671150  0.33342300  0.15681100  1
  Se  Se0_5  1  0.66671150  0.33342300  0.65681100  1
  Se  Se0_6  1  0.66671150  0.83342300  0.15681100  1
  Se  Se0_7  1  0.66671150  0.83342300  0.65681100  1
  Se  Se1_0  1  0.16680050  0.33360100  0.34741800  1
  Se  Se1_1  1  0.16680050  0.33360100  0.84741800  1
  Se  Se1_2  1  0.16680050  0.83360100  0.34741800  1
  Se  Se1_3  1  0.16680050  0.83360100  0.84741800  1
  Se  Se1_4  1  0.66680050  0.33360100  0.34741800  1
  Se  Se1_5  1  0.66680050  0.33360100  0.84741800  1
  Se  Se1_6  1  0.66680050  0.83360100  0.34741800  1
  Se  Se1_7  1  0.66680050  0.83360100  0.84741800  1
  Se  Se2_0  1  0.16654300  0.33308600  0.11964550  1
  Se  Se2_1  1  0.16654300  0.33308600  0.61964550  1
  Se  Se2_2  1  0.16654300  0.83308600  0.11964550  1
  Se  Se2_3  1  0.16654300  0.83308600  0.61964550  1
  Se  Se2_4  1  0.66654300  0.33308600  0.11964550  1
  Se  Se2_5  1  0.66654300  0.33308600  0.61964550  1
  Se  Se2_6  1  0.66654300  0.83308600  0.11964550  1
  Se  Se2_7  1  0.66654300  0.83308600  0.61964550  1
  Se  Se3_0  1  0.16670800  0.33341600  0.31027500  1
  Se  Se3_1  1  0.16670800  0.33341600  0.81027500  1
  Se  Se3_2  1  0.16670800  0.83341600  0.31027500  1
  Se  Se3_3  1  0.16670800  0.83341600  0.81027500  1
  Se  Se3_4  1  0.66670800  0.33341600  0.31027500  1
  Se  Se3_5  1  0.66670800  0.33341600  0.81027500  1
  Se  Se3_6  1  0.66670800  0.83341600  0.31027500  1
  Se  Se3_7  1  0.66670800  0.83341600  0.81027500  1
  S  S0_0  1  0.33326350  0.16652600  0.22205350  1
  S  S0_1  1  0.33326350  0.16652600  0.72205350  1
  S  S0_2  1  0.33326350  0.66652600  0.22205350  1
  S  S0_3  1  0.33326350  0.66652600  0.72205350  1
  S  S0_4  1  0.83326350  0.16652600  0.22205350  1
  S  S0_5  1  0.83326350  0.16652600  0.72205350  1
  S  S0_6  1  0.83326350  0.66652600  0.22205350  1
  S  S0_7  1  0.83326350  0.66652600  0.72205350  1
  S  S1_0  1  0.33334250  0.16668550  0.25571600  1
  S  S1_1  1  0.33334250  0.16668550  0.75571600  1
  S  S1_2  1  0.33334250  0.66668550  0.25571600  1
  S  S1_3  1  0.33334250  0.66668550  0.75571600  1
  S  S1_4  1  0.83334250  0.16668550  0.25571600  1
  S  S1_5  1  0.83334250  0.16668550  0.75571600  1
  S  S1_6  1  0.83334250  0.66668550  0.25571600  1
  S  S1_7  1  0.83334250  0.66668550  0.75571600  1
loop_
_geom_bond_atom_site_label_1
_geom_bond_atom_site_label_2
_geom_bond_distance
_geom_bond_site_symmetry_2
Mg0_0 Se0_2 3.311546 1_545
Mg0_0 Se0_6 3.311548 1_445
Mg0_0 Se0_0 3.312832 1_555
Mg0_0 Mg0_4 3.338071 1_455
Mg0_0 Mg0_4 3.338071 1_555
Mg0_0 Mg0_2 3.338401 1_555
Mg0_0 Mg0_2 3.338401 1_545
Mg0_0 Mg0_6 3.338401 1_555
Mg0_0 Mg0_6 3.338401 1_445
Mg0_1 Se0_3 3.311546 1_545
Mg0_1 Se0_7 3.311548 1_445
Mg0_1 Se0_1 3.312832 1_555
Mg0_1 Mg0_5 3.338071 1_455
Mg0_1 Mg0_5 3.338071 1_555
Mg0_1 Mg0_3 3.338401 1_555
Mg0_1 Mg0_3 3.338401 1_545
Mg0_1 Mg0_7 3.338401 1_445
Mg0_1 Mg0_7 3.338401 1_555
Mg0_2 Se0_0 3.311546 1_555
Mg0_2 Se0_4 3.311548 1_455
Mg0_2 Se0_2 3.312832 1_555
Mg0_2 Mg0_6 3.338071 1_555
Mg0_2 Mg0_6 3.338071 1_455
Mg0_2 Mg0_4 3.338401 1_455
Mg0_2 Mg0_4 3.338401 1_565
Mg0_3 Se0_1 3.311546 1_555
Mg0_3 Se0_5 3.311548 1_455
Mg0_3 Se0_3 3.312832 1_555
Mg0_3 Mg0_7 3.338071 1_455
Mg0_3 Mg0_7 3.338071 1_555
Mg0_3 Mg0_5 3.338401 1_455
Mg0_3 Mg0_5 3.338401 1_565
Mg0_4 Se0_6 3.311546 1_545
Mg0_4 Se0_2 3.311548 1_545
Mg0_4 Se0_4 3.312832 1_555
Mg0_4 Mg0_6 3.338401 1_545
Mg0_4 Mg0_6 3.338401 1_555
Mg0_5 Se0_7 3.311546 1_545
Mg0_5 Se0_3 3.311548 1_545
Mg0_5 Se0_5 3.312832 1_555
Mg0_5 Mg0_7 3.338401 1_555
Mg0_5 Mg0_7 3.338401 1_545
Mg0_6 Se0_4 3.311546 1_555
Mg0_6 Se0_0 3.311548 1_555
Mg0_6 Se0_6 3.312832 1_555
Mg0_7 Se0_5 3.311546 1_555
Mg0_7 Se0_1 3.311548 1_555
Mg0_7 Se0_7 3.312832 1_555
Mo0_0 Te1_2 2.704013 1_555
Mo0_0 Te0_4 2.704122 1_455
Mo0_0 Te0_0 2.704124 1_555
Mo0_0 Te1_4 2.704209 1_455
Mo0_0 Te1_0 2.704215 1_555
Mo0_0 Te0_2 2.704571 1_555
Mo0_1 Te1_3 2.704013 1_555
Mo0_1 Te0_5 2.704122 1_455
Mo0_1 Te0_1 2.704124 1_555
Mo0_1 Te1_5 2.704209 1_455
Mo0_1 Te1_1 2.704215 1_555
Mo0_1 Te0_3 2.704571 1_555
Mo0_2 Te1_0 2.704013 1_565
Mo0_2 Te0_6 2.704122 1_455
Mo0_2 Te0_2 2.704124 1_555
Mo0_2 Te1_6 2.704209 1_455
Mo0_2 Te1_2 2.704215 1_555
Mo0_2 Te0_0 2.704571 1_565
Mo0_3 Te1_1 2.704013 1_565
Mo0_3 Te0_7 2.704122 1_455
Mo0_3 Te0_3 2.704124 1_555
Mo0_3 Te1_7 2.704209 1_455
Mo0_3 Te1_3 2.704215 1_555
Mo0_3 Te0_1 2.704571 1_565
Mo0_4 Te1_6 2.704013 1_555
Mo0_4 Te0_0 2.704122 1_555
Mo0_4 Te0_4 2.704124 1_555
Mo0_4 Te1_0 2.704209 1_555
Mo0_4 Te1_4 2.704215 1_555
Mo0_4 Te0_6 2.704571 1_555
Mo0_5 Te1_7 2.704013 1_555
Mo0_5 Te0_1 2.704122 1_555
Mo0_5 Te0_5 2.704124 1_555
Mo0_5 Te1_1 2.704209 1_555
Mo0_5 Te1_5 2.704215 1_555
Mo0_5 Te0_7 2.704571 1_555
Mo0_6 Te1_4 2.704013 1_565
Mo0_6 Te0_2 2.704122 1_555
Mo0_6 Te0_6 2.704124 1_555
Mo0_6 Te1_2 2.704209 1_555
Mo0_6 Te1_6 2.704215 1_555
Mo0_6 Te0_4 2.704571 1_565
Mo0_7 Te1_5 2.704013 1_565
Mo0_7 Te0_3 2.704122 1_555
Mo0_7 Te0_7 2.704124 1_555
Mo0_7 Te1_3 2.704209 1_555
Mo0_7 Te1_7 2.704215 1_555
Mo0_7 Te0_5 2.704571 1_565
Mo1_0 Se2_0 2.544939 1_555
Mo1_0 Se2_4 2.544941 1_555
Mo1_0 Se2_2 2.545416 1_545
Mo1_0 Se0_2 2.567330 1_545
Mo1_0 Se0_0 2.567595 1_555
Mo1_0 Se0_4 2.567597 1_555
Mo1_1 Se2_1 2.544939 1_555
Mo1_1 Se2_5 2.544941 1_555
Mo1_1 Se2_3 2.545416 1_545
Mo1_1 Se0_3 2.567330 1_545
Mo1_1 Se0_1 2.567595 1_555
Mo1_1 Se0_5 2.567597 1_555
Mo1_2 Se2_2 2.544939 1_555
Mo1_2 Se2_6 2.544941 1_555
Mo1_2 Se2_0 2.545416 1_555
Mo1_2 Se0_0 2.567330 1_555
Mo1_2 Se0_2 2.567595 1_555
Mo1_2 Se0_6 2.567597 1_555
Mo1_3 Se2_3 2.544939 1_555
Mo1_3 Se2_7 2.544941 1_555
Mo1_3 Se2_1 2.545416 1_555
Mo1_3 Se0_1 2.567330 1_555
Mo1_3 Se0_3 2.567595 1_555
Mo1_3 Se0_7 2.567597 1_555
Mo1_4 Se2_4 2.544939 1_555
Mo1_4 Se2_0 2.544941 1_655
Mo1_4 Se2_6 2.545416 1_545
Mo1_4 Se0_6 2.567330 1_545
Mo1_4 Se0_4 2.567595 1_555
Mo1_4 Se0_0 2.567597 1_655
Mo1_5 Se2_5 2.544939 1_555
Mo1_5 Se2_1 2.544941 1_655
Mo1_5 Se2_7 2.545416 1_545
Mo1_5 Se0_7 2.567330 1_545
Mo1_5 Se0_5 2.567595 1_555
Mo1_5 Se0_1 2.567597 1_655
Mo1_6 Se2_6 2.544939 1_555
Mo1_6 Se2_2 2.544941 1_655
Mo1_6 Se2_4 2.545416 1_555
Mo1_6 Se0_4 2.567330 1_555
Mo1_6 Se0_6 2.567595 1_555
Mo1_6 Se0_2 2.567597 1_655
Mo1_7 Se2_7 2.544939 1_555
Mo1_7 Se2_3 2.544941 1_655
Mo1_7 Se2_5 2.545416 1_555
Mo1_7 Se0_5 2.567330 1_555
Mo1_7 Se0_7 2.567595 1_555
Mo1_7 Se0_3 2.567597 1_655
Se1_0 W1_0 2.555277 1_555
Se1_0 W1_4 2.555284 1_455
Se1_0 W1_2 2.555535 1_555
Se1_1 W1_1 2.555277 1_555
Se1_1 W1_5 2.555284 1_455
Se1_1 W1_3 2.555535 1_555
Se1_2 W1_2 2.555277 1_555
Se1_2 W1_6 2.555284 1_455
Se1_2 W1_0 2.555535 1_565
Se1_3 W1_3 2.555277 1_555
Se1_3 W1_7 2.555284 1_455
Se1_3 W1_1 2.555535 1_565
Se1_4 W1_4 2.555277 1_555
Se1_4 W1_0 2.555284 1_555
Se1_4 W1_6 2.555535 1_555
Se1_5 W1_5 2.555277 1_555
Se1_5 W1_1 2.555284 1_555
Se1_5 W1_7 2.555535 1_555
Se1_6 W1_6 2.555277 1_555
Se1_6 W1_2 2.555284 1_555
Se1_6 W1_4 2.555535 1_565
Se1_7 W1_7 2.555277 1_555
Se1_7 W1_3 2.555284 1_555
Se1_7 W1_5 2.555535 1_565
Se3_0 W1_0 2.555837 1_555
Se3_0 W1_2 2.555842 1_555
Se3_0 W1_4 2.555843 1_455
Se3_1 W1_1 2.555837 1_555
Se3_1 W1_3 2.555842 1_555
Se3_1 W1_5 2.555843 1_455
Se3_2 W1_2 2.555837 1_555
Se3_2 W1_0 2.555842 1_565
Se3_2 W1_6 2.555843 1_455
Se3_3 W1_3 2.555837 1_555
Se3_3 W1_1 2.555842 1_565
Se3_3 W1_7 2.555843 1_455
Se3_4 W1_4 2.555837 1_555
Se3_4 W1_6 2.555842 1_555
Se3_4 W1_0 2.555843 1_555
Se3_5 W1_5 2.555837 1_555
Se3_5 W1_7 2.555842 1_555
Se3_5 W1_1 2.555843 1_555
Se3_6 W1_6 2.555837 1_555
Se3_6 W1_4 2.555842 1_565
Se3_6 W1_2 2.555843 1_555
Se3_7 W1_7 2.555837 1_555
Se3_7 W1_5 2.555842 1_565
Se3_7 W1_3 2.555843 1_555
S0_0 W0_4 2.457058 1_555
S0_0 W0_0 2.457062 1_555
S0_0 W0_2 2.457157 1_545
S0_1 W0_5 2.457058 1_555
S0_1 W0_1 2.457062 1_555
S0_1 W0_3 2.457157 1_545
S0_2 W0_6 2.457058 1_555
S0_2 W0_2 2.457062 1_555
S0_2 W0_0 2.457157 1_555
S0_3 W0_7 2.457058 1_555
S0_3 W0_3 2.457062 1_555
S0_3 W0_1 2.457157 1_555
S0_4 W0_0 2.457058 1_655
S0_4 W0_4 2.457062 1_555
S0_4 W0_6 2.457157 1_545
S0_5 W0_1 2.457058 1_655
S0_5 W0_5 2.457062 1_555
S0_5 W0_7 2.457157 1_545
S0_6 W0_2 2.457058 1_655
S0_6 W0_6 2.457062 1_555
S0_6 W0_4 2.457157 1_555
S0_7 W0_3 2.457058 1_655
S0_7 W0_7 2.457062 1_555
S0_7 W0_5 2.457157 1_555
S1_0 W0_2 2.453182 1_545
S1_0 W0_0 2.453379 1_555
S1_0 W0_4 2.453381 1_555
S1_1 W0_3 2.453182 1_545
S1_1 W0_1 2.453379 1_555
S1_1 W0_5 2.453381 1_555
S1_2 W0_0 2.453182 1_555
S1_2 W0_2 2.453379 1_555
S1_2 W0_6 2.453381 1_555
S1_3 W0_1 2.453182 1_555
S1_3 W0_3 2.453379 1_555
S1_3 W0_7 2.453381 1_555
S1_4 W0_6 2.453182 1_545
S1_4 W0_4 2.453379 1_555
S1_4 W0_0 2.453381 1_655
S1_5 W0_7 2.453182 1_545
S1_5 W0_5 2.453379 1_555
S1_5 W0_1 2.453381 1_655
S1_6 W0_4 2.453182 1_555
S1_6 W0_6 2.453379 1_555
S1_6 W0_2 2.453381 1_655
S1_7 W0_5 2.453182 1_555
S1_7 W0_7 2.453379 1_555
S1_7 W0_3 2.453381 1_655
