# generated using pymatgen
data_TlRe3(Se2Cl)2
_symmetry_space_group_name_H-M   'P 1'
_cell_length_a   6.68562900
_cell_length_b   9.11220428
_cell_length_c   9.16449947
_cell_angle_alpha   85.22973866
_cell_angle_beta   82.56066599
_cell_angle_gamma   69.43763901
_symmetry_Int_Tables_number   1
_chemical_formula_structural   TlRe3(Se2Cl)2
_chemical_formula_sum   'Tl2 Re6 Se8 Cl4'
_cell_volume   517.91186054
_cell_formula_units_Z   2
loop_
 _symmetry_equiv_pos_site_id
 _symmetry_equiv_pos_as_xyz
  1  'x, y, z'
loop_
 _atom_site_type_symbol
 _atom_site_label
 _atom_site_symmetry_multiplicity
 _atom_site_fract_x
 _atom_site_fract_y
 _atom_site_fract_z
 _atom_site_occupancy
  Tl  Tl0  1  0.17880400  0.64039900  0.46921300  1
  Tl  Tl1  1  0.82119600  0.35960100  0.53078700  1
  Re  Re0  1  0.27282500  0.92390900  0.02207300  1
  Re  Re1  1  0.32557100  0.17837600  0.10432600  1
  Re  Re2  1  0.67442900  0.82162400  0.89567400  1
  Re  Re3  1  0.40847900  0.10236200  0.82083700  1
  Re  Re4  1  0.59152100  0.89763800  0.17916300  1
  Re  Re5  1  0.72717500  0.07609100  0.97792700  1
  Se  Se0  1  0.97456700  0.78991300  0.05504400  1
  Se  Se1  1  0.53572000  0.65712500  0.09436900  1
  Se  Se2  1  0.36025800  0.85178200  0.75437400  1
  Se  Se3  1  0.46428000  0.34287500  0.90563100  1
  Se  Se4  1  0.20207600  0.99519000  0.29138400  1
  Se  Se5  1  0.79792400  0.00481000  0.70861600  1
  Se  Se6  1  0.63974200  0.14821800  0.24562600  1
  Se  Se7  1  0.02543300  0.21008700  0.94495600  1
  Cl  Cl0  1  0.09737500  0.41062600  0.23904900  1
  Cl  Cl1  1  0.70483600  0.76102000  0.41296700  1
  Cl  Cl2  1  0.90262500  0.58937400  0.76095100  1
  Cl  Cl3  1  0.29516400  0.23898000  0.58703300  1
loop_
_geom_bond_atom_site_label_1
_geom_bond_atom_site_label_2
_geom_bond_distance
_geom_bond_site_symmetry_2
Re0 Se2 2.533657 1_554
Re0 Se1 2.543654 1_555
Re0 Se4 2.546693 1_555
Re0 Se7 2.646072 1_564
Re0 Se0 2.655417 1_455
Re1 Se6 2.530591 1_555
Re1 Se3 2.551050 1_554
Re1 Se7 2.554332 1_554
Re1 Se4 2.555868 1_545
Re2 Se2 2.530591 1_555
Re2 Se1 2.551050 1_556
Re2 Se0 2.554332 1_556
Re2 Se5 2.555868 1_565
Re3 Se5 2.541632 1_555
Re3 Se3 2.545357 1_555
Re3 Se7 2.545823 1_555
Re3 Se2 2.547119 1_545
Re4 Se4 2.541632 1_555
Re4 Se1 2.545357 1_555
Re4 Se0 2.545823 1_555
Re4 Se6 2.547119 1_565
Re5 Se6 2.533657 1_556
Re5 Se3 2.543654 1_555
Re5 Se5 2.546693 1_555
Re5 Se0 2.646072 1_546
Re5 Se7 2.655417 1_655
Cl0 Re1 2.451433 1_555
Cl0 Tl1 3.145112 1_455
Cl1 Re4 2.455411 1_555
Cl1 Tl0 3.065468 1_655
Cl2 Re2 2.451433 1_555
Cl2 Tl0 3.145112 1_655
Cl3 Re3 2.455411 1_555
Cl3 Tl1 3.065468 1_455
