# generated using pymatgen
data_KFeCl4
_symmetry_space_group_name_H-M   'P 1'
_cell_length_a   10.37092652
_cell_length_b   7.35360720
_cell_length_c   9.26629111
_cell_angle_alpha   85.45335084
_cell_angle_beta   89.99919970
_cell_angle_gamma   90.00302272
_symmetry_Int_Tables_number   1
_chemical_formula_structural   KFeCl4
_chemical_formula_sum   'K4 Fe4 Cl16'
_cell_volume   704.45798875
_cell_formula_units_Z   4
loop_
 _symmetry_equiv_pos_site_id
 _symmetry_equiv_pos_as_xyz
  1  'x, y, z'
loop_
 _atom_site_type_symbol
 _atom_site_label
 _atom_site_symmetry_multiplicity
 _atom_site_fract_x
 _atom_site_fract_y
 _atom_site_fract_z
 _atom_site_occupancy
  K  K0  1  0.08640782  0.42194653  0.05008442  1
  K  K1  1  0.58642636  0.57811955  0.94987586  1
  K  K2  1  0.69628744  0.07158853  0.44471155  1
  K  K3  1  0.19634423  0.92841325  0.55525504  1
  Fe  Fe0  1  0.94090935  0.50978199  0.56629799  1
  Fe  Fe1  1  0.44090448  0.49017595  0.43371317  1
  Fe  Fe2  1  0.84358862  0.99244524  0.93420690  1
  Fe  Fe3  1  0.34358823  0.00756190  0.06578468  1
  Cl  Cl0  1  0.61158556  0.46487143  0.29528548  1
  Cl  Cl1  1  0.42189722  0.22344121  0.55847311  1
  Cl  Cl2  1  0.97155185  0.29102475  0.42081626  1
  Cl  Cl3  1  0.47152425  0.70894288  0.57918726  1
  Cl  Cl4  1  0.17608606  0.03220328  0.20869270  1
  Cl  Cl5  1  0.67609839  0.96780626  0.79131738  1
  Cl  Cl6  1  0.52045481  0.93436546  0.18628294  1
  Cl  Cl7  1  0.02046764  0.06563257  0.81372198  1
  Cl  Cl8  1  0.31045247  0.79275920  0.91729580  1
  Cl  Cl9  1  0.76648145  0.44385920  0.69274584  1
  Cl  Cl10  1  0.36425447  0.27588555  0.94399021  1
  Cl  Cl11  1  0.86424392  0.72414334  0.05604181  1
  Cl  Cl12  1  0.81046504  0.20723968  0.08270489  1
  Cl  Cl13  1  0.11159664  0.53511636  0.70472453  1
  Cl  Cl14  1  0.26650026  0.55614550  0.30725925  1
  Cl  Cl15  1  0.92188142  0.77653041  0.44153194  1
loop_
_geom_bond_atom_site_label_1
_geom_bond_atom_site_label_2
_geom_bond_distance
_geom_bond_site_symmetry_2
Cl0 Fe1 2.202525 1_555
Cl0 K2 3.227727 1_555
Cl0 K1 3.253203 1_554
Cl1 Fe1 2.205248 1_555
Cl1 K3 3.192061 1_545
Cl1 K2 3.262352 1_555
Cl2 Fe0 2.202254 1_555
Cl2 K2 3.278005 1_555
Cl2 K0 3.690869 1_655
Cl3 Fe1 2.202209 1_555
Cl3 K3 3.277529 1_555
Cl3 K1 3.690587 1_555
Cl4 Fe3 2.200483 1_555
Cl4 K3 3.248210 1_545
Cl4 K0 3.251401 1_555
Cl5 Fe2 2.200292 1_555
Cl5 K2 3.248534 1_565
Cl5 K1 3.250756 1_555
Cl6 Fe3 2.192232 1_565
Cl6 K2 3.234359 1_565
Cl6 K1 3.611049 1_554
Cl7 Fe2 2.192192 1_445
Cl7 K3 3.234899 1_545
Cl7 K0 3.611059 1_556
Cl8 Fe3 2.202475 1_566
Cl8 K1 3.270934 1_555
Cl8 K0 3.716950 1_556
Cl9 Fe0 2.188627 1_555
Cl9 K1 3.242177 1_555
Cl10 Fe3 2.204505 1_556
Cl10 K1 3.204717 1_555
Cl10 K0 3.254378 1_556
Cl11 Fe2 2.204546 1_554
Cl11 K0 3.204683 1_655
Cl11 K1 3.254156 1_554
Cl12 Fe2 2.202486 1_544
Cl12 K0 3.270754 1_655
Cl12 K1 3.717565 1_554
Cl13 Fe0 2.202612 1_455
Cl13 K3 3.227995 1_555
Cl13 K0 3.252667 1_556
Cl14 Fe1 2.188584 1_555
Cl14 K0 3.242530 1_555
Cl15 Fe0 2.205400 1_555
Cl15 K2 3.192668 1_565
Cl15 K3 3.262889 1_655
