# generated using pymatgen
data_Na2O2
_symmetry_space_group_name_H-M   'P 1'
_cell_length_a   6.13536778
_cell_length_b   6.13536773
_cell_length_c   4.42487033
_cell_angle_alpha   90.00000000
_cell_angle_beta   90.00000000
_cell_angle_gamma   120.00000028
_symmetry_Int_Tables_number   1
_chemical_formula_structural   Na2O2
_chemical_formula_sum   'Na6 O6'
_cell_volume   144.24885607
_cell_formula_units_Z   3
loop_
 _symmetry_equiv_pos_site_id
 _symmetry_equiv_pos_as_xyz
  1  'x, y, z'
loop_
 _atom_site_type_symbol
 _atom_site_label
 _atom_site_symmetry_multiplicity
 _atom_site_fract_x
 _atom_site_fract_y
 _atom_site_fract_z
 _atom_site_occupancy
  Na  Na0  1  -0.00000000  0.70003756  0.50000000  1
  Na  Na1  1  0.29996244  0.29996244  0.50000000  1
  Na  Na2  1  0.70003756  0.00000000  0.50000000  1
  Na  Na3  1  -0.00000000  0.36572569  -0.00000000  1
  Na  Na4  1  0.63427431  0.63427431  -0.00000000  1
  Na  Na5  1  0.36572569  0.00000000  -0.00000000  1
  O  O0  1  0.66666700  0.33333300  0.32555400  1
  O  O1  1  0.66666700  0.33333300  0.67444600  1
  O  O2  1  0.33333300  0.66666700  0.67444600  1
  O  O3  1  0.33333300  0.66666700  0.32555400  1
  O  O4  1  -0.00000000  0.00000000  0.82767284  1
  O  O5  1  -0.00000000  0.00000000  0.17232716  1
loop_
_geom_bond_atom_site_label_1
_geom_bond_atom_site_label_2
_geom_bond_distance
_geom_bond_site_symmetry_2
Na0 O2 2.288883 1_555
Na0 O3 2.288883 1_555
Na0 O0 2.288887 1_455
Na0 O1 2.288887 1_455
Na0 O5 2.342912 1_565
Na0 O4 2.342912 1_565
Na1 O2 2.288889 1_555
Na1 O3 2.288889 1_555
Na1 O1 2.288889 1_555
Na1 O0 2.288889 1_555
Na1 O4 2.342912 1_555
Na1 O5 2.342912 1_555
Na2 O1 2.288883 1_555
Na2 O0 2.288883 1_555
Na2 O3 2.288887 1_545
Na2 O2 2.288887 1_545
Na2 O4 2.342912 1_655
Na2 O5 2.342912 1_655
Na3 O5 2.369886 1_555
Na3 O4 2.369886 1_554
Na3 O1 2.427078 1_454
Na3 O0 2.427078 1_455
Na3 O2 2.427080 1_554
Na3 O3 2.427080 1_555
Na4 O5 2.369886 1_665
Na4 O4 2.369886 1_664
Na4 O0 2.427082 1_555
Na4 O1 2.427082 1_554
Na4 O2 2.427082 1_554
Na4 O3 2.427082 1_555
Na5 O5 2.369886 1_555
Na5 O4 2.369886 1_554
Na5 O3 2.427078 1_545
Na5 O2 2.427078 1_544
Na5 O1 2.427080 1_554
Na5 O0 2.427080 1_555
O0 O1 1.543802 1_555
O2 O3 1.543802 1_555
O4 O5 1.525051 1_556
