# generated using pymatgen
data_MgMn6O7F5
_symmetry_space_group_name_H-M   'P 1'
_cell_length_a   5.22127203
_cell_length_b   5.16536240
_cell_length_c   9.11111250
_cell_angle_alpha   89.36767755
_cell_angle_beta   91.55704487
_cell_angle_gamma   102.65971380
_symmetry_Int_Tables_number   1
_chemical_formula_structural   MgMn6O7F5
_chemical_formula_sum   'Mg1 Mn6 O7 F5'
_cell_volume   239.65892373
_cell_formula_units_Z   1
loop_
 _symmetry_equiv_pos_site_id
 _symmetry_equiv_pos_as_xyz
  1  'x, y, z'
loop_
 _atom_site_type_symbol
 _atom_site_label
 _atom_site_symmetry_multiplicity
 _atom_site_fract_x
 _atom_site_fract_y
 _atom_site_fract_z
 _atom_site_occupancy
  Mg  Mg0  1  0.05305223  0.51329173  0.03232418  1
  Mn  Mn0  1  -0.01519090  0.99159164  -0.01284203  1
  Mn  Mn1  1  0.00487967  0.03030047  0.32942600  1
  Mn  Mn2  1  0.97618705  0.02164221  0.64587428  1
  Mn  Mn3  1  0.50265396  0.49683507  0.82035661  1
  Mn  Mn4  1  0.55053909  0.37776769  0.16512393  1
  Mn  Mn5  1  0.50326241  0.48676062  0.50107322  1
  O  O0  1  0.12073263  0.87396397  0.49651699  1
  O  O1  1  0.29529074  0.29220278  0.98009412  1
  O  O2  1  0.30549900  0.31797546  0.33421949  1
  O  O3  1  0.28900220  0.31995852  0.66083024  1
  O  O4  1  0.72410412  0.65256636  0.99306978  1
  O  O5  1  0.67891925  0.70890264  0.66235092  1
  O  O6  1  0.85967126  0.18567124  0.14425460  1
  F  F0  1  0.17992218  0.80641367  0.16420706  1
  F  F1  1  0.17712536  0.77856485  0.86365365  1
  F  F2  1  0.69367905  0.70702791  0.32853770  1
  F  F3  1  0.77902962  0.22251916  0.48309766  1
  F  F4  1  0.82164508  0.18826599  0.81497260  1
loop_
_geom_bond_atom_site_label_1
_geom_bond_atom_site_label_2
_geom_bond_distance
_geom_bond_site_symmetry_2
Mg0 O1 1.951447 1_554
Mg0 O4 2.024323 1_454
Mg0 O6 2.047491 1_455
Mn0 O6 1.962188 1_465
Mn0 O4 1.969650 1_454
Mn0 O1 1.985785 1_564
Mn1 O0 1.863492 1_545
Mn1 O2 1.910240 1_555
Mn1 O6 2.057323 1_455
Mn2 O0 1.826019 1_645
Mn2 O5 1.987326 1_545
Mn2 O3 1.987465 1_655
Mn3 O3 1.919937 1_555
Mn3 O5 1.927356 1_555
Mn3 O1 1.989396 1_555
Mn3 O4 1.995398 1_555
Mn4 O2 2.007317 1_555
Mn4 O6 2.085364 1_555
Mn4 O1 2.109423 1_554
Mn4 O4 2.181214 1_554
Mn5 O2 1.920090 1_555
Mn5 O3 1.936711 1_555
Mn5 O5 1.954401 1_555
F0 Mg0 1.931934 1_555
F0 Mn0 2.204230 1_555
F0 Mn1 2.239457 1_565
F1 Mn0 2.014531 1_556
F1 Mg0 2.068195 1_556
F1 Mn3 2.509080 1_555
F1 Mn2 2.650206 1_465
F2 Mn1 2.058850 1_665
F2 Mn5 2.074550 1_555
F2 Mn4 2.259679 1_555
F3 Mn2 2.164964 1_555
F3 Mn5 2.200484 1_555
F3 Mn1 2.229422 1_655
F4 Mn2 2.041265 1_555
F4 Mn0 2.119078 1_646
F4 Mn3 2.546882 1_555
