# generated using pymatgen
data_Na5In3Si3Ge(SO8)3
_symmetry_space_group_name_H-M   'P 1'
_cell_length_a   9.09585268
_cell_length_b   9.02075023
_cell_length_c   22.65274677
_cell_angle_alpha   91.82394374
_cell_angle_beta   89.92181416
_cell_angle_gamma   119.99048577
_symmetry_Int_Tables_number   1
_chemical_formula_structural   Na5In3Si3Ge(SO8)3
_chemical_formula_sum   'Na15 In9 Si9 Ge3 S9 O72'
_cell_volume   1608.78423660
_cell_formula_units_Z   3
loop_
 _symmetry_equiv_pos_site_id
 _symmetry_equiv_pos_as_xyz
  1  'x, y, z'
loop_
 _atom_site_type_symbol
 _atom_site_label
 _atom_site_symmetry_multiplicity
 _atom_site_fract_x
 _atom_site_fract_y
 _atom_site_fract_z
 _atom_site_occupancy
  Na  Na0  1  0.64687893  0.00802572  0.25669286  1
  Na  Na1  1  0.00157533  0.62317090  0.24748791  1
  Na  Na2  1  0.63845341  0.64270099  0.74355545  1
  Na  Na3  1  0.36263365  0.01175047  0.75898728  1
  Na  Na4  1  0.66502896  0.95039575  0.58523019  1
  Na  Na5  1  0.97789836  0.68147418  0.92217439  1
  Na  Na6  1  0.69983777  0.02507546  0.91459728  1
  Na  Na7  1  0.97014996  0.30984942  0.40894716  1
  Na  Na8  1  0.70163964  0.68442289  0.42679716  1
  Na  Na9  1  0.00777080  0.98121735  0.50209791  1
  Na  Na10  1  0.01151209  0.99058991  0.99750580  1
  Na  Na11  1  0.65123510  0.32451811  0.83250412  1
  Na  Na12  1  0.66361926  0.32104834  0.33542386  1
  Na  Na13  1  0.29884504  0.63117369  0.16004285  1
  Na  Na14  1  0.32553228  0.63148285  0.66910639  1
  In  In0  1  0.99559856  0.00024834  0.35177581  1
  In  In1  1  0.00623783  0.01103628  0.84989087  1
  In  In2  1  0.99425875  -0.00002463  0.65218105  1
  In  In3  1  0.99906953  0.99637060  0.14154271  1
  In  In4  1  0.65670471  0.33503728  0.68636681  1
  In  In5  1  0.68412118  0.33860205  0.17928121  1
  In  In6  1  0.32988311  0.67594087  0.01685422  1
  In  In7  1  0.33824810  0.67316143  0.51599013  1
  In  In8  1  0.32148681  0.66656341  0.32191365  1
  Si  Si0  1  0.00481837  0.29644689  0.25003964  1
  Si  Si1  1  0.29109015  0.30595653  0.75254366  1
  Si  Si2  1  0.69961402  0.00260267  0.75151846  1
  Si  Si3  1  0.66739132  0.62591288  0.58335558  1
  Si  Si4  1  0.95935782  0.62384931  0.08090918  1
  Si  Si5  1  0.62919957  0.66806776  0.91875016  1
  Si  Si6  1  0.33993246  0.96624617  0.91786506  1
  Si  Si7  1  0.63092022  0.97586332  0.42020994  1
  Si  Si8  1  0.03156434  0.66754475  0.41835409  1
  Ge  Ge0  1  0.64779418  0.35204610  0.97796177  1
  Ge  Ge1  1  0.69091597  0.35071581  0.48133223  1
  Ge  Ge2  1  0.38059504  0.68655677  0.81683172  1
  S  S0  1  0.29907974  0.00397395  0.24873175  1
  S  S1  1  0.69520033  0.69720037  0.24996571  1
  S  S2  1  0.00882157  0.70168683  0.75138132  1
  S  S3  1  0.95788160  0.33573642  0.58074270  1
  S  S4  1  0.37291262  0.04521801  0.58110505  1
  S  S5  1  0.66528146  0.03602608  0.08162353  1
  S  S6  1  0.37905767  0.33284687  0.08109277  1
  S  S7  1  0.03715721  0.37806815  0.91681591  1
  S  S8  1  0.34334011  0.36852927  0.41763214  1
  O  O0  1  0.22169780  0.02314424  0.30370618  1
  O  O1  1  0.79998300  0.76830819  0.30563072  1
  O  O2  1  0.97333065  0.18963366  0.31075378  1
  O  O3  1  0.21830678  0.16901432  0.80419157  1
  O  O4  1  0.97257365  0.77315903  0.80581114  1
  O  O5  1  0.80235136  0.02256493  0.81214026  1
  O  O6  1  0.76640375  0.94924363  0.69155214  1
  O  O7  1  0.18236840  0.22721594  0.69052130  1
  O  O8  1  0.03534102  0.80977220  0.69958630  1
  O  O9  1  0.78296923  0.80322792  0.19941286  1
  O  O10  1  0.02064239  0.19490180  0.19242477  1
  O  O11  1  0.18956725  0.97109006  0.19634133  1
  O  O12  1  0.87211864  0.35201942  0.63302194  1
  O  O13  1  0.46771229  0.11602680  0.63808052  1
  O  O14  1  0.65440026  0.53045315  0.64355014  1
  O  O15  1  0.88779291  0.54180757  0.14509927  1
  O  O16  1  0.64665680  0.10898352  0.13994473  1
  O  O17  1  0.47633688  0.34629138  0.13497603  1
  O  O18  1  0.45982347  0.30580516  0.02591401  1
  O  O19  1  0.82293016  0.50824554  0.02304118  1
  O  O20  1  0.67091851  0.13834574  0.03135940  1
  O  O21  1  0.46804584  0.14881818  0.53039922  1
  O  O22  1  0.68050529  0.51689967  0.52258614  1
  O  O23  1  0.85300952  0.31209447  0.52434495  1
  O  O24  1  0.53980486  0.70049420  0.97428161  1
  O  O25  1  0.13054777  0.44731883  0.97296488  1
  O  O26  1  0.28760038  0.84261259  0.97212232  1
  O  O27  1  0.55754672  0.84726280  0.47450400  1
  O  O28  1  0.30958750  0.44328107  0.47100379  1
  O  O29  1  0.14560178  0.68512327  0.47471707  1
  O  O30  1  0.08954474  0.61122828  0.35700761  1
  O  O31  1  0.52414297  0.89701067  0.35737203  1
  O  O32  1  0.37368609  0.47673124  0.36545975  1
  O  O33  1  0.12566368  0.48359669  0.86604997  1
  O  O34  1  0.38386488  0.87309893  0.85776509  1
  O  O35  1  0.52076418  0.63684370  0.85600936  1
  O  O36  1  0.99712305  0.82755389  0.41249111  1
  O  O37  1  0.82652626  0.01226143  0.41514286  1
  O  O38  1  0.19236160  0.19658010  0.41044066  1
  O  O39  1  0.00439548  0.19891941  0.91333291  1
  O  O40  1  0.17732634  0.98869506  0.90782222  1
  O  O41  1  0.82197248  0.83065715  0.91321822  1
  O  O42  1  0.96505990  0.17468910  0.58020750  1
  O  O43  1  0.20371515  0.02991220  0.58301804  1
  O  O44  1  0.83908327  0.81893151  0.58202269  1
  O  O45  1  0.97144467  0.81233909  0.07914989  1
  O  O46  1  0.82577984  0.02984794  0.08144971  1
  O  O47  1  0.20883021  0.17797812  0.08061476  1
  O  O48  1  0.66145027  0.16029692  0.74545131  1
  O  O49  1  0.48987466  0.34703729  0.74875299  1
  O  O50  1  0.85866256  0.52888179  0.74400332  1
  O  O51  1  0.66826795  0.52089601  0.24456744  1
  O  O52  1  0.82771206  0.31268108  0.24809638  1
  O  O53  1  0.47056579  0.15839006  0.24411907  1
  O  O54  1  0.64613764  0.49018935  0.92186505  1
  O  O55  1  0.86469679  0.36636684  0.91863983  1
  O  O56  1  0.52741456  0.15494435  0.92880626  1
  O  O57  1  0.64522644  0.16805515  0.43170985  1
  O  O58  1  0.49935066  0.35513371  0.42306152  1
  O  O59  1  0.83541072  0.49121321  0.42503799  1
  O  O60  1  0.36919805  0.49028394  0.07790503  1
  O  O61  1  0.14231829  0.63393608  0.07712036  1
  O  O62  1  0.51673656  0.86120503  0.08096440  1
  O  O63  1  0.35769979  0.87209681  0.57818746  1
  O  O64  1  0.49910957  0.64923003  0.57833279  1
  O  O65  1  0.12747025  0.48741970  0.57748627  1
  O  O66  1  0.32201059  0.84999221  0.25126665  1
  O  O67  1  0.53118753  0.69406000  0.25560499  1
  O  O68  1  0.17040477  0.49221990  0.25235844  1
  O  O69  1  0.30425303  0.49869151  0.76440035  1
  O  O70  1  0.16647891  0.69314283  0.75764053  1
  O  O71  1  0.50515697  0.82277681  0.75635536  1
loop_
_geom_bond_atom_site_label_1
_geom_bond_atom_site_label_2
_geom_bond_distance
_geom_bond_site_symmetry_2
Na0 O52 2.410444 1_555
Na0 O67 2.479008 1_545
Na0 O31 2.543890 1_545
Na0 O66 2.560794 1_545
Na0 O53 2.587152 1_555
Na0 O16 2.824684 1_555
Na0 O2 2.831911 1_555
Na0 O9 2.959416 1_545
Na1 O68 2.363908 1_555
Na1 O52 2.433146 1_455
Na1 O15 2.475510 1_455
Na1 O66 2.591630 1_555
Na1 O30 2.629722 1_555
Na1 O51 2.692076 1_455
Na2 O49 2.317299 1_555
Na2 O71 2.476054 1_555
Na2 O14 2.485608 1_555
Na2 O50 2.668880 1_555
Na2 O69 2.690440 1_555
Na2 O6 2.715710 1_555
Na2 O35 2.753635 1_555
Na2 O4 2.990069 1_555
Na3 O48 2.379059 1_555
Na3 O70 2.512517 1_545
Na3 O3 2.559330 1_555
Na3 O71 2.606275 1_545
Na3 O34 2.651273 1_545
Na3 O49 2.661858 1_555
Na3 O8 2.902618 1_545
Na3 O13 2.925373 1_555
Na4 O64 2.357428 1_555
Na4 O44 2.406084 1_555
Na4 O42 2.459280 1_565
Na4 O63 2.521681 1_555
Na4 O6 2.582323 1_555
Na4 O27 2.657351 1_555
Na5 O41 2.406232 1_555
Na5 O40 2.471166 1_655
Na5 O55 2.491226 1_555
Na5 O54 2.622488 1_555
Na5 O26 2.671899 1_655
Na5 O19 2.768762 1_556
Na5 O4 2.795313 1_555
Na6 O56 2.397321 1_555
Na6 O39 2.407030 1_655
Na6 O41 2.501023 1_545
Na6 O5 2.503710 1_555
Na6 O55 2.665060 1_555
Na6 O34 2.784915 1_545
Na6 O20 2.864250 1_556
Na6 O24 2.916437 1_545
Na7 O37 2.334576 1_555
Na7 O2 2.449941 1_555
Na7 O59 2.505357 1_555
Na7 O57 2.625889 1_555
Na7 O38 2.682805 1_655
Na7 O30 2.683909 1_655
Na7 O23 2.824833 1_555
Na8 O36 2.356002 1_555
Na8 O59 2.575910 1_555
Na8 O58 2.595503 1_555
Na8 O37 2.606999 1_565
Na8 O27 2.619782 1_555
Na8 O22 2.635566 1_555
Na8 O1 2.890546 1_555
Na8 O32 2.932157 1_555
Na9 O44 2.385565 1_455
Na9 O36 2.395472 1_455
Na9 O43 2.429937 1_565
Na9 O42 2.609022 1_465
Na9 O37 2.679874 1_465
Na9 O38 2.809019 1_565
Na10 O45 2.395929 1_456
Na10 O41 2.458934 1_455
Na10 O47 2.529155 1_566
Na10 O40 2.533286 1_555
Na10 O46 2.672426 1_466
Na10 O39 2.742564 1_565
Na11 O48 2.458261 1_555
Na11 O49 2.474870 1_555
Na11 O54 2.491933 1_555
Na11 O56 2.617395 1_555
Na11 O55 2.636341 1_555
Na11 O50 2.779423 1_555
Na12 O52 2.498361 1_555
Na12 O59 2.516202 1_555
Na12 O57 2.578737 1_555
Na12 O58 2.584676 1_555
Na12 O53 2.599086 1_555
Na12 O51 2.765413 1_555
Na13 O61 2.366830 1_555
Na13 O68 2.450590 1_555
Na13 O60 2.479123 1_555
Na13 O66 2.745311 1_555
Na13 O62 2.749232 1_555
Na13 O67 2.865307 1_555
Na14 O69 2.462500 1_555
Na14 O64 2.550687 1_555
Na14 O71 2.554719 1_555
Na14 O65 2.596125 1_555
Na14 O70 2.673972 1_555
Na14 O63 2.947303 1_555
In0 O2 2.066561 1_555
In0 O36 2.115825 1_545
In0 O37 2.141940 1_555
In0 O1 2.186396 1_545
In0 O38 2.189446 1_655
In0 O0 2.245308 1_655
In1 O3 2.040517 1_555
In1 O5 2.093837 1_455
In1 O40 2.126135 1_545
In1 O39 2.193496 1_555
In1 O4 2.214266 1_445
In1 O41 2.220427 1_445
In2 O7 2.065976 1_655
In2 O6 2.091171 1_545
In2 O44 2.172933 1_545
In2 O8 2.235182 1_645
In2 O43 2.379441 1_655
In2 O42 2.407464 1_555
In3 O10 2.022933 1_665
In3 O45 2.061863 1_555
In3 O46 2.221849 1_565
In3 O11 2.239250 1_655
In3 O47 2.289319 1_665
In3 O9 2.309199 1_555
In4 O14 2.048039 1_555
In4 O49 2.111923 1_555
In4 O48 2.116699 1_555
In4 O13 2.127684 1_555
In4 O50 2.187872 1_555
In4 O12 2.242345 1_555
In5 O15 2.020702 1_555
In5 O16 2.092427 1_555
In5 O52 2.127114 1_555
In5 O17 2.173653 1_555
In5 O51 2.234677 1_555
In5 O53 2.358072 1_555
In6 O26 2.027644 1_554
In6 O24 2.052011 1_554
In6 O61 2.073230 1_555
In6 O25 2.159937 1_554
In6 O62 2.191654 1_555
In6 O60 2.364918 1_555
In7 O29 2.038672 1_555
In7 O27 2.070166 1_555
In7 O64 2.126664 1_555
In7 O28 2.175412 1_555
In7 O63 2.181542 1_555
In7 O65 2.313777 1_555
In8 O30 2.073626 1_555
In8 O31 2.105091 1_555
In8 O68 2.128850 1_555
In8 O32 2.247785 1_555
In8 O66 2.336604 1_555
In8 O67 2.344967 1_555
Ge0 O19 1.798539 1_556
Ge0 O54 1.813160 1_555
Ge0 O56 1.879136 1_555
Ge0 O18 1.894198 1_556
Ge0 O55 2.337501 1_555
Ge0 O20 2.403755 1_556
Ge1 O22 1.783841 1_555
Ge1 O57 1.830328 1_555
Ge1 O59 1.841985 1_555
Ge1 O23 1.945145 1_555
Ge1 O58 2.204347 1_555
Ge1 O21 2.256919 1_555
Ge2 O35 1.792836 1_555
Ge2 O71 1.838890 1_555
Ge2 O69 1.860776 1_555
Ge2 O34 1.882298 1_555
Ge2 O70 2.392130 1_555
Ge2 O33 2.418821 1_555
O0 S0 1.477066 1_555
O1 S1 1.500159 1_555
O2 Si0 1.646024 1_655
O3 Si1 1.614134 1_555
O4 S2 1.485071 1_655
O5 Si2 1.615870 1_555
O6 Si2 1.641484 1_565
O7 Si1 1.641488 1_555
O8 S2 1.490769 1_555
O9 S1 1.472211 1_555
O10 Si0 1.618136 1_555
O11 S0 1.474486 1_565
O12 S3 1.460671 1_555
O13 S4 1.489042 1_555
O14 Si3 1.608539 1_555
O15 Si4 1.634046 1_555
O16 S5 1.504239 1_555
O17 S6 1.474368 1_555
O18 S6 1.522762 1_555
O19 Si4 1.723220 1_555
O20 S5 1.473243 1_555
O21 S4 1.482792 1_555
O22 Si3 1.704971 1_555
O23 S3 1.539540 1_555
O24 Si5 1.593959 1_555
O25 S7 1.466800 1_555
O26 Si6 1.592473 1_555
O27 Si7 1.618161 1_555
O28 S8 1.471301 1_555
O29 Si8 1.599225 1_555
O30 Si8 1.639599 1_555
O31 Si7 1.650496 1_555
O32 S8 1.492935 1_555
O33 S7 1.475734 1_555
O34 Si6 1.726434 1_555
O35 Si5 1.665148 1_555
O36 Si8 1.632040 1_655
O37 Si7 1.644499 1_545
O38 S8 1.474248 1_555
O39 S7 1.489017 1_555
O40 Si6 1.607360 1_555
O41 Si5 1.637527 1_555
O42 S3 1.486152 1_555
O43 S4 1.475540 1_555
O44 Si3 1.660208 1_555
O45 Si4 1.649904 1_555
O46 S5 1.488505 1_555
O47 S6 1.478458 1_555
O48 Si2 1.633766 1_555
O49 Si1 1.657023 1_555
O50 S2 1.476118 1_655
O51 S1 1.484095 1_555
O52 Si0 1.689656 1_655
O53 S0 1.490284 1_555
O54 Si5 1.690511 1_555
O55 S7 1.519262 1_655
O56 Si6 1.714452 1_545
O57 Si7 1.684151 1_545
O58 S8 1.488716 1_555
O59 Si8 1.706984 1_655
O60 S6 1.471089 1_555
O61 Si4 1.622921 1_455
O62 S5 1.476884 1_565
O63 S4 1.496593 1_565
O64 Si3 1.650451 1_555
O65 S3 1.467379 1_455
O66 S0 1.506968 1_565
O67 S1 1.483293 1_555
O68 Si0 1.650835 1_555
O69 Si1 1.694554 1_555
O70 S2 1.481291 1_555
O71 Si2 1.707135 1_565
