# generated using pymatgen
data_MgMn4Cd2O8
_symmetry_space_group_name_H-M   'P 1'
_cell_length_a   6.35255588
_cell_length_b   6.35255540
_cell_length_c   6.37332809
_cell_angle_alpha   117.25984014
_cell_angle_beta   117.25996797
_cell_angle_gamma   91.36265425
_symmetry_Int_Tables_number   1
_chemical_formula_structural   MgMn4Cd2O8
_chemical_formula_sum   'Mg1 Mn4 Cd2 O8'
_cell_volume   194.15752632
_cell_formula_units_Z   1
loop_
 _symmetry_equiv_pos_site_id
 _symmetry_equiv_pos_as_xyz
  1  'x, y, z'
loop_
 _atom_site_type_symbol
 _atom_site_label
 _atom_site_symmetry_multiplicity
 _atom_site_fract_x
 _atom_site_fract_y
 _atom_site_fract_z
 _atom_site_occupancy
  Mg  Mg0  1  0.15907579  0.84092421  0.75000000  1
  Mn  Mn0  1  0.94485550  0.05160149  0.46974697  1
  Mn  Mn1  1  0.94839851  0.05514451  0.03025303  1
  Mn  Mn2  1  0.01677692  0.51109021  0.01207066  1
  Mn  Mn3  1  0.48890979  0.98322308  0.48792934  1
  Cd  Cd0  1  0.58146405  0.41853595  0.25000000  1
  Cd  Cd1  1  0.46640067  0.53359932  0.75000000  1
  O  O0  1  0.83905173  0.76584500  0.05905153  1
  O  O1  1  0.69550987  0.23772790  0.50165471  1
  O  O2  1  0.25053034  0.70259819  0.98937291  1
  O  O3  1  0.17959883  0.21856790  0.94156867  1
  O  O4  1  0.29740181  0.74946966  0.51062609  1
  O  O5  1  0.23415400  0.16094827  0.44094747  1
  O  O6  1  0.78143310  0.82040117  0.55843233  1
  O  O7  1  0.76227210  0.30449014  0.99834629  1
loop_
_geom_bond_atom_site_label_1
_geom_bond_atom_site_label_2
_geom_bond_distance
_geom_bond_site_symmetry_2
Mg0 O2 1.969147 1_555
Mg0 O4 1.969155 1_555
Mg0 O6 2.102147 1_455
Mg0 O3 2.102155 1_565
Mn0 O1 2.027872 1_555
Mn0 O5 2.063672 1_655
Mn0 O0 2.139167 1_545
Mn0 O6 2.186279 1_545
Mn0 O3 2.299234 1_655
Mn1 O7 2.027870 1_554
Mn1 O0 2.063674 1_545
Mn1 O5 2.139158 1_655
Mn1 O3 2.186278 1_654
Mn1 O6 2.299231 1_544
Mn2 O0 1.983945 1_455
Mn2 O2 1.994506 1_554
Mn2 O7 2.002103 1_454
Mn2 O3 2.115933 1_554
Mn2 O4 2.417083 1_555
Mn2 O1 2.517520 1_454
Mn3 O5 1.983949 1_565
Mn3 O4 1.994501 1_555
Mn3 O1 2.002099 1_565
Mn3 O6 2.115937 1_555
Mn3 O2 2.417088 1_554
Mn3 O7 2.517525 1_565
Cd0 O3 2.226258 1_554
Cd0 O6 2.226261 1_555
Cd0 O7 2.253719 1_554
Cd0 O1 2.253721 1_555
Cd1 O0 2.135610 1_556
Cd1 O5 2.135613 1_555
Cd1 O2 2.417998 1_555
Cd1 O4 2.417999 1_555
