# generated using pymatgen
data_MgFe12(OF)12
_symmetry_space_group_name_H-M   'P 1'
_cell_length_a   9.93456399
_cell_length_b   14.37997589
_cell_length_c   3.11818500
_cell_angle_alpha   90.00000000
_cell_angle_beta   90.00000000
_cell_angle_gamma   95.19588504
_symmetry_Int_Tables_number   1
_chemical_formula_structural   MgFe12(OF)12
_chemical_formula_sum   'Mg1 Fe12 O12 F12'
_cell_volume   443.62970036
_cell_formula_units_Z   1
loop_
 _symmetry_equiv_pos_site_id
 _symmetry_equiv_pos_as_xyz
  1  'x, y, z'
loop_
 _atom_site_type_symbol
 _atom_site_label
 _atom_site_symmetry_multiplicity
 _atom_site_fract_x
 _atom_site_fract_y
 _atom_site_fract_z
 _atom_site_occupancy
  Mg  Mg0  1  0.99209400  0.50466100  0.00000000  1
  Fe  Fe0  1  0.99711600  0.01187000  0.00000000  1
  Fe  Fe1  1  0.06173800  0.26713700  0.00000000  1
  Fe  Fe2  1  0.97115900  0.70334100  0.00000000  1
  Fe  Fe3  1  0.26289600  0.15848000  0.50000000  1
  Fe  Fe4  1  0.26179000  0.42394700  0.50000000  1
  Fe  Fe5  1  0.23340200  0.87604500  0.50000000  1
  Fe  Fe6  1  0.52904200  0.32836700  0.00000000  1
  Fe  Fe7  1  0.51192100  0.99335300  0.00000000  1
  Fe  Fe8  1  0.48878400  0.65497500  0.00000000  1
  Fe  Fe9  1  0.75396900  0.14308600  0.50000000  1
  Fe  Fe10  1  0.69861800  0.50746200  0.50000000  1
  Fe  Fe11  1  0.69917800  0.83473400  0.50000000  1
  O  O0  1  0.18837500  0.28086700  0.50000000  1
  O  O1  1  0.08081800  0.94504700  0.50000000  1
  O  O2  1  0.15456400  0.11779200  0.00000000  1
  O  O3  1  0.13981600  0.42485000  0.00000000  1
  O  O4  1  0.33904500  0.90911200  0.00000000  1
  O  O5  1  0.43576600  0.37620600  0.50000000  1
  O  O6  1  0.58738900  0.93772100  0.50000000  1
  O  O7  1  0.57859200  0.60003300  0.50000000  1
  O  O8  1  0.65187400  0.10246400  0.00000000  1
  O  O9  1  0.66415000  0.43326100  0.00000000  1
  O  O10  1  0.62303500  0.76742800  0.00000000  1
  O  O11  1  0.90862500  0.07302100  0.50000000  1
  F  F0  1  0.04745300  0.60498400  0.50000000  1
  F  F1  1  0.14563700  0.78010700  0.00000000  1
  F  F2  1  0.39655800  0.21174800  0.00000000  1
  F  F3  1  0.35023500  0.53317300  0.00000000  1
  F  F4  1  0.40347200  0.06399800  0.50000000  1
  F  F5  1  0.38191200  0.70563400  0.50000000  1
  F  F6  1  0.63053800  0.26511900  0.50000000  1
  F  F7  1  0.86294700  0.23513500  0.00000000  1
  F  F8  1  0.82356000  0.90276600  0.00000000  1
  F  F9  1  0.82900100  0.58618000  0.00000000  1
  F  F10  1  0.89475800  0.44837900  0.50000000  1
  F  F11  1  0.87017200  0.75510800  0.50000000  1
loop_
_geom_bond_atom_site_label_1
_geom_bond_atom_site_label_2
_geom_bond_distance
_geom_bond_site_symmetry_2
Mg0 O3 1.943179 1_655
Fe0 O11 2.029013 1_554
Fe0 O11 2.029013 1_555
Fe0 O1 2.047025 1_644
Fe0 O1 2.047025 1_645
Fe0 O2 2.082098 1_655
Fe1 O0 2.001883 1_554
Fe1 O0 2.001883 1_555
Fe1 O3 2.329475 1_555
Fe1 O2 2.412721 1_555
Fe3 O2 1.953797 1_555
Fe3 O2 1.953797 1_556
Fe3 O0 1.970129 1_555
Fe4 O5 1.916637 1_555
Fe4 O3 1.975385 1_555
Fe4 O3 1.975385 1_556
Fe4 O0 2.119765 1_555
Fe5 O1 1.885417 1_555
Fe5 O4 1.915194 1_556
Fe5 O4 1.915194 1_555
Fe6 O9 1.926161 1_555
Fe6 O5 1.969304 1_555
Fe6 O5 1.969304 1_554
Fe7 O6 1.934294 1_554
Fe7 O6 1.934294 1_555
Fe7 O8 1.999954 1_565
Fe7 O4 2.010038 1_555
Fe8 O7 1.994661 1_554
Fe8 O7 1.994661 1_555
Fe8 O10 2.000778 1_555
Fe9 O11 1.912106 1_555
Fe9 O8 1.921828 1_555
Fe9 O8 1.921828 1_556
Fe10 O7 1.865834 1_555
Fe10 O9 1.902723 1_556
Fe10 O9 1.902723 1_555
Fe11 O6 1.929892 1_555
Fe11 O10 1.951186 1_555
Fe11 O10 1.951186 1_556
F0 Mg0 2.161191 1_456
F0 Mg0 2.161191 1_455
F0 Fe2 2.280322 1_455
F0 Fe2 2.280322 1_456
F1 Fe2 1.968898 1_455
F1 Fe5 2.208253 1_555
F1 Fe5 2.208253 1_554
F2 Fe6 2.035876 1_555
F2 Fe3 2.143953 1_554
F2 Fe3 2.143953 1_555
F3 Fe8 2.127364 1_555
F3 Fe4 2.328057 1_554
F3 Fe4 2.328057 1_555
F4 Fe3 2.034694 1_555
F4 Fe7 2.195856 1_546
F4 Fe7 2.195856 1_545
F5 Fe8 2.056404 1_555
F5 Fe8 2.056404 1_556
F6 Fe6 2.107315 1_556
F6 Fe6 2.107315 1_555
F6 Fe9 2.229983 1_555
F7 Fe1 1.986807 1_655
F7 Fe9 2.257304 1_555
F7 Fe9 2.257304 1_554
F8 Fe11 2.166978 1_554
F8 Fe11 2.166978 1_555
F8 Fe0 2.223602 1_565
F9 Mg0 2.084082 1_555
F9 Fe2 2.098102 1_555
F9 Fe10 2.263701 1_555
F9 Fe10 2.263701 1_554
F10 Mg0 1.969546 1_555
F10 Mg0 1.969546 1_556
F10 Fe10 2.195131 1_555
F11 Fe2 2.031432 1_556
F11 Fe2 2.031432 1_555
F11 Fe11 2.132868 1_555
