# generated using pymatgen
data_PtS
_symmetry_space_group_name_H-M   'P 1'
_cell_length_a   3.49446173
_cell_length_b   3.49446173
_cell_length_c   6.11629389
_cell_angle_alpha   90.00000000
_cell_angle_beta   90.00000000
_cell_angle_gamma   90.00000000
_symmetry_Int_Tables_number   1
_chemical_formula_structural   PtS
_chemical_formula_sum   'Pt2 S2'
_cell_volume   74.68767195
_cell_formula_units_Z   2
loop_
 _symmetry_equiv_pos_site_id
 _symmetry_equiv_pos_as_xyz
  1  'x, y, z'
loop_
 _atom_site_type_symbol
 _atom_site_label
 _atom_site_symmetry_multiplicity
 _atom_site_fract_x
 _atom_site_fract_y
 _atom_site_fract_z
 _atom_site_occupancy
  Pt  Pt0  1  0.50000000  -0.00000000  0.50000000  1
  Pt  Pt1  1  0.00000000  0.50000000  0.00000000  1
  S  S0  1  -0.00000000  -0.00000000  0.75000000  1
  S  S1  1  0.00000000  0.00000000  0.25000000  1
loop_
_geom_bond_atom_site_label_1
_geom_bond_atom_site_label_2
_geom_bond_distance
_geom_bond_site_symmetry_2
Pt0 S1 2.321827 1_555
Pt0 S0 2.321827 1_555
Pt0 S1 2.321827 1_655
Pt0 S0 2.321827 1_655
Pt1 S0 2.321827 1_564
Pt1 S0 2.321827 1_554
Pt1 S1 2.321827 1_565
Pt1 S1 2.321827 1_555
