# generated using pymatgen
data_Na6Ta3In(SiO4)6
_symmetry_space_group_name_H-M   'P 1'
_cell_length_a   15.78269017
_cell_length_b   9.09438768
_cell_length_c   9.12647703
_cell_angle_alpha   90.32754414
_cell_angle_beta   125.09564965
_cell_angle_gamma   89.84133682
_symmetry_Int_Tables_number   1
_chemical_formula_structural   Na6Ta3In(SiO4)6
_chemical_formula_sum   'Na12 Ta6 In2 Si12 O48'
_cell_volume   1071.78193960
_cell_formula_units_Z   2
loop_
 _symmetry_equiv_pos_site_id
 _symmetry_equiv_pos_as_xyz
  1  'x, y, z'
loop_
 _atom_site_type_symbol
 _atom_site_label
 _atom_site_symmetry_multiplicity
 _atom_site_fract_x
 _atom_site_fract_y
 _atom_site_fract_z
 _atom_site_occupancy
  Na  Na0  1  0.25139763  0.74988115  0.99887921  1
  Na  Na1  1  0.74673196  0.74790726  0.48757726  1
  Na  Na2  1  0.75139763  0.24988115  0.99887921  1
  Na  Na3  1  0.24673196  0.24790726  0.48757726  1
  Na  Na4  1  0.50740920  0.10119273  0.76369271  1
  Na  Na5  1  0.50090289  0.87982309  0.24006059  1
  Na  Na6  1  0.00740920  0.60119273  0.76369271  1
  Na  Na7  1  0.00090289  0.37982309  0.24006059  1
  Na  Na8  1  0.80099698  0.93382489  0.21918053  1
  Na  Na9  1  0.18631004  0.06596691  0.79250757  1
  Na  Na10  1  0.30099698  0.43382489  0.21918053  1
  Na  Na11  1  0.68631004  0.56596691  0.79250757  1
  Ta  Ta0  1  0.10604105  0.74995207  0.56134656  1
  Ta  Ta1  1  0.89477129  0.75447768  0.93064372  1
  Ta  Ta2  1  0.89234168  0.25013473  0.43593928  1
  Ta  Ta3  1  0.60604105  0.24995207  0.56134656  1
  Ta  Ta4  1  0.39477129  0.25447768  0.93064372  1
  Ta  Ta5  1  0.39234168  0.75013473  0.43593928  1
  In  In0  1  0.10345396  0.24310427  0.06414974  1
  In  In1  1  0.60345396  0.74310427  0.06414974  1
  Si  Si0  1  0.99697341  0.95749478  0.74457542  1
  Si  Si1  1  0.00035802  0.04092235  0.25624953  1
  Si  Si2  1  0.49697341  0.45749478  0.74457542  1
  Si  Si3  1  0.50035802  0.54092235  0.25624953  1
  Si  Si4  1  0.35492773  0.89489482  0.75977242  1
  Si  Si5  1  0.64642921  0.89617966  0.74786650  1
  Si  Si6  1  0.64542255  0.11308516  0.24344751  1
  Si  Si7  1  0.35682964  0.10126697  0.25051156  1
  Si  Si8  1  0.85492773  0.39489482  0.75977242  1
  Si  Si9  1  0.14642921  0.39617966  0.74786650  1
  Si  Si10  1  0.14542255  0.61308516  0.24344751  1
  Si  Si11  1  0.85682964  0.60126697  0.25051156  1
  O  O0  1  0.15460741  0.57314290  0.72216182  1
  O  O1  1  0.85044292  0.57775838  0.75698070  1
  O  O2  1  0.85585177  0.42067908  0.26283197  1
  O  O3  1  0.15713747  0.43640802  0.25572583  1
  O  O4  1  0.65460741  0.07314290  0.72216182  1
  O  O5  1  0.35044292  0.07775838  0.75698070  1
  O  O6  1  0.35585177  0.92067908  0.26283197  1
  O  O7  1  0.65713747  0.93640802  0.25572583  1
  O  O8  1  0.42800648  0.56183932  0.56389259  1
  O  O9  1  0.58220188  0.55538932  0.91378491  1
  O  O10  1  0.55818803  0.43555095  0.43358658  1
  O  O11  1  0.43418189  0.42562977  0.08263936  1
  O  O12  1  0.92800648  0.06183932  0.56389259  1
  O  O13  1  0.08220188  0.05538932  0.91378491  1
  O  O14  1  0.05818803  0.93555095  0.43358658  1
  O  O15  1  0.93418189  0.92562977  0.08263936  1
  O  O16  1  0.24767458  0.84007621  0.73475215  1
  O  O17  1  0.74247937  0.80723796  0.76369219  1
  O  O18  1  0.74428169  0.18851153  0.25663378  1
  O  O19  1  0.26915392  0.18880510  0.25403073  1
  O  O20  1  0.74767458  0.34007621  0.73475215  1
  O  O21  1  0.24247937  0.30723796  0.76369219  1
  O  O22  1  0.24428169  0.68851153  0.25663378  1
  O  O23  1  0.76915392  0.68880510  0.25403073  1
  O  O24  1  0.36184913  0.84896338  0.58947991  1
  O  O25  1  0.64717255  0.88549701  0.92568769  1
  O  O26  1  0.64366831  0.17139411  0.41189627  1
  O  O27  1  0.35658514  0.13801885  0.07125558  1
  O  O28  1  0.86184913  0.34896338  0.58947991  1
  O  O29  1  0.14717255  0.38549701  0.92568769  1
  O  O30  1  0.14366831  0.67139411  0.41189627  1
  O  O31  1  0.85658514  0.63801885  0.07125558  1
  O  O32  1  0.45235063  0.83358691  0.94559393  1
  O  O33  1  0.53780036  0.82394463  0.57197369  1
  O  O34  1  0.53638427  0.17140247  0.05913640  1
  O  O35  1  0.46996608  0.15665524  0.42385041  1
  O  O36  1  0.95235063  0.33358691  0.94559393  1
  O  O37  1  0.03780036  0.32394463  0.57197369  1
  O  O38  1  0.03638427  0.67140247  0.05913640  1
  O  O39  1  0.96996608  0.65665524  0.42385041  1
  O  O40  1  0.06886327  0.83585782  0.72529918  1
  O  O41  1  0.91624972  0.85696443  0.76195189  1
  O  O42  1  0.91162022  0.13802066  0.25736892  1
  O  O43  1  0.08198565  0.14855740  0.25939338  1
  O  O44  1  0.56886327  0.33585782  0.72529918  1
  O  O45  1  0.41624972  0.35696443  0.76195189  1
  O  O46  1  0.41162022  0.63802066  0.25736892  1
  O  O47  1  0.58198565  0.64855740  0.25939338  1
loop_
_geom_bond_atom_site_label_1
_geom_bond_atom_site_label_2
_geom_bond_distance
_geom_bond_site_symmetry_2
Na0 O46 2.479572 1_556
Na0 O22 2.485358 1_556
Na0 O6 2.517623 1_556
Na0 O16 2.519228 1_555
Na0 O0 2.612670 1_555
Na0 O40 2.623669 1_555
Na1 O47 2.383068 1_555
Na1 O23 2.410482 1_555
Na1 O7 2.450146 1_555
Na1 O1 2.553559 1_555
Na1 O41 2.587412 1_555
Na1 O17 2.612387 1_555
Na2 O42 2.479572 1_556
Na2 O18 2.485358 1_556
Na2 O2 2.517623 1_556
Na2 O20 2.519228 1_555
Na2 O4 2.612670 1_555
Na2 O44 2.623669 1_555
Na3 O43 2.383068 1_555
Na3 O19 2.410482 1_555
Na3 O3 2.450146 1_555
Na3 O5 2.553559 1_555
Na3 O45 2.587412 1_555
Na3 O21 2.612387 1_555
Na4 O5 2.452491 1_555
Na4 O44 2.455371 1_555
Na4 O34 2.539930 1_556
Na4 O4 2.571784 1_555
Na4 O25 2.675567 1_545
Na4 O45 2.726997 1_555
Na4 O35 2.851661 1_555
Na4 O24 2.975715 1_545
Na5 O32 2.367954 1_554
Na5 O47 2.412884 1_555
Na5 O6 2.442051 1_555
Na5 O7 2.442591 1_555
Na5 O46 2.668981 1_555
Na5 O33 2.785846 1_555
Na6 O1 2.452491 1_455
Na6 O40 2.455371 1_555
Na6 O38 2.539930 1_556
Na6 O0 2.571784 1_555
Na6 O29 2.675567 1_555
Na6 O41 2.726997 1_455
Na6 O39 2.851661 1_455
Na6 O28 2.975715 1_455
Na7 O36 2.367954 1_454
Na7 O43 2.412884 1_555
Na7 O2 2.442051 1_455
Na7 O3 2.442591 1_555
Na7 O42 2.668981 1_455
Na7 O37 2.785846 1_555
Na8 O23 2.348870 1_555
Na8 O25 2.403481 1_554
Na8 O42 2.434991 1_565
Na8 O7 2.477361 1_555
Na8 O18 2.571817 1_565
Na8 O12 2.826740 1_565
Na8 O15 2.997829 1_555
Na9 O21 2.440300 1_555
Na9 O16 2.449437 1_545
Na9 O13 2.455090 1_555
Na9 O27 2.500523 1_556
Na9 O40 2.625068 1_545
Na9 O5 2.791926 1_555
Na9 O14 2.928824 1_545
Na10 O19 2.348870 1_555
Na10 O29 2.403481 1_554
Na10 O46 2.434991 1_555
Na10 O3 2.477361 1_555
Na10 O22 2.571817 1_555
Na10 O8 2.826740 1_555
Na10 O11 2.997829 1_555
Na11 O17 2.440300 1_555
Na11 O20 2.449437 1_555
Na11 O9 2.455090 1_555
Na11 O31 2.500523 1_556
Na11 O44 2.625068 1_555
Na11 O1 2.791926 1_555
Na11 O10 2.928824 1_555
In0 O13 2.087388 1_554
In0 O36 2.137146 1_454
In0 O43 2.177760 1_555
In0 O29 2.185451 1_554
In0 O19 2.208517 1_555
In0 O3 2.266054 1_555
In1 O9 2.087388 1_554
In1 O32 2.137146 1_554
In1 O47 2.177760 1_555
In1 O25 2.185451 1_554
In1 O23 2.208517 1_555
In1 O7 2.266054 1_555
O0 Si9 1.643794 1_555
O0 Ta0 2.013388 1_555
O1 Si8 1.664059 1_555
O1 Ta1 2.070380 1_555
O2 Si11 1.647543 1_555
O2 Ta2 2.051842 1_555
O3 Si10 1.614014 1_555
O4 Si5 1.643794 1_545
O4 Ta3 2.013388 1_555
O5 Si4 1.664059 1_545
O5 Ta4 2.070380 1_555
O6 Si7 1.647543 1_565
O6 Ta5 2.051842 1_555
O7 Si6 1.614014 1_565
O8 Si2 1.659134 1_555
O8 Ta5 1.968405 1_555
O9 Si2 1.609071 1_555
O10 Si3 1.638618 1_555
O10 Ta3 1.944690 1_555
O11 Si3 1.668798 1_555
O11 Ta4 1.929365 1_554
O12 Si0 1.659134 1_545
O12 Ta2 1.968405 1_555
O13 Si0 1.609071 1_445
O14 Si1 1.638618 1_565
O14 Ta0 1.944690 1_555
O15 Si1 1.668798 1_665
O15 Ta1 1.929365 1_554
O16 Si4 1.650748 1_555
O16 Ta0 2.024997 1_555
O17 Si5 1.648015 1_555
O17 Ta1 2.029723 1_555
O18 Si6 1.645756 1_555
O18 Ta2 2.012998 1_555
O19 Si7 1.610688 1_555
O20 Si8 1.650748 1_555
O20 Ta3 2.024997 1_555
O21 Si9 1.648015 1_555
O21 Ta4 2.029723 1_555
O22 Si10 1.645756 1_555
O22 Ta5 2.012998 1_555
O23 Si11 1.610688 1_555
O24 Si4 1.670154 1_555
O24 Ta5 1.939505 1_555
O25 Si5 1.619636 1_555
O26 Si6 1.638577 1_555
O26 Ta3 1.908239 1_555
O27 Si7 1.669470 1_555
O27 Ta4 2.010028 1_554
O28 Si8 1.670154 1_555
O28 Ta2 1.939505 1_555
O29 Si9 1.619636 1_555
O30 Si10 1.638577 1_555
O30 Ta0 1.908239 1_555
O31 Si11 1.669470 1_555
O31 Ta1 2.010028 1_554
O32 Si4 1.599610 1_555
O33 Si5 1.666532 1_555
O33 Ta5 1.995980 1_555
O34 Si6 1.657957 1_555
O34 Ta4 1.981997 1_554
O35 Si7 1.640866 1_555
O35 Ta3 1.950873 1_555
O36 Si8 1.599610 1_555
O37 Si9 1.666532 1_555
O37 Ta2 1.995980 1_455
O38 Si10 1.657957 1_555
O38 Ta1 1.981997 1_454
O39 Si11 1.640866 1_555
O39 Ta0 1.950873 1_655
O40 Si0 1.662034 1_455
O40 Ta0 2.046284 1_555
O41 Si0 1.650646 1_555
O41 Ta1 1.993028 1_555
O42 Si1 1.658566 1_655
O42 Ta2 2.082700 1_555
O43 Si1 1.607142 1_555
O44 Si2 1.662034 1_555
O44 Ta3 2.046284 1_555
O45 Si2 1.650646 1_555
O45 Ta4 1.993028 1_555
O46 Si3 1.658566 1_555
O46 Ta5 2.082700 1_555
O47 Si3 1.607142 1_555
