# generated using pymatgen
data_BaMgTiO3
_symmetry_space_group_name_H-M   'P 1'
_cell_length_a   4.98649560
_cell_length_b   4.98649539
_cell_length_c   4.98649500
_cell_angle_alpha   76.45408944
_cell_angle_beta   76.45409096
_cell_angle_gamma   76.45409643
_symmetry_Int_Tables_number   1
_chemical_formula_structural   BaMgTiO3
_chemical_formula_sum   'Ba1 Mg1 Ti1 O3'
_cell_volume   115.05809550
_cell_formula_units_Z   1
loop_
 _symmetry_equiv_pos_site_id
 _symmetry_equiv_pos_as_xyz
  1  'x, y, z'
loop_
 _atom_site_type_symbol
 _atom_site_label
 _atom_site_symmetry_multiplicity
 _atom_site_fract_x
 _atom_site_fract_y
 _atom_site_fract_z
 _atom_site_occupancy
  Ba  Ba0  1  0.97069995  0.97069995  0.97069995  1
  Mg  Mg0  1  0.66133406  0.66133406  0.66133406  1
  Ti  Ti0  1  0.40335403  0.40335403  0.40335403  1
  O  O0  1  0.07062045  0.58291225  0.58291226  1
  O  O1  1  0.58291225  0.07062045  0.58291226  1
  O  O2  1  0.58291225  0.58291225  0.07062045  1
loop_
_geom_bond_atom_site_label_1
_geom_bond_atom_site_label_2
_geom_bond_distance
_geom_bond_site_symmetry_2
Ba0 O0 2.928414 1_655
Ba0 O1 2.928414 1_565
Ba0 O2 2.928414 1_556
Ba0 O0 3.286771 1_656
Ba0 O0 3.286771 1_665
Ba0 O1 3.286771 1_566
Ba0 O1 3.286772 1_665
Ba0 O2 3.286772 1_566
Ba0 O2 3.286772 1_656
Mg0 O2 1.948084 1_556
Mg0 O1 1.948085 1_565
Mg0 O0 1.948085 1_655
O0 Ti0 1.827551 1_555
O1 Ti0 1.827551 1_555
O2 Ti0 1.827551 1_555
