# generated using pymatgen
data_Na3Y2Ti2P5SO24
_symmetry_space_group_name_H-M   'P 1'
_cell_length_a   8.94707707
_cell_length_b   8.93925654
_cell_length_c   22.73953922
_cell_angle_alpha   90.10831567
_cell_angle_beta   90.04156018
_cell_angle_gamma   119.54010359
_symmetry_Int_Tables_number   1
_chemical_formula_structural   Na3Y2Ti2P5SO24
_chemical_formula_sum   'Na9 Y6 Ti6 P15 S3 O72'
_cell_volume   1582.29453124
_cell_formula_units_Z   3
loop_
 _symmetry_equiv_pos_site_id
 _symmetry_equiv_pos_as_xyz
  1  'x, y, z'
loop_
 _atom_site_type_symbol
 _atom_site_label
 _atom_site_symmetry_multiplicity
 _atom_site_fract_x
 _atom_site_fract_y
 _atom_site_fract_z
 _atom_site_occupancy
  Na  Na0  1  0.00364855  0.36043292  0.75225831  1
  Na  Na1  1  0.67062519  0.95382603  0.58309753  1
  Na  Na2  1  0.04942478  0.33064546  0.08338698  1
  Na  Na3  1  0.01790141  0.99422880  0.49409468  1
  Na  Na4  1  0.00702779  0.98742351  0.99320684  1
  Na  Na5  1  0.65342286  0.32458776  0.83506478  1
  Na  Na6  1  0.67616845  0.33369448  0.33325500  1
  Na  Na7  1  0.35413518  0.67546091  0.16948965  1
  Na  Na8  1  0.33551403  0.66960831  0.66904973  1
  Y  Y0  1  0.01079073  0.99730444  0.64329877  1
  Y  Y1  1  0.99708901  0.98960996  0.14378924  1
  Y  Y2  1  0.33494655  0.67469106  0.01782442  1
  Y  Y3  1  0.32241826  0.66510630  0.51785375  1
  Y  Y4  1  0.32592811  0.66380760  0.31841866  1
  Y  Y5  1  0.33792065  0.67924165  0.82026315  1
  Ti  Ti0  1  0.97281632  0.98739706  0.34838227  1
  Ti  Ti1  1  0.01035787  0.00894451  0.84682134  1
  Ti  Ti2  1  0.66195567  0.33850379  0.68769891  1
  Ti  Ti3  1  0.67388140  0.34163726  0.18677289  1
  Ti  Ti4  1  0.66220830  0.32269213  0.98196956  1
  Ti  Ti5  1  0.67757967  0.34001547  0.48194520  1
  P  P0  1  0.70341593  0.69549316  0.24896519  1
  P  P1  1  0.98837573  0.28670457  0.24684086  1
  P  P2  1  0.29947543  0.29224978  0.74991075  1
  P  P3  1  0.98815333  0.69930123  0.75100632  1
  P  P4  1  0.71024892  0.00667277  0.74626740  1
  P  P5  1  0.95036831  0.34137842  0.58623275  1
  P  P6  1  0.39452010  0.05985626  0.58193466  1
  P  P7  1  0.66020311  0.61113327  0.58326968  1
  P  P8  1  0.94409679  0.60851272  0.08169517  1
  P  P9  1  0.66040130  0.05070511  0.08511952  1
  P  P10  1  0.39169758  0.33872040  0.08452303  1
  P  P11  1  0.01978979  0.35110681  0.91696395  1
  P  P12  1  0.33006028  0.98261710  0.91718206  1
  P  P13  1  0.64106206  0.97777645  0.41951134  1
  P  P14  1  0.01910131  0.67148771  0.41617380  1
  S  S0  1  0.30161104  0.01340890  0.25173888  1
  S  S1  1  0.65116439  0.66924946  0.91701878  1
  S  S2  1  0.32960777  0.34861650  0.41666996  1
  O  O0  1  0.20485103  0.02195576  0.30314186  1
  O  O1  1  0.82063765  0.79910727  0.30361369  1
  O  O2  1  0.97252409  0.16010795  0.29833043  1
  O  O3  1  0.20069700  0.17221197  0.80366303  1
  O  O4  1  0.97851118  0.80405310  0.80449205  1
  O  O5  1  0.83977733  0.02877639  0.79718098  1
  O  O6  1  0.78126932  0.98520827  0.68743066  1
  O  O7  1  0.18877552  0.21802376  0.69527588  1
  O  O8  1  0.01638423  0.79931278  0.69445096  1
  O  O9  1  0.78569458  0.79962756  0.19406822  1
  O  O10  1  0.01441869  0.21758031  0.18835377  1
  O  O11  1  0.20662181  0.99277823  0.19650621  1
  O  O12  1  0.85559232  0.34567217  0.64331086  1
  O  O13  1  0.49621767  0.15696403  0.63879884  1
  O  O14  1  0.65948868  0.51084375  0.64009946  1
  O  O15  1  0.84952431  0.50873035  0.13940107  1
  O  O16  1  0.65857262  0.15245790  0.14026046  1
  O  O17  1  0.49385882  0.34392899  0.14121696  1
  O  O18  1  0.49229888  0.33767892  0.02951697  1
  O  O19  1  0.84207714  0.50406099  0.02779008  1
  O  O20  1  0.66107124  0.15061455  0.02867536  1
  O  O21  1  0.49726575  0.15860742  0.52721964  1
  O  O22  1  0.65971540  0.50961579  0.52844369  1
  O  O23  1  0.84717706  0.34241420  0.53074868  1
  O  O24  1  0.56896807  0.69771501  0.96912672  1
  O  O25  1  0.13255958  0.42812012  0.97238857  1
  O  O26  1  0.29451209  0.86624813  0.97083399  1
  O  O27  1  0.57584880  0.87177271  0.47640793  1
  O  O28  1  0.30031637  0.42957582  0.46922616  1
  O  O29  1  0.13399841  0.70985785  0.47075694  1
  O  O30  1  0.09298345  0.62586405  0.36327074  1
  O  O31  1  0.51933635  0.89063384  0.36823360  1
  O  O32  1  0.36159108  0.45896043  0.36470352  1
  O  O33  1  0.09971359  0.46649132  0.86302787  1
  O  O34  1  0.37681008  0.91201912  0.86348978  1
  O  O35  1  0.54249534  0.63772042  0.86438942  1
  O  O36  1  0.00075820  0.83321631  0.40388788  1
  O  O37  1  0.82329256  0.99812918  0.40466745  1
  O  O38  1  0.17532664  0.17770823  0.40794220  1
  O  O39  1  0.99792193  0.16927032  0.90443168  1
  O  O40  1  0.16688211  0.99818352  0.90565824  1
  O  O41  1  0.82155930  0.82410415  0.90919090  1
  O  O42  1  0.95466365  0.17201411  0.58212858  1
  O  O43  1  0.21727175  0.04380923  0.57881907  1
  O  O44  1  0.82080833  0.79056893  0.58116779  1
  O  O45  1  0.96135303  0.78605427  0.07904552  1
  O  O46  1  0.82945964  0.04523880  0.08188247  1
  O  O47  1  0.21195621  0.17751059  0.08321791  1
  O  O48  1  0.70372865  0.17891832  0.74578931  1
  O  O49  1  0.47633318  0.30195584  0.74504046  1
  O  O50  1  0.81997099  0.52013771  0.74784764  1
  O  O51  1  0.69798198  0.51912228  0.24633886  1
  O  O52  1  0.81880443  0.29629040  0.24504281  1
  O  O53  1  0.47170082  0.17365334  0.24963178  1
  O  O54  1  0.67288206  0.51631124  0.92477071  1
  O  O55  1  0.83529629  0.32510679  0.92648623  1
  O  O56  1  0.48320845  0.16733450  0.92808668  1
  O  O57  1  0.67422627  0.16444818  0.42700256  1
  O  O58  1  0.48271999  0.32716665  0.42455553  1
  O  O59  1  0.83521921  0.51631172  0.42762037  1
  O  O60  1  0.36779743  0.49806864  0.08434551  1
  O  O61  1  0.11952275  0.61566626  0.08310993  1
  O  O62  1  0.50203480  0.87295786  0.08540728  1
  O  O63  1  0.38492938  0.88270613  0.58377138  1
  O  O64  1  0.50021202  0.63268286  0.58454628  1
  O  O65  1  0.12848850  0.49983879  0.58586372  1
  O  O66  1  0.32864544  0.86277949  0.25553999  1
  O  O67  1  0.52383601  0.67080804  0.25658802  1
  O  O68  1  0.14134777  0.46553492  0.25725403  1
  O  O69  1  0.31753593  0.46948768  0.75983655  1
  O  O70  1  0.13788867  0.66132644  0.75760739  1
  O  O71  1  0.53180018  0.85308303  0.75573246  1
loop_
_geom_bond_atom_site_label_1
_geom_bond_atom_site_label_2
_geom_bond_distance
_geom_bond_site_symmetry_2
Na0 O70 2.346311 1_555
Na0 O48 2.358017 1_455
Na0 O69 2.483153 1_555
Na0 O50 2.657569 1_455
Na0 O33 2.677034 1_555
Na0 O5 2.776748 1_455
Na0 O12 2.780539 1_455
Na0 O7 2.849411 1_555
Na1 O63 2.309965 1_555
Na1 O42 2.318536 1_565
Na1 O44 2.422974 1_555
Na1 O64 2.500305 1_555
Na1 O6 2.531326 1_555
Na1 O27 2.553404 1_555
Na2 O61 2.304219 1_555
Na2 O46 2.330674 1_455
Na2 O47 2.439564 1_555
Na2 O60 2.479998 1_555
Na2 O10 2.552446 1_555
Na2 O25 2.656182 1_554
Na3 O36 2.464460 1_555
Na3 O38 2.500027 1_565
Na3 O43 2.510435 1_565
Na3 O44 2.682817 1_455
Na3 O37 2.687597 1_455
Na3 O42 2.780213 1_465
Na4 O40 2.426387 1_555
Na4 O41 2.476084 1_455
Na4 O45 2.550773 1_456
Na4 O39 2.620509 1_465
Na4 O47 2.710692 1_566
Na4 O46 2.769029 1_466
Na5 O49 2.533708 1_555
Na5 O48 2.566854 1_555
Na5 O50 2.580398 1_555
Na5 O56 2.583541 1_555
Na5 O54 2.611658 1_555
Na5 O55 2.637665 1_555
Na6 O52 2.487170 1_555
Na6 O51 2.527038 1_555
Na6 O53 2.532439 1_555
Na6 O57 2.611527 1_555
Na6 O59 2.643138 1_555
Na6 O58 2.686163 1_555
Na7 O62 2.497290 1_555
Na7 O67 2.507579 1_555
Na7 O60 2.541272 1_555
Na7 O66 2.655107 1_555
Na7 O61 2.726501 1_555
Na7 O68 2.761483 1_555
Na8 O64 2.540495 1_555
Na8 O65 2.554302 1_555
Na8 O63 2.601816 1_555
Na8 O71 2.608077 1_555
Na8 O70 2.657778 1_555
Na8 O69 2.686783 1_555
O0 S0 1.479169 1_555
O0 Ti0 2.198990 1_445
O1 P0 1.593110 1_555
O1 Ti0 1.858755 1_555
O2 P1 1.587037 1_555
O2 Ti0 1.920852 1_545
O3 P2 1.580482 1_555
O3 Ti1 1.884247 1_555
O4 P3 1.561742 1_555
O4 Ti1 1.959768 1_665
O5 P4 1.579200 1_555
O5 Ti1 1.974829 1_655
O6 P4 1.533330 1_565
O6 Y0 2.240597 1_655
O7 P2 1.520460 1_555
O7 Y0 2.171653 1_545
O8 P3 1.516292 1_455
O8 Y0 2.140810 1_555
O9 P0 1.515520 1_555
O9 Y1 2.147509 1_555
O10 P1 1.531095 1_455
O10 Y1 2.210055 1_445
O11 S0 1.475389 1_565
O11 Y1 2.212828 1_455
O12 P5 1.561617 1_555
O12 Ti2 1.979325 1_555
O13 P6 1.571202 1_555
O13 Ti2 1.920110 1_555
O14 P7 1.572423 1_555
O14 Ti2 1.893483 1_555
O15 P8 1.579647 1_555
O15 Ti3 1.885473 1_555
O16 P9 1.552493 1_555
O16 Ti3 1.939574 1_555
O17 P10 1.567088 1_555
O17 Ti3 1.923025 1_555
O18 P10 1.544224 1_555
O18 Ti4 1.923695 1_554
O19 P8 1.536611 1_555
O19 Ti4 1.929373 1_554
O20 P9 1.563383 1_555
O20 Ti4 1.866830 1_554
O21 P6 1.542067 1_555
O21 Ti5 1.929078 1_555
O22 P7 1.539374 1_555
O22 Ti5 1.917091 1_555
O23 P5 1.565605 1_555
O23 Ti5 1.870811 1_555
O24 S1 1.481301 1_555
O24 Y2 2.287343 1_556
O25 P11 1.546069 1_555
O25 Y2 2.292981 1_556
O26 P12 1.533248 1_555
O26 Y2 2.195930 1_556
O27 P13 1.540402 1_555
O27 Y3 2.306883 1_555
O28 S2 1.484900 1_555
O28 Y3 2.296770 1_555
O29 P14 1.537477 1_555
O29 Y3 2.193841 1_555
O30 P14 1.521716 1_555
O30 Y4 2.192344 1_555
O31 P13 1.520108 1_555
O31 Y4 2.217568 1_555
O32 S2 1.475745 1_555
O32 Y4 2.268421 1_555
O33 P11 1.535661 1_555
O33 Y5 2.262314 1_555
O34 P12 1.523824 1_555
O34 Y5 2.166810 1_555
O35 S1 1.477777 1_555
O35 Y5 2.272314 1_555
O36 P14 1.559024 1_555
O36 Ti0 1.975111 1_455
O37 P13 1.585518 1_555
O37 Ti0 1.888288 1_555
O38 S2 1.482524 1_555
O38 Ti0 2.227030 1_445
O39 P11 1.564051 1_655
O39 Ti1 1.983170 1_655
O40 P12 1.555457 1_555
O40 Ti1 1.972591 1_565
O41 S1 1.480703 1_555
O41 Ti1 2.203441 1_665
O42 P5 1.535969 1_555
O42 Y0 2.325232 1_645
O43 P6 1.521845 1_555
O43 Y0 2.232601 1_545
O44 P7 1.538701 1_555
O44 Y0 2.278114 1_655
O45 P8 1.518247 1_555
O45 Y1 2.235241 1_555
O46 P9 1.539067 1_555
O46 Y1 2.283283 1_545
O47 P10 1.542195 1_555
O47 Y1 2.289702 1_445
O48 P4 1.569388 1_555
O48 Ti2 2.109944 1_555
O49 P2 1.545499 1_555
O49 Ti2 2.008694 1_555
O50 P3 1.567643 1_555
O50 Ti2 2.056964 1_555
O51 P0 1.554262 1_555
O51 Ti3 2.013089 1_555
O52 P1 1.561707 1_555
O52 Ti3 2.029563 1_555
O53 S0 1.490287 1_555
O53 Ti3 2.214417 1_555
O54 S1 1.483493 1_555
O54 Ti4 2.131264 1_555
O55 P11 1.564623 1_655
O55 Ti4 1.990101 1_555
O56 P12 1.559651 1_545
O56 Ti4 1.947417 1_555
O57 P13 1.553143 1_545
O57 Ti5 1.992755 1_555
O58 S2 1.484706 1_555
O58 Ti5 2.134118 1_555
O59 P14 1.565340 1_655
O59 Ti5 1.953724 1_555
O60 P10 1.541165 1_555
O60 Y2 2.309404 1_555
O61 P8 1.539337 1_455
O61 Y2 2.280692 1_555
O62 P9 1.520669 1_565
O62 Y2 2.260884 1_555
O63 P6 1.543739 1_565
O63 Y3 2.293108 1_555
O64 P7 1.535889 1_555
O64 Y3 2.316719 1_555
O65 P5 1.523289 1_455
O65 Y3 2.251617 1_555
O66 S0 1.483457 1_565
O66 Y4 2.275010 1_555
O67 P0 1.520268 1_555
O67 Y4 2.238482 1_555
O68 P1 1.524952 1_455
O68 Y4 2.214565 1_555
O69 P2 1.527562 1_555
O69 Y5 2.256062 1_555
O70 P3 1.543014 1_455
O70 Y5 2.229673 1_555
O71 P4 1.523345 1_565
O71 Y5 2.220685 1_555
