# generated using pymatgen
data_MgSn(SO4)3
_symmetry_space_group_name_H-M   'P 1'
_cell_length_a   8.70096980
_cell_length_b   8.70096953
_cell_length_c   22.46039227
_cell_angle_alpha   90.00000000
_cell_angle_beta   90.00000000
_cell_angle_gamma   120.00000104
_symmetry_Int_Tables_number   1
_chemical_formula_structural   MgSn(SO4)3
_chemical_formula_sum   'Mg6 Sn6 S18 O72'
_cell_volume   1472.59483556
_cell_formula_units_Z   6
loop_
 _symmetry_equiv_pos_site_id
 _symmetry_equiv_pos_as_xyz
  1  'x, y, z'
loop_
 _atom_site_type_symbol
 _atom_site_label
 _atom_site_symmetry_multiplicity
 _atom_site_fract_x
 _atom_site_fract_y
 _atom_site_fract_z
 _atom_site_occupancy
  Mg  Mg0  1  -0.00000000  0.00000000  0.35425799  1
  Mg  Mg1  1  -0.00000000  0.00000000  0.85425799  1
  Mg  Mg2  1  0.66666700  0.33333300  0.68759099  1
  Mg  Mg3  1  0.66666700  0.33333300  0.18759099  1
  Mg  Mg4  1  0.33333300  0.66666700  0.02092499  1
  Mg  Mg5  1  0.33333300  0.66666700  0.52092499  1
  Sn  Sn0  1  -0.00000000  0.00000000  0.64705729  1
  Sn  Sn1  1  -0.00000000  0.00000000  0.14705729  1
  Sn  Sn2  1  0.66666700  0.33333300  0.98039029  1
  Sn  Sn3  1  0.66666700  0.33333300  0.48039029  1
  Sn  Sn4  1  0.33333300  0.66666700  0.31372429  1
  Sn  Sn5  1  0.33333300  0.66666700  0.81372429  1
  S  S0  1  0.29354546  0.00486444  0.25168022  1
  S  S1  1  0.71131898  0.70645454  0.25168022  1
  S  S2  1  0.99513556  0.28868102  0.25168022  1
  S  S3  1  0.29354546  0.28868102  0.75168022  1
  S  S4  1  0.99513556  0.70645454  0.75168022  1
  S  S5  1  0.71131898  0.00486444  0.75168022  1
  S  S6  1  0.96021246  0.33819744  0.58501322  1
  S  S7  1  0.37798598  0.03978754  0.58501322  1
  S  S8  1  0.66180256  0.62201402  0.58501322  1
  S  S9  1  0.96021246  0.62201402  0.08501322  1
  S  S10  1  0.66180256  0.03978754  0.08501322  1
  S  S11  1  0.37798598  0.33819744  0.08501322  1
  S  S12  1  0.62687846  0.67153144  0.91834722  1
  S  S13  1  0.04465198  0.37312154  0.91834722  1
  S  S14  1  0.32846856  0.95534802  0.91834722  1
  S  S15  1  0.62687846  0.95534802  0.41834722  1
  S  S16  1  0.32846856  0.37312154  0.41834722  1
  S  S17  1  0.04465198  0.67153144  0.41834722  1
  O  O0  1  0.20763050  0.02913911  0.30338028  1
  O  O1  1  0.82150861  0.79236950  0.30338028  1
  O  O2  1  0.97086089  0.17849139  0.30338028  1
  O  O3  1  0.20763050  0.17849139  0.80338028  1
  O  O4  1  0.97086089  0.79236950  0.80338028  1
  O  O5  1  0.82150861  0.02913911  0.80338028  1
  O  O6  1  0.78369417  0.96278879  0.69618748  1
  O  O7  1  0.17909462  0.21630583  0.69618748  1
  O  O8  1  0.03721121  0.82090538  0.69618748  1
  O  O9  1  0.78369417  0.82090538  0.19618748  1
  O  O10  1  0.03721121  0.21630583  0.19618748  1
  O  O11  1  0.17909462  0.96278879  0.19618748  1
  O  O12  1  0.87429750  0.36247211  0.63671328  1
  O  O13  1  0.48817561  0.12570250  0.63671328  1
  O  O14  1  0.63752789  0.51182439  0.63671328  1
  O  O15  1  0.87429750  0.51182439  0.13671328  1
  O  O16  1  0.63752789  0.12570250  0.13671328  1
  O  O17  1  0.48817561  0.36247211  0.13671328  1
  O  O18  1  0.45036117  0.29612179  0.02952048  1
  O  O19  1  0.84576162  0.54963883  0.02952048  1
  O  O20  1  0.70387821  0.15423838  0.02952048  1
  O  O21  1  0.45036117  0.15423838  0.52952048  1
  O  O22  1  0.70387821  0.54963883  0.52952048  1
  O  O23  1  0.84576162  0.29612179  0.52952048  1
  O  O24  1  0.54096350  0.69580611  0.97004728  1
  O  O25  1  0.15484161  0.45903650  0.97004728  1
  O  O26  1  0.30419389  0.84515839  0.97004728  1
  O  O27  1  0.54096350  0.84515839  0.47004728  1
  O  O28  1  0.30419389  0.45903650  0.47004728  1
  O  O29  1  0.15484161  0.69580611  0.47004728  1
  O  O30  1  0.11702717  0.62945579  0.36285448  1
  O  O31  1  0.51242762  0.88297283  0.36285448  1
  O  O32  1  0.37054421  0.48757238  0.36285448  1
  O  O33  1  0.11702717  0.48757238  0.86285448  1
  O  O34  1  0.37054421  0.88297283  0.86285448  1
  O  O35  1  0.51242762  0.62945579  0.86285448  1
  O  O36  1  0.02326704  0.82325852  0.40780421  1
  O  O37  1  0.79999148  0.97673296  0.40780421  1
  O  O38  1  0.17674148  0.20000852  0.40780421  1
  O  O39  1  0.02326704  0.20000852  0.90780421  1
  O  O40  1  0.17674148  0.97673296  0.90780421  1
  O  O41  1  0.79999148  0.82325852  0.90780421  1
  O  O42  1  0.97456265  0.17244753  0.59050938  1
  O  O43  1  0.19788488  0.02543735  0.59050938  1
  O  O44  1  0.82755247  0.80211512  0.59050938  1
  O  O45  1  0.97456265  0.80211512  0.09050938  1
  O  O46  1  0.82755247  0.02543735  0.09050938  1
  O  O47  1  0.19788488  0.17244753  0.09050938  1
  O  O48  1  0.68993404  0.15659152  0.74113721  1
  O  O49  1  0.46665848  0.31006596  0.74113721  1
  O  O50  1  0.84340848  0.53334152  0.74113721  1
  O  O51  1  0.68993404  0.53334152  0.24113721  1
  O  O52  1  0.84340848  0.31006596  0.24113721  1
  O  O53  1  0.46665848  0.15659152  0.24113721  1
  O  O54  1  0.64122965  0.50578053  0.92384238  1
  O  O55  1  0.86455188  0.35877035  0.92384238  1
  O  O56  1  0.49421947  0.13544812  0.92384238  1
  O  O57  1  0.64122965  0.13544812  0.42384238  1
  O  O58  1  0.49421947  0.35877035  0.42384238  1
  O  O59  1  0.86455188  0.50578053  0.42384238  1
  O  O60  1  0.35660004  0.48992552  0.07447121  1
  O  O61  1  0.13332448  0.64339996  0.07447121  1
  O  O62  1  0.51007448  0.86667552  0.07447121  1
  O  O63  1  0.35660004  0.86667552  0.57447121  1
  O  O64  1  0.51007448  0.64339996  0.57447121  1
  O  O65  1  0.13332448  0.48992552  0.57447121  1
  O  O66  1  0.30789565  0.83911453  0.25717638  1
  O  O67  1  0.53121788  0.69210435  0.25717638  1
  O  O68  1  0.16088547  0.46878212  0.25717638  1
  O  O69  1  0.30789565  0.46878212  0.75717638  1
  O  O70  1  0.16088547  0.69210435  0.75717638  1
  O  O71  1  0.53121788  0.83911453  0.75717638  1
loop_
_geom_bond_atom_site_label_1
_geom_bond_atom_site_label_2
_geom_bond_distance
_geom_bond_site_symmetry_2
Mg0 O38 2.040495 1_555
Mg0 O36 2.040495 1_545
Mg0 O37 2.040495 1_445
Mg0 O1 2.043487 1_445
Mg0 O2 2.043487 1_455
Mg0 O0 2.043487 1_555
Mg1 O39 2.040495 1_555
Mg1 O41 2.040495 1_445
Mg1 O40 2.040495 1_545
Mg1 O4 2.043487 1_445
Mg1 O3 2.043487 1_555
Mg1 O5 2.043487 1_455
Mg2 O50 2.040495 1_555
Mg2 O48 2.040495 1_555
Mg2 O49 2.040495 1_555
Mg2 O13 2.043487 1_555
Mg2 O14 2.043487 1_555
Mg2 O12 2.043487 1_555
Mg3 O51 2.040495 1_555
Mg3 O53 2.040495 1_555
Mg3 O52 2.040495 1_555
Mg3 O16 2.043487 1_555
Mg3 O15 2.043487 1_555
Mg3 O17 2.043487 1_555
Mg4 O62 2.040495 1_555
Mg4 O60 2.040495 1_555
Mg4 O61 2.040495 1_555
Mg4 O25 2.043487 1_554
Mg4 O26 2.043487 1_554
Mg4 O24 2.043487 1_554
Mg5 O63 2.040495 1_555
Mg5 O65 2.040495 1_555
Mg5 O64 2.040495 1_555
Mg5 O28 2.043487 1_555
Mg5 O27 2.043487 1_555
Mg5 O29 2.043487 1_555
O0 S0 1.452487 1_555
O1 S1 1.452487 1_555
O2 S2 1.452487 1_555
O3 S3 1.452487 1_555
O4 S4 1.452487 1_555
O5 S5 1.452487 1_555
O6 S5 1.521389 1_565
O6 Sn0 2.062845 1_665
O7 S3 1.521389 1_555
O7 Sn0 2.062845 1_555
O8 S4 1.521389 1_455
O8 Sn0 2.062845 1_565
O9 S1 1.521389 1_555
O9 Sn1 2.062845 1_665
O10 S2 1.521389 1_455
O10 Sn1 2.062845 1_555
O11 S0 1.521389 1_565
O11 Sn1 2.062845 1_565
O12 S6 1.452487 1_555
O13 S7 1.452487 1_555
O14 S8 1.452487 1_555
O15 S9 1.452487 1_555
O16 S10 1.452487 1_555
O17 S11 1.452487 1_555
O18 S11 1.521389 1_555
O18 Sn2 2.062845 1_554
O19 S9 1.521389 1_555
O19 Sn2 2.062845 1_554
O20 S10 1.521389 1_555
O20 Sn2 2.062845 1_554
O21 S7 1.521389 1_555
O21 Sn3 2.062845 1_555
O22 S8 1.521389 1_555
O22 Sn3 2.062845 1_555
O23 S6 1.521389 1_555
O23 Sn3 2.062845 1_555
O24 S12 1.452487 1_555
O25 S13 1.452487 1_555
O26 S14 1.452487 1_555
O27 S15 1.452487 1_555
O28 S16 1.452487 1_555
O29 S17 1.452487 1_555
O30 S17 1.521389 1_555
O30 Sn4 2.062845 1_555
O31 S15 1.521389 1_555
O31 Sn4 2.062845 1_555
O32 S16 1.521389 1_555
O32 Sn4 2.062845 1_555
O33 S13 1.521389 1_555
O33 Sn5 2.062845 1_555
O34 S14 1.521389 1_555
O34 Sn5 2.062845 1_555
O35 S12 1.521389 1_555
O35 Sn5 2.062845 1_555
O36 S17 1.441942 1_555
O37 S15 1.441950 1_555
O38 S16 1.441947 1_555
O39 S13 1.441950 1_555
O40 S14 1.441942 1_555
O41 S12 1.441947 1_555
O42 S6 1.513538 1_555
O42 Sn0 2.060483 1_655
O43 S7 1.513547 1_555
O43 Sn0 2.060483 1_555
O44 S8 1.513543 1_555
O44 Sn0 2.060483 1_665
O45 S9 1.513547 1_555
O45 Sn1 2.060483 1_665
O46 S10 1.513538 1_555
O46 Sn1 2.060483 1_655
O47 S11 1.513543 1_555
O47 Sn1 2.060483 1_555
O48 S5 1.441942 1_555
O49 S3 1.441950 1_555
O50 S4 1.441947 1_555
O51 S1 1.441950 1_555
O52 S2 1.441942 1_555
O53 S0 1.441947 1_555
O54 S12 1.513550 1_555
O54 Sn2 2.060483 1_555
O55 S13 1.513533 1_655
O55 Sn2 2.060483 1_555
O56 S14 1.513540 1_545
O56 Sn2 2.060483 1_555
O57 S15 1.513533 1_545
O57 Sn3 2.060483 1_555
O58 S16 1.513550 1_555
O58 Sn3 2.060483 1_555
O59 S17 1.513540 1_655
O59 Sn3 2.060483 1_555
O60 S11 1.441952 1_555
O61 S9 1.441935 1_455
O62 S10 1.441942 1_565
O63 S7 1.441935 1_565
O64 S8 1.441952 1_555
O65 S6 1.441942 1_455
O66 S0 1.513538 1_565
O66 Sn4 2.060483 1_555
O67 S1 1.513547 1_555
O67 Sn4 2.060483 1_555
O68 S2 1.513543 1_455
O68 Sn4 2.060483 1_555
O69 S3 1.513547 1_555
O69 Sn5 2.060483 1_555
O70 S4 1.513538 1_455
O70 Sn5 2.060483 1_555
O71 S5 1.513543 1_565
O71 Sn5 2.060483 1_555
