# generated using pymatgen
data_Mn5As4
_symmetry_space_group_name_H-M   'P 1'
_cell_length_a   6.79286950
_cell_length_b   6.79286950
_cell_length_c   11.87289100
_cell_angle_alpha   90.00000000
_cell_angle_beta   90.00000000
_cell_angle_gamma   150.27267346
_symmetry_Int_Tables_number   1
_chemical_formula_structural   Mn5As4
_chemical_formula_sum   'Mn10 As8'
_cell_volume   271.66481447
_cell_formula_units_Z   2
loop_
 _symmetry_equiv_pos_site_id
 _symmetry_equiv_pos_as_xyz
  1  'x, y, z'
loop_
 _atom_site_type_symbol
 _atom_site_label
 _atom_site_symmetry_multiplicity
 _atom_site_fract_x
 _atom_site_fract_y
 _atom_site_fract_z
 _atom_site_occupancy
  Mn  Mn0  1  0.97684000  0.02316000  0.29455600  1
  Mn  Mn1  1  0.02316000  0.97684000  0.79455600  1
  Mn  Mn2  1  0.83133600  0.16866400  0.86953000  1
  Mn  Mn3  1  0.16866400  0.83133600  0.36953000  1
  Mn  Mn4  1  0.62880900  0.37119100  0.01669400  1
  Mn  Mn5  1  0.37119100  0.62880900  0.51669400  1
  Mn  Mn6  1  0.55964000  0.44036000  0.62673700  1
  Mn  Mn7  1  0.44036000  0.55964000  0.12673700  1
  Mn  Mn8  1  0.22215700  0.77784300  0.68073600  1
  Mn  Mn9  1  0.77784300  0.22215700  0.18073600  1
  As  As0  1  0.98977100  0.01022900  0.99640500  1
  As  As1  1  0.01022900  0.98977100  0.49640500  1
  As  As2  1  0.72948700  0.27051300  0.52524200  1
  As  As3  1  0.27051300  0.72948700  0.02524200  1
  As  As4  1  0.65514200  0.34485800  0.80716800  1
  As  As5  1  0.34485800  0.65514200  0.30716800  1
  As  As6  1  0.39978900  0.60021100  0.73203100  1
  As  As7  1  0.60021100  0.39978900  0.23203100  1
loop_
_geom_bond_atom_site_label_1
_geom_bond_atom_site_label_2
_geom_bond_distance
_geom_bond_site_symmetry_2
As0 Mn7 2.419049 1_656
As0 Mn7 2.419049 1_546
As0 Mn1 2.436306 1_645
As0 Mn4 2.535279 1_546
As0 Mn4 2.535279 1_656
As0 Mn2 2.568533 1_555
As1 Mn6 2.419049 1_565
As1 Mn6 2.419049 1_455
As1 Mn0 2.436306 1_465
As1 Mn5 2.535279 1_455
As1 Mn5 2.535279 1_565
As1 Mn3 2.568533 1_555
As2 Mn6 2.535014 1_555
As2 Mn8 2.540455 1_655
As2 Mn8 2.540455 1_545
As2 Mn5 2.551267 1_545
As2 Mn5 2.551267 1_655
As2 Mn3 2.663098 1_655
As2 Mn3 2.663098 1_545
As3 Mn7 2.535014 1_555
As3 Mn9 2.540455 1_565
As3 Mn9 2.540455 1_455
As3 Mn4 2.551267 1_565
As3 Mn4 2.551267 1_455
As3 Mn2 2.663098 1_564
As3 Mn2 2.663098 1_454
As4 Mn2 2.429217 1_555
As4 Mn1 2.462173 1_655
As4 Mn1 2.462173 1_545
As4 Mn8 2.462527 1_655
As4 Mn8 2.462527 1_545
As4 Mn6 2.482302 1_555
As4 Mn4 2.511596 1_556
As5 Mn3 2.429217 1_555
As5 Mn0 2.462173 1_565
As5 Mn0 2.462173 1_455
As5 Mn9 2.462527 1_565
As5 Mn9 2.462527 1_455
As5 Mn7 2.482302 1_555
As5 Mn5 2.511596 1_555
As6 Mn8 2.410709 1_555
As6 Mn6 2.443107 1_555
As6 Mn1 2.492353 1_545
As6 Mn1 2.492353 1_655
As6 Mn2 2.551348 1_565
As6 Mn2 2.551348 1_455
As6 Mn5 2.584104 1_555
As7 Mn9 2.410709 1_555
As7 Mn7 2.443107 1_555
As7 Mn0 2.492353 1_455
As7 Mn0 2.492353 1_565
As7 Mn3 2.551348 1_655
As7 Mn3 2.551348 1_545
As7 Mn4 2.584104 1_555
