# generated using pymatgen
data_Nb3Cl8
_symmetry_space_group_name_H-M   'P 1'
_cell_length_a   6.80126383
_cell_length_b   6.80133420
_cell_length_c   12.76792964
_cell_angle_alpha   89.99810123
_cell_angle_beta   89.99798451
_cell_angle_gamma   120.00096498
_symmetry_Int_Tables_number   1
_chemical_formula_structural   Nb3Cl8
_chemical_formula_sum   'Nb6 Cl16'
_cell_volume   511.48231938
_cell_formula_units_Z   2
loop_
 _symmetry_equiv_pos_site_id
 _symmetry_equiv_pos_as_xyz
  1  'x, y, z'
loop_
 _atom_site_type_symbol
 _atom_site_label
 _atom_site_symmetry_multiplicity
 _atom_site_fract_x
 _atom_site_fract_y
 _atom_site_fract_z
 _atom_site_occupancy
  Nb  Nb0  1  0.52892174  0.05780542  0.24576120  1
  Nb  Nb1  1  0.94224422  0.47112009  0.24575797  1
  Nb  Nb2  1  0.52892870  0.47112269  0.24576323  1
  Nb  Nb3  1  0.47107171  0.94219158  0.75423885  1
  Nb  Nb4  1  0.47108024  0.52888479  0.75423756  1
  Nb  Nb5  1  0.05775819  0.52887322  0.75424259  1
  Cl  Cl0  1  0.66673937  0.33337730  0.10078157  1
  Cl  Cl1  1  0.33327309  0.66662832  0.89920809  1
  Cl  Cl2  1  0.33332331  0.66666413  0.35153654  1
  Cl  Cl3  1  0.66667159  0.33333631  0.64846349  1
  Cl  Cl4  1  0.66994177  0.83500081  0.13968306  1
  Cl  Cl5  1  0.16505844  0.83495383  0.13969225  1
  Cl  Cl6  1  0.16506633  0.33011723  0.13969131  1
  Cl  Cl7  1  0.83490663  0.16502729  0.86031158  1
  Cl  Cl8  1  0.33007076  0.16502847  0.86031458  1
  Cl  Cl9  1  0.83494409  0.66987755  0.86030860  1
  Cl  Cl10  1  0.33692790  0.16845586  0.37524184  1
  Cl  Cl11  1  0.83154589  0.16846474  0.37523438  1
  Cl  Cl12  1  0.83157174  0.66307262  0.37523875  1
  Cl  Cl13  1  0.16844403  0.83151461  0.62476427  1
  Cl  Cl14  1  0.66305750  0.83155208  0.62475940  1
  Cl  Cl15  1  0.16845076  0.33693505  0.62476587  1
loop_
_geom_bond_atom_site_label_1
_geom_bond_atom_site_label_2
_geom_bond_distance
_geom_bond_site_symmetry_2
Cl0 Nb1 2.461703 1_555
Cl0 Nb0 2.461861 1_555
Cl0 Nb2 2.461899 1_555
Cl1 Nb5 2.461637 1_555
Cl1 Nb3 2.461727 1_555
Cl1 Nb4 2.461771 1_555
Cl2 Nb1 2.670271 1_455
Cl2 Nb0 2.670449 1_565
Cl2 Nb2 2.670549 1_555
Cl3 Nb5 2.670313 1_655
Cl3 Nb3 2.670466 1_545
Cl3 Nb4 2.670519 1_555
Cl4 Nb0 2.550321 1_565
Cl4 Nb2 2.550540 1_555
Cl5 Nb1 2.550180 1_455
Cl5 Nb0 2.550494 1_565
Cl6 Nb1 2.550232 1_455
Cl6 Nb2 2.550509 1_555
Cl7 Nb5 2.550286 1_655
Cl7 Nb3 2.550378 1_545
Cl8 Nb3 2.550389 1_545
Cl8 Nb4 2.550405 1_555
Cl9 Nb5 2.550191 1_655
Cl9 Nb4 2.550521 1_555
Cl10 Nb2 2.446877 1_555
Cl10 Nb0 2.446878 1_555
Cl11 Nb0 2.446773 1_555
Cl11 Nb1 2.446802 1_555
Cl12 Nb1 2.446803 1_555
Cl12 Nb2 2.446863 1_555
Cl13 Nb5 2.446763 1_555
Cl13 Nb3 2.446788 1_555
Cl14 Nb3 2.446788 1_555
Cl14 Nb4 2.446857 1_555
Cl15 Nb4 2.446777 1_555
Cl15 Nb5 2.446779 1_555
