# generated using pymatgen
data_Er2Co17
_symmetry_space_group_name_H-M   'P 1'
_cell_length_a   8.22058090
_cell_length_b   8.22054068
_cell_length_c   8.03429403
_cell_angle_alpha   89.99986695
_cell_angle_beta   89.99995342
_cell_angle_gamma   120.00050116
_symmetry_Int_Tables_number   1
_chemical_formula_structural   Er2Co17
_chemical_formula_sum   'Er4 Co34'
_cell_volume   470.19613033
_cell_formula_units_Z   2
loop_
 _symmetry_equiv_pos_site_id
 _symmetry_equiv_pos_as_xyz
  1  'x, y, z'
loop_
 _atom_site_type_symbol
 _atom_site_label
 _atom_site_symmetry_multiplicity
 _atom_site_fract_x
 _atom_site_fract_y
 _atom_site_fract_z
 _atom_site_occupancy
  Er  Er0  1  -0.00000132  -0.00000372  0.24998097  1
  Er  Er1  1  0.00000263  0.00000522  0.74999131  1
  Er  Er2  1  0.33332781  0.66664911  0.75005846  1
  Er  Er3  1  0.66666447  0.33332570  0.24995241  1
  Co  Co0  1  0.50000308  0.00000432  0.00001210  1
  Co  Co1  1  0.49998492  0.50000740  0.49999041  1
  Co  Co2  1  0.00001176  0.49999769  0.49999260  1
  Co  Co3  1  -0.00000406  0.49999134  0.00001136  1
  Co  Co4  1  0.50000124  0.50000401  0.00001543  1
  Co  Co5  1  0.49999617  -0.00000958  0.49999129  1
  Co  Co6  1  0.33014094  0.95722815  0.25006837  1
  Co  Co7  1  0.37292701  0.33015371  0.74992879  1
  Co  Co8  1  0.95722353  0.62706511  0.74993331  1
  Co  Co9  1  0.04278122  0.37291133  0.25006693  1
  Co  Co10  1  0.62708113  0.66986331  0.25006549  1
  Co  Co11  1  0.37292847  0.04279211  0.74992847  1
  Co  Co12  1  0.66984129  0.62707745  0.74993205  1
  Co  Co13  1  0.66987587  0.04279772  0.74992829  1
  Co  Co14  1  0.95721104  0.33013903  0.74992752  1
  Co  Co15  1  0.04276252  0.66984631  0.25006614  1
  Co  Co16  1  0.62710039  0.95723330  0.25006771  1
  Co  Co17  1  0.33012916  0.37292549  0.25006692  1
  Co  Co18  1  0.16550191  0.33101477  0.98254227  1
  Co  Co19  1  0.83451199  0.16551593  0.48252659  1
  Co  Co20  1  0.33100216  0.16551930  0.48252771  1
  Co  Co21  1  0.66898610  0.83449665  0.98253184  1
  Co  Co22  1  0.16550428  0.83448591  0.98252689  1
  Co  Co23  1  0.83448120  0.66897883  0.01747058  1
  Co  Co24  1  0.83450151  0.16552888  0.01746077  1
  Co  Co25  1  0.83449190  0.66899616  0.48252538  1
  Co  Co26  1  0.33102589  0.16553432  0.01746204  1
  Co  Co27  1  0.66898047  0.83449101  0.51746157  1
  Co  Co28  1  0.16550478  0.33101749  0.51745460  1
  Co  Co29  1  0.16550755  0.83448492  0.51746565  1
  Co  Co30  1  0.33332458  0.66662163  0.10830248  1
  Co  Co31  1  0.66668517  0.33334914  0.60808174  1
  Co  Co32  1  0.66668148  0.33334530  0.89175251  1
  Co  Co33  1  0.33331877  0.66661626  0.39193106  1
loop_
_geom_bond_atom_site_label_1
_geom_bond_atom_site_label_2
_geom_bond_distance
_geom_bond_site_symmetry_2
Co0 Co6 2.370366 1_545
Co0 Co16 2.370398 1_545
Co0 Co11 2.370543 1_554
Co0 Co13 2.370578 1_554
Co0 Co21 2.385498 1_544
Co0 Co24 2.385525 1_555
Co0 Co22 2.385545 1_544
Co0 Co26 2.385600 1_555
Co0 Co32 2.527482 1_554
Co0 Co30 2.527845 1_545
Co0 Er3 3.108609 1_555
Co0 Er2 3.108862 1_544
Co1 Co17 2.369438 1_555
Co1 Co10 2.369458 1_555
Co1 Co7 2.369496 1_555
Co1 Co12 2.369550 1_555
Co1 Co28 2.385403 1_555
Co1 Co27 2.385420 1_555
Co1 Co20 2.385447 1_555
Co1 Co25 2.385593 1_555
Co1 Co33 2.526511 1_555
Co1 Co31 2.527158 1_555
Co1 Er2 3.109164 1_555
Co1 Er3 3.109348 1_555
Co2 Co9 2.369461 1_555
Co2 Co8 2.369541 1_455
Co2 Co28 2.385365 1_555
Co2 Co29 2.385447 1_555
Co2 Co25 2.385688 1_455
Co2 Co33 2.526719 1_555
Co2 Co31 2.526926 1_455
Co2 Er2 3.109239 1_555
Co2 Er3 3.109276 1_455
Co3 Co9 2.370363 1_555
Co3 Co8 2.370451 1_454
Co3 Co32 2.527318 1_454
Co3 Co30 2.527502 1_555
Co3 Er3 3.108668 1_455
Co3 Er2 3.108732 1_554
Co4 Co7 2.370522 1_554
Co4 Er2 3.108692 1_554
Co4 Er3 3.108713 1_555
Co5 Co6 2.369449 1_545
Co5 Er3 3.109187 1_555
Co5 Er2 3.109366 1_545
Co6 Er0 2.905748 1_565
Co6 Er3 2.942567 1_565
Co7 Er1 2.905808 1_555
Co7 Er2 2.942477 1_555
Co8 Er1 2.905935 1_665
Co8 Er2 2.942617 1_655
Co9 Er0 2.905719 1_555
Co9 Er3 2.942714 1_455
Co10 Co16 2.362258 1_555
Co10 Co4 2.370307 1_555
Co10 Co17 2.441035 1_555
Co10 Co27 2.469689 1_555
Co10 Co21 2.470661 1_554
Co10 Co25 2.531301 1_555
Co10 Co23 2.532088 1_555
Co10 Co30 2.658026 1_555
Co10 Co33 2.658401 1_555
Co10 Er0 2.905723 1_665
Co10 Er3 2.942747 1_555
Co11 Co7 2.362274 1_555
Co11 Co5 2.369559 1_555
Co11 Co13 2.441057 1_555
Co11 Co20 2.469792 1_555
Co11 Co26 2.470716 1_556
Co11 Co29 2.531419 1_545
Co11 Co22 2.532221 1_545
Co11 Co32 2.658344 1_555
Co11 Co31 2.658443 1_555
Co11 Er1 2.905808 1_555
Co11 Er2 2.942862 1_545
Co12 Co8 2.362500 1_555
Co12 Co4 2.370463 1_556
Co12 Co7 2.440822 1_555
Co12 Co25 2.469831 1_555
Co12 Co23 2.470733 1_556
Co12 Co27 2.531352 1_555
Co12 Co21 2.532140 1_555
Co12 Co32 2.658328 1_555
Co12 Co31 2.658420 1_555
Co12 Er1 2.905864 1_665
Co12 Er2 2.942506 1_555
Co13 Co14 2.362064 1_555
Co13 Co5 2.369594 1_555
Co13 Co19 2.469735 1_555
Co13 Co24 2.470640 1_556
Co13 Co27 2.531419 1_545
Co13 Co21 2.532209 1_545
Co13 Co32 2.658293 1_555
Co13 Co31 2.658379 1_555
Co13 Er1 2.905739 1_655
Co13 Er2 2.942895 1_545
Co14 Co2 2.369490 1_655
Co14 Co3 2.370503 1_656
Co14 Co8 2.440842 1_555
Co14 Co19 2.469677 1_555
Co14 Co24 2.470569 1_556
Co14 Co28 2.531432 1_655
Co14 Co18 2.532267 1_655
Co14 Co32 2.658214 1_555
Co14 Co31 2.658274 1_555
Co14 Er1 2.905780 1_655
Co14 Er2 2.942616 1_655
Co15 Co6 2.362408 1_555
Co15 Co2 2.369450 1_555
Co15 Co3 2.370338 1_555
Co15 Co9 2.441043 1_555
Co15 Co29 2.469761 1_555
Co15 Co22 2.470730 1_554
Co15 Co25 2.531301 1_455
Co15 Co23 2.532123 1_455
Co15 Co30 2.658313 1_555
Co15 Co33 2.658641 1_555
Co15 Er0 2.905778 1_565
Co15 Er3 2.942563 1_455
Co16 Co5 2.369486 1_565
Co16 Co6 2.441158 1_555
Co16 Co27 2.469673 1_555
Co16 Co21 2.470663 1_554
Co16 Co19 2.531301 1_565
Co16 Co24 2.532178 1_565
Co16 Co30 2.658441 1_555
Co16 Co33 2.658814 1_555
Co16 Er0 2.905663 1_665
Co16 Er3 2.942572 1_565
Co17 Co9 2.362109 1_555
Co17 Co4 2.370349 1_555
Co17 Co28 2.469607 1_555
Co17 Co18 2.470576 1_554
Co17 Co20 2.531287 1_555
Co17 Co26 2.532130 1_555
Co17 Co30 2.657737 1_555
Co17 Co33 2.658067 1_555
Co17 Er0 2.905768 1_555
Co17 Er3 2.942819 1_555
Co18 Co24 2.373097 1_456
Co18 Co26 2.373139 1_556
Co18 Co3 2.385434 1_556
Co18 Co4 2.385544 1_556
Co18 Co9 2.470552 1_556
Co18 Co7 2.532272 1_555
Co18 Co30 2.594104 1_556
Co18 Er1 3.007328 1_555
Co18 Er2 3.032855 1_555
Co18 Er0 3.189081 1_556
Co19 Co28 2.373054 1_655
Co19 Co27 2.373275 1_545
Co19 Co2 2.385404 1_655
Co19 Co5 2.385656 1_555
Co19 Co9 2.531216 1_655
Co19 Co31 2.593832 1_555
Co19 Er0 3.007299 1_655
Co19 Er3 3.033453 1_555
Co19 Er1 3.189153 1_655
Co20 Co28 2.373084 1_555
Co20 Co29 2.373344 1_545
Co20 Co5 2.385718 1_555
Co20 Co7 2.469723 1_555
Co20 Co6 2.531383 1_545
Co20 Co31 2.593969 1_555
Co20 Er0 3.007281 1_555
Co20 Er3 3.033475 1_555
Co20 Er1 3.189126 1_555
Co21 Co23 2.373217 1_556
Co21 Co24 2.373322 1_566
Co21 Co4 2.385489 1_556
Co21 Co30 2.594501 1_556
Co21 Er1 3.007316 1_665
Co21 Er2 3.032955 1_555
Co21 Er0 3.189124 1_666
Co22 Co23 2.373282 1_456
Co22 Co26 2.373443 1_566
Co22 Co3 2.385503 1_556
Co22 Co6 2.470746 1_556
Co22 Co8 2.532120 1_455
Co22 Co30 2.594680 1_556
Co22 Er1 3.007328 1_565
Co22 Er2 3.032950 1_555
Co22 Er0 3.189175 1_566
Co23 Co4 2.385397 1_555
Co23 Co3 2.385570 1_655
Co23 Co8 2.470774 1_554
Co23 Co32 2.594147 1_554
Co23 Er0 3.007170 1_665
Co23 Er3 3.032951 1_555
Co23 Er1 3.189342 1_664
Co24 Co3 2.385258 1_655
Co24 Co9 2.532086 1_655
Co24 Co32 2.594154 1_554
Co24 Er0 3.007300 1_655
Co24 Er3 3.032916 1_555
Co24 Er1 3.189305 1_654
Co25 Co27 2.373169 1_555
Co25 Co29 2.373227 1_655
Co25 Co8 2.469877 1_555
Co25 Co31 2.593724 1_555
Co25 Er0 3.007234 1_665
Co25 Er3 3.033508 1_555
Co25 Er1 3.189189 1_665
Co26 Co4 2.385308 1_555
Co26 Co7 2.470608 1_554
Co26 Co6 2.532267 1_545
Co26 Co32 2.594271 1_554
Co26 Er0 3.007268 1_555
Co26 Er3 3.032929 1_555
Co26 Er1 3.189297 1_554
Co27 Co5 2.385443 1_565
Co27 Co33 2.593756 1_555
Co27 Er1 3.007300 1_665
Co27 Er2 3.033528 1_555
Co27 Er0 3.189317 1_665
Co28 Co9 2.469598 1_555
Co28 Co7 2.531439 1_555
Co28 Co33 2.593305 1_555
Co28 Er1 3.007263 1_555
Co28 Er2 3.033443 1_555
Co28 Er0 3.189295 1_555
Co29 Co5 2.385468 1_565
Co29 Co6 2.469724 1_555
Co29 Co8 2.531372 1_455
Co29 Co33 2.593898 1_555
Co29 Er1 3.007305 1_565
Co29 Er2 3.033539 1_555
Co29 Er0 3.189360 1_565
Co30 Co33 2.278755 1_555
Co30 Co4 2.527271 1_555
Co30 Co9 2.657935 1_555
Co30 Co6 2.658489 1_555
Co30 Er2 2.878238 1_554
Co31 Co32 2.279094 1_555
Co31 Co5 2.527138 1_555
Co31 Co8 2.658244 1_555
Co31 Co7 2.658495 1_555
Co31 Er3 2.877316 1_555
Co32 Co4 2.527503 1_556
Co32 Co8 2.658154 1_555
Co32 Co7 2.658403 1_555
Co32 Er3 2.877883 1_556
Co33 Co5 2.527158 1_565
Co33 Co9 2.658243 1_555
Co33 Co6 2.658835 1_555
Co33 Er2 2.877301 1_555
