# generated using pymatgen
data_Na6Zr4Si5SO24
_symmetry_space_group_name_H-M   'P 1'
_cell_length_a   9.23115049
_cell_length_b   9.23059318
_cell_length_c   23.09166093
_cell_angle_alpha   89.93181113
_cell_angle_beta   89.97598489
_cell_angle_gamma   119.93578160
_symmetry_Int_Tables_number   1
_chemical_formula_structural   Na6Zr4Si5SO24
_chemical_formula_sum   'Na18 Zr12 Si15 S3 O72'
_cell_volume   1705.10572431
_cell_formula_units_Z   3
loop_
 _symmetry_equiv_pos_site_id
 _symmetry_equiv_pos_as_xyz
  1  'x, y, z'
loop_
 _atom_site_type_symbol
 _atom_site_label
 _atom_site_symmetry_multiplicity
 _atom_site_fract_x
 _atom_site_fract_y
 _atom_site_fract_z
 _atom_site_occupancy
  Na  Na0  1  0.64013436  0.00355730  0.25200955  1
  Na  Na1  1  0.36052267  0.36326903  0.24746159  1
  Na  Na2  1  0.00002448  0.63447681  0.25039554  1
  Na  Na3  1  0.63535531  0.63466930  0.74800185  1
  Na  Na4  1  0.99670019  0.36268452  0.75022556  1
  Na  Na5  1  0.36772750  0.00411502  0.75040669  1
  Na  Na6  1  0.30107266  0.33222548  0.58527587  1
  Na  Na7  1  0.02928893  0.69922567  0.58315162  1
  Na  Na8  1  0.67091190  0.96965348  0.58339157  1
  Na  Na9  1  0.03894000  0.33579918  0.08663381  1
  Na  Na10  1  0.97707111  0.66719754  0.91707946  1
  Na  Na11  1  0.33290496  0.02582088  0.41663144  1
  Na  Na12  1  0.98292119  0.98913061  0.49840938  1
  Na  Na13  1  0.02060932  0.00777639  0.00010723  1
  Na  Na14  1  0.66070959  0.31528758  0.83418178  1
  Na  Na15  1  0.68475722  0.33847843  0.33593772  1
  Na  Na16  1  0.33568962  0.66456925  0.16539847  1
  Na  Na17  1  0.33503236  0.66582491  0.66680904  1
  Zr  Zr0  1  0.98580409  0.98984854  0.35171888  1
  Zr  Zr1  1  0.01148579  0.01453159  0.85221857  1
  Zr  Zr2  1  0.99979997  0.99950817  0.64896704  1
  Zr  Zr3  1  0.00928111  0.99374962  0.14792878  1
  Zr  Zr4  1  0.66848078  0.33391275  0.68449321  1
  Zr  Zr5  1  0.66617622  0.34304593  0.18530537  1
  Zr  Zr6  1  0.65634906  0.32911203  0.98054572  1
  Zr  Zr7  1  0.68134091  0.33699438  0.48157857  1
  Zr  Zr8  1  0.31705059  0.65857515  0.01921625  1
  Zr  Zr9  1  0.33665265  0.67789426  0.51876104  1
  Zr  Zr10  1  0.32948248  0.67211591  0.31456793  1
  Zr  Zr11  1  0.32519871  0.66996706  0.81482580  1
  Si  Si0  1  0.29504905  0.00283239  0.25284115  1
  Si  Si1  1  0.70656343  0.70929983  0.24863388  1
  Si  Si2  1  0.99948499  0.28971303  0.24819881  1
  Si  Si3  1  0.29678471  0.29662307  0.74869482  1
  Si  Si4  1  0.99689142  0.70691691  0.75163859  1
  Si  Si5  1  0.70721697  0.99877280  0.75021655  1
  Si  Si6  1  0.96374322  0.33292066  0.58441676  1
  Si  Si7  1  0.37412675  0.04383460  0.58200932  1
  Si  Si8  1  0.66579121  0.62519975  0.58347161  1
  Si  Si9  1  0.95609222  0.62822374  0.08162290  1
  Si  Si10  1  0.37026763  0.33487984  0.08376722  1
  Si  Si11  1  0.03341467  0.36759140  0.91712095  1
  Si  Si12  1  0.33388243  0.96253707  0.91633579  1
  Si  Si13  1  0.63072822  0.96468535  0.41664430  1
  Si  Si14  1  0.03536838  0.66760347  0.41638821  1
  S  S0  1  0.66600563  0.04111826  0.08344295  1
  S  S1  1  0.62503008  0.66728925  0.91671252  1
  S  S2  1  0.33322096  0.37341875  0.41677385  1
  O  O0  1  0.21417720  0.03907504  0.30994753  1
  O  O1  1  0.82926394  0.79113772  0.30495197  1
  O  O2  1  0.96732598  0.16543055  0.30325391  1
  O  O3  1  0.20587575  0.17050475  0.80356904  1
  O  O4  1  0.96634171  0.79299545  0.80841967  1
  O  O5  1  0.83373782  0.03126108  0.80407055  1
  O  O6  1  0.78882738  0.96704023  0.69137398  1
  O  O7  1  0.17877364  0.21447457  0.69117079  1
  O  O8  1  0.03158509  0.82428595  0.69382190  1
  O  O9  1  0.79369315  0.83433503  0.19387053  1
  O  O10  1  0.03166881  0.20820245  0.18995546  1
  O  O11  1  0.16971579  0.96459630  0.19741983  1
  O  O12  1  0.88210271  0.36944475  0.64194855  1
  O  O13  1  0.49211621  0.12729481  0.63947087  1
  O  O14  1  0.63359504  0.51159578  0.64224816  1
  O  O15  1  0.87169907  0.50790772  0.13933181  1
  O  O16  1  0.64125071  0.11607272  0.13712456  1
  O  O17  1  0.47952545  0.35289075  0.14263887  1
  O  O18  1  0.46836287  0.30937703  0.02920412  1
  O  O19  1  0.84536853  0.53075644  0.02461465  1
  O  O20  1  0.68959760  0.15018680  0.03274433  1
  O  O21  1  0.45979264  0.16049449  0.52504038  1
  O  O22  1  0.69778047  0.53106682  0.52944541  1
  O  O23  1  0.83734267  0.29777491  0.52972127  1
  O  O24  1  0.54052735  0.68558074  0.96789884  1
  O  O25  1  0.15105942  0.46073906  0.97439188  1
  O  O26  1  0.31174857  0.83737088  0.97055487  1
  O  O27  1  0.53906217  0.84986070  0.47453970  1
  O  O28  1  0.31460504  0.45559921  0.46921319  1
  O  O29  1  0.15399763  0.68981289  0.47329252  1
  O  O30  1  0.12741310  0.64416185  0.35862455  1
  O  O31  1  0.51192546  0.86822248  0.35982443  1
  O  O32  1  0.35204142  0.47404216  0.36406763  1
  O  O33  1  0.12813675  0.48821550  0.86023688  1
  O  O34  1  0.35855903  0.87612705  0.85713311  1
  O  O35  1  0.52708984  0.64571638  0.86306238  1
  O  O36  1  0.03918186  0.84776982  0.41257719  1
  O  O37  1  0.81730426  0.98704003  0.41249087  1
  O  O38  1  0.18286877  0.20415632  0.41290323  1
  O  O39  1  0.01361456  0.18236555  0.91285755  1
  O  O40  1  0.15459893  0.96103694  0.91270452  1
  O  O41  1  0.79558817  0.81500607  0.91263750  1
  O  O42  1  0.97982058  0.16474156  0.58858437  1
  O  O43  1  0.18691802  0.02082331  0.58824473  1
  O  O44  1  0.83264326  0.81180774  0.58821715  1
  O  O45  1  0.97428278  0.81265440  0.08700835  1
  O  O46  1  0.82250642  0.03316926  0.08755070  1
  O  O47  1  0.17762379  0.17467579  0.08726319  1
  O  O48  1  0.68635797  0.16519667  0.74524825  1
  O  O49  1  0.48105346  0.31220215  0.74438617  1
  O  O50  1  0.83242215  0.52011173  0.74545199  1
  O  O51  1  0.68960218  0.52295884  0.24323813  1
  O  O52  1  0.83195389  0.30955555  0.24304465  1
  O  O53  1  0.48256373  0.16393600  0.24351884  1
  O  O54  1  0.64481601  0.51571330  0.92131410  1
  O  O55  1  0.85548694  0.36725277  0.92242433  1
  O  O56  1  0.49814227  0.14843422  0.92237462  1
  O  O57  1  0.62742795  0.14148901  0.42051595  1
  O  O58  1  0.48347792  0.35391273  0.42053558  1
  O  O59  1  0.84933367  0.50315434  0.42057047  1
  O  O60  1  0.35377429  0.50433198  0.07819443  1
  O  O61  1  0.14185402  0.63953593  0.07797420  1
  O  O62  1  0.51891841  0.87256442  0.07656756  1
  O  O63  1  0.35540986  0.85580059  0.57777719  1
  O  O64  1  0.49665670  0.64081159  0.57667837  1
  O  O65  1  0.14923388  0.49797290  0.57628757  1
  O  O66  1  0.31286987  0.83340105  0.25621651  1
  O  O67  1  0.51823180  0.68200396  0.25682529  1
  O  O68  1  0.16754561  0.47565727  0.25638403  1
  O  O69  1  0.31739852  0.48246533  0.75684378  1
  O  O70  1  0.16635872  0.68842948  0.75563064  1
  O  O71  1  0.52266904  0.82969947  0.75686041  1
loop_
_geom_bond_atom_site_label_1
_geom_bond_atom_site_label_2
_geom_bond_distance
_geom_bond_site_symmetry_2
Na0 O52 2.482517 1_555
Na0 O53 2.548415 1_555
Na0 O67 2.598848 1_545
Na0 O66 2.620423 1_545
Na0 O31 2.770202 1_545
Na0 O16 2.845927 1_555
Na0 O2 2.873738 1_555
Na0 O9 2.909461 1_545
Na1 O68 2.477239 1_555
Na1 O67 2.559121 1_555
Na1 O53 2.594626 1_555
Na1 O51 2.634525 1_555
Na1 O17 2.679230 1_555
Na1 O32 2.896231 1_555
Na1 O10 2.949369 1_555
Na1 O0 2.969063 1_555
Na2 O51 2.520939 1_455
Na2 O66 2.537360 1_555
Na2 O52 2.605465 1_455
Na2 O68 2.611896 1_555
Na2 O30 2.744967 1_555
Na2 O15 2.823829 1_455
Na2 O1 2.905289 1_455
Na2 O11 2.908805 1_555
Na3 O71 2.496900 1_555
Na3 O50 2.520102 1_555
Na3 O69 2.552170 1_555
Na3 O49 2.581651 1_555
Na3 O14 2.691202 1_555
Na3 O35 2.858091 1_555
Na3 O6 2.963169 1_555
Na3 O4 2.994905 1_555
Na4 O48 2.516349 1_555
Na4 O50 2.573446 1_555
Na4 O69 2.596888 1_655
Na4 O70 2.609681 1_655
Na4 O12 2.728037 1_555
Na4 O33 2.806161 1_655
Na4 O5 2.926451 1_555
Na4 O7 2.975491 1_655
Na5 O49 2.496151 1_555
Na5 O48 2.551623 1_555
Na5 O70 2.560068 1_545
Na5 O71 2.637754 1_545
Na5 O34 2.714718 1_545
Na5 O13 2.803768 1_555
Na5 O3 2.896794 1_555
Na5 O8 2.993157 1_545
Na6 O64 2.505650 1_555
Na6 O43 2.520679 1_555
Na6 O65 2.547194 1_555
Na6 O42 2.571775 1_455
Na6 O7 2.683660 1_555
Na6 O28 2.888910 1_555
Na6 O14 2.971614 1_555
Na6 O21 2.985934 1_555
Na7 O44 2.504332 1_455
Na7 O43 2.575501 1_565
Na7 O65 2.599136 1_555
Na7 O63 2.612261 1_555
Na7 O8 2.801175 1_555
Na7 O29 2.804680 1_555
Na7 O22 2.929014 1_455
Na7 O12 2.969262 1_455
Na8 O42 2.502880 1_565
Na8 O44 2.556372 1_555
Na8 O63 2.559183 1_555
Na8 O64 2.636924 1_555
Na8 O6 2.726032 1_555
Na8 O27 2.772738 1_555
Na8 O23 2.900855 1_565
Na8 O13 2.986323 1_565
Na9 O47 2.398205 1_555
Na9 O61 2.478554 1_555
Na9 O46 2.495014 1_455
Na9 O60 2.528029 1_555
Na9 O10 2.645439 1_555
Na9 O25 2.813942 1_554
Na10 O40 2.369684 1_655
Na10 O55 2.416218 1_555
Na10 O41 2.638124 1_555
Na10 O54 2.662878 1_555
Na10 O19 2.773481 1_556
Na10 O4 2.786035 1_555
Na10 O33 2.949585 1_655
Na10 O26 2.949797 1_655
Na11 O36 2.369517 1_545
Na11 O57 2.375512 1_555
Na11 O38 2.628819 1_555
Na11 O58 2.628932 1_555
Na11 O0 2.724045 1_555
Na11 O21 2.782204 1_555
Na12 O37 2.499431 1_555
Na12 O36 2.565608 1_655
Na12 O44 2.574396 1_555
Na12 O42 2.649276 1_565
Na12 O43 2.718450 1_665
Na12 O38 2.752472 1_665
Na13 O47 2.511153 1_555
Na13 O40 2.514360 1_544
Na13 O45 2.583711 1_445
Na13 O39 2.599368 1_554
Na13 O41 2.807805 1_444
Na13 O46 2.811087 1_455
Na14 O56 2.540613 1_555
Na14 O48 2.554718 1_555
Na14 O55 2.599935 1_555
Na14 O49 2.647002 1_555
Na14 O50 2.698551 1_555
Na14 O54 2.787828 1_555
Na15 O59 2.478445 1_555
Na15 O57 2.535954 1_555
Na15 O52 2.622945 1_555
Na15 O51 2.720127 1_555
Na15 O58 2.747837 1_555
Na15 O53 2.764799 1_555
Na16 O60 2.554162 1_555
Na16 O61 2.630969 1_555
Na16 O67 2.656250 1_555
Na16 O68 2.674203 1_555
Na16 O66 2.684416 1_555
Na16 O62 2.738842 1_555
Na17 O69 2.632477 1_555
Na17 O64 2.636917 1_555
Na17 O70 2.645241 1_555
Na17 O63 2.645567 1_555
Na17 O71 2.647241 1_555
Na17 O65 2.658957 1_555
O0 Si0 1.630230 1_555
O0 Zr0 2.149963 1_445
O1 Si1 1.641472 1_555
O1 Zr0 1.994842 1_555
O2 Si2 1.636077 1_555
O2 Zr0 2.044523 1_545
O3 Si3 1.638801 1_555
O3 Zr1 1.992694 1_555
O4 Si4 1.629669 1_555
O4 Zr1 2.129080 1_665
O5 Si5 1.628811 1_545
O5 Zr1 2.050921 1_655
O6 Si5 1.649223 1_555
O6 Zr2 2.063188 1_555
O7 Si3 1.644792 1_555
O7 Zr2 2.085824 1_445
O8 Si4 1.645796 1_455
O8 Zr2 2.060299 1_455
O9 Si1 1.627056 1_555
O9 Zr3 2.079202 1_655
O10 Si2 1.639628 1_455
O10 Zr3 2.121197 1_545
O11 Si0 1.641867 1_565
O11 Zr3 1.992557 1_555
O12 Si6 1.643280 1_555
O12 Zr4 2.076901 1_555
O13 Si7 1.645177 1_555
O13 Zr4 2.067843 1_555
O14 Si8 1.647817 1_555
O14 Zr4 2.066137 1_555
O15 Si9 1.657774 1_555
O15 Zr5 2.038421 1_555
O16 S0 1.492352 1_555
O16 Zr5 2.281410 1_555
O17 Si10 1.651450 1_555
O17 Zr5 2.026122 1_555
O18 Si10 1.635661 1_555
O18 Zr6 1.997351 1_554
O19 Si9 1.635005 1_555
O19 Zr6 2.075846 1_554
O20 S0 1.486518 1_555
O20 Zr6 2.185477 1_554
O21 Si7 1.631365 1_555
O21 Zr7 2.124392 1_555
O22 Si8 1.630013 1_555
O22 Zr7 2.046320 1_555
O23 Si6 1.639001 1_555
O23 Zr7 1.990339 1_555
O24 S1 1.471468 1_555
O24 Zr8 2.281694 1_556
O25 Si11 1.655170 1_555
O25 Zr8 1.991774 1_556
O26 Si12 1.644647 1_555
O26 Zr8 2.016203 1_556
O27 Si13 1.651444 1_555
O27 Zr9 2.021878 1_555
O28 S2 1.484382 1_555
O28 Zr9 2.269321 1_555
O29 Si14 1.657003 1_555
O29 Zr9 2.035638 1_555
O30 Si14 1.652630 1_555
O30 Zr10 2.024458 1_555
O31 Si13 1.657241 1_555
O31 Zr10 2.041699 1_555
O32 S2 1.486683 1_555
O32 Zr10 2.251207 1_555
O33 Si11 1.659389 1_555
O33 Zr11 2.042453 1_555
O34 Si12 1.655501 1_555
O34 Zr11 2.022467 1_555
O35 S1 1.487849 1_555
O35 Zr11 2.276323 1_555
O36 Si14 1.648003 1_555
O36 Zr0 2.139818 1_455
O37 Si13 1.631945 1_555
O37 Zr0 2.085006 1_555
O38 S2 1.487131 1_555
O38 Zr0 2.373989 1_445
O39 Si11 1.629370 1_555
O39 Zr1 2.082293 1_555
O40 Si12 1.650294 1_555
O40 Zr1 2.142648 1_565
O41 S1 1.484543 1_555
O41 Zr1 2.374578 1_665
O42 Si6 1.634263 1_555
O42 Zr2 2.140172 1_545
O43 Si7 1.638816 1_555
O43 Zr2 2.155587 1_445
O44 Si8 1.644394 1_555
O44 Zr2 2.165658 1_555
O45 Si9 1.630047 1_555
O45 Zr3 2.084372 1_655
O46 S0 1.485726 1_555
O46 Zr3 2.382415 1_645
O47 Si10 1.652481 1_555
O47 Zr3 2.137478 1_545
O48 Si5 1.644671 1_545
O48 Zr4 2.161550 1_555
O49 Si3 1.636982 1_555
O49 Zr4 2.144223 1_555
O50 Si4 1.639106 1_555
O50 Zr4 2.153435 1_555
O51 Si1 1.652365 1_555
O51 Zr5 2.059469 1_555
O52 Si2 1.649908 1_555
O52 Zr5 2.165180 1_555
O53 Si0 1.638247 1_555
O53 Zr5 2.146911 1_555
O54 S1 1.502314 1_555
O54 Zr6 2.241970 1_555
O55 Si11 1.645432 1_655
O55 Zr6 2.157627 1_555
O56 Si12 1.633093 1_545
O56 Zr6 2.072369 1_555
O57 Si13 1.649946 1_545
O57 Zr7 2.145424 1_555
O58 S2 1.487675 1_555
O58 Zr7 2.373552 1_555
O59 Si14 1.631092 1_655
O59 Zr7 2.088321 1_555
O60 Si10 1.650305 1_555
O60 Zr8 2.115249 1_555
O61 Si9 1.667235 1_455
O61 Zr8 2.049710 1_555
O62 S0 1.477098 1_565
O62 Zr8 2.337226 1_555
O63 Si7 1.659232 1_565
O63 Zr9 2.075004 1_555
O64 Si8 1.645527 1_555
O64 Zr9 2.143030 1_555
O65 Si6 1.638204 1_455
O65 Zr9 2.154323 1_555
O66 Si0 1.653960 1_565
O66 Zr10 2.068514 1_555
O67 Si1 1.638333 1_555
O67 Zr10 2.158963 1_555
O68 Si2 1.652848 1_455
O68 Zr10 2.151795 1_555
O69 Si3 1.639920 1_555
O69 Zr11 2.162073 1_555
O70 Si4 1.658742 1_455
O70 Zr11 2.073158 1_555
O71 Si5 1.645310 1_555
O71 Zr11 2.144580 1_555
