# generated using pymatgen
data_Na14Mg6Si5Sn2S7O48
_symmetry_space_group_name_H-M   'P 1'
_cell_length_a   18.17775133
_cell_length_b   9.09737612
_cell_length_c   22.37700172
_cell_angle_alpha   90.00327928
_cell_angle_beta   89.87611966
_cell_angle_gamma   120.17641063
_symmetry_Int_Tables_number   1
_chemical_formula_structural   Na14Mg6Si5Sn2S7O48
_chemical_formula_sum   'Na42 Mg18 Si15 Sn6 S21 O144'
_cell_volume   3198.98901811
_cell_formula_units_Z   3
loop_
 _symmetry_equiv_pos_site_id
 _symmetry_equiv_pos_as_xyz
  1  'x, y, z'
loop_
 _atom_site_type_symbol
 _atom_site_label
 _atom_site_symmetry_multiplicity
 _atom_site_fract_x
 _atom_site_fract_y
 _atom_site_fract_z
 _atom_site_occupancy
  Na  Na0  1  0.81051532  0.00307041  0.25012160  1
  Na  Na1  1  0.68670347  0.35501547  0.24501484  1
  Na  Na2  1  0.50481821  0.64618583  0.24728116  1
  Na  Na3  1  0.30840130  0.61582318  0.75052172  1
  Na  Na4  1  0.00486960  0.37810379  0.74689284  1
  Na  Na5  1  0.17498281  0.99847390  0.74442075  1
  Na  Na6  1  0.15152664  0.32530909  0.57808390  1
  Na  Na7  1  0.66322890  0.35379402  0.58293840  1
  Na  Na8  1  0.01614045  0.70205955  0.57857629  1
  Na  Na9  1  0.52389496  0.69012915  0.58641125  1
  Na  Na10  1  0.32721038  0.98648469  0.58353888  1
  Na  Na11  1  0.82519746  0.95554202  0.58659544  1
  Na  Na12  1  0.15949904  0.96778327  0.07895772  1
  Na  Na13  1  0.65496058  0.98180501  0.07249701  1
  Na  Na14  1  0.32197723  0.69232974  0.08258259  1
  Na  Na15  1  0.82937822  0.67100971  0.07962996  1
  Na  Na16  1  0.02415911  0.35846712  0.08315669  1
  Na  Na17  1  0.51584946  0.33021081  0.06958316  1
  Na  Na18  1  0.48979971  0.66574591  0.91856266  1
  Na  Na19  1  0.98213943  0.66461639  0.91418328  1
  Na  Na20  1  0.35569117  0.04805585  0.92336060  1
  Na  Na21  1  0.84390118  0.03688118  0.91346931  1
  Na  Na22  1  0.16727236  0.29590227  0.91597648  1
  Na  Na23  1  0.66176659  0.28682994  0.92484543  1
  Na  Na24  1  0.48225005  0.30476327  0.42736906  1
  Na  Na25  1  0.99023246  0.31505644  0.42187999  1
  Na  Na26  1  0.15999828  0.03400247  0.42856614  1
  Na  Na27  1  0.67012419  0.04167825  0.42169009  1
  Na  Na28  1  0.34135707  0.65023238  0.41789369  1
  Na  Na29  1  0.85675904  0.66349020  0.42643540  1
  Na  Na30  1  0.00560700  0.99121769  0.49965361  1
  Na  Na31  1  0.50604548  0.01343902  0.50515156  1
  Na  Na32  1  0.00603359  0.99847680  0.00014696  1
  Na  Na33  1  0.50579334  0.01976819  0.99435825  1
  Na  Na34  1  0.33686159  0.33261521  0.83161331  1
  Na  Na35  1  0.82993584  0.33440246  0.82735172  1
  Na  Na36  1  0.31978898  0.32547107  0.33396792  1
  Na  Na37  1  0.84046091  0.34403705  0.33346769  1
  Na  Na38  1  0.16678191  0.66947244  0.15682322  1
  Na  Na39  1  0.66718007  0.66262359  0.16314060  1
  Na  Na40  1  0.15876388  0.67153566  0.66973478  1
  Na  Na41  1  0.66928727  0.66634769  0.65840867  1
  Mg  Mg0  1  0.00606772  0.00305248  0.35570958  1
  Mg  Mg1  1  0.50369836  0.00373036  0.34619955  1
  Mg  Mg2  1  0.00343746  0.99326753  0.84032836  1
  Mg  Mg3  1  0.50582683  0.00903460  0.85507753  1
  Mg  Mg4  1  0.33019639  0.31804158  0.68108448  1
  Mg  Mg5  1  0.82959627  0.34346611  0.68266417  1
  Mg  Mg6  1  0.32185587  0.31579510  0.17770583  1
  Mg  Mg7  1  0.83128382  0.34063908  0.18023249  1
  Mg  Mg8  1  0.33285922  0.31723821  0.98659959  1
  Mg  Mg9  1  0.82731821  0.33527210  0.98596192  1
  Mg  Mg10  1  0.32710582  0.32218415  0.48876033  1
  Mg  Mg11  1  0.83503723  0.34855546  0.49052675  1
  Mg  Mg12  1  0.16679595  0.66931526  0.02320118  1
  Mg  Mg13  1  0.66130060  0.65348902  0.01288837  1
  Mg  Mg14  1  0.15859551  0.66501631  0.51560661  1
  Mg  Mg15  1  0.66767594  0.66759187  0.52532251  1
  Mg  Mg16  1  0.66601015  0.67483850  0.31627858  1
  Mg  Mg17  1  0.16054644  0.65692645  0.81194515  1
  Si  Si0  1  0.65042290  0.00082564  0.25198098  1
  Si  Si1  1  0.15144688  0.29924960  0.75150610  1
  Si  Si2  1  0.99540687  0.68851479  0.75485293  1
  Si  Si3  1  0.47721038  0.33535688  0.58210581  1
  Si  Si4  1  0.18555510  0.03047511  0.58364056  1
  Si  Si5  1  0.69053975  0.04513941  0.58258983  1
  Si  Si6  1  0.83481208  0.63302641  0.58346540  1
  Si  Si7  1  0.97726705  0.61851634  0.08247038  1
  Si  Si8  1  0.33473229  0.03882573  0.08478585  1
  Si  Si9  1  0.18909917  0.33803703  0.08169145  1
  Si  Si10  1  0.68652545  0.34264608  0.08540366  1
  Si  Si11  1  0.51449895  0.36696858  0.91741418  1
  Si  Si12  1  0.66943353  0.96660206  0.92020452  1
  Si  Si13  1  0.16978295  0.37276086  0.41970211  1
  Si  Si14  1  0.01360191  0.66173163  0.41763027  1
  Sn  Sn0  1  0.00526208  0.98936831  0.65222271  1
  Sn  Sn1  1  0.50658540  0.01708963  0.64912324  1
  Sn  Sn2  1  0.00632608  0.99701002  0.14835110  1
  Sn  Sn3  1  0.50361503  0.00645914  0.14896320  1
  Sn  Sn4  1  0.16168037  0.65372588  0.32111735  1
  Sn  Sn5  1  0.66410018  0.67188156  0.81971644  1
  S  S0  1  0.15036207  0.99796531  0.25344720  1
  S  S1  1  0.35093349  0.70464281  0.25203818  1
  S  S2  1  0.85486791  0.71015968  0.25283687  1
  S  S3  1  0.00033693  0.29095378  0.25082737  1
  S  S4  1  0.49828934  0.29718978  0.25355715  1
  S  S5  1  0.64881689  0.30189794  0.75361109  1
  S  S6  1  0.50069163  0.71014428  0.75081896  1
  S  S7  1  0.35711939  0.00166523  0.75272115  1
  S  S8  1  0.84918806  0.99299138  0.75214679  1
  S  S9  1  0.97932193  0.33071086  0.58412084  1
  S  S10  1  0.33389816  0.62795189  0.58411395  1
  S  S11  1  0.47894933  0.62433083  0.08568596  1
  S  S12  1  0.83353617  0.03985396  0.08492211  1
  S  S13  1  0.31140504  0.66665097  0.91560514  1
  S  S14  1  0.81546054  0.67206082  0.91736020  1
  S  S15  1  0.01968338  0.37030226  0.91753359  1
  S  S16  1  0.16610565  0.95631874  0.91628485  1
  S  S17  1  0.31693625  0.96146403  0.41537137  1
  S  S18  1  0.81189442  0.95744728  0.41514959  1
  S  S19  1  0.66397094  0.37484075  0.41396476  1
  S  S20  1  0.51974129  0.66852765  0.41558918  1
  O  O0  1  0.10473830  0.01363007  0.30447016  1
  O  O1  1  0.60500138  0.03379870  0.30846841  1
  O  O2  1  0.40355211  0.79216656  0.30522457  1
  O  O3  1  0.90733501  0.80206965  0.30397177  1
  O  O4  1  0.48472040  0.18831124  0.30585345  1
  O  O5  1  0.99078427  0.18485656  0.30287170  1
  O  O6  1  0.10737728  0.18239074  0.81009071  1
  O  O7  1  0.60290772  0.19554764  0.80469291  1
  O  O8  1  0.49127768  0.79687721  0.80305352  1
  O  O9  1  0.98106971  0.77508707  0.81355985  1
  O  O10  1  0.41054803  0.01760032  0.80369015  1
  O  O11  1  0.90092623  0.01296219  0.80587808  1
  O  O12  1  0.39407801  0.96501001  0.69582230  1
  O  O13  1  0.88850972  0.96915617  0.69693029  1
  O  O14  1  0.08463598  0.21364944  0.69192545  1
  O  O15  1  0.59614261  0.23092278  0.69655409  1
  O  O16  1  0.01843610  0.81455073  0.69421409  1
  O  O17  1  0.51207388  0.81347883  0.69419005  1
  O  O18  1  0.39072131  0.80786621  0.19656003  1
  O  O19  1  0.89141872  0.82005472  0.19625180  1
  O  O20  1  0.01123177  0.21018382  0.19413912  1
  O  O21  1  0.51369568  0.22028629  0.19844394  1
  O  O22  1  0.09892727  0.96760921  0.19636468  1
  O  O23  1  0.58302176  0.95357533  0.19280583  1
  O  O24  1  0.43409625  0.37359767  0.63791052  1
  O  O25  1  0.94009781  0.35453272  0.63765375  1
  O  O26  1  0.24173101  0.11267151  0.64310650  1
  O  O27  1  0.75050355  0.13194813  0.63902155  1
  O  O28  1  0.32146167  0.52560005  0.63778006  1
  O  O29  1  0.81587889  0.50810897  0.63847689  1
  O  O30  1  0.44019079  0.52557689  0.14056191  1
  O  O31  1  0.93514395  0.49707324  0.13938975  1
  O  O32  1  0.32103712  0.12661383  0.14235520  1
  O  O33  1  0.82097610  0.11588665  0.13905538  1
  O  O34  1  0.24741244  0.37570551  0.13977582  1
  O  O35  1  0.73986807  0.36923443  0.14624478  1
  O  O36  1  0.22383443  0.28869538  0.02210047  1
  O  O37  1  0.72376407  0.29761045  0.02662552  1
  O  O38  1  0.42762436  0.54612226  0.03176929  1
  O  O39  1  0.92036006  0.55192248  0.02174347  1
  O  O40  1  0.36088665  0.15492597  0.02443145  1
  O  O41  1  0.84933057  0.14447225  0.03101916  1
  O  O42  1  0.22324913  0.14688855  0.52373904  1
  O  O43  1  0.72190378  0.15677279  0.52051713  1
  O  O44  1  0.35068812  0.55634850  0.52978255  1
  O  O45  1  0.85963319  0.56916183  0.52212842  1
  O  O46  1  0.42173888  0.29042544  0.52028254  1
  O  O47  1  0.92866984  0.30658344  0.52920929  1
  O  O48  1  0.27267499  0.69431623  0.96941575  1
  O  O49  1  0.77466900  0.69473083  0.97071241  1
  O  O50  1  0.07342363  0.45029018  0.97066543  1
  O  O51  1  0.57527362  0.44785467  0.97498527  1
  O  O52  1  0.15561386  0.85347249  0.97010330  1
  O  O53  1  0.65415956  0.84704375  0.97824490  1
  O  O54  1  0.27858817  0.85606170  0.46864930  1
  O  O55  1  0.77120918  0.84927297  0.46783401  1
  O  O56  1  0.15607684  0.46602612  0.47650013  1
  O  O57  1  0.65311965  0.45679834  0.46735410  1
  O  O58  1  0.07713957  0.70356068  0.47317013  1
  O  O59  1  0.57406773  0.69653639  0.46805013  1
  O  O60  1  0.05629268  0.62003570  0.35638324  1
  O  O61  1  0.55917054  0.64346447  0.36097859  1
  O  O62  1  0.26163074  0.88297395  0.36095206  1
  O  O63  1  0.75901557  0.87751153  0.36061499  1
  O  O64  1  0.19682095  0.50523367  0.35922382  1
  O  O65  1  0.67422463  0.47781530  0.35952697  1
  O  O66  1  0.05994084  0.47386943  0.86357368  1
  O  O67  1  0.55995785  0.49605367  0.85774173  1
  O  O68  1  0.17718306  0.87495373  0.86256504  1
  O  O69  1  0.69474649  0.88488403  0.86084673  1
  O  O70  1  0.25843943  0.64219117  0.86194752  1
  O  O71  1  0.76061414  0.63935625  0.86283848  1
  O  O72  1  0.00305684  0.82832982  0.40884529  1
  O  O73  1  0.50862815  0.82129805  0.40996123  1
  O  O74  1  0.40251352  0.97682128  0.40712030  1
  O  O75  1  0.89781187  0.97742979  0.40798832  1
  O  O76  1  0.08239237  0.19150719  0.40952782  1
  O  O77  1  0.58430544  0.20141682  0.41029160  1
  O  O78  1  0.00762492  0.19445564  0.91229423  1
  O  O79  1  0.50334343  0.17836806  0.90926455  1
  O  O80  1  0.08823165  0.97448990  0.91358412  1
  O  O81  1  0.58197734  0.97377281  0.91035051  1
  O  O82  1  0.39831703  0.81899694  0.90885406  1
  O  O83  1  0.89974523  0.83042433  0.91139280  1
  O  O84  1  0.48181752  0.15109132  0.58995908  1
  O  O85  1  0.98682100  0.17360829  0.58805741  1
  O  O86  1  0.09024289  0.01998700  0.58675927  1
  O  O87  1  0.58856215  0.01778232  0.58982686  1
  O  O88  1  0.41282254  0.80409607  0.59012124  1
  O  O89  1  0.91931596  0.83380135  0.59088432  1
  O  O90  1  0.48603519  0.79812841  0.08880581  1
  O  O91  1  0.98205598  0.81313486  0.09032886  1
  O  O92  1  0.41996698  0.00782876  0.09221155  1
  O  O93  1  0.91222925  0.02143474  0.09081483  1
  O  O94  1  0.08838600  0.16036784  0.08923281  1
  O  O95  1  0.58946824  0.16323129  0.08914394  1
  O  O96  1  0.34933541  0.15310646  0.74625857  1
  O  O97  1  0.84088218  0.14406013  0.74694014  1
  O  O98  1  0.24606826  0.31748982  0.74403208  1
  O  O99  1  0.73082219  0.31320009  0.74732576  1
  O  O100  1  0.42353892  0.54313049  0.74506373  1
  O  O101  1  0.91710436  0.49422850  0.74640954  1
  O  O102  1  0.34732031  0.53925588  0.24733708  1
  O  O103  1  0.84674875  0.54236050  0.24712126  1
  O  O104  1  0.42645300  0.32708788  0.24679667  1
  O  O105  1  0.92323254  0.30359157  0.24531141  1
  O  O106  1  0.23389243  0.15202650  0.24784028  1
  O  O107  1  0.74545434  0.16838724  0.24444799  1
  O  O108  1  0.32070305  0.51324570  0.92134900  1
  O  O109  1  0.82550101  0.52053077  0.92068270  1
  O  O110  1  0.42234210  0.36041268  0.91914785  1
  O  O111  1  0.93386293  0.35331679  0.92330437  1
  O  O112  1  0.24298345  0.13016178  0.91973004  1
  O  O113  1  0.75493316  0.15691889  0.92155620  1
  O  O114  1  0.32716462  0.13314793  0.41850874  1
  O  O115  1  0.82080449  0.12855447  0.42059017  1
  O  O116  1  0.25541611  0.35380254  0.42057322  1
  O  O117  1  0.73955200  0.35335836  0.41697443  1
  O  O118  1  0.43387828  0.51461538  0.42109912  1
  O  O119  1  0.92129174  0.48366855  0.41926980  1
  O  O120  1  0.17163632  0.49565426  0.07496978  1
  O  O121  1  0.67521648  0.51081971  0.07990199  1
  O  O122  1  0.07479487  0.65973905  0.07601373  1
  O  O123  1  0.56626787  0.65052285  0.08108950  1
  O  O124  1  0.25232908  0.85004763  0.07708751  1
  O  O125  1  0.75842180  0.86632078  0.07875589  1
  O  O126  1  0.17515085  0.84004517  0.57840571  1
  O  O127  1  0.67186893  0.85100739  0.57566586  1
  O  O128  1  0.25910150  0.65052468  0.57723622  1
  O  O129  1  0.75231223  0.65725375  0.57583127  1
  O  O130  1  0.06674364  0.48199326  0.57896347  1
  O  O131  1  0.57456999  0.49036975  0.57508453  1
  O  O132  1  0.15981684  0.84207484  0.25711681  1
  O  O133  1  0.65691591  0.82588504  0.25419008  1
  O  O134  1  0.26478986  0.68899895  0.25508235  1
  O  O135  1  0.76746170  0.68897152  0.25660228  1
  O  O136  1  0.07939100  0.46309545  0.25254456  1
  O  O137  1  0.57899579  0.46553224  0.25875603  1
  O  O138  1  0.16231492  0.48929242  0.75380160  1
  O  O139  1  0.65822672  0.47710396  0.75713705  1
  O  O140  1  0.08651228  0.68899795  0.75668341  1
  O  O141  1  0.57958181  0.69637095  0.75262950  1
  O  O142  1  0.27136936  0.84726852  0.75669187  1
  O  O143  1  0.76222317  0.83022718  0.75529099  1
loop_
_geom_bond_atom_site_label_1
_geom_bond_atom_site_label_2
_geom_bond_distance
_geom_bond_site_symmetry_2
Na0 O107 2.337838 1_555
Na0 O133 2.424183 1_545
Na0 O105 2.460036 1_555
Na0 O135 2.559300 1_545
Na0 O33 2.658651 1_555
Na0 O63 2.685094 1_545
Na1 O35 2.387612 1_555
Na1 O107 2.417876 1_555
Na1 O103 2.527173 1_555
Na1 O137 2.629646 1_555
Na1 O135 2.640129 1_555
Na1 O65 2.849123 1_555
Na1 O1 2.896463 1_555
Na1 O21 2.935558 1_555
Na2 O133 2.407988 1_555
Na2 O104 2.509827 1_555
Na2 O102 2.518520 1_555
Na2 O137 2.610451 1_555
Na2 O30 2.646279 1_555
Na2 O23 2.706152 1_555
Na2 O61 2.735914 1_555
Na3 O138 2.303980 1_555
Na3 O98 2.362219 1_555
Na3 O100 2.494596 1_555
Na3 O142 2.515950 1_555
Na3 O28 2.699585 1_555
Na3 O70 2.703412 1_555
Na4 O101 2.314269 1_455
Na4 O140 2.455892 1_555
Na4 O138 2.515874 1_555
Na4 O97 2.653029 1_455
Na4 O25 2.676963 1_455
Na4 O66 2.777149 1_555
Na4 O14 2.833127 1_555
Na5 O140 2.456519 1_555
Na5 O98 2.514441 1_565
Na5 O26 2.532271 1_565
Na5 O16 2.717810 1_555
Na5 O142 2.731760 1_555
Na5 O96 2.746575 1_565
Na5 O68 2.880891 1_555
Na5 O6 2.920302 1_565
Na6 O86 2.425339 1_555
Na6 O130 2.572110 1_555
Na6 O56 2.589571 1_555
Na6 O128 2.600219 1_555
Na6 O85 2.600295 1_455
Na6 O14 2.782970 1_555
Na6 O42 2.816673 1_555
Na6 O28 3.000944 1_555
Na7 O129 2.402826 1_555
Na7 O131 2.487225 1_555
Na7 O87 2.652965 1_555
Na7 O29 2.704352 1_555
Na7 O57 2.788716 1_555
Na7 O15 2.795858 1_555
Na7 O84 2.860781 1_555
Na7 O43 2.866429 1_555
Na8 O126 2.506539 1_555
Na8 O86 2.509518 1_565
Na8 O130 2.589542 1_555
Na8 O89 2.593952 1_455
Na8 O58 2.601249 1_555
Na8 O16 2.775263 1_555
Na8 O45 2.776403 1_455
Na9 O127 2.339779 1_555
Na9 O131 2.428409 1_555
Na9 O87 2.598171 1_565
Na9 O88 2.694840 1_555
Na9 O17 2.713281 1_555
Na9 O24 2.747980 1_555
Na9 O59 2.790381 1_555
Na10 O126 2.393241 1_555
Na10 O84 2.435623 1_565
Na10 O128 2.662814 1_555
Na10 O26 2.700565 1_565
Na10 O54 2.784533 1_555
Na10 O88 2.791716 1_555
Na10 O46 2.795559 1_565
Na10 O12 2.842639 1_555
Na11 O129 2.358828 1_555
Na11 O89 2.463432 1_555
Na11 O127 2.463885 1_555
Na11 O85 2.590207 1_565
Na11 O13 2.702699 1_555
Na11 O27 2.824672 1_565
Na11 O55 2.831493 1_555
Na12 O124 2.411047 1_555
Na12 O122 2.427142 1_555
Na12 O52 2.635593 1_554
Na12 O94 2.658750 1_565
Na12 O91 2.807562 1_455
Na12 O36 2.840987 1_565
Na12 O22 2.846109 1_555
Na12 O32 2.911202 1_565
Na13 O53 2.435843 1_554
Na13 O95 2.500726 1_565
Na13 O125 2.578358 1_555
Na13 O123 2.614027 1_555
Na13 O90 2.681658 1_555
Na13 O37 2.693399 1_565
Na13 O23 2.944640 1_555
Na13 O33 3.021875 1_565
Na14 O124 2.345980 1_555
Na14 O120 2.405223 1_555
Na14 O92 2.513796 1_565
Na14 O90 2.637322 1_555
Na14 O48 2.691157 1_554
Na14 O34 2.799995 1_555
Na14 O18 2.804327 1_555
Na15 O91 2.413893 1_555
Na15 O121 2.423031 1_555
Na15 O125 2.669314 1_555
Na15 O49 2.683665 1_554
Na15 O39 2.716368 1_555
Na15 O93 2.769222 1_565
Na15 O35 2.811704 1_555
Na15 O19 2.897522 1_555
Na16 O120 2.326414 1_555
Na16 O122 2.418242 1_555
Na16 O94 2.597188 1_555
Na16 O50 2.659808 1_554
Na16 O93 2.701302 1_455
Na16 O20 2.778796 1_555
Na16 O31 2.798901 1_455
Na17 O51 2.370930 1_554
Na17 O95 2.517206 1_555
Na17 O121 2.522468 1_555
Na17 O123 2.591079 1_555
Na17 O92 2.598672 1_555
Na17 O40 2.644764 1_555
Na18 O110 2.407333 1_555
Na18 O81 2.443810 1_555
Na18 O82 2.662470 1_555
Na18 O108 2.662496 1_555
Na18 O38 2.762305 1_556
Na18 O67 2.798826 1_555
Na18 O8 2.841234 1_555
Na18 O53 2.914316 1_555
Na19 O109 2.468344 1_555
Na19 O9 2.469902 1_555
Na19 O80 2.490118 1_655
Na19 O111 2.516514 1_555
Na19 O83 2.606554 1_555
Na19 O39 2.633704 1_556
Na20 O79 2.346540 1_555
Na20 O40 2.444922 1_556
Na20 O110 2.467793 1_555
Na20 O112 2.510221 1_555
Na20 O82 2.582674 1_545
Na20 O10 2.916884 1_555
Na20 O48 2.967660 1_545
Na21 O113 2.369583 1_555
Na21 O111 2.505705 1_555
Na21 O83 2.544971 1_545
Na21 O78 2.573638 1_655
Na21 O69 2.625703 1_545
Na21 O11 2.670985 1_555
Na21 O41 2.791159 1_556
Na22 O108 2.481950 1_555
Na22 O112 2.502260 1_555
Na22 O80 2.528597 1_545
Na22 O78 2.566864 1_555
Na22 O6 2.597389 1_555
Na22 O36 2.603681 1_556
Na23 O81 2.483776 1_545
Na23 O113 2.506387 1_555
Na23 O37 2.523253 1_556
Na23 O79 2.556545 1_555
Na23 O109 2.650393 1_555
Na23 O7 2.860447 1_555
Na23 O51 2.860836 1_555
Na24 O46 2.322839 1_555
Na24 O114 2.449850 1_555
Na24 O118 2.475010 1_555
Na24 O77 2.494366 1_555
Na24 O74 2.619599 1_545
Na24 O57 2.837950 1_555
Na24 O4 2.926625 1_555
Na25 O119 2.420680 1_555
Na25 O76 2.457063 1_655
Na25 O47 2.632136 1_555
Na25 O115 2.666817 1_555
Na25 O75 2.677266 1_545
Na25 O60 2.816263 1_655
Na25 O56 2.884733 1_655
Na25 O5 2.916570 1_555
Na26 O42 2.394878 1_555
Na26 O76 2.501903 1_555
Na26 O116 2.535807 1_555
Na26 O72 2.544288 1_545
Na26 O114 2.709168 1_555
Na26 O58 2.782743 1_545
Na26 O0 2.929056 1_555
Na27 O43 2.427084 1_555
Na27 O115 2.439453 1_555
Na27 O117 2.458798 1_555
Na27 O73 2.606280 1_545
Na27 O77 2.625120 1_555
Na27 O1 2.784432 1_555
Na27 O59 2.909418 1_545
Na27 O63 3.020858 1_545
Na28 O116 2.341105 1_555
Na28 O118 2.538190 1_555
Na28 O74 2.607643 1_555
Na28 O64 2.626226 1_555
Na28 O73 2.634251 1_555
Na28 O44 2.678558 1_555
Na28 O2 2.796844 1_555
Na28 O54 2.870569 1_555
Na29 O45 2.317362 1_555
Na29 O72 2.337149 1_655
Na29 O119 2.450788 1_555
Na29 O117 2.550107 1_555
Na29 O75 2.596211 1_555
Na29 O3 2.961167 1_555
Na29 O55 2.961252 1_555
Na30 O86 2.417187 1_565
Na30 O72 2.501627 1_555
Na30 O89 2.531219 1_455
Na30 O76 2.601342 1_565
Na30 O85 2.710992 1_465
Na30 O75 2.798736 1_455
Na31 O87 2.407146 1_555
Na31 O84 2.431898 1_555
Na31 O88 2.618362 1_545
Na31 O77 2.644922 1_555
Na31 O73 2.770648 1_545
Na31 O74 2.802212 1_545
Na32 O94 2.485976 1_565
Na32 O80 2.519413 1_554
Na32 O91 2.522514 1_455
Na32 O78 2.644341 1_564
Na32 O83 2.657321 1_454
Na32 O93 2.722227 1_465
Na33 O79 2.403084 1_555
Na33 O81 2.489564 1_545
Na33 O95 2.556077 1_556
Na33 O92 2.656186 1_556
Na33 O82 2.691120 1_545
Na33 O90 2.816109 1_546
Na34 O110 2.435814 1_555
Na34 O98 2.523747 1_555
Na34 O96 2.595450 1_555
Na34 O100 2.618169 1_555
Na34 O112 2.649224 1_555
Na34 O108 2.702042 1_555
Na35 O101 2.361600 1_555
Na35 O99 2.480825 1_555
Na35 O97 2.572996 1_555
Na35 O113 2.585429 1_555
Na35 O109 2.715049 1_555
Na35 O111 2.810589 1_555
Na36 O116 2.341954 1_555
Na36 O106 2.485546 1_555
Na36 O102 2.609343 1_555
Na36 O114 2.625890 1_555
Na36 O118 2.737308 1_555
Na36 O104 2.742177 1_555
Na37 O119 2.365253 1_555
Na37 O107 2.596955 1_555
Na37 O103 2.606474 1_555
Na37 O105 2.614249 1_555
Na37 O117 2.646725 1_555
Na37 O115 2.657914 1_555
Na38 O124 2.391764 1_555
Na38 O122 2.436776 1_555
Na38 O120 2.449979 1_555
Na38 O136 2.761129 1_555
Na38 O132 2.777882 1_555
Na38 O134 2.781858 1_555
Na39 O121 2.366282 1_555
Na39 O123 2.561176 1_555
Na39 O125 2.578261 1_555
Na39 O133 2.582333 1_555
Na39 O135 2.707670 1_555
Na39 O137 2.731011 1_555
Na40 O140 2.394662 1_555
Na40 O126 2.480734 1_555
Na40 O138 2.529854 1_555
Na40 O130 2.647953 1_555
Na40 O142 2.694258 1_555
Na40 O128 2.825164 1_555
Na41 O129 2.410911 1_555
Na41 O127 2.484600 1_555
Na41 O131 2.499277 1_555
Na41 O143 2.694443 1_555
Na41 O139 2.745122 1_555
Na41 O141 2.758929 1_555
Mg0 O72 1.963619 1_545
Mg0 O76 1.982478 1_555
Mg0 O0 2.087715 1_555
Mg0 O3 2.148087 1_445
Mg0 O5 2.162001 1_455
Mg0 O75 2.196410 1_445
Mg1 O1 1.914566 1_555
Mg1 O4 2.082717 1_555
Mg1 O2 2.084144 1_545
Mg1 O77 2.190390 1_555
Mg1 O74 2.199524 1_545
Mg1 O73 2.224539 1_545
Mg2 O9 1.911388 1_455
Mg2 O6 1.927271 1_565
Mg2 O11 2.107274 1_465
Mg2 O80 2.316848 1_555
Mg2 O83 2.335879 1_455
Mg2 O78 2.410226 1_565
Mg3 O79 1.978603 1_555
Mg3 O81 2.000672 1_545
Mg3 O7 2.060525 1_555
Mg3 O10 2.114782 1_555
Mg3 O8 2.153664 1_545
Mg3 O82 2.202185 1_545
Mg4 O26 1.945281 1_555
Mg4 O24 1.946376 1_555
Mg4 O98 2.075024 1_555
Mg4 O28 2.198167 1_555
Mg4 O96 2.242019 1_555
Mg4 O100 2.374652 1_555
Mg5 O29 1.913120 1_555
Mg5 O27 1.986987 1_555
Mg5 O101 2.064560 1_555
Mg5 O25 2.201658 1_555
Mg5 O99 2.210208 1_555
Mg5 O97 2.403618 1_555
Mg6 O32 1.887362 1_555
Mg6 O34 1.896082 1_555
Mg6 O30 2.196702 1_555
Mg6 O106 2.198613 1_555
Mg6 O102 2.414851 1_555
Mg6 O104 2.415000 1_555
Mg7 O31 1.927824 1_555
Mg7 O35 1.961513 1_555
Mg7 O107 2.118321 1_555
Mg7 O33 2.163360 1_555
Mg7 O103 2.273750 1_555
Mg7 O105 2.367462 1_555
Mg8 O40 1.978622 1_556
Mg8 O36 2.025339 1_556
Mg8 O110 2.103674 1_555
Mg8 O38 2.173950 1_556
Mg8 O112 2.240449 1_555
Mg8 O108 2.399628 1_555
Mg9 O37 1.957797 1_556
Mg9 O39 2.010141 1_556
Mg9 O113 2.074288 1_555
Mg9 O41 2.211286 1_556
Mg9 O109 2.243171 1_555
Mg9 O111 2.326463 1_555
Mg10 O42 1.920145 1_555
Mg10 O46 2.011242 1_555
Mg10 O116 2.120044 1_555
Mg10 O44 2.155903 1_555
Mg10 O114 2.330292 1_555
Mg10 O118 2.386588 1_555
Mg11 O45 1.956243 1_555
Mg11 O43 2.027478 1_555
Mg11 O47 2.109913 1_555
Mg11 O119 2.136261 1_555
Mg11 O117 2.410833 1_555
Mg11 O115 2.450025 1_555
Mg12 O120 1.996509 1_555
Mg12 O124 2.003154 1_555
Mg12 O122 2.011476 1_555
Mg12 O52 2.145573 1_554
Mg12 O48 2.180473 1_554
Mg12 O50 2.200339 1_554
Mg13 O51 1.931054 1_554
Mg13 O53 1.987146 1_554
Mg13 O121 2.080673 1_555
Mg13 O49 2.119580 1_554
Mg13 O123 2.292543 1_555
Mg13 O125 2.369088 1_555
Mg14 O58 1.935257 1_555
Mg14 O56 1.990398 1_555
Mg14 O126 2.029919 1_555
Mg14 O130 2.182946 1_555
Mg14 O54 2.249792 1_555
Mg14 O128 2.347370 1_555
Mg15 O129 1.950961 1_555
Mg15 O127 1.982779 1_555
Mg15 O131 1.988105 1_555
Mg15 O55 2.188884 1_555
Mg15 O57 2.218370 1_555
Mg15 O59 2.251024 1_555
Mg16 O133 2.018773 1_555
Mg16 O63 2.028635 1_555
Mg16 O61 2.070772 1_555
Mg16 O65 2.107473 1_555
Mg16 O137 2.182908 1_555
Mg16 O135 2.225239 1_555
Mg17 O140 1.956369 1_555
Mg17 O138 2.017036 1_555
Mg17 O66 2.093278 1_555
Mg17 O70 2.164459 1_555
Mg17 O68 2.169535 1_555
Mg17 O142 2.251214 1_555
O0 S0 1.458213 1_545
O1 Si0 1.616749 1_555
O2 S1 1.484752 1_555
O3 S2 1.456345 1_555
O4 S4 1.471280 1_555
O5 S3 1.465884 1_655
O6 Si1 1.621716 1_555
O7 S5 1.457181 1_555
O8 S6 1.467263 1_555
O9 Si2 1.618247 1_555
O10 S7 1.458874 1_555
O11 S8 1.481971 1_545
O12 S7 1.550848 1_565
O12 Sn1 2.125023 1_565
O13 S8 1.495511 1_555
O13 Sn0 2.266564 1_655
O14 Si1 1.707332 1_555
O14 Sn0 2.019882 1_545
O15 S5 1.532155 1_555
O15 Sn1 2.093909 1_555
O16 Si2 1.687105 1_455
O16 Sn0 1.963063 1_555
O17 S6 1.528322 1_555
O17 Sn1 2.155107 1_565
O18 S1 1.503178 1_555
O18 Sn3 2.207540 1_565
O19 S2 1.540437 1_555
O19 Sn2 2.171043 1_655
O20 S3 1.527538 1_555
O20 Sn2 2.155234 1_545
O21 S4 1.511367 1_555
O21 Sn3 2.164687 1_555
O22 S0 1.525636 1_555
O22 Sn2 2.125980 1_555
O23 Si0 1.707860 1_565
O23 Sn3 1.995440 1_565
O24 Si3 1.601380 1_555
O25 S9 1.463538 1_555
O26 Si4 1.615766 1_555
O27 Si5 1.595877 1_555
O28 S10 1.465462 1_555
O29 Si6 1.590715 1_555
O30 S11 1.473581 1_555
O31 Si7 1.604576 1_555
O32 Si8 1.599285 1_555
O33 S12 1.468125 1_555
O34 Si9 1.603473 1_555
O35 Si10 1.619299 1_555
O36 Si9 1.630807 1_555
O37 Si10 1.622015 1_555
O38 S11 1.472995 1_555
O39 Si7 1.630834 1_555
O40 Si8 1.630384 1_555
O41 S12 1.472098 1_555
O42 Si4 1.629255 1_555
O43 Si5 1.643289 1_555
O44 S10 1.481133 1_555
O45 Si6 1.638830 1_555
O46 Si3 1.639908 1_555
O47 S9 1.485755 1_555
O48 S13 1.477611 1_555
O49 S14 1.472258 1_555
O50 S15 1.479069 1_555
O51 Si11 1.615662 1_555
O52 S16 1.477109 1_555
O53 Si12 1.625397 1_555
O54 S17 1.466724 1_555
O55 S18 1.473072 1_555
O56 Si13 1.615043 1_555
O57 S19 1.472702 1_555
O58 Si14 1.608621 1_555
O59 S20 1.473174 1_555
O60 Si14 1.707545 1_555
O60 Sn4 1.946753 1_555
O61 S20 1.489801 1_555
O62 S17 1.512271 1_555
O62 Sn4 2.154656 1_555
O63 S18 1.498064 1_555
O64 Si13 1.710929 1_555
O64 Sn4 1.957052 1_555
O65 S19 1.489913 1_555
O66 S15 1.477955 1_555
O67 Si11 1.692554 1_555
O67 Sn5 1.953285 1_555
O68 S16 1.477216 1_555
O69 Si12 1.694042 1_555
O69 Sn5 1.956814 1_555
O70 S13 1.485849 1_555
O71 S14 1.509300 1_555
O71 Sn5 2.150779 1_555
O72 Si14 1.632396 1_555
O73 S20 1.506859 1_555
O74 S17 1.501258 1_555
O75 S18 1.487076 1_555
O76 Si13 1.631710 1_555
O77 S19 1.515455 1_555
O78 S15 1.506165 1_555
O79 Si11 1.633581 1_555
O80 S16 1.506803 1_555
O81 Si12 1.638897 1_555
O82 S13 1.495781 1_555
O83 S14 1.490254 1_555
O84 Si3 1.728937 1_555
O84 Sn1 1.999028 1_555
O85 S9 1.504974 1_555
O85 Sn0 2.355948 1_645
O86 Si4 1.687907 1_555
O86 Sn0 2.041424 1_545
O87 Si5 1.749101 1_555
O87 Sn1 1.990780 1_555
O88 S10 1.527666 1_555
O88 Sn1 2.256547 1_565
O89 Si6 1.704036 1_555
O89 Sn0 2.028275 1_655
O90 S11 1.522050 1_555
O90 Sn3 2.213352 1_565
O91 Si7 1.737330 1_555
O91 Sn2 1.984663 1_655
O92 Si8 1.716988 1_555
O92 Sn3 1.988040 1_555
O93 S12 1.527575 1_555
O93 Sn2 2.241507 1_645
O94 Si9 1.736792 1_555
O94 Sn2 1.986644 1_545
O95 Si10 1.699456 1_555
O95 Sn3 2.003735 1_555
O96 S7 1.461209 1_555
O97 S8 1.460770 1_545
O98 Si1 1.650983 1_555
O99 S5 1.448262 1_555
O100 S6 1.466474 1_555
O101 Si2 1.630225 1_555
O102 S1 1.476424 1_555
O103 S2 1.463558 1_555
O104 S4 1.469683 1_555
O105 S3 1.468210 1_655
O106 S0 1.464705 1_545
O107 Si0 1.639416 1_555
O108 S13 1.493317 1_555
O109 S14 1.480602 1_555
O110 Si11 1.646404 1_555
O111 S15 1.493657 1_655
O112 S16 1.496198 1_545
O113 Si12 1.645926 1_545
O114 S17 1.478866 1_545
O115 S18 1.486856 1_545
O116 Si13 1.650218 1_555
O117 S19 1.483459 1_555
O118 S20 1.487938 1_555
O119 Si14 1.645651 1_655
O120 Si9 1.623975 1_555
O121 Si10 1.647558 1_555
O122 Si7 1.623260 1_455
O123 S11 1.485196 1_555
O124 Si8 1.624101 1_565
O125 S12 1.486406 1_565
O126 Si4 1.649675 1_565
O127 Si5 1.629686 1_565
O128 S10 1.481913 1_555
O129 Si6 1.630998 1_555
O130 S9 1.494415 1_455
O131 Si3 1.623348 1_555
O132 S0 1.514156 1_555
O132 Sn4 2.246561 1_555
O133 Si0 1.654728 1_565
O134 S1 1.500809 1_555
O134 Sn4 2.276596 1_555
O135 S2 1.503404 1_555
O136 S3 1.502264 1_555
O136 Sn4 2.236362 1_555
O137 S4 1.501065 1_555
O138 Si1 1.639327 1_555
O139 S5 1.517235 1_555
O139 Sn5 2.218643 1_555
O140 Si2 1.654482 1_455
O141 S6 1.501575 1_555
O141 Sn5 2.240034 1_555
O142 S7 1.486210 1_565
O143 S8 1.530621 1_555
O143 Sn5 2.177366 1_555
