# generated using pymatgen
data_LiCoAsO4
_symmetry_space_group_name_H-M   'P 1'
_cell_length_a   4.96432707
_cell_length_b   6.04960400
_cell_length_c   10.59866116
_cell_angle_alpha   90.00023784
_cell_angle_beta   90.01988271
_cell_angle_gamma   90.00176948
_symmetry_Int_Tables_number   1
_chemical_formula_structural   LiCoAsO4
_chemical_formula_sum   'Li4 Co4 As4 O16'
_cell_volume   318.30122946
_cell_formula_units_Z   4
loop_
 _symmetry_equiv_pos_site_id
 _symmetry_equiv_pos_as_xyz
  1  'x, y, z'
loop_
 _atom_site_type_symbol
 _atom_site_label
 _atom_site_symmetry_multiplicity
 _atom_site_fract_x
 _atom_site_fract_y
 _atom_site_fract_z
 _atom_site_occupancy
  Li  Li0  1  0.99999900  0.00000000  0.99999900  1
  Li  Li1  1  0.50000000  0.00000200  0.50000100  1
  Li  Li2  1  0.00000100  0.49999900  0.99999900  1
  Li  Li3  1  0.49999900  0.49999700  0.50000200  1
  Co  Co0  1  0.49444400  0.75000000  0.22278100  1
  Co  Co1  1  0.50555700  0.25000400  0.77721700  1
  Co  Co2  1  0.00545300  0.75000000  0.72279400  1
  Co  Co3  1  0.99454600  0.24999900  0.27720700  1
  As  As0  1  0.06202700  0.25000800  0.59547900  1
  As  As1  1  0.43798100  0.24999700  0.09544200  1
  As  As2  1  0.93797300  0.74999800  0.40452400  1
  As  As3  1  0.56202000  0.75001300  0.90455400  1
  O  O0  1  0.78205900  0.25000100  0.09593000  1
  O  O1  1  0.21794000  0.75000000  0.90407000  1
  O  O2  1  0.71790600  0.24999900  0.59593500  1
  O  O3  1  0.28209500  0.75000000  0.40406200  1
  O  O4  1  0.79324700  0.75000200  0.55271700  1
  O  O5  1  0.70675400  0.74999700  0.05272200  1
  O  O6  1  0.29324400  0.25000800  0.94728200  1
  O  O7  1  0.20675500  0.24999800  0.44728200  1
  O  O8  1  0.77943700  0.53011800  0.32806400  1
  O  O9  1  0.22055000  0.46988300  0.67193800  1
  O  O10  1  0.72044400  0.52993000  0.82805800  1
  O  O11  1  0.77943900  0.96988500  0.32806200  1
  O  O12  1  0.27955700  0.02993900  0.17194200  1
  O  O13  1  0.27955400  0.47005900  0.17194000  1
  O  O14  1  0.22057700  0.03011600  0.67193400  1
  O  O15  1  0.72044000  0.97004700  0.82806400  1
loop_
_geom_bond_atom_site_label_1
_geom_bond_atom_site_label_2
_geom_bond_distance
_geom_bond_site_symmetry_2
Li0 O1 2.119552 1_645
Li0 O0 2.119564 1_556
Li0 O5 2.172406 1_546
Li0 O6 2.172410 1_655
Li0 O15 2.297351 1_545
Li0 O12 2.297408 1_656
Li1 O2 2.119068 1_555
Li1 O3 2.119112 1_545
Li1 O7 2.172168 1_555
Li1 O4 2.172183 1_545
Li1 O14 2.297774 1_555
Li1 O11 2.297873 1_545
Li2 O1 2.119509 1_555
Li2 O0 2.119514 1_456
Li2 O6 2.172391 1_555
Li2 O5 2.172451 1_456
Li2 O13 2.297385 1_556
Li2 O10 2.297392 1_455
Li3 O2 2.119123 1_555
Li3 O3 2.119173 1_555
Li3 O7 2.172114 1_555
Li3 O4 2.172139 1_555
Li3 O8 2.297858 1_555
Li3 O9 2.297871 1_555
Co0 O13 2.072659 1_555
Co0 O12 2.072694 1_565
Co0 O5 2.088258 1_555
Co0 O3 2.191851 1_555
Co0 O11 2.239426 1_555
Co0 O8 2.239477 1_555
Co1 O10 2.072578 1_555
Co1 O15 2.072795 1_545
Co1 O6 2.088321 1_555
Co1 O2 2.191860 1_555
Co1 O14 2.239401 1_555
Co1 O9 2.239489 1_555
Co2 O9 2.074346 1_555
Co2 O14 2.074371 1_565
Co2 O4 2.087531 1_455
Co2 O1 2.191493 1_555
Co2 O10 2.240540 1_455
Co2 O15 2.240548 1_455
Co3 O11 2.074304 1_545
Co3 O8 2.074389 1_555
Co3 O7 2.087520 1_655
Co3 O0 2.191502 1_555
Co3 O13 2.240517 1_655
Co3 O12 2.240562 1_655
As0 O2 1.708338 1_455
As0 O7 1.727443 1_555
As0 O9 1.744934 1_555
As0 O14 1.745095 1_555
As1 O0 1.708122 1_555
As1 O6 1.726651 1_554
As1 O12 1.746017 1_555
As1 O13 1.746064 1_555
As2 O3 1.708343 1_655
As2 O4 1.727400 1_555
As2 O8 1.744991 1_555
As2 O11 1.745071 1_555
As3 O1 1.708132 1_555
As3 O5 1.726722 1_556
As3 O15 1.745848 1_555
As3 O10 1.746145 1_555
