# generated using pymatgen
data_Na3AlSi2GeSO12
_symmetry_space_group_name_H-M   'P 1'
_cell_length_a   8.70047373
_cell_length_b   8.70047345
_cell_length_c   21.70930783
_cell_angle_alpha   88.72890638
_cell_angle_beta   91.27109369
_cell_angle_gamma   119.32568083
_symmetry_Int_Tables_number   1
_chemical_formula_structural   Na3AlSi2GeSO12
_chemical_formula_sum   'Na18 Al6 Si12 Ge6 S6 O72'
_cell_volume   1432.28668573
_cell_formula_units_Z   6
loop_
 _symmetry_equiv_pos_site_id
 _symmetry_equiv_pos_as_xyz
  1  'x, y, z'
loop_
 _atom_site_type_symbol
 _atom_site_label
 _atom_site_symmetry_multiplicity
 _atom_site_fract_x
 _atom_site_fract_y
 _atom_site_fract_z
 _atom_site_occupancy
  Na  Na0  1  0.63211437  0.00126568  0.24561173  1
  Na  Na1  1  -0.00022621  0.63917712  0.24803810  1
  Na  Na2  1  0.99873432  0.36788563  0.74561173  1
  Na  Na3  1  0.36082288  0.00022621  0.74803810  1
  Na  Na4  1  0.29878137  0.33459868  0.57894473  1
  Na  Na5  1  0.66644079  0.97251012  0.58137110  1
  Na  Na6  1  0.66540132  0.70121863  0.07894473  1
  Na  Na7  1  0.02748988  0.33355921  0.08137110  1
  Na  Na8  1  0.96544737  0.66793268  0.91227873  1
  Na  Na9  1  0.33310679  0.30584412  0.91470510  1
  Na  Na10  1  0.33206732  0.03455263  0.41227873  1
  Na  Na11  1  0.69415588  0.66689321  0.41470510  1
  Na  Na12  1  0.00295514  0.01365379  0.49780354  1
  Na  Na13  1  0.98634621  0.99704486  0.99780354  1
  Na  Na14  1  0.66962214  0.34698679  0.83113654  1
  Na  Na15  1  0.65301321  0.33037786  0.33113654  1
  Na  Na16  1  0.33628814  0.68032079  0.16447054  1
  Na  Na17  1  0.31967921  0.66371186  0.66447054  1
  Al  Al0  1  0.00331726  0.00417325  0.35375822  1
  Al  Al1  1  0.99582675  0.99668274  0.85375822  1
  Al  Al2  1  0.66998426  0.33750625  0.68709122  1
  Al  Al3  1  0.66249375  0.33001574  0.18709122  1
  Al  Al4  1  0.33665026  0.67084025  0.02042522  1
  Al  Al5  1  0.32915975  0.66334974  0.52042522  1
  Si  Si0  1  0.28883605  0.00677995  0.25283574  1
  Si  Si1  1  0.70930233  0.70194443  0.25238515  1
  Si  Si2  1  0.29805557  0.29069767  0.75238515  1
  Si  Si3  1  0.99322005  0.71116395  0.75283574  1
  Si  Si4  1  0.95550305  0.34011295  0.58616874  1
  Si  Si5  1  0.37596933  0.03527743  0.58571815  1
  Si  Si6  1  0.96472257  0.62403067  0.08571815  1
  Si  Si7  1  0.65988705  0.04449695  0.08616874  1
  Si  Si8  1  0.62216905  0.67344695  0.91950274  1
  Si  Si9  1  0.04263533  0.36861143  0.91905215  1
  Si  Si10  1  0.63138857  0.95736467  0.41905215  1
  Si  Si11  1  0.32655305  0.37783095  0.41950274  1
  Ge  Ge0  1  0.03133566  0.01925220  0.64719073  1
  Ge  Ge1  1  0.98074780  0.96866434  0.14719073  1
  Ge  Ge2  1  0.69800266  0.35258520  0.98052373  1
  Ge  Ge3  1  0.64741480  0.30199734  0.48052373  1
  Ge  Ge4  1  0.36466866  0.68591920  0.31385773  1
  Ge  Ge5  1  0.31408080  0.63533134  0.81385773  1
  S  S0  1  0.00563815  0.29018471  0.25007050  1
  S  S1  1  0.70981529  0.99436185  0.75007050  1
  S  S2  1  0.67230515  0.62351771  0.58340350  1
  S  S3  1  0.37648229  0.32769485  0.08340350  1
  S  S4  1  0.33897115  0.95685171  0.91673750  1
  S  S5  1  0.04314829  0.66102885  0.41673750  1
  O  O0  1  0.19704957  0.02766409  0.31315034  1
  O  O1  1  0.83634031  0.79904190  0.31097013  1
  O  O2  1  0.97392350  0.17367601  0.30425541  1
  O  O3  1  0.20095810  0.16365969  0.81097013  1
  O  O4  1  0.97233591  0.80295043  0.81315034  1
  O  O5  1  0.82632399  0.02607650  0.80425541  1
  O  O6  1  0.78423729  0.96597381  0.69295847  1
  O  O7  1  0.16795292  0.21761449  0.68967347  1
  O  O8  1  0.04046212  0.84553554  0.69132121  1
  O  O9  1  0.78238551  0.83204708  0.18967347  1
  O  O10  1  0.03402619  0.21576271  0.19295847  1
  O  O11  1  0.15446446  0.95953788  0.19132121  1
  O  O12  1  0.86371657  0.36099709  0.64648334  1
  O  O13  1  0.50300731  0.13237490  0.64430313  1
  O  O14  1  0.64059050  0.50700901  0.63758841  1
  O  O15  1  0.86762510  0.49699269  0.14430313  1
  O  O16  1  0.63900291  0.13628343  0.14648334  1
  O  O17  1  0.49299099  0.35940950  0.13758841  1
  O  O18  1  0.45090429  0.29930681  0.02629147  1
  O  O19  1  0.83461992  0.55094749  0.02300647  1
  O  O20  1  0.70712912  0.17886854  0.02465421  1
  O  O21  1  0.44905251  0.16538008  0.52300647  1
  O  O22  1  0.70069319  0.54909571  0.52629147  1
  O  O23  1  0.82113146  0.29287088  0.52465421  1
  O  O24  1  0.53038257  0.69433109  0.97981734  1
  O  O25  1  0.16967331  0.46570890  0.97763713  1
  O  O26  1  0.30725650  0.84034301  0.97092241  1
  O  O27  1  0.53429110  0.83032669  0.47763713  1
  O  O28  1  0.30566891  0.46961743  0.47981734  1
  O  O29  1  0.15965699  0.69274350  0.47092241  1
  O  O30  1  0.11757029  0.63264081  0.35962547  1
  O  O31  1  0.50128592  0.88428149  0.35634047  1
  O  O32  1  0.37379512  0.51220254  0.35798821  1
  O  O33  1  0.11571851  0.49871408  0.85634047  1
  O  O34  1  0.36735919  0.88242971  0.85962547  1
  O  O35  1  0.48779746  0.62620488  0.85798821  1
  O  O36  1  0.02681739  0.82458739  0.41295895  1
  O  O37  1  0.82110970  0.97011371  0.40864108  1
  O  O38  1  0.16497979  0.17902561  0.41039372  1
  O  O39  1  0.02988629  0.17889030  0.90864108  1
  O  O40  1  0.17541261  0.97318261  0.91295895  1
  O  O41  1  0.82097439  0.83502021  0.91039372  1
  O  O42  1  0.96469840  0.14733544  0.59081305  1
  O  O43  1  0.18097914  0.02642348  0.58775699  1
  O  O44  1  0.82436214  0.80276241  0.58941348  1
  O  O45  1  0.97357652  0.81902086  0.08775699  1
  O  O46  1  0.85266456  0.03530160  0.09081305  1
  O  O47  1  0.19723759  0.17563786  0.08941348  1
  O  O48  1  0.69348439  0.15792039  0.74629195  1
  O  O49  1  0.48777670  0.30344671  0.74197408  1
  O  O50  1  0.83164679  0.51235861  0.74372672  1
  O  O51  1  0.69655329  0.51222330  0.24197408  1
  O  O52  1  0.84207961  0.30651561  0.24629195  1
  O  O53  1  0.48764139  0.16835321  0.24372672  1
  O  O54  1  0.63136540  0.48066844  0.92414605  1
  O  O55  1  0.84764614  0.35975648  0.92108999  1
  O  O56  1  0.49102914  0.13609541  0.92274648  1
  O  O57  1  0.64024352  0.15235386  0.42108999  1
  O  O58  1  0.51933156  0.36863460  0.42414605  1
  O  O59  1  0.86390459  0.50897086  0.42274648  1
  O  O60  1  0.36015039  0.49125439  0.07962595  1
  O  O61  1  0.15444270  0.63678071  0.07530808  1
  O  O62  1  0.49831279  0.84569261  0.07706072  1
  O  O63  1  0.36321929  0.84555730  0.57530808  1
  O  O64  1  0.50874561  0.63984961  0.57962595  1
  O  O65  1  0.15430739  0.50168721  0.57706072  1
  O  O66  1  0.29803140  0.81400244  0.25748005  1
  O  O67  1  0.51431214  0.69309048  0.25442399  1
  O  O68  1  0.15769514  0.46942941  0.25608048  1
  O  O69  1  0.30690952  0.48568786  0.75442399  1
  O  O70  1  0.18599756  0.70196860  0.75748005  1
  O  O71  1  0.53057059  0.84230486  0.75608048  1
loop_
_geom_bond_atom_site_label_1
_geom_bond_atom_site_label_2
_geom_bond_distance
_geom_bond_site_symmetry_2
Na0 O53 2.340956 1_555
Na0 O67 2.360153 1_545
Na0 O52 2.374640 1_555
Na0 O16 2.416464 1_555
Na0 O66 2.558397 1_545
Na0 O31 2.643496 1_545
Na0 O9 2.717905 1_545
Na0 O2 2.874379 1_555
Na1 O66 2.283291 1_555
Na1 O51 2.309528 1_455
Na1 O68 2.462755 1_555
Na1 O52 2.524609 1_455
Na1 O15 2.557213 1_455
Na1 O30 2.619711 1_555
Na1 O11 2.709810 1_555
Na1 O1 2.816186 1_455
Na2 O50 2.340956 1_555
Na2 O69 2.360153 1_655
Na2 O48 2.374640 1_555
Na2 O12 2.416464 1_555
Na2 O70 2.558397 1_655
Na2 O33 2.643496 1_655
Na2 O7 2.717905 1_655
Na2 O5 2.874379 1_555
Na3 O70 2.283291 1_545
Na3 O49 2.309528 1_555
Na3 O71 2.462755 1_545
Na3 O48 2.524609 1_555
Na3 O13 2.557213 1_555
Na3 O34 2.619711 1_545
Na3 O8 2.709810 1_545
Na3 O3 2.816186 1_555
Na4 O65 2.340971 1_555
Na4 O43 2.360153 1_555
Na4 O64 2.374644 1_555
Na4 O28 2.416450 1_555
Na4 O42 2.558397 1_455
Na4 O7 2.643496 1_555
Na4 O21 2.717905 1_555
Na4 O14 2.874379 1_555
Na5 O42 2.283291 1_565
Na5 O63 2.309536 1_555
Na5 O44 2.462755 1_555
Na5 O64 2.524600 1_555
Na5 O27 2.557193 1_555
Na5 O6 2.619711 1_555
Na5 O23 2.709810 1_565
Na5 O13 2.816186 1_565
Na6 O62 2.340971 1_555
Na6 O45 2.360153 1_555
Na6 O60 2.374645 1_555
Na6 O24 2.416450 1_554
Na6 O46 2.558397 1_565
Na6 O9 2.643496 1_555
Na6 O19 2.717905 1_555
Na6 O17 2.874379 1_555
Na7 O46 2.283291 1_455
Na7 O61 2.309535 1_555
Na7 O47 2.462755 1_555
Na7 O60 2.524600 1_555
Na7 O25 2.557193 1_554
Na7 O10 2.619711 1_555
Na7 O20 2.709810 1_455
Na7 O15 2.816186 1_455
Na8 O41 2.340956 1_555
Na8 O55 2.360161 1_555
Na8 O40 2.374640 1_655
Na8 O4 2.416464 1_555
Na8 O54 2.558388 1_555
Na8 O19 2.643475 1_556
Na8 O33 2.717905 1_655
Na8 O26 2.874379 1_655
Na9 O54 2.283295 1_555
Na9 O39 2.309528 1_555
Na9 O56 2.462769 1_555
Na9 O40 2.524609 1_545
Na9 O3 2.557213 1_555
Na9 O18 2.619696 1_556
Na9 O35 2.709810 1_555
Na9 O25 2.816186 1_555
Na10 O38 2.340956 1_555
Na10 O57 2.360161 1_555
Na10 O36 2.374640 1_545
Na10 O0 2.416464 1_555
Na10 O58 2.558388 1_555
Na10 O21 2.643475 1_555
Na10 O31 2.717905 1_545
Na10 O29 2.874379 1_545
Na11 O58 2.283295 1_555
Na11 O37 2.309528 1_555
Na11 O59 2.462769 1_555
Na11 O36 2.524609 1_655
Na11 O1 2.557213 1_555
Na11 O22 2.619696 1_555
Na11 O32 2.709810 1_555
Na11 O27 2.816186 1_555
Na12 O38 2.380982 1_555
Na12 O37 2.388098 1_445
Na12 O43 2.435531 1_555
Na12 O42 2.460460 1_455
Na12 O36 2.574413 1_545
Na12 O44 2.630369 1_445
Na13 O41 2.380982 1_555
Na13 O39 2.388098 1_665
Na13 O45 2.435531 1_556
Na13 O46 2.460460 1_566
Na13 O40 2.574413 1_655
Na13 O47 2.630370 1_666
Na14 O50 2.380982 1_555
Na14 O49 2.388098 1_555
Na14 O55 2.435531 1_555
Na14 O54 2.460460 1_555
Na14 O48 2.574413 1_555
Na14 O56 2.630369 1_555
Na15 O53 2.380982 1_555
Na15 O51 2.388098 1_555
Na15 O57 2.435531 1_555
Na15 O58 2.460460 1_555
Na15 O52 2.574413 1_555
Na15 O59 2.630370 1_555
Na16 O62 2.380982 1_555
Na16 O61 2.388098 1_555
Na16 O67 2.435531 1_555
Na16 O66 2.460460 1_555
Na16 O60 2.574413 1_555
Na16 O68 2.630369 1_555
Na17 O65 2.380982 1_555
Na17 O63 2.388098 1_555
Na17 O69 2.435531 1_555
Na17 O70 2.460460 1_555
Na17 O64 2.574413 1_555
Na17 O71 2.630370 1_555
Al0 O0 1.838624 1_555
Al0 O37 1.904870 1_445
Al0 O1 1.905938 1_445
Al0 O2 1.918894 1_455
Al0 O38 1.927349 1_555
Al0 O36 2.084969 1_545
Al1 O4 1.838624 1_555
Al1 O39 1.904870 1_665
Al1 O3 1.905938 1_665
Al1 O5 1.918894 1_565
Al1 O41 1.927349 1_555
Al1 O40 2.084969 1_655
Al2 O12 1.838624 1_555
Al2 O49 1.904870 1_555
Al2 O13 1.905938 1_555
Al2 O14 1.918894 1_555
Al2 O50 1.927349 1_555
Al2 O48 2.084969 1_555
Al3 O16 1.838624 1_555
Al3 O51 1.904870 1_555
Al3 O15 1.905938 1_555
Al3 O17 1.918894 1_555
Al3 O53 1.927349 1_555
Al3 O52 2.084969 1_555
Al4 O24 1.838624 1_554
Al4 O61 1.904870 1_555
Al4 O25 1.905938 1_554
Al4 O26 1.918894 1_554
Al4 O62 1.927349 1_555
Al4 O60 2.084969 1_555
Al5 O28 1.838624 1_555
Al5 O63 1.904870 1_555
Al5 O27 1.905938 1_555
Al5 O29 1.918894 1_555
Al5 O65 1.927349 1_555
Al5 O64 2.084969 1_555
Ge0 O7 1.804029 1_555
Ge0 O8 1.805124 1_545
Ge0 O43 1.831717 1_555
Ge0 O42 1.901804 1_455
Ge0 O6 2.218602 1_445
Ge0 O44 2.246325 1_445
Ge1 O9 1.804029 1_555
Ge1 O11 1.805124 1_655
Ge1 O45 1.831717 1_555
Ge1 O46 1.901804 1_565
Ge1 O10 2.218602 1_665
Ge1 O47 2.246325 1_665
Ge2 O19 1.804029 1_556
Ge2 O20 1.805124 1_556
Ge2 O55 1.831717 1_555
Ge2 O54 1.901804 1_555
Ge2 O18 2.218602 1_556
Ge2 O56 2.246325 1_555
Ge3 O21 1.804029 1_555
Ge3 O23 1.805124 1_555
Ge3 O57 1.831717 1_555
Ge3 O58 1.901804 1_555
Ge3 O22 2.218602 1_555
Ge3 O59 2.246325 1_555
Ge4 O31 1.804029 1_555
Ge4 O32 1.805124 1_555
Ge4 O67 1.831717 1_555
Ge4 O66 1.901804 1_555
Ge4 O30 2.218602 1_555
Ge4 O68 2.246325 1_555
Ge5 O33 1.804029 1_555
Ge5 O35 1.805124 1_555
Ge5 O69 1.831717 1_555
Ge5 O70 1.901804 1_555
Ge5 O34 2.218602 1_555
Ge5 O71 2.246325 1_555
O0 Si0 1.607587 1_555
O1 Si1 1.619746 1_555
O2 S0 1.474761 1_655
O3 Si2 1.619746 1_555
O4 Si3 1.607587 1_555
O5 S1 1.474761 1_545
O6 S1 1.491103 1_555
O7 Si2 1.674549 1_555
O8 Si3 1.674368 1_455
O9 Si1 1.674549 1_555
O10 S0 1.491103 1_555
O11 Si0 1.674368 1_565
O12 Si4 1.607587 1_555
O13 Si5 1.619746 1_555
O14 S2 1.474761 1_555
O15 Si6 1.619746 1_555
O16 Si7 1.607587 1_555
O17 S3 1.474761 1_555
O18 S3 1.491103 1_555
O19 Si6 1.674549 1_555
O20 Si7 1.674368 1_555
O21 Si5 1.674549 1_555
O22 S2 1.491103 1_555
O23 Si4 1.674368 1_555
O24 Si8 1.607587 1_555
O25 Si9 1.619746 1_555
O26 S4 1.474761 1_555
O27 Si10 1.619746 1_555
O28 Si11 1.607587 1_555
O29 S5 1.474761 1_555
O30 S5 1.491103 1_555
O31 Si10 1.674549 1_555
O32 Si11 1.674368 1_555
O33 Si9 1.674549 1_555
O34 S4 1.491103 1_555
O35 Si8 1.674368 1_555
O36 S5 1.498103 1_555
O37 Si10 1.619928 1_555
O38 Si11 1.621162 1_555
O39 Si9 1.619928 1_555
O40 S4 1.498103 1_555
O41 Si8 1.621162 1_555
O42 Si4 1.718527 1_555
O43 Si5 1.661684 1_555
O44 S2 1.476392 1_555
O45 Si6 1.661684 1_555
O46 Si7 1.718527 1_555
O47 S3 1.476392 1_555
O48 S1 1.498103 1_545
O49 Si2 1.619928 1_555
O50 Si3 1.621162 1_555
O51 Si1 1.619928 1_555
O52 S0 1.498103 1_655
O53 Si0 1.621162 1_555
O54 Si8 1.718539 1_555
O55 Si9 1.661671 1_655
O56 S4 1.476387 1_545
O57 Si10 1.661671 1_545
O58 Si11 1.718539 1_555
O59 S5 1.476387 1_655
O60 S3 1.498116 1_555
O61 Si6 1.619912 1_455
O62 Si7 1.621157 1_565
O63 Si5 1.619912 1_565
O64 S2 1.498116 1_555
O65 Si4 1.621157 1_455
O66 Si0 1.718527 1_565
O67 Si1 1.661684 1_555
O68 S0 1.476392 1_555
O69 Si2 1.661684 1_555
O70 Si3 1.718527 1_455
O71 S1 1.476392 1_555
