# generated using pymatgen
data_Sr4MgMn3(ClO4)2
_symmetry_space_group_name_H-M   'P 1'
_cell_length_a   4.02332959
_cell_length_b   4.02242034
_cell_length_c   19.71979138
_cell_angle_alpha   95.85282948
_cell_angle_beta   95.85114803
_cell_angle_gamma   89.99593964
_symmetry_Int_Tables_number   1
_chemical_formula_structural   Sr4MgMn3(ClO4)2
_chemical_formula_sum   'Sr4 Mg1 Mn3 Cl2 O8'
_cell_volume   315.80088578
_cell_formula_units_Z   1
loop_
 _symmetry_equiv_pos_site_id
 _symmetry_equiv_pos_as_xyz
  1  'x, y, z'
loop_
 _atom_site_type_symbol
 _atom_site_label
 _atom_site_symmetry_multiplicity
 _atom_site_fract_x
 _atom_site_fract_y
 _atom_site_fract_z
 _atom_site_occupancy
  Sr  Sr0  1  0.64550961  0.64551016  0.29126631  1
  Sr  Sr1  1  0.35455105  0.35442067  0.70872136  1
  Sr  Sr2  1  0.54488803  0.54492121  0.08999118  1
  Sr  Sr3  1  0.45511153  0.45512357  0.91006213  1
  Mg  Mg0  1  0.24995773  0.75007589  0.50003604  1
  Mn  Mn0  1  -0.00003886  0.00003717  0.00001834  1
  Mn  Mn1  1  0.89865863  0.89858892  0.79707573  1
  Mn  Mn2  1  0.10135201  0.10135507  0.20289759  1
  Cl  Cl0  1  0.21144446  0.21147857  0.42271941  1
  Cl  Cl1  1  0.78847102  0.78857445  0.57729072  1
  O  O0  1  0.11379450  0.61382670  0.22788283  1
  O  O1  1  0.38625529  0.88613023  0.77208686  1
  O  O2  1  0.00001107  0.50002742  0.00001887  1
  O  O3  1  0.49999447  0.00003576  0.00005275  1
  O  O4  1  0.61389170  0.11385929  0.22797198  1
  O  O5  1  0.05040997  0.05043688  0.10085289  1
  O  O6  1  0.88613849  0.38602452  0.77191043  1
  O  O7  1  0.94960431  0.94957252  0.89914359  1
loop_
_geom_bond_atom_site_label_1
_geom_bond_atom_site_label_2
_geom_bond_distance
_geom_bond_site_symmetry_2
Mn0 O5 1.967658 1_555
Mn0 O7 1.968443 1_444
Mn0 O2 2.011170 1_555
Mn0 O2 2.011250 1_545
Mn0 O3 2.011600 1_455
Mn0 O3 2.011730 1_555
Mn1 O7 1.991725 1_555
Mn1 O1 2.069601 1_555
Mn1 O6 2.070233 1_555
Mn1 O1 2.070241 1_655
Mn1 O6 2.070354 1_565
Mn2 O5 1.991273 1_555
Mn2 O0 2.069392 1_555
Mn2 O0 2.069534 1_545
Mn2 O4 2.070269 1_455
Mn2 O4 2.070361 1_555
Cl0 Mg0 2.514042 1_555
Cl0 Mg0 2.514378 1_545
Cl1 Mg0 2.513573 1_555
Cl1 Mg0 2.514124 1_655
O0 Sr0 2.361320 1_455
O0 Sr0 2.361640 1_555
O1 Sr1 2.360793 1_565
O1 Sr1 2.361026 1_555
O2 Sr3 2.669730 1_454
O2 Sr2 2.669837 1_555
O2 Sr3 2.670006 1_554
O2 Sr2 2.670298 1_455
O3 Sr2 2.669067 1_555
O3 Sr2 2.669513 1_545
O3 Sr3 2.669739 1_544
O3 Sr3 2.670181 1_554
O4 Sr0 2.360145 1_545
O4 Sr0 2.360219 1_555
O5 Sr2 2.852074 1_555
O5 Sr2 2.852361 1_545
O5 Sr2 2.852413 1_455
O5 Sr2 2.853102 1_445
O6 Sr1 2.359440 1_655
O6 Sr1 2.359551 1_555
O7 Sr3 2.852259 1_555
O7 Sr3 2.852353 1_655
O7 Sr3 2.852586 1_565
O7 Sr3 2.853082 1_665
