# generated using pymatgen
data_Lu4MgTi2O10
_symmetry_space_group_name_H-M   'P 1'
_cell_length_a   3.87235666
_cell_length_b   5.83138037
_cell_length_c   11.47772333
_cell_angle_alpha   79.45205015
_cell_angle_beta   89.99984312
_cell_angle_gamma   70.60513092
_symmetry_Int_Tables_number   1
_chemical_formula_structural   Lu4MgTi2O10
_chemical_formula_sum   'Lu4 Mg1 Ti2 O10'
_cell_volume   239.82469852
_cell_formula_units_Z   1
loop_
 _symmetry_equiv_pos_site_id
 _symmetry_equiv_pos_as_xyz
  1  'x, y, z'
loop_
 _atom_site_type_symbol
 _atom_site_label
 _atom_site_symmetry_multiplicity
 _atom_site_fract_x
 _atom_site_fract_y
 _atom_site_fract_z
 _atom_site_occupancy
  Lu  Lu0  1  0.17809249  0.64375935  0.88461455  1
  Lu  Lu1  1  0.14940401  0.70113112  0.55786553  1
  Lu  Lu2  1  0.82176284  0.35654940  0.11537133  1
  Lu  Lu3  1  0.85086096  0.29832365  0.44178053  1
  Mg  Mg0  1  0.50078240  0.99910959  0.00170355  1
  Ti  Ti0  1  0.13657925  0.72699581  0.26829511  1
  Ti  Ti1  1  0.86395495  0.27182645  0.73152156  1
  O  O0  1  0.02387396  0.95163820  0.37926233  1
  O  O1  1  0.02391353  0.95292706  0.12111562  1
  O  O2  1  0.66681185  0.66627711  0.96347342  1
  O  O3  1  0.72513366  0.54970488  0.57689533  1
  O  O4  1  0.29065831  0.41867460  0.74722056  1
  O  O5  1  0.70884582  0.58218516  0.25304463  1
  O  O6  1  0.33260163  0.33485705  0.03652813  1
  O  O7  1  0.27540307  0.44919284  0.42368288  1
  O  O8  1  0.97635760  0.04812619  0.61996677  1
  O  O9  1  0.97496367  0.04872155  0.87765617  1
loop_
_geom_bond_atom_site_label_1
_geom_bond_atom_site_label_2
_geom_bond_distance
_geom_bond_site_symmetry_2
Lu0 O2 2.150951 1_555
Lu0 O2 2.151087 1_455
Lu0 O6 2.185697 1_556
Lu0 O4 2.185740 1_555
Lu0 O9 2.213369 1_465
Lu1 O3 2.102272 1_455
Lu1 O3 2.102311 1_555
Lu1 O8 2.163096 1_465
Lu1 O0 2.237094 1_555
Lu1 O7 2.262899 1_555
Lu1 O4 2.413858 1_555
Lu2 O6 2.150280 1_655
Lu2 O6 2.150348 1_555
Lu2 O2 2.188411 1_554
Lu2 O5 2.190547 1_555
Lu2 O1 2.208262 1_645
Lu3 O7 2.100832 1_655
Lu3 O7 2.100920 1_555
Lu3 O0 2.163886 1_645
Lu3 O8 2.232535 1_555
Lu3 O3 2.269187 1_555
Lu3 O5 2.411997 1_555
Mg0 O2 1.963651 1_554
Mg0 O6 1.963880 1_565
Mg0 O1 2.357139 1_555
Mg0 O1 2.357377 1_655
Mg0 O9 2.384213 1_564
Mg0 O9 2.390557 1_464
O0 Ti0 1.939029 1_555
O1 Ti0 1.892941 1_555
O3 Ti1 2.105484 1_555
O4 Ti1 2.118514 1_555
O4 Ti1 2.119494 1_455
O5 Ti0 2.113233 1_555
O5 Ti0 2.114294 1_655
O7 Ti0 2.111398 1_555
O8 Ti1 1.940345 1_555
O9 Ti1 1.876262 1_555
