# generated using pymatgen
data_MgCo2(CO3)4
_symmetry_space_group_name_H-M   'P 1'
_cell_length_a   6.59552586
_cell_length_b   7.78983244
_cell_length_c   5.28453537
_cell_angle_alpha   91.51480259
_cell_angle_beta   117.85212474
_cell_angle_gamma   88.97366214
_symmetry_Int_Tables_number   1
_chemical_formula_structural   MgCo2(CO3)4
_chemical_formula_sum   'Mg1 Co2 C4 O12'
_cell_volume   239.96782022
_cell_formula_units_Z   1
loop_
 _symmetry_equiv_pos_site_id
 _symmetry_equiv_pos_as_xyz
  1  'x, y, z'
loop_
 _atom_site_type_symbol
 _atom_site_label
 _atom_site_symmetry_multiplicity
 _atom_site_fract_x
 _atom_site_fract_y
 _atom_site_fract_z
 _atom_site_occupancy
  Mg  Mg0  1  0.30383500  0.95287000  0.60055600  1
  Co  Co0  1  0.97478500  0.00590100  0.95733400  1
  Co  Co1  1  0.51205900  0.51023800  0.00303600  1
  C  C0  1  0.12461100  0.26031900  0.87058900  1
  C  C1  1  0.60377400  0.24210100  0.88815700  1
  C  C2  1  0.39580600  0.77352100  0.14355000  1
  C  C3  1  0.89220700  0.74534900  0.10556200  1
  O  O0  1  0.09719600  0.11347800  0.71751300  1
  O  O1  1  0.18139100  0.39968100  0.81536200  1
  O  O2  1  0.38826100  0.76181800  0.88967000  1
  O  O3  1  0.07398900  0.23473000  0.07876200  1
  O  O4  1  0.34485700  0.91174800  0.23803900  1
  O  O5  1  0.45874000  0.63456400  0.28717900  1
  O  O6  1  0.55913800  0.37373600  0.72622600  1
  O  O7  1  0.61835500  0.08703600  0.80172400  1
  O  O8  1  0.88398500  0.77331300  0.85767200  1
  O  O9  1  0.61740100  0.27751800  0.13599400  1
  O  O10  1  0.83742900  0.61046900  0.17773100  1
  O  O11  1  0.96551400  0.88518000  0.27677200  1
loop_
_geom_bond_atom_site_label_1
_geom_bond_atom_site_label_2
_geom_bond_distance
_geom_bond_site_symmetry_2
Mg0 O2 2.038350 1_555
Mg0 O4 2.072346 1_555
Mg0 O7 2.117552 1_565
Mg0 O0 2.118931 1_565
Mg0 O11 2.147517 1_455
Co0 O3 1.899032 1_656
Co0 O8 1.900641 1_545
Co0 O11 1.979935 1_546
Co0 O0 1.999176 1_655
Co0 O7 2.184052 1_555
Co0 O4 2.303532 1_646
Co1 O6 1.922824 1_554
Co1 O5 1.928893 1_555
Co1 O9 1.956760 1_555
Co1 O10 2.058621 1_555
Co1 O2 2.100944 1_554
Co1 O1 2.117272 1_554
C0 O1 1.239920 1_555
C0 O3 1.310954 1_556
C0 O0 1.348080 1_555
C1 O6 1.292518 1_555
C1 O9 1.292793 1_556
C1 O7 1.297954 1_555
C2 O4 1.279480 1_555
C2 O5 1.285713 1_555
C2 O2 1.319883 1_554
C3 O10 1.242364 1_555
C3 O8 1.309479 1_554
C3 O11 1.340475 1_555
