# generated using pymatgen
data_Na2In4SiS5O24
_symmetry_space_group_name_H-M   'P 1'
_cell_length_a   8.93121011
_cell_length_b   8.93622222
_cell_length_c   23.39475263
_cell_angle_alpha   89.43267529
_cell_angle_beta   90.33236157
_cell_angle_gamma   119.78687901
_symmetry_Int_Tables_number   1
_chemical_formula_structural   Na2In4SiS5O24
_chemical_formula_sum   'Na6 In12 Si3 S15 O72'
_cell_volume   1620.39356199
_cell_formula_units_Z   3
loop_
 _symmetry_equiv_pos_site_id
 _symmetry_equiv_pos_as_xyz
  1  'x, y, z'
loop_
 _atom_site_type_symbol
 _atom_site_label
 _atom_site_symmetry_multiplicity
 _atom_site_fract_x
 _atom_site_fract_y
 _atom_site_fract_z
 _atom_site_occupancy
  Na  Na0  1  0.98464434  0.97923594  0.50790820  1
  Na  Na1  1  0.00056595  0.00003658  0.99699648  1
  Na  Na2  1  0.67084748  0.31842972  0.82083009  1
  Na  Na3  1  0.64337256  0.31467853  0.33376607  1
  Na  Na4  1  0.32794046  0.68379134  0.17589330  1
  Na  Na5  1  0.37393318  0.68143933  0.66475582  1
  In  In0  1  0.00987432  0.99935633  0.35104684  1
  In  In1  1  0.98652154  0.00242545  0.84286330  1
  In  In2  1  0.97859007  0.98607326  0.64838959  1
  In  In3  1  0.00758511  0.99777904  0.15376591  1
  In  In4  1  0.66537832  0.33131695  0.68175181  1
  In  In5  1  0.65751339  0.32557348  0.18701757  1
  In  In6  1  0.66734489  0.32925886  0.98179497  1
  In  In7  1  0.66501703  0.33860322  0.48690726  1
  In  In8  1  0.33228436  0.66999921  0.01608350  1
  In  In9  1  0.34632917  0.66790064  0.52055748  1
  In  In10  1  0.33420801  0.67702574  0.31726271  1
  In  In11  1  0.34334604  0.67288347  0.81140713  1
  Si  Si0  1  0.29871037  0.99811353  0.24980924  1
  Si  Si1  1  0.69958033  0.00849591  0.75081350  1
  Si  Si2  1  0.66895128  0.62820078  0.58273646  1
  S  S0  1  0.70298722  0.70433222  0.24964957  1
  S  S1  1  0.00150130  0.29708730  0.24946975  1
  S  S2  1  0.29288700  0.29175787  0.75102026  1
  S  S3  1  0.00063388  0.70336882  0.75260812  1
  S  S4  1  0.96657829  0.33399585  0.58134117  1
  S  S5  1  0.36412132  0.03341089  0.58250501  1
  S  S6  1  0.95847137  0.62610806  0.08287105  1
  S  S7  1  0.67038364  0.03435796  0.08294905  1
  S  S8  1  0.36876946  0.33484324  0.08121731  1
  S  S9  1  0.63222565  0.66656774  0.91927174  1
  S  S10  1  0.04107040  0.37227072  0.91775927  1
  S  S11  1  0.32820242  0.96500838  0.91773629  1
  S  S12  1  0.63803664  0.97166802  0.41601396  1
  S  S13  1  0.33153417  0.37188744  0.41488486  1
  S  S14  1  0.03577959  0.66137128  0.41803837  1
  O  O0  1  0.21027912  0.02549145  0.30580687  1
  O  O1  1  0.80463636  0.78892025  0.30106137  1
  O  O2  1  0.96700556  0.18576903  0.30027763  1
  O  O3  1  0.22241516  0.19089167  0.80587597  1
  O  O4  1  0.98605728  0.78332978  0.80702738  1
  O  O5  1  0.79676731  0.03762059  0.81348911  1
  O  O6  1  0.79570145  0.98298235  0.69705862  1
  O  O7  1  0.19065005  0.20114610  0.70091817  1
  O  O8  1  0.03229820  0.81385168  0.70248616  1
  O  O9  1  0.77300874  0.81137606  0.19665187  1
  O  O10  1  0.01777997  0.21729602  0.19592574  1
  O  O11  1  0.19486112  0.96929065  0.18920096  1
  O  O12  1  0.88297421  0.34835186  0.63279784  1
  O  O13  1  0.47509766  0.10795493  0.63252024  1
  O  O14  1  0.64495150  0.51518136  0.63984322  1
  O  O15  1  0.87564144  0.52026344  0.13423263  1
  O  O16  1  0.64558756  0.11681912  0.13310420  1
  O  O17  1  0.47337173  0.35864112  0.13279730  1
  O  O18  1  0.44938774  0.31092047  0.02920520  1
  O  O19  1  0.85873097  0.54524524  0.02990691  1
  O  O20  1  0.69613164  0.13637360  0.02945084  1
  O  O21  1  0.44243658  0.13043071  0.52816727  1
  O  O22  1  0.68972824  0.55025424  0.52233777  1
  O  O23  1  0.85785584  0.29883047  0.52880786  1
  O  O24  1  0.55422007  0.69046967  0.97223178  1
  O  O25  1  0.13843874  0.45076842  0.97167805  1
  O  O26  1  0.30378297  0.86569297  0.97229693  1
  O  O27  1  0.55695966  0.86457687  0.46726507  1
  O  O28  1  0.31471699  0.45706579  0.46581367  1
  O  O29  1  0.14424518  0.68221381  0.46852441  1
  O  O30  1  0.11490490  0.64457856  0.36444986  1
  O  O31  1  0.53548885  0.89558025  0.36345772  1
  O  O32  1  0.35290117  0.47515410  0.36168667  1
  O  O33  1  0.12632985  0.48010252  0.86731433  1
  O  O34  1  0.35325365  0.87950912  0.86855231  1
  O  O35  1  0.52537351  0.64297195  0.86852734  1
  O  O36  1  0.01329908  0.81648643  0.41514391  1
  O  O37  1  0.81264351  0.98833297  0.41055545  1
  O  O38  1  0.17074614  0.20101977  0.41199105  1
  O  O39  1  0.02454062  0.19912875  0.91496989  1
  O  O40  1  0.17442520  0.98637474  0.91199315  1
  O  O41  1  0.80776982  0.81864378  0.91480478  1
  O  O42  1  0.00390672  0.18975051  0.58560725  1
  O  O43  1  0.19721446  0.02926995  0.58886381  1
  O  O44  1  0.84275789  0.81920627  0.58447005  1
  O  O45  1  0.97348383  0.79906466  0.08575985  1
  O  O46  1  0.82604793  0.01426461  0.08870700  1
  O  O47  1  0.19298567  0.18195677  0.08532174  1
  O  O48  1  0.67754191  0.17827589  0.74411650  1
  O  O49  1  0.47157525  0.32465277  0.74799538  1
  O  O50  1  0.84000182  0.53506590  0.74825683  1
  O  O51  1  0.70114968  0.53800275  0.24394985  1
  O  O52  1  0.85429423  0.33013505  0.24417383  1
  O  O53  1  0.49130914  0.17189291  0.24719209  1
  O  O54  1  0.64656928  0.50663579  0.92412942  1
  O  O55  1  0.86479663  0.35456612  0.92149442  1
  O  O56  1  0.48758356  0.13902153  0.92265293  1
  O  O57  1  0.65571662  0.14601926  0.42163219  1
  O  O58  1  0.48446200  0.34749261  0.41750627  1
  O  O59  1  0.86396747  0.50301208  0.42109621  1
  O  O60  1  0.35344272  0.49405625  0.07616918  1
  O  O61  1  0.13514365  0.64556794  0.07912120  1
  O  O62  1  0.51270177  0.86018393  0.07788074  1
  O  O63  1  0.33273769  0.85426110  0.57710577  1
  O  O64  1  0.49549353  0.64948742  0.58187093  1
  O  O65  1  0.13144236  0.49858809  0.57517686  1
  O  O66  1  0.32018308  0.82628467  0.25403195  1
  O  O67  1  0.52349949  0.67039723  0.25504081  1
  O  O68  1  0.16360293  0.46421421  0.25518331  1
  O  O69  1  0.29483819  0.45948216  0.75526108  1
  O  O70  1  0.14920681  0.67284515  0.75733565  1
  O  O71  1  0.50922780  0.83179069  0.75299643  1
loop_
_geom_bond_atom_site_label_1
_geom_bond_atom_site_label_2
_geom_bond_distance
_geom_bond_site_symmetry_2
Na0 O44 2.243706 1_555
Na0 O43 2.554001 1_665
Na0 O42 2.572020 1_665
Na0 O36 2.707246 1_655
Na0 O37 2.762873 1_555
Na0 O38 2.899694 1_665
Na1 O39 2.540147 1_555
Na1 O41 2.557346 1_445
Na1 O40 2.570923 1_545
Na1 O45 2.663927 1_446
Na1 O47 2.667500 1_556
Na1 O46 2.700007 1_456
Na2 O48 2.216593 1_555
Na2 O50 2.443687 1_555
Na2 O49 2.476953 1_555
Na2 O55 2.839521 1_555
Na2 O56 2.878588 1_555
Na2 O54 3.027341 1_555
Na3 O53 2.423271 1_555
Na3 O58 2.528917 1_555
Na3 O57 2.571062 1_555
Na3 O51 2.751459 1_555
Na3 O59 2.759560 1_555
Na3 O52 2.782526 1_555
Na4 O66 2.259016 1_555
Na4 O68 2.558018 1_555
Na4 O67 2.580546 1_555
Na4 O61 2.755518 1_555
Na4 O62 2.802392 1_555
Na4 O60 2.972848 1_555
Na5 O64 2.315947 1_555
Na5 O71 2.437182 1_555
Na5 O63 2.686690 1_555
Na5 O69 2.731002 1_555
Na5 O65 2.872525 1_555
Na5 O70 2.935864 1_555
In0 O0 1.995008 1_565
In0 O38 2.190742 1_565
In0 O1 2.204011 1_455
In0 O37 2.214530 1_455
In0 O36 2.218252 1_555
In0 O2 2.218445 1_465
In1 O5 1.988737 1_555
In1 O3 2.119153 1_655
In1 O4 2.135558 1_545
In1 O41 2.334527 1_545
In1 O39 2.347306 1_655
In1 O40 2.378152 1_645
In2 O6 1.985284 1_555
In2 O44 2.038929 1_555
In2 O8 2.210923 1_655
In2 O42 2.250165 1_665
In2 O43 2.274406 1_665
In2 O7 2.279094 1_665
In3 O11 1.988073 1_555
In3 O10 2.165412 1_565
In3 O9 2.166688 1_455
In3 O46 2.274051 1_465
In3 O47 2.299019 1_565
In3 O45 2.300061 1_455
In4 O14 1.989476 1_555
In4 O48 2.029068 1_555
In4 O12 2.200007 1_555
In4 O13 2.202567 1_555
In4 O49 2.308280 1_555
In4 O50 2.318366 1_555
In5 O53 2.007940 1_555
In5 O52 2.186564 1_555
In5 O51 2.199656 1_555
In5 O17 2.202792 1_555
In5 O16 2.220319 1_555
In5 O15 2.228220 1_555
In6 O54 2.147991 1_555
In6 O19 2.157955 1_556
In6 O20 2.163108 1_556
In6 O56 2.165886 1_555
In6 O18 2.179657 1_556
In6 O55 2.185736 1_555
In7 O22 1.981716 1_555
In7 O23 2.152947 1_555
In7 O21 2.157928 1_555
In7 O59 2.253770 1_555
In7 O57 2.282369 1_555
In7 O58 2.310236 1_555
In8 O25 2.136391 1_554
In8 O26 2.139181 1_554
In8 O24 2.162057 1_554
In8 O60 2.175325 1_555
In8 O62 2.208109 1_555
In8 O61 2.228108 1_555
In9 O64 2.012554 1_555
In9 O65 2.170356 1_555
In9 O63 2.187384 1_555
In9 O28 2.187405 1_555
In9 O27 2.209323 1_555
In9 O29 2.226313 1_555
In10 O66 2.026758 1_555
In10 O30 2.143247 1_555
In10 O32 2.149975 1_555
In10 O31 2.178294 1_555
In10 O67 2.260611 1_555
In10 O68 2.279817 1_555
In11 O71 1.993377 1_555
In11 O70 2.140227 1_555
In11 O69 2.184455 1_555
In11 O35 2.213512 1_555
In11 O34 2.256034 1_555
In11 O33 2.258868 1_555
O0 Si0 1.615612 1_545
O1 S0 1.471645 1_555
O2 S1 1.474337 1_655
O3 S2 1.509422 1_555
O4 S3 1.503575 1_655
O5 Si1 1.655136 1_555
O6 Si1 1.607217 1_565
O7 S2 1.461189 1_555
O8 S3 1.460554 1_555
O9 S0 1.494839 1_555
O10 S1 1.490463 1_555
O11 Si0 1.640641 1_555
O12 S4 1.460079 1_555
O13 S5 1.463298 1_555
O14 Si2 1.616287 1_555
O15 S6 1.475914 1_555
O16 S7 1.466670 1_555
O17 S8 1.472664 1_555
O18 S8 1.487617 1_555
O19 S6 1.488756 1_555
O20 S7 1.490926 1_555
O21 S5 1.497626 1_555
O22 Si2 1.633147 1_555
O23 S4 1.497571 1_555
O24 S9 1.493044 1_555
O25 S10 1.496057 1_555
O26 S11 1.500998 1_555
O27 S12 1.475344 1_555
O28 S13 1.468047 1_555
O29 S14 1.476469 1_555
O30 S14 1.487625 1_555
O31 S12 1.482458 1_555
O32 S13 1.497322 1_555
O33 S10 1.469695 1_555
O34 S11 1.465621 1_555
O35 S9 1.468470 1_555
O36 S14 1.496926 1_555
O37 S12 1.497186 1_555
O38 S13 1.490167 1_555
O39 S10 1.481530 1_555
O40 S11 1.482793 1_555
O41 S9 1.482569 1_555
O42 S4 1.485492 1_455
O43 S5 1.480974 1_555
O44 Si2 1.640988 1_555
O45 S6 1.485741 1_555
O46 S7 1.492854 1_555
O47 S8 1.486149 1_555
O48 Si1 1.629968 1_555
O49 S2 1.474151 1_555
O50 S3 1.479227 1_655
O51 S0 1.485588 1_555
O52 S1 1.488036 1_655
O53 Si0 1.649101 1_545
O54 S9 1.500141 1_555
O55 S10 1.505010 1_655
O56 S11 1.503321 1_545
O57 S12 1.493011 1_545
O58 S13 1.487067 1_555
O59 S14 1.484636 1_655
O60 S8 1.498975 1_555
O61 S6 1.502124 1_455
O62 S7 1.497936 1_565
O63 S5 1.488365 1_565
O64 Si2 1.651946 1_555
O65 S4 1.482814 1_455
O66 Si0 1.641235 1_555
O67 S0 1.481963 1_555
O68 S1 1.482505 1_555
O69 S2 1.494519 1_555
O70 S3 1.484824 1_555
O71 Si1 1.648796 1_565
