# generated using pymatgen
data_KRbS
_symmetry_space_group_name_H-M   'P 1'
_cell_length_a   5.00379309
_cell_length_b   8.26427651
_cell_length_c   9.46624698
_cell_angle_alpha   90.00000000
_cell_angle_beta   90.00000000
_cell_angle_gamma   90.00000000
_symmetry_Int_Tables_number   1
_chemical_formula_structural   KRbS
_chemical_formula_sum   'K4 Rb4 S4'
_cell_volume   391.45515259
_cell_formula_units_Z   4
loop_
 _symmetry_equiv_pos_site_id
 _symmetry_equiv_pos_as_xyz
  1  'x, y, z'
loop_
 _atom_site_type_symbol
 _atom_site_label
 _atom_site_symmetry_multiplicity
 _atom_site_fract_x
 _atom_site_fract_y
 _atom_site_fract_z
 _atom_site_occupancy
  K  K0  1  0.75000000  0.64686021  0.57580824  1
  K  K1  1  0.25000000  0.35313979  0.42419176  1
  K  K2  1  0.75000000  0.14686021  0.92419176  1
  K  K3  1  0.25000000  0.85313979  0.07580824  1
  Rb  Rb0  1  0.25000000  0.97856644  0.67756752  1
  Rb  Rb1  1  0.75000000  0.02143356  0.32243248  1
  Rb  Rb2  1  0.25000000  0.47856644  0.82243248  1
  Rb  Rb3  1  0.75000000  0.52143356  0.17756752  1
  S  S0  1  0.25000000  0.73627874  0.39095196  1
  S  S1  1  0.75000000  0.26372126  0.60904804  1
  S  S2  1  0.25000000  0.23627874  0.10904804  1
  S  S3  1  0.75000000  0.76372126  0.89095196  1
loop_
_geom_bond_atom_site_label_1
_geom_bond_atom_site_label_2
_geom_bond_distance
_geom_bond_site_symmetry_2
K0 S3 3.135660 1_555
K0 S0 3.141291 1_655
K0 S0 3.141291 1_555
K0 S1 3.181962 1_555
K1 S2 3.135660 1_555
K1 S1 3.141291 1_455
K1 S1 3.141291 1_555
K1 S0 3.181962 1_555
K2 S1 3.135660 1_555
K2 S2 3.141291 1_556
K2 S2 3.141291 1_656
K2 S3 3.181962 1_545
K3 S0 3.135660 1_555
K3 S3 3.141291 1_454
K3 S3 3.141291 1_554
K3 S2 3.181962 1_565
Rb0 S0 3.372039 1_555
Rb0 S1 3.497678 1_565
Rb0 S1 3.497678 1_465
Rb0 S3 3.673177 1_455
Rb0 S3 3.673177 1_555
Rb1 S1 3.372039 1_555
Rb1 S0 3.497678 1_645
Rb1 S0 3.497678 1_545
Rb1 S2 3.673177 1_555
Rb1 S2 3.673177 1_655
Rb2 S2 3.372039 1_556
Rb2 S3 3.497678 1_555
Rb2 S3 3.497678 1_455
Rb2 S1 3.673177 1_455
Rb2 S1 3.673177 1_555
Rb3 S3 3.372039 1_554
Rb3 S2 3.497678 1_655
Rb3 S2 3.497678 1_555
Rb3 S0 3.673177 1_655
Rb3 S0 3.673177 1_555
