# generated using pymatgen
data_MgCu4(AsS)4
_symmetry_space_group_name_H-M   'P 1'
_cell_length_a   3.83316880
_cell_length_b   5.35347376
_cell_length_c   12.81651068
_cell_angle_alpha   98.40412624
_cell_angle_beta   90.03658830
_cell_angle_gamma   89.99224934
_symmetry_Int_Tables_number   1
_chemical_formula_structural   MgCu4(AsS)4
_chemical_formula_sum   'Mg1 Cu4 As4 S4'
_cell_volume   260.18040236
_cell_formula_units_Z   1
loop_
 _symmetry_equiv_pos_site_id
 _symmetry_equiv_pos_as_xyz
  1  'x, y, z'
loop_
 _atom_site_type_symbol
 _atom_site_label
 _atom_site_symmetry_multiplicity
 _atom_site_fract_x
 _atom_site_fract_y
 _atom_site_fract_z
 _atom_site_occupancy
  Mg  Mg0  1  0.77978402  0.40766752  0.80650383  1
  Cu  Cu0  1  0.28159888  0.43037624  0.33026793  1
  Cu  Cu1  1  0.78007498  0.86511498  0.18200784  1
  Cu  Cu2  1  0.77983825  0.67437644  0.63732504  1
  Cu  Cu3  1  0.28114602  0.94022520  0.88236976  1
  As  As0  1  0.77932203  0.54986501  0.02562162  1
  As  As1  1  0.27824866  0.20167639  0.47993362  1
  As  As2  1  0.77843678  0.89480426  0.49294203  1
  As  As3  1  0.27964987  0.24572582  0.03520617  1
  S  S0  1  0.78077406  0.92940448  0.79583158  1
  S  S1  1  0.78119954  0.66374311  0.32918220  1
  S  S2  1  0.28004197  0.10576867  0.19595467  1
  S  S3  1  0.27991893  0.42458488  0.65129771  1
loop_
_geom_bond_atom_site_label_1
_geom_bond_atom_site_label_2
_geom_bond_distance
_geom_bond_site_symmetry_2
Mg0 S0 2.543981 1_545
Mg0 S3 2.772036 1_555
Mg0 S3 2.774523 1_655
Mg0 S0 2.816352 1_555
Cu0 S2 2.260261 1_555
Cu0 S1 2.287837 1_555
Cu0 S1 2.290102 1_455
Cu1 S2 2.301625 1_665
Cu1 S2 2.301736 1_565
Cu1 S1 2.305332 1_555
Cu2 S0 2.276020 1_555
Cu2 S3 2.358719 1_555
Cu2 S3 2.358742 1_655
Cu2 Mg0 2.764973 1_555
Cu3 S0 2.210256 1_555
Cu3 S0 2.211514 1_455
As0 Cu1 2.424214 1_555
As0 As3 2.528679 1_555
As0 As3 2.530131 1_655
As0 Mg0 2.800231 1_554
As1 S3 2.341292 1_555
As1 Cu0 2.421809 1_555
As1 As2 2.545299 1_445
As1 As2 2.545890 1_545
As2 S1 2.275181 1_555
As2 Cu2 2.335626 1_555
As3 S2 2.292852 1_555
As3 Cu3 2.361235 1_544
