# generated using pymatgen
data_Mg2Ag
_symmetry_space_group_name_H-M   'P 1'
_cell_length_a   5.56319857
_cell_length_b   5.56319857
_cell_length_c   4.78418904
_cell_angle_alpha   90.00000000
_cell_angle_beta   90.00000000
_cell_angle_gamma   128.86973182
_symmetry_Int_Tables_number   1
_chemical_formula_structural   Mg2Ag
_chemical_formula_sum   'Mg4 Ag2'
_cell_volume   115.28101367
_cell_formula_units_Z   2
loop_
 _symmetry_equiv_pos_site_id
 _symmetry_equiv_pos_as_xyz
  1  'x, y, z'
loop_
 _atom_site_type_symbol
 _atom_site_label
 _atom_site_symmetry_multiplicity
 _atom_site_fract_x
 _atom_site_fract_y
 _atom_site_fract_z
 _atom_site_occupancy
  Mg  Mg0  1  0.59450203  0.90152388  0.25000000  1
  Mg  Mg1  1  0.09847612  0.40549797  0.75000000  1
  Mg  Mg2  1  0.90152388  0.59450203  0.25000000  1
  Mg  Mg3  1  0.40549797  0.09847612  0.75000000  1
  Ag  Ag0  1  0.75309092  0.75309092  0.75000000  1
  Ag  Ag1  1  0.24690908  0.24690908  0.25000000  1
loop_
_geom_bond_atom_site_label_1
_geom_bond_atom_site_label_2
_geom_bond_distance
_geom_bond_site_symmetry_2
Mg0 Mg3 3.078019 1_564
Mg0 Mg3 3.078019 1_565
Mg0 Mg2 3.081600 1_555
Mg0 Mg2 3.084672 1_455
Mg0 Mg2 3.084672 1_565
Mg0 Mg1 3.375551 1_554
Mg0 Mg1 3.375551 1_555
Mg0 Mg1 3.402584 1_664
Mg0 Mg1 3.402584 1_665
Mg1 Mg2 3.078019 1_456
Mg1 Mg2 3.078019 1_455
Mg1 Mg3 3.081600 1_555
Mg1 Mg3 3.084672 1_565
Mg1 Mg3 3.084672 1_455
Mg2 Mg3 3.375551 1_554
Mg2 Mg3 3.375551 1_555
Mg2 Mg3 3.402584 1_664
Mg2 Mg3 3.402584 1_665
Ag0 Mg0 2.845483 1_555
Ag0 Mg0 2.845483 1_556
Ag0 Mg2 2.845483 1_556
Ag0 Mg2 2.845483 1_555
Ag0 Mg3 2.848179 1_665
Ag0 Mg1 2.848179 1_665
Ag0 Mg3 2.857101 1_555
Ag0 Mg1 2.857101 1_555
Ag0 Mg1 3.477739 1_655
Ag0 Mg3 3.477739 1_565
Ag1 Mg1 2.845483 1_555
Ag1 Mg3 2.845483 1_554
Ag1 Mg1 2.845483 1_554
Ag1 Mg3 2.845483 1_555
Ag1 Mg2 2.848179 1_445
Ag1 Mg0 2.848179 1_445
Ag1 Mg2 2.857101 1_555
Ag1 Mg0 2.857101 1_555
Ag1 Mg2 3.477739 1_455
Ag1 Mg0 3.477739 1_545
