# generated using pymatgen
data_CaNb2O4
_symmetry_space_group_name_H-M   'P 1'
_cell_length_a   5.09333203
_cell_length_b   5.88430427
_cell_length_c   11.95514481
_cell_angle_alpha   90.00000000
_cell_angle_beta   90.00000000
_cell_angle_gamma   90.00000000
_symmetry_Int_Tables_number   1
_chemical_formula_structural   CaNb2O4
_chemical_formula_sum   'Ca4 Nb8 O16'
_cell_volume   358.30424282
_cell_formula_units_Z   4
loop_
 _symmetry_equiv_pos_site_id
 _symmetry_equiv_pos_as_xyz
  1  'x, y, z'
loop_
 _atom_site_type_symbol
 _atom_site_label
 _atom_site_symmetry_multiplicity
 _atom_site_fract_x
 _atom_site_fract_y
 _atom_site_fract_z
 _atom_site_occupancy
  Ca  Ca0  1  0.69073327  0.25000000  0.49624933  1
  Ca  Ca1  1  0.69073327  0.75000000  0.00375067  1
  Ca  Ca2  1  0.30926673  0.75000000  0.50375067  1
  Ca  Ca3  1  0.30926673  0.25000000  0.99624933  1
  Nb  Nb0  1  0.84417891  -0.00000000  0.25000000  1
  Nb  Nb1  1  0.15582109  0.50000000  0.75000000  1
  Nb  Nb2  1  0.15582109  -0.00000000  0.75000000  1
  Nb  Nb3  1  0.84417891  0.50000000  0.25000000  1
  Nb  Nb4  1  0.65934370  0.75000000  0.74626433  1
  Nb  Nb5  1  0.65934370  0.25000000  0.75373567  1
  Nb  Nb6  1  0.34065630  0.25000000  0.25373567  1
  Nb  Nb7  1  0.34065630  0.75000000  0.24626433  1
  O  O0  1  0.98577852  0.75000000  0.85720730  1
  O  O1  1  0.98577852  0.25000000  0.64279270  1
  O  O2  1  0.01422148  0.25000000  0.14279270  1
  O  O3  1  0.01422148  0.75000000  0.35720730  1
  O  O4  1  0.99374667  0.75000000  0.63934937  1
  O  O5  1  0.99374667  0.25000000  0.86065063  1
  O  O6  1  0.00625333  0.25000000  0.36065063  1
  O  O7  1  0.00625333  0.75000000  0.13934937  1
  O  O8  1  0.50771397  0.99552295  0.36294151  1
  O  O9  1  0.50771397  0.00447705  0.13705849  1
  O  O10  1  0.49228603  0.49552295  0.63705849  1
  O  O11  1  0.49228603  0.50447705  0.86294151  1
  O  O12  1  0.50771397  0.49552295  0.13705849  1
  O  O13  1  0.50771397  0.50447705  0.36294151  1
  O  O14  1  0.49228603  0.99552295  0.86294151  1
  O  O15  1  0.49228603  0.00447705  0.63705849  1
loop_
_geom_bond_atom_site_label_1
_geom_bond_atom_site_label_2
_geom_bond_distance
_geom_bond_site_symmetry_2
Ca0 O6 2.282669 1_655
Ca0 O1 2.308163 1_555
Ca0 O8 2.377215 1_545
Ca0 O13 2.377215 1_555
Ca0 O15 2.437765 1_555
Ca0 O10 2.437765 1_555
Ca1 O7 2.282669 1_655
Ca1 O0 2.308163 1_554
Ca1 O12 2.377215 1_555
Ca1 O9 2.377215 1_565
Ca1 O14 2.437765 1_554
Ca1 O11 2.437765 1_554
Ca2 O4 2.282669 1_455
Ca2 O3 2.308163 1_555
Ca2 O10 2.377215 1_555
Ca2 O15 2.377215 1_565
Ca2 O8 2.437765 1_555
Ca2 O13 2.437765 1_555
Ca3 O5 2.282669 1_455
Ca3 O2 2.308163 1_556
Ca3 O14 2.377215 1_545
Ca3 O11 2.377215 1_555
Ca3 O9 2.437765 1_556
Ca3 O12 2.437765 1_556
Nb0 O3 2.134682 1_645
Nb0 O2 2.134682 1_655
Nb0 O7 2.143695 1_645
Nb0 O6 2.143695 1_655
Nb0 O9 2.181899 1_555
Nb0 O8 2.181899 1_545
Nb1 O0 2.134682 1_455
Nb1 O1 2.134682 1_455
Nb1 O5 2.143695 1_455
Nb1 O4 2.143695 1_455
Nb1 O10 2.181899 1_555
Nb1 O11 2.181899 1_555
Nb2 O1 2.134682 1_455
Nb2 O0 2.134682 1_445
Nb2 O5 2.143695 1_455
Nb2 O4 2.143695 1_445
Nb2 O15 2.181899 1_555
Nb2 O14 2.181899 1_545
Nb3 O3 2.134682 1_655
Nb3 O2 2.134682 1_655
Nb3 O7 2.143695 1_655
Nb3 O6 2.143695 1_655
Nb3 O12 2.181899 1_555
Nb3 O13 2.181899 1_555
Nb4 O0 2.126864 1_555
Nb4 O4 2.129491 1_555
Nb4 O10 2.161199 1_555
Nb4 O15 2.161199 1_565
Nb4 O11 2.181048 1_555
Nb4 O14 2.181048 1_555
Nb5 O1 2.126864 1_555
Nb5 O5 2.129491 1_555
Nb5 O14 2.161199 1_545
Nb5 O11 2.161199 1_555
Nb5 O15 2.181048 1_555
Nb5 O10 2.181048 1_555
Nb6 O2 2.126864 1_555
Nb6 O6 2.129491 1_555
Nb6 O8 2.161199 1_545
Nb6 O13 2.161199 1_555
Nb6 O9 2.181048 1_555
Nb6 O12 2.181048 1_555
Nb7 O3 2.126864 1_555
Nb7 O7 2.129491 1_555
Nb7 O12 2.161199 1_555
Nb7 O9 2.161199 1_565
Nb7 O8 2.181048 1_555
Nb7 O13 2.181048 1_555
