# generated using pymatgen
data_Ta2Te5Pd3
_symmetry_space_group_name_H-M   'P 1'
_cell_length_a   3.76159929
_cell_length_b   14.72196635
_cell_length_c   18.71963138
_cell_angle_alpha   90.00000000
_cell_angle_beta   90.00000000
_cell_angle_gamma   90.00000000
_symmetry_Int_Tables_number   1
_chemical_formula_structural   Ta2Te5Pd3
_chemical_formula_sum   'Ta8 Te20 Pd12'
_cell_volume   1036.65833304
_cell_formula_units_Z   4
loop_
 _symmetry_equiv_pos_site_id
 _symmetry_equiv_pos_as_xyz
  1  'x, y, z'
loop_
 _atom_site_type_symbol
 _atom_site_label
 _atom_site_symmetry_multiplicity
 _atom_site_fract_x
 _atom_site_fract_y
 _atom_site_fract_z
 _atom_site_occupancy
  Ta  Ta0  1  0.25000000  0.25029581  0.41573934  1
  Ta  Ta1  1  0.75000000  0.74970419  0.58426066  1
  Ta  Ta2  1  0.25000000  0.75029581  0.08426066  1
  Ta  Ta3  1  0.75000000  0.24970419  0.91573934  1
  Ta  Ta4  1  0.25000000  0.25428517  0.66785207  1
  Ta  Ta5  1  0.75000000  0.74571483  0.33214793  1
  Ta  Ta6  1  0.25000000  0.75428517  0.83214793  1
  Ta  Ta7  1  0.75000000  0.24571483  0.16785207  1
  Te  Te0  1  0.25000000  0.11419424  0.22031846  1
  Te  Te1  1  0.75000000  0.88580576  0.77968154  1
  Te  Te2  1  0.25000000  0.61419424  0.27968154  1
  Te  Te3  1  0.75000000  0.38065977  0.36161424  1
  Te  Te4  1  0.75000000  0.38580576  0.72031846  1
  Te  Te5  1  0.25000000  0.11934023  0.86161424  1
  Te  Te6  1  0.75000000  0.88065977  0.13838576  1
  Te  Te7  1  0.25000000  0.61934023  0.63838576  1
  Te  Te8  1  0.25000000  0.38902589  0.14673604  1
  Te  Te9  1  0.75000000  0.61097411  0.85326396  1
  Te  Te10  1  0.25000000  0.88902589  0.35326396  1
  Te  Te11  1  0.75000000  0.11097411  0.64673604  1
  Te  Te12  1  0.75000000  0.14334210  0.04083978  1
  Te  Te13  1  0.25000000  0.85665790  0.95916022  1
  Te  Te14  1  0.75000000  0.64334210  0.45916022  1
  Te  Te15  1  0.25000000  0.35665790  0.54083978  1
  Te  Te16  1  0.25000000  0.39241569  0.93920038  1
  Te  Te17  1  0.75000000  0.60758431  0.06079962  1
  Te  Te18  1  0.25000000  0.89241569  0.56079962  1
  Te  Te19  1  0.75000000  0.10758431  0.43920038  1
  Pd  Pd0  1  0.25000000  0.31494251  0.81061590  1
  Pd  Pd1  1  0.25000000  0.30681491  0.27313872  1
  Pd  Pd2  1  0.75000000  0.69318509  0.72686128  1
  Pd  Pd3  1  0.25000000  0.80681491  0.22686128  1
  Pd  Pd4  1  0.75000000  0.19318509  0.77313872  1
  Pd  Pd5  1  0.75000000  0.68505749  0.18938410  1
  Pd  Pd6  1  0.25000000  0.81494251  0.68938410  1
  Pd  Pd7  1  0.75000000  0.18505749  0.31061590  1
  Pd  Pd8  1  0.25000000  0.27036024  0.04181220  1
  Pd  Pd9  1  0.75000000  0.72963976  0.95818780  1
  Pd  Pd10  1  0.25000000  0.77036024  0.45818780  1
  Pd  Pd11  1  0.75000000  0.22963976  0.54181220  1
loop_
_geom_bond_atom_site_label_1
_geom_bond_atom_site_label_2
_geom_bond_distance
_geom_bond_site_symmetry_2
Ta0 Te15 2.817109 1_555
Ta0 Te19 2.853851 1_455
Ta0 Te19 2.853851 1_555
Ta0 Te3 2.871823 1_455
Ta0 Te3 2.871823 1_555
Ta1 Te14 2.817109 1_555
Ta1 Te18 2.853851 1_555
Ta1 Te18 2.853851 1_655
Ta1 Te7 2.871823 1_555
Ta1 Te7 2.871823 1_655
Ta2 Te13 2.817109 1_554
Ta2 Te17 2.853851 1_455
Ta2 Te17 2.853851 1_555
Ta2 Te6 2.871823 1_455
Ta2 Te6 2.871823 1_555
Ta3 Te12 2.817109 1_556
Ta3 Te16 2.853851 1_655
Ta3 Te16 2.853851 1_555
Ta3 Te5 2.871823 1_555
Ta3 Te5 2.871823 1_655
Ta4 Te15 2.815054 1_555
Ta4 Te11 2.853945 1_455
Ta4 Te11 2.853945 1_555
Ta4 Te4 2.872466 1_555
Ta4 Te4 2.872466 1_455
Ta5 Te14 2.815054 1_555
Ta5 Te10 2.853945 1_655
Ta5 Te10 2.853945 1_555
Ta5 Te2 2.872466 1_555
Ta5 Te2 2.872466 1_655
Ta6 Te13 2.815054 1_555
Ta6 Te9 2.853945 1_455
Ta6 Te9 2.853945 1_555
Ta6 Te1 2.872466 1_455
Ta6 Te1 2.872466 1_555
Ta7 Te12 2.815054 1_555
Ta7 Te8 2.853945 1_555
Ta7 Te8 2.853945 1_655
Ta7 Te0 2.872466 1_555
Ta7 Te0 2.872466 1_655
Pd0 Te16 2.663603 1_555
Pd0 Pd4 2.691223 1_555
Pd0 Pd4 2.691223 1_455
Pd0 Te4 2.735508 1_455
Pd0 Te4 2.735508 1_555
Pd0 Ta4 2.817734 1_555
Pd0 Ta3 2.886584 1_455
Pd0 Ta3 2.886584 1_555
Pd0 Te5 3.033773 1_555
Pd1 Te8 2.657781 1_555
Pd1 Pd7 2.691223 1_555
Pd1 Pd7 2.691223 1_455
Pd1 Te3 2.731736 1_455
Pd1 Te3 2.731736 1_555
Pd1 Ta0 2.796106 1_555
Pd1 Ta7 2.868987 1_455
Pd1 Ta7 2.868987 1_555
Pd1 Te0 3.003196 1_555
Pd2 Te9 2.657781 1_555
Pd2 Pd6 2.691223 1_555
Pd2 Pd6 2.691223 1_655
Pd2 Te7 2.731736 1_555
Pd2 Te7 2.731736 1_655
Pd2 Ta1 2.796106 1_555
Pd2 Ta6 2.868987 1_555
Pd2 Ta6 2.868987 1_655
Pd2 Te1 3.003196 1_555
Pd3 Te10 2.657781 1_555
Pd3 Pd5 2.691223 1_555
Pd3 Pd5 2.691223 1_455
Pd3 Te6 2.731736 1_455
Pd3 Te6 2.731736 1_555
Pd3 Ta2 2.796106 1_555
Pd3 Ta5 2.868987 1_455
Pd3 Ta5 2.868987 1_555
Pd3 Te2 3.003196 1_555
Pd4 Te11 2.657781 1_555
Pd4 Te5 2.731736 1_655
Pd4 Te5 2.731736 1_555
Pd4 Ta3 2.796106 1_555
Pd4 Ta4 2.868987 1_555
Pd4 Ta4 2.868987 1_655
Pd4 Te4 3.003196 1_555
Pd5 Te17 2.663603 1_555
Pd5 Te2 2.735508 1_655
Pd5 Te2 2.735508 1_555
Pd5 Ta5 2.817734 1_555
Pd5 Ta2 2.886584 1_555
Pd5 Ta2 2.886584 1_655
Pd5 Te6 3.033773 1_555
Pd6 Te18 2.663603 1_555
Pd6 Te1 2.735508 1_455
Pd6 Te1 2.735508 1_555
Pd6 Ta6 2.817734 1_555
Pd6 Ta1 2.886584 1_555
Pd6 Ta1 2.886584 1_455
Pd6 Te7 3.033773 1_555
Pd7 Te19 2.663603 1_555
Pd7 Te0 2.735508 1_555
Pd7 Te0 2.735508 1_655
Pd7 Ta7 2.817734 1_555
Pd7 Ta0 2.886584 1_555
Pd7 Ta0 2.886584 1_655
Pd7 Te3 3.033773 1_555
Pd8 Te8 2.628651 1_555
Pd8 Te16 2.630308 1_554
Pd8 Te12 2.652259 1_555
Pd8 Te12 2.652259 1_455
Pd8 Ta3 3.033094 1_554
Pd8 Ta3 3.033094 1_454
Pd8 Ta7 3.039065 1_555
Pd8 Ta7 3.039065 1_455
Pd9 Te9 2.628651 1_555
Pd9 Te17 2.630308 1_556
Pd9 Te13 2.652259 1_555
Pd9 Te13 2.652259 1_655
Pd9 Ta2 3.033094 1_556
Pd9 Ta2 3.033094 1_656
Pd9 Ta6 3.039065 1_555
Pd9 Ta6 3.039065 1_655
Pd10 Te10 2.628651 1_555
Pd10 Te18 2.630308 1_555
Pd10 Te14 2.652259 1_455
Pd10 Te14 2.652259 1_555
Pd10 Ta1 3.033094 1_455
Pd10 Ta1 3.033094 1_555
Pd10 Ta5 3.039065 1_455
Pd10 Ta5 3.039065 1_555
Pd11 Te11 2.628651 1_555
Pd11 Te19 2.630308 1_555
Pd11 Te15 2.652259 1_655
Pd11 Te15 2.652259 1_555
Pd11 Ta0 3.033094 1_655
Pd11 Ta0 3.033094 1_555
Pd11 Ta4 3.039065 1_555
Pd11 Ta4 3.039065 1_655
