# generated using pymatgen
data_MgGe4(BiO6)2
_symmetry_space_group_name_H-M   'P 1'
_cell_length_a   5.70409691
_cell_length_b   7.35624548
_cell_length_c   7.35624741
_cell_angle_alpha   85.40572931
_cell_angle_beta   76.23612181
_cell_angle_gamma   76.23611157
_symmetry_Int_Tables_number   1
_chemical_formula_structural   MgGe4(BiO6)2
_chemical_formula_sum   'Mg1 Ge4 Bi2 O12'
_cell_volume   291.11032221
_cell_formula_units_Z   1
loop_
 _symmetry_equiv_pos_site_id
 _symmetry_equiv_pos_as_xyz
  1  'x, y, z'
loop_
 _atom_site_type_symbol
 _atom_site_label
 _atom_site_symmetry_multiplicity
 _atom_site_fract_x
 _atom_site_fract_y
 _atom_site_fract_z
 _atom_site_occupancy
  Mg  Mg0  1  0.25000000  0.65681100  0.34318900  1
  Ge  Ge0  1  0.72373000  0.38970400  0.21977800  1
  Ge  Ge1  1  0.77627000  0.78022200  0.61029600  1
  Ge  Ge2  1  0.28148500  0.61945000  0.78774100  1
  Ge  Ge3  1  0.21851500  0.21225900  0.38055000  1
  Bi  Bi0  1  0.75000000  0.89565800  0.10434200  1
  Bi  Bi1  1  0.25000000  0.12746300  0.87253700  1
  O  O0  1  0.43004300  0.36587400  0.37400000  1
  O  O1  1  0.06995700  0.62600000  0.63412600  1
  O  O2  1  0.53567300  0.66415800  0.60388300  1
  O  O3  1  0.96432700  0.39611700  0.33584200  1
  O  O4  1  0.16213400  0.10652600  0.59936800  1
  O  O5  1  0.33786600  0.40063300  0.89347400  1
  O  O6  1  0.90527300  0.83649900  0.37403100  1
  O  O7  1  0.59472700  0.62597000  0.16350100  1
  O  O8  1  0.83358400  0.20952600  0.05880300  1
  O  O9  1  0.66641600  0.94119700  0.79047400  1
  O  O10  1  0.16600100  0.79557900  0.95520000  1
  O  O11  1  0.33399900  0.04480000  0.20442100  1
loop_
_geom_bond_atom_site_label_1
_geom_bond_atom_site_label_2
_geom_bond_distance
_geom_bond_site_symmetry_2
Mg0 O6 2.064998 1_455
Mg0 O7 2.064999 1_555
Mg0 O0 2.161877 1_555
Mg0 O1 2.161877 1_555
Ge0 O8 1.747808 1_555
Ge0 O7 1.776156 1_555
Ge0 O3 1.791498 1_555
Ge0 O0 1.824197 1_555
Ge1 O9 1.747808 1_555
Ge1 O6 1.776150 1_555
Ge1 O2 1.791498 1_555
Ge1 O1 1.824197 1_655
Ge2 O5 1.723824 1_555
Ge2 O10 1.758854 1_555
Ge2 O2 1.806155 1_555
Ge2 O1 1.829624 1_555
Ge3 O4 1.723830 1_555
Ge3 O11 1.758854 1_555
Ge3 O3 1.806154 1_455
Ge3 O0 1.829624 1_555
Bi0 O7 2.328960 1_555
Bi0 O6 2.328967 1_555
Bi0 O11 2.331460 1_565
Bi0 O10 2.331460 1_654
Bi0 O8 2.448349 1_565
Bi0 O9 2.448349 1_554
Bi1 O4 2.208747 1_555
Bi1 O5 2.208754 1_555
Bi1 O9 2.405279 1_545
Bi1 O8 2.405279 1_456
Bi1 O10 2.596158 1_545
Bi1 O11 2.596159 1_556
