# generated using pymatgen
data_Rb4MgNb2(CuS4)2
_symmetry_space_group_name_H-M   'P 1'
_cell_length_a   5.64156420
_cell_length_b   7.71480354
_cell_length_c   12.42422239
_cell_angle_alpha   83.60741206
_cell_angle_beta   79.21700282
_cell_angle_gamma   66.76210495
_symmetry_Int_Tables_number   1
_chemical_formula_structural   Rb4MgNb2(CuS4)2
_chemical_formula_sum   'Rb4 Mg1 Nb2 Cu2 S8'
_cell_volume   487.68269678
_cell_formula_units_Z   1
loop_
 _symmetry_equiv_pos_site_id
 _symmetry_equiv_pos_as_xyz
  1  'x, y, z'
loop_
 _atom_site_type_symbol
 _atom_site_label
 _atom_site_symmetry_multiplicity
 _atom_site_fract_x
 _atom_site_fract_y
 _atom_site_fract_z
 _atom_site_occupancy
  Rb  Rb0  1  0.81556700  0.69472800  0.38636800  1
  Rb  Rb1  1  0.44379000  0.73645500  0.09997200  1
  Rb  Rb2  1  0.12981900  0.26531900  0.64373000  1
  Rb  Rb3  1  0.52916300  0.25926500  0.90724400  1
  Mg  Mg0  1  0.73442400  0.15777400  0.45750200  1
  Nb  Nb0  1  0.39856300  0.22144700  0.25399000  1
  Nb  Nb1  1  0.60436200  0.76033600  0.74549100  1
  Cu  Cu0  1  0.89571100  0.24137400  0.23252600  1
  Cu  Cu1  1  0.10921500  0.75113000  0.75035400  1
  S  S0  1  0.21804800  0.93936200  0.85260600  1
  S  S1  1  0.50490900  0.57142700  0.64164500  1
  S  S2  1  0.78220000  0.96297800  0.63256000  1
  S  S3  1  0.90233000  0.56463500  0.85614000  1
  S  S4  1  0.09393700  0.43765700  0.14778100  1
  S  S5  1  0.49539800  0.43378200  0.35026000  1
  S  S6  1  0.18516600  0.03595600  0.36290900  1
  S  S7  1  0.77644700  0.04673200  0.14246300  1
loop_
_geom_bond_atom_site_label_1
_geom_bond_atom_site_label_2
_geom_bond_distance
_geom_bond_site_symmetry_2
Rb0 S5 3.300037 1_555
Rb0 S4 3.506554 1_655
Rb0 S5 3.525373 1_655
Rb0 S6 3.534476 1_565
Rb0 S1 3.549569 1_555
Rb0 S7 3.814593 1_565
Rb0 S2 3.815874 1_555
Rb0 S6 3.911001 1_665
Rb1 S0 3.512520 1_554
Rb1 S4 3.522614 1_555
Rb1 S7 3.550928 1_465
Rb1 S3 3.589214 1_554
Rb1 S4 3.599748 1_655
Rb1 S5 3.659574 1_555
Rb1 S7 3.705084 1_565
Rb2 S0 3.368758 1_545
Rb2 S1 3.384878 1_455
Rb2 S3 3.419789 1_455
Rb2 S2 3.480280 1_545
Rb2 S2 3.617913 1_445
Rb2 S1 3.736941 1_555
Rb3 S7 3.439281 1_556
Rb3 S4 3.515337 1_556
Rb3 S3 3.520198 1_455
Rb3 S3 3.669571 1_555
Rb3 S0 3.670560 1_645
Rb3 S0 3.724178 1_545
Rb3 S1 3.853161 1_555
Mg0 S5 2.429509 1_555
Mg0 S6 2.443895 1_655
Mg0 S2 2.496682 1_545
Mg0 Rb0 3.607389 1_545
Nb0 S7 2.307533 1_555
Nb0 S4 2.360803 1_555
Nb0 S6 2.376359 1_555
Nb0 S5 2.408209 1_555
Nb1 S0 2.318894 1_555
Nb1 S3 2.322700 1_555
Nb1 S1 2.332009 1_555
Nb1 S2 2.375239 1_555
Cu0 S4 2.278796 1_655
Cu0 S7 2.326542 1_555
Cu0 S5 2.458756 1_555
Cu0 S6 2.485606 1_655
Cu1 S3 2.343023 1_455
Cu1 S0 2.346478 1_555
Cu1 S1 2.361394 1_555
Cu1 S2 2.512947 1_455
