# generated using pymatgen
data_Na2V3O7
_symmetry_space_group_name_H-M   'P 1'
_cell_length_a   11.10469031
_cell_length_b   11.10469031
_cell_length_c   9.69129600
_cell_angle_alpha   90.00000000
_cell_angle_beta   90.00000000
_cell_angle_gamma   120.00000185
_symmetry_Int_Tables_number   1
_chemical_formula_structural   Na2V3O7
_chemical_formula_sum   'Na12 V18 O42'
_cell_volume   1034.96433626
_cell_formula_units_Z   6
loop_
 _symmetry_equiv_pos_site_id
 _symmetry_equiv_pos_as_xyz
  1  'x, y, z'
loop_
 _atom_site_type_symbol
 _atom_site_label
 _atom_site_symmetry_multiplicity
 _atom_site_fract_x
 _atom_site_fract_y
 _atom_site_fract_z
 _atom_site_occupancy
  Na  Na0  1  0.50987900  0.02352100  0.84665900  1
  Na  Na1  1  0.97647900  0.48635800  0.84665900  1
  Na  Na2  1  0.51364200  0.49012100  0.84665900  1
  Na  Na3  1  0.02352100  0.50987900  0.34665900  1
  Na  Na4  1  0.48635800  0.97647900  0.34665900  1
  Na  Na5  1  0.49012100  0.51364200  0.34665900  1
  Na  Na6  1  0.66666700  0.33333300  0.16760800  1
  Na  Na7  1  0.33333300  0.66666700  0.66760800  1
  Na  Na8  1  0.66666700  0.33333300  0.53321000  1
  Na  Na9  1  0.33333300  0.66666700  0.03321000  1
  Na  Na10  1  0.00000000  0.00000000  0.60382000  1
  Na  Na11  1  0.00000000  0.00000000  0.10382000  1
  V  V0  1  0.68299600  0.88017700  0.20088600  1
  V  V1  1  0.11982300  0.80281800  0.20088600  1
  V  V2  1  0.19718200  0.31700400  0.20088600  1
  V  V3  1  0.88017700  0.68299600  0.70088600  1
  V  V4  1  0.80281800  0.11982300  0.70088600  1
  V  V5  1  0.31700400  0.19718200  0.70088600  1
  V  V6  1  0.68565100  0.84303000  0.85175500  1
  V  V7  1  0.15697000  0.84262100  0.85175500  1
  V  V8  1  0.15737900  0.31434900  0.85175500  1
  V  V9  1  0.84303000  0.68565100  0.35175500  1
  V  V10  1  0.84262100  0.15697000  0.35175500  1
  V  V11  1  0.31434900  0.15737900  0.35175500  1
  V  V12  1  0.68313300  0.80295900  0.50219300  1
  V  V13  1  0.19704100  0.88017400  0.50219300  1
  V  V14  1  0.11982600  0.31686700  0.50219300  1
  V  V15  1  0.80295900  0.68313300  0.00219300  1
  V  V16  1  0.88017400  0.19704100  0.00219300  1
  V  V17  1  0.31686700  0.11982600  0.00219300  1
  O  O0  1  0.74212800  0.04007200  0.89053800  1
  O  O1  1  0.95992800  0.70205600  0.89053800  1
  O  O2  1  0.29794400  0.25787200  0.89053800  1
  O  O3  1  0.04007200  0.74212800  0.39053800  1
  O  O4  1  0.70205600  0.95992800  0.39053800  1
  O  O5  1  0.25787200  0.29794400  0.39053800  1
  O  O6  1  0.75727400  0.92809300  0.66880500  1
  O  O7  1  0.07190700  0.82918000  0.66880500  1
  O  O8  1  0.17082000  0.24272600  0.66880500  1
  O  O9  1  0.92809300  0.75727400  0.16880500  1
  O  O10  1  0.82918000  0.07190700  0.16880500  1
  O  O11  1  0.24272600  0.17082000  0.16880500  1
  O  O12  1  0.75821900  0.83003700  0.03447300  1
  O  O13  1  0.16996300  0.92818200  0.03447300  1
  O  O14  1  0.07181800  0.24178100  0.03447300  1
  O  O15  1  0.83003700  0.75821900  0.53447300  1
  O  O16  1  0.92818200  0.16996300  0.53447300  1
  O  O17  1  0.51211300  0.75501700  0.85108200  1
  O  O18  1  0.24178100  0.07181800  0.53447300  1
  O  O19  1  0.25666400  0.96006800  0.31250000  1
  O  O20  1  0.03993200  0.29659600  0.31250000  1
  O  O21  1  0.74333600  0.70340400  0.81250000  1
  O  O22  1  0.96006800  0.25666400  0.81250000  1
  O  O23  1  0.29659600  0.03993200  0.81250000  1
  O  O24  1  0.52077500  0.84368200  0.16439600  1
  O  O25  1  0.15631800  0.67709300  0.16439600  1
  O  O26  1  0.32290700  0.47922500  0.16439600  1
  O  O27  1  0.84368200  0.52077500  0.66439600  1
  O  O28  1  0.67709300  0.15631800  0.66439600  1
  O  O29  1  0.47922500  0.32290700  0.66439600  1
  O  O30  1  0.47851000  0.15421700  0.03820400  1
  O  O31  1  0.84578300  0.32429300  0.03820400  1
  O  O32  1  0.67570700  0.52149000  0.03820400  1
  O  O33  1  0.15421700  0.47851000  0.53820400  1
  O  O34  1  0.32429300  0.84578300  0.53820400  1
  O  O35  1  0.52149000  0.67570700  0.53820400  1
  O  O36  1  0.48788700  0.24290400  0.35108200  1
  O  O37  1  0.75709600  0.24498300  0.35108200  1
  O  O38  1  0.75501700  0.51211300  0.35108200  1
  O  O39  1  0.24290400  0.48788700  0.85108200  1
  O  O40  1  0.24498300  0.75709600  0.85108200  1
  O  O41  1  0.70340400  0.74333600  0.31250000  1
loop_
_geom_bond_atom_site_label_1
_geom_bond_atom_site_label_2
_geom_bond_distance
_geom_bond_site_symmetry_2
Na0 O28 2.450381 1_555
Na0 O30 2.485802 1_556
Na0 O23 2.486753 1_555
Na0 O0 2.528263 1_555
Na0 O40 2.950426 1_545
Na0 O17 2.994442 1_545
Na1 O27 2.450381 1_555
Na1 O31 2.485802 1_556
Na1 O22 2.486753 1_555
Na1 O1 2.528263 1_555
Na1 O39 2.950426 1_655
Na1 O40 2.994442 1_655
Na2 O29 2.450381 1_555
Na2 O32 2.485802 1_556
Na2 O21 2.486753 1_555
Na2 O2 2.528263 1_555
Na2 O17 2.950426 1_555
Na2 O39 2.994442 1_555
Na3 O25 2.450381 1_555
Na3 O33 2.485802 1_555
Na3 O20 2.486753 1_555
Na3 O3 2.528263 1_555
Na3 O37 2.950426 1_455
Na3 O38 2.994442 1_455
Na4 O24 2.450381 1_555
Na4 O34 2.485802 1_555
Na4 O19 2.486753 1_555
Na4 O4 2.528263 1_555
Na4 O36 2.950426 1_565
Na4 O37 2.994442 1_565
Na5 O26 2.450381 1_555
Na5 O35 2.485802 1_555
Na5 O41 2.486753 1_555
Na5 O5 2.528263 1_555
Na5 O38 2.950426 1_555
Na5 O36 2.994442 1_555
Na6 O31 2.395564 1_555
Na6 O30 2.395569 1_555
Na6 O32 2.395574 1_555
Na6 O37 2.473418 1_555
Na6 O36 2.473424 1_555
Na6 O38 2.473424 1_555
Na7 O34 2.395564 1_555
Na7 O33 2.395569 1_555
Na7 O35 2.395574 1_555
Na7 O40 2.473418 1_555
Na7 O39 2.473424 1_555
Na7 O17 2.473424 1_555
Na8 O28 2.391927 1_555
Na8 O27 2.391932 1_555
Na8 O29 2.391936 1_555
Na8 O37 2.464057 1_555
Na8 O36 2.464063 1_555
Na8 O38 2.464064 1_555
Na9 O25 2.391927 1_555
Na9 O24 2.391932 1_555
Na9 O26 2.391936 1_555
Na9 O40 2.464057 1_554
Na9 O39 2.464063 1_554
Na9 O17 2.464064 1_554
Na10 O6 2.479339 1_445
Na10 O8 2.479341 1_555
Na10 O7 2.479349 1_545
Na10 O15 2.480958 1_445
Na10 O18 2.480958 1_555
Na10 O16 2.480958 1_455
Na11 O9 2.479339 1_445
Na11 O11 2.479341 1_555
Na11 O10 2.479349 1_455
Na11 O12 2.480958 1_445
Na11 O14 2.480958 1_555
Na11 O13 2.480958 1_545
O0 V16 1.971584 1_556
O0 V6 1.987475 1_545
O0 V4 2.004944 1_555
O1 V15 1.971584 1_556
O1 V7 1.987475 1_655
O1 V3 2.004945 1_555
O2 V17 1.971584 1_556
O2 V8 1.987475 1_555
O2 V5 2.004941 1_555
O3 V13 1.971584 1_555
O3 V9 1.987475 1_455
O3 V1 2.004944 1_555
O4 V12 1.971584 1_555
O4 V10 1.987475 1_565
O4 V0 2.004945 1_555
O5 V14 1.971584 1_555
O5 V11 1.987475 1_555
O5 V2 2.004941 1_555
O6 V4 1.951596 1_565
O6 V6 1.979184 1_555
O6 V12 2.017899 1_555
O7 V3 1.951590 1_455
O7 V7 1.979183 1_555
O7 V13 2.017899 1_555
O8 V5 1.951575 1_555
O8 V8 1.979188 1_555
O8 V14 2.017905 1_555
O9 V1 1.951596 1_655
O9 V9 1.979184 1_555
O9 V15 2.017899 1_555
O10 V0 1.951590 1_545
O10 V10 1.979183 1_555
O10 V16 2.017899 1_555
O11 V2 1.951575 1_555
O11 V11 1.979188 1_555
O11 V17 2.017905 1_555
O12 V15 1.953560 1_555
O12 V6 1.980433 1_554
O12 V0 2.018385 1_555
O13 V17 1.953560 1_565
O13 V7 1.980433 1_554
O13 V1 2.018391 1_555
O14 V16 1.953560 1_455
O14 V8 1.980433 1_554
O14 V2 2.018390 1_555
O15 V12 1.953560 1_555
O15 V9 1.980433 1_555
O15 V3 2.018385 1_555
O16 V14 1.953560 1_655
O16 V10 1.980433 1_555
O16 V4 2.018391 1_555
O17 V6 1.668975 1_555
O18 V13 1.953560 1_545
O18 V11 1.980433 1_555
O18 V5 2.018390 1_555
O19 V1 1.968479 1_555
O19 V11 1.988048 1_565
O19 V13 2.004417 1_555
O20 V2 1.968482 1_555
O20 V10 1.988048 1_455
O20 V14 2.004417 1_555
O21 V3 1.968473 1_555
O21 V6 1.988049 1_555
O21 V15 2.004417 1_556
O22 V4 1.968479 1_555
O22 V8 1.988048 1_655
O22 V16 2.004417 1_556
O23 V5 1.968482 1_555
O23 V7 1.988048 1_545
O23 V17 2.004417 1_556
O24 V0 1.674616 1_555
O25 V1 1.674606 1_555
O26 V2 1.674613 1_555
O27 V3 1.674616 1_555
O28 V4 1.674606 1_555
O29 V5 1.674613 1_555
O30 V17 1.674557 1_555
O31 V16 1.674557 1_555
O32 V15 1.674557 1_555
O33 V14 1.674557 1_555
O34 V13 1.674557 1_555
O35 V12 1.674557 1_555
O36 V11 1.668975 1_555
O37 V10 1.668975 1_555
O38 V9 1.668975 1_555
O39 V8 1.668975 1_555
O40 V7 1.668975 1_555
O41 V0 1.968473 1_555
O41 V9 1.988049 1_555
O41 V12 2.004417 1_555
