# generated using pymatgen
data_MgZn2(BiO3)4
_symmetry_space_group_name_H-M   'P 1'
_cell_length_a   5.56622433
_cell_length_b   5.83478749
_cell_length_c   8.21264740
_cell_angle_alpha   88.81419159
_cell_angle_beta   91.34844101
_cell_angle_gamma   90.41249863
_symmetry_Int_Tables_number   1
_chemical_formula_structural   MgZn2(BiO3)4
_chemical_formula_sum   'Mg1 Zn2 Bi4 O12'
_cell_volume   266.59121148
_cell_formula_units_Z   1
loop_
 _symmetry_equiv_pos_site_id
 _symmetry_equiv_pos_as_xyz
  1  'x, y, z'
loop_
 _atom_site_type_symbol
 _atom_site_label
 _atom_site_symmetry_multiplicity
 _atom_site_fract_x
 _atom_site_fract_y
 _atom_site_fract_z
 _atom_site_occupancy
  Mg  Mg0  1  0.46330774  0.42451765  0.74978550  1
  Zn  Zn0  1  0.48512038  0.49769751  0.24570580  1
  Zn  Zn1  1  0.96210400  0.02478245  0.74929133  1
  Bi  Bi0  1  0.50539045  0.97641793  0.99633177  1
  Bi  Bi1  1  0.99053747  0.49877373  0.99880037  1
  Bi  Bi2  1  0.98923518  0.51359350  0.50846951  1
  Bi  Bi3  1  0.49162962  0.98771398  0.49114814  1
  O  O0  1  0.66293996  0.35147686  0.43188502  1
  O  O1  1  0.17860526  0.21721262  0.59794966  1
  O  O2  1  0.86766054  0.84753627  0.98140626  1
  O  O3  1  0.32344545  0.66427037  0.91549044  1
  O  O4  1  0.33362428  0.65643379  0.57269484  1
  O  O5  1  0.86513859  0.85603841  0.52780264  1
  O  O6  1  0.19480486  0.20036298  0.92139796  1
  O  O7  1  0.65169131  0.32852580  0.06717635  1
  O  O8  1  0.12775215  0.46957651  0.25025986  1
  O  O9  1  0.59645684  0.08411507  0.75292632  1
  O  O10  1  0.48542055  0.84282873  0.23563245  1
  O  O11  1  0.83540739  0.48675483  0.75573879  1
loop_
_geom_bond_atom_site_label_1
_geom_bond_atom_site_label_2
_geom_bond_distance
_geom_bond_site_symmetry_2
Mg0 O4 2.085807 1_555
Mg0 O11 2.099816 1_555
Mg0 O9 2.124388 1_555
Mg0 O3 2.135259 1_555
Mg0 O1 2.339056 1_555
Mg0 O6 2.434203 1_555
Bi0 O10 2.104263 1_556
Bi0 O9 2.153821 1_565
Bi0 O2 2.164252 1_555
Bi0 O3 2.185287 1_555
Bi0 O6 2.241427 1_565
Bi0 O7 2.285962 1_566
Bi1 O2 2.152362 1_555
Bi1 O11 2.158485 1_555
Bi1 O8 2.188670 1_656
Bi1 O6 2.199281 1_655
Bi1 O3 2.200204 1_655
Bi1 O7 2.204367 1_556
Bi2 O5 2.129058 1_555
Bi2 O0 2.129595 1_555
Bi2 O1 2.139824 1_655
Bi2 O4 2.143625 1_655
Bi2 O11 2.224477 1_555
Bi2 O8 2.293393 1_655
Bi3 O4 2.215397 1_555
Bi3 O5 2.233217 1_555
Bi3 O10 2.277933 1_555
Bi3 O9 2.294595 1_565
Bi3 O0 2.366645 1_565
Bi3 O1 2.398424 1_565
O0 Zn0 1.983032 1_555
O1 Zn1 2.061795 1_455
O2 Zn1 2.222059 1_565
O5 Zn1 2.142377 1_565
O6 Zn1 2.163277 1_455
O7 Zn0 2.029970 1_555
O8 Zn0 1.995934 1_555
O9 Zn1 2.067974 1_555
O10 Zn0 2.013745 1_555
