# generated using pymatgen
data_MgGa
_symmetry_space_group_name_H-M   'P 1'
_cell_length_a   10.96884829
_cell_length_b   10.96884829
_cell_length_c   9.77842110
_cell_angle_alpha   73.98200774
_cell_angle_beta   73.98200774
_cell_angle_gamma   32.39619524
_symmetry_Int_Tables_number   1
_chemical_formula_structural   MgGa
_chemical_formula_sum   'Mg16 Ga16'
_cell_volume   603.74950106
_cell_formula_units_Z   16
loop_
 _symmetry_equiv_pos_site_id
 _symmetry_equiv_pos_as_xyz
  1  'x, y, z'
loop_
 _atom_site_type_symbol
 _atom_site_label
 _atom_site_symmetry_multiplicity
 _atom_site_fract_x
 _atom_site_fract_y
 _atom_site_fract_z
 _atom_site_occupancy
  Mg  Mg0_0  1  0.30404436  0.30404436  0.34197793  1
  Mg  Mg0_1  1  0.30404437  0.30404437  0.84197793  1
  Mg  Mg0_2  1  0.30404437  0.80404436  0.34197793  1
  Mg  Mg0_3  1  0.30404437  0.80404436  0.84197793  1
  Mg  Mg0_4  1  0.80404436  0.30404436  0.34197793  1
  Mg  Mg0_5  1  0.80404436  0.30404436  0.84197793  1
  Mg  Mg0_6  1  0.80404437  0.80404437  0.34197793  1
  Mg  Mg0_7  1  0.80404437  0.80404437  0.84197793  1
  Mg  Mg1_0  1  0.19595564  0.19595564  0.15802208  1
  Mg  Mg1_1  1  0.19595564  0.19595564  0.65802207  1
  Mg  Mg1_2  1  0.19595564  0.69595564  0.15802208  1
  Mg  Mg1_3  1  0.19595564  0.69595564  0.65802207  1
  Mg  Mg1_4  1  0.69595564  0.19595564  0.15802208  1
  Mg  Mg1_5  1  0.69595564  0.19595564  0.65802207  1
  Mg  Mg1_6  1  0.69595564  0.69595564  0.15802208  1
  Mg  Mg1_7  1  0.69595564  0.69595564  0.65802207  1
  Ga  Ga0_0  1  0.42762087  0.42762087  0.41711782  1
  Ga  Ga0_1  1  0.42762086  0.42762086  0.91711782  1
  Ga  Ga0_2  1  0.42762087  0.92762086  0.41711782  1
  Ga  Ga0_3  1  0.42762087  0.92762087  0.91711782  1
  Ga  Ga0_4  1  0.92762086  0.42762087  0.41711782  1
  Ga  Ga0_5  1  0.92762086  0.42762087  0.91711782  1
  Ga  Ga0_6  1  0.92762087  0.92762087  0.41711782  1
  Ga  Ga0_7  1  0.92762087  0.92762087  0.91711782  1
  Ga  Ga1_0  1  0.07237913  0.07237913  0.08288218  1
  Ga  Ga1_1  1  0.07237914  0.07237914  0.58288218  1
  Ga  Ga1_2  1  0.07237914  0.57237914  0.08288218  1
  Ga  Ga1_3  1  0.07237914  0.57237914  0.58288217  1
  Ga  Ga1_4  1  0.57237914  0.07237914  0.08288218  1
  Ga  Ga1_5  1  0.57237913  0.07237914  0.58288217  1
  Ga  Ga1_6  1  0.57237914  0.57237914  0.08288218  1
  Ga  Ga1_7  1  0.57237914  0.57237914  0.58288217  1
loop_
_geom_bond_atom_site_label_1
_geom_bond_atom_site_label_2
_geom_bond_distance
_geom_bond_site_symmetry_2
Mg0_0 Mg0_6 3.059861 1_455
Mg0_0 Mg0_6 3.059861 1_545
Mg0_0 Mg1_1 3.269800 1_555
Mg0_0 Mg1_0 3.282491 1_555
Mg0_0 Mg1_4 3.379891 1_555
Mg0_0 Mg1_2 3.379891 1_555
Mg0_1 Mg0_7 3.059861 1_545
Mg0_1 Mg0_7 3.059861 1_455
Mg0_1 Mg1_0 3.269800 1_556
Mg0_1 Mg1_1 3.282491 1_555
Mg0_1 Mg1_5 3.379891 1_555
Mg0_1 Mg1_3 3.379891 1_555
Mg0_2 Mg0_4 3.059861 1_555
Mg0_2 Mg0_4 3.059861 1_465
Mg0_2 Mg1_3 3.269800 1_555
Mg0_2 Mg1_2 3.282491 1_555
Mg0_2 Mg1_0 3.379891 1_565
Mg0_2 Mg1_6 3.379891 1_555
Mg0_3 Mg0_5 3.059861 1_555
Mg0_3 Mg0_5 3.059861 1_465
Mg0_3 Mg1_2 3.269800 1_556
Mg0_3 Mg1_3 3.282491 1_555
Mg0_3 Mg1_1 3.379891 1_565
Mg0_3 Mg1_7 3.379891 1_555
Mg0_4 Mg1_5 3.269800 1_555
Mg0_4 Mg1_4 3.282491 1_555
Mg0_4 Mg1_6 3.379891 1_555
Mg0_4 Mg1_0 3.379891 1_655
Mg0_5 Mg1_4 3.269800 1_556
Mg0_5 Mg1_5 3.282491 1_555
Mg0_5 Mg1_7 3.379891 1_555
Mg0_5 Mg1_1 3.379891 1_655
Mg0_6 Mg1_7 3.269800 1_555
Mg0_6 Mg1_6 3.282491 1_555
Mg0_6 Mg1_4 3.379891 1_565
Mg0_6 Mg1_2 3.379891 1_655
Mg0_7 Mg1_6 3.269800 1_556
Mg0_7 Mg1_7 3.282491 1_555
Mg0_7 Mg1_5 3.379891 1_565
Mg0_7 Mg1_3 3.379891 1_655
Mg1_0 Mg1_6 3.059861 1_545
Mg1_0 Mg1_6 3.059861 1_455
Mg1_1 Mg1_7 3.059861 1_545
Mg1_1 Mg1_7 3.059861 1_455
Mg1_2 Mg1_4 3.059861 1_555
Mg1_2 Mg1_4 3.059861 1_465
Mg1_3 Mg1_5 3.059861 1_555
Mg1_3 Mg1_5 3.059861 1_465
Ga0_0 Ga1_3 2.796128 1_555
Ga0_0 Ga1_5 2.796128 1_555
Ga0_0 Mg1_4 2.889005 1_555
Ga0_0 Mg1_2 2.889005 1_555
Ga0_0 Mg0_0 2.901147 1_555
Ga0_0 Mg1_5 2.926079 1_555
Ga0_0 Mg1_3 2.926079 1_555
Ga0_0 Mg0_2 2.974783 1_555
Ga0_0 Mg0_4 2.974783 1_555
Ga0_0 Ga0_6 3.059861 1_455
Ga0_0 Ga0_6 3.059861 1_545
Ga0_1 Ga1_2 2.796128 1_556
Ga0_1 Ga1_4 2.796128 1_556
Ga0_1 Mg1_3 2.889005 1_555
Ga0_1 Mg1_5 2.889005 1_555
Ga0_1 Mg0_1 2.901147 1_555
Ga0_1 Mg1_4 2.926079 1_556
Ga0_1 Mg1_2 2.926079 1_556
Ga0_1 Mg0_5 2.974783 1_555
Ga0_1 Mg0_3 2.974783 1_555
Ga0_1 Ga0_7 3.059861 1_545
Ga0_1 Ga0_7 3.059861 1_455
Ga0_2 Ga1_7 2.796128 1_555
Ga0_2 Ga1_1 2.796128 1_565
Ga0_2 Mg1_6 2.889005 1_555
Ga0_2 Mg1_0 2.889005 1_565
Ga0_2 Mg0_2 2.901147 1_555
Ga0_2 Mg1_7 2.926079 1_555
Ga0_2 Mg1_1 2.926079 1_565
Ga0_2 Mg0_0 2.974783 1_565
Ga0_2 Mg0_6 2.974783 1_555
Ga0_2 Ga0_4 3.059861 1_555
Ga0_2 Ga0_4 3.059861 1_465
Ga0_3 Ga1_6 2.796128 1_556
Ga0_3 Ga1_0 2.796128 1_566
Ga0_3 Mg1_1 2.889005 1_565
Ga0_3 Mg1_7 2.889005 1_555
Ga0_3 Mg0_3 2.901147 1_555
Ga0_3 Mg1_6 2.926079 1_556
Ga0_3 Mg1_0 2.926079 1_566
Ga0_3 Mg0_7 2.974783 1_555
Ga0_3 Mg0_1 2.974783 1_565
Ga0_3 Ga0_5 3.059861 1_555
Ga0_3 Ga0_5 3.059861 1_465
Ga0_4 Ga1_7 2.796128 1_555
Ga0_4 Ga1_1 2.796128 1_655
Ga0_4 Mg1_0 2.889005 1_655
Ga0_4 Mg1_6 2.889005 1_555
Ga0_4 Mg0_4 2.901147 1_555
Ga0_4 Mg1_7 2.926079 1_555
Ga0_4 Mg1_1 2.926079 1_655
Ga0_4 Mg0_0 2.974783 1_655
Ga0_4 Mg0_6 2.974783 1_555
Ga0_5 Ga1_6 2.796128 1_556
Ga0_5 Ga1_0 2.796128 1_656
Ga0_5 Mg1_7 2.889005 1_555
Ga0_5 Mg1_1 2.889005 1_655
Ga0_5 Mg0_5 2.901147 1_555
Ga0_5 Mg1_0 2.926079 1_656
Ga0_5 Mg1_6 2.926079 1_556
Ga0_5 Mg0_1 2.974783 1_655
Ga0_5 Mg0_7 2.974783 1_555
Ga0_6 Ga1_3 2.796128 1_655
Ga0_6 Ga1_5 2.796128 1_565
Ga0_6 Mg1_2 2.889005 1_655
Ga0_6 Mg1_4 2.889005 1_565
Ga0_6 Mg0_6 2.901147 1_555
Ga0_6 Mg1_5 2.926079 1_565
Ga0_6 Mg1_3 2.926079 1_655
Ga0_6 Mg0_2 2.974783 1_655
Ga0_6 Mg0_4 2.974783 1_565
Ga0_7 Ga1_4 2.796128 1_566
Ga0_7 Ga1_2 2.796128 1_656
Ga0_7 Mg1_3 2.889005 1_655
Ga0_7 Mg1_5 2.889005 1_565
Ga0_7 Mg0_7 2.901147 1_555
Ga0_7 Mg1_4 2.926079 1_566
Ga0_7 Mg1_2 2.926079 1_656
Ga0_7 Mg0_5 2.974783 1_565
Ga0_7 Mg0_3 2.974783 1_655
Ga1_0 Mg0_4 2.889005 1_455
Ga1_0 Mg0_2 2.889005 1_545
Ga1_0 Mg1_0 2.901147 1_555
Ga1_0 Mg0_3 2.926079 1_544
Ga1_0 Mg0_5 2.926079 1_454
Ga1_0 Mg1_2 2.974783 1_545
Ga1_0 Mg1_4 2.974783 1_455
Ga1_0 Ga1_6 3.059861 1_455
Ga1_0 Ga1_6 3.059861 1_545
Ga1_1 Mg0_3 2.889005 1_545
Ga1_1 Mg0_5 2.889005 1_455
Ga1_1 Mg1_1 2.901147 1_555
Ga1_1 Mg0_2 2.926079 1_545
Ga1_1 Mg0_4 2.926079 1_455
Ga1_1 Mg1_3 2.974783 1_545
Ga1_1 Mg1_5 2.974783 1_455
Ga1_1 Ga1_7 3.059861 1_455
Ga1_1 Ga1_7 3.059861 1_545
Ga1_2 Mg0_0 2.889005 1_555
Ga1_2 Mg0_6 2.889005 1_455
Ga1_2 Mg1_2 2.901147 1_555
Ga1_2 Mg0_1 2.926079 1_554
Ga1_2 Mg0_7 2.926079 1_454
Ga1_2 Mg1_6 2.974783 1_455
Ga1_2 Mg1_0 2.974783 1_555
Ga1_2 Ga1_4 3.059861 1_465
Ga1_2 Ga1_4 3.059861 1_555
Ga1_3 Mg0_1 2.889005 1_555
Ga1_3 Mg0_7 2.889005 1_455
Ga1_3 Mg1_3 2.901147 1_555
Ga1_3 Mg0_6 2.926079 1_455
Ga1_3 Mg0_0 2.926079 1_555
Ga1_3 Mg1_7 2.974783 1_455
Ga1_3 Mg1_1 2.974783 1_555
Ga1_3 Ga1_5 3.059861 1_555
Ga1_3 Ga1_5 3.059861 1_465
Ga1_4 Mg0_0 2.889005 1_555
Ga1_4 Mg0_6 2.889005 1_545
Ga1_4 Mg1_4 2.901147 1_555
Ga1_4 Mg0_7 2.926079 1_544
Ga1_4 Mg0_1 2.926079 1_554
Ga1_4 Mg1_6 2.974783 1_545
Ga1_4 Mg1_0 2.974783 1_555
Ga1_5 Mg0_1 2.889005 1_555
Ga1_5 Mg0_7 2.889005 1_545
Ga1_5 Mg1_5 2.901147 1_555
Ga1_5 Mg0_6 2.926079 1_545
Ga1_5 Mg0_0 2.926079 1_555
Ga1_5 Mg1_1 2.974783 1_555
Ga1_5 Mg1_7 2.974783 1_545
Ga1_6 Mg0_2 2.889005 1_555
Ga1_6 Mg0_4 2.889005 1_555
Ga1_6 Mg1_6 2.901147 1_555
Ga1_6 Mg0_3 2.926079 1_554
Ga1_6 Mg0_5 2.926079 1_554
Ga1_6 Mg1_2 2.974783 1_555
Ga1_6 Mg1_4 2.974783 1_555
Ga1_7 Mg0_5 2.889005 1_555
Ga1_7 Mg0_3 2.889005 1_555
Ga1_7 Mg1_7 2.901147 1_555
Ga1_7 Mg0_2 2.926079 1_555
Ga1_7 Mg0_4 2.926079 1_555
Ga1_7 Mg1_3 2.974783 1_555
Ga1_7 Mg1_5 2.974783 1_555
