# generated using pymatgen
data_Ba2LuMgNbO6
_symmetry_space_group_name_H-M   'P 1'
_cell_length_a   6.66356323
_cell_length_b   6.66356284
_cell_length_c   6.67231431
_cell_angle_alpha   53.05119650
_cell_angle_beta   53.05119826
_cell_angle_gamma   53.07290249
_symmetry_Int_Tables_number   1
_chemical_formula_structural   Ba2LuMgNbO6
_chemical_formula_sum   'Ba2 Lu1 Mg1 Nb1 O6'
_cell_volume   175.41664951
_cell_formula_units_Z   1
loop_
 _symmetry_equiv_pos_site_id
 _symmetry_equiv_pos_as_xyz
  1  'x, y, z'
loop_
 _atom_site_type_symbol
 _atom_site_label
 _atom_site_symmetry_multiplicity
 _atom_site_fract_x
 _atom_site_fract_y
 _atom_site_fract_z
 _atom_site_occupancy
  Ba  Ba0  1  0.75838799  0.75838799  0.76344327  1
  Ba  Ba1  1  0.30063311  0.30063311  0.30642956  1
  Lu  Lu0  1  0.50472793  0.50472793  0.50785712  1
  Mg  Mg0  1  0.13236798  0.13236798  0.13567362  1
  Nb  Nb0  1  0.97664282  0.97664282  0.97875956  1
  O  O0  1  0.23283386  0.75216354  0.74989561  1
  O  O1  1  0.22907591  0.75385707  0.23089983  1
  O  O2  1  0.75216354  0.23283386  0.74989561  1
  O  O3  1  0.23353169  0.23353169  0.75468840  1
  O  O4  1  0.75385707  0.22907591  0.23089983  1
  O  O5  1  0.75077809  0.75077809  0.22697459  1
loop_
_geom_bond_atom_site_label_1
_geom_bond_atom_site_label_2
_geom_bond_distance
_geom_bond_site_symmetry_2
Ba0 O4 2.993133 1_556
Ba0 O1 2.993133 1_556
Ba0 O3 2.996231 1_655
Ba0 O3 2.996231 1_565
Ba0 O4 3.013490 1_565
Ba0 O1 3.013491 1_655
Ba0 O5 3.032609 1_556
Ba0 O2 3.083561 1_565
Ba0 O0 3.083561 1_655
Ba1 O1 2.516155 1_555
Ba1 O4 2.516155 1_555
Ba1 O3 2.523925 1_555
Ba1 Mg0 2.897357 1_555
Ba1 O0 3.113321 1_545
Ba1 O2 3.113321 1_455
Ba1 O5 3.149724 1_545
Ba1 O5 3.149724 1_455
Ba1 O0 3.161906 1_554
Ba1 O2 3.161907 1_554
Lu0 O0 2.168702 1_555
Lu0 O2 2.168702 1_555
Lu0 O5 2.175015 1_555
Lu0 O3 2.451914 1_555
Lu0 O4 2.504664 1_555
Lu0 O1 2.504664 1_555
Mg0 O1 1.947617 1_545
Mg0 O4 1.947618 1_455
Mg0 O3 1.948505 1_554
Nb0 O5 2.000473 1_556
Nb0 O0 2.006841 1_655
Nb0 O2 2.006841 1_565
Nb0 O4 2.294051 1_566
Nb0 O1 2.294051 1_656
Nb0 O3 2.337350 1_665
