# generated using pymatgen
data_HoMn2
_symmetry_space_group_name_H-M   'P 1'
_cell_length_a   5.09148137
_cell_length_b   5.09148137
_cell_length_c   5.09148137
_cell_angle_alpha   60.00000000
_cell_angle_beta   60.00000000
_cell_angle_gamma   60.00000000
_symmetry_Int_Tables_number   1
_chemical_formula_structural   HoMn2
_chemical_formula_sum   'Ho2 Mn4'
_cell_volume   93.32918601
_cell_formula_units_Z   2
loop_
 _symmetry_equiv_pos_site_id
 _symmetry_equiv_pos_as_xyz
  1  'x, y, z'
loop_
 _atom_site_type_symbol
 _atom_site_label
 _atom_site_symmetry_multiplicity
 _atom_site_fract_x
 _atom_site_fract_y
 _atom_site_fract_z
 _atom_site_occupancy
  Ho  Ho0  1  0.25000000  0.25000000  0.25000000  1
  Ho  Ho1  1  0.00000000  0.00000000  0.00000000  1
  Mn  Mn0  1  0.62500000  0.62500000  0.12500000  1
  Mn  Mn1  1  0.62500000  0.12500000  0.62500000  1
  Mn  Mn2  1  0.12500000  0.62500000  0.62500000  1
  Mn  Mn3  1  0.62500000  0.62500000  0.62500000  1
loop_
_geom_bond_atom_site_label_1
_geom_bond_atom_site_label_2
_geom_bond_distance
_geom_bond_site_symmetry_2
Ho0 Mn0 2.985146 1_545
Ho0 Mn2 2.985146 1_554
Ho0 Mn3 2.985146 1_554
Ho0 Mn2 2.985146 1_555
Ho0 Mn0 2.985146 1_455
Ho0 Mn1 2.985146 1_554
Ho0 Mn3 2.985146 1_455
Ho0 Mn3 2.985146 1_545
Ho0 Mn2 2.985146 1_545
Ho0 Mn1 2.985146 1_455
Ho0 Mn1 2.985146 1_555
Ho0 Mn0 2.985146 1_555
Ho0 Ho1 3.117883 1_555
Ho0 Ho1 3.117883 1_556
Ho0 Ho1 3.117883 1_565
Ho0 Ho1 3.117883 1_655
Ho1 Mn0 2.985146 1_545
Ho1 Mn3 2.985146 1_445
Ho1 Mn2 2.985146 1_554
Ho1 Mn2 2.985146 1_544
Ho1 Mn1 2.985146 1_554
Ho1 Mn0 2.985146 1_455
Ho1 Mn3 2.985146 1_544
Ho1 Mn3 2.985146 1_454
Ho1 Mn2 2.985146 1_545
Ho1 Mn1 2.985146 1_454
Ho1 Mn1 2.985146 1_455
Ho1 Mn0 2.985146 1_445
Mn0 Mn2 2.545741 1_555
Mn0 Mn3 2.545741 1_555
Mn0 Mn2 2.545741 1_654
Mn0 Mn1 2.545741 1_555
Mn0 Mn3 2.545741 1_554
Mn0 Mn1 2.545741 1_564
Mn1 Mn2 2.545741 1_555
Mn1 Mn3 2.545741 1_555
Mn1 Mn3 2.545741 1_545
Mn1 Mn2 2.545741 1_645
Mn2 Mn3 2.545741 1_455
Mn2 Mn3 2.545741 1_555
