# generated using pymatgen
data_Tl3BS3
_symmetry_space_group_name_H-M   'P 1'
_cell_length_a   5.56783201
_cell_length_b   6.71778821
_cell_length_c   9.82359743
_cell_angle_alpha   90.00000000
_cell_angle_beta   90.00000000
_cell_angle_gamma   97.87289638
_symmetry_Int_Tables_number   1
_chemical_formula_structural   Tl3BS3
_chemical_formula_sum   'Tl6 B2 S6'
_cell_volume   363.97376004
_cell_formula_units_Z   2
loop_
 _symmetry_equiv_pos_site_id
 _symmetry_equiv_pos_as_xyz
  1  'x, y, z'
loop_
 _atom_site_type_symbol
 _atom_site_label
 _atom_site_symmetry_multiplicity
 _atom_site_fract_x
 _atom_site_fract_y
 _atom_site_fract_z
 _atom_site_occupancy
  Tl  Tl0  1  0.17177897  0.01805913  0.75000000  1
  Tl  Tl1  1  0.82822103  0.98194087  0.25000000  1
  Tl  Tl2  1  0.27682580  0.67278108  0.44913620  1
  Tl  Tl3  1  0.72317420  0.32721892  0.94913620  1
  Tl  Tl4  1  0.72317420  0.32721892  0.55086380  1
  Tl  Tl5  1  0.27682580  0.67278108  0.05086380  1
  B  B0  1  0.61251378  0.73994508  0.75000000  1
  B  B1  1  0.38748622  0.26005492  0.25000000  1
  S  S0  1  0.32767342  0.57053314  0.75000000  1
  S  S1  1  0.67232658  0.42946686  0.25000000  1
  S  S2  1  0.75267807  0.82376609  0.91140644  1
  S  S3  1  0.24732193  0.17623391  0.41140644  1
  S  S4  1  0.24732193  0.17623391  0.08859356  1
  S  S5  1  0.75267807  0.82376609  0.58859356  1
loop_
_geom_bond_atom_site_label_1
_geom_bond_atom_site_label_2
_geom_bond_distance
_geom_bond_site_symmetry_2
B0 S0 1.820979 1_555
B0 S5 1.822040 1_555
B0 S2 1.822040 1_555
B1 S1 1.820979 1_555
B1 S3 1.822040 1_555
B1 S4 1.822040 1_555
S0 Tl5 3.056238 1_556
S0 Tl2 3.056238 1_555
S1 Tl3 3.056238 1_554
S1 Tl4 3.056238 1_555
S2 Tl0 2.971274 1_665
S2 Tl5 3.031348 1_556
S3 Tl1 2.971274 1_445
S3 Tl4 3.031348 1_555
S4 Tl1 2.971274 1_445
S4 Tl3 3.031348 1_554
S5 Tl0 2.971274 1_665
S5 Tl2 3.031348 1_555
