# generated using pymatgen
data_MgFe6(O5F)2
_symmetry_space_group_name_H-M   'P 1'
_cell_length_a   11.77020666
_cell_length_b   6.39440999
_cell_length_c   3.02253400
_cell_angle_alpha   90.00000000
_cell_angle_beta   90.00000000
_cell_angle_gamma   75.36500871
_symmetry_Int_Tables_number   1
_chemical_formula_structural   MgFe6(O5F)2
_chemical_formula_sum   'Mg1 Fe6 O10 F2'
_cell_volume   220.10577881
_cell_formula_units_Z   1
loop_
 _symmetry_equiv_pos_site_id
 _symmetry_equiv_pos_as_xyz
  1  'x, y, z'
loop_
 _atom_site_type_symbol
 _atom_site_label
 _atom_site_symmetry_multiplicity
 _atom_site_fract_x
 _atom_site_fract_y
 _atom_site_fract_z
 _atom_site_occupancy
  Mg  Mg0  1  0.50485800  0.49735300  0.00000000  1
  Fe  Fe0  1  0.01013500  0.99187500  0.00000000  1
  Fe  Fe1  1  0.98654900  0.50368900  0.50000000  1
  Fe  Fe2  1  0.26432300  0.37298600  0.00000000  1
  Fe  Fe3  1  0.69717700  0.12460700  0.50000000  1
  Fe  Fe4  1  0.28690200  0.87434500  0.50000000  1
  Fe  Fe5  1  0.70292800  0.63343700  0.00000000  1
  O  O0  1  0.99225200  0.30341000  0.00000000  1
  O  O1  1  0.31447500  0.05783700  0.00000000  1
  O  O2  1  0.98867900  0.69963200  0.00000000  1
  O  O3  1  0.16814900  0.42827800  0.50000000  1
  O  O4  1  0.11686200  0.93862200  0.50000000  1
  O  O5  1  0.33143600  0.63737800  0.00000000  1
  O  O6  1  0.68445200  0.32397200  0.00000000  1
  O  O7  1  0.58052800  0.65926000  0.50000000  1
  O  O8  1  0.81136100  0.58302900  0.50000000  1
  O  O9  1  0.68697200  0.94455100  0.00000000  1
  F  F0  1  0.48849900  0.29802800  0.50000000  1
  F  F1  1  0.87721600  0.05479400  0.50000000  1
loop_
_geom_bond_atom_site_label_1
_geom_bond_atom_site_label_2
_geom_bond_distance
_geom_bond_site_symmetry_2
Mg0 O5 2.011143 1_555
Mg0 O6 2.124451 1_555
Mg0 O7 2.148252 1_555
Mg0 O7 2.148252 1_554
Fe0 O4 1.939526 1_555
Fe0 O4 1.939526 1_554
Fe0 O2 1.947915 1_455
Fe0 O0 1.949567 1_465
Fe1 O2 1.967305 1_555
Fe1 O2 1.967305 1_556
Fe1 O0 1.971066 1_555
Fe1 O0 1.971066 1_556
Fe1 O8 1.995144 1_555
Fe1 O3 2.068928 1_655
Fe2 O3 1.867642 1_555
Fe2 O3 1.867642 1_554
Fe2 O1 1.951497 1_555
Fe2 O5 2.038891 1_555
Fe3 O9 1.921939 1_546
Fe3 O9 1.921939 1_545
Fe3 O6 1.958327 1_556
Fe3 O6 1.958327 1_555
Fe4 O4 1.938783 1_555
Fe4 O1 1.989563 1_565
Fe4 O1 1.989563 1_566
Fe4 O5 2.110297 1_555
Fe4 O5 2.110297 1_556
Fe5 O9 1.950423 1_555
Fe5 O8 1.951623 1_555
Fe5 O8 1.951623 1_554
Fe5 O6 2.044646 1_555
Fe5 O7 2.065556 1_555
Fe5 O7 2.065556 1_554
F0 Mg0 2.017309 1_555
F0 Mg0 2.017309 1_556
F0 Fe3 2.426149 1_555
F1 Fe3 2.052273 1_555
F1 Fe0 2.139004 1_645
F1 Fe0 2.139004 1_646
