# generated using pymatgen
data_Na8Sc3TaSi4(PO12)2
_symmetry_space_group_name_H-M   'P 1'
_cell_length_a   9.17202523
_cell_length_b   9.18654088
_cell_length_c   22.50667926
_cell_angle_alpha   90.01452141
_cell_angle_beta   90.03130962
_cell_angle_gamma   119.98853852
_symmetry_Int_Tables_number   1
_chemical_formula_structural   Na8Sc3TaSi4(PO12)2
_chemical_formula_sum   'Na24 Sc9 Ta3 Si12 P6 O72'
_cell_volume   1642.51486211
_cell_formula_units_Z   3
loop_
 _symmetry_equiv_pos_site_id
 _symmetry_equiv_pos_as_xyz
  1  'x, y, z'
loop_
 _atom_site_type_symbol
 _atom_site_label
 _atom_site_symmetry_multiplicity
 _atom_site_fract_x
 _atom_site_fract_y
 _atom_site_fract_z
 _atom_site_occupancy
  Na  Na0  1  0.63170655  0.99812805  0.25458027  1
  Na  Na1  1  0.36753112  0.36850580  0.25216605  1
  Na  Na2  1  0.00178081  0.63155482  0.25223930  1
  Na  Na3  1  0.64117962  0.63549844  0.74084574  1
  Na  Na4  1  0.99083186  0.35199737  0.74287469  1
  Na  Na5  1  0.36760023  0.01261478  0.74746211  1
  Na  Na6  1  0.29568721  0.33938040  0.58412978  1
  Na  Na7  1  0.03870010  0.70220885  0.58123029  1
  Na  Na8  1  0.66623964  0.95712336  0.58062167  1
  Na  Na9  1  0.29222347  0.95730926  0.08036876  1
  Na  Na10  1  0.66119374  0.70090855  0.08282087  1
  Na  Na11  1  0.04504075  0.34213116  0.08358168  1
  Na  Na12  1  0.97673481  0.68100129  0.91429566  1
  Na  Na13  1  0.70676934  0.02682097  0.91184560  1
  Na  Na14  1  0.31844846  0.29106330  0.91211463  1
  Na  Na15  1  0.98040356  0.30199894  0.41611134  1
  Na  Na16  1  0.32409863  0.02128697  0.41606519  1
  Na  Na17  1  0.69580887  0.67745900  0.41616522  1
  Na  Na18  1  0.99684275  0.99897585  0.49940626  1
  Na  Na19  1  0.00324373  0.99948425  0.99763788  1
  Na  Na20  1  0.66233575  0.32722267  0.82747612  1
  Na  Na21  1  0.66517964  0.33139126  0.33309278  1
  Na  Na22  1  0.32828329  0.66131413  0.16575036  1
  Na  Na23  1  0.33483171  0.66160541  0.65998728  1
  Sc  Sc0  1  0.99996942  -0.00028188  0.35386082  1
  Sc  Sc1  1  0.00117078  0.00465801  0.85069492  1
  Sc  Sc2  1  0.99395428  0.00379678  0.64753942  1
  Sc  Sc3  1  0.00316058  0.99952158  0.14518042  1
  Sc  Sc4  1  0.66769112  0.33541273  0.68467185  1
  Sc  Sc5  1  0.66819199  0.33849313  0.18444696  1
  Sc  Sc6  1  0.33098630  0.66385304  0.01873696  1
  Sc  Sc7  1  0.33340490  0.66314853  0.51590979  1
  Sc  Sc8  1  0.33355432  0.66557635  0.31944387  1
  Ta  Ta0  1  0.66460609  0.33654112  0.97892240  1
  Ta  Ta1  1  0.67148664  0.33730610  0.48051276  1
  Ta  Ta2  1  0.33513925  0.66530310  0.81535448  1
  Si  Si0  1  0.29371757  0.29630934  0.75066635  1
  Si  Si1  1  0.70168726  0.99677763  0.75081989  1
  Si  Si2  1  0.96212732  0.33426519  0.58565118  1
  Si  Si3  1  0.66747700  0.62927581  0.58557849  1
  Si  Si4  1  0.96012124  0.62683884  0.08477327  1
  Si  Si5  1  0.37305515  0.33367458  0.08491075  1
  Si  Si6  1  0.62664683  0.66614698  0.91940884  1
  Si  Si7  1  0.03836385  0.37352674  0.91891417  1
  Si  Si8  1  0.33454867  0.95998550  0.91915013  1
  Si  Si9  1  0.62693752  0.96289969  0.41655987  1
  Si  Si10  1  0.33537446  0.37142051  0.41648939  1
  Si  Si11  1  0.03842353  0.66547357  0.41673812  1
  P  P0  1  0.29511510  0.99764609  0.24895422  1
  P  P1  1  0.70395406  0.70594770  0.24883148  1
  P  P2  1  0.00080280  0.29487385  0.24882895  1
  P  P3  1  0.00563255  0.70811651  0.75126207  1
  P  P4  1  0.37578897  0.04278824  0.58388927  1
  P  P5  1  0.66762650  0.04583519  0.08346054  1
  O  O0  1  0.20951718  0.01928263  0.30504276  1
  O  O1  1  0.81008724  0.79242825  0.30494252  1
  O  O2  1  0.98211032  0.18897113  0.30494296  1
  O  O3  1  0.20971401  0.18278323  0.80967035  1
  O  O4  1  0.98121360  0.78960737  0.80699284  1
  O  O5  1  0.81455812  0.02270053  0.80965403  1
  O  O6  1  0.78299362  0.95864597  0.69232617  1
  O  O7  1  0.17574776  0.21259030  0.69219453  1
  O  O8  1  0.03593905  0.81760733  0.69523067  1
  O  O9  1  0.79121011  0.81117877  0.19255313  1
  O  O10  1  0.01858396  0.20754238  0.19246183  1
  O  O11  1  0.18884708  0.97977586  0.19264096  1
  O  O12  1  0.87330815  0.35534371  0.64470492  1
  O  O13  1  0.47890705  0.12449212  0.64065976  1
  O  O14  1  0.64144802  0.51772901  0.64468693  1
  O  O15  1  0.87450997  0.51267623  0.14344432  1
  O  O16  1  0.64433824  0.12686978  0.13974812  1
  O  O17  1  0.48562232  0.35638399  0.14350536  1
  O  O18  1  0.47380268  0.31005805  0.02521311  1
  O  O19  1  0.83672589  0.52218637  0.02516775  1
  O  O20  1  0.68639029  0.15686661  0.02733802  1
  O  O21  1  0.47017388  0.15349337  0.52818576  1
  O  O22  1  0.68086750  0.52074221  0.52665846  1
  O  O23  1  0.83863049  0.31475058  0.52657022  1
  O  O24  1  0.54673647  0.69854030  0.97821231  1
  O  O25  1  0.15206025  0.45614403  0.97767185  1
  O  O26  1  0.30495754  0.84826599  0.97812586  1
  O  O27  1  0.54450171  0.84538558  0.47458348  1
  O  O28  1  0.30007440  0.45414664  0.47450756  1
  O  O29  1  0.15480177  0.69977783  0.47491795  1
  O  O30  1  0.11780196  0.62551802  0.35840065  1
  O  O31  1  0.50786994  0.88143578  0.35795806  1
  O  O32  1  0.37533706  0.49101129  0.35798641  1
  O  O33  1  0.13384697  0.49925408  0.86058025  1
  O  O34  1  0.36203220  0.86246221  0.86076456  1
  O  O35  1  0.49861179  0.63587501  0.86140288  1
  O  O36  1  0.00650026  0.82422354  0.40990160  1
  O  O37  1  0.81773558  0.99304672  0.40982842  1
  O  O38  1  0.17404408  0.18160703  0.40986055  1
  O  O39  1  0.01164831  0.18581981  0.91245385  1
  O  O40  1  0.17389096  0.98689940  0.91232373  1
  O  O41  1  0.81525125  0.82139566  0.91108637  1
  O  O42  1  0.97445222  0.16257930  0.58540704  1
  O  O43  1  0.20180546  0.02994714  0.58556675  1
  O  O44  1  0.84347625  0.80920980  0.58537594  1
  O  O45  1  0.96673781  0.80860987  0.08458259  1
  O  O46  1  0.82960245  0.03339037  0.08509281  1
  O  O47  1  0.18742124  0.16330717  0.08485024  1
  O  O48  1  0.67512684  0.15929591  0.74625925  1
  O  O49  1  0.48467546  0.32691586  0.74684518  1
  O  O50  1  0.85163995  0.52988509  0.74695221  1
  O  O51  1  0.68604260  0.52755101  0.24705303  1
  O  O52  1  0.83990343  0.31174203  0.24699574  1
  O  O53  1  0.47458052  0.15548277  0.24643576  1
  O  O54  1  0.63412852  0.48769119  0.92238387  1
  O  O55  1  0.85048134  0.36015242  0.92259037  1
  O  O56  1  0.51167025  0.14630101  0.92251612  1
  O  O57  1  0.64491178  0.15206894  0.42451260  1
  O  O58  1  0.50405387  0.34940822  0.42465272  1
  O  O59  1  0.84695781  0.49401095  0.42449938  1
  O  O60  1  0.35650787  0.50195829  0.08086092  1
  O  O61  1  0.14845683  0.65207802  0.08025812  1
  O  O62  1  0.51123103  0.86877355  0.07915891  1
  O  O63  1  0.35750216  0.86690556  0.57903939  1
  O  O64  1  0.50331748  0.65260184  0.57971940  1
  O  O65  1  0.14654682  0.50265582  0.58015772  1
  O  O66  1  0.31032524  0.83745654  0.25205250  1
  O  O67  1  0.52729625  0.68840534  0.25192420  1
  O  O68  1  0.16014338  0.47156092  0.25181046  1
  O  O69  1  0.30860187  0.48683980  0.75818870  1
  O  O70  1  0.16709037  0.69071037  0.75778473  1
  O  O71  1  0.50895221  0.82487478  0.75834036  1
loop_
_geom_bond_atom_site_label_1
_geom_bond_atom_site_label_2
_geom_bond_distance
_geom_bond_site_symmetry_2
Na0 O53 2.506501 1_565
Na0 O67 2.508445 1_555
Na0 O52 2.544980 1_565
Na0 O66 2.553684 1_555
Na0 O31 2.576771 1_555
Na0 O16 2.820757 1_565
Na1 O68 2.512918 1_555
Na1 O51 2.533000 1_555
Na1 O67 2.545355 1_555
Na1 O53 2.594437 1_555
Na1 O32 2.619521 1_555
Na1 O17 2.699969 1_555
Na2 O66 2.497109 1_555
Na2 O68 2.530671 1_555
Na2 O52 2.547368 1_455
Na2 O51 2.558650 1_455
Na2 O30 2.626921 1_555
Na2 O15 2.696694 1_455
Na3 O14 2.419878 1_555
Na3 O49 2.459160 1_555
Na3 O50 2.560948 1_555
Na3 O71 2.600358 1_555
Na3 O69 2.675741 1_555
Na3 O6 2.800037 1_555
Na4 O12 2.464796 1_555
Na4 O50 2.528728 1_555
Na4 O48 2.529913 1_555
Na4 O69 2.556882 1_655
Na4 O70 2.716336 1_655
Na4 O7 2.826743 1_655
Na4 O33 2.964664 1_655
Na4 O5 3.023225 1_555
Na5 O48 2.443996 1_555
Na5 O49 2.527972 1_555
Na5 O70 2.597181 1_545
Na5 O13 2.613751 1_555
Na5 O71 2.636371 1_545
Na5 O34 2.887841 1_545
Na5 O8 2.896952 1_545
Na5 O3 2.960624 1_555
Na6 O65 2.485965 1_555
Na6 O43 2.525113 1_555
Na6 O64 2.537445 1_555
Na6 O42 2.556609 1_455
Na6 O28 2.675711 1_555
Na6 O7 2.684366 1_555
Na7 O44 2.437376 1_455
Na7 O65 2.480404 1_555
Na7 O63 2.533645 1_555
Na7 O43 2.609496 1_565
Na7 O29 2.624159 1_555
Na7 O8 2.780861 1_555
Na8 O64 2.424961 1_555
Na8 O42 2.496261 1_565
Na8 O63 2.522047 1_555
Na8 O44 2.590076 1_555
Na8 O27 2.616528 1_555
Na8 O6 2.729416 1_555
Na9 O61 2.430046 1_555
Na9 O62 2.516063 1_555
Na9 O47 2.516711 1_565
Na9 O26 2.535443 1_554
Na9 O45 2.590582 1_455
Na9 O11 2.743118 1_555
Na10 O60 2.458871 1_555
Na10 O45 2.462178 1_555
Na10 O62 2.529241 1_555
Na10 O24 2.572968 1_554
Na10 O46 2.645981 1_565
Na10 O9 2.708438 1_555
Na11 O60 2.475468 1_555
Na11 O61 2.512564 1_555
Na11 O46 2.519469 1_455
Na11 O47 2.559201 1_555
Na11 O25 2.592013 1_554
Na11 O10 2.700915 1_555
Na12 O41 2.402485 1_555
Na12 O40 2.467626 1_655
Na12 O55 2.579152 1_555
Na12 O4 2.605734 1_555
Na12 O54 2.735639 1_555
Na12 O19 2.852530 1_556
Na12 O33 2.954972 1_655
Na12 O26 2.976199 1_655
Na13 O39 2.422842 1_655
Na13 O5 2.511705 1_555
Na13 O56 2.535417 1_555
Na13 O41 2.535489 1_545
Na13 O55 2.671542 1_555
Na13 O20 2.905337 1_556
Na13 O34 2.970180 1_545
Na13 O24 3.009994 1_545
Na14 O40 2.421181 1_545
Na14 O39 2.476617 1_555
Na14 O3 2.510953 1_555
Na14 O54 2.543720 1_555
Na14 O56 2.705528 1_555
Na14 O18 2.878803 1_556
Na14 O35 2.972962 1_555
Na14 O25 3.020068 1_555
Na15 O37 2.463308 1_545
Na15 O38 2.522155 1_655
Na15 O59 2.608352 1_555
Na15 O57 2.676859 1_555
Na15 O2 2.711737 1_555
Na15 O23 2.835629 1_555
Na15 O28 2.859359 1_655
Na15 O30 2.892713 1_655
Na16 O38 2.471641 1_555
Na16 O36 2.551462 1_545
Na16 O57 2.569670 1_555
Na16 O58 2.621736 1_555
Na16 O0 2.706717 1_555
Na16 O21 2.829504 1_555
Na16 O29 2.882488 1_545
Na16 O31 2.892807 1_545
Na17 O36 2.473472 1_655
Na17 O37 2.536815 1_555
Na17 O58 2.629456 1_555
Na17 O59 2.670694 1_555
Na17 O1 2.716243 1_555
Na17 O22 2.842672 1_555
Na17 O27 2.859302 1_555
Na17 O32 2.872284 1_555
Na18 O44 2.512948 1_555
Na18 O42 2.520924 1_565
Na18 O37 2.583256 1_555
Na18 O36 2.604570 1_655
Na18 O38 2.607215 1_665
Na18 O43 2.614680 1_665
Na19 O40 2.516774 1_555
Na19 O47 2.534731 1_566
Na19 O45 2.536047 1_456
Na19 O39 2.545926 1_565
Na19 O41 2.572756 1_455
Na19 O46 2.647042 1_466
Na20 O48 2.431997 1_555
Na20 O49 2.437361 1_555
Na20 O50 2.557172 1_555
Na20 O56 2.637530 1_555
Na20 O55 2.669433 1_555
Na20 O54 2.680124 1_555
Na21 O53 2.577224 1_555
Na21 O52 2.578395 1_555
Na21 O57 2.584157 1_555
Na21 O51 2.586756 1_555
Na21 O58 2.589524 1_555
Na21 O59 2.597823 1_555
Na22 O60 2.497676 1_555
Na22 O61 2.507294 1_555
Na22 O68 2.546819 1_555
Na22 O66 2.585249 1_555
Na22 O67 2.587898 1_555
Na22 O62 2.656054 1_555
Na23 O64 2.406115 1_555
Na23 O65 2.411873 1_555
Na23 O63 2.555300 1_555
Na23 O69 2.671456 1_555
Na23 O71 2.701873 1_555
Na23 O70 2.774527 1_555
O0 P0 1.551265 1_545
O0 Sc0 2.142569 1_455
O1 P1 1.548765 1_555
O1 Sc0 2.133805 1_565
O2 P2 1.550815 1_655
O2 Sc0 2.132395 1_555
O3 Si0 1.625855 1_555
O3 Sc1 2.015608 1_555
O4 P3 1.533408 1_655
O4 Sc1 2.130999 1_665
O5 Si1 1.622885 1_545
O5 Sc1 2.022934 1_655
O6 Si1 1.635235 1_555
O6 Sc2 2.032766 1_565
O7 Si0 1.631009 1_555
O7 Sc2 2.066275 1_455
O8 P3 1.549464 1_555
O8 Sc2 2.210187 1_465
O9 P1 1.551686 1_555
O9 Sc3 2.133175 1_655
O10 P2 1.552478 1_555
O10 Sc3 2.129055 1_545
O11 P0 1.556255 1_555
O11 Sc3 2.093197 1_555
O12 Si2 1.620622 1_555
O12 Sc4 2.013983 1_555
O13 P4 1.542402 1_555
O13 Sc4 2.092148 1_555
O14 Si3 1.622756 1_555
O14 Sc4 2.019029 1_555
O15 Si4 1.624432 1_555
O15 Sc5 1.992172 1_555
O16 P5 1.537358 1_555
O16 Sc5 2.100713 1_555
O17 Si5 1.622258 1_555
O17 Sc5 1.988385 1_555
O18 Si5 1.705234 1_555
O18 Ta0 1.945207 1_554
O19 Si4 1.707299 1_555
O19 Ta0 1.946787 1_554
O20 P5 1.578264 1_555
O20 Ta0 2.069325 1_554
O21 P4 1.573915 1_555
O21 Ta1 2.073219 1_555
O22 Si3 1.699893 1_555
O22 Ta1 1.944183 1_555
O23 Si2 1.696634 1_555
O23 Ta1 1.945156 1_555
O24 Si6 1.611281 1_555
O24 Sc6 2.054530 1_556
O25 Si7 1.618380 1_555
O25 Sc6 2.013828 1_556
O26 Si8 1.616004 1_555
O26 Sc6 2.041401 1_556
O27 Si9 1.621224 1_555
O27 Sc7 2.044284 1_555
O28 Si10 1.622780 1_555
O28 Sc7 2.014994 1_555
O29 Si11 1.617195 1_555
O29 Sc7 2.048778 1_555
O30 Si11 1.629929 1_555
O30 Sc8 2.023427 1_555
O31 Si9 1.634999 1_555
O31 Sc8 2.016970 1_555
O32 Si10 1.635164 1_555
O32 Sc8 2.021324 1_555
O33 Si7 1.677967 1_555
O33 Ta2 1.989762 1_555
O34 Si8 1.678832 1_555
O34 Ta2 1.984453 1_555
O35 Si6 1.682996 1_555
O35 Ta2 1.949096 1_555
O36 Si11 1.631918 1_555
O36 Sc0 2.071493 1_465
O37 Si9 1.636456 1_555
O37 Sc0 2.069820 1_565
O38 Si10 1.634845 1_555
O38 Sc0 2.063866 1_455
O39 Si7 1.622377 1_555
O39 Sc1 2.133034 1_555
O40 Si8 1.618666 1_555
O40 Sc1 2.171702 1_565
O41 Si6 1.611153 1_555
O41 Sc1 2.173361 1_665
O42 Si2 1.636641 1_555
O42 Sc2 2.092076 1_555
O43 P4 1.540696 1_555
O43 Sc2 2.276588 1_455
O44 Si3 1.634257 1_555
O44 Sc2 2.141987 1_565
O45 Si4 1.640363 1_555
O45 Sc3 2.111913 1_655
O46 P5 1.546382 1_555
O46 Sc3 2.225484 1_645
O47 Si5 1.638481 1_555
O47 Sc3 2.103661 1_545
O48 Si1 1.631720 1_545
O48 Sc4 2.157534 1_555
O49 Si0 1.631561 1_555
O49 Sc4 2.157219 1_555
O50 P3 1.540509 1_655
O50 Sc4 2.232956 1_555
O51 P1 1.563724 1_555
O51 Sc5 2.177825 1_555
O52 P2 1.559540 1_655
O52 Sc5 2.215242 1_555
O53 P0 1.558646 1_545
O53 Sc5 2.223938 1_555
O54 Si6 1.676099 1_555
O54 Ta0 2.003491 1_555
O55 Si7 1.667359 1_655
O55 Ta0 2.047887 1_555
O56 Si8 1.671727 1_545
O56 Ta0 2.044481 1_555
O57 Si9 1.671112 1_545
O57 Ta1 2.031662 1_555
O58 Si10 1.667549 1_555
O58 Ta1 2.029772 1_555
O59 Si11 1.682517 1_655
O59 Ta1 1.984687 1_555
O60 Si5 1.629692 1_555
O60 Sc6 2.137852 1_555
O61 Si4 1.627232 1_455
O61 Sc6 2.133852 1_555
O62 P5 1.542769 1_565
O62 Sc6 2.238617 1_555
O63 P4 1.542623 1_565
O63 Sc7 2.270702 1_555
O64 Si3 1.628710 1_555
O64 Sc7 2.156201 1_555
O65 Si2 1.629125 1_455
O65 Sc7 2.163294 1_555
O66 P0 1.547632 1_555
O66 Sc8 2.275147 1_555
O67 P1 1.547682 1_555
O67 Sc8 2.267514 1_555
O68 P2 1.550317 1_555
O68 Sc8 2.277214 1_555
O69 Si0 1.694657 1_555
O69 Ta2 2.000531 1_555
O70 P3 1.573741 1_555
O70 Ta2 2.113454 1_555
O71 Si1 1.690352 1_555
O71 Ta2 2.001010 1_555
