# generated using pymatgen
data_Na6Ca2Mg2SiS5O24
_symmetry_space_group_name_H-M   'P 1'
_cell_length_a   9.22862660
_cell_length_b   9.18142237
_cell_length_c   22.53447347
_cell_angle_alpha   89.99991558
_cell_angle_beta   89.94336306
_cell_angle_gamma   120.09162465
_symmetry_Int_Tables_number   1
_chemical_formula_structural   Na6Ca2Mg2SiS5O24
_chemical_formula_sum   'Na18 Ca6 Mg6 Si3 S15 O72'
_cell_volume   1652.04963544
_cell_formula_units_Z   3
loop_
 _symmetry_equiv_pos_site_id
 _symmetry_equiv_pos_as_xyz
  1  'x, y, z'
loop_
 _atom_site_type_symbol
 _atom_site_label
 _atom_site_symmetry_multiplicity
 _atom_site_fract_x
 _atom_site_fract_y
 _atom_site_fract_z
 _atom_site_occupancy
  Na  Na0  1  0.62831268  0.99939579  0.24643892  1
  Na  Na1  1  0.35809835  0.33538458  0.25084504  1
  Na  Na2  1  0.01670752  0.65844985  0.24062927  1
  Na  Na3  1  0.64039959  0.65716561  0.73961390  1
  Na  Na4  1  0.98057062  0.33880956  0.76099752  1
  Na  Na5  1  0.37916790  0.99792297  0.75576087  1
  Na  Na6  1  0.33216166  0.35495397  0.58589272  1
  Na  Na7  1  0.00316985  0.69008599  0.57586431  1
  Na  Na8  1  0.67296951  0.96158058  0.59326676  1
  Na  Na9  1  0.29727670  0.96560502  0.09183295  1
  Na  Na10  1  0.69778494  0.02774058  0.91022329  1
  Na  Na11  1  0.69893157  0.66503051  0.42613832  1
  Na  Na12  1  0.99649181  0.99893253  0.49834478  1
  Na  Na13  1  0.99912798  0.99886721  0.00134454  1
  Na  Na14  1  0.66642522  0.33397006  0.83860397  1
  Na  Na15  1  0.63695446  0.29603570  0.32914398  1
  Na  Na16  1  0.33174319  0.66639311  0.16534679  1
  Na  Na17  1  0.37190433  0.68560161  0.66865021  1
  Ca  Ca0  1  0.01685349  0.00917913  0.34370206  1
  Ca  Ca1  1  0.98690132  0.99242916  0.65496140  1
  Ca  Ca2  1  0.66774167  0.33562778  0.68449915  1
  Ca  Ca3  1  0.66595460  0.32840176  0.47883296  1
  Ca  Ca4  1  0.33484965  0.67178489  0.51144963  1
  Ca  Ca5  1  0.33694965  0.66301171  0.82860071  1
  Mg  Mg0  1  0.99206043  0.99816889  0.85253259  1
  Mg  Mg1  1  0.00621083  0.99557915  0.15122164  1
  Mg  Mg2  1  0.66515093  0.33253370  0.17733354  1
  Mg  Mg3  1  0.66946413  0.33880758  0.98813090  1
  Mg  Mg4  1  0.33084856  0.65621077  0.01633113  1
  Mg  Mg5  1  0.32898948  0.67496562  0.31470235  1
  Si  Si0  1  0.31218405  0.00307977  0.24253141  1
  Si  Si1  1  0.69303586  0.99947718  0.75549032  1
  Si  Si2  1  0.66743006  0.64389706  0.58141304  1
  S  S0  1  0.69920695  0.69679917  0.24821517  1
  S  S1  1  0.99820074  0.30040633  0.24528234  1
  S  S2  1  0.29386975  0.29360555  0.75328538  1
  S  S3  1  0.00389264  0.70435744  0.75471990  1
  S  S4  1  0.97473236  0.33603576  0.58519839  1
  S  S5  1  0.35872902  0.02775686  0.58506869  1
  S  S6  1  0.96393302  0.63035258  0.08362446  1
  S  S7  1  0.66619473  0.03425357  0.08152457  1
  S  S8  1  0.37132642  0.33561987  0.08309173  1
  S  S9  1  0.64007388  0.66378037  0.92036808  1
  S  S10  1  0.02241633  0.35770685  0.91990697  1
  S  S11  1  0.33571024  0.97763204  0.92176375  1
  S  S12  1  0.63648025  0.96530965  0.41102859  1
  S  S13  1  0.33385687  0.37211911  0.41228950  1
  S  S14  1  0.02678957  0.66332996  0.41255106  1
  O  O0  1  0.23554005  0.05806878  0.29755589  1
  O  O1  1  0.79036730  0.76118000  0.30508345  1
  O  O2  1  0.95139476  0.19593169  0.29974075  1
  O  O3  1  0.19345124  0.17943228  0.80175550  1
  O  O4  1  0.00136062  0.81089108  0.80315907  1
  O  O5  1  0.81307126  0.01305002  0.81144007  1
  O  O6  1  0.76933926  0.98454616  0.69146874  1
  O  O7  1  0.21843641  0.22453140  0.69428764  1
  O  O8  1  0.02901343  0.78951551  0.69619607  1
  O  O9  1  0.78800654  0.82058144  0.19987602  1
  O  O10  1  0.02322696  0.21061101  0.19511053  1
  O  O11  1  0.18621274  0.96161168  0.18512642  1
  O  O12  1  0.89727359  0.34281549  0.64213418  1
  O  O13  1  0.45266775  0.09863515  0.64123070  1
  O  O14  1  0.65170230  0.54122686  0.64308864  1
  O  O15  1  0.88674965  0.53834156  0.13979134  1
  O  O16  1  0.64483137  0.11942792  0.13477608  1
  O  O17  1  0.46513086  0.35845420  0.13963492  1
  O  O18  1  0.46337925  0.31203729  0.03348656  1
  O  O19  1  0.86080913  0.53652865  0.03242205  1
  O  O20  1  0.68607106  0.13597269  0.02757137  1
  O  O21  1  0.45577281  0.12790450  0.53368307  1
  O  O22  1  0.67807663  0.54321442  0.52296119  1
  O  O23  1  0.86064246  0.30741081  0.53512771  1
  O  O24  1  0.53610946  0.68701124  0.96600785  1
  O  O25  1  0.13852766  0.46276410  0.96697890  1
  O  O26  1  0.31487749  0.86440297  0.97251252  1
  O  O27  1  0.55640519  0.88407707  0.46813336  1
  O  O28  1  0.33658006  0.45261010  0.46984835  1
  O  O29  1  0.10497924  0.66513961  0.47036246  1
  O  O30  1  0.13089870  0.66890210  0.36167917  1
  O  O31  1  0.53361643  0.86493596  0.35965169  1
  O  O32  1  0.33233435  0.47577969  0.36151503  1
  O  O33  1  0.08261042  0.43776679  0.86077053  1
  O  O34  1  0.36357103  0.90720363  0.86560558  1
  O  O35  1  0.55797792  0.63698517  0.86127026  1
  O  O36  1  0.00100113  0.81203647  0.41290083  1
  O  O37  1  0.80161044  0.97176719  0.41048223  1
  O  O38  1  0.18461947  0.20177071  0.41318228  1
  O  O39  1  0.00623581  0.18599592  0.92026932  1
  O  O40  1  0.18627848  0.99772986  0.91659587  1
  O  O41  1  0.80748474  0.82510512  0.91926076  1
  O  O42  1  0.01427081  0.19729571  0.58480792  1
  O  O43  1  0.19650621  0.02607235  0.58511788  1
  O  O44  1  0.83915405  0.83030947  0.57875379  1
  O  O45  1  0.98207137  0.80310102  0.08486837  1
  O  O46  1  0.81280932  0.01001276  0.08815461  1
  O  O47  1  0.20166217  0.17721858  0.08621560  1
  O  O48  1  0.67574728  0.17034175  0.75825611  1
  O  O49  1  0.46611243  0.31746862  0.75621467  1
  O  O50  1  0.84209583  0.54064692  0.75569496  1
  O  O51  1  0.68782852  0.53056454  0.23702132  1
  O  O52  1  0.86034999  0.33805789  0.23425846  1
  O  O53  1  0.50519300  0.16695873  0.23564857  1
  O  O54  1  0.66352531  0.51817629  0.93206770  1
  O  O55  1  0.84902342  0.33238062  0.92792488  1
  O  O56  1  0.49328861  0.14580639  0.92917898  1
  O  O57  1  0.65906421  0.13650798  0.40744603  1
  O  O58  1  0.49169009  0.36401931  0.40668784  1
  O  O59  1  0.85826753  0.50868508  0.40723557  1
  O  O60  1  0.34967251  0.48474854  0.07467320  1
  O  O61  1  0.13895337  0.65509910  0.07923970  1
  O  O62  1  0.50509777  0.86562127  0.07710342  1
  O  O63  1  0.32356836  0.85104793  0.58152851  1
  O  O64  1  0.49988221  0.66543924  0.58189026  1
  O  O65  1  0.13479502  0.49902730  0.57987741  1
  O  O66  1  0.32529598  0.82943175  0.25246821  1
  O  O67  1  0.52457146  0.66947770  0.25244095  1
  O  O68  1  0.15880050  0.46588007  0.25317733  1
  O  O69  1  0.30395628  0.46090344  0.75801220  1
  O  O70  1  0.14435363  0.66939010  0.76126012  1
  O  O71  1  0.50454598  0.82892676  0.75711690  1
loop_
_geom_bond_atom_site_label_1
_geom_bond_atom_site_label_2
_geom_bond_distance
_geom_bond_site_symmetry_2
Na0 O53 2.338897 1_565
Na0 O66 2.428369 1_555
Na0 O67 2.683675 1_555
Na0 O16 2.720319 1_565
Na0 O52 2.766083 1_565
Na0 O31 2.776705 1_555
Na0 O2 2.863698 1_565
Na0 O9 2.896816 1_555
Na1 O0 2.445401 1_555
Na1 O53 2.540754 1_555
Na1 O68 2.651544 1_555
Na1 O67 2.654298 1_555
Na1 O17 2.661990 1_555
Na1 O51 2.664198 1_555
Na1 O32 2.871199 1_555
Na1 O10 2.982936 1_555
Na2 O66 2.482796 1_555
Na2 O15 2.548945 1_455
Na2 O52 2.549518 1_455
Na2 O51 2.650288 1_455
Na2 O68 2.692811 1_555
Na2 O11 2.718252 1_555
Na2 O30 2.909451 1_555
Na3 O14 2.446664 1_555
Na3 O71 2.489190 1_555
Na3 O50 2.595901 1_555
Na3 O49 2.724504 1_555
Na3 O69 2.728820 1_555
Na3 O35 2.825432 1_555
Na3 O6 2.835271 1_555
Na4 O33 2.431770 1_655
Na4 O48 2.438632 1_555
Na4 O69 2.610109 1_655
Na4 O70 2.626160 1_655
Na4 O50 2.730683 1_555
Na4 O12 2.792702 1_555
Na4 O5 2.826234 1_555
Na5 O71 2.355346 1_555
Na5 O48 2.378226 1_565
Na5 O34 2.592419 1_555
Na5 O49 2.625072 1_565
Na5 O70 2.693466 1_555
Na5 O13 2.709915 1_565
Na6 O64 2.470930 1_555
Na6 O42 2.538560 1_555
Na6 O43 2.625811 1_555
Na6 O7 2.690075 1_555
Na6 O65 2.739030 1_555
Na6 O28 2.758067 1_555
Na6 O14 2.869228 1_555
Na7 O44 2.430394 1_455
Na7 O63 2.561662 1_555
Na7 O65 2.588025 1_555
Na7 O29 2.607448 1_555
Na7 O43 2.687862 1_565
Na7 O8 2.833033 1_555
Na7 O22 2.861957 1_455
Na8 O6 2.355489 1_555
Na8 O64 2.378193 1_555
Na8 O44 2.400889 1_555
Na8 O42 2.793607 1_665
Na8 O63 2.866618 1_555
Na9 O11 2.330173 1_555
Na9 O61 2.483296 1_555
Na9 O47 2.507773 1_565
Na9 O45 2.522153 1_455
Na9 O62 2.528927 1_555
Na9 O26 2.875764 1_554
Na9 O16 2.946607 1_565
Na10 O55 2.452947 1_555
Na10 O39 2.473704 1_655
Na10 O5 2.498914 1_555
Na10 O41 2.533162 1_545
Na10 O56 2.639884 1_555
Na10 O20 2.845887 1_556
Na10 O34 2.886531 1_545
Na10 O24 2.984774 1_545
Na11 O22 2.414901 1_555
Na11 O36 2.430487 1_655
Na11 O58 2.487841 1_555
Na11 O37 2.505414 1_555
Na11 O59 2.553363 1_555
Na11 O1 2.860297 1_555
Na12 O44 2.351398 1_555
Na12 O36 2.593270 1_655
Na12 O37 2.602718 1_555
Na12 O43 2.615096 1_665
Na12 O42 2.615560 1_665
Na12 O38 2.629945 1_665
Na13 O39 2.486126 1_664
Na13 O41 2.504339 1_554
Na13 O45 2.552196 1_555
Na13 O40 2.577189 1_654
Na13 O47 2.602056 1_665
Na13 O46 2.638867 1_565
Na14 O48 2.381595 1_555
Na14 O49 2.571617 1_555
Na14 O50 2.574651 1_555
Na14 O55 2.631085 1_555
Na14 O56 2.632313 1_555
Na14 O54 2.709669 1_555
Na15 O57 2.366599 1_555
Na15 O53 2.425284 1_555
Na15 O58 2.464691 1_555
Na15 O59 2.662436 1_555
Na15 O51 2.854989 1_555
Na15 O52 2.857399 1_555
Na16 O66 2.487511 1_555
Na16 O61 2.600604 1_555
Na16 O68 2.627010 1_555
Na16 O62 2.630363 1_555
Na16 O67 2.641177 1_555
Na16 O60 2.694410 1_555
Na17 O64 2.337996 1_555
Na17 O71 2.365138 1_555
Na17 O63 2.653669 1_555
Na17 O69 2.721160 1_555
Na17 O65 2.823878 1_555
Na17 O70 2.909500 1_555
Ca0 O0 2.107915 1_555
Ca0 O38 2.287960 1_555
Ca0 O2 2.307857 1_455
Ca0 O36 2.337367 1_545
Ca0 O1 2.354128 1_445
Ca0 O37 2.374498 1_445
Ca1 O6 2.136422 1_555
Ca1 O44 2.234573 1_555
Ca1 O8 2.283006 1_655
Ca1 O7 2.308679 1_665
Ca1 O42 2.371450 1_665
Ca1 O43 2.389376 1_665
Ca2 O14 2.176361 1_555
Ca2 O48 2.276753 1_555
Ca2 O12 2.293168 1_555
Ca2 O13 2.301726 1_555
Ca2 O50 2.382063 1_555
Ca2 O49 2.405176 1_555
Ca3 O22 2.161075 1_555
Ca3 O21 2.256891 1_555
Ca3 O23 2.286109 1_555
Ca3 O59 2.353996 1_555
Ca3 O57 2.363020 1_555
Ca3 O58 2.422588 1_555
Ca4 O27 2.220867 1_555
Ca4 O64 2.221804 1_555
Ca4 O28 2.227283 1_555
Ca4 O29 2.288089 1_555
Ca4 O65 2.315173 1_555
Ca4 O63 2.320592 1_555
Ca5 O71 2.222622 1_555
Ca5 O34 2.287025 1_555
Ca5 O35 2.291628 1_555
Ca5 O33 2.332554 1_555
Ca5 O69 2.345368 1_555
Ca5 O70 2.361152 1_555
Mg0 O5 1.958061 1_565
Mg0 O4 2.085585 1_655
Mg0 O3 2.104133 1_665
Mg0 O41 2.228949 1_555
Mg0 O39 2.257253 1_665
Mg0 O40 2.304132 1_655
Mg1 O11 1.990602 1_555
Mg1 O9 2.142411 1_455
Mg1 O10 2.142447 1_565
Mg1 O45 2.239268 1_455
Mg1 O47 2.271329 1_565
Mg1 O46 2.337763 1_465
Mg2 O53 1.990695 1_555
Mg2 O16 2.101343 1_555
Mg2 O15 2.142450 1_555
Mg2 O17 2.151586 1_555
Mg2 O51 2.185811 1_555
Mg2 O52 2.192291 1_555
Mg3 O19 2.049117 1_556
Mg3 O18 2.061451 1_556
Mg3 O54 2.098060 1_555
Mg3 O20 2.137307 1_556
Mg3 O56 2.159516 1_555
Mg3 O55 2.164183 1_555
Mg4 O25 2.093886 1_554
Mg4 O24 2.100669 1_554
Mg4 O60 2.124061 1_555
Mg4 O26 2.221120 1_554
Mg4 O62 2.249903 1_555
Mg4 O61 2.263366 1_555
Mg5 O66 2.006946 1_555
Mg5 O31 2.082125 1_555
Mg5 O30 2.088018 1_555
Mg5 O32 2.124848 1_555
Mg5 O68 2.248363 1_555
Mg5 O67 2.305444 1_555
O0 Si0 1.627586 1_555
O1 S0 1.484207 1_555
O2 S1 1.481944 1_555
O3 S2 1.474635 1_555
O4 S3 1.473649 1_555
O5 Si1 1.642136 1_545
O6 Si1 1.640369 1_555
O7 S2 1.487773 1_555
O8 S3 1.490618 1_555
O9 S0 1.487974 1_555
O10 S1 1.483823 1_455
O11 Si0 1.651959 1_565
O12 S4 1.484524 1_555
O13 S5 1.487681 1_555
O14 Si2 1.644289 1_555
O15 S6 1.489235 1_555
O16 S7 1.498184 1_555
O17 S8 1.495682 1_555
O18 S8 1.483468 1_555
O19 S6 1.469412 1_555
O20 S7 1.487220 1_555
O21 S5 1.469887 1_555
O22 Si2 1.640116 1_555
O23 S4 1.474998 1_555
O24 S9 1.492328 1_555
O25 S10 1.472954 1_555
O26 S11 1.491539 1_555
O27 S12 1.484492 1_555
O28 S13 1.486805 1_555
O29 S14 1.485917 1_555
O30 S14 1.479332 1_555
O31 S12 1.488540 1_555
O32 S13 1.492851 1_555
O33 S10 1.487892 1_555
O34 S11 1.500600 1_555
O35 S9 1.491022 1_555
O36 S14 1.498894 1_555
O37 S12 1.495117 1_555
O38 S13 1.477619 1_555
O39 S10 1.507251 1_555
O40 S11 1.484885 1_555
O41 S9 1.512176 1_555
O42 S4 1.490620 1_455
O43 S5 1.489399 1_555
O44 Si2 1.650562 1_555
O45 S6 1.509378 1_555
O46 S7 1.484918 1_555
O47 S8 1.512620 1_555
O48 Si1 1.655712 1_545
O49 S2 1.493334 1_555
O50 S3 1.496218 1_655
O51 S0 1.497831 1_555
O52 S1 1.497086 1_555
O53 Si0 1.665130 1_555
O54 S9 1.481136 1_555
O55 S10 1.507844 1_655
O56 S11 1.508545 1_545
O57 S12 1.480577 1_545
O58 S13 1.500453 1_555
O59 S14 1.495036 1_655
O60 S8 1.491683 1_555
O61 S6 1.517212 1_455
O62 S7 1.519697 1_565
O63 S5 1.488658 1_565
O64 Si2 1.654305 1_555
O65 S4 1.489577 1_455
O66 Si0 1.673379 1_565
O67 S0 1.504557 1_555
O68 S1 1.509661 1_455
O69 S2 1.495343 1_555
O70 S3 1.490900 1_555
O71 Si1 1.657617 1_555
