# generated using pymatgen
data_MgV4O8
_symmetry_space_group_name_H-M   'P 1'
_cell_length_a   5.27794867
_cell_length_b   5.27862839
_cell_length_c   6.44666301
_cell_angle_alpha   89.99508841
_cell_angle_beta   90.00404499
_cell_angle_gamma   65.79002106
_symmetry_Int_Tables_number   1
_chemical_formula_structural   MgV4O8
_chemical_formula_sum   'Mg1 V4 O8'
_cell_volume   163.80956162
_cell_formula_units_Z   1
loop_
 _symmetry_equiv_pos_site_id
 _symmetry_equiv_pos_as_xyz
  1  'x, y, z'
loop_
 _atom_site_type_symbol
 _atom_site_label
 _atom_site_symmetry_multiplicity
 _atom_site_fract_x
 _atom_site_fract_y
 _atom_site_fract_z
 _atom_site_occupancy
  Mg  Mg0  1  0.65679400  0.66063100  0.24999800  1
  V  V0  1  0.00209000  0.00326800  0.99438400  1
  V  V1  1  0.00208400  0.00327200  0.50561700  1
  V  V2  1  0.34619500  0.34743000  0.25000900  1
  V  V3  1  0.64733000  0.64776900  0.74999500  1
  O  O0  1  0.23216000  0.23104100  0.04112500  1
  O  O1  1  0.23223100  0.23097200  0.45888300  1
  O  O2  1  0.23710500  0.72792000  0.24999900  1
  O  O3  1  0.28100600  0.78175900  0.75001200  1
  O  O4  1  0.72630100  0.24089600  0.25000300  1
  O  O5  1  0.78133500  0.28146700  0.74998200  1
  O  O6  1  0.75897000  0.75925100  0.97778400  1
  O  O7  1  0.75889800  0.75932300  0.52221000  1
loop_
_geom_bond_atom_site_label_1
_geom_bond_atom_site_label_2
_geom_bond_distance
_geom_bond_site_symmetry_2
Mg0 O7 1.967643 1_555
Mg0 O6 1.967645 1_554
Mg0 O4 2.092113 1_555
Mg0 O2 2.094641 1_555
O0 V2 1.690074 1_555
O0 V0 2.051426 1_554
O1 V2 1.690003 1_555
O1 V1 2.051433 1_555
O2 V2 1.848511 1_555
O2 V0 2.210710 1_564
O2 V1 2.211059 1_565
O3 V3 1.765466 1_555
O3 V1 2.145760 1_565
O3 V0 2.145930 1_565
O4 V2 1.848163 1_555
O4 V1 2.215703 1_655
O4 V0 2.216059 1_654
O5 V3 1.765591 1_555
O5 V0 2.143020 1_655
O5 V1 2.143133 1_655
O6 V3 1.770406 1_555
O6 V0 2.161647 1_665
O7 V3 1.770369 1_555
O7 V1 2.161634 1_665
