# generated using pymatgen
data_TbAsS
_symmetry_space_group_name_H-M   'P 1'
_cell_length_a   3.82711562
_cell_length_b   3.85954123
_cell_length_c   17.02606433
_cell_angle_alpha   90.00000000
_cell_angle_beta   90.00000000
_cell_angle_gamma   90.00000000
_symmetry_Int_Tables_number   1
_chemical_formula_structural   TbAsS
_chemical_formula_sum   'Tb4 As4 S4'
_cell_volume   251.49047285
_cell_formula_units_Z   4
loop_
 _symmetry_equiv_pos_site_id
 _symmetry_equiv_pos_as_xyz
  1  'x, y, z'
loop_
 _atom_site_type_symbol
 _atom_site_label
 _atom_site_symmetry_multiplicity
 _atom_site_fract_x
 _atom_site_fract_y
 _atom_site_fract_z
 _atom_site_occupancy
  Tb  Tb0  1  0.25000000  0.76782256  0.14581991  1
  Tb  Tb1  1  0.25000000  0.73217744  0.64581991  1
  Tb  Tb2  1  0.75000000  0.23217744  0.85418009  1
  Tb  Tb3  1  0.75000000  0.26782256  0.35418009  1
  As  As0  1  0.75000000  0.78581551  0.49812134  1
  As  As1  1  0.75000000  0.71418449  0.99812134  1
  As  As2  1  0.25000000  0.21418449  0.50187866  1
  As  As3  1  0.25000000  0.28581551  0.00187866  1
  S  S0  1  0.25000000  0.76546960  0.31301852  1
  S  S1  1  0.25000000  0.73453040  0.81301852  1
  S  S2  1  0.75000000  0.23453040  0.68698148  1
  S  S3  1  0.75000000  0.26546960  0.18698148  1
loop_
_geom_bond_atom_site_label_1
_geom_bond_atom_site_label_2
_geom_bond_distance
_geom_bond_site_symmetry_2
As0 As2 2.529668 1_565
As0 As2 2.529668 1_665
As0 As2 2.921175 1_555
As0 As2 2.921175 1_655
As0 Tb3 3.076850 1_565
As0 Tb3 3.162760 1_555
As0 Tb1 3.166765 1_555
As0 Tb1 3.166765 1_655
As1 As3 2.529668 1_656
As1 As3 2.529668 1_556
As1 As3 2.921175 1_566
As1 As3 2.921175 1_666
As1 Tb2 3.076850 1_555
As1 Tb2 3.162760 1_565
As1 Tb0 3.166765 1_556
As1 Tb0 3.166765 1_656
As2 Tb1 3.076850 1_545
As2 Tb1 3.162760 1_555
As2 Tb3 3.166765 1_455
As2 Tb3 3.166765 1_555
As3 Tb0 3.076850 1_555
As3 Tb0 3.162760 1_545
As3 Tb2 3.166765 1_554
As3 Tb2 3.166765 1_454
S0 Tb3 2.800339 1_455
S0 Tb3 2.800339 1_555
S0 Tb3 2.812827 1_465
S0 Tb3 2.812827 1_565
S0 Tb0 2.846749 1_555
S1 Tb2 2.800339 1_565
S1 Tb2 2.800339 1_465
S1 Tb2 2.812827 1_555
S1 Tb2 2.812827 1_455
S1 Tb1 2.846749 1_555
S2 Tb1 2.800339 1_555
S2 Tb1 2.800339 1_655
S2 Tb1 2.812827 1_545
S2 Tb1 2.812827 1_645
S2 Tb2 2.846749 1_555
S3 Tb0 2.800339 1_545
S3 Tb0 2.800339 1_645
S3 Tb0 2.812827 1_655
S3 Tb0 2.812827 1_555
S3 Tb3 2.846749 1_555
