# generated using pymatgen
data_Na3LaTiSi(PO6)2
_symmetry_space_group_name_H-M   'P 1'
_cell_length_a   9.39601140
_cell_length_b   9.39601105
_cell_length_c   22.28333885
_cell_angle_alpha   90.15328419
_cell_angle_beta   89.84671582
_cell_angle_gamma   119.56334313
_symmetry_Int_Tables_number   1
_chemical_formula_structural   Na3LaTiSi(PO6)2
_chemical_formula_sum   'Na18 La6 Ti6 Si6 P12 O72'
_cell_volume   1711.15762434
_cell_formula_units_Z   6
loop_
 _symmetry_equiv_pos_site_id
 _symmetry_equiv_pos_as_xyz
  1  'x, y, z'
loop_
 _atom_site_type_symbol
 _atom_site_label
 _atom_site_symmetry_multiplicity
 _atom_site_fract_x
 _atom_site_fract_y
 _atom_site_fract_z
 _atom_site_occupancy
  Na  Na0  1  0.99495981  0.98852387  0.50373579  1
  Na  Na1  1  0.01147613  0.00504019  0.00373579  1
  Na  Na2  1  0.66855939  0.31944794  0.83811741  1
  Na  Na3  1  0.68055206  0.33144061  0.33811741  1
  Na  Na4  1  0.36181700  0.69217498  0.17084755  1
  Na  Na5  1  0.30782502  0.63818300  0.67084755  1
  Na  Na6  1  0.36193827  0.35830155  0.24779256  1
  Na  Na7  1  0.99554959  0.64297783  0.24225876  1
  Na  Na8  1  0.64169845  0.63806173  0.74779256  1
  Na  Na9  1  0.35702217  0.00445041  0.74225876  1
  Na  Na10  1  0.04036606  0.69935602  0.57938127  1
  Na  Na11  1  0.65865473  0.97287393  0.58309855  1
  Na  Na12  1  0.30064398  0.95963394  0.07938127  1
  Na  Na13  1  0.02712607  0.34134527  0.08309855  1
  Na  Na14  1  0.98583806  0.68340383  0.91453602  1
  Na  Na15  1  0.69326642  0.03010163  0.91469583  1
  Na  Na16  1  0.96989837  0.30673358  0.41469583  1
  Na  Na17  1  0.31659617  0.01416194  0.41453602  1
  La  La0  1  0.97807554  0.98853104  0.34720107  1
  La  La1  1  0.01146896  0.02192446  0.84720107  1
  La  La2  1  0.67604487  0.32914243  0.68185824  1
  La  La3  1  0.67085757  0.32395513  0.18185824  1
  La  La4  1  0.33660901  0.65971993  0.01279701  1
  La  La5  1  0.34028007  0.66339099  0.51279701  1
  Ti  Ti0  1  0.01348837  0.01658358  0.65028305  1
  Ti  Ti1  1  0.98341642  0.98651163  0.15028305  1
  Ti  Ti2  1  0.66132954  0.34642440  0.98299396  1
  Ti  Ti3  1  0.65357560  0.33867046  0.48299396  1
  Ti  Ti4  1  0.31690648  0.65324131  0.31754186  1
  Ti  Ti5  1  0.34675869  0.68309352  0.81754186  1
  Si  Si0  1  0.01922955  0.31216853  0.25325653  1
  Si  Si1  1  0.68783147  0.98077045  0.75325653  1
  Si  Si2  1  0.35569802  0.04415730  0.58430180  1
  Si  Si3  1  0.95584270  0.64430198  0.08430180  1
  Si  Si4  1  0.35390133  0.98322349  0.92104850  1
  Si  Si5  1  0.01677651  0.64609867  0.42104850  1
  P  P0  1  0.28088461  0.97534410  0.25041462  1
  P  P1  1  0.68329415  0.70699963  0.24621900  1
  P  P2  1  0.29300037  0.31670585  0.74621900  1
  P  P3  1  0.02465590  0.71911539  0.75041462  1
  P  P4  1  0.95750707  0.30974561  0.57838656  1
  P  P5  1  0.69244447  0.64538705  0.58480647  1
  P  P6  1  0.69025439  0.04249293  0.07838656  1
  P  P7  1  0.35461295  0.30755553  0.08480647  1
  P  P8  1  0.62802628  0.64643589  0.91199806  1
  P  P9  1  0.02156624  0.38438547  0.91841900  1
  P  P10  1  0.61561453  0.97843376  0.41841900  1
  P  P11  1  0.35356411  0.37197372  0.41199806  1
  O  O0  1  0.21322787  0.99382563  0.31037268  1
  O  O1  1  0.78657998  0.75598139  0.30297809  1
  O  O2  1  0.00984254  0.23220889  0.31770975  1
  O  O3  1  0.24401861  0.21342002  0.80297809  1
  O  O4  1  0.00617437  0.78677213  0.81037268  1
  O  O5  1  0.76779111  0.99015746  0.81770975  1
  O  O6  1  0.80649811  0.97007358  0.69728380  1
  O  O7  1  0.16913375  0.19949970  0.69468900  1
  O  O8  1  0.04184868  0.84271272  0.69788191  1
  O  O9  1  0.80050030  0.83086625  0.19468900  1
  O  O10  1  0.02992642  0.19350189  0.19728380  1
  O  O11  1  0.15728728  0.95815132  0.19788191  1
  O  O12  1  0.89774059  0.34653674  0.63704616  1
  O  O13  1  0.45533496  0.10591005  0.64606463  1
  O  O14  1  0.67599235  0.56532606  0.64544564  1
  O  O15  1  0.89408995  0.54466504  0.14606463  1
  O  O16  1  0.65346326  0.10225941  0.13704616  1
  O  O17  1  0.43467394  0.32400765  0.14544564  1
  O  O18  1  0.47826801  0.31126450  0.03353835  1
  O  O19  1  0.82520399  0.52616476  0.02793593  1
  O  O20  1  0.70678515  0.16307541  0.02594086  1
  O  O21  1  0.47383524  0.17479601  0.52793593  1
  O  O22  1  0.68873550  0.52173199  0.53353835  1
  O  O23  1  0.83692459  0.29321485  0.52594086  1
  O  O24  1  0.56739474  0.69048801  0.96822009  1
  O  O25  1  0.09272119  0.43517896  0.98166010  1
  O  O26  1  0.33559640  0.88661216  0.98218938  1
  O  O27  1  0.56482104  0.90727881  0.48166010  1
  O  O28  1  0.30951199  0.43260526  0.46822009  1
  O  O29  1  0.11338784  0.66440360  0.48218938  1
  O  O30  1  0.14226655  0.62856696  0.36450773  1
  O  O31  1  0.49333434  0.85413423  0.37053643  1
  O  O32  1  0.36950336  0.48652150  0.35707560  1
  O  O33  1  0.14586577  0.50666566  0.87053643  1
  O  O34  1  0.37143304  0.85773345  0.86450773  1
  O  O35  1  0.51347850  0.63049664  0.85707560  1
  O  O36  1  0.00911136  0.81293749  0.41346406  1
  O  O37  1  0.79552737  0.02156726  0.41108349  1
  O  O38  1  0.21915621  0.19289375  0.40390693  1
  O  O39  1  0.97843274  0.20447263  0.91108349  1
  O  O40  1  0.18706251  0.99088864  0.91346406  1
  O  O41  1  0.80710625  0.78084379  0.90390693  1
  O  O42  1  0.94864382  0.13753449  0.58459667  1
  O  O43  1  0.17367976  0.03532618  0.59096076  1
  O  O44  1  0.86137636  0.80466662  0.58036278  1
  O  O45  1  0.96467382  0.82632024  0.09096076  1
  O  O46  1  0.86246551  0.05135618  0.08459667  1
  O  O47  1  0.19533338  0.13862364  0.08036278  1
  O  O48  1  0.64013373  0.12504919  0.75044681  1
  O  O49  1  0.47009143  0.35773144  0.73446775  1
  O  O50  1  0.87289922  0.55044215  0.74236944  1
  O  O51  1  0.64226856  0.52990857  0.23446775  1
  O  O52  1  0.87495081  0.35986627  0.25044681  1
  O  O53  1  0.44955785  0.12710078  0.24236944  1
  O  O54  1  0.62488185  0.47811641  0.92026599  1
  O  O55  1  0.85912193  0.39346617  0.91525539  1
  O  O56  1  0.52981231  0.15770172  0.92203916  1
  O  O57  1  0.60653383  0.14087807  0.41525539  1
  O  O58  1  0.52188359  0.37511815  0.42026599  1
  O  O59  1  0.84229828  0.47018769  0.42203916  1
  O  O60  1  0.31304082  0.44544533  0.07821459  1
  O  O61  1  0.14201329  0.67692595  0.07624152  1
  O  O62  1  0.55143184  0.86618600  0.07140319  1
  O  O63  1  0.32307405  0.85798671  0.57624152  1
  O  O64  1  0.55455467  0.68695918  0.57821459  1
  O  O65  1  0.13381400  0.44856816  0.57140319  1
  O  O66  1  0.28645115  0.81115885  0.25169715  1
  O  O67  1  0.52612896  0.71870504  0.25055990  1
  O  O68  1  0.20106467  0.49390690  0.25559881  1
  O  O69  1  0.28129496  0.47387104  0.75055990  1
  O  O70  1  0.18884115  0.71354885  0.75169715  1
  O  O71  1  0.50609310  0.79893533  0.75559881  1
loop_
_geom_bond_atom_site_label_1
_geom_bond_atom_site_label_2
_geom_bond_distance
_geom_bond_site_symmetry_2
Na0 O44 2.310847 1_555
Na0 O42 2.445383 1_565
Na0 O43 2.464814 1_665
Na0 O36 2.642574 1_655
Na0 O37 2.910084 1_565
Na0 O38 3.013241 1_665
Na1 O47 2.310848 1_555
Na1 O46 2.445383 1_455
Na1 O45 2.464814 1_445
Na1 O40 2.642574 1_544
Na1 O39 2.910084 1_454
Na1 O41 3.013241 1_444
Na2 O55 2.329279 1_555
Na2 O56 2.356578 1_555
Na2 O54 2.515368 1_555
Na2 O48 2.593555 1_555
Na2 O50 2.973224 1_555
Na3 O57 2.329279 1_555
Na3 O59 2.356578 1_555
Na3 O58 2.515368 1_555
Na3 O52 2.593555 1_555
Na3 O53 2.973224 1_555
Na4 O67 2.287647 1_555
Na4 O66 2.400143 1_555
Na4 O68 2.558408 1_555
Na4 O62 2.807438 1_555
Na4 O61 2.908579 1_555
Na4 O60 2.962480 1_555
Na5 O69 2.287647 1_555
Na5 O70 2.400143 1_555
Na5 O71 2.558408 1_555
Na5 O65 2.807438 1_555
Na5 O63 2.908579 1_555
Na5 O64 2.962480 1_555
Na6 O51 2.330969 1_555
Na6 O68 2.415875 1_555
Na6 O17 2.444833 1_555
Na6 O53 2.678509 1_555
Na6 O32 2.699513 1_555
Na7 O52 2.328220 1_555
Na7 O15 2.342689 1_555
Na7 O66 2.398237 1_655
Na7 O68 2.907463 1_655
Na8 O49 2.330969 1_555
Na8 O71 2.415875 1_555
Na8 O14 2.444833 1_555
Na8 O50 2.678509 1_555
Na8 O35 2.699513 1_555
Na9 O48 2.328220 1_555
Na9 O13 2.342689 1_555
Na9 O70 2.398237 1_545
Na9 O71 2.907463 1_545
Na10 O63 2.318457 1_555
Na10 O44 2.334482 1_455
Na10 O29 2.340879 1_555
Na10 O43 2.774226 1_565
Na11 O64 2.364679 1_555
Na11 O42 2.378949 1_565
Na11 O27 2.394482 1_555
Na11 O63 2.788150 1_555
Na11 O23 2.919192 1_565
Na12 O61 2.318457 1_555
Na12 O47 2.334482 1_565
Na12 O26 2.340879 1_554
Na12 O45 2.774226 1_455
Na13 O60 2.364679 1_555
Na13 O46 2.378949 1_455
Na13 O25 2.394482 1_554
Na13 O61 2.788150 1_555
Na13 O20 2.919192 1_455
Na14 O41 2.288030 1_555
Na14 O55 2.374636 1_555
Na14 O4 2.488761 1_655
Na14 O40 2.555839 1_655
Na15 O39 2.353255 1_555
Na15 O5 2.355580 1_545
Na15 O56 2.374349 1_555
Na15 O20 2.747854 1_556
Na15 O34 2.862464 1_545
Na16 O37 2.353255 1_555
Na16 O2 2.355580 1_655
Na16 O59 2.374349 1_555
Na16 O23 2.747854 1_555
Na16 O30 2.862464 1_655
Na17 O38 2.288030 1_555
Na17 O57 2.374636 1_555
Na17 O0 2.488761 1_545
Na17 O36 2.555839 1_545
La0 O2 2.257401 1_665
La0 O1 2.258625 1_555
La0 O0 2.332354 1_655
La0 O36 2.340400 1_655
La0 O37 2.361078 1_565
La0 O38 2.474913 1_665
La1 O5 2.257401 1_445
La1 O3 2.258625 1_555
La1 O4 2.332353 1_545
La1 O40 2.340400 1_545
La1 O39 2.361078 1_455
La1 O41 2.474913 1_445
La2 O12 2.239812 1_555
La2 O13 2.245872 1_555
La2 O48 2.345561 1_555
La2 O14 2.365133 1_555
La2 O49 2.385451 1_555
La2 O50 2.401285 1_555
La3 O16 2.239812 1_555
La3 O15 2.245872 1_555
La3 O52 2.345561 1_555
La3 O17 2.365133 1_555
La3 O51 2.385451 1_555
La3 O53 2.401285 1_555
La4 O26 2.244553 1_554
La4 O24 2.268020 1_554
La4 O25 2.326762 1_554
La4 O61 2.375838 1_555
La4 O62 2.383225 1_555
La4 O60 2.408631 1_555
La5 O29 2.244553 1_555
La5 O28 2.268020 1_555
La5 O27 2.326762 1_555
La5 O63 2.375838 1_555
La5 O65 2.383225 1_555
La5 O64 2.408631 1_555
O0 P0 1.523972 1_555
O1 P1 1.521850 1_555
O2 Si0 1.604589 1_555
O3 P2 1.521850 1_555
O4 P3 1.523972 1_555
O5 Si1 1.604589 1_555
O6 Si1 1.706294 1_555
O6 Ti0 2.055071 1_665
O7 P2 1.619097 1_555
O7 Ti0 1.894773 1_555
O8 P3 1.601942 1_555
O8 Ti0 2.074927 1_565
O9 P1 1.619097 1_555
O9 Ti1 1.894773 1_555
O10 Si0 1.706294 1_555
O10 Ti1 2.055071 1_445
O11 P0 1.601942 1_555
O11 Ti1 2.074927 1_455
O12 P4 1.525997 1_555
O13 Si2 1.604329 1_555
O14 P5 1.518293 1_555
O15 Si3 1.604329 1_555
O16 P6 1.525997 1_555
O17 P7 1.518293 1_555
O18 P7 1.615374 1_555
O18 Ti2 1.940916 1_554
O19 Si3 1.724160 1_555
O19 Ti2 1.912894 1_554
O20 P6 1.583048 1_555
O20 Ti2 2.191619 1_554
O21 Si2 1.724160 1_555
O21 Ti3 1.912894 1_555
O22 P5 1.615374 1_555
O22 Ti3 1.940916 1_555
O23 P4 1.583048 1_555
O23 Ti3 2.191619 1_555
O24 P8 1.513774 1_555
O25 P9 1.532075 1_555
O26 Si4 1.600346 1_555
O27 P10 1.532075 1_555
O28 P11 1.513774 1_555
O29 Si5 1.600346 1_555
O30 Si5 1.785335 1_555
O30 Ti4 1.859665 1_555
O31 P10 1.580612 1_555
O31 Ti4 2.148580 1_555
O32 P11 1.589234 1_555
O32 Ti4 2.061034 1_555
O33 P9 1.580612 1_555
O33 Ti5 2.148580 1_555
O34 Si4 1.785335 1_555
O34 Ti5 1.859665 1_555
O35 P8 1.589234 1_555
O35 Ti5 2.061034 1_555
O36 Si5 1.613714 1_555
O37 P10 1.539955 1_545
O38 P11 1.536683 1_555
O39 P9 1.539955 1_655
O40 Si4 1.613714 1_555
O41 P8 1.536683 1_555
O42 P4 1.585084 1_555
O42 Ti0 2.121825 1_655
O43 Si2 1.677056 1_555
O43 Ti0 1.942415 1_555
O44 P5 1.557218 1_555
O44 Ti0 2.371107 1_665
O45 Si3 1.677056 1_555
O45 Ti1 1.942415 1_555
O46 P6 1.585084 1_555
O46 Ti1 2.121825 1_545
O47 P7 1.557218 1_555
O47 Ti1 2.371107 1_445
O48 Si1 1.625630 1_545
O49 P2 1.533352 1_555
O50 P3 1.531994 1_655
O51 P1 1.533352 1_555
O52 Si0 1.625630 1_655
O53 P0 1.531994 1_545
O54 P8 1.578442 1_555
O54 Ti2 2.008026 1_555
O55 P9 1.571955 1_655
O55 Ti2 2.259565 1_555
O56 Si4 1.657171 1_545
O56 Ti2 2.085705 1_555
O57 P10 1.571955 1_545
O57 Ti3 2.259565 1_555
O58 P11 1.578442 1_555
O58 Ti3 2.008026 1_555
O59 Si5 1.657171 1_655
O59 Ti3 2.085705 1_555
O60 P7 1.534107 1_555
O61 Si3 1.629612 1_455
O62 P6 1.528844 1_565
O63 Si2 1.629612 1_565
O64 P5 1.534107 1_555
O65 P4 1.528844 1_455
O66 P0 1.569490 1_555
O66 Ti4 2.206628 1_555
O67 P1 1.536756 1_555
O67 Ti4 2.294941 1_555
O68 Si0 1.720124 1_555
O68 Ti4 1.928805 1_555
O69 P2 1.536756 1_555
O69 Ti5 2.294941 1_555
O70 P3 1.569490 1_555
O70 Ti5 2.206628 1_555
O71 Si1 1.720124 1_555
O71 Ti5 1.928805 1_555
