# generated using pymatgen
data_Cs4PbBr6
_symmetry_space_group_name_H-M   'P 1'
_cell_length_a   9.88304412
_cell_length_b   9.88304412
_cell_length_c   9.88304376
_cell_angle_alpha   88.93285780
_cell_angle_beta   88.93285780
_cell_angle_gamma   88.93286319
_symmetry_Int_Tables_number   1
_chemical_formula_structural   Cs4PbBr6
_chemical_formula_sum   'Cs8 Pb2 Br12'
_cell_volume   964.82582892
_cell_formula_units_Z   2
loop_
 _symmetry_equiv_pos_site_id
 _symmetry_equiv_pos_as_xyz
  1  'x, y, z'
loop_
 _atom_site_type_symbol
 _atom_site_label
 _atom_site_symmetry_multiplicity
 _atom_site_fract_x
 _atom_site_fract_y
 _atom_site_fract_z
 _atom_site_occupancy
  Cs  Cs0  1  0.25000000  0.25000000  0.25000000  1
  Cs  Cs1  1  0.75000000  0.75000000  0.75000000  1
  Cs  Cs2  1  0.25000000  0.62595665  0.87404335  1
  Cs  Cs3  1  0.87404335  0.25000000  0.62595665  1
  Cs  Cs4  1  0.62595665  0.87404335  0.25000000  1
  Cs  Cs5  1  0.75000000  0.37404335  0.12595665  1
  Cs  Cs6  1  0.12595665  0.75000000  0.37404335  1
  Cs  Cs7  1  0.37404335  0.12595665  0.75000000  1
  Pb  Pb0  1  0.00000000  0.00000000  -0.00000000  1
  Pb  Pb1  1  0.50000000  0.50000000  0.50000000  1
  Br  Br0  1  0.56240393  0.20684008  0.42726988  1
  Br  Br1  1  0.42726988  0.56240393  0.20684008  1
  Br  Br2  1  0.20684008  0.42726988  0.56240393  1
  Br  Br3  1  0.93759607  0.07273012  0.29315992  1
  Br  Br4  1  0.29315992  0.93759607  0.07273012  1
  Br  Br5  1  0.07273012  0.29315992  0.93759607  1
  Br  Br6  1  0.43759607  0.79315992  0.57273012  1
  Br  Br7  1  0.57273012  0.43759607  0.79315992  1
  Br  Br8  1  0.79315992  0.57273012  0.43759607  1
  Br  Br9  1  0.06240393  0.92726988  0.70684008  1
  Br  Br10  1  0.92726988  0.70684008  0.06240393  1
  Br  Br11  1  0.70684008  0.06240393  0.92726988  1
loop_
_geom_bond_atom_site_label_1
_geom_bond_atom_site_label_2
_geom_bond_distance
_geom_bond_site_symmetry_2
Br0 Pb1 3.047287 1_555
Br0 Cs0 3.592853 1_555
Br0 Cs3 3.718772 1_555
Br0 Cs7 3.743932 1_555
Br0 Cs4 3.791886 1_545
Br0 Cs5 3.842016 1_555
Br1 Pb1 3.047287 1_555
Br1 Cs0 3.592853 1_555
Br1 Cs4 3.718772 1_555
Br1 Cs5 3.743932 1_555
Br1 Cs2 3.791886 1_554
Br1 Cs6 3.842016 1_555
Br2 Pb1 3.047287 1_555
Br2 Cs0 3.592853 1_555
Br2 Cs2 3.718772 1_555
Br2 Cs6 3.743932 1_555
Br2 Cs3 3.791886 1_455
Br2 Cs7 3.842016 1_555
Br3 Pb0 3.047287 1_655
Br3 Cs0 3.592853 1_655
Br3 Cs4 3.718772 1_545
Br3 Cs6 3.743932 1_645
Br3 Cs3 3.791886 1_555
Br3 Cs5 3.842016 1_555
Br4 Pb0 3.047287 1_565
Br4 Cs0 3.592853 1_565
Br4 Cs2 3.718772 1_554
Br4 Cs7 3.743932 1_564
Br4 Cs4 3.791886 1_555
Br4 Cs6 3.842016 1_555
Br5 Pb0 3.047287 1_556
Br5 Cs0 3.592853 1_556
Br5 Cs3 3.718772 1_455
Br5 Cs5 3.743932 1_456
Br5 Cs2 3.791886 1_555
Br5 Cs7 3.842016 1_555
Br6 Pb1 3.047287 1_555
Br6 Cs1 3.592853 1_555
Br6 Cs6 3.718772 1_555
Br6 Cs4 3.743932 1_555
Br6 Cs7 3.791886 1_565
Br6 Cs2 3.842016 1_555
Br7 Pb1 3.047287 1_555
Br7 Cs1 3.592853 1_555
Br7 Cs7 3.718772 1_555
Br7 Cs2 3.743932 1_555
Br7 Cs5 3.791886 1_556
Br7 Cs3 3.842016 1_555
Br8 Pb1 3.047287 1_555
Br8 Cs1 3.592853 1_555
Br8 Cs5 3.718772 1_555
Br8 Cs3 3.743932 1_555
Br8 Cs6 3.791886 1_655
Br8 Cs4 3.842016 1_555
Br9 Pb0 3.047287 1_566
Br9 Cs1 3.592853 1_455
Br9 Cs7 3.718772 1_565
Br9 Cs3 3.743932 1_465
Br9 Cs6 3.791886 1_555
Br9 Cs2 3.842016 1_555
Br10 Pb0 3.047287 1_665
Br10 Cs1 3.592853 1_554
Br10 Cs6 3.718772 1_655
Br10 Cs2 3.743932 1_654
Br10 Cs5 3.791886 1_555
Br10 Cs4 3.842016 1_555
Br11 Pb0 3.047287 1_656
Br11 Cs1 3.592853 1_545
Br11 Cs5 3.718772 1_556
Br11 Cs4 3.743932 1_546
Br11 Cs7 3.791886 1_555
Br11 Cs3 3.842016 1_555
