# generated using pymatgen
data_Na4Sc2Si3Ge2(SO8)3
_symmetry_space_group_name_H-M   'P 1'
_cell_length_a   8.86271688
_cell_length_b   8.83367901
_cell_length_c   22.45572238
_cell_angle_alpha   90.19246241
_cell_angle_beta   88.65738482
_cell_angle_gamma   119.47284899
_symmetry_Int_Tables_number   1
_chemical_formula_structural   Na4Sc2Si3Ge2(SO8)3
_chemical_formula_sum   'Na12 Sc6 Si9 Ge6 S9 O72'
_cell_volume   1530.06644048
_cell_formula_units_Z   3
loop_
 _symmetry_equiv_pos_site_id
 _symmetry_equiv_pos_as_xyz
  1  'x, y, z'
loop_
 _atom_site_type_symbol
 _atom_site_label
 _atom_site_symmetry_multiplicity
 _atom_site_fract_x
 _atom_site_fract_y
 _atom_site_fract_z
 _atom_site_occupancy
  Na  Na0  1  0.99024372  0.63539202  0.25312491  1
  Na  Na1  1  0.99623103  0.36376329  0.74346584  1
  Na  Na2  1  0.66196719  0.97473337  0.58873496  1
  Na  Na3  1  0.66679721  0.69897776  0.08114388  1
  Na  Na4  1  0.33520304  0.30134575  0.90671617  1
  Na  Na5  1  0.32236580  0.02607356  0.42025183  1
  Na  Na6  1  0.00368276  0.99352841  0.50409291  1
  Na  Na7  1  0.98932769  0.98603737  0.99874632  1
  Na  Na8  1  0.65436169  0.32214577  0.82566498  1
  Na  Na9  1  0.65478932  0.33662143  0.33467925  1
  Na  Na10  1  0.32508849  0.67119616  0.17003347  1
  Na  Na11  1  0.31833107  0.66684685  0.66279715  1
  Sc  Sc0  1  0.99783197  0.98585096  0.35342462  1
  Sc  Sc1  1  0.99076489  0.99176089  0.85078342  1
  Sc  Sc2  1  0.65827233  0.32400489  0.68705196  1
  Sc  Sc3  1  0.66319485  0.33490202  0.18994650  1
  Sc  Sc4  1  0.33041663  0.67296770  0.01893147  1
  Sc  Sc5  1  0.31558389  0.66337090  0.52219770  1
  Si  Si0  1  0.29488016  0.99454142  0.25406419  1
  Si  Si1  1  0.69115925  0.70721188  0.25320604  1
  Si  Si2  1  0.29537462  0.29387705  0.75535754  1
  Si  Si3  1  0.71778996  -0.00135234  0.74724747  1
  Si  Si4  1  0.96156799  0.33332254  0.58722785  1
  Si  Si5  1  0.37324902  0.05298176  0.58237921  1
  Si  Si6  1  0.96440028  0.63369933  0.08755983  1
  Si  Si7  1  0.63203006  0.66548148  0.92094251  1
  Si  Si8  1  0.02828884  0.64853219  0.41775341  1
  Ge  Ge0  1  0.02576477  0.04571585  0.64777484  1
  Ge  Ge1  1  0.99067939  0.95959250  0.15967942  1
  Ge  Ge2  1  0.69094603  0.36929514  0.98371570  1
  Ge  Ge3  1  0.68831825  0.34091370  0.49162508  1
  Ge  Ge4  1  0.33192532  0.67632680  0.31581748  1
  Ge  Ge5  1  0.38802091  0.66865891  0.80651932  1
  S  S0  1  0.00530646  0.28256034  0.24723675  1
  S  S1  1  0.01090570  0.71431383  0.74895411  1
  S  S2  1  0.67474124  0.62735236  0.58138036  1
  S  S3  1  0.67436195  0.05490338  0.07982129  1
  S  S4  1  0.36836957  0.32293998  0.08251636  1
  S  S5  1  0.03222911  0.37672382  0.91866851  1
  S  S6  1  0.34298971  0.96151874  0.91485851  1
  S  S7  1  0.62037581  0.95992868  0.41620504  1
  S  S8  1  0.33628917  0.38310578  0.41379083  1
  O  O0  1  0.21591201  0.03038601  0.31374257  1
  O  O1  1  0.83034929  0.80451543  0.30349812  1
  O  O2  1  0.98451760  0.18661365  0.30203390  1
  O  O3  1  0.21206698  0.18974309  0.81671724  1
  O  O4  1  0.98796671  0.79209821  0.80458141  1
  O  O5  1  0.82720535  0.02057962  0.80584119  1
  O  O6  1  0.80918598  0.96509642  0.68635117  1
  O  O7  1  0.16267508  0.21246228  0.69813862  1
  O  O8  1  0.03688042  0.82252138  0.69572308  1
  O  O9  1  0.77373459  0.82427747  0.18832232  1
  O  O10  1  0.02860094  0.19388586  0.19204580  1
  O  O11  1  0.15835912  0.94648728  0.19608868  1
  O  O12  1  0.88158473  0.36428730  0.64703875  1
  O  O13  1  0.49850388  0.13966388  0.63699057  1
  O  O14  1  0.64757201  0.52303411  0.63436851  1
  O  O15  1  0.87173849  0.52036509  0.14559638  1
  O  O16  1  0.64833136  0.13173887  0.13362341  1
  O  O17  1  0.48132294  0.34985957  0.13269450  1
  O  O18  1  0.45026211  0.29821413  0.02486993  1
  O  O19  1  0.83113714  0.54896999  0.02873986  1
  O  O20  1  0.69278504  0.16177725  0.02423422  1
  O  O21  1  0.46764035  0.17740267  0.51864644  1
  O  O22  1  0.69945607  0.54257625  0.52529004  1
  O  O23  1  0.82762032  0.28605419  0.52973723  1
  O  O24  1  0.53603708  0.67704697  0.98098091  1
  O  O25  1  0.14009189  0.46654386  0.97023986  1
  O  O26  1  0.31919544  0.85843999  0.96965800  1
  O  O27  1  0.54746698  0.85732260  0.47048870  1
  O  O28  1  0.32615828  0.46893788  0.46770974  1
  O  O29  1  0.16286636  0.69240574  0.46991872  1
  O  O30  1  0.12187494  0.62075613  0.35411475  1
  O  O31  1  0.50571660  0.87272109  0.36300374  1
  O  O32  1  0.35925038  0.49116674  0.35839527  1
  O  O33  1  0.10144736  0.47463922  0.86304239  1
  O  O34  1  0.36143996  0.87434327  0.86090135  1
  O  O35  1  0.49499351  0.61880570  0.86319055  1
  O  O36  1  0.01209192  0.82506070  0.41310299  1
  O  O37  1  0.79649297  0.98872034  0.40745256  1
  O  O38  1  0.17645186  0.20962499  0.41153249  1
  O  O39  1  0.01770702  0.20240152  0.91762657  1
  O  O40  1  0.18921013  0.98708122  0.91374295  1
  O  O41  1  0.82221013  0.82789321  0.91481169  1
  O  O42  1  0.96322928  0.14441734  0.58844568  1
  O  O43  1  0.17555667  0.02772017  0.59293020  1
  O  O44  1  0.83208660  0.79938017  0.58244849  1
  O  O45  1  0.96928051  0.82967362  0.09194277  1
  O  O46  1  0.83273690  0.03737250  0.08124024  1
  O  O47  1  0.19526629  0.16919387  0.08815240  1
  O  O48  1  0.69644304  0.16978769  0.74574807  1
  O  O49  1  0.49067300  0.33660035  0.74752960  1
  O  O50  1  0.85522143  0.53984815  0.74603703  1
  O  O51  1  0.68141737  0.51941437  0.24582704  1
  O  O52  1  0.85192206  0.30746082  0.24254939  1
  O  O53  1  0.48558668  0.15209962  0.24188726  1
  O  O54  1  0.63428389  0.47298884  0.92444171  1
  O  O55  1  0.85070110  0.35549975  0.92670566  1
  O  O56  1  0.50115067  0.13675470  0.91912481  1
  O  O57  1  0.62382835  0.13040033  0.41863184  1
  O  O58  1  0.48932714  0.35605544  0.41337024  1
  O  O59  1  0.83234816  0.47010019  0.42803412  1
  O  O60  1  0.35552087  0.48486893  0.07829224  1
  O  O61  1  0.15571571  0.65993678  0.07853858  1
  O  O62  1  0.52154043  0.87526466  0.07582757  1
  O  O63  1  0.36479729  0.86607361  0.57454504  1
  O  O64  1  0.52239702  0.65216883  0.57442316  1
  O  O65  1  0.15613141  0.48912990  0.57895315  1
  O  O66  1  0.29193812  0.80492033  0.25845874  1
  O  O67  1  0.49777934  0.68672725  0.26209624  1
  O  O68  1  0.16248537  0.45953172  0.24770091  1
  O  O69  1  0.29186678  0.48520861  0.75911318  1
  O  O70  1  0.16680078  0.69074095  0.75382703  1
  O  O71  1  0.52143931  0.82247510  0.75226146  1
loop_
_geom_bond_atom_site_label_1
_geom_bond_atom_site_label_2
_geom_bond_distance
_geom_bond_site_symmetry_2
Na0 O66 2.340933 1_655
Na0 O51 2.414216 1_555
Na0 O52 2.542721 1_555
Na0 O30 2.606718 1_655
Na0 O15 2.649192 1_555
Na0 O68 2.661211 1_655
Na0 O11 2.705107 1_655
Na0 O1 2.741626 1_555
Na1 O69 2.326824 1_655
Na1 O48 2.347834 1_555
Na1 O12 2.414318 1_555
Na1 O50 2.427662 1_555
Na1 O70 2.529355 1_655
Na1 O7 2.618976 1_655
Na1 O33 2.870536 1_655
Na1 O5 2.976209 1_555
Na2 O42 2.331693 1_565
Na2 O63 2.347139 1_555
Na2 O64 2.509337 1_555
Na2 O6 2.599860 1_555
Na2 O44 2.641839 1_555
Na2 O13 2.718187 1_565
Na2 O23 2.726540 1_565
Na2 O27 2.868490 1_555
Na3 O45 2.358285 1_555
Na3 O60 2.462745 1_555
Na3 O62 2.465325 1_555
Na3 O24 2.517519 1_554
Na3 O46 2.602447 1_565
Na3 O9 2.640576 1_555
Na3 O19 2.659045 1_555
Na3 O17 2.915392 1_555
Na4 O3 2.297516 1_555
Na4 O54 2.360936 1_555
Na4 O40 2.421700 1_545
Na4 O39 2.508159 1_555
Na4 O56 2.545749 1_555
Na4 O35 2.621211 1_555
Na4 O18 2.869719 1_556
Na5 O57 2.358342 1_555
Na5 O36 2.440184 1_545
Na5 O38 2.533192 1_555
Na5 O58 2.541323 1_555
Na5 O21 2.597411 1_555
Na5 O0 2.598796 1_555
Na5 O29 2.788940 1_545
Na5 O31 2.860923 1_545
Na6 O44 2.382956 1_455
Na6 O42 2.432003 1_465
Na6 O43 2.465126 1_565
Na6 O36 2.544933 1_555
Na6 O38 2.703712 1_565
Na6 O37 2.862256 1_455
Na7 O41 2.403102 1_555
Na7 O46 2.460989 1_566
Na7 O45 2.465716 1_556
Na7 O39 2.561915 1_665
Na7 O40 2.570496 1_655
Na7 O47 2.687718 1_666
Na8 O49 2.345752 1_555
Na8 O48 2.370105 1_555
Na8 O50 2.563169 1_555
Na8 O56 2.575210 1_555
Na8 O54 2.631001 1_555
Na8 O55 2.817601 1_555
Na9 O58 2.329528 1_555
Na9 O51 2.503725 1_555
Na9 O57 2.540638 1_555
Na9 O59 2.563883 1_555
Na9 O53 2.639295 1_555
Na9 O52 2.769266 1_555
Na10 O66 2.392273 1_555
Na10 O68 2.422249 1_555
Na10 O61 2.545733 1_555
Na10 O67 2.564158 1_555
Na10 O60 2.722869 1_555
Na10 O62 2.742402 1_555
Na11 O65 2.441757 1_555
Na11 O70 2.484759 1_555
Na11 O63 2.542884 1_555
Na11 O71 2.623373 1_555
Na11 O69 2.633754 1_555
Na11 O64 2.699417 1_555
Ge0 O7 1.793163 1_555
Ge0 O42 1.833104 1_455
Ge0 O43 1.853162 1_555
Ge0 O6 1.876980 1_445
Ge0 O8 2.294928 1_545
Ge0 O44 2.500915 1_445
Ge1 O11 1.765565 1_655
Ge1 O9 1.795833 1_555
Ge1 O45 1.858596 1_555
Ge1 O10 2.059518 1_665
Ge2 O19 1.786810 1_556
Ge2 O54 1.831683 1_555
Ge2 O55 1.934486 1_555
Ge2 O20 2.056662 1_556
Ge2 O18 2.095713 1_556
Ge2 O56 2.418075 1_555
Ge3 O23 1.769906 1_555
Ge3 O21 1.857446 1_555
Ge3 O59 1.860905 1_555
Ge3 O22 1.891062 1_555
Ge3 O57 2.334321 1_555
Ge4 O67 1.846384 1_555
Ge4 O30 1.864065 1_555
Ge4 O66 1.871464 1_555
Ge4 O31 1.984852 1_555
Ge4 O32 2.014765 1_555
Ge4 O68 2.349555 1_555
Ge5 O71 1.758275 1_555
Ge5 O69 1.776965 1_555
Ge5 O35 1.784213 1_555
Ge5 O34 2.289304 1_555
Ge5 O70 2.401815 1_555
Ge5 O33 2.565011 1_555
O0 Si0 1.599147 1_545
O0 Sc0 1.964148 1_445
O1 Si1 1.597305 1_555
O1 Sc0 1.937108 1_555
O2 S0 1.452302 1_655
O2 Sc0 2.171853 1_545
O3 Si2 1.606978 1_555
O3 Sc1 2.013457 1_445
O4 S1 1.481095 1_655
O4 Sc1 2.033157 1_555
O5 Si3 1.606963 1_555
O5 Sc1 1.902108 1_545
O6 Si3 1.671990 1_565
O7 Si2 1.668424 1_555
O8 S1 1.474372 1_555
O9 Si1 1.715608 1_555
O10 S0 1.527361 1_555
O11 Si0 1.704042 1_555
O12 Si4 1.589006 1_555
O12 Sc2 2.019115 1_555
O13 Si5 1.594865 1_555
O13 Sc2 1.927124 1_555
O14 S2 1.448652 1_555
O14 Sc2 2.164028 1_555
O15 Si6 1.588954 1_555
O15 Sc3 2.009242 1_555
O16 S3 1.452270 1_555
O16 Sc3 2.144248 1_555
O17 S4 1.464634 1_555
O17 Sc3 2.139228 1_555
O18 S4 1.536312 1_555
O19 Si6 1.701871 1_555
O20 S3 1.524063 1_555
O21 Si5 1.733716 1_555
O22 S2 1.528862 1_555
O23 Si4 1.682481 1_555
O24 Si7 1.607091 1_555
O24 Sc4 1.977712 1_556
O25 S5 1.477790 1_555
O25 Sc4 2.100533 1_556
O26 S6 1.481316 1_555
O26 Sc4 2.023908 1_556
O27 S7 1.455738 1_555
O27 Sc5 2.223504 1_555
O28 S8 1.450753 1_555
O28 Sc5 2.143550 1_555
O29 Si8 1.597669 1_555
O29 Sc5 1.921978 1_555
O30 Si8 1.712514 1_555
O31 S7 1.527655 1_555
O32 S8 1.518221 1_555
O33 S5 1.460823 1_555
O34 S6 1.481961 1_555
O35 Si7 1.704218 1_555
O36 Si8 1.638688 1_555
O36 Sc0 2.006667 1_455
O37 S7 1.461153 1_555
O37 Sc0 2.144657 1_555
O38 S8 1.491450 1_555
O38 Sc0 2.261949 1_445
O39 S5 1.480979 1_555
O39 Sc1 2.309372 1_445
O40 S6 1.487820 1_555
O40 Sc1 2.298316 1_455
O41 Si7 1.590329 1_555
O41 Sc1 2.044439 1_555
O42 Si4 1.676341 1_555
O43 Si5 1.664909 1_555
O44 S2 1.473283 1_555
O45 Si6 1.712862 1_555
O46 S3 1.487013 1_555
O47 S4 1.468321 1_555
O48 Si3 1.613860 1_555
O48 Sc2 2.047943 1_555
O49 Si2 1.585132 1_555
O49 Sc2 2.032285 1_555
O50 S1 1.481337 1_655
O50 Sc2 2.291966 1_555
O51 Si1 1.626310 1_555
O51 Sc3 1.998519 1_555
O52 S0 1.486116 1_655
O52 Sc3 2.178367 1_555
O53 Si0 1.592073 1_545
O53 Sc3 1.967529 1_555
O54 Si7 1.712422 1_555
O55 S5 1.531623 1_655
O56 S6 1.496793 1_545
O57 S7 1.491912 1_545
O58 S8 1.488332 1_555
O59 Si8 1.686297 1_655
O60 S4 1.493250 1_555
O60 Sc4 2.231559 1_555
O61 Si6 1.602261 1_455
O61 Sc4 1.982607 1_555
O62 S3 1.500145 1_565
O62 Sc4 2.191459 1_555
O63 Si5 1.624689 1_565
O63 Sc5 2.004915 1_555
O64 S2 1.482172 1_555
O64 Sc5 2.241600 1_555
O65 Si4 1.597995 1_455
O65 Sc5 1.943933 1_555
O66 Si0 1.665602 1_555
O67 Si1 1.639813 1_555
O68 S0 1.497400 1_555
O69 Si2 1.707440 1_555
O70 S1 1.501550 1_555
O71 Si3 1.670320 1_565
