# generated using pymatgen
data_Sm3InSe6
_symmetry_space_group_name_H-M   'P 1'
_cell_length_a   4.07890341
_cell_length_b   14.28462188
_cell_length_c   17.48188280
_cell_angle_alpha   90.00000000
_cell_angle_beta   90.00000000
_cell_angle_gamma   90.00000000
_symmetry_Int_Tables_number   1
_chemical_formula_structural   Sm3InSe6
_chemical_formula_sum   'Sm12 In4 Se24'
_cell_volume   1018.59226630
_cell_formula_units_Z   4
loop_
 _symmetry_equiv_pos_site_id
 _symmetry_equiv_pos_as_xyz
  1  'x, y, z'
loop_
 _atom_site_type_symbol
 _atom_site_label
 _atom_site_symmetry_multiplicity
 _atom_site_fract_x
 _atom_site_fract_y
 _atom_site_fract_z
 _atom_site_occupancy
  Sm  Sm0  1  0.50000000  0.74876052  0.60584875  1
  Sm  Sm1  1  0.50000000  0.25123948  0.39415125  1
  Sm  Sm2  1  0.00000000  0.24876052  0.89415125  1
  Sm  Sm3  1  -0.00000000  0.75123948  0.10584875  1
  Sm  Sm4  1  0.50000000  0.95969519  0.77612863  1
  Sm  Sm5  1  0.50000000  0.04030481  0.22387137  1
  Sm  Sm6  1  0.00000000  0.45969519  0.72387137  1
  Sm  Sm7  1  0.00000000  0.54030481  0.27612863  1
  Sm  Sm8  1  0.50000000  0.18775152  0.64557037  1
  Sm  Sm9  1  0.50000000  0.81224848  0.35442963  1
  Sm  Sm10  1  0.00000000  0.68775152  0.85442963  1
  Sm  Sm11  1  -0.00000000  0.31224848  0.14557037  1
  In  In0  1  0.50000000  0.50000000  0.50000000  1
  In  In1  1  0.00000000  0.00000000  0.00000000  1
  In  In2  1  0.50000000  0.50000000  0.00000000  1
  In  In3  1  0.00000000  0.00000000  0.50000000  1
  Se  Se0  1  0.50000000  0.97808276  0.60361733  1
  Se  Se1  1  0.50000000  0.02191724  0.39638267  1
  Se  Se2  1  0.00000000  0.47808276  0.89638267  1
  Se  Se3  1  -0.00000000  0.52191724  0.10361733  1
  Se  Se4  1  0.50000000  0.09476314  0.91410920  1
  Se  Se5  1  0.50000000  0.90523686  0.08589080  1
  Se  Se6  1  0.00000000  0.59476314  0.58589080  1
  Se  Se7  1  -0.00000000  0.40523686  0.41410920  1
  Se  Se8  1  0.50000000  0.30933292  0.01991019  1
  Se  Se9  1  0.50000000  0.69066708  0.98008981  1
  Se  Se10  1  -0.00000000  0.80933292  0.48008981  1
  Se  Se11  1  0.00000000  0.19066708  0.51991019  1
  Se  Se12  1  0.50000000  0.31775767  0.78554713  1
  Se  Se13  1  0.50000000  0.68224233  0.21445287  1
  Se  Se14  1  -0.00000000  0.81775767  0.71445287  1
  Se  Se15  1  0.00000000  0.18224233  0.28554713  1
  Se  Se16  1  -0.00000000  0.11210955  0.74761962  1
  Se  Se17  1  0.00000000  0.88789045  0.25238038  1
  Se  Se18  1  0.50000000  0.61210955  0.75238038  1
  Se  Se19  1  0.50000000  0.38789045  0.24761962  1
  Se  Se20  1  -0.00000000  0.11195313  0.11572509  1
  Se  Se21  1  0.00000000  0.88804687  0.88427491  1
  Se  Se22  1  0.50000000  0.61195313  0.38427491  1
  Se  Se23  1  0.50000000  0.38804687  0.61572509  1
loop_
_geom_bond_atom_site_label_1
_geom_bond_atom_site_label_2
_geom_bond_distance
_geom_bond_site_symmetry_2
In0 Se23 2.578831 1_555
In0 Se22 2.578831 1_555
In0 Se6 2.871645 1_555
In0 Se6 2.871645 1_655
In0 Se7 2.871645 1_655
In0 Se7 2.871645 1_555
In1 Se21 2.578831 1_544
In1 Se20 2.578831 1_555
In1 Se5 2.871645 1_545
In1 Se5 2.871645 1_445
In1 Se4 2.871645 1_554
In1 Se4 2.871645 1_454
In2 Se2 2.745660 1_654
In2 Se2 2.745660 1_554
In2 Se3 2.745660 1_555
In2 Se3 2.745660 1_655
In2 Se9 2.745758 1_554
In2 Se8 2.745758 1_555
In3 Se1 2.745660 1_455
In3 Se1 2.745660 1_555
In3 Se0 2.745660 1_545
In3 Se0 2.745660 1_445
In3 Se10 2.745758 1_545
In3 Se11 2.745758 1_555
Se0 Sm4 3.027239 1_555
Se0 Sm8 3.083531 1_565
Se0 Sm0 3.276014 1_555
Se1 Sm5 3.027239 1_555
Se1 Sm9 3.083531 1_545
Se1 Sm1 3.276014 1_555
Se2 Sm6 3.027239 1_555
Se2 Sm10 3.083531 1_555
Se2 Sm2 3.276014 1_555
Se3 Sm7 3.027239 1_555
Se3 Sm11 3.083531 1_555
Se3 Sm3 3.276014 1_555
Se4 Sm2 3.019965 1_555
Se4 Sm2 3.019965 1_655
Se4 Sm4 3.088864 1_545
Se5 Sm3 3.019965 1_555
Se5 Sm3 3.019965 1_655
Se5 Sm5 3.088864 1_565
Se6 Sm0 3.019965 1_555
Se6 Sm0 3.019965 1_455
Se6 Sm6 3.088864 1_555
Se7 Sm1 3.019965 1_455
Se7 Sm1 3.019965 1_555
Se7 Sm7 3.088864 1_555
Se8 Sm11 2.997820 1_555
Se8 Sm11 2.997820 1_655
Se8 Sm2 3.121128 1_554
Se8 Sm2 3.121128 1_654
Se9 Sm10 2.997820 1_555
Se9 Sm10 2.997820 1_655
Se9 Sm3 3.121128 1_556
Se9 Sm3 3.121128 1_656
Se10 Sm9 2.997820 1_455
Se10 Sm9 2.997820 1_555
Se10 Sm0 3.121128 1_455
Se10 Sm0 3.121128 1_555
Se11 Sm8 2.997820 1_555
Se11 Sm8 2.997820 1_455
Se11 Sm1 3.121128 1_555
Se11 Sm1 3.121128 1_455
Se12 Sm2 2.955582 1_555
Se12 Sm2 2.955582 1_655
Se12 Sm6 3.071278 1_555
Se12 Sm6 3.071278 1_655
Se12 Sm8 3.071949 1_555
Se13 Sm3 2.955582 1_655
Se13 Sm3 2.955582 1_555
Se13 Sm7 3.071278 1_555
Se13 Sm7 3.071278 1_655
Se13 Sm9 3.071949 1_555
Se14 Sm0 2.955582 1_555
Se14 Sm0 2.955582 1_455
Se14 Sm4 3.071278 1_455
Se14 Sm4 3.071278 1_555
Se14 Sm10 3.071949 1_555
Se15 Sm1 2.955582 1_555
Se15 Sm1 2.955582 1_455
Se15 Sm5 3.071278 1_455
Se15 Sm5 3.071278 1_555
Se15 Sm11 3.071949 1_555
Se16 Sm8 2.917119 1_455
Se16 Sm8 2.917119 1_555
Se16 Sm4 3.024546 1_545
Se16 Sm4 3.024546 1_445
Se16 Sm2 3.220618 1_555
Se17 Sm9 2.917119 1_455
Se17 Sm9 2.917119 1_555
Se17 Sm5 3.024546 1_465
Se17 Sm5 3.024546 1_565
Se17 Sm3 3.220618 1_555
Se18 Sm10 2.917119 1_555
Se18 Sm10 2.917119 1_655
Se18 Sm6 3.024546 1_555
Se18 Sm6 3.024546 1_655
Se18 Sm0 3.220618 1_555
Se19 Sm11 2.917119 1_555
Se19 Sm11 2.917119 1_655
Se19 Sm7 3.024546 1_555
Se19 Sm7 3.024546 1_655
Se19 Sm1 3.220618 1_555
Se20 Sm11 2.908327 1_555
Se20 Sm5 2.963313 1_455
Se20 Sm5 2.963313 1_555
Se21 Sm10 2.908327 1_555
Se21 Sm4 2.963313 1_555
Se21 Sm4 2.963313 1_455
Se22 Sm9 2.908327 1_555
Se22 Sm7 2.963313 1_555
Se22 Sm7 2.963313 1_655
Se23 Sm8 2.908327 1_555
Se23 Sm6 2.963313 1_655
Se23 Sm6 2.963313 1_555
