# generated using pymatgen
data_Sr2Mg(Cu2O3)2
_symmetry_space_group_name_H-M   'P 1'
_cell_length_a   9.95840422
_cell_length_b   4.76306708
_cell_length_c   4.10596228
_cell_angle_alpha   90.00000000
_cell_angle_beta   90.00000000
_cell_angle_gamma   90.00000000
_symmetry_Int_Tables_number   1
_chemical_formula_structural   Sr2Mg(Cu2O3)2
_chemical_formula_sum   'Sr2 Mg1 Cu4 O6'
_cell_volume   194.75625010
_cell_formula_units_Z   1
loop_
 _symmetry_equiv_pos_site_id
 _symmetry_equiv_pos_as_xyz
  1  'x, y, z'
loop_
 _atom_site_type_symbol
 _atom_site_label
 _atom_site_symmetry_multiplicity
 _atom_site_fract_x
 _atom_site_fract_y
 _atom_site_fract_z
 _atom_site_occupancy
  Sr  Sr0  1  0.25000000  0.25000000  0.63136995  1
  Sr  Sr1  1  0.75000000  0.75000000  0.49593970  1
  Mg  Mg0  1  0.25000000  0.75000000  0.15895483  1
  Cu  Cu0  1  0.05859449  0.75000000  0.77373121  1
  Cu  Cu1  1  0.44140551  0.75000000  0.77373121  1
  Cu  Cu2  1  0.57406500  0.25000000  0.11886281  1
  Cu  Cu3  1  0.92593500  0.25000000  0.11886281  1
  O  O0  1  0.11209783  0.25000000  0.12758005  1
  O  O1  1  0.25000000  0.75000000  0.63866325  1
  O  O2  1  0.38790217  0.25000000  0.12758005  1
  O  O3  1  0.59151414  0.75000000  0.00958762  1
  O  O4  1  0.75000000  0.25000000  0.26554891  1
  O  O5  1  0.90848586  0.75000000  0.00958762  1
loop_
_geom_bond_atom_site_label_1
_geom_bond_atom_site_label_2
_geom_bond_distance
_geom_bond_site_symmetry_2
Mg0 O1 1.969665 1_555
Mg0 O1 2.136298 1_554
Cu0 O5 1.781119 1_456
Cu0 O1 1.985134 1_555
Cu1 O3 1.781119 1_556
Cu1 O1 1.985134 1_555
Cu2 O4 1.852665 1_555
Cu2 O2 1.854230 1_555
Cu2 O3 2.429652 1_555
Cu2 O3 2.429652 1_545
Cu3 O4 1.852665 1_555
Cu3 O0 1.854230 1_655
Cu3 O5 2.429652 1_545
Cu3 O5 2.429652 1_555
O0 Sr0 2.457029 1_554
O0 Sr0 2.482898 1_555
O1 Sr0 2.381722 1_565
O1 Sr0 2.381722 1_555
O2 Sr0 2.457029 1_554
O2 Sr0 2.482898 1_555
O3 Sr1 2.545330 1_555
O3 Sr1 2.634176 1_554
O4 Sr1 2.562532 1_545
O4 Sr1 2.562532 1_555
O5 Sr1 2.545330 1_555
O5 Sr1 2.634176 1_554
