# generated using pymatgen
data_P2Pb2O7
_symmetry_space_group_name_H-M   'P 1'
_cell_length_a   6.96330201
_cell_length_b   6.98639212
_cell_length_c   12.80163377
_cell_angle_alpha   96.86661207
_cell_angle_beta   89.31678242
_cell_angle_gamma   90.29580708
_symmetry_Int_Tables_number   1
_chemical_formula_structural   P2Pb2O7
_chemical_formula_sum   'P8 Pb8 O28'
_cell_volume   618.26304923
_cell_formula_units_Z   4
loop_
 _symmetry_equiv_pos_site_id
 _symmetry_equiv_pos_as_xyz
  1  'x, y, z'
loop_
 _atom_site_type_symbol
 _atom_site_label
 _atom_site_symmetry_multiplicity
 _atom_site_fract_x
 _atom_site_fract_y
 _atom_site_fract_z
 _atom_site_occupancy
  P  P0  1  0.42128742  0.70825005  0.89942845  1
  P  P1  1  0.57871258  0.29174995  0.10057155  1
  P  P2  1  0.16781501  0.69893564  0.08535171  1
  P  P3  1  0.83218499  0.30106436  0.91464829  1
  P  P4  1  0.81664856  0.69775377  0.59018879  1
  P  P5  1  0.18335144  0.30224623  0.40981121  1
  P  P6  1  0.76847432  0.89495184  0.40211406  1
  P  P7  1  0.23152568  0.10504816  0.59788594  1
  Pb  Pb0  1  0.35039356  0.62548745  0.63337249  1
  Pb  Pb1  1  0.64960644  0.37451255  0.36662751  1
  Pb  Pb2  1  0.90890123  0.81098233  0.85375136  1
  Pb  Pb3  1  0.09109877  0.18901767  0.14624864  1
  Pb  Pb4  1  0.32378249  0.21136707  0.85872205  1
  Pb  Pb5  1  0.67621751  0.78863293  0.14127795  1
  Pb  Pb6  1  0.75208374  0.20364544  0.65013791  1
  Pb  Pb7  1  0.24791626  0.79635456  0.34986209  1
  O  O0  1  0.47112810  0.54190974  0.81743502  1
  O  O1  1  0.52887190  0.45809026  0.18256498  1
  O  O2  1  0.59595955  0.79863896  0.95645408  1
  O  O3  1  0.40404045  0.20136104  0.04354592  1
  O  O4  1  0.29220594  0.85467629  0.85565337  1
  O  O5  1  0.70779406  0.14532371  0.14434663  1
  O  O6  1  0.29352392  0.60703283  0.98489957  1
  O  O7  1  0.70647608  0.39296717  0.01510043  1
  O  O8  1  0.30401894  0.83205255  0.15347502  1
  O  O9  1  0.69598106  0.16794745  0.84652498  1
  O  O10  1  0.08860580  0.53400857  0.13798255  1
  O  O11  1  0.91139420  0.46599143  0.86201745  1
  O  O12  1  0.00788892  0.81823623  0.04349454  1
  O  O13  1  0.99211108  0.18176377  0.95650546  1
  O  O14  1  0.68431718  0.52865331  0.55126234  1
  O  O15  1  0.31568282  0.47134669  0.44873766  1
  O  O16  1  0.08873337  0.07999664  0.68535611  1
  O  O17  1  0.91126663  0.92000336  0.31464389  1
  O  O18  1  0.39361098  0.24121729  0.63776467  1
  O  O19  1  0.60638902  0.75878271  0.36223533  1
  O  O20  1  0.30148206  0.91756085  0.53805834  1
  O  O21  1  0.69851794  0.08243915  0.46194166  1
  O  O22  1  0.10953482  0.21317179  0.51438571  1
  O  O23  1  0.89046518  0.78682821  0.48561429  1
  O  O24  1  0.00891478  0.36730046  0.35576964  1
  O  O25  1  0.99108522  0.63269954  0.64423036  1
  O  O26  1  0.29877696  0.14698543  0.34280938  1
  O  O27  1  0.70122304  0.85301457  0.65719062  1
loop_
_geom_bond_atom_site_label_1
_geom_bond_atom_site_label_2
_geom_bond_distance
_geom_bond_site_symmetry_2
O0 P0 1.508818 1_555
O0 Pb4 2.630472 1_555
O0 Pb0 2.642196 1_555
O1 P1 1.508818 1_555
O1 Pb5 2.630472 1_555
O1 Pb1 2.642196 1_555
O2 P0 1.521216 1_555
O2 Pb5 2.446810 1_556
O2 Pb2 2.537990 1_555
O3 P1 1.521216 1_555
O3 Pb4 2.446810 1_554
O3 Pb3 2.537990 1_555
O4 P0 1.525463 1_555
O4 Pb4 2.496197 1_565
O4 Pb2 2.684968 1_455
O5 P1 1.525463 1_555
O5 Pb5 2.496197 1_545
O5 Pb3 2.684968 1_655
O6 P2 1.616690 1_556
O6 P0 1.626053 1_555
O7 P3 1.616690 1_554
O7 P1 1.626053 1_555
O8 P2 1.530246 1_555
O8 Pb7 2.580870 1_555
O8 Pb5 2.611630 1_555
O9 P3 1.530246 1_555
O9 Pb6 2.580870 1_555
O9 Pb4 2.611630 1_555
O10 P2 1.502015 1_555
O10 Pb3 2.425330 1_555
O11 P3 1.502015 1_555
O11 Pb2 2.425330 1_555
O12 P2 1.533805 1_555
O12 Pb2 2.527442 1_454
O12 Pb5 2.632811 1_455
O13 P3 1.533805 1_555
O13 Pb3 2.527442 1_656
O13 Pb4 2.632811 1_655
O14 P4 1.533645 1_555
O14 Pb1 2.491413 1_555
O14 Pb0 2.599443 1_555
O14 Pb6 2.773655 1_555
O15 P5 1.533645 1_555
O15 Pb0 2.491413 1_555
O15 Pb1 2.599443 1_555
O15 Pb7 2.773655 1_555
O16 P7 1.513821 1_555
O16 Pb6 2.565931 1_455
O17 P6 1.513821 1_555
O17 Pb7 2.565931 1_655
O18 P7 1.525131 1_555
O18 Pb6 2.520102 1_555
O18 Pb0 2.710346 1_555
O19 P6 1.525131 1_555
O19 Pb7 2.520102 1_555
O19 Pb1 2.710346 1_555
O20 P7 1.515725 1_565
O20 Pb7 2.488146 1_555
O20 Pb0 2.526079 1_555
O21 P6 1.515725 1_545
O21 Pb6 2.488146 1_555
O21 Pb1 2.526079 1_555
O22 P5 1.619614 1_555
O22 P7 1.629783 1_555
O23 P4 1.619614 1_555
O23 P6 1.629783 1_555
O24 P5 1.503826 1_555
O24 Pb1 2.504608 1_455
O25 P4 1.503826 1_555
O25 Pb0 2.504608 1_655
O26 P5 1.525909 1_555
O26 Pb7 2.485458 1_545
O27 P4 1.525909 1_555
O27 Pb6 2.485458 1_565
