# generated using pymatgen
data_BaCO3
_symmetry_space_group_name_H-M   'P 1'
_cell_length_a   5.31525123
_cell_length_b   4.57412185
_cell_length_c   6.91392244
_cell_angle_alpha   70.53848339
_cell_angle_beta   90.00000000
_cell_angle_gamma   90.00000000
_symmetry_Int_Tables_number   1
_chemical_formula_structural   BaCO3
_chemical_formula_sum   'Ba2 C2 O6'
_cell_volume   158.49142394
_cell_formula_units_Z   2
loop_
 _symmetry_equiv_pos_site_id
 _symmetry_equiv_pos_as_xyz
  1  'x, y, z'
loop_
 _atom_site_type_symbol
 _atom_site_label
 _atom_site_symmetry_multiplicity
 _atom_site_fract_x
 _atom_site_fract_y
 _atom_site_fract_z
 _atom_site_occupancy
  Ba  Ba0  1  0.73079784  0.66870155  0.22960563  1
  Ba  Ba1  1  0.23079784  0.33129845  0.77039437  1
  C  C0  1  0.23131128  0.25979060  0.24240675  1
  C  C1  1  0.73131128  0.74020940  0.75759325  1
  O  O0  1  0.44182631  0.18524684  0.17760216  1
  O  O1  1  0.02051673  0.18328910  0.17932640  1
  O  O2  1  0.23154885  0.42750696  0.36113053  1
  O  O3  1  0.73154885  0.57249304  0.63886947  1
  O  O4  1  0.94182631  0.81475316  0.82239784  1
  O  O5  1  0.52051673  0.81671090  0.82067360  1
loop_
_geom_bond_atom_site_label_1
_geom_bond_atom_site_label_2
_geom_bond_distance
_geom_bond_site_symmetry_2
Ba0 O3 2.714896 1_555
Ba0 O1 2.736294 1_665
Ba0 O0 2.739509 1_565
Ba0 O0 2.812197 1_555
Ba0 O1 2.817168 1_655
Ba0 O4 2.894415 1_554
Ba0 O2 2.901267 1_555
Ba0 O5 2.902736 1_554
Ba0 O2 2.908571 1_655
Ba1 O2 2.714896 1_555
Ba1 O5 2.736294 1_545
Ba1 O4 2.739509 1_445
Ba1 O4 2.812197 1_455
Ba1 O5 2.817168 1_555
Ba1 O0 2.894415 1_556
Ba1 O3 2.901267 1_455
Ba1 O1 2.902736 1_556
Ba1 O3 2.908571 1_555
C0 O1 1.292172 1_555
C0 O0 1.292611 1_555
C0 O2 1.296892 1_555
C1 O5 1.292172 1_555
C1 O4 1.292611 1_555
C1 O3 1.296892 1_555
