# generated using pymatgen
data_Fe2TeO6
_symmetry_space_group_name_H-M   'P 1'
_cell_length_a   4.41476933
_cell_length_b   4.41476881
_cell_length_c   8.94739405
_cell_angle_alpha   90.00000323
_cell_angle_beta   90.00004295
_cell_angle_gamma   89.99899224
_symmetry_Int_Tables_number   1
_chemical_formula_structural   Fe2TeO6
_chemical_formula_sum   'Fe4 Te2 O12'
_cell_volume   174.38637371
_cell_formula_units_Z   2
loop_
 _symmetry_equiv_pos_site_id
 _symmetry_equiv_pos_as_xyz
  1  'x, y, z'
loop_
 _atom_site_type_symbol
 _atom_site_label
 _atom_site_symmetry_multiplicity
 _atom_site_fract_x
 _atom_site_fract_y
 _atom_site_fract_z
 _atom_site_occupancy
  Fe  Fe0  1  -0.00000033  0.99999209  0.33273476  1
  Fe  Fe1  1  0.49999886  0.50000717  0.83269318  1
  Fe  Fe2  1  -0.00000082  0.99999266  0.66727637  1
  Fe  Fe3  1  0.49999917  0.50000647  0.16729589  1
  Te  Te0  1  -0.00000195  0.00000776  -0.00002585  1
  Te  Te1  1  0.49999852  0.49999069  0.50002509  1
  O  O0  1  0.69678533  0.69678791  0.66836065  1
  O  O1  1  0.30321408  0.30321498  0.66836171  1
  O  O2  1  0.69678847  0.69679060  0.33163534  1
  O  O3  1  0.19678571  0.80321112  0.16840224  1
  O  O4  1  0.80321432  0.19678442  0.16840315  1
  O  O5  1  0.80321609  0.19678244  0.83160155  1
  O  O6  1  0.30933267  0.30933585  -0.00000161  1
  O  O7  1  0.19067609  0.80932008  0.50000039  1
  O  O8  1  0.80932337  0.19067370  0.50000012  1
  O  O9  1  0.19678264  0.80321450  0.83160246  1
  O  O10  1  0.30321158  0.30321150  0.33163414  1
  O  O11  1  0.69066521  0.69066907  -0.00000159  1
loop_
_geom_bond_atom_site_label_1
_geom_bond_atom_site_label_2
_geom_bond_distance
_geom_bond_site_symmetry_2
Fe0 O2 1.893089 1_455
Fe0 O10 1.893147 1_565
Fe0 O7 1.912317 1_555
Fe0 O8 1.912334 1_465
Fe0 O3 1.916080 1_555
Fe0 O4 1.916095 1_465
Fe1 O9 1.893089 1_555
Fe1 O5 1.893146 1_555
Fe1 O11 1.912568 1_556
Fe1 O6 1.912587 1_556
Fe1 O0 1.916095 1_555
Fe1 O1 1.916106 1_555
Fe2 O0 1.893106 1_455
Fe2 O1 1.893165 1_565
Fe2 O7 1.912392 1_555
Fe2 O8 1.912407 1_465
Fe2 O9 1.916025 1_555
Fe2 O5 1.916042 1_465
Fe3 O3 1.893073 1_555
Fe3 O4 1.893132 1_555
Fe3 O11 1.912515 1_555
Fe3 O6 1.912531 1_555
Fe3 O2 1.916154 1_555
Fe3 O10 1.916165 1_555
O0 Te1 1.943747 1_555
O1 Te1 1.943708 1_555
O2 Te1 1.944135 1_555
O3 Te0 1.944376 1_565
O4 Te0 1.944336 1_655
O5 Te0 1.943936 1_656
O6 Te0 1.931305 1_555
O7 Te1 1.931237 1_555
O8 Te1 1.931205 1_555
O9 Te0 1.943973 1_566
O10 Te1 1.944096 1_555
O11 Te0 1.931332 1_665
