# generated using pymatgen
data_Tb(HO)3
_symmetry_space_group_name_H-M   'P 1'
_cell_length_a   6.26907942
_cell_length_b   6.26908092
_cell_length_c   3.54878720
_cell_angle_alpha   90.00000007
_cell_angle_beta   89.99999942
_cell_angle_gamma   120.00032236
_symmetry_Int_Tables_number   1
_chemical_formula_structural   Tb(HO)3
_chemical_formula_sum   'Tb2 H6 O6'
_cell_volume   120.78606303
_cell_formula_units_Z   2
loop_
 _symmetry_equiv_pos_site_id
 _symmetry_equiv_pos_as_xyz
  1  'x, y, z'
loop_
 _atom_site_type_symbol
 _atom_site_label
 _atom_site_symmetry_multiplicity
 _atom_site_fract_x
 _atom_site_fract_y
 _atom_site_fract_z
 _atom_site_occupancy
  Tb  Tb0  1  0.66666894  0.33333265  0.74999999  1
  Tb  Tb1  1  0.33333082  0.66666659  0.24999999  1
  H  H0  1  0.72404884  0.86333331  0.75000001  1
  H  H1  1  0.86071122  0.72406565  0.25000001  1
  H  H2  1  0.13928472  0.27594670  0.75000001  1
  H  H3  1  0.27593427  0.13664401  0.25000001  1
  H  H4  1  0.86334919  0.13928928  0.25000001  1
  H  H5  1  0.13666556  0.86071319  0.74999999  1
  O  O0  1  0.91647861  0.60570064  0.25000001  1
  O  O1  1  0.60572256  0.68925815  0.75000000  1
  O  O2  1  0.08353206  0.39428289  0.75000004  1
  O  O3  1  0.39429996  0.31078000  0.24999998  1
  O  O4  1  0.68923250  0.08352548  0.24999997  1
  O  O5  1  0.31073975  0.91646144  0.74999998  1
loop_
_geom_bond_atom_site_label_1
_geom_bond_atom_site_label_2
_geom_bond_distance
_geom_bond_site_symmetry_2
H0 O1 0.965223 1_555
H1 O0 0.965545 1_555
H2 O2 0.965305 1_555
H3 O3 0.965558 1_555
H4 O4 0.965453 1_555
H5 O5 0.965220 1_555
O0 Tb0 2.417130 1_555
O0 Tb0 2.417130 1_554
O0 Tb1 2.444688 1_655
O1 Tb1 2.417174 1_556
O1 Tb1 2.417174 1_555
O1 Tb0 2.444861 1_555
O2 Tb1 2.417147 1_556
O2 Tb1 2.417148 1_555
O2 Tb0 2.444793 1_455
O3 Tb0 2.417149 1_554
O3 Tb0 2.417149 1_555
O3 Tb1 2.444707 1_555
O4 Tb0 2.417138 1_554
O4 Tb0 2.417138 1_555
O4 Tb1 2.444741 1_545
O5 Tb1 2.417152 1_555
O5 Tb1 2.417152 1_556
O5 Tb0 2.444854 1_565
