# generated using pymatgen
data_Na6Sc4Si3(SO8)3
_symmetry_space_group_name_H-M   'P 1'
_cell_length_a   9.15561734
_cell_length_b   9.13289448
_cell_length_c   22.64576028
_cell_angle_alpha   90.31937801
_cell_angle_beta   89.69289963
_cell_angle_gamma   120.06942413
_symmetry_Int_Tables_number   1
_chemical_formula_structural   Na6Sc4Si3(SO8)3
_chemical_formula_sum   'Na18 Sc12 Si9 S9 O72'
_cell_volume   1638.70474340
_cell_formula_units_Z   3
loop_
 _symmetry_equiv_pos_site_id
 _symmetry_equiv_pos_as_xyz
  1  'x, y, z'
loop_
 _atom_site_type_symbol
 _atom_site_label
 _atom_site_symmetry_multiplicity
 _atom_site_fract_x
 _atom_site_fract_y
 _atom_site_fract_z
 _atom_site_occupancy
  Na  Na0  1  0.63522816  0.00902109  0.25841506  1
  Na  Na1  1  0.35081601  0.35042337  0.25437952  1
  Na  Na2  1  0.64826679  0.64933829  0.73787503  1
  Na  Na3  1  0.98644061  0.36397714  0.74640456  1
  Na  Na4  1  0.01792832  0.68491968  0.59145373  1
  Na  Na5  1  0.67827303  0.97062928  0.58228183  1
  Na  Na6  1  0.31333277  0.97060900  0.09557524  1
  Na  Na7  1  0.02177401  0.32355801  0.08246110  1
  Na  Na8  1  0.97105327  0.65623472  0.90004078  1
  Na  Na9  1  0.71083405  0.04189037  0.90931009  1
  Na  Na10  1  0.95461851  0.28896732  0.42161348  1
  Na  Na11  1  0.34430103  0.03036753  0.41275668  1
  Na  Na12  1  0.97445901  0.99424123  0.50535149  1
  Na  Na13  1  0.99071301  0.01332940  0.99861714  1
  Na  Na14  1  0.66230615  0.32303491  0.82284159  1
  Na  Na15  1  0.67654529  0.33322334  0.33459175  1
  Na  Na16  1  0.32807327  0.67382317  0.17291312  1
  Na  Na17  1  0.33236009  0.66548488  0.66439254  1
  Sc  Sc0  1  0.99206394  0.00393036  0.34963705  1
  Sc  Sc1  1  0.99681524  0.00926251  0.84676325  1
  Sc  Sc2  1  0.98650479  0.99205405  0.64842076  1
  Sc  Sc3  1  0.99799432  0.00556705  0.15172994  1
  Sc  Sc4  1  0.68065368  0.34308307  0.68386088  1
  Sc  Sc5  1  0.66713703  0.31683532  0.18831594  1
  Sc  Sc6  1  0.67777519  0.32559043  0.98172410  1
  Sc  Sc7  1  0.67635341  0.33496934  0.48645886  1
  Sc  Sc8  1  0.33675019  0.66042327  0.01740321  1
  Sc  Sc9  1  0.35173674  0.66482758  0.52225370  1
  Sc  Sc10  1  0.32964529  0.68119747  0.31313980  1
  Sc  Sc11  1  0.31862713  0.66682246  0.80984022  1
  Si  Si0  1  0.29092934  0.99939039  0.24869905  1
  Si  Si1  1  0.00537477  0.30287079  0.24927927  1
  Si  Si2  1  -0.00120453  0.70754900  0.75079614  1
  Si  Si3  1  0.69682500  0.99906747  0.75072736  1
  Si  Si4  1  0.97098515  0.33548849  0.58248593  1
  Si  Si5  1  0.66669835  0.62615669  0.58590526  1
  Si  Si6  1  0.66529269  0.02757353  0.08283685  1
  Si  Si7  1  0.04094172  0.36819894  0.91893768  1
  Si  Si8  1  0.63132771  0.96507745  0.41649596  1
  S  S0  1  0.70650034  0.70500517  0.24976767  1
  S  S1  1  0.29397238  0.29190304  0.75050940  1
  S  S2  1  0.37214905  0.04151588  0.58188028  1
  S  S3  1  0.95987311  0.62910059  0.08200268  1
  S  S4  1  0.37662719  0.33514289  0.08369525  1
  S  S5  1  0.62801478  0.66325879  0.91659610  1
  S  S6  1  0.33250407  0.96055911  0.91949534  1
  S  S7  1  0.33441140  0.37220989  0.41427585  1
  S  S8  1  0.03894045  0.66749437  0.41735488  1
  O  O0  1  0.19847538  0.02280260  0.30707378  1
  O  O1  1  0.80695540  0.78127940  0.30314884  1
  O  O2  1  0.96654821  0.17599387  0.30579892  1
  O  O3  1  0.21288769  0.19360063  0.80494998  1
  O  O4  1  0.98379940  0.79984491  0.81197326  1
  O  O5  1  0.81722349  0.03318881  0.81033377  1
  O  O6  1  0.78906275  0.96936628  0.69353862  1
  O  O7  1  0.18807593  0.21224380  0.69840412  1
  O  O8  1  0.02264369  0.81989928  0.69270225  1
  O  O9  1  0.78774249  0.81332119  0.19736970  1
  O  O10  1  0.03062751  0.21339309  0.18927890  1
  O  O11  1  0.18424007  0.97851710  0.18795757  1
  O  O12  1  0.87933419  0.36593691  0.64056279  1
  O  O13  1  0.48283047  0.12822608  0.63244867  1
  O  O14  1  0.64209941  0.52079681  0.64645688  1
  O  O15  1  0.87018546  0.52258846  0.13303900  1
  O  O16  1  0.63500885  0.12197452  0.14004020  1
  O  O17  1  0.46992509  0.35483261  0.13874329  1
  O  O18  1  0.46889313  0.32321725  0.03197496  1
  O  O19  1  0.86505316  0.55112305  0.02663534  1
  O  O20  1  0.69272738  0.15059998  0.02502972  1
  O  O21  1  0.44846920  0.13408009  0.52561461  1
  O  O22  1  0.68557041  0.52316347  0.52968714  1
  O  O23  1  0.84972869  0.29952598  0.52334911  1
  O  O24  1  0.54198165  0.68827582  0.96882284  1
  O  O25  1  0.14468965  0.46007415  0.98022952  1
  O  O26  1  0.31354916  0.85861618  0.97364079  1
  O  O27  1  0.53249859  0.85575434  0.47486588  1
  O  O28  1  0.30940173  0.45734263  0.46568454  1
  O  O29  1  0.13933837  0.68861141  0.47085557  1
  O  O30  1  0.12238836  0.64088955  0.36467709  1
  O  O31  1  0.51586640  0.87220359  0.35710150  1
  O  O32  1  0.35076249  0.46678145  0.35923046  1
  O  O33  1  0.13294154  0.49265707  0.86300790  1
  O  O34  1  0.36382293  0.88072831  0.86761692  1
  O  O35  1  0.53282023  0.64492493  0.86256683  1
  O  O36  1  0.02740689  0.82340021  0.41070781  1
  O  O37  1  0.82377422  0.99174497  0.41343161  1
  O  O38  1  0.17795822  0.19865833  0.41209098  1
  O  O39  1  0.00930475  0.17461075  0.91615730  1
  O  O40  1  0.17716368  0.97059407  0.91487460  1
  O  O41  1  0.80080468  0.81846833  0.91525626  1
  O  O42  1  0.98533079  0.16563218  0.58839460  1
  O  O43  1  0.20222507  0.02050492  0.58734235  1
  O  O44  1  0.84259441  0.81265639  0.58575034  1
  O  O45  1  0.98854385  0.80358703  0.08573752  1
  O  O46  1  0.84033950  0.01971302  0.08656814  1
  O  O47  1  0.20693841  0.17501747  0.08406994  1
  O  O48  1  0.67987383  0.16756690  0.74528690  1
  O  O49  1  0.46425734  0.31347941  0.74653930  1
  O  O50  1  0.82345297  0.52031509  0.74990997  1
  O  O51  1  0.68119157  0.53241682  0.24207817  1
  O  O52  1  0.83525982  0.31914149  0.24403108  1
  O  O53  1  0.47759370  0.17805781  0.24574524  1
  O  O54  1  0.64971038  0.51346228  0.92408346  1
  O  O55  1  0.84914729  0.35379026  0.92121566  1
  O  O56  1  0.48451058  0.13324126  0.92455603  1
  O  O57  1  0.64635427  0.15531444  0.41706367  1
  O  O58  1  0.48223741  0.34773315  0.41936863  1
  O  O59  1  0.86841876  0.51344223  0.41972999  1
  O  O60  1  0.34622025  0.48134598  0.07971981  1
  O  O61  1  0.13104689  0.64130541  0.08006466  1
  O  O62  1  0.48817101  0.84488837  0.07717360  1
  O  O63  1  0.35397143  0.86824134  0.57891818  1
  O  O64  1  0.50919090  0.66448566  0.58117739  1
  O  O65  1  0.14864252  0.51482362  0.57505428  1
  O  O66  1  0.32996377  0.84222517  0.25197982  1
  O  O67  1  0.53565816  0.68897756  0.25462464  1
  O  O68  1  0.18228635  0.48178092  0.25554678  1
  O  O69  1  0.31099180  0.46451808  0.75588482  1
  O  O70  1  0.15693147  0.66873400  0.75370913  1
  O  O71  1  0.51952118  0.81985136  0.75918268  1
loop_
_geom_bond_atom_site_label_1
_geom_bond_atom_site_label_2
_geom_bond_distance
_geom_bond_site_symmetry_2
Na0 O66 2.426639 1_545
Na0 O52 2.507586 1_555
Na0 O31 2.527181 1_545
Na0 O67 2.590319 1_545
Na0 O53 2.605894 1_555
Na0 O2 2.838970 1_555
Na0 O16 2.878062 1_555
Na1 O68 2.382211 1_555
Na1 O53 2.385120 1_555
Na1 O32 2.596073 1_555
Na1 O51 2.635836 1_555
Na1 O67 2.679671 1_555
Na1 O17 2.823976 1_555
Na1 O0 2.856930 1_555
Na1 O10 2.946654 1_555
Na2 O14 2.361135 1_555
Na2 O71 2.423303 1_555
Na2 O50 2.436730 1_555
Na2 O49 2.666491 1_555
Na2 O69 2.705906 1_555
Na2 O6 2.730513 1_555
Na3 O70 2.419641 1_655
Na3 O48 2.459953 1_555
Na3 O50 2.530689 1_555
Na3 O12 2.598111 1_555
Na3 O69 2.643724 1_655
Na3 O33 2.928583 1_655
Na3 O5 2.992889 1_555
Na3 O7 3.005880 1_655
Na4 O44 2.415612 1_455
Na4 O65 2.415635 1_555
Na4 O8 2.587455 1_555
Na4 O43 2.658639 1_565
Na4 O63 2.680237 1_555
Na4 O12 2.765948 1_455
Na4 O29 2.937047 1_555
Na4 O22 2.986007 1_455
Na5 O64 2.424215 1_555
Na5 O42 2.465460 1_565
Na5 O44 2.555143 1_555
Na5 O63 2.629749 1_555
Na5 O27 2.720718 1_555
Na5 O6 2.723295 1_555
Na5 O23 2.926612 1_565
Na5 O13 3.017467 1_565
Na6 O11 2.415835 1_555
Na6 O62 2.425645 1_555
Na6 O47 2.516410 1_565
Na6 O45 2.583957 1_455
Na6 O61 2.630287 1_555
Na6 O16 2.745031 1_565
Na6 O26 2.939629 1_554
Na7 O46 2.418779 1_455
Na7 O61 2.552840 1_555
Na7 O60 2.571726 1_555
Na7 O25 2.603630 1_554
Na7 O10 2.642203 1_555
Na7 O47 2.649832 1_555
Na7 O20 2.917691 1_455
Na7 O15 3.005008 1_455
Na8 O4 2.363174 1_555
Na8 O55 2.454587 1_555
Na8 O40 2.546263 1_655
Na8 O54 2.607489 1_555
Na8 O41 2.654543 1_555
Na8 O33 2.706231 1_655
Na9 O39 2.375709 1_655
Na9 O5 2.455838 1_555
Na9 O55 2.484117 1_555
Na9 O41 2.559078 1_545
Na9 O56 2.613523 1_555
Na9 O20 2.830513 1_556
Na9 O34 2.912457 1_545
Na10 O37 2.361364 1_545
Na10 O57 2.452682 1_555
Na10 O23 2.511176 1_555
Na10 O59 2.539745 1_555
Na10 O38 2.567369 1_655
Na10 O2 2.834569 1_555
Na11 O57 2.408079 1_555
Na11 O58 2.519421 1_555
Na11 O36 2.549063 1_545
Na11 O38 2.651071 1_555
Na11 O21 2.726266 1_555
Na11 O0 2.730392 1_555
Na11 O31 2.893901 1_545
Na12 O44 2.350849 1_555
Na12 O42 2.410327 1_565
Na12 O37 2.497124 1_555
Na12 O43 2.718266 1_665
Na12 O38 2.816597 1_665
Na12 O36 2.823586 1_655
Na13 O39 2.337020 1_655
Na13 O46 2.432192 1_556
Na13 O41 2.578936 1_545
Na13 O47 2.631390 1_656
Na13 O40 2.699540 1_645
Na13 O45 2.750581 1_546
Na14 O48 2.307482 1_555
Na14 O50 2.343931 1_555
Na14 O49 2.480842 1_555
Na14 O55 2.742348 1_555
Na14 O56 2.852510 1_555
Na14 O54 2.906565 1_555
Na15 O57 2.404737 1_555
Na15 O52 2.546833 1_555
Na15 O59 2.572124 1_555
Na15 O53 2.606735 1_555
Na15 O58 2.658007 1_555
Na15 O51 2.768488 1_555
Na16 O66 2.348334 1_555
Na16 O68 2.454262 1_555
Na16 O67 2.612779 1_555
Na16 O62 2.645540 1_555
Na16 O61 2.694462 1_555
Na16 O60 2.796286 1_555
Na17 O64 2.480799 1_555
Na17 O65 2.549861 1_555
Na17 O70 2.585337 1_555
Na17 O63 2.623642 1_555
Na17 O71 2.667693 1_555
Na17 O69 2.716254 1_555
O0 Si0 1.635845 1_545
O0 Sc0 2.046001 1_455
O1 S0 1.467308 1_555
O1 Sc0 2.158074 1_565
O2 Si1 1.645046 1_655
O2 Sc0 1.974157 1_555
O3 S1 1.487177 1_555
O3 Sc1 2.074775 1_455
O4 Si2 1.658203 1_655
O4 Sc1 2.012140 1_565
O5 Si3 1.673709 1_545
O5 Sc1 1.951556 1_555
O6 Si3 1.636430 1_555
O6 Sc2 1.990443 1_555
O7 S1 1.468833 1_555
O7 Sc2 2.238100 1_445
O8 Si2 1.618250 1_555
O8 Sc2 2.032129 1_455
O9 S0 1.485304 1_555
O9 Sc3 2.113879 1_565
O10 Si1 1.655614 1_555
O10 Sc3 1.957389 1_455
O11 Si0 1.645439 1_555
O11 Sc3 2.020193 1_465
O12 Si4 1.652004 1_555
O12 Sc4 1.979037 1_555
O13 S2 1.470906 1_555
O13 Sc4 2.218573 1_555
O14 Si5 1.628236 1_555
O14 Sc4 2.017174 1_555
O15 S3 1.469090 1_555
O15 Sc5 2.248261 1_555
O16 Si6 1.649706 1_555
O16 Sc5 1.976361 1_555
O17 S4 1.473433 1_555
O17 Sc5 2.301051 1_555
O18 S4 1.475620 1_555
O18 Sc6 2.210949 1_554
O19 S3 1.488321 1_555
O19 Sc6 2.161757 1_554
O20 Si6 1.664123 1_555
O20 Sc6 1.942367 1_554
O21 S2 1.495650 1_555
O21 Sc7 2.160521 1_555
O22 Si5 1.637858 1_555
O22 Sc7 1.938130 1_555
O23 Si4 1.667172 1_555
O23 Sc7 1.963295 1_555
O24 S5 1.496266 1_555
O24 Sc8 2.075503 1_556
O25 Si7 1.653882 1_555
O25 Sc8 1.980714 1_556
O26 S6 1.499651 1_555
O26 Sc8 2.170529 1_556
O27 Si8 1.630773 1_555
O27 Sc9 2.010243 1_555
O28 S7 1.475718 1_555
O28 Sc9 2.150431 1_555
O29 S8 1.477059 1_555
O29 Sc9 2.373595 1_555
O30 S8 1.496285 1_555
O30 Sc10 2.092710 1_555
O31 Si8 1.658329 1_555
O31 Sc10 1.989844 1_555
O32 S7 1.484154 1_555
O32 Sc10 2.316433 1_555
O33 Si7 1.628152 1_555
O33 Sc11 2.039501 1_555
O34 S6 1.479981 1_555
O34 Sc11 2.206090 1_555
O35 S5 1.465470 1_555
O35 Sc11 2.394219 1_555
O36 S8 1.488103 1_555
O36 Sc0 2.302315 1_465
O37 Si8 1.654541 1_555
O37 Sc0 2.068726 1_565
O38 S7 1.513702 1_555
O38 Sc0 2.241517 1_455
O39 Si7 1.643023 1_555
O39 Sc1 2.136699 1_455
O40 S6 1.474594 1_555
O40 Sc1 2.418266 1_465
O41 S5 1.505237 1_555
O41 Sc1 2.351462 1_565
O42 Si4 1.627361 1_555
O42 Sc2 2.098155 1_545
O43 S2 1.473617 1_555
O43 Sc2 2.311266 1_445
O44 Si5 1.657079 1_555
O44 Sc2 2.065302 1_555
O45 S3 1.481574 1_555
O45 Sc3 2.335455 1_565
O46 Si6 1.642447 1_555
O46 Sc3 2.118847 1_555
O47 S4 1.508518 1_555
O47 Sc3 2.330354 1_455
O48 Si3 1.627603 1_545
O48 Sc4 2.125521 1_555
O49 S1 1.472557 1_555
O49 Sc4 2.334622 1_555
O50 Si2 1.658527 1_655
O50 Sc4 2.107094 1_555
O51 S0 1.483201 1_555
O51 Sc5 2.257522 1_555
O52 Si1 1.641995 1_655
O52 Sc5 1.987395 1_555
O53 Si0 1.671315 1_545
O53 Sc5 2.024702 1_555
O54 S5 1.488323 1_555
O54 Sc6 2.276897 1_555
O55 Si7 1.694416 1_655
O55 Sc6 1.995420 1_555
O56 S6 1.495808 1_545
O56 Sc6 2.185700 1_555
O57 Si8 1.672705 1_545
O57 Sc7 2.182081 1_555
O58 S7 1.483312 1_555
O58 Sc7 2.391452 1_555
O59 S8 1.489495 1_655
O59 Sc7 2.271398 1_555
O60 S4 1.497544 1_555
O60 Sc8 2.200683 1_555
O61 S3 1.514838 1_455
O61 Sc8 2.288155 1_555
O62 Si6 1.648773 1_565
O62 Sc8 2.060699 1_555
O63 S2 1.507153 1_565
O63 Sc9 2.243640 1_555
O64 Si5 1.649705 1_555
O64 Sc9 1.970766 1_555
O65 Si4 1.639227 1_455
O65 Sc9 2.050803 1_555
O66 Si0 1.645925 1_555
O66 Sc10 2.024710 1_555
O67 S0 1.499678 1_555
O67 Sc10 2.271256 1_555
O68 Si1 1.631339 1_555
O68 Sc10 2.090046 1_555
O69 S1 1.508731 1_555
O69 Sc11 2.181253 1_555
O70 Si2 1.655852 1_555
O70 Sc11 1.963174 1_555
O71 Si3 1.639643 1_555
O71 Sc11 2.017821 1_555
