# generated using pymatgen
data_Ba2Pb
_symmetry_space_group_name_H-M   'P 1'
_cell_length_a   5.75521062
_cell_length_b   8.90100294
_cell_length_c   10.74270703
_cell_angle_alpha   90.00000000
_cell_angle_beta   90.00000000
_cell_angle_gamma   90.00000000
_symmetry_Int_Tables_number   1
_chemical_formula_structural   Ba2Pb
_chemical_formula_sum   'Ba8 Pb4'
_cell_volume   550.31822843
_cell_formula_units_Z   4
loop_
 _symmetry_equiv_pos_site_id
 _symmetry_equiv_pos_as_xyz
  1  'x, y, z'
loop_
 _atom_site_type_symbol
 _atom_site_label
 _atom_site_symmetry_multiplicity
 _atom_site_fract_x
 _atom_site_fract_y
 _atom_site_fract_z
 _atom_site_occupancy
  Ba  Ba0  1  0.25000000  0.51943755  0.82132223  1
  Ba  Ba1  1  0.75000000  0.48056245  0.17867777  1
  Ba  Ba2  1  0.25000000  0.01943755  0.67867777  1
  Ba  Ba3  1  0.75000000  0.98056245  0.32132223  1
  Ba  Ba4  1  0.75000000  0.84573511  0.92050024  1
  Ba  Ba5  1  0.25000000  0.15426489  0.07949976  1
  Ba  Ba6  1  0.75000000  0.34573511  0.57949976  1
  Ba  Ba7  1  0.25000000  0.65426489  0.42050024  1
  Pb  Pb0  1  0.25000000  0.74868871  0.10132313  1
  Pb  Pb1  1  0.75000000  0.25131129  0.89867687  1
  Pb  Pb2  1  0.25000000  0.24868871  0.39867687  1
  Pb  Pb3  1  0.75000000  0.75131129  0.60132313  1
loop_
_geom_bond_atom_site_label_1
_geom_bond_atom_site_label_2
_geom_bond_distance
_geom_bond_site_symmetry_2
Ba0 Pb0 3.634801 1_556
Ba0 Pb1 3.829751 1_555
Ba0 Pb1 3.829751 1_455
Ba0 Pb3 4.257455 1_555
Ba0 Pb3 4.257455 1_455
Ba1 Pb1 3.634801 1_554
Ba1 Pb0 3.829751 1_555
Ba1 Pb0 3.829751 1_655
Ba1 Pb2 4.257455 1_655
Ba1 Pb2 4.257455 1_555
Ba2 Pb2 3.634801 1_555
Ba2 Pb3 3.829751 1_545
Ba2 Pb3 3.829751 1_445
Ba2 Pb1 4.257455 1_555
Ba2 Pb1 4.257455 1_455
Ba3 Pb3 3.634801 1_555
Ba3 Pb2 3.829751 1_565
Ba3 Pb2 3.829751 1_665
Ba3 Pb0 4.257455 1_655
Ba3 Pb0 4.257455 1_555
Ba4 Pb3 3.530330 1_555
Ba4 Pb0 3.577736 1_556
Ba4 Pb0 3.577736 1_656
Ba4 Pb1 3.617639 1_565
Ba5 Pb2 3.530330 1_555
Ba5 Pb1 3.577736 1_554
Ba5 Pb1 3.577736 1_454
Ba5 Pb0 3.617639 1_545
Ba6 Pb1 3.530330 1_555
Ba6 Pb2 3.577736 1_655
Ba6 Pb2 3.577736 1_555
Ba6 Pb3 3.617639 1_555
Ba7 Pb0 3.530330 1_555
Ba7 Pb3 3.577736 1_555
Ba7 Pb3 3.577736 1_455
Ba7 Pb2 3.617639 1_555
