# generated using pymatgen
data_Cs4MgTi2(AgS2)4
_symmetry_space_group_name_H-M   'P 1'
_cell_length_a   6.42601953
_cell_length_b   6.25768095
_cell_length_c   14.04206000
_cell_angle_alpha   90.00000000
_cell_angle_beta   90.00000000
_cell_angle_gamma   86.17748337
_symmetry_Int_Tables_number   1
_chemical_formula_structural   Cs4MgTi2(AgS2)4
_chemical_formula_sum   'Cs4 Mg1 Ti2 Ag4 S8'
_cell_volume   563.40286514
_cell_formula_units_Z   1
loop_
 _symmetry_equiv_pos_site_id
 _symmetry_equiv_pos_as_xyz
  1  'x, y, z'
loop_
 _atom_site_type_symbol
 _atom_site_label
 _atom_site_symmetry_multiplicity
 _atom_site_fract_x
 _atom_site_fract_y
 _atom_site_fract_z
 _atom_site_occupancy
  Cs  Cs0  1  0.76143800  0.76365300  0.00000000  1
  Cs  Cs1  1  0.25864100  0.85163600  0.50000000  1
  Cs  Cs2  1  0.67731500  0.18920700  0.50000000  1
  Cs  Cs3  1  0.24081900  0.23827500  0.00000000  1
  Mg  Mg0  1  0.11846000  0.39067100  0.50000000  1
  Ti  Ti0  1  0.50510800  0.50051800  0.75548300  1
  Ti  Ti1  1  0.50510800  0.50051800  0.24451700  1
  Ag  Ag0  1  0.99479000  0.50723900  0.75275000  1
  Ag  Ag1  1  0.51426700  0.99346700  0.75814700  1
  Ag  Ag2  1  0.99479000  0.50723900  0.24725000  1
  Ag  Ag3  1  0.51426700  0.99346700  0.24185300  1
  S  S0  1  0.69948400  0.69613500  0.65149900  1
  S  S1  1  0.29550300  0.29035800  0.66179600  1
  S  S2  1  0.69948400  0.69613500  0.34850100  1
  S  S3  1  0.72376800  0.28412500  0.15085000  1
  S  S4  1  0.28561700  0.71976900  0.84728700  1
  S  S5  1  0.29550300  0.29035800  0.33820400  1
  S  S6  1  0.28561700  0.71976900  0.15271300  1
  S  S7  1  0.72376800  0.28412500  0.84915000  1
loop_
_geom_bond_atom_site_label_1
_geom_bond_atom_site_label_2
_geom_bond_distance
_geom_bond_site_symmetry_2
Cs0 S7 3.694159 1_554
Cs0 S3 3.694159 1_555
Cs0 S6 3.759650 1_555
Cs0 S4 3.759650 1_554
Cs0 S7 3.879194 1_564
Cs0 S3 3.879194 1_565
Cs0 S4 3.987050 1_654
Cs0 S6 3.987050 1_655
Cs1 Mg0 3.078743 1_555
Cs1 Mg0 3.432810 1_565
Cs1 S1 3.583531 1_565
Cs1 S5 3.583531 1_565
Cs1 S0 3.623550 1_555
Cs1 S2 3.623550 1_555
Cs2 Mg0 3.178363 1_655
Cs2 S1 3.372707 1_555
Cs2 S5 3.372707 1_555
Cs2 S0 3.742669 1_545
Cs2 S2 3.742669 1_545
Cs2 S0 3.830015 1_555
Cs2 S2 3.830015 1_555
Cs3 S6 3.724967 1_555
Cs3 S4 3.724967 1_554
Cs3 S7 3.784090 1_554
Cs3 S3 3.784090 1_555
Cs3 S6 3.883881 1_545
Cs3 S4 3.883881 1_544
Cs3 S7 3.934681 1_454
Cs3 S3 3.934681 1_455
Mg0 S1 2.599018 1_555
Mg0 S5 2.599018 1_555
Ag0 S0 2.592421 1_555
Ag0 S1 2.618694 1_655
Ag0 S7 2.671898 1_555
Ag0 S4 2.712015 1_655
Ag0 Cs0 4.068962 1_556
Ag1 S0 2.612637 1_555
Ag1 S1 2.628710 1_565
Ag1 S4 2.644725 1_555
Ag1 S7 2.660834 1_565
Ag1 Cs0 3.977431 1_556
Ag2 S2 2.592421 1_555
Ag2 S5 2.618694 1_655
Ag2 S3 2.671898 1_555
Ag2 S6 2.712015 1_655
Ag2 Cs0 4.068962 1_555
Ag3 S2 2.612637 1_555
Ag3 S5 2.628710 1_565
Ag3 S6 2.644725 1_555
Ag3 S3 2.660834 1_565
Ag3 Cs0 3.977431 1_555
S0 Ti0 2.322607 1_555
S1 Ti0 2.347468 1_555
S2 Ti1 2.322607 1_555
S3 Ti1 2.298749 1_555
S4 Ti0 2.296862 1_555
S5 Ti1 2.347468 1_555
S6 Ti1 2.296862 1_555
S7 Ti0 2.298749 1_555
