# generated using pymatgen
data_Na2Ca3Ti(SO4)6
_symmetry_space_group_name_H-M   'P 1'
_cell_length_a   9.04631176
_cell_length_b   9.04631146
_cell_length_c   23.70489885
_cell_angle_alpha   90.00000000
_cell_angle_beta   90.00000000
_cell_angle_gamma   120.00000111
_symmetry_Int_Tables_number   1
_chemical_formula_structural   Na2Ca3Ti(SO4)6
_chemical_formula_sum   'Na6 Ca9 Ti3 S18 O72'
_cell_volume   1680.00981909
_cell_formula_units_Z   3
loop_
 _symmetry_equiv_pos_site_id
 _symmetry_equiv_pos_as_xyz
  1  'x, y, z'
loop_
 _atom_site_type_symbol
 _atom_site_label
 _atom_site_symmetry_multiplicity
 _atom_site_fract_x
 _atom_site_fract_y
 _atom_site_fract_z
 _atom_site_occupancy
  Na  Na0  1  -0.00000000  0.00000000  0.50625408  1
  Na  Na1  1  -0.00000000  0.00000000  0.99910612  1
  Na  Na2  1  0.66666700  0.33333300  0.83093549  1
  Na  Na3  1  0.66666700  0.33333300  0.33704022  1
  Na  Na4  1  0.33333300  0.66666700  0.17540733  1
  Na  Na5  1  0.33333300  0.66666700  0.65143760  1
  Ca  Ca0  1  -0.00000000  0.00000000  0.64412819  1
  Ca  Ca1  1  -0.00000000  0.00000000  0.14779282  1
  Ca  Ca2  1  0.66666700  0.33333300  0.68224291  1
  Ca  Ca3  1  0.66666700  0.33333300  0.18726432  1
  Ca  Ca4  1  0.66666700  0.33333300  0.98176631  1
  Ca  Ca5  1  0.66666700  0.33333300  0.48328373  1
  Ca  Ca6  1  0.33333300  0.66666700  0.51195607  1
  Ca  Ca7  1  0.33333300  0.66666700  0.31800545  1
  Ca  Ca8  1  0.33333300  0.66666700  0.81526315  1
  Ti  Ti0  1  -0.00000000  0.00000000  0.35063675  1
  Ti  Ti1  1  -0.00000000  0.00000000  0.84815202  1
  Ti  Ti2  1  0.33333300  0.66666700  0.01569443  1
  S  S0  1  0.28943269  0.00373191  0.25272906  1
  S  S1  1  0.71429922  0.71056731  0.25272906  1
  S  S2  1  0.99626809  0.28570078  0.25272906  1
  S  S3  1  0.28945002  0.28218646  0.75522849  1
  S  S4  1  0.99273643  0.71054998  0.75522849  1
  S  S5  1  0.71781354  0.00726357  0.75522849  1
  S  S6  1  0.97289433  0.33910151  0.58312133  1
  S  S7  1  0.36620818  0.02710567  0.58312133  1
  S  S8  1  0.66089849  0.63379182  0.58312133  1
  S  S9  1  0.98222416  0.63487209  0.07799146  1
  S  S10  1  0.65264893  0.01777584  0.07799146  1
  S  S11  1  0.36512791  0.34735107  0.07799146  1
  S  S12  1  0.63451305  0.68256266  0.91731295  1
  S  S13  1  0.04804861  0.36548695  0.91731295  1
  S  S14  1  0.31743734  0.95195139  0.91731295  1
  S  S15  1  0.65093824  0.97340339  0.41156090  1
  S  S16  1  0.32246415  0.34906176  0.41156090  1
  S  S17  1  0.02659661  0.67753585  0.41156090  1
  O  O0  1  0.18525275  0.00601093  0.30265713  1
  O  O1  1  0.82075818  0.81474725  0.30265713  1
  O  O2  1  0.99398907  0.17924182  0.30265713  1
  O  O3  1  0.18119737  0.17253354  0.80763472  1
  O  O4  1  0.99133617  0.81880263  0.80763472  1
  O  O5  1  0.82746646  0.00866383  0.80763472  1
  O  O6  1  0.80279936  0.99839391  0.70489828  1
  O  O7  1  0.19559455  0.19720064  0.70489828  1
  O  O8  1  0.00160609  0.80440545  0.70489828  1
  O  O9  1  0.79396271  0.79789070  0.19995294  1
  O  O10  1  0.00392799  0.20603729  0.19995294  1
  O  O11  1  0.20210930  0.99607201  0.19995294  1
  O  O12  1  0.88690929  0.34445028  0.63594942  1
  O  O13  1  0.45754199  0.11309071  0.63594942  1
  O  O14  1  0.65554972  0.54245801  0.63594942  1
  O  O15  1  0.91783863  0.53694447  0.13049784  1
  O  O16  1  0.61910684  0.08216137  0.13049784  1
  O  O17  1  0.46305553  0.38089316  0.13049784  1
  O  O18  1  0.44880087  0.32315973  0.02927413  1
  O  O19  1  0.87435986  0.55119913  0.02927413  1
  O  O20  1  0.67684027  0.12564014  0.02927413  1
  O  O21  1  0.45764953  0.12388899  0.53260448  1
  O  O22  1  0.66624046  0.54235047  0.53260448  1
  O  O23  1  0.87611101  0.33375954  0.53260448  1
  O  O24  1  0.53784845  0.69830754  0.96760125  1
  O  O25  1  0.16045809  0.46215155  0.96760125  1
  O  O26  1  0.30169246  0.83954191  0.96760125  1
  O  O27  1  0.58455750  0.87355578  0.46363447  1
  O  O28  1  0.28899728  0.41544250  0.46363447  1
  O  O29  1  0.12644422  0.71100272  0.46363447  1
  O  O30  1  0.11030615  0.65495742  0.36238656  1
  O  O31  1  0.54465027  0.88969385  0.36238656  1
  O  O32  1  0.34504258  0.45534973  0.36238656  1
  O  O33  1  0.12162040  0.46154711  0.86581031  1
  O  O34  1  0.33992571  0.87837960  0.86581031  1
  O  O35  1  0.53845289  0.66007429  0.86581031  1
  O  O36  1  0.01109291  0.83723552  0.40141603  1
  O  O37  1  0.82614262  0.98890709  0.40141603  1
  O  O38  1  0.16276448  0.17385738  0.40141603  1
  O  O39  1  0.03920386  0.19411596  0.91417119  1
  O  O40  1  0.15491210  0.96079614  0.91417119  1
  O  O41  1  0.80588404  0.84508790  0.91417119  1
  O  O42  1  0.99093710  0.18451676  0.58274003  1
  O  O43  1  0.19357966  0.00906290  0.58274003  1
  O  O44  1  0.81548324  0.80642034  0.58274003  1
  O  O45  1  0.01573249  0.81177398  0.08255915  1
  O  O46  1  0.79604149  0.98426751  0.08255915  1
  O  O47  1  0.18822602  0.20395851  0.08255915  1
  O  O48  1  0.71146615  0.16600837  0.76067273  1
  O  O49  1  0.45454322  0.28853385  0.76067273  1
  O  O50  1  0.83399163  0.54545678  0.76067273  1
  O  O51  1  0.70483605  0.54187721  0.25521890  1
  O  O52  1  0.83704216  0.29516395  0.25521890  1
  O  O53  1  0.45812279  0.16295783  0.25521890  1
  O  O54  1  0.66221164  0.53725355  0.92522830  1
  O  O55  1  0.87504292  0.33778836  0.92522830  1
  O  O56  1  0.46274645  0.12495708  0.92522830  1
  O  O57  1  0.68177243  0.14890837  0.41644965  1
  O  O58  1  0.46713694  0.31822757  0.41644965  1
  O  O59  1  0.85109163  0.53286306  0.41644965  1
  O  O60  1  0.35225294  0.50897687  0.06645455  1
  O  O61  1  0.15672293  0.64774706  0.06645455  1
  O  O62  1  0.49102313  0.84327707  0.06645455  1
  O  O63  1  0.34845339  0.85462482  0.58191180  1
  O  O64  1  0.50617043  0.65154661  0.58191180  1
  O  O65  1  0.14537518  0.49382957  0.58191180  1
  O  O66  1  0.31045816  0.85232344  0.25614101  1
  O  O67  1  0.54186428  0.68954184  0.25614101  1
  O  O68  1  0.14767656  0.45813572  0.25614101  1
  O  O69  1  0.30569956  0.45032178  0.76073528  1
  O  O70  1  0.14462122  0.69430044  0.76073528  1
  O  O71  1  0.54967822  0.85537878  0.76073528  1
loop_
_geom_bond_atom_site_label_1
_geom_bond_atom_site_label_2
_geom_bond_distance
_geom_bond_site_symmetry_2
Na0 O44 2.493409 1_445
Na0 O42 2.493409 1_455
Na0 O43 2.493409 1_555
Na0 O38 2.915808 1_555
Na0 O37 2.915808 1_445
Na0 O36 2.915808 1_545
Na1 O39 2.576883 1_555
Na1 O41 2.576883 1_445
Na1 O40 2.576883 1_545
Na1 O47 2.659964 1_556
Na1 O45 2.659964 1_546
Na1 O46 2.659964 1_446
Na2 O50 2.417232 1_555
Na2 O48 2.417232 1_555
Na2 O49 2.417232 1_555
Na2 O54 2.911207 1_555
Na2 O56 2.911207 1_555
Na2 O55 2.911207 1_555
Na3 O59 2.563881 1_555
Na3 O57 2.563881 1_555
Na3 O58 2.563881 1_555
Na3 O51 2.605538 1_555
Na3 O53 2.605538 1_555
Na3 O52 2.605538 1_555
Na4 O68 2.621769 1_555
Na4 O66 2.621769 1_555
Na4 O67 2.621769 1_555
Na4 O62 2.996466 1_555
Na4 O60 2.996466 1_555
Na4 O61 2.996466 1_555
Na5 O63 2.322386 1_555
Na5 O65 2.322386 1_555
Na5 O64 2.322386 1_555
Ca0 O44 2.246641 1_445
Ca0 O42 2.246641 1_455
Ca0 O43 2.246641 1_555
Ca0 O7 2.287337 1_555
Ca0 O8 2.287337 1_545
Ca0 O6 2.287337 1_445
Ca1 O10 2.222134 1_555
Ca1 O9 2.222134 1_445
Ca1 O11 2.222134 1_545
Ca1 O47 2.356518 1_555
Ca1 O45 2.356518 1_545
Ca1 O46 2.356518 1_445
Ca2 O13 2.232391 1_555
Ca2 O14 2.232391 1_555
Ca2 O12 2.232391 1_555
Ca2 O50 2.554486 1_555
Ca2 O48 2.554486 1_555
Ca2 O49 2.554486 1_555
Ca3 O51 2.371027 1_555
Ca3 O53 2.371027 1_555
Ca3 O52 2.371027 1_555
Ca3 O16 2.486175 1_555
Ca3 O15 2.486175 1_555
Ca3 O17 2.486175 1_555
Ca4 O19 2.231531 1_556
Ca4 O20 2.231531 1_556
Ca4 O18 2.231531 1_556
Ca4 O54 2.296783 1_555
Ca4 O56 2.296783 1_555
Ca4 O55 2.296783 1_555
Ca5 O21 2.224741 1_555
Ca5 O22 2.224741 1_555
Ca5 O23 2.224741 1_555
Ca5 O59 2.353737 1_555
Ca5 O57 2.353737 1_555
Ca5 O58 2.353737 1_555
Ca6 O63 2.329630 1_555
Ca6 O65 2.329630 1_555
Ca6 O64 2.329630 1_555
Ca6 O28 2.392988 1_555
Ca6 O27 2.392988 1_555
Ca6 O29 2.392988 1_555
Ca7 O31 2.230449 1_555
Ca7 O32 2.230449 1_555
Ca7 O30 2.230449 1_555
Ca7 O68 2.315535 1_555
Ca7 O66 2.315535 1_555
Ca7 O67 2.315535 1_555
Ca8 O34 2.234528 1_555
Ca8 O33 2.234528 1_555
Ca8 O35 2.234528 1_555
Ca8 O69 2.252631 1_555
Ca8 O71 2.252631 1_555
Ca8 O70 2.252631 1_555
O0 S0 1.519481 1_555
O0 Ti0 2.003469 1_555
O1 S1 1.519481 1_555
O1 Ti0 2.003468 1_665
O2 S2 1.519481 1_555
O2 Ti0 2.003468 1_655
O3 S3 1.585824 1_555
O3 Ti1 1.867357 1_555
O4 S4 1.585824 1_555
O4 Ti1 1.867357 1_665
O5 S5 1.585825 1_555
O5 Ti1 1.867357 1_655
O6 S5 1.443126 1_565
O7 S3 1.443126 1_555
O8 S4 1.443126 1_455
O9 S1 1.462608 1_555
O10 S2 1.462608 1_455
O11 S0 1.462608 1_565
O12 S6 1.487697 1_555
O13 S7 1.487697 1_555
O14 S8 1.487697 1_555
O15 S9 1.468751 1_555
O16 S10 1.468751 1_555
O17 S11 1.468751 1_555
O18 S11 1.456070 1_555
O19 S9 1.456070 1_555
O20 S10 1.456070 1_555
O21 S7 1.469891 1_555
O22 S8 1.469891 1_555
O23 S6 1.469891 1_555
O24 S12 1.526620 1_555
O24 Ti2 2.067602 1_556
O25 S13 1.526620 1_555
O25 Ti2 2.067602 1_556
O26 S14 1.526620 1_555
O26 Ti2 2.067602 1_556
O27 S15 1.468946 1_555
O28 S16 1.468946 1_555
O29 S17 1.468946 1_555
O30 S17 1.458983 1_555
O31 S15 1.458983 1_555
O32 S16 1.458983 1_555
O33 S13 1.452672 1_555
O34 S14 1.452672 1_555
O35 S12 1.452672 1_555
O36 S17 1.538590 1_555
O36 Ti0 1.942879 1_565
O37 S15 1.538599 1_555
O37 Ti0 1.942879 1_665
O38 S16 1.538595 1_555
O38 Ti0 1.942879 1_555
O39 S13 1.513691 1_555
O39 Ti1 2.244061 1_555
O40 S14 1.513682 1_555
O40 Ti1 2.244061 1_565
O41 S12 1.513687 1_555
O41 Ti1 2.244061 1_665
O42 S6 1.486794 1_555
O43 S7 1.486803 1_555
O44 S8 1.486800 1_555
O45 S9 1.476314 1_455
O46 S10 1.476305 1_565
O47 S11 1.476311 1_555
O48 S5 1.471280 1_555
O49 S3 1.471289 1_555
O50 S4 1.471285 1_555
O51 S1 1.486244 1_555
O52 S2 1.486235 1_555
O53 S0 1.486240 1_555
O54 S12 1.468097 1_555
O55 S13 1.468079 1_655
O56 S14 1.468086 1_545
O57 S15 1.472780 1_545
O58 S16 1.472798 1_555
O59 S17 1.472786 1_655
O60 S11 1.548044 1_555
O60 Ti2 1.938101 1_555
O61 S9 1.548026 1_455
O61 Ti2 1.938101 1_555
O62 S10 1.548034 1_565
O62 Ti2 1.938101 1_555
O63 S7 1.486806 1_565
O64 S8 1.486824 1_555
O65 S6 1.486814 1_455
O66 S0 1.476240 1_565
O67 S1 1.476249 1_555
O68 S2 1.476245 1_455
O69 S3 1.458944 1_555
O70 S4 1.458935 1_455
O71 S5 1.458940 1_565
