# generated using pymatgen
data_MgCu3Te2(BrO3)2
_symmetry_space_group_name_H-M   'P 1'
_cell_length_a   6.04061332
_cell_length_b   6.04061168
_cell_length_c   8.71029089
_cell_angle_alpha   72.60900793
_cell_angle_beta   72.60890670
_cell_angle_gamma   66.90828286
_symmetry_Int_Tables_number   1
_chemical_formula_structural   MgCu3Te2(BrO3)2
_chemical_formula_sum   'Mg1 Cu3 Te2 Br2 O6'
_cell_volume   272.96002809
_cell_formula_units_Z   1
loop_
 _symmetry_equiv_pos_site_id
 _symmetry_equiv_pos_as_xyz
  1  'x, y, z'
loop_
 _atom_site_type_symbol
 _atom_site_label
 _atom_site_symmetry_multiplicity
 _atom_site_fract_x
 _atom_site_fract_y
 _atom_site_fract_z
 _atom_site_occupancy
  Mg  Mg0  1  0.22765723  0.77234277  0.50000000  1
  Cu  Cu0  1  0.13574001  0.16813004  0.65133021  1
  Cu  Cu1  1  0.67884917  0.32115083  0.50000000  1
  Cu  Cu2  1  0.83186996  0.86425999  0.34866979  1
  Te  Te0  1  0.33120430  0.33913477  0.24681423  1
  Te  Te1  1  0.66086523  0.66879570  0.75318577  1
  Br  Br0  1  0.16970317  0.32006340  0.86310051  1
  Br  Br1  1  0.67993660  0.83029683  0.13689949  1
  O  O0  1  0.85516639  0.84660580  0.58837957  1
  O  O1  1  0.17859236  0.62191019  0.34316744  1
  O  O2  1  0.77743550  0.38142094  0.66158190  1
  O  O3  1  0.61857906  0.22256450  0.33841810  1
  O  O4  1  0.37808982  0.82140764  0.65683256  1
  O  O5  1  0.15339420  0.14483361  0.41162043  1
loop_
_geom_bond_atom_site_label_1
_geom_bond_atom_site_label_2
_geom_bond_distance
_geom_bond_site_symmetry_2
Mg0 O1 1.993750 1_555
Mg0 O4 1.993751 1_555
Mg0 O0 2.058132 1_455
Mg0 O5 2.058134 1_565
Cu0 O4 2.027032 1_545
Cu0 O2 2.029370 1_455
Cu0 O5 2.102723 1_555
Cu1 O3 1.856190 1_555
Cu1 O2 1.856191 1_555
Cu1 O5 2.592333 1_655
Cu1 O0 2.592334 1_545
Cu2 O1 2.027032 1_655
Cu2 O3 2.029370 1_565
Cu2 O0 2.102724 1_555
Br0 Cu0 2.381758 1_555
Br1 Cu2 2.381759 1_555
O0 Te1 1.910994 1_555
O1 Te0 1.905574 1_555
O2 Te1 1.918118 1_555
O3 Te0 1.918121 1_555
O4 Te1 1.905576 1_555
O5 Te0 1.910994 1_555
