# generated using pymatgen
data_Na2ZrSi2SnSO12
_symmetry_space_group_name_H-M   'P 1'
_cell_length_a   9.02411090
_cell_length_b   9.03226158
_cell_length_c   23.09394729
_cell_angle_alpha   89.56700613
_cell_angle_beta   90.53539800
_cell_angle_gamma   119.79226489
_symmetry_Int_Tables_number   1
_chemical_formula_structural   Na2ZrSi2SnSO12
_chemical_formula_sum   'Na12 Zr6 Si12 Sn6 S6 O72'
_cell_volume   1633.47924062
_cell_formula_units_Z   6
loop_
 _symmetry_equiv_pos_site_id
 _symmetry_equiv_pos_as_xyz
  1  'x, y, z'
loop_
 _atom_site_type_symbol
 _atom_site_label
 _atom_site_symmetry_multiplicity
 _atom_site_fract_x
 _atom_site_fract_y
 _atom_site_fract_z
 _atom_site_occupancy
  Na  Na0  1  0.99310978  0.62666378  0.25209683  1
  Na  Na1  1  0.37324240  0.00582635  0.75373781  1
  Na  Na2  1  0.65951427  0.95994672  0.58563112  1
  Na  Na3  1  0.04169504  0.34018725  0.08588011  1
  Na  Na4  1  0.32731474  0.29331312  0.91985298  1
  Na  Na5  1  0.70775635  0.67324110  0.42000057  1
  Na  Na6  1  0.01058615  0.98908002  0.50058857  1
  Na  Na7  1  0.00978173  0.98987729  0.99965348  1
  Na  Na8  1  0.67829452  0.32379306  0.83445511  1
  Na  Na9  1  0.67648530  0.32324584  0.33302801  1
  Na  Na10  1  0.34251065  0.65682462  0.16634579  1
  Na  Na11  1  0.34202954  0.65672271  0.66719575  1
  Zr  Zr0  1  0.98371626  0.99532327  0.35232739  1
  Zr  Zr1  1  0.99944118  0.00069929  0.64801557  1
  Zr  Zr2  1  0.00171136  0.99900425  0.14596753  1
  Zr  Zr3  1  0.64961298  0.32837312  0.68634055  1
  Zr  Zr4  1  0.66748550  0.33292674  0.48066147  1
  Zr  Zr5  1  0.33289218  0.66585910  0.31332659  1
  Si  Si0  1  0.70287267  0.70570271  0.24887369  1
  Si  Si1  1  0.99430449  0.29195243  0.24671711  1
  Si  Si2  1  0.28944946  0.29920150  0.75191192  1
  Si  Si3  1  0.70608662  0.99669520  0.75114097  1
  Si  Si4  1  0.36821319  0.03825134  0.58275143  1
  Si  Si5  1  0.66201438  0.62672171  0.58078875  1
  Si  Si6  1  0.95633324  0.62533163  0.08167331  1
  Si  Si7  1  0.38056950  0.33826920  0.08029456  1
  Si  Si8  1  0.03695258  0.37616529  0.91648105  1
  Si  Si9  1  0.33265768  0.95663287  0.91552650  1
  Si  Si10  1  0.62302719  0.96171817  0.41710497  1
  Si  Si11  1  0.04298850  0.66798766  0.41624589  1
  Sn  Sn0  1  0.00790706  0.01687306  0.85285099  1
  Sn  Sn1  1  0.67368585  0.35123022  0.18446197  1
  Sn  Sn2  1  0.66716078  0.33057965  0.98026716  1
  Sn  Sn3  1  0.31624452  0.65926630  0.01833315  1
  Sn  Sn4  1  0.34023705  0.68334891  0.51873209  1
  Sn  Sn5  1  0.33367547  0.66686141  0.81546042  1
  S  S0  1  0.29627170  0.00603292  0.25010586  1
  S  S1  1  0.99812780  0.70829092  0.75194195  1
  S  S2  1  0.96305814  0.33905498  0.58379346  1
  S  S3  1  0.66110771  0.03915200  0.08365142  1
  S  S4  1  0.62786800  0.67042173  0.91753525  1
  S  S5  1  0.32968663  0.37483531  0.41813207  1
  O  O0  1  0.21799708  0.03007459  0.30183556  1
  O  O1  1  0.82451409  0.78723371  0.30705025  1
  O  O2  1  0.97604045  0.17606583  0.30371178  1
  O  O3  1  0.22086435  0.17496687  0.80954499  1
  O  O4  1  0.97121383  0.78477760  0.80412826  1
  O  O5  1  0.82261831  0.01978293  0.80843571  1
  O  O6  1  0.78898957  0.96804036  0.69231559  1
  O  O7  1  0.17092306  0.20015963  0.69589070  1
  O  O8  1  0.02644321  0.81713422  0.69980156  1
  O  O9  1  0.80552663  0.82572316  0.19391763  1
  O  O10  1  0.02436914  0.20751247  0.18896681  1
  O  O11  1  0.18759683  0.97620387  0.19788952  1
  O  O12  1  0.88363670  0.36284299  0.63548391  1
  O  O13  1  0.49130053  0.12155579  0.64057376  1
  O  O14  1  0.64330002  0.50886510  0.63732195  1
  O  O15  1  0.88665332  0.50526339  0.14064662  1
  O  O16  1  0.63350940  0.11587269  0.13568198  1
  O  O17  1  0.49206076  0.35977386  0.13907951  1
  O  O18  1  0.45828525  0.30309981  0.02146872  1
  O  O19  1  0.83684326  0.53199948  0.02555457  1
  O  O20  1  0.69585155  0.14780099  0.03108202  1
  O  O21  1  0.46945026  0.15774492  0.52752787  1
  O  O22  1  0.69185992  0.54318386  0.52274538  1
  O  O23  1  0.85453064  0.30914421  0.53149879  1
  O  O24  1  0.55056173  0.69814160  0.96944079  1
  O  O25  1  0.15927288  0.44670396  0.97480019  1
  O  O26  1  0.31025511  0.84298643  0.97334362  1
  O  O27  1  0.55381494  0.83992384  0.47545221  1
  O  O28  1  0.30324649  0.45138096  0.47034000  1
  O  O29  1  0.15677540  0.68871395  0.47431181  1
  O  O30  1  0.12653013  0.63903179  0.35782110  1
  O  O31  1  0.50456432  0.86139279  0.36151643  1
  O  O32  1  0.35886663  0.48336931  0.36597301  1
  O  O33  1  0.12965400  0.49512529  0.85999343  1
  O  O34  1  0.36572469  0.87908172  0.85614821  1
  O  O35  1  0.51886306  0.63731569  0.86477999  1
  O  O36  1  0.02452480  0.83965859  0.41141680  1
  O  O37  1  0.81136442  0.97419269  0.41169639  1
  O  O38  1  0.18286070  0.20364507  0.41069888  1
  O  O39  1  0.02643973  0.18775971  0.91278569  1
  O  O40  1  0.15848029  0.97554477  0.91044368  1
  O  O41  1  0.79999437  0.81960987  0.91070333  1
  O  O42  1  0.97248470  0.17884018  0.58849240  1
  O  O43  1  0.18094830  0.01908908  0.58926926  1
  O  O44  1  0.82354159  0.82224721  0.58805349  1
  O  O45  1  0.97761680  0.81401945  0.08804243  1
  O  O46  1  0.82011811  0.02786450  0.08895770  1
  O  O47  1  0.18442242  0.17672399  0.08734073  1
  O  O48  1  0.68637232  0.16780410  0.74510714  1
  O  O49  1  0.47753053  0.31117300  0.74522893  1
  O  O50  1  0.85098508  0.53702507  0.74428881  1
  O  O51  1  0.69421621  0.51869215  0.24637853  1
  O  O52  1  0.81843474  0.30689269  0.24280410  1
  O  O53  1  0.46850918  0.15493938  0.24285978  1
  O  O54  1  0.63747058  0.51012812  0.92189534  1
  O  O55  1  0.84730604  0.35632541  0.92232617  1
  O  O56  1  0.49556076  0.15497289  0.92160262  1
  O  O57  1  0.64412081  0.14975540  0.42207929  1
  O  O58  1  0.49004091  0.36550560  0.42235789  1
  O  O59  1  0.84712589  0.50517896  0.42155068  1
  O  O60  1  0.36248388  0.51289475  0.07581886  1
  O  O61  1  0.14601181  0.63771941  0.07880271  1
  O  O62  1  0.51196072  0.86695322  0.07644935  1
  O  O63  1  0.36076745  0.85211273  0.58027566  1
  O  O64  1  0.48583016  0.64062105  0.57703741  1
  O  O65  1  0.13486196  0.48723439  0.57684854  1
  O  O66  1  0.30635302  0.84620068  0.25465723  1
  O  O67  1  0.51514719  0.68552471  0.25475321  1
  O  O68  1  0.15580916  0.48750655  0.25379711  1
  O  O69  1  0.30816923  0.48732113  0.75737527  1
  O  O70  1  0.15967141  0.70035850  0.75557075  1
  O  O71  1  0.50817703  0.83259062  0.75627841  1
loop_
_geom_bond_atom_site_label_1
_geom_bond_atom_site_label_2
_geom_bond_distance
_geom_bond_site_symmetry_2
Na0 O68 2.359872 1_655
Na0 O51 2.371719 1_555
Na0 O52 2.520259 1_555
Na0 O66 2.520836 1_655
Na0 O30 2.690537 1_655
Na0 O15 2.774797 1_555
Na0 O1 2.878420 1_555
Na0 O11 3.014980 1_655
Na1 O71 2.413517 1_545
Na1 O49 2.438593 1_555
Na1 O70 2.458525 1_545
Na1 O48 2.462289 1_555
Na1 O34 2.606446 1_545
Na1 O13 2.821642 1_555
Na1 O3 2.834819 1_555
Na1 O8 2.984852 1_545
Na2 O44 2.359622 1_555
Na2 O63 2.370286 1_555
Na2 O64 2.515040 1_555
Na2 O42 2.517848 1_565
Na2 O6 2.702719 1_555
Na2 O27 2.743746 1_555
Na2 O13 2.882842 1_565
Na2 O23 3.012251 1_565
Na3 O61 2.370077 1_555
Na3 O47 2.393336 1_555
Na3 O46 2.521023 1_455
Na3 O60 2.527287 1_555
Na3 O10 2.627885 1_555
Na3 O25 2.762465 1_554
Na3 O15 2.813333 1_455
Na3 O20 2.988574 1_455
Na4 O39 2.393593 1_555
Na4 O56 2.398202 1_555
Na4 O54 2.494648 1_555
Na4 O40 2.502833 1_545
Na4 O18 2.599848 1_556
Na4 O3 2.744073 1_555
Na4 O25 2.824816 1_555
Na4 O35 2.983958 1_555
Na5 O37 2.402062 1_555
Na5 O59 2.404746 1_555
Na5 O58 2.482327 1_555
Na5 O36 2.491254 1_655
Na5 O22 2.612930 1_555
Na5 O1 2.811959 1_555
Na5 O27 2.824366 1_555
Na5 O32 3.000645 1_555
Na6 O43 2.483280 1_565
Na6 O36 2.508715 1_555
Na6 O44 2.586501 1_455
Na6 O37 2.675709 1_455
Na6 O38 2.736366 1_565
Na6 O42 2.797896 1_465
Na7 O45 2.505567 1_456
Na7 O40 2.508017 1_555
Na7 O47 2.604170 1_566
Na7 O39 2.631749 1_565
Na7 O41 2.692734 1_455
Na7 O46 2.821484 1_466
Na8 O55 2.456900 1_555
Na8 O48 2.529194 1_555
Na8 O56 2.571343 1_555
Na8 O49 2.696273 1_555
Na8 O50 2.737035 1_555
Na8 O54 2.779826 1_555
Na9 O52 2.499348 1_555
Na9 O57 2.505581 1_555
Na9 O59 2.593895 1_555
Na9 O51 2.611166 1_555
Na9 O53 2.703543 1_555
Na9 O58 2.819098 1_555
Na10 O67 2.491970 1_555
Na10 O60 2.524716 1_555
Na10 O68 2.590884 1_555
Na10 O61 2.625957 1_555
Na10 O62 2.714089 1_555
Na10 O66 2.794892 1_555
Na11 O69 2.504172 1_555
Na11 O64 2.506573 1_555
Na11 O71 2.574625 1_555
Na11 O63 2.613194 1_555
Na11 O65 2.706173 1_555
Na11 O70 2.783563 1_555
O0 S0 1.464712 1_555
O0 Zr0 2.304139 1_445
O1 Si0 1.654217 1_555
O1 Zr0 2.002073 1_555
O2 Si1 1.633110 1_555
O2 Zr0 2.003404 1_545
O3 Si2 1.648149 1_555
O3 Sn0 2.004943 1_555
O4 S1 1.474288 1_555
O4 Sn0 2.260374 1_665
O5 Si3 1.631057 1_545
O5 Sn0 1.964642 1_655
O6 Si3 1.639801 1_555
O6 Zr1 2.053157 1_565
O7 Si2 1.630614 1_555
O7 Zr1 2.022505 1_455
O8 S1 1.489945 1_455
O8 Zr1 2.145855 1_465
O9 Si0 1.627063 1_555
O9 Zr2 2.016709 1_655
O10 Si1 1.631490 1_455
O10 Zr2 2.053422 1_545
O11 S0 1.486186 1_565
O11 Zr2 2.143831 1_555
O12 S2 1.468922 1_555
O12 Zr3 2.307320 1_555
O13 Si4 1.655303 1_555
O13 Zr3 1.999326 1_555
O14 Si5 1.634228 1_555
O14 Zr3 2.001413 1_555
O15 Si6 1.656016 1_555
O15 Sn1 2.002763 1_555
O16 S3 1.475031 1_555
O16 Sn1 2.276456 1_555
O17 Si7 1.636234 1_555
O17 Sn1 1.970554 1_555
O18 Si7 1.638303 1_555
O18 Sn2 2.021119 1_554
O19 Si6 1.624837 1_555
O19 Sn2 1.994713 1_554
O20 S3 1.489490 1_555
O20 Sn2 2.135286 1_554
O21 Si4 1.626997 1_555
O21 Zr4 2.017205 1_555
O22 Si5 1.631761 1_555
O22 Zr4 2.051418 1_555
O23 S2 1.486796 1_555
O23 Zr4 2.143132 1_555
O24 S4 1.476477 1_555
O24 Sn3 2.273797 1_556
O25 Si8 1.650643 1_555
O25 Sn3 2.000850 1_556
O26 Si9 1.629566 1_555
O26 Sn3 1.974352 1_556
O27 Si10 1.651211 1_555
O27 Sn4 2.004940 1_555
O28 S5 1.473268 1_555
O28 Sn4 2.254694 1_555
O29 Si11 1.635440 1_555
O29 Sn4 1.960323 1_555
O30 Si11 1.636314 1_555
O30 Zr5 2.041101 1_555
O31 Si10 1.625206 1_555
O31 Zr5 2.009058 1_555
O32 S5 1.487571 1_555
O32 Zr5 2.144372 1_555
O33 Si8 1.631595 1_555
O33 Sn5 2.006704 1_555
O34 Si9 1.640111 1_555
O34 Sn5 2.027821 1_555
O35 S4 1.494043 1_555
O35 Sn5 2.136412 1_555
O36 Si11 1.642637 1_555
O36 Zr0 2.109680 1_455
O37 Si10 1.652367 1_555
O37 Zr0 2.018958 1_555
O38 S5 1.462800 1_555
O38 Zr0 2.284754 1_445
O39 Si8 1.659452 1_555
O39 Sn0 2.024254 1_555
O40 Si9 1.666299 1_555
O40 Sn0 2.053635 1_565
O41 S4 1.474730 1_555
O41 Sn0 2.273488 1_665
O42 S2 1.494288 1_555
O42 Zr1 2.210648 1_555
O43 Si4 1.619286 1_555
O43 Zr1 2.078172 1_455
O44 Si5 1.647299 1_555
O44 Zr1 2.117880 1_565
O45 Si6 1.625138 1_555
O45 Zr2 2.072627 1_655
O46 S3 1.492088 1_555
O46 Zr2 2.205836 1_645
O47 Si7 1.650426 1_555
O47 Zr2 2.123017 1_545
O48 Si3 1.645947 1_545
O48 Zr3 2.120185 1_555
O49 Si2 1.654839 1_555
O49 Zr3 2.020310 1_555
O50 S1 1.464904 1_555
O50 Zr3 2.287874 1_555
O51 Si0 1.653132 1_555
O51 Sn1 2.028803 1_555
O52 Si1 1.659854 1_555
O52 Sn1 2.039787 1_555
O53 S0 1.475426 1_555
O53 Sn1 2.266901 1_555
O54 S4 1.495365 1_555
O54 Sn2 2.216071 1_555
O55 Si8 1.636580 1_655
O55 Sn2 2.036562 1_555
O56 Si9 1.665243 1_545
O56 Sn2 2.074071 1_555
O57 Si10 1.617182 1_545
O57 Zr4 2.072160 1_555
O58 S5 1.492985 1_555
O58 Zr4 2.210337 1_555
O59 Si11 1.649241 1_655
O59 Zr4 2.101194 1_555
O60 Si7 1.666764 1_555
O60 Sn3 2.048348 1_555
O61 Si6 1.660860 1_455
O61 Sn3 2.021592 1_555
O62 S3 1.475729 1_565
O62 Sn3 2.267390 1_555
O63 Si4 1.650309 1_565
O63 Sn4 2.031037 1_555
O64 Si5 1.657309 1_555
O64 Sn4 2.037437 1_555
O65 S2 1.469736 1_455
O65 Sn4 2.263217 1_555
O66 S0 1.493813 1_565
O66 Zr5 2.212386 1_555
O67 Si0 1.618208 1_555
O67 Zr5 2.077010 1_555
O68 Si1 1.646963 1_455
O68 Zr5 2.114958 1_555
O69 Si2 1.627625 1_555
O69 Sn5 2.034290 1_555
O70 S1 1.496234 1_455
O70 Sn5 2.212529 1_555
O71 Si3 1.664776 1_555
O71 Sn5 2.062858 1_555
