# generated using pymatgen
data_Na4MgNbSi2PO12
_symmetry_space_group_name_H-M   'P 1'
_cell_length_a   9.11732697
_cell_length_b   9.11732665
_cell_length_c   22.18608137
_cell_angle_alpha   90.00095441
_cell_angle_beta   89.99904559
_cell_angle_gamma   119.74227159
_symmetry_Int_Tables_number   1
_chemical_formula_structural   Na4MgNbSi2PO12
_chemical_formula_sum   'Na24 Mg6 Nb6 Si12 P6 O72'
_cell_volume   1601.28380358
_cell_formula_units_Z   6
loop_
 _symmetry_equiv_pos_site_id
 _symmetry_equiv_pos_as_xyz
  1  'x, y, z'
loop_
 _atom_site_type_symbol
 _atom_site_label
 _atom_site_symmetry_multiplicity
 _atom_site_fract_x
 _atom_site_fract_y
 _atom_site_fract_z
 _atom_site_occupancy
  Na  Na0  1  0.64756913  0.01639547  0.24882055  1
  Na  Na1  1  0.37764939  0.36320181  0.24249266  1
  Na  Na2  1  0.97470698  0.61706154  0.24502642  1
  Na  Na3  1  0.63679819  0.62235061  0.74249266  1
  Na  Na4  1  0.98360453  0.35243087  0.74882055  1
  Na  Na5  1  0.38293846  0.02529302  0.74502642  1
  Na  Na6  1  0.31423613  0.34972847  0.58215355  1
  Na  Na7  1  0.04431639  0.69653481  0.57582566  1
  Na  Na8  1  0.64137398  0.95039454  0.57835942  1
  Na  Na9  1  0.30346519  0.95568361  0.07582566  1
  Na  Na10  1  0.65027153  0.68576387  0.08215355  1
  Na  Na11  1  0.04960546  0.35862602  0.07835942  1
  Na  Na12  1  0.98090213  0.68306247  0.91548755  1
  Na  Na13  1  0.71098239  0.02986881  0.90915966  1
  Na  Na14  1  0.30803998  0.28372854  0.91169342  1
  Na  Na15  1  0.97013119  0.28901761  0.40915966  1
  Na  Na16  1  0.31693753  0.01909787  0.41548755  1
  Na  Na17  1  0.71627146  0.69196002  0.41169342  1
  Na  Na18  1  0.99369333  0.99201136  0.49238652  1
  Na  Na19  1  0.00798864  0.00630667  0.99238652  1
  Na  Na20  1  0.66036033  0.32534436  0.82571952  1
  Na  Na21  1  0.67465564  0.33963967  0.32571952  1
  Na  Na22  1  0.32702633  0.65867836  0.15905352  1
  Na  Na23  1  0.34132164  0.67297367  0.65905352  1
  Mg  Mg0  1  0.99466197  0.99611579  0.35114781  1
  Mg  Mg1  1  0.00388421  0.00533803  0.85114781  1
  Mg  Mg2  1  0.66132897  0.32944879  0.68448081  1
  Mg  Mg3  1  0.67055121  0.33867103  0.18448081  1
  Mg  Mg4  1  0.32799497  0.66278279  0.01781481  1
  Mg  Mg5  1  0.33721721  0.67200503  0.51781481  1
  Nb  Nb0  1  0.99838028  0.00114832  0.64724731  1
  Nb  Nb1  1  0.99885168  0.00161972  0.14724731  1
  Nb  Nb2  1  0.66504728  0.33448132  0.98058031  1
  Nb  Nb3  1  0.66551868  0.33495272  0.48058031  1
  Nb  Nb4  1  0.33171328  0.66781532  0.31391431  1
  Nb  Nb5  1  0.33218468  0.66828672  0.81391431  1
  Si  Si0  1  0.70476000  0.70363831  0.25353134  1
  Si  Si1  1  0.99895814  0.29393559  0.25373923  1
  Si  Si2  1  0.29636169  0.29524000  0.75353134  1
  Si  Si3  1  0.70606441  0.00104186  0.75373923  1
  Si  Si4  1  0.37142700  0.03697131  0.58686434  1
  Si  Si5  1  0.66562514  0.62726859  0.58707223  1
  Si  Si6  1  0.96302869  0.62857300  0.08686434  1
  Si  Si7  1  0.37273141  0.33437486  0.08707223  1
  Si  Si8  1  0.03809300  0.37030531  0.92019834  1
  Si  Si9  1  0.33229114  0.96060259  0.92040623  1
  Si  Si10  1  0.62969469  0.96190700  0.42019834  1
  Si  Si11  1  0.03939741  0.66770886  0.42040623  1
  P  P0  1  0.28992702  0.99831545  0.25234886  1
  P  P1  1  0.00168455  0.71007298  0.75234886  1
  P  P2  1  0.95659402  0.33164845  0.58568186  1
  P  P3  1  0.66835155  0.04340598  0.08568186  1
  P  P4  1  0.62326002  0.66498245  0.91901586  1
  P  P5  1  0.33501755  0.37673998  0.41901586  1
  O  O0  1  0.21032043  0.02428918  0.30847323  1
  O  O1  1  0.81993251  0.78973406  0.31110849  1
  O  O2  1  0.98150765  0.18454052  0.31186304  1
  O  O3  1  0.21026594  0.18006749  0.81110849  1
  O  O4  1  0.97571082  0.78967957  0.80847323  1
  O  O5  1  0.81545948  0.01849235  0.81186304  1
  O  O6  1  0.80254010  0.96919107  0.69301384  1
  O  O7  1  0.16625646  0.19632739  0.69321019  1
  O  O8  1  0.02925487  0.82768359  0.69520063  1
  O  O9  1  0.80367261  0.83374354  0.19321019  1
  O  O10  1  0.03080893  0.19745990  0.19301384  1
  O  O11  1  0.17231641  0.97074513  0.19520063  1
  O  O12  1  0.87698743  0.35762218  0.64180623  1
  O  O13  1  0.48659951  0.12306706  0.64444149  1
  O  O14  1  0.64817465  0.51787352  0.64519604  1
  O  O15  1  0.87693294  0.51340049  0.14444149  1
  O  O16  1  0.64237782  0.12301257  0.14180623  1
  O  O17  1  0.48212648  0.35182535  0.14519604  1
  O  O18  1  0.46920710  0.30252407  0.02634684  1
  O  O19  1  0.83292346  0.52966039  0.02654319  1
  O  O20  1  0.69592187  0.16101659  0.02853363  1
  O  O21  1  0.47033961  0.16707654  0.52654319  1
  O  O22  1  0.69747593  0.53079290  0.52634684  1
  O  O23  1  0.83898341  0.30407813  0.52853363  1
  O  O24  1  0.54365343  0.69095618  0.97514023  1
  O  O25  1  0.15326551  0.45640106  0.97777549  1
  O  O26  1  0.31484065  0.85120752  0.97853004  1
  O  O27  1  0.54359894  0.84673449  0.47777549  1
  O  O28  1  0.30904382  0.45634657  0.47514023  1
  O  O29  1  0.14879248  0.68515935  0.47853004  1
  O  O30  1  0.13587310  0.63585807  0.35968084  1
  O  O31  1  0.49958946  0.86299439  0.35987719  1
  O  O32  1  0.36258787  0.49435059  0.36186763  1
  O  O33  1  0.13700561  0.50041054  0.85987719  1
  O  O34  1  0.36414193  0.86412690  0.85968084  1
  O  O35  1  0.50564941  0.63741213  0.86186763  1
  O  O36  1  0.01884223  0.83274461  0.41285936  1
  O  O37  1  0.81999046  0.99506488  0.41326349  1
  O  O38  1  0.18795017  0.19735095  0.41065694  1
  O  O39  1  0.00493512  0.18000954  0.91326349  1
  O  O40  1  0.16725539  0.98115777  0.91285936  1
  O  O41  1  0.80264905  0.81204983  0.91065694  1
  O  O42  1  0.96271163  0.16089336  0.58743171  1
  O  O43  1  0.18448829  0.03240455  0.58822243  1
  O  O44  1  0.84424927  0.81630251  0.58795595  1
  O  O45  1  0.96759545  0.81551171  0.08822243  1
  O  O46  1  0.83910664  0.03728837  0.08743171  1
  O  O47  1  0.18369749  0.15575073  0.08795595  1
  O  O48  1  0.68550923  0.16607761  0.74619236  1
  O  O49  1  0.48665746  0.32839788  0.74659649  1
  O  O50  1  0.85461717  0.53068395  0.74398994  1
  O  O51  1  0.67160212  0.51334254  0.24659649  1
  O  O52  1  0.83392239  0.31449077  0.24619236  1
  O  O53  1  0.46931605  0.14538283  0.24398994  1
  O  O54  1  0.62937863  0.49422636  0.92076471  1
  O  O55  1  0.85115529  0.36573755  0.92155543  1
  O  O56  1  0.51091627  0.14963551  0.92128895  1
  O  O57  1  0.63426245  0.14884471  0.42155543  1
  O  O58  1  0.50577364  0.37062137  0.42076471  1
  O  O59  1  0.85036449  0.48908373  0.42128895  1
  O  O60  1  0.35217523  0.49941161  0.07952636  1
  O  O61  1  0.15332346  0.66173188  0.07993049  1
  O  O62  1  0.52128317  0.86401795  0.07732394  1
  O  O63  1  0.33826812  0.84667654  0.57993049  1
  O  O64  1  0.50058839  0.64782477  0.57952636  1
  O  O65  1  0.13598205  0.47871683  0.57732394  1
  O  O66  1  0.29604463  0.82756036  0.25409871  1
  O  O67  1  0.51782129  0.69907155  0.25488943  1
  O  O68  1  0.17758227  0.48296951  0.25462295  1
  O  O69  1  0.30092845  0.48217871  0.75488943  1
  O  O70  1  0.17243964  0.70395537  0.75409871  1
  O  O71  1  0.51703049  0.82241773  0.75462295  1
loop_
_geom_bond_atom_site_label_1
_geom_bond_atom_site_label_2
_geom_bond_distance
_geom_bond_site_symmetry_2
Na0 O52 2.386435 1_555
Na0 O53 2.435593 1_555
Na0 O67 2.528251 1_545
Na0 O16 2.574847 1_555
Na0 O66 2.788334 1_545
Na0 O31 2.824004 1_545
Na0 O9 2.944921 1_545
Na0 O2 2.990849 1_555
Na1 O51 2.329120 1_555
Na1 O17 2.382384 1_555
Na1 O53 2.508047 1_555
Na1 O68 2.562874 1_555
Na1 O67 2.683876 1_555
Na1 O32 2.936967 1_555
Na1 O10 2.957563 1_555
Na2 O52 2.396876 1_555
Na2 O15 2.414939 1_555
Na2 O51 2.437112 1_555
Na2 O66 2.593901 1_655
Na2 O68 2.684219 1_655
Na2 O30 2.899888 1_655
Na2 O1 2.970401 1_555
Na2 O11 3.016951 1_655
Na3 O49 2.329120 1_555
Na3 O14 2.382384 1_555
Na3 O50 2.508047 1_555
Na3 O71 2.562874 1_555
Na3 O69 2.683876 1_555
Na3 O35 2.936967 1_555
Na3 O6 2.957563 1_555
Na4 O48 2.386435 1_555
Na4 O50 2.435593 1_555
Na4 O69 2.528251 1_655
Na4 O12 2.574847 1_555
Na4 O70 2.788333 1_655
Na4 O33 2.824004 1_655
Na4 O7 2.944921 1_655
Na4 O5 2.990849 1_555
Na5 O48 2.396877 1_555
Na5 O13 2.414939 1_555
Na5 O49 2.437112 1_555
Na5 O70 2.593901 1_545
Na5 O71 2.684219 1_545
Na5 O34 2.899888 1_545
Na5 O3 2.970401 1_555
Na5 O8 3.016951 1_545
Na6 O64 2.386440 1_555
Na6 O65 2.435608 1_555
Na6 O43 2.528251 1_555
Na6 O28 2.574832 1_555
Na6 O42 2.788334 1_455
Na6 O7 2.824004 1_555
Na6 O21 2.944921 1_555
Na6 O14 2.990849 1_555
Na7 O63 2.329113 1_555
Na7 O29 2.382358 1_555
Na7 O65 2.508032 1_555
Na7 O44 2.562874 1_455
Na7 O43 2.683876 1_565
Na7 O8 2.936967 1_555
Na7 O22 2.957563 1_455
Na8 O64 2.396868 1_555
Na8 O27 2.414918 1_555
Na8 O63 2.437123 1_555
Na8 O42 2.593901 1_565
Na8 O44 2.684219 1_555
Na8 O6 2.899888 1_555
Na8 O13 2.970401 1_565
Na8 O23 3.016951 1_565
Na9 O61 2.329113 1_555
Na9 O26 2.382358 1_554
Na9 O62 2.508032 1_555
Na9 O47 2.562874 1_565
Na9 O45 2.683876 1_455
Na9 O11 2.936967 1_555
Na9 O18 2.957563 1_565
Na10 O60 2.386440 1_555
Na10 O62 2.435608 1_555
Na10 O45 2.528251 1_555
Na10 O24 2.574832 1_554
Na10 O46 2.788333 1_565
Na10 O9 2.824004 1_555
Na10 O19 2.944921 1_555
Na10 O17 2.990849 1_555
Na11 O60 2.396868 1_555
Na11 O25 2.414918 1_554
Na11 O61 2.437123 1_555
Na11 O46 2.593901 1_455
Na11 O47 2.684219 1_555
Na11 O10 2.899888 1_555
Na11 O15 2.970401 1_455
Na11 O20 3.016951 1_455
Na12 O40 2.386435 1_655
Na12 O41 2.435593 1_555
Na12 O55 2.528259 1_555
Na12 O4 2.574847 1_555
Na12 O54 2.788325 1_555
Na12 O19 2.823985 1_556
Na12 O33 2.944921 1_655
Na12 O26 2.990849 1_655
Na13 O39 2.329120 1_655
Na13 O5 2.382384 1_555
Na13 O41 2.508047 1_545
Na13 O56 2.562856 1_555
Na13 O55 2.683864 1_555
Na13 O20 2.936940 1_556
Na13 O34 2.957563 1_545
Na14 O40 2.396876 1_545
Na14 O3 2.414939 1_555
Na14 O39 2.437112 1_555
Na14 O54 2.593904 1_555
Na14 O56 2.684233 1_555
Na14 O18 2.899874 1_556
Na14 O25 2.970401 1_555
Na14 O35 3.016951 1_555
Na15 O37 2.329120 1_545
Na15 O2 2.382384 1_555
Na15 O38 2.508047 1_655
Na15 O59 2.562856 1_555
Na15 O57 2.683864 1_555
Na15 O23 2.936940 1_555
Na15 O30 2.957563 1_655
Na16 O36 2.386435 1_545
Na16 O38 2.435593 1_555
Na16 O57 2.528259 1_555
Na16 O0 2.574847 1_555
Na16 O58 2.788325 1_555
Na16 O21 2.823985 1_555
Na16 O31 2.944921 1_545
Na16 O29 2.990849 1_545
Na17 O36 2.396877 1_655
Na17 O1 2.414939 1_555
Na17 O37 2.437112 1_555
Na17 O58 2.593904 1_555
Na17 O59 2.684233 1_555
Na17 O22 2.899874 1_555
Na17 O27 2.970401 1_555
Na17 O32 3.016951 1_555
Na18 O36 2.367378 1_655
Na18 O37 2.373663 1_555
Na18 O38 2.576773 1_665
Na18 O44 2.598629 1_555
Na18 O43 2.654602 1_665
Na18 O42 2.707134 1_565
Na19 O40 2.367378 1_545
Na19 O39 2.373663 1_555
Na19 O41 2.576773 1_445
Na19 O47 2.598629 1_556
Na19 O45 2.654602 1_446
Na19 O46 2.707134 1_456
Na20 O48 2.367378 1_555
Na20 O49 2.373663 1_555
Na20 O50 2.576773 1_555
Na20 O56 2.598629 1_555
Na20 O55 2.654602 1_555
Na20 O54 2.707134 1_555
Na21 O52 2.367378 1_555
Na21 O51 2.373663 1_555
Na21 O53 2.576773 1_555
Na21 O59 2.598629 1_555
Na21 O57 2.654602 1_555
Na21 O58 2.707134 1_555
Na22 O60 2.367378 1_555
Na22 O61 2.373663 1_555
Na22 O62 2.576773 1_555
Na22 O68 2.598629 1_555
Na22 O67 2.654602 1_555
Na22 O66 2.707134 1_555
Na23 O64 2.367378 1_555
Na23 O63 2.373663 1_555
Na23 O65 2.576773 1_555
Na23 O71 2.598629 1_555
Na23 O69 2.654602 1_555
Na23 O70 2.707134 1_555
Mg0 O1 1.973158 1_555
Mg0 O2 1.982370 1_565
Mg0 O0 2.080207 1_665
Mg0 O37 2.102433 1_555
Mg0 O36 2.113686 1_655
Mg0 O38 2.237606 1_665
Mg1 O3 1.973158 1_555
Mg1 O5 1.982370 1_455
Mg1 O4 2.080207 1_445
Mg1 O39 2.102433 1_555
Mg1 O40 2.113686 1_545
Mg1 O41 2.237606 1_445
Mg2 O13 1.973158 1_555
Mg2 O14 1.982370 1_555
Mg2 O12 2.080207 1_555
Mg2 O49 2.102433 1_555
Mg2 O48 2.113686 1_555
Mg2 O50 2.237606 1_555
Mg3 O15 1.973158 1_555
Mg3 O17 1.982370 1_555
Mg3 O16 2.080207 1_555
Mg3 O51 2.102433 1_555
Mg3 O52 2.113686 1_555
Mg3 O53 2.237606 1_555
Mg4 O25 1.973158 1_554
Mg4 O26 1.982370 1_554
Mg4 O24 2.080207 1_554
Mg4 O61 2.102433 1_555
Mg4 O60 2.113686 1_555
Mg4 O62 2.237606 1_555
Mg5 O27 1.973158 1_555
Mg5 O29 1.982370 1_555
Mg5 O28 2.080207 1_555
Mg5 O63 2.102433 1_555
Mg5 O64 2.113686 1_555
Mg5 O65 2.237606 1_555
Nb0 O6 1.946228 1_545
Nb0 O7 1.961315 1_655
Nb0 O8 2.038173 1_645
Nb0 O43 2.048268 1_655
Nb0 O44 2.048307 1_545
Nb0 O42 2.111432 1_555
Nb1 O10 1.946228 1_655
Nb1 O9 1.961315 1_545
Nb1 O11 2.038173 1_645
Nb1 O45 2.048268 1_545
Nb1 O47 2.048307 1_655
Nb1 O46 2.111432 1_555
Nb2 O18 1.946228 1_556
Nb2 O19 1.961315 1_556
Nb2 O20 2.038173 1_556
Nb2 O55 2.048268 1_555
Nb2 O56 2.048307 1_555
Nb2 O54 2.111432 1_555
Nb3 O22 1.946228 1_555
Nb3 O21 1.961315 1_555
Nb3 O23 2.038173 1_555
Nb3 O57 2.048268 1_555
Nb3 O59 2.048307 1_555
Nb3 O58 2.111432 1_555
Nb4 O30 1.946228 1_555
Nb4 O31 1.961315 1_555
Nb4 O32 2.038173 1_555
Nb4 O67 2.048268 1_555
Nb4 O68 2.048307 1_555
Nb4 O66 2.111432 1_555
Nb5 O34 1.946228 1_555
Nb5 O33 1.961315 1_555
Nb5 O35 2.038173 1_555
Nb5 O69 2.048268 1_555
Nb5 O71 2.048307 1_555
Nb5 O70 2.111432 1_555
O0 P0 1.517838 1_545
O1 Si0 1.591466 1_555
O2 Si1 1.589214 1_555
O3 Si2 1.591466 1_555
O4 P1 1.517838 1_655
O5 Si3 1.589214 1_555
O6 Si3 1.710706 1_565
O7 Si2 1.717558 1_555
O8 P1 1.597860 1_555
O9 Si0 1.717558 1_555
O10 Si1 1.710706 1_455
O11 P0 1.597860 1_555
O12 P2 1.517838 1_555
O13 Si4 1.591466 1_555
O14 Si5 1.589214 1_555
O15 Si6 1.591466 1_555
O16 P3 1.517838 1_555
O17 Si7 1.589214 1_555
O18 Si7 1.710706 1_555
O19 Si6 1.717558 1_555
O20 P3 1.597860 1_555
O21 Si4 1.717558 1_555
O22 Si5 1.710706 1_555
O23 P2 1.597860 1_555
O24 P4 1.517838 1_555
O25 Si8 1.591466 1_555
O26 Si9 1.589214 1_555
O27 Si10 1.591466 1_555
O28 P5 1.517838 1_555
O29 Si11 1.589214 1_555
O30 Si11 1.710706 1_555
O31 Si10 1.717558 1_555
O32 P5 1.597860 1_555
O33 Si8 1.717558 1_555
O34 Si9 1.710706 1_555
O35 P4 1.597860 1_555
O36 Si11 1.614631 1_555
O37 Si10 1.613948 1_555
O38 P5 1.526887 1_555
O39 Si8 1.613948 1_555
O40 Si9 1.614631 1_555
O41 P4 1.526887 1_555
O42 P2 1.585716 1_555
O43 Si4 1.684383 1_555
O44 Si5 1.684669 1_555
O45 Si6 1.684382 1_555
O46 P3 1.585716 1_555
O47 Si7 1.684669 1_555
O48 Si3 1.614631 1_555
O49 Si2 1.613948 1_555
O50 P1 1.526887 1_655
O51 Si0 1.613948 1_555
O52 Si1 1.614631 1_555
O53 P0 1.526887 1_545
O54 P4 1.585730 1_555
O55 Si8 1.684369 1_655
O56 Si9 1.684668 1_545
O57 Si10 1.684369 1_545
O58 P5 1.585730 1_555
O59 Si11 1.684668 1_655
O60 Si7 1.614643 1_555
O61 Si6 1.613934 1_455
O62 P3 1.526881 1_565
O63 Si4 1.613934 1_565
O64 Si5 1.614643 1_555
O65 P2 1.526881 1_455
O66 P0 1.585716 1_555
O67 Si0 1.684383 1_555
O68 Si1 1.684669 1_455
O69 Si2 1.684382 1_555
O70 P1 1.585716 1_555
O71 Si3 1.684669 1_565
