# generated using pymatgen
data_Ag2Hg7(As2I3)2
_symmetry_space_group_name_H-M   'P 1'
_cell_length_a   13.58181600
_cell_length_b   13.58181600
_cell_length_c   13.58181600
_cell_angle_alpha   90.00000000
_cell_angle_beta   90.00000000
_cell_angle_gamma   90.00000000
_symmetry_Int_Tables_number   1
_chemical_formula_structural   Ag2Hg7(As2I3)2
_chemical_formula_sum   'Ag8 Hg28 As16 I24'
_cell_volume   2505.37954691
_cell_formula_units_Z   4
loop_
 _symmetry_equiv_pos_site_id
 _symmetry_equiv_pos_as_xyz
  1  'x, y, z'
loop_
 _atom_site_type_symbol
 _atom_site_label
 _atom_site_symmetry_multiplicity
 _atom_site_fract_x
 _atom_site_fract_y
 _atom_site_fract_z
 _atom_site_occupancy
  Ag  Ag0  1  0.22063000  0.22063000  0.22063000  1
  Ag  Ag1  1  0.27937000  0.77937000  0.72063000  1
  Ag  Ag2  1  0.72063000  0.27937000  0.77937000  1
  Ag  Ag3  1  0.77937000  0.72063000  0.27937000  1
  Ag  Ag4  1  0.77937000  0.77937000  0.77937000  1
  Ag  Ag5  1  0.72063000  0.22063000  0.27937000  1
  Ag  Ag6  1  0.27937000  0.72063000  0.22063000  1
  Ag  Ag7  1  0.22063000  0.27937000  0.72063000  1
  Hg  Hg0  1  0.21054200  0.41901600  0.44739200  1
  Hg  Hg1  1  0.44739200  0.21054200  0.41901600  1
  Hg  Hg2  1  0.41901600  0.44739200  0.21054200  1
  Hg  Hg3  1  0.08098400  0.55260800  0.71054200  1
  Hg  Hg4  1  0.94739200  0.28945800  0.58098400  1
  Hg  Hg5  1  0.58098400  0.94739200  0.28945800  1
  Hg  Hg6  1  0.05260800  0.78945800  0.91901600  1
  Hg  Hg7  1  0.55260800  0.71054200  0.08098400  1
  Hg  Hg8  1  0.91901600  0.05260800  0.78945800  1
  Hg  Hg9  1  0.71054200  0.08098400  0.55260800  1
  Hg  Hg10  1  0.78945800  0.91901600  0.05260800  1
  Hg  Hg11  1  0.28945800  0.58098400  0.94739200  1
  Hg  Hg12  1  0.78945800  0.58098400  0.55260800  1
  Hg  Hg13  1  0.55260800  0.78945800  0.58098400  1
  Hg  Hg14  1  0.58098400  0.55260800  0.78945800  1
  Hg  Hg15  1  0.91901600  0.44739200  0.28945800  1
  Hg  Hg16  1  0.05260800  0.71054200  0.41901600  1
  Hg  Hg17  1  0.41901600  0.05260800  0.71054200  1
  Hg  Hg18  1  0.94739200  0.21054200  0.08098400  1
  Hg  Hg19  1  0.44739200  0.28945800  0.91901600  1
  Hg  Hg20  1  0.08098400  0.94739200  0.21054200  1
  Hg  Hg21  1  0.28945800  0.91901600  0.44739200  1
  Hg  Hg22  1  0.21054200  0.08098400  0.94739200  1
  Hg  Hg23  1  0.71054200  0.41901600  0.05260800  1
  Hg  Hg24  1  0.50000000  0.50000000  0.50000000  1
  Hg  Hg25  1  0.00000000  0.50000000  0.00000000  1
  Hg  Hg26  1  0.00000000  0.00000000  0.50000000  1
  Hg  Hg27  1  0.50000000  0.00000000  0.00000000  1
  As  As0  1  0.05235000  0.05235000  0.05235000  1
  As  As1  1  0.44765000  0.94765000  0.55235000  1
  As  As2  1  0.55235000  0.44765000  0.94765000  1
  As  As3  1  0.94765000  0.55235000  0.44765000  1
  As  As4  1  0.94765000  0.94765000  0.94765000  1
  As  As5  1  0.55235000  0.05235000  0.44765000  1
  As  As6  1  0.44765000  0.55235000  0.05235000  1
  As  As7  1  0.05235000  0.44765000  0.55235000  1
  As  As8  1  0.39037200  0.39037200  0.39037200  1
  As  As9  1  0.10962800  0.60962800  0.89037200  1
  As  As10  1  0.89037200  0.10962800  0.60962800  1
  As  As11  1  0.60962800  0.89037200  0.10962800  1
  As  As12  1  0.60962800  0.60962800  0.60962800  1
  As  As13  1  0.89037200  0.39037200  0.10962800  1
  As  As14  1  0.10962800  0.89037200  0.39037200  1
  As  As15  1  0.39037200  0.10962800  0.89037200  1
  I  I0  1  0.16400900  0.55742500  0.25382700  1
  I  I1  1  0.25382700  0.16400900  0.55742500  1
  I  I2  1  0.55742500  0.25382700  0.16400900  1
  I  I3  1  0.94257500  0.74617300  0.66400900  1
  I  I4  1  0.75382700  0.33599100  0.44257500  1
  I  I5  1  0.44257500  0.75382700  0.33599100  1
  I  I6  1  0.24617300  0.83599100  0.05742500  1
  I  I7  1  0.74617300  0.66400900  0.94257500  1
  I  I8  1  0.05742500  0.24617300  0.83599100  1
  I  I9  1  0.66400900  0.94257500  0.74617300  1
  I  I10  1  0.83599100  0.05742500  0.24617300  1
  I  I11  1  0.33599100  0.44257500  0.75382700  1
  I  I12  1  0.83599100  0.44257500  0.74617300  1
  I  I13  1  0.74617300  0.83599100  0.44257500  1
  I  I14  1  0.44257500  0.74617300  0.83599100  1
  I  I15  1  0.05742500  0.25382700  0.33599100  1
  I  I16  1  0.24617300  0.66400900  0.55742500  1
  I  I17  1  0.55742500  0.24617300  0.66400900  1
  I  I18  1  0.75382700  0.16400900  0.94257500  1
  I  I19  1  0.25382700  0.33599100  0.05742500  1
  I  I20  1  0.94257500  0.75382700  0.16400900  1
  I  I21  1  0.33599100  0.05742500  0.25382700  1
  I  I22  1  0.16400900  0.94257500  0.75382700  1
  I  I23  1  0.66400900  0.55742500  0.24617300  1
loop_
_geom_bond_atom_site_label_1
_geom_bond_atom_site_label_2
_geom_bond_distance
_geom_bond_site_symmetry_2
Ag0 I15 2.751653 1_555
Ag0 I19 2.751653 1_555
Ag0 I21 2.751653 1_555
Ag1 I22 2.751653 1_555
Ag1 I14 2.751653 1_555
Ag1 I16 2.751653 1_555
Ag2 I18 2.751653 1_555
Ag2 I12 2.751653 1_555
Ag2 I17 2.751653 1_555
Ag3 I20 2.751653 1_555
Ag3 I13 2.751653 1_555
Ag3 I23 2.751653 1_555
Ag4 I7 2.751653 1_555
Ag4 I3 2.751653 1_555
Ag4 I9 2.751653 1_555
Ag5 I10 2.751653 1_555
Ag5 I4 2.751653 1_555
Ag5 I2 2.751653 1_555
Ag6 I6 2.751653 1_555
Ag6 I5 2.751653 1_555
Ag6 I0 2.751653 1_555
Ag7 I8 2.751653 1_555
Ag7 I11 2.751653 1_555
Ag7 I1 2.751653 1_555
Hg0 I0 3.293129 1_555
Hg0 I15 3.412859 1_555
Hg1 I1 3.293129 1_555
Hg1 I21 3.412859 1_555
Hg2 I2 3.293129 1_555
Hg2 I19 3.412859 1_555
Hg3 I3 3.293129 1_455
Hg3 I16 3.412859 1_555
Hg4 I4 3.293129 1_555
Hg4 I12 3.412859 1_555
Hg5 I5 3.293129 1_555
Hg5 I13 3.412859 1_555
Hg6 I6 3.293129 1_556
Hg6 I22 3.412859 1_555
Hg7 I7 3.293129 1_554
Hg7 I23 3.412859 1_555
Hg8 I8 3.293129 1_655
Hg8 I18 3.412859 1_555
Hg9 I9 3.293129 1_545
Hg9 I17 3.412859 1_555
Hg10 I10 3.293129 1_565
Hg10 I20 3.412859 1_555
Hg11 I11 3.293129 1_555
Hg11 I14 3.412859 1_555
Hg12 I12 3.293129 1_555
Hg12 I3 3.412859 1_555
Hg13 I13 3.293129 1_555
Hg13 I9 3.412859 1_555
Hg14 I14 3.293129 1_555
Hg14 I7 3.412859 1_555
Hg15 I15 3.293129 1_655
Hg15 I4 3.412859 1_555
Hg16 I16 3.293129 1_555
Hg16 I0 3.412859 1_555
Hg17 I17 3.293129 1_555
Hg17 I1 3.412859 1_555
Hg18 I18 3.293129 1_554
Hg18 I10 3.412859 1_555
Hg19 I19 3.293129 1_556
Hg19 I11 3.412859 1_555
Hg20 I20 3.293129 1_455
Hg20 I6 3.412859 1_555
Hg21 I21 3.293129 1_565
Hg21 I5 3.412859 1_555
Hg22 I22 3.293129 1_545
Hg22 I8 3.412859 1_555
Hg23 I23 3.293129 1_555
Hg23 I2 3.412859 1_555
As0 As4 2.463004 1_444
As0 Hg20 2.607595 1_545
As0 Hg18 2.607595 1_455
As0 Hg22 2.607595 1_554
As1 As5 2.463004 1_565
As1 Hg17 2.607595 1_565
As1 Hg13 2.607595 1_555
As1 Hg21 2.607595 1_555
As2 As6 2.463004 1_556
As2 Hg23 2.607595 1_556
As2 Hg14 2.607595 1_555
As2 Hg19 2.607595 1_555
As3 As7 2.463004 1_655
As3 Hg16 2.607595 1_655
As3 Hg12 2.607595 1_555
As3 Hg15 2.607595 1_555
As4 Hg8 2.607595 1_565
As4 Hg6 2.607595 1_655
As4 Hg10 2.607595 1_556
As5 Hg1 2.607595 1_555
As5 Hg9 2.607595 1_555
As5 Hg5 2.607595 1_545
As6 Hg2 2.607595 1_555
As6 Hg7 2.607595 1_555
As6 Hg11 2.607595 1_554
As7 Hg0 2.607595 1_555
As7 Hg3 2.607595 1_555
As7 Hg4 2.607595 1_455
As8 Hg24 2.578932 1_555
As8 Hg0 2.591622 1_555
As8 Hg2 2.591622 1_555
As8 Hg1 2.591622 1_555
As9 Hg25 2.578932 1_556
As9 Hg3 2.591622 1_555
As9 Hg6 2.591622 1_555
As9 Hg11 2.591622 1_555
As10 Hg26 2.578932 1_655
As10 Hg9 2.591622 1_555
As10 Hg8 2.591622 1_555
As10 Hg4 2.591622 1_555
As11 Hg27 2.578932 1_565
As11 Hg7 2.591622 1_555
As11 Hg10 2.591622 1_555
As11 Hg5 2.591622 1_555
As12 Hg24 2.578932 1_555
As12 Hg13 2.591622 1_555
As12 Hg14 2.591622 1_555
As12 Hg12 2.591622 1_555
As13 Hg25 2.578932 1_655
As13 Hg23 2.591622 1_555
As13 Hg15 2.591622 1_555
As13 Hg18 2.591622 1_555
As14 Hg26 2.578932 1_565
As14 Hg16 2.591622 1_555
As14 Hg21 2.591622 1_555
As14 Hg20 2.591622 1_555
As15 Hg27 2.578932 1_556
As15 Hg17 2.591622 1_555
As15 Hg19 2.591622 1_555
As15 Hg22 2.591622 1_555
