# generated using pymatgen
data_Na4In2Si(PO6)2
_symmetry_space_group_name_H-M   'P 1'
_cell_length_a   9.25665087
_cell_length_b   9.25665053
_cell_length_c   22.58414214
_cell_angle_alpha   90.00754534
_cell_angle_beta   89.99245467
_cell_angle_gamma   120.00532851
_symmetry_Int_Tables_number   1
_chemical_formula_structural   Na4In2Si(PO6)2
_chemical_formula_sum   'Na24 In12 Si6 P12 O72'
_cell_volume   1675.78637730
_cell_formula_units_Z   6
loop_
 _symmetry_equiv_pos_site_id
 _symmetry_equiv_pos_as_xyz
  1  'x, y, z'
loop_
 _atom_site_type_symbol
 _atom_site_label
 _atom_site_symmetry_multiplicity
 _atom_site_fract_x
 _atom_site_fract_y
 _atom_site_fract_z
 _atom_site_occupancy
  Na  Na0  1  0.63942016  0.00425335  0.25180497  1
  Na  Na1  1  0.36048738  0.36546434  0.24824569  1
  Na  Na2  1  0.99926686  0.62483767  0.24985230  1
  Na  Na3  1  0.63453566  0.63951262  0.74824569  1
  Na  Na4  1  0.99574665  0.36057984  0.75180497  1
  Na  Na5  1  0.37516233  0.00073314  0.74985230  1
  Na  Na6  1  0.30114747  0.32815115  0.58170045  1
  Na  Na7  1  0.03952118  0.70565173  0.58049727  1
  Na  Na8  1  0.66236541  0.96621160  0.58811064  1
  Na  Na9  1  0.29434827  0.96047882  0.08049727  1
  Na  Na10  1  0.67184885  0.69885253  0.08170045  1
  Na  Na11  1  0.03378840  0.33763459  0.08811064  1
  Na  Na12  1  0.97127836  0.67203542  0.92120588  1
  Na  Na13  1  0.69574151  0.03421836  0.91200625  1
  Na  Na14  1  0.33357229  0.29591209  0.91672392  1
  Na  Na15  1  0.96578164  0.30425849  0.41200625  1
  Na  Na16  1  0.32796458  0.02872164  0.42120588  1
  Na  Na17  1  0.70408791  0.66642771  0.41672392  1
  Na  Na18  1  0.00504445  0.99612737  0.49996755  1
  Na  Na19  1  0.00387263  0.99495555  0.99996755  1
  Na  Na20  1  0.66260430  0.32337113  0.83343361  1
  Na  Na21  1  0.67662887  0.33739570  0.33343361  1
  Na  Na22  1  0.32277265  0.66032060  0.16658209  1
  Na  Na23  1  0.33967940  0.67722735  0.66658209  1
  In  In0  1  0.00058363  0.99954772  0.34842780  1
  In  In1  1  0.00045228  0.99941637  0.84842780  1
  In  In2  1  0.00137240  0.99966997  0.65148768  1
  In  In3  1  0.00033003  0.99862760  0.15148768  1
  In  In4  1  0.66549864  0.32768181  0.68200516  1
  In  In5  1  0.67231819  0.33450136  0.18200516  1
  In  In6  1  0.66860467  0.33496136  0.98475402  1
  In  In7  1  0.66503864  0.33139533  0.48475402  1
  In  In8  1  0.32897855  0.66967312  0.01516700  1
  In  In9  1  0.33032688  0.67102145  0.51516700  1
  In  In10  1  0.32472604  0.66194751  0.31802113  1
  In  In11  1  0.33805249  0.67527396  0.81802113  1
  Si  Si0  1  0.99981110  0.29759706  0.24996819  1
  Si  Si1  1  0.70240294  0.00018890  0.74996819  1
  Si  Si2  1  0.36562937  0.03281765  0.58343408  1
  Si  Si3  1  0.96718235  0.63437063  0.08343408  1
  Si  Si4  1  0.33372031  0.97083770  0.91664835  1
  Si  Si5  1  0.02916230  0.66627969  0.41664835  1
  P  P0  1  0.30137169  0.00176871  0.24974943  1
  P  P1  1  0.69816425  0.69998751  0.25034857  1
  P  P2  1  0.30001249  0.30183575  0.75034857  1
  P  P3  1  0.99823129  0.69862831  0.74974943  1
  P  P4  1  0.96687724  0.33353396  0.58309440  1
  P  P5  1  0.66610103  0.63089805  0.58324907  1
  P  P6  1  0.66646604  0.03312276  0.08309440  1
  P  P7  1  0.36910195  0.33389897  0.08324907  1
  P  P8  1  0.63001488  0.66533037  0.91705999  1
  P  P9  1  0.03718234  0.36872812  0.91634494  1
  P  P10  1  0.63127188  0.96281766  0.41634494  1
  P  P11  1  0.33466963  0.36998512  0.41705999  1
  O  O0  1  0.22273713  0.02939153  0.30588701  1
  O  O1  1  0.80895548  0.77712230  0.30564637  1
  O  O2  1  0.96795021  0.18352072  0.30930617  1
  O  O3  1  0.22287770  0.19104452  0.80564637  1
  O  O4  1  0.97060847  0.77726287  0.80588701  1
  O  O5  1  0.81647928  0.03204979  0.80930617  1
  O  O6  1  0.78492435  0.96775887  0.69080414  1
  O  O7  1  0.19374868  0.22254960  0.69405382  1
  O  O8  1  0.03232797  0.80912006  0.69425226  1
  O  O9  1  0.77745040  0.80625132  0.19405382  1
  O  O10  1  0.03224113  0.21507565  0.19080414  1
  O  O11  1  0.19087994  0.96767203  0.19425226  1
  O  O12  1  0.89065156  0.36782347  0.63886257  1
  O  O13  1  0.47967672  0.11432755  0.64260115  1
  O  O14  1  0.64084416  0.52476520  0.63963950  1
  O  O15  1  0.88567245  0.52032328  0.14260115  1
  O  O16  1  0.63217653  0.10934844  0.13886257  1
  O  O17  1  0.47523480  0.35915584  0.13963950  1
  O  O18  1  0.44772931  0.30427975  0.02754186  1
  O  O19  1  0.85154093  0.55423801  0.02417806  1
  O  O20  1  0.69360114  0.14045026  0.02728910  1
  O  O21  1  0.44576199  0.14845907  0.52417806  1
  O  O22  1  0.69572025  0.55227069  0.52754186  1
  O  O23  1  0.85954974  0.30639886  0.52728910  1
  O  O24  1  0.54812058  0.69018426  0.97313335  1
  O  O25  1  0.14561064  0.44660615  0.97227968  1
  O  O26  1  0.29707127  0.85481026  0.97563188  1
  O  O27  1  0.55339385  0.85438936  0.47227968  1
  O  O28  1  0.30981574  0.45187942  0.47313335  1
  O  O29  1  0.14518974  0.70292873  0.47563188  1
  O  O30  1  0.10850725  0.63021731  0.35749260  1
  O  O31  1  0.52415840  0.88131641  0.36025027  1
  O  O32  1  0.36501135  0.47853883  0.36107738  1
  O  O33  1  0.11868359  0.47584160  0.86025027  1
  O  O34  1  0.36978269  0.89149275  0.85749260  1
  O  O35  1  0.52146117  0.63498865  0.86107738  1
  O  O36  1  0.01238830  0.83594791  0.41247400  1
  O  O37  1  0.80816531  0.98332204  0.41295154  1
  O  O38  1  0.17445112  0.19522956  0.41343107  1
  O  O39  1  0.01667796  0.19183469  0.91295154  1
  O  O40  1  0.16405209  0.98761170  0.91247400  1
  O  O41  1  0.80477044  0.82554888  0.91343107  1
  O  O42  1  0.98041787  0.17297610  0.58749085  1
  O  O43  1  0.17813881  0.01412862  0.58704470  1
  O  O44  1  0.82291405  0.80799837  0.58670621  1
  O  O45  1  0.98587138  0.82186119  0.08704470  1
  O  O46  1  0.82702390  0.01958213  0.08749085  1
  O  O47  1  0.19200163  0.17708595  0.08670621  1
  O  O48  1  0.68667082  0.17062901  0.74792783  1
  O  O49  1  0.47911420  0.32685857  0.74612755  1
  O  O50  1  0.83626183  0.52520890  0.74453311  1
  O  O51  1  0.67314143  0.52088580  0.24612755  1
  O  O52  1  0.82937099  0.31332918  0.24792783  1
  O  O53  1  0.47479110  0.16373817  0.24453311  1
  O  O54  1  0.64999865  0.50841704  0.92021195  1
  O  O55  1  0.86238947  0.35463893  0.92013463  1
  O  O56  1  0.50300280  0.15737389  0.92085076  1
  O  O57  1  0.64536107  0.13761053  0.42013463  1
  O  O58  1  0.49158296  0.35000135  0.42021195  1
  O  O59  1  0.84262611  0.49699720  0.42085076  1
  O  O60  1  0.35595896  0.49525320  0.07892574  1
  O  O61  1  0.15258205  0.64888538  0.08105056  1
  O  O62  1  0.51172974  0.85437185  0.07893746  1
  O  O63  1  0.35111462  0.84741795  0.58105056  1
  O  O64  1  0.50474680  0.64404104  0.57892574  1
  O  O65  1  0.14562815  0.48827026  0.57893746  1
  O  O66  1  0.32627629  0.84755704  0.25408985  1
  O  O67  1  0.52476851  0.68882190  0.25542808  1
  O  O68  1  0.17001070  0.48409052  0.25186653  1
  O  O69  1  0.31117810  0.47523149  0.75542808  1
  O  O70  1  0.15244296  0.67372371  0.75408985  1
  O  O71  1  0.51590948  0.82998930  0.75186653  1
loop_
_geom_bond_atom_site_label_1
_geom_bond_atom_site_label_2
_geom_bond_distance
_geom_bond_site_symmetry_2
Na0 O52 2.500672 1_555
Na0 O66 2.510708 1_545
Na0 O67 2.561100 1_545
Na0 O53 2.603646 1_555
Na0 O31 2.686515 1_545
Na0 O16 2.742797 1_555
Na0 O2 2.939644 1_555
Na0 O9 3.005663 1_545
Na1 O68 2.501523 1_555
Na1 O51 2.506723 1_555
Na1 O53 2.566979 1_555
Na1 O67 2.597223 1_555
Na1 O17 2.684969 1_555
Na1 O32 2.747028 1_555
Na1 O10 2.936517 1_555
Na1 O0 3.005250 1_555
Na2 O52 2.500863 1_555
Na2 O68 2.501409 1_655
Na2 O30 2.623898 1_655
Na2 O15 2.625103 1_555
Na2 O51 2.672273 1_555
Na2 O66 2.679688 1_655
Na3 O71 2.501523 1_555
Na3 O49 2.506723 1_555
Na3 O50 2.566979 1_555
Na3 O69 2.597223 1_555
Na3 O14 2.684969 1_555
Na3 O35 2.747028 1_555
Na3 O6 2.936517 1_555
Na3 O4 3.005251 1_555
Na4 O48 2.500672 1_555
Na4 O70 2.510708 1_655
Na4 O69 2.561100 1_655
Na4 O50 2.603646 1_555
Na4 O33 2.686515 1_655
Na4 O12 2.742797 1_555
Na4 O5 2.939644 1_555
Na4 O7 3.005663 1_655
Na5 O48 2.500863 1_555
Na5 O71 2.501409 1_545
Na5 O34 2.623898 1_545
Na5 O13 2.625103 1_555
Na5 O49 2.672273 1_555
Na5 O70 2.679687 1_545
Na6 O65 2.531250 1_555
Na6 O43 2.539736 1_555
Na6 O64 2.567946 1_555
Na6 O42 2.574755 1_455
Na6 O28 2.690490 1_555
Na6 O7 2.722192 1_555
Na6 O21 2.910722 1_555
Na7 O43 2.481405 1_565
Na7 O63 2.501172 1_555
Na7 O29 2.567146 1_555
Na7 O44 2.614808 1_455
Na7 O65 2.644179 1_555
Na7 O8 2.754072 1_555
Na8 O63 2.523282 1_555
Na8 O44 2.555636 1_555
Na8 O6 2.578874 1_555
Na8 O42 2.587538 1_565
Na8 O64 2.591043 1_555
Na8 O27 2.808520 1_555
Na8 O13 2.927790 1_565
Na9 O45 2.481405 1_455
Na9 O61 2.501172 1_555
Na9 O26 2.567146 1_554
Na9 O47 2.614807 1_565
Na9 O62 2.644179 1_555
Na9 O11 2.754072 1_555
Na10 O62 2.531250 1_555
Na10 O45 2.539736 1_555
Na10 O60 2.567946 1_555
Na10 O46 2.574755 1_565
Na10 O24 2.690490 1_554
Na10 O9 2.722192 1_555
Na10 O19 2.910722 1_555
Na11 O61 2.523282 1_555
Na11 O47 2.555636 1_555
Na11 O10 2.578874 1_555
Na11 O46 2.587538 1_455
Na11 O60 2.591043 1_555
Na11 O25 2.808520 1_554
Na11 O15 2.927790 1_455
Na12 O40 2.557920 1_655
Na12 O41 2.572250 1_555
Na12 O19 2.572318 1_556
Na12 O54 2.575643 1_555
Na12 O55 2.585863 1_555
Na12 O4 2.781783 1_555
Na12 O26 2.892296 1_655
Na13 O56 2.560598 1_555
Na13 O39 2.572875 1_655
Na13 O55 2.575734 1_555
Na13 O5 2.578919 1_555
Na13 O41 2.588510 1_545
Na13 O20 2.786524 1_556
Na13 O34 2.894614 1_545
Na14 O56 2.474802 1_555
Na14 O40 2.477288 1_545
Na14 O54 2.586959 1_555
Na14 O39 2.591077 1_555
Na14 O3 2.700088 1_555
Na14 O18 2.702789 1_556
Na15 O59 2.560598 1_555
Na15 O37 2.572875 1_545
Na15 O57 2.575734 1_555
Na15 O2 2.578919 1_555
Na15 O38 2.588510 1_655
Na15 O23 2.786524 1_555
Na15 O30 2.894614 1_655
Na16 O36 2.557920 1_545
Na16 O38 2.572250 1_555
Na16 O21 2.572318 1_555
Na16 O58 2.575643 1_555
Na16 O57 2.585863 1_555
Na16 O0 2.781783 1_555
Na16 O29 2.892296 1_545
Na17 O59 2.474802 1_555
Na17 O36 2.477288 1_655
Na17 O58 2.586959 1_555
Na17 O37 2.591077 1_555
Na17 O1 2.700088 1_555
Na17 O22 2.702789 1_555
Na18 O43 2.489202 1_565
Na18 O36 2.491494 1_555
Na18 O44 2.603062 1_455
Na18 O38 2.604772 1_565
Na18 O37 2.642368 1_455
Na18 O42 2.647865 1_465
Na19 O45 2.489202 1_456
Na19 O40 2.491494 1_555
Na19 O47 2.603062 1_566
Na19 O41 2.604772 1_455
Na19 O39 2.642368 1_565
Na19 O46 2.647865 1_466
Na20 O48 2.468184 1_555
Na20 O56 2.484130 1_555
Na20 O55 2.608318 1_555
Na20 O49 2.613317 1_555
Na20 O54 2.643387 1_555
Na20 O50 2.664969 1_555
Na21 O52 2.468184 1_555
Na21 O59 2.484130 1_555
Na21 O57 2.608318 1_555
Na21 O51 2.613317 1_555
Na21 O58 2.643387 1_555
Na21 O53 2.664969 1_555
Na22 O61 2.461368 1_555
Na22 O68 2.462410 1_555
Na22 O60 2.610853 1_555
Na22 O66 2.617934 1_555
Na22 O62 2.657357 1_555
Na22 O67 2.664456 1_555
Na23 O63 2.461368 1_555
Na23 O71 2.462410 1_555
Na23 O64 2.610853 1_555
Na23 O70 2.617935 1_555
Na23 O65 2.657357 1_555
Na23 O69 2.664456 1_555
In0 O2 2.070500 1_465
In0 O36 2.136255 1_555
In0 O0 2.158586 1_565
In0 O1 2.160160 1_455
In0 O37 2.247294 1_455
In0 O38 2.260671 1_565
In1 O5 2.070500 1_465
In1 O40 2.136255 1_555
In1 O4 2.158586 1_455
In1 O3 2.160160 1_565
In1 O39 2.247294 1_565
In1 O41 2.260671 1_455
In2 O6 2.073087 1_455
In2 O43 2.143322 1_565
In2 O8 2.152228 1_555
In2 O7 2.162665 1_565
In2 O42 2.238756 1_465
In2 O44 2.255176 1_455
In3 O10 2.073086 1_565
In3 O45 2.143322 1_455
In3 O11 2.152228 1_555
In3 O9 2.162665 1_455
In3 O46 2.238756 1_465
In3 O47 2.255176 1_565
In4 O13 2.062367 1_555
In4 O48 2.157325 1_555
In4 O12 2.157810 1_555
In4 O14 2.170864 1_555
In4 O50 2.223773 1_555
In4 O49 2.249452 1_555
In5 O15 2.062367 1_555
In5 O52 2.157325 1_555
In5 O16 2.157810 1_555
In5 O17 2.170864 1_555
In5 O53 2.223773 1_555
In5 O51 2.249452 1_555
In6 O19 2.083849 1_556
In6 O18 2.147902 1_556
In6 O56 2.148162 1_555
In6 O20 2.152997 1_556
In6 O54 2.238217 1_555
In6 O55 2.247944 1_555
In7 O21 2.083849 1_555
In7 O22 2.147902 1_555
In7 O59 2.148162 1_555
In7 O23 2.152997 1_555
In7 O58 2.238217 1_555
In7 O57 2.247944 1_555
In8 O26 2.080409 1_554
In8 O25 2.139473 1_554
In8 O61 2.145297 1_555
In8 O24 2.160194 1_554
In8 O62 2.228510 1_555
In8 O60 2.268600 1_555
In9 O29 2.080409 1_555
In9 O27 2.139473 1_555
In9 O63 2.145297 1_555
In9 O28 2.160194 1_555
In9 O65 2.228510 1_555
In9 O64 2.268600 1_555
In10 O30 2.073260 1_555
In10 O32 2.144922 1_555
In10 O68 2.153003 1_555
In10 O31 2.166021 1_555
In10 O66 2.238927 1_555
In10 O67 2.242262 1_555
In11 O34 2.073260 1_555
In11 O35 2.144922 1_555
In11 O71 2.153003 1_555
In11 O33 2.166021 1_555
In11 O70 2.238927 1_555
In11 O69 2.242262 1_555
O0 P0 1.545443 1_555
O1 P1 1.545619 1_555
O2 Si0 1.639113 1_555
O3 P2 1.545619 1_555
O4 P3 1.545443 1_555
O5 Si1 1.639113 1_555
O6 Si1 1.639493 1_565
O7 P2 1.549396 1_555
O8 P3 1.547247 1_455
O9 P1 1.549396 1_555
O10 Si0 1.639493 1_455
O11 P0 1.547247 1_565
O12 P4 1.551950 1_555
O13 Si2 1.634856 1_555
O14 P5 1.553139 1_555
O15 Si3 1.634856 1_555
O16 P6 1.551950 1_555
O17 P7 1.553139 1_555
O18 P7 1.544982 1_555
O19 Si3 1.641021 1_555
O20 P6 1.545695 1_555
O21 Si2 1.641021 1_555
O22 P5 1.544982 1_555
O23 P4 1.545695 1_555
O24 P8 1.550931 1_555
O25 P9 1.548956 1_555
O26 Si4 1.636743 1_555
O27 P10 1.548956 1_555
O28 P11 1.550931 1_555
O29 Si5 1.636743 1_555
O30 Si5 1.637244 1_555
O31 P10 1.552128 1_555
O32 P11 1.550829 1_555
O33 P9 1.552128 1_555
O34 Si4 1.637244 1_555
O35 P8 1.550829 1_555
O36 Si5 1.656381 1_555
O37 P10 1.553139 1_555
O38 P11 1.556776 1_555
O39 P9 1.553139 1_555
O40 Si4 1.656381 1_555
O41 P8 1.556776 1_555
O42 P4 1.555892 1_555
O43 Si2 1.657810 1_555
O44 P5 1.555829 1_555
O45 Si3 1.657809 1_555
O46 P6 1.555892 1_555
O47 P7 1.555829 1_555
O48 Si1 1.655988 1_555
O49 P2 1.557948 1_555
O50 P3 1.559331 1_555
O51 P1 1.557948 1_555
O52 Si0 1.655988 1_555
O53 P0 1.559331 1_555
O54 P8 1.554921 1_555
O55 P9 1.559219 1_655
O56 Si4 1.655233 1_545
O57 P10 1.559218 1_545
O58 P11 1.554921 1_555
O59 Si5 1.655233 1_655
O60 P7 1.561076 1_555
O61 Si3 1.653960 1_455
O62 P6 1.558153 1_565
O63 Si2 1.653960 1_565
O64 P5 1.561076 1_555
O65 P4 1.558153 1_455
O66 P0 1.558731 1_565
O67 P1 1.560162 1_555
O68 Si0 1.656473 1_455
O69 P2 1.560162 1_555
O70 P3 1.558731 1_455
O71 Si1 1.656473 1_565
