# generated using pymatgen
data_MgTi2Zn4O8
_symmetry_space_group_name_H-M   'P 1'
_cell_length_a   6.37330044
_cell_length_b   5.89715472
_cell_length_c   6.02436564
_cell_angle_alpha   60.69609547
_cell_angle_beta   62.11143809
_cell_angle_gamma   62.44206237
_symmetry_Int_Tables_number   1
_chemical_formula_structural   MgTi2Zn4O8
_chemical_formula_sum   'Mg1 Ti2 Zn4 O8'
_cell_volume   166.30014582
_cell_formula_units_Z   1
loop_
 _symmetry_equiv_pos_site_id
 _symmetry_equiv_pos_as_xyz
  1  'x, y, z'
loop_
 _atom_site_type_symbol
 _atom_site_label
 _atom_site_symmetry_multiplicity
 _atom_site_fract_x
 _atom_site_fract_y
 _atom_site_fract_z
 _atom_site_occupancy
  Mg  Mg0  1  0.50000000  0.00000000  0.00000000  1
  Ti  Ti0  1  0.50000000  0.00000000  0.50000000  1
  Ti  Ti1  1  0.50000000  0.50000000  0.50000000  1
  Zn  Zn0  1  0.04595000  0.14322600  0.16759900  1
  Zn  Zn1  1  0.50000000  0.50000000  0.00000000  1
  Zn  Zn2  1  0.00000000  0.50000000  0.50000000  1
  Zn  Zn3  1  0.95405000  0.85677400  0.83240100  1
  O  O0  1  0.26777700  0.23053700  0.26479900  1
  O  O1  1  0.26777700  0.73688600  0.26479900  1
  O  O2  1  0.27402600  0.23729300  0.75138700  1
  O  O3  1  0.69764200  0.26876900  0.26481800  1
  O  O4  1  0.30235800  0.73123100  0.73518200  1
  O  O5  1  0.72597400  0.76270700  0.24861300  1
  O  O6  1  0.73222300  0.26311400  0.73520100  1
  O  O7  1  0.73222300  0.76946300  0.73520100  1
loop_
_geom_bond_atom_site_label_1
_geom_bond_atom_site_label_2
_geom_bond_distance
_geom_bond_site_symmetry_2
Mg0 O5 2.092156 1_545
Mg0 O2 2.092156 1_554
Mg0 O7 2.153136 1_544
Mg0 O0 2.153136 1_555
Mg0 O6 2.153140 1_554
Mg0 O1 2.153140 1_545
O0 Ti0 2.064186 1_555
O0 Zn0 2.085640 1_555
O0 Zn1 2.178626 1_555
O0 Zn2 2.208599 1_555
O1 Ti1 2.064186 1_555
O1 Zn0 2.085648 1_565
O1 Zn1 2.178622 1_555
O1 Zn2 2.208595 1_555
O2 Ti0 2.120186 1_555
O2 Ti1 2.120191 1_555
O2 Zn0 2.163939 1_556
O2 Zn2 2.327634 1_555
O3 Zn0 1.872548 1_655
O3 Ti0 2.021322 1_555
O3 Ti1 2.021330 1_555
O3 Zn1 2.037746 1_555
O4 Zn3 1.872548 1_455
O4 Ti0 2.021322 1_565
O4 Ti1 2.021330 1_555
O4 Zn1 2.037746 1_556
O5 Ti0 2.120186 1_565
O5 Ti1 2.120191 1_555
O5 Zn3 2.163939 1_554
O5 Zn2 2.327634 1_655
O6 Ti1 2.064186 1_555
O6 Zn3 2.085648 1_545
O6 Zn1 2.178622 1_556
O6 Zn2 2.208595 1_655
O7 Ti0 2.064186 1_565
O7 Zn3 2.085640 1_555
O7 Zn1 2.178626 1_556
O7 Zn2 2.208599 1_655
