# generated using pymatgen
data_Na4Ca3SiGeS5O24
_symmetry_space_group_name_H-M   'P 1'
_cell_length_a   9.11114838
_cell_length_b   9.17326946
_cell_length_c   23.19840427
_cell_angle_alpha   90.69342898
_cell_angle_beta   89.32896180
_cell_angle_gamma   120.47754753
_symmetry_Int_Tables_number   1
_chemical_formula_structural   Na4Ca3SiGeS5O24
_chemical_formula_sum   'Na12 Ca9 Si3 Ge3 S15 O72'
_cell_volume   1670.84084984
_cell_formula_units_Z   3
loop_
 _symmetry_equiv_pos_site_id
 _symmetry_equiv_pos_as_xyz
  1  'x, y, z'
loop_
 _atom_site_type_symbol
 _atom_site_label
 _atom_site_symmetry_multiplicity
 _atom_site_fract_x
 _atom_site_fract_y
 _atom_site_fract_z
 _atom_site_occupancy
  Na  Na0  1  0.35853463  0.35729346  0.25277724  1
  Na  Na1  1  0.31730402  0.34722869  0.59013057  1
  Na  Na2  1  0.02235028  0.69313790  0.57884033  1
  Na  Na3  1  0.98921841  0.68277295  0.92355417  1
  Na  Na4  1  0.69179743  0.01860053  0.91038565  1
  Na  Na5  1  0.31488175  0.30227943  0.92192592  1
  Na  Na6  1  0.96210850  0.98030910  0.50128590  1
  Na  Na7  1  0.02066396  0.01931513  0.99810389  1
  Na  Na8  1  0.66269324  0.33037520  0.83132745  1
  Na  Na9  1  0.68206233  0.32815572  0.33565844  1
  Na  Na10  1  0.33077529  0.68425273  0.17018616  1
  Na  Na11  1  0.38699685  0.67885235  0.67036029  1
  Ca  Ca0  1  0.99218466  0.99258264  0.35373023  1
  Ca  Ca1  1  0.00331567  0.00474839  0.84535774  1
  Ca  Ca2  1  0.97671193  0.98920702  0.65195067  1
  Ca  Ca3  1  0.99792430  0.99247756  0.14455984  1
  Ca  Ca4  1  0.66150311  0.33188185  0.68854164  1
  Ca  Ca5  1  0.67845495  0.33360998  0.18666914  1
  Ca  Ca6  1  0.32881778  0.66000284  0.01891555  1
  Ca  Ca7  1  0.34624525  0.67153122  0.51368965  1
  Ca  Ca8  1  0.33776315  0.68071634  0.32312199  1
  Si  Si0  1  0.66842986  0.62253218  0.58164445  1
  Si  Si1  1  0.03550380  0.37602244  0.91688622  1
  Si  Si2  1  0.33716898  0.96808731  0.92019500  1
  Ge  Ge0  1  0.67378937  0.31275053  0.98098227  1
  Ge  Ge1  1  0.66993695  0.34385955  0.48390775  1
  Ge  Ge2  1  0.31020239  0.68300585  0.82265186  1
  S  S0  1  0.29807220  0.99735748  0.24980279  1
  S  S1  1  0.69004634  0.69539329  0.25015647  1
  S  S2  1  0.00862529  0.30202066  0.25150547  1
  S  S3  1  0.30712362  0.33165673  0.75470567  1
  S  S4  1  0.01593061  0.69217346  0.75444625  1
  S  S5  1  0.66539118  0.97724225  0.75918953  1
  S  S6  1  0.95026495  0.32765618  0.57742797  1
  S  S7  1  0.37606857  0.04961191  0.57887822  1
  S  S8  1  0.94418033  0.62053138  0.07620326  1
  S  S9  1  0.67931716  0.04749614  0.07741868  1
  S  S10  1  0.38692300  0.32583434  0.07797463  1
  S  S11  1  0.62046458  0.65495768  0.91434360  1
  S  S12  1  0.64443440  0.00218565  0.42291787  1
  S  S13  1  0.34989824  0.35521604  0.42018493  1
  S  S14  1  0.00901058  0.65003705  0.42379728  1
  O  O0  1  0.20733406  0.00467216  0.30169349  1
  O  O1  1  0.78241470  0.78231509  0.30262507  1
  O  O2  1  0.00001845  0.20606319  0.30305091  1
  O  O3  1  0.21759066  0.23079857  0.80565264  1
  O  O4  1  0.99802107  0.77320201  0.80662923  1
  O  O5  1  0.76224181  0.99404420  0.81120190  1
  O  O6  1  0.74854594  0.95960153  0.70653435  1
  O  O7  1  0.21494416  0.24761485  0.70032997  1
  O  O8  1  0.03204283  0.78697889  0.70151854  1
  O  O9  1  0.77808689  0.78734064  0.19755515  1
  O  O10  1  0.01822166  0.21582721  0.19839762  1
  O  O11  1  0.20460594  0.98633262  0.19683172  1
  O  O12  1  0.86600419  0.33578242  0.63012764  1
  O  O13  1  0.47684339  0.11587804  0.63099131  1
  O  O14  1  0.64161340  0.50634415  0.63609162  1
  O  O15  1  0.84968746  0.53222201  0.12728535  1
  O  O16  1  0.67516727  0.14380056  0.12636952  1
  O  O17  1  0.47092537  0.32379091  0.13079776  1
  O  O18  1  0.48151341  0.31334012  0.02259796  1
  O  O19  1  0.84558244  0.52629973  0.02083213  1
  O  O20  1  0.68977320  0.14083061  0.02011074  1
  O  O21  1  0.46822228  0.15490098  0.52606855  1
  O  O22  1  0.69989854  0.52180020  0.52251268  1
  O  O23  1  0.84313188  0.30078795  0.52432518  1
  O  O24  1  0.56019502  0.69334630  0.96785367  1
  O  O25  1  0.16782270  0.43676874  0.96811781  1
  O  O26  1  0.29357131  0.84271584  0.97184967  1
  O  O27  1  0.55990144  0.90109987  0.47386578  1
  O  O28  1  0.33313408  0.43913975  0.47202845  1
  O  O29  1  0.10194284  0.66737481  0.47709520  1
  O  O30  1  0.09850704  0.63728024  0.37269587  1
  O  O31  1  0.54812064  0.92636389  0.36967430  1
  O  O32  1  0.37053589  0.45369277  0.36741953  1
  O  O33  1  0.12505648  0.52310796  0.86180478  1
  O  O34  1  0.38338216  0.88260584  0.86085748  1
  O  O35  1  0.50651947  0.63004358  0.86441335  1
  O  O36  1  0.97448081  0.78961208  0.41955028  1
  O  O37  1  0.81904375  0.03225607  0.41909724  1
  O  O38  1  0.20356660  0.18227309  0.41654620  1
  O  O39  1  0.97811304  0.18354378  0.90262858  1
  O  O40  1  0.18735481  0.00753225  0.91040789  1
  O  O41  1  0.79768951  0.79708535  0.90505825  1
  O  O42  1  0.98610278  0.18689971  0.57876259  1
  O  O43  1  0.21474474  0.05436043  0.58331371  1
  O  O44  1  0.84750802  0.80452459  0.58086469  1
  O  O45  1  0.96267140  0.78983411  0.07201527  1
  O  O46  1  0.83414531  0.03533247  0.07530412  1
  O  O47  1  0.21462410  0.17494966  0.07408374  1
  O  O48  1  0.63857546  0.12217344  0.75500723  1
  O  O49  1  0.48059890  0.35578562  0.75420082  1
  O  O50  1  0.87658909  0.51545022  0.75165429  1
  O  O51  1  0.66491666  0.52082801  0.25005067  1
  O  O52  1  0.85953403  0.32567651  0.25161210  1
  O  O53  1  0.46652450  0.15931105  0.24978414  1
  O  O54  1  0.62578136  0.49384301  0.91796906  1
  O  O55  1  0.84857849  0.37766720  0.92715167  1
  O  O56  1  0.52510524  0.15906725  0.92663918  1
  O  O57  1  0.65189629  0.17267685  0.42781643  1
  O  O58  1  0.51282069  0.34599572  0.42396261  1
  O  O59  1  0.83981596  0.48085321  0.42427184  1
  O  O60  1  0.38230526  0.48274698  0.07594305  1
  O  O61  1  0.11044361  0.63117179  0.07681069  1
  O  O62  1  0.52498977  0.88084831  0.07700078  1
  O  O63  1  0.33043351  0.87196066  0.57063178  1
  O  O64  1  0.49640587  0.63462379  0.57712678  1
  O  O65  1  0.11577139  0.48970385  0.57281991  1
  O  O66  1  0.32370882  0.85023352  0.25138570  1
  O  O67  1  0.51477318  0.67245647  0.25113329  1
  O  O68  1  0.16985752  0.47145536  0.25316917  1
  O  O69  1  0.31388493  0.49923543  0.75860576  1
  O  O70  1  0.18604229  0.69506895  0.75803377  1
  O  O71  1  0.49502533  0.81116285  0.76215422  1
loop_
_geom_bond_atom_site_label_1
_geom_bond_atom_site_label_2
_geom_bond_distance
_geom_bond_site_symmetry_2
Na0 O51 2.407712 1_555
Na0 O68 2.424371 1_555
Na0 O53 2.465623 1_555
Na0 O67 2.492550 1_555
Na0 O32 2.778268 1_555
Na1 O64 2.312554 1_555
Na1 O43 2.358472 1_555
Na1 O42 2.616462 1_455
Na1 O7 2.715958 1_555
Na1 O14 2.767568 1_555
Na1 O65 2.775860 1_555
Na1 O28 2.856810 1_555
Na2 O44 2.287394 1_455
Na2 O65 2.414279 1_555
Na2 O63 2.435264 1_555
Na2 O29 2.504621 1_555
Na2 O43 2.857834 1_565
Na2 O8 2.952569 1_555
Na3 O55 2.418145 1_555
Na3 O41 2.492704 1_555
Na3 O40 2.603962 1_665
Na3 O19 2.639951 1_556
Na3 O26 2.646378 1_655
Na3 O33 2.734132 1_655
Na3 O4 2.834420 1_555
Na3 O54 2.858046 1_555
Na4 O39 2.262421 1_555
Na4 O5 2.419995 1_545
Na4 O56 2.463558 1_555
Na4 O41 2.656136 1_545
Na4 O34 2.693982 1_545
Na4 O20 2.772659 1_556
Na4 O55 2.872309 1_555
Na4 O24 2.923519 1_545
Na5 O40 2.352639 1_555
Na5 O54 2.463480 1_555
Na5 O25 2.465111 1_555
Na5 O39 2.726121 1_455
Na5 O18 2.773181 1_556
Na5 O3 2.813365 1_555
Na5 O56 2.822657 1_555
Na5 O35 2.930182 1_555
Na6 O44 2.327551 1_555
Na6 O37 2.504343 1_565
Na6 O42 2.525103 1_565
Na6 O36 2.604397 1_555
Na6 O43 2.804643 1_665
Na6 O38 2.826489 1_665
Na7 O47 2.391815 1_556
Na7 O46 2.508502 1_456
Na7 O40 2.558498 1_555
Na7 O45 2.566783 1_446
Na7 O39 2.831766 1_455
Na7 O41 2.955884 1_445
Na8 O48 2.516387 1_555
Na8 O49 2.545608 1_555
Na8 O50 2.594568 1_555
Na8 O54 2.612351 1_555
Na8 O56 2.636413 1_555
Na8 O55 2.705124 1_555
Na9 O59 2.492191 1_555
Na9 O57 2.518495 1_555
Na9 O52 2.525666 1_555
Na9 O58 2.602844 1_555
Na9 O53 2.674998 1_555
Na9 O51 2.732140 1_555
Na10 O66 2.428563 1_555
Na10 O67 2.571208 1_555
Na10 O68 2.605307 1_555
Na10 O62 2.797198 1_555
Na10 O61 2.836206 1_555
Na10 O60 3.029126 1_555
Na11 O71 2.398177 1_555
Na11 O64 2.484920 1_555
Na11 O69 2.507136 1_555
Na11 O70 2.773599 1_555
Ca0 O1 2.244322 1_555
Ca0 O0 2.244874 1_665
Ca0 O2 2.265897 1_665
Ca0 O37 2.330984 1_565
Ca0 O38 2.337828 1_665
Ca0 O36 2.362748 1_555
Ca1 O39 2.197746 1_455
Ca1 O3 2.203918 1_555
Ca1 O40 2.259314 1_555
Ca1 O4 2.274190 1_445
Ca1 O5 2.298263 1_445
Ca1 O41 2.332313 1_445
Ca2 O44 2.220398 1_555
Ca2 O6 2.317920 1_555
Ca2 O8 2.455944 1_655
Ca2 O42 2.468293 1_565
Ca2 O43 2.494654 1_665
Ca2 O7 2.522566 1_665
Ca3 O11 2.276521 1_655
Ca3 O9 2.288954 1_555
Ca3 O10 2.313216 1_665
Ca3 O46 2.372550 1_565
Ca3 O45 2.392106 1_555
Ca3 O47 2.451776 1_665
Ca4 O14 2.102636 1_555
Ca4 O13 2.268509 1_555
Ca4 O12 2.276768 1_555
Ca4 O49 2.320481 1_555
Ca4 O50 2.340860 1_555
Ca4 O48 2.403820 1_555
Ca5 O15 2.185920 1_555
Ca5 O16 2.208732 1_555
Ca5 O17 2.268286 1_555
Ca5 O52 2.275895 1_555
Ca5 O51 2.296984 1_555
Ca5 O53 2.299426 1_555
Ca6 O25 2.160739 1_554
Ca6 O26 2.168642 1_554
Ca6 O24 2.288460 1_554
Ca6 O61 2.290127 1_555
Ca6 O62 2.330612 1_555
Ca6 O60 2.345762 1_555
Ca7 O64 2.163616 1_555
Ca7 O27 2.219061 1_555
Ca7 O28 2.277581 1_555
Ca7 O63 2.313347 1_555
Ca7 O65 2.346949 1_555
Ca7 O29 2.373615 1_555
Ca8 O30 2.303167 1_555
Ca8 O67 2.335281 1_555
Ca8 O66 2.339568 1_555
Ca8 O31 2.350729 1_555
Ca8 O68 2.379600 1_555
Ca8 O32 2.484347 1_555
Ge0 O55 1.860011 1_555
Ge0 O56 1.863227 1_555
Ge0 O20 1.898164 1_556
Ge0 O18 1.992718 1_556
Ge0 O19 2.005425 1_556
Ge0 O54 2.428717 1_555
Ge1 O22 1.749086 1_555
Ge1 O57 1.969719 1_555
Ge1 O59 1.976789 1_555
Ge1 O58 2.014746 1_555
Ge1 O21 2.026389 1_555
Ge1 O23 2.049737 1_555
Ge2 O33 1.818918 1_555
Ge2 O34 1.821751 1_555
Ge2 O70 1.926079 1_555
Ge2 O71 2.040544 1_555
Ge2 O69 2.246342 1_555
Ge2 O35 2.303794 1_555
O0 S0 1.472440 1_545
O1 S1 1.464712 1_555
O2 S2 1.471091 1_555
O3 S3 1.468531 1_555
O4 S4 1.463286 1_655
O5 S5 1.463143 1_555
O6 S5 1.479935 1_555
O7 S3 1.495121 1_555
O8 S4 1.475666 1_555
O9 S1 1.469550 1_555
O10 S2 1.481454 1_555
O11 S0 1.476354 1_555
O12 S6 1.457198 1_555
O13 S7 1.454694 1_555
O14 Si0 1.597580 1_555
O15 S8 1.446926 1_555
O16 S9 1.442225 1_555
O17 S10 1.457682 1_555
O18 S10 1.573821 1_555
O19 S8 1.554559 1_555
O20 S9 1.565699 1_555
O21 S7 1.523357 1_555
O22 Si0 1.745466 1_555
O23 S6 1.519170 1_555
O24 S11 1.461542 1_555
O25 Si1 1.585088 1_555
O26 Si2 1.573268 1_555
O27 S12 1.459692 1_565
O28 S13 1.468002 1_555
O29 S14 1.467698 1_555
O30 S14 1.467901 1_555
O31 S12 1.471364 1_565
O32 S13 1.482844 1_555
O33 Si1 1.737690 1_555
O34 Si2 1.726917 1_555
O35 S11 1.500923 1_555
O36 S14 1.469827 1_655
O37 S12 1.472078 1_555
O38 S13 1.468097 1_555
O39 Si1 1.598040 1_655
O40 Si2 1.598721 1_545
O41 S11 1.488844 1_555
O42 S6 1.484469 1_555
O43 S7 1.494733 1_555
O44 Si0 1.639050 1_555
O45 S8 1.479076 1_555
O46 S9 1.470626 1_555
O47 S10 1.477997 1_555
O48 S5 1.473037 1_545
O49 S3 1.480555 1_555
O50 S4 1.468218 1_655
O51 S1 1.498231 1_555
O52 S2 1.480288 1_655
O53 S0 1.499912 1_545
O54 S11 1.506480 1_555
O55 Si1 1.724524 1_655
O56 Si2 1.726324 1_545
O57 S12 1.533471 1_555
O58 S13 1.532611 1_555
O59 S14 1.535656 1_655
O60 S10 1.462529 1_555
O61 S8 1.467982 1_455
O62 S9 1.460700 1_565
O63 S7 1.473834 1_565
O64 Si0 1.631046 1_555
O65 S6 1.490389 1_455
O66 S0 1.482744 1_555
O67 S1 1.501141 1_555
O68 S2 1.502995 1_555
O69 S3 1.508576 1_555
O70 S4 1.539828 1_555
O71 S5 1.528510 1_555
