# generated using pymatgen
data_MgMn6(O2F)4
_symmetry_space_group_name_H-M   'P 1'
_cell_length_a   7.51554037
_cell_length_b   5.97165057
_cell_length_c   5.97160284
_cell_angle_alpha   63.09661341
_cell_angle_beta   69.66122145
_cell_angle_gamma   69.65821627
_symmetry_Int_Tables_number   1
_chemical_formula_structural   MgMn6(O2F)4
_chemical_formula_sum   'Mg1 Mn6 O8 F4'
_cell_volume   218.21594042
_cell_formula_units_Z   1
loop_
 _symmetry_equiv_pos_site_id
 _symmetry_equiv_pos_as_xyz
  1  'x, y, z'
loop_
 _atom_site_type_symbol
 _atom_site_label
 _atom_site_symmetry_multiplicity
 _atom_site_fract_x
 _atom_site_fract_y
 _atom_site_fract_z
 _atom_site_occupancy
  Mg  Mg0  1  0.16667525  0.58313907  0.08350294  1
  Mn  Mn0  1  0.79743645  0.68730753  0.65149806  1
  Mn  Mn1  1  0.66667756  0.34809765  0.31855316  1
  Mn  Mn2  1  0.22159700  0.58861064  0.55423368  1
  Mn  Mn3  1  0.16665855  0.13560241  0.53108012  1
  Mn  Mn4  1  0.53590859  0.01514686  0.97937243  1
  Mn  Mn5  1  0.11173798  0.11244391  0.07807872  1
  O  O0  1  0.66669615  0.04318149  0.62347706  1
  O  O1  1  0.31265196  0.34054246  0.87905123  1
  O  O2  1  0.98892492  0.31346445  0.27394444  1
  O  O3  1  0.34439245  0.39269985  0.35323639  1
  O  O4  1  0.32479286  0.92605249  0.32427533  1
  O  O5  1  0.66662567  0.65236117  0.01429428  1
  O  O6  1  0.00852753  0.34235364  0.74068747  1
  O  O7  1  0.02071772  0.78758220  0.32612661  1
  F  F0  1  0.28853283  0.89433385  0.87422838  1
  F  F1  1  0.64116157  0.54941942  0.52858781  1
  F  F2  1  0.69214861  0.13801015  0.11727758  1
  F  F3  1  0.04480635  0.79250775  0.77230428  1
loop_
_geom_bond_atom_site_label_1
_geom_bond_atom_site_label_2
_geom_bond_distance
_geom_bond_site_symmetry_2
Mg0 O1 2.087468 1_554
Mg0 O7 2.087549 1_555
Mg0 O3 2.110328 1_555
Mg0 O2 2.110340 1_455
Mn0 O0 1.962263 1_565
Mn0 O5 1.989117 1_556
Mn0 O7 2.080605 1_655
Mn0 O6 2.089576 1_655
Mn1 O5 1.901303 1_555
Mn1 O0 1.905420 1_555
Mn1 O2 2.287424 1_555
Mn1 O3 2.287642 1_555
Mn2 O3 1.846939 1_555
Mn2 O1 2.010649 1_555
Mn2 O7 2.065000 1_555
Mn2 O4 2.095188 1_555
Mn2 O6 2.209646 1_555
Mn3 O4 1.961574 1_545
Mn3 O6 1.961588 1_555
Mn3 O3 2.057518 1_555
Mn3 O2 2.057587 1_455
Mn4 O0 1.962452 1_555
Mn4 O5 1.988945 1_546
Mn4 O1 2.080520 1_555
Mn4 O4 2.089531 1_546
Mn5 O2 1.846849 1_455
Mn5 O7 2.010782 1_545
Mn5 O1 2.065271 1_554
Mn5 O6 2.094900 1_554
Mn5 O4 2.209230 1_545
F0 Mn5 2.012728 1_566
F0 Mg0 2.034673 1_556
F0 Mn3 2.197547 1_565
F0 Mn4 2.554434 1_565
F1 Mn1 2.022957 1_555
F1 Mn0 2.101119 1_555
F2 Mn1 2.023106 1_555
F2 Mn4 2.100776 1_554
F3 Mn2 2.012747 1_555
F3 Mg0 2.034684 1_556
F3 Mn3 2.197272 1_565
F3 Mn0 2.554574 1_455
