# generated using pymatgen
data_Na14Ta4Zn4Si9(SO16)3
_symmetry_space_group_name_H-M   'P 1'
_cell_length_a   18.27467117
_cell_length_b   9.11891860
_cell_length_c   22.26041293
_cell_angle_alpha   90.01107978
_cell_angle_beta   89.99220788
_cell_angle_gamma   119.99528090
_symmetry_Int_Tables_number   1
_chemical_formula_structural   Na14Ta4Zn4Si9(SO16)3
_chemical_formula_sum   'Na42 Ta12 Zn12 Si27 S9 O144'
_cell_volume   3212.75345553
_cell_formula_units_Z   3
loop_
 _symmetry_equiv_pos_site_id
 _symmetry_equiv_pos_as_xyz
  1  'x, y, z'
loop_
 _atom_site_type_symbol
 _atom_site_label
 _atom_site_symmetry_multiplicity
 _atom_site_fract_x
 _atom_site_fract_y
 _atom_site_fract_z
 _atom_site_occupancy
  Na  Na0  1  0.82028749  0.98900234  0.26382600  1
  Na  Na1  1  0.17017493  0.33924716  0.24949763  1
  Na  Na2  1  0.66728544  0.35566214  0.25287568  1
  Na  Na3  1  0.00714682  0.65772485  0.24300365  1
  Na  Na4  1  0.51120798  0.64834305  0.25405934  1
  Na  Na5  1  0.32007162  0.64941494  0.76787662  1
  Na  Na6  1  0.01090687  0.37117772  0.75907827  1
  Na  Na7  1  0.50501366  0.36061898  0.74763693  1
  Na  Na8  1  0.17038609  0.98002469  0.75921083  1
  Na  Na9  1  0.66645347  0.99600839  0.75653654  1
  Na  Na10  1  0.14161894  0.31181040  0.58828391  1
  Na  Na11  1  0.64204462  0.31472335  0.58967978  1
  Na  Na12  1  0.34093523  0.98763182  0.58432976  1
  Na  Na13  1  0.84121147  0.97299349  0.59449652  1
  Na  Na14  1  0.14479802  0.97567952  0.09016295  1
  Na  Na15  1  0.63790234  0.96631256  0.08823182  1
  Na  Na16  1  0.34528216  0.70656807  0.09237991  1
  Na  Na17  1  0.84071328  0.69973795  0.07961088  1
  Na  Na18  1  0.47397677  0.66226066  0.92229480  1
  Na  Na19  1  0.97524890  0.64518304  0.92288480  1
  Na  Na20  1  0.35543367  0.05261892  0.91376947  1
  Na  Na21  1  0.84705672  0.04080978  0.92394287  1
  Na  Na22  1  0.17106044  0.29150708  0.92984270  1
  Na  Na23  1  0.66763093  0.27901620  0.92057690  1
  Na  Na24  1  0.47488879  0.30792956  0.42027588  1
  Na  Na25  1  0.97792116  0.28937984  0.40881000  1
  Na  Na26  1  0.16878189  0.05617866  0.41498009  1
  Na  Na27  1  0.67124708  0.04868983  0.42595586  1
  Na  Na28  1  0.34820677  0.65202725  0.41782544  1
  Na  Na29  1  0.85375809  0.66245421  0.40770586  1
  Na  Na30  1  0.01060594  0.98319255  0.50087044  1
  Na  Na31  1  0.50542837  0.99632248  0.50814646  1
  Na  Na32  1  0.00587051  0.01821933  0.01048590  1
  Na  Na33  1  0.50855419  0.02034280  0.00587549  1
  Na  Na34  1  0.33154860  0.33278716  0.84328922  1
  Na  Na35  1  0.83290611  0.33584156  0.84340823  1
  Na  Na36  1  0.33161743  0.32472323  0.33856782  1
  Na  Na37  1  0.83213429  0.33229002  0.33881795  1
  Na  Na38  1  0.17064863  0.66826354  0.16860175  1
  Na  Na39  1  0.65053607  0.64574893  0.17056348  1
  Na  Na40  1  0.15597846  0.65948849  0.67542940  1
  Na  Na41  1  0.66517322  0.66927862  0.66986977  1
  Ta  Ta0  1  0.50213726  0.00939545  0.35189461  1
  Ta  Ta1  1  0.00168399  0.99401338  0.85267695  1
  Ta  Ta2  1  0.33280039  0.32925083  0.68449730  1
  Ta  Ta3  1  0.83366722  0.32875590  0.69051552  1
  Ta  Ta4  1  0.33855281  0.34795513  0.18788292  1
  Ta  Ta5  1  0.83375978  0.33696697  0.18416659  1
  Ta  Ta6  1  0.15517278  0.65221682  0.02060408  1
  Ta  Ta7  1  0.65975788  0.64800445  0.02042668  1
  Ta  Ta8  1  0.16616200  0.68109310  0.51826183  1
  Ta  Ta9  1  0.65477104  0.65829977  0.52053943  1
  Ta  Ta10  1  0.16577733  0.66111603  0.31276360  1
  Ta  Ta11  1  0.66702192  0.67045734  0.81329835  1
  Zn  Zn0  1  0.01863778  0.03181706  0.35101727  1
  Zn  Zn1  1  0.51809206  0.00353659  0.85348699  1
  Zn  Zn2  1  0.00978114  0.00769727  0.65985687  1
  Zn  Zn3  1  0.51999769  0.01464643  0.65039529  1
  Zn  Zn4  1  0.01947980  0.02102086  0.15192542  1
  Zn  Zn5  1  0.50638134  0.99461965  0.15334125  1
  Zn  Zn6  1  0.33504182  0.33155253  0.98447384  1
  Zn  Zn7  1  0.83140271  0.34464898  0.97931621  1
  Zn  Zn8  1  0.32986542  0.31599682  0.47819737  1
  Zn  Zn9  1  0.83007030  0.34225988  0.47889154  1
  Zn  Zn10  1  0.65145752  0.64895482  0.31653510  1
  Zn  Zn11  1  0.15334413  0.65549776  0.81982034  1
  Si  Si0  1  0.15211636  0.00042210  0.24958344  1
  Si  Si1  1  0.65082758  0.99601613  0.24936315  1
  Si  Si2  1  0.35411151  0.71051623  0.24696494  1
  Si  Si3  1  0.99629069  0.28434057  0.25298081  1
  Si  Si4  1  0.49897998  0.28847773  0.24616897  1
  Si  Si5  1  0.14947464  0.30330371  0.74784757  1
  Si  Si6  1  0.64945466  0.30253156  0.74920481  1
  Si  Si7  1  0.00189678  0.70700835  0.74742773  1
  Si  Si8  1  0.49652892  0.70884274  0.75256261  1
  Si  Si9  1  0.85547437  0.99567787  0.74600365  1
  Si  Si10  1  0.47819663  0.32341778  0.57824760  1
  Si  Si11  1  0.18072570  0.03425045  0.57910307  1
  Si  Si12  1  0.69186392  0.03998368  0.57829952  1
  Si  Si13  1  0.48085958  0.62627980  0.07758862  1
  Si  Si14  1  0.97912559  0.63437266  0.07887715  1
  Si  Si15  1  0.18985492  0.34168248  0.07991433  1
  Si  Si16  1  0.68340137  0.33021350  0.07831730  1
  Si  Si17  1  0.81336544  0.67363745  0.91849243  1
  Si  Si18  1  0.01540028  0.35991195  0.91435664  1
  Si  Si19  1  0.51878137  0.36347044  0.91256625  1
  Si  Si20  1  0.17037904  0.96004739  0.91219357  1
  Si  Si21  1  0.66362800  0.95511563  0.91949683  1
  Si  Si22  1  0.31447714  0.95724584  0.41604580  1
  Si  Si23  1  0.16267008  0.36997226  0.42133779  1
  Si  Si24  1  0.66877266  0.38139614  0.41152053  1
  Si  Si25  1  0.01730843  0.66817077  0.41342966  1
  Si  Si26  1  0.51497177  0.67087100  0.41397277  1
  S  S0  1  0.85349539  0.70037971  0.24680764  1
  S  S1  1  0.35347105  0.00669203  0.74545089  1
  S  S2  1  0.98222640  0.34792562  0.57998383  1
  S  S3  1  0.32714128  0.62380188  0.58379586  1
  S  S4  1  0.83266704  0.62516025  0.57922472  1
  S  S5  1  0.33005785  0.03757374  0.07851597  1
  S  S6  1  0.82924215  0.03415221  0.08392072  1
  S  S7  1  0.31016589  0.67648220  0.91650881  1
  S  S8  1  0.81240873  0.94844338  0.41930037  1
  O  O0  1  0.11845752  0.05470264  0.30845640  1
  O  O1  1  0.59952922  0.03168582  0.30691965  1
  O  O2  1  0.41749232  0.81190690  0.30542305  1
  O  O3  1  0.90049015  0.77431152  0.30293593  1
  O  O4  1  0.48819607  0.17921160  0.31139887  1
  O  O5  1  0.97085022  0.17229175  0.31486491  1
  O  O6  1  0.09786831  0.16376673  0.80409910  1
  O  O7  1  0.61794936  0.17746239  0.80645283  1
  O  O8  1  0.47091187  0.77088413  0.81380817  1
  O  O9  1  0.98743283  0.79683068  0.80956923  1
  O  O10  1  0.40100449  0.02769810  0.80094984  1
  O  O11  1  0.91810496  0.02533365  0.80427086  1
  O  O12  1  0.39739928  0.00345029  0.69091532  1
  O  O13  1  0.89558830  0.97923829  0.68462456  1
  O  O14  1  0.09269094  0.24163498  0.68750660  1
  O  O15  1  0.59153832  0.23646858  0.68981399  1
  O  O16  1  0.02229440  0.83076553  0.69232739  1
  O  O17  1  0.51963299  0.83653316  0.69723114  1
  O  O18  1  0.38878795  0.80669581  0.18542310  1
  O  O19  1  0.89777572  0.79452057  0.19300424  1
  O  O20  1  0.01825365  0.19789589  0.19919248  1
  O  O21  1  0.51830481  0.19305861  0.19488452  1
  O  O22  1  0.08935705  0.93949128  0.19222816  1
  O  O23  1  0.59374060  0.94403335  0.19005047  1
  O  O24  1  0.42673128  0.34445099  0.63805495  1
  O  O25  1  0.93914513  0.35757991  0.63630753  1
  O  O26  1  0.24895836  0.14564249  0.63657654  1
  O  O27  1  0.75688108  0.14597517  0.63677208  1
  O  O28  1  0.32080067  0.51212999  0.63702714  1
  O  O29  1  0.82920944  0.51238132  0.62958743  1
  O  O30  1  0.43131043  0.50712684  0.13839920  1
  O  O31  1  0.92883775  0.51079607  0.13914645  1
  O  O32  1  0.32236553  0.13663295  0.12913869  1
  O  O33  1  0.82518471  0.13590969  0.13768170  1
  O  O34  1  0.25355367  0.36794359  0.13860803  1
  O  O35  1  0.75110706  0.35327212  0.13691435  1
  O  O36  1  0.23187823  0.32132965  0.01954009  1
  O  O37  1  0.72682708  0.31268413  0.01802657  1
  O  O38  1  0.43017554  0.53771357  0.01719926  1
  O  O39  1  0.92792713  0.54988468  0.01877860  1
  O  O40  1  0.33451331  0.11741247  0.02019686  1
  O  O41  1  0.83744196  0.12502578  0.02846141  1
  O  O42  1  0.22436564  0.13206125  0.51772049  1
  O  O43  1  0.73736650  0.14242949  0.51808257  1
  O  O44  1  0.33400534  0.54900144  0.52802525  1
  O  O45  1  0.83842067  0.55588149  0.52081128  1
  O  O46  1  0.42659985  0.30474450  0.51821975  1
  O  O47  1  0.93738855  0.34994928  0.52609339  1
  O  O48  1  0.25952082  0.67376801  0.97110484  1
  O  O49  1  0.77077317  0.69731064  0.98117811  1
  O  O50  1  0.08061942  0.47067519  0.97267858  1
  O  O51  1  0.58338899  0.47175628  0.97152317  1
  O  O52  1  0.15789846  0.83161450  0.97140969  1
  O  O53  1  0.66398753  0.83671985  0.97713285  1
  O  O54  1  0.26841996  0.84795683  0.48022452  1
  O  O55  1  0.76136794  0.84895859  0.47396506  1
  O  O56  1  0.16135877  0.48382460  0.48168461  1
  O  O57  1  0.65987271  0.48650238  0.47230859  1
  O  O58  1  0.08350609  0.69069060  0.47251520  1
  O  O59  1  0.58052880  0.68981355  0.47317466  1
  O  O60  1  0.06794832  0.65143849  0.35529018  1
  O  O61  1  0.55333389  0.64077191  0.35431419  1
  O  O62  1  0.25031998  0.83298096  0.36395551  1
  O  O63  1  0.76513351  0.86917328  0.36431843  1
  O  O64  1  0.16188720  0.48002841  0.36232796  1
  O  O65  1  0.68390879  0.49249747  0.35217356  1
  O  O66  1  0.05372510  0.46606419  0.85444733  1
  O  O67  1  0.57217781  0.48259926  0.85439887  1
  O  O68  1  0.18502854  0.88122331  0.85190613  1
  O  O69  1  0.66348664  0.85056899  0.85766752  1
  O  O70  1  0.26482791  0.67063848  0.86123615  1
  O  O71  1  0.75217082  0.67265463  0.86351796  1
  O  O72  1  0.00998759  0.83678087  0.41225805  1
  O  O73  1  0.51823936  0.85565333  0.41469550  1
  O  O74  1  0.40553692  0.96191927  0.41224510  1
  O  O75  1  0.89331292  0.94949470  0.42381747  1
  O  O76  1  0.07536927  0.19029546  0.42409395  1
  O  O77  1  0.57859162  0.19584937  0.41207708  1
  O  O78  1  0.01864171  0.18134633  0.91339831  1
  O  O79  1  0.51273641  0.18090104  0.91119850  1
  O  O80  1  0.07924981  0.96365589  0.91051826  1
  O  O81  1  0.57608361  0.95823154  0.92397082  1
  O  O82  1  0.39235730  0.83443840  0.92177062  1
  O  O83  1  0.90619192  0.84985394  0.91072247  1
  O  O84  1  0.49248363  0.16230268  0.58470635  1
  O  O85  1  0.98972608  0.19432550  0.58025101  1
  O  O86  1  0.09033610  0.02206010  0.58740175  1
  O  O87  1  0.59989422  0.02102691  0.58459908  1
  O  O88  1  0.39618784  0.79691266  0.59166209  1
  O  O89  1  0.90140129  0.79902896  0.58473369  1
  O  O90  1  0.49162631  0.81275093  0.08289031  1
  O  O91  1  0.99271612  0.82333335  0.08566701  1
  O  O92  1  0.40008259  0.00538266  0.08427063  1
  O  O93  1  0.89818671  0.99883543  0.09172694  1
  O  O94  1  0.09697700  0.17903057  0.08747382  1
  O  O95  1  0.59250795  0.16795280  0.08765632  1
  O  O96  1  0.34475621  0.16905536  0.74411393  1
  O  O97  1  0.84926485  0.17751881  0.74337937  1
  O  O98  1  0.24142873  0.30180080  0.74177519  1
  O  O99  1  0.74494678  0.32152104  0.73550740  1
  O  O100  1  0.41225956  0.51304203  0.73903554  1
  O  O101  1  0.91509734  0.51753157  0.73866348  1
  O  O102  1  0.34860662  0.51889135  0.24643289  1
  O  O103  1  0.84616115  0.52234470  0.24506722  1
  O  O104  1  0.41227384  0.30336613  0.23977338  1
  O  O105  1  0.91336570  0.31465552  0.24087929  1
  O  O106  1  0.24452686  0.17034720  0.23537672  1
  O  O107  1  0.74289298  0.18195220  0.24329494  1
  O  O108  1  0.32002187  0.52483096  0.91655918  1
  O  O109  1  0.82274715  0.50886402  0.91335728  1
  O  O110  1  0.42879638  0.35628966  0.91489934  1
  O  O111  1  0.92200738  0.33010845  0.92441720  1
  O  O112  1  0.24912930  0.15095356  0.91968760  1
  O  O113  1  0.74876995  0.13682056  0.91655662  1
  O  O114  1  0.32292610  0.13942947  0.41210693  1
  O  O115  1  0.82707604  0.12416057  0.42134571  1
  O  O116  1  0.24802047  0.36009345  0.41784212  1
  O  O117  1  0.74799558  0.34756123  0.41691812  1
  O  O118  1  0.42195242  0.51300438  0.42470540  1
  O  O119  1  0.92761826  0.49232509  0.41867852  1
  O  O120  1  0.18790937  0.52644795  0.07775275  1
  O  O121  1  0.68726351  0.51882704  0.08087034  1
  O  O122  1  0.07584607  0.65083249  0.07819122  1
  O  O123  1  0.57777583  0.64412229  0.07852055  1
  O  O124  1  0.24622614  0.86691237  0.08103065  1
  O  O125  1  0.74542274  0.87065795  0.08783617  1
  O  O126  1  0.18128748  0.84780361  0.58222972  1
  O  O127  1  0.68870416  0.85041751  0.57895480  1
  O  O128  1  0.24324111  0.62384038  0.58746115  1
  O  O129  1  0.74791480  0.62226647  0.58296067  1
  O  O130  1  0.07079551  0.50273129  0.58276600  1
  O  O131  1  0.57547001  0.50097083  0.57838504  1
  O  O132  1  0.16578542  0.83426751  0.25919934  1
  O  O133  1  0.67490234  0.85070026  0.26263337  1
  O  O134  1  0.25415965  0.65701953  0.25934671  1
  O  O135  1  0.76678437  0.67347784  0.24709578  1
  O  O136  1  0.07909211  0.48250709  0.25705242  1
  O  O137  1  0.57791716  0.48190421  0.25065104  1
  O  O138  1  0.17339403  0.49642393  0.76091181  1
  O  O139  1  0.66593291  0.49678641  0.75713962  1
  O  O140  1  0.07985340  0.67125712  0.75350497  1
  O  O141  1  0.57804904  0.67276192  0.75691874  1
  O  O142  1  0.26686136  0.85927873  0.74567913  1
  O  O143  1  0.75559353  0.84846483  0.75549416  1
loop_
_geom_bond_atom_site_label_1
_geom_bond_atom_site_label_2
_geom_bond_distance
_geom_bond_site_symmetry_2
Na0 O133 2.302155 1_555
Na0 O63 2.472494 1_555
Na0 O135 2.561265 1_555
Na0 O105 2.631090 1_565
Na0 O5 2.656505 1_565
Na0 O107 2.791737 1_565
Na1 O134 2.520636 1_555
Na1 O106 2.531666 1_555
Na1 O136 2.584471 1_555
Na1 O0 2.626295 1_555
Na1 O20 2.654345 1_555
Na1 O102 2.824885 1_555
Na1 O34 2.843236 1_555
Na1 O64 2.858750 1_555
Na2 O137 2.423805 1_555
Na2 O65 2.480987 1_555
Na2 O135 2.540299 1_555
Na2 O107 2.579138 1_555
Na2 O21 2.690964 1_555
Na2 O1 2.837581 1_555
Na2 O103 2.838702 1_555
Na2 O35 3.007085 1_555
Na3 O22 2.505496 1_555
Na3 O132 2.541625 1_555
Na3 O136 2.545612 1_555
Na3 O103 2.559272 1_455
Na3 O31 2.696405 1_455
Na3 O105 2.713966 1_455
Na3 O60 2.747746 1_555
Na4 O61 2.373106 1_555
Na4 O137 2.376006 1_555
Na4 O102 2.597090 1_555
Na4 O133 2.621268 1_555
Na4 O23 2.740469 1_555
Na4 O104 2.753016 1_555
Na4 O30 2.922111 1_555
Na4 O2 3.002982 1_555
Na5 O138 2.327307 1_555
Na5 O70 2.360150 1_555
Na5 O142 2.590990 1_555
Na5 O8 2.611199 1_555
Na5 O100 2.625079 1_555
Na5 O98 2.809916 1_555
Na6 O66 2.278307 1_555
Na6 O140 2.375626 1_555
Na6 O138 2.594712 1_555
Na6 O97 2.598232 1_455
Na6 O101 2.718471 1_455
Na6 O14 2.816281 1_555
Na6 O11 2.913285 1_455
Na6 O25 3.007050 1_455
Na7 O141 2.475365 1_555
Na7 O96 2.553324 1_555
Na7 O139 2.565856 1_555
Na7 O67 2.650763 1_555
Na7 O100 2.682841 1_555
Na7 O15 2.688391 1_555
Na7 O24 2.794389 1_555
Na7 O10 2.910149 1_555
Na8 O68 2.320134 1_555
Na8 O140 2.454254 1_555
Na8 O142 2.520348 1_555
Na8 O98 2.576308 1_565
Na8 O16 2.776822 1_555
Na8 O96 2.783215 1_565
Na8 O6 2.789492 1_565
Na9 O7 2.494751 1_565
Na9 O141 2.556827 1_555
Na9 O143 2.579882 1_555
Na9 O69 2.599824 1_555
Na9 O99 2.613575 1_565
Na9 O17 2.674988 1_555
Na10 O86 2.320361 1_555
Na10 O14 2.348494 1_555
Na10 O85 2.431345 1_455
Na10 O128 2.502388 1_555
Na10 O130 2.640912 1_555
Na10 O56 2.767109 1_555
Na11 O84 2.369823 1_555
Na11 O15 2.381429 1_555
Na11 O87 2.390833 1_555
Na11 O129 2.491094 1_555
Na11 O131 2.548358 1_555
Na12 O84 2.407608 1_565
Na12 O88 2.413877 1_555
Na12 O126 2.533844 1_555
Na12 O12 2.562552 1_565
Na12 O54 2.657240 1_555
Na13 O13 2.227067 1_555
Na13 O89 2.349076 1_555
Na13 O127 2.453956 1_555
Na13 O85 2.462361 1_565
Na13 O129 2.783762 1_555
Na13 O27 2.859805 1_565
Na13 O55 2.992827 1_555
Na14 O91 2.409097 1_455
Na14 O94 2.413763 1_565
Na14 O22 2.441888 1_555
Na14 O124 2.509735 1_555
Na14 O122 2.588709 1_555
Na15 O90 2.319060 1_555
Na15 O95 2.365263 1_565
Na15 O23 2.380225 1_555
Na15 O125 2.517027 1_555
Na15 O123 2.580325 1_555
Na15 O53 2.881291 1_554
Na16 O18 2.242646 1_555
Na16 O90 2.354846 1_555
Na16 O92 2.394178 1_565
Na16 O120 2.520284 1_555
Na16 O124 2.850503 1_555
Na17 O93 2.397998 1_555
Na17 O91 2.423709 1_555
Na17 O121 2.441430 1_555
Na17 O49 2.531349 1_554
Na17 O19 2.702714 1_555
Na18 O38 2.342060 1_556
Na18 O81 2.394170 1_555
Na18 O108 2.444820 1_555
Na18 O110 2.487993 1_555
Na18 O8 2.621590 1_555
Na18 O82 2.651717 1_555
Na19 O39 2.304024 1_556
Na19 O109 2.427620 1_555
Na19 O111 2.531346 1_555
Na19 O80 2.569703 1_655
Na19 O83 2.739452 1_555
Na19 O9 2.831604 1_555
Na20 O110 2.398793 1_555
Na20 O82 2.405805 1_545
Na20 O79 2.504605 1_555
Na20 O40 2.516555 1_556
Na20 O112 2.517355 1_555
Na20 O10 2.690875 1_555
Na21 O111 2.285351 1_555
Na21 O113 2.364787 1_555
Na21 O83 2.483520 1_545
Na21 O41 2.483533 1_556
Na21 O78 2.740769 1_655
Na22 O36 2.234776 1_556
Na22 O112 2.357410 1_555
Na22 O78 2.470637 1_555
Na22 O108 2.496749 1_555
Na22 O80 2.631053 1_545
Na23 O37 2.374566 1_556
Na23 O113 2.410469 1_555
Na23 O79 2.514855 1_555
Na23 O81 2.543297 1_545
Na23 O109 2.552221 1_555
Na23 O7 2.700895 1_555
Na24 O46 2.346709 1_555
Na24 O114 2.416545 1_555
Na24 O118 2.500287 1_555
Na24 O77 2.570197 1_555
Na24 O4 2.755917 1_555
Na24 O74 2.755952 1_545
Na25 O5 2.321924 1_555
Na25 O76 2.390108 1_655
Na25 O115 2.407113 1_555
Na25 O119 2.453359 1_555
Na25 O75 2.705032 1_545
Na25 O47 2.842159 1_555
Na26 O116 2.401846 1_555
Na26 O42 2.457320 1_555
Na26 O114 2.525334 1_555
Na26 O0 2.541071 1_555
Na26 O76 2.557011 1_555
Na26 O72 2.573424 1_545
Na27 O43 2.315960 1_555
Na27 O117 2.369290 1_555
Na27 O73 2.461432 1_545
Na27 O115 2.575672 1_555
Na27 O77 2.652459 1_555
Na27 O1 2.925880 1_555
Na27 O59 3.023108 1_545
Na28 O118 2.270515 1_555
Na28 O116 2.359168 1_555
Na28 O74 2.477612 1_555
Na28 O44 2.593180 1_555
Na28 O73 2.709066 1_555
Na28 O2 2.853803 1_555
Na29 O75 2.368620 1_555
Na29 O72 2.480056 1_655
Na29 O3 2.517623 1_555
Na29 O119 2.526326 1_555
Na29 O117 2.544419 1_555
Na29 O45 2.662817 1_555
Na30 O86 2.333041 1_565
Na30 O76 2.377852 1_565
Na30 O72 2.378553 1_555
Na30 O89 2.633870 1_455
Na30 O75 2.640685 1_455
Na30 O85 2.776307 1_465
Na31 O87 2.353535 1_565
Na31 O84 2.368164 1_565
Na31 O73 2.515320 1_555
Na31 O88 2.668115 1_555
Na31 O77 2.690703 1_565
Na31 O74 2.723305 1_555
Na32 O94 2.327686 1_555
Na32 O91 2.364476 1_445
Na32 O78 2.567500 1_554
Na32 O93 2.612605 1_445
Na32 O80 2.768345 1_544
Na32 O83 2.794762 1_444
Na33 O95 2.326969 1_555
Na33 O81 2.421936 1_544
Na33 O90 2.456398 1_545
Na33 O79 2.545684 1_554
Na33 O92 2.592725 1_555
Na33 O82 2.699757 1_544
Na34 O110 2.316278 1_555
Na34 O112 2.326698 1_555
Na34 O108 2.477711 1_555
Na34 O98 2.726551 1_555
Na34 O96 2.742306 1_555
Na34 O100 2.799929 1_555
Na35 O109 2.289157 1_555
Na35 O113 2.349385 1_555
Na35 O111 2.447835 1_555
Na35 O97 2.749904 1_555
Na35 O101 2.819587 1_555
Na35 O99 2.856769 1_555
Na36 O114 2.300589 1_555
Na36 O116 2.458400 1_555
Na36 O118 2.552522 1_555
Na36 O102 2.624778 1_555
Na36 O104 2.707949 1_555
Na36 O106 2.747891 1_555
Na37 O117 2.370533 1_555
Na37 O119 2.405942 1_555
Na37 O115 2.609877 1_555
Na37 O107 2.612465 1_555
Na37 O103 2.642283 1_555
Na37 O105 2.687057 1_555
Na38 O120 2.503677 1_555
Na38 O124 2.547176 1_555
Na38 O132 2.549499 1_555
Na38 O134 2.564657 1_555
Na38 O136 2.590783 1_555
Na38 O122 2.608201 1_555
Na39 O137 2.278081 1_555
Na39 O123 2.438708 1_555
Na39 O121 2.559673 1_555
Na39 O135 2.634981 1_555
Na39 O125 2.655027 1_555
Na39 O133 2.656761 1_555
Na40 O140 2.261861 1_555
Na40 O142 2.485815 1_555
Na40 O138 2.531353 1_555
Na40 O130 2.548783 1_555
Na40 O126 2.583411 1_555
Na40 O128 2.645852 1_555
Na41 O139 2.504257 1_555
Na41 O127 2.509974 1_555
Na41 O143 2.516613 1_555
Na41 O141 2.518048 1_555
Na41 O131 2.583453 1_555
Na41 O129 2.619155 1_555
O0 Si0 1.626289 1_555
O0 Zn0 1.971735 1_555
O1 Si1 1.711894 1_545
O1 Ta0 1.961944 1_555
O2 Si2 1.678986 1_555
O2 Ta0 1.980023 1_565
O3 S0 1.474527 1_555
O4 Si4 1.715870 1_555
O4 Ta0 1.915872 1_555
O5 Si3 1.638060 1_555
O5 Zn0 2.042136 1_655
O6 Si5 1.696143 1_555
O6 Ta1 1.983630 1_545
O7 Si6 1.612464 1_555
O7 Zn1 2.011975 1_555
O8 Si8 1.631656 1_555
O8 Zn1 2.048177 1_565
O9 Si7 1.694168 1_655
O9 Ta1 1.937258 1_655
O10 S1 1.466757 1_555
O11 Si9 1.660202 1_545
O11 Ta1 2.003069 1_645
O12 S1 1.463737 1_555
O12 Zn3 2.369470 1_555
O13 Si9 1.592555 1_555
O13 Zn2 2.045596 1_665
O14 Si5 1.616759 1_555
O14 Zn2 1.998326 1_555
O15 Si6 1.610447 1_555
O15 Zn3 1.981490 1_555
O16 Si7 1.580118 1_555
O16 Zn2 1.883423 1_565
O17 Si8 1.600010 1_555
O17 Zn3 1.927404 1_565
O18 Si2 1.578630 1_555
O18 Zn5 2.093497 1_555
O19 S0 1.460064 1_555
O19 Zn4 2.335795 1_665
O20 Si3 1.591220 1_455
O20 Zn4 1.935082 1_555
O21 Si4 1.578561 1_555
O21 Zn5 1.944817 1_545
O22 Si0 1.617768 1_565
O22 Zn4 1.984473 1_565
O23 Si1 1.600624 1_555
O23 Zn5 2.041094 1_555
O24 Si10 1.695209 1_555
O24 Ta2 1.948397 1_555
O25 S2 1.506175 1_555
O25 Ta3 2.175694 1_555
O26 Si11 1.719583 1_555
O26 Ta2 1.929662 1_555
O27 Si12 1.700542 1_555
O27 Ta3 1.959487 1_555
O28 S3 1.528716 1_555
O28 Ta2 2.076584 1_555
O29 S4 1.501316 1_555
O29 Ta3 2.187985 1_555
O30 Si13 1.688027 1_555
O30 Ta4 1.932253 1_555
O31 Si14 1.696808 1_555
O31 Ta5 1.944812 1_555
O32 S5 1.494031 1_555
O32 Ta4 2.222638 1_555
O33 S6 1.538526 1_555
O33 Ta5 2.041764 1_555
O34 Si15 1.685540 1_555
O34 Ta4 1.983138 1_555
O35 Si16 1.736886 1_555
O35 Ta5 1.906570 1_555
O36 Si15 1.603921 1_555
O36 Zn6 1.999049 1_554
O37 Si16 1.607179 1_555
O37 Zn7 1.980512 1_554
O38 Si13 1.602893 1_555
O38 Zn6 1.954318 1_554
O39 Si14 1.593092 1_555
O39 Zn7 2.021086 1_554
O40 S5 1.470743 1_555
O40 Zn6 2.104122 1_554
O41 S6 1.452392 1_555
O41 Zn7 2.332765 1_554
O42 Si11 1.608591 1_555
O42 Zn8 2.017731 1_555
O43 Si12 1.607629 1_555
O43 Zn9 1.966029 1_555
O44 S3 1.451702 1_555
O44 Zn8 2.364101 1_555
O45 S4 1.472080 1_555
O45 Zn9 2.095439 1_555
O46 Si10 1.594789 1_555
O46 Zn8 2.027601 1_555
O47 S2 1.458164 1_555
O47 Zn9 2.195067 1_555
O48 S7 1.520208 1_555
O48 Ta6 2.124600 1_556
O49 Si17 1.663491 1_555
O49 Ta7 2.041817 1_556
O50 Si18 1.709525 1_555
O50 Ta6 1.865346 1_556
O51 Si19 1.710467 1_555
O51 Ta7 1.863578 1_556
O52 Si20 1.701375 1_555
O52 Ta6 1.948618 1_556
O53 Si21 1.679105 1_555
O53 Ta7 1.940057 1_556
O54 Si22 1.704167 1_555
O54 Ta8 1.918697 1_555
O55 S8 1.525721 1_555
O55 Ta9 2.122783 1_555
O56 Si23 1.705098 1_555
O56 Ta8 1.936025 1_555
O57 Si24 1.712149 1_555
O57 Ta9 1.939331 1_555
O58 Si25 1.728442 1_555
O58 Ta8 1.859824 1_555
O59 Si26 1.730694 1_555
O59 Ta9 1.850777 1_555
O60 Si25 1.641783 1_555
O60 Ta10 1.985442 1_555
O61 Si26 1.588225 1_555
O61 Zn10 1.947851 1_555
O62 Si22 1.635460 1_555
O62 Ta10 1.928873 1_555
O63 S8 1.463703 1_555
O63 Zn10 2.303974 1_555
O64 Si23 1.657642 1_555
O64 Ta10 1.957690 1_555
O65 Si24 1.602631 1_555
O65 Zn10 1.965487 1_555
O66 Si18 1.590102 1_555
O66 Zn11 1.936024 1_555
O67 Si19 1.658068 1_555
O67 Ta11 1.951213 1_555
O68 Si20 1.606639 1_555
O68 Zn11 1.972354 1_555
O69 Si21 1.673394 1_555
O69 Ta11 1.944912 1_555
O70 S7 1.469450 1_555
O70 Zn11 2.176912 1_555
O71 Si17 1.654878 1_555
O71 Ta11 1.908078 1_555
O72 Si25 1.608820 1_555
O72 Zn0 2.183192 1_565
O73 Si26 1.656045 1_555
O73 Ta0 2.102325 1_565
O74 Si22 1.645362 1_555
O74 Ta0 2.084242 1_565
O75 S8 1.477168 1_555
O76 Si23 1.618638 1_555
O76 Zn0 2.076301 1_555
O77 Si24 1.670607 1_555
O77 Ta0 2.064497 1_555
O78 Si18 1.658866 1_555
O78 Ta1 2.076340 1_545
O79 Si19 1.612731 1_555
O79 Zn1 2.105544 1_555
O80 Si20 1.682467 1_555
O80 Ta1 2.033895 1_555
O81 Si21 1.617293 1_555
O81 Zn1 2.047934 1_565
O82 S7 1.476924 1_555
O82 Zn1 2.534807 1_565
O83 Si17 1.662602 1_555
O83 Ta1 2.036990 1_655
O84 Si10 1.622037 1_555
O84 Zn3 2.209498 1_555
O85 S2 1.473985 1_555
O86 Si11 1.609779 1_555
O86 Zn2 2.142969 1_555
O87 Si12 1.607421 1_555
O87 Zn3 2.048155 1_555
O88 S3 1.457090 1_555
O88 Zn3 2.505780 1_565
O89 S4 1.454416 1_555
O89 Zn2 2.563496 1_665
O90 Si13 1.615382 1_555
O90 Zn5 2.198772 1_555
O91 Si14 1.620393 1_555
O91 Zn4 2.186773 1_665
O92 S5 1.454583 1_555
O92 Zn5 2.517690 1_545
O93 S6 1.458474 1_565
O93 Zn4 2.510429 1_665
O94 Si15 1.609971 1_555
O94 Zn4 2.024892 1_555
O95 Si16 1.591935 1_555
O95 Zn5 2.150906 1_545
O96 S1 1.566571 1_555
O96 Ta2 2.064661 1_555
O97 Si9 1.718741 1_545
O97 Ta3 1.939530 1_555
O98 Si5 1.692711 1_555
O98 Ta2 2.014492 1_555
O99 Si6 1.692932 1_555
O99 Ta3 1.878509 1_555
O100 Si8 1.703202 1_555
O100 Ta2 1.989406 1_555
O101 Si7 1.673076 1_655
O101 Ta3 1.940345 1_555
O102 Si2 1.699393 1_555
O102 Ta4 1.968530 1_555
O103 S0 1.561277 1_555
O103 Ta5 2.088770 1_555
O104 Si4 1.662705 1_555
O104 Ta4 1.965433 1_555
O105 Si3 1.692486 1_555
O105 Ta5 2.011982 1_555
O106 Si0 1.654275 1_555
O106 Ta4 1.977620 1_555
O107 Si1 1.694559 1_545
O107 Ta5 2.034999 1_555
O108 S7 1.481178 1_555
O108 Zn6 2.439699 1_555
O109 Si17 1.599261 1_555
O109 Zn7 2.158932 1_555
O110 Si19 1.613537 1_555
O110 Zn6 2.235627 1_555
O111 Si18 1.604078 1_655
O111 Zn7 2.114598 1_555
O112 Si20 1.620033 1_545
O112 Zn6 2.161352 1_555
O113 Si21 1.610276 1_545
O113 Zn7 2.227528 1_555
O114 Si22 1.592194 1_545
O114 Zn8 2.137271 1_555
O115 S8 1.487275 1_545
O115 Zn9 2.342991 1_555
O116 Si23 1.608553 1_555
O116 Zn8 2.192252 1_555
O117 Si24 1.628609 1_555
O117 Zn9 2.056273 1_555
O118 Si26 1.603854 1_555
O118 Zn8 2.110633 1_555
O119 Si25 1.625908 1_655
O119 Zn9 2.099528 1_555
O120 Si15 1.703603 1_555
O120 Ta6 1.994591 1_555
O121 Si16 1.686722 1_555
O121 Ta7 2.010831 1_555
O122 Si14 1.697549 1_455
O122 Ta6 1.930339 1_555
O123 Si13 1.695767 1_555
O123 Ta7 1.965872 1_555
O124 S5 1.545392 1_565
O124 Ta6 2.270119 1_555
O125 S6 1.514369 1_565
O125 Ta7 2.376178 1_555
O126 Si11 1.706782 1_565
O126 Ta8 1.998557 1_555
O127 Si12 1.700572 1_565
O127 Ta9 2.014383 1_555
O128 S3 1.535582 1_555
O128 Ta8 2.316411 1_555
O129 S4 1.538036 1_555
O129 Ta9 2.344393 1_555
O130 S2 1.527036 1_455
O130 Ta8 2.215971 1_555
O131 Si10 1.704030 1_555
O131 Ta9 1.933371 1_555
O132 Si0 1.668072 1_565
O132 Ta10 1.978717 1_555
O133 Si1 1.618604 1_555
O133 Zn10 2.054355 1_555
O134 Si2 1.661127 1_555
O134 Ta10 2.020850 1_555
O135 S0 1.477345 1_555
O135 Zn10 2.531634 1_555
O136 Si3 1.682066 1_455
O136 Ta10 2.029832 1_555
O137 Si4 1.630321 1_555
O137 Zn10 2.056772 1_555
O138 Si5 1.614650 1_555
O138 Zn11 2.118627 1_555
O139 Si6 1.651139 1_555
O139 Ta11 2.009725 1_555
O140 Si7 1.618212 1_555
O140 Zn11 2.048692 1_555
O141 Si8 1.681416 1_555
O141 Ta11 2.062521 1_555
O142 S1 1.478123 1_565
O143 Si9 1.651804 1_555
O143 Ta11 2.069722 1_555
