# generated using pymatgen
data_Li3Fe2(PO4)3
_symmetry_space_group_name_H-M   'P 1'
_cell_length_a   4.89005056
_cell_length_b   4.89005056
_cell_length_c   18.88889830
_cell_angle_alpha   89.75417962
_cell_angle_beta   89.75417962
_cell_angle_gamma   67.10173661
_symmetry_Int_Tables_number   1
_chemical_formula_structural   Li3Fe2(PO4)3
_chemical_formula_sum   'Li6 Fe4 P6 O24'
_cell_volume   416.08320038
_cell_formula_units_Z   2
loop_
 _symmetry_equiv_pos_site_id
 _symmetry_equiv_pos_as_xyz
  1  'x, y, z'
loop_
 _atom_site_type_symbol
 _atom_site_label
 _atom_site_symmetry_multiplicity
 _atom_site_fract_x
 _atom_site_fract_y
 _atom_site_fract_z
 _atom_site_occupancy
  Li  Li0  1  0.67306000  0.67306000  0.58623900  1
  Li  Li1  1  0.67253400  0.67253400  0.25328300  1
  Li  Li2  1  0.00037000  0.00037000  0.33403500  1
  Li  Li3  1  0.32694000  0.32694000  0.41376100  1
  Li  Li4  1  0.99963000  0.99963000  0.66596500  1
  Li  Li5  1  0.32746600  0.32746600  0.74671700  1
  Fe  Fe0  1  0.00093800  0.00093800  0.16812300  1
  Fe  Fe1  1  0.00000000  0.00000000  0.00000000  1
  Fe  Fe2  1  0.99906200  0.99906200  0.83187700  1
  Fe  Fe3  1  0.00000000  0.00000000  0.50000000  1
  P  P0  1  0.35131300  0.35131300  0.58174800  1
  P  P1  1  0.65144700  0.65144700  0.75163100  1
  P  P2  1  0.64868700  0.64868700  0.41825200  1
  P  P3  1  0.34855300  0.34855300  0.24836900  1
  P  P4  1  0.65174700  0.65174700  0.08344400  1
  P  P5  1  0.34825300  0.34825300  0.91655600  1
  O  O0  1  0.29975000  0.76262400  0.42256800  1
  O  O1  1  0.30174400  0.76332500  0.75681200  1
  O  O2  1  0.23737600  0.70025000  0.57743200  1
  O  O3  1  0.76629500  0.76629500  0.81603600  1
  O  O4  1  0.23370500  0.23370500  0.18396400  1
  O  O5  1  0.69825600  0.23667500  0.24318800  1
  O  O6  1  0.23638800  0.23638800  0.98175100  1
  O  O7  1  0.75995200  0.75995200  0.48503100  1
  O  O8  1  0.75448600  0.75448600  0.15211100  1
  O  O9  1  0.70025000  0.23737600  0.57743200  1
  O  O10  1  0.23667500  0.69825600  0.24318800  1
  O  O11  1  0.70001100  0.22441700  0.91741800  1
  O  O12  1  0.29998900  0.77558300  0.08258200  1
  O  O13  1  0.74845200  0.74845200  0.35063900  1
  O  O14  1  0.24551400  0.24551400  0.84788900  1
  O  O15  1  0.77558300  0.29998900  0.08258200  1
  O  O16  1  0.76332500  0.30174400  0.75681200  1
  O  O17  1  0.24004800  0.24004800  0.51496900  1
  O  O18  1  0.22441700  0.70001100  0.91741800  1
  O  O19  1  0.76262400  0.29975000  0.42256800  1
  O  O20  1  0.74608800  0.74608800  0.68254800  1
  O  O21  1  0.25154800  0.25154800  0.64936100  1
  O  O22  1  0.76361200  0.76361200  0.01824900  1
  O  O23  1  0.25391200  0.25391200  0.31745200  1
loop_
_geom_bond_atom_site_label_1
_geom_bond_atom_site_label_2
_geom_bond_distance
_geom_bond_site_symmetry_2
Li0 O20 1.916984 1_555
Li0 O7 2.035258 1_555
Li0 O9 2.089704 1_555
Li0 O2 2.089704 1_555
Li1 O13 1.943280 1_555
Li1 O8 2.021154 1_555
Li1 O5 2.095134 1_555
Li1 O10 2.095134 1_555
Li2 O13 2.075524 1_445
Li2 O23 2.088552 1_555
Li2 O0 2.229630 1_545
Li2 O19 2.229630 1_455
Li2 O5 2.266883 1_455
Li2 O10 2.266883 1_545
Li3 O23 1.916984 1_555
Li3 O17 2.035258 1_555
Li3 O0 2.089704 1_555
Li3 O19 2.089704 1_555
Li4 O21 2.075524 1_665
Li4 O20 2.088552 1_555
Li4 O2 2.229630 1_655
Li4 O9 2.229630 1_565
Li4 O1 2.266883 1_655
Li4 O16 2.266883 1_565
Li5 O21 1.943280 1_555
Li5 O14 2.021154 1_555
Li5 O16 2.095134 1_555
Li5 O1 2.095134 1_555
Fe0 O4 1.922184 1_555
Fe0 O8 2.032935 1_445
Fe0 O5 2.048979 1_455
Fe0 O10 2.048979 1_545
Fe0 O15 2.169006 1_455
Fe0 O12 2.169006 1_545
Fe1 O22 1.955570 1_445
Fe1 O6 1.955570 1_554
Fe1 O12 2.131124 1_545
Fe1 O15 2.131124 1_455
Fe1 O18 2.131124 1_544
Fe1 O11 2.131124 1_454
Fe2 O3 1.922184 1_555
Fe2 O14 2.032935 1_665
Fe2 O1 2.048979 1_655
Fe2 O16 2.048979 1_565
Fe2 O11 2.169006 1_565
Fe2 O18 2.169006 1_655
Fe3 O17 1.978322 1_555
Fe3 O7 1.978322 1_445
Fe3 O9 2.075399 1_455
Fe3 O2 2.075399 1_545
Fe3 O0 2.075399 1_545
Fe3 O19 2.075399 1_455
O0 P2 1.577332 1_555
O1 P1 1.582462 1_555
O2 P0 1.577332 1_555
O3 P1 1.538817 1_555
O4 P3 1.538817 1_555
O5 P3 1.582462 1_555
O6 P5 1.528488 1_555
O7 P2 1.557339 1_555
O8 P4 1.547493 1_555
O9 P0 1.577332 1_555
O10 P3 1.582462 1_555
O11 P5 1.585978 1_555
O12 P4 1.585978 1_555
O13 P2 1.510497 1_555
O14 P5 1.547493 1_555
O15 P4 1.585978 1_555
O16 P1 1.582462 1_555
O17 P0 1.557339 1_555
O18 P5 1.585978 1_555
O19 P2 1.577332 1_555
O20 P1 1.512431 1_555
O21 P0 1.510497 1_555
O22 P4 1.528488 1_555
O23 P3 1.512431 1_555
