# generated using pymatgen
data_BaIn2Pt
_symmetry_space_group_name_H-M   'P 1'
_cell_length_a   4.52734666
_cell_length_b   6.41523069
_cell_length_c   8.07343478
_cell_angle_alpha   90.00000000
_cell_angle_beta   90.00000000
_cell_angle_gamma   110.66229305
_symmetry_Int_Tables_number   1
_chemical_formula_structural   BaIn2Pt
_chemical_formula_sum   'Ba2 In4 Pt2'
_cell_volume   219.40174126
_cell_formula_units_Z   2
loop_
 _symmetry_equiv_pos_site_id
 _symmetry_equiv_pos_as_xyz
  1  'x, y, z'
loop_
 _atom_site_type_symbol
 _atom_site_label
 _atom_site_symmetry_multiplicity
 _atom_site_fract_x
 _atom_site_fract_y
 _atom_site_fract_z
 _atom_site_occupancy
  Ba  Ba0  1  0.95052474  0.90104848  0.25000000  1
  Ba  Ba1  1  0.04947526  0.09895152  0.75000000  1
  In  In0  1  0.33229611  0.66459221  0.55717092  1
  In  In1  1  0.66770389  0.33540779  0.44282908  1
  In  In2  1  0.33229611  0.66459221  0.94282908  1
  In  In3  1  0.66770389  0.33540779  0.05717092  1
  Pt  Pt0  1  0.77479427  0.54958853  0.75000000  1
  Pt  Pt1  1  0.22520573  0.45041147  0.25000000  1
loop_
_geom_bond_atom_site_label_1
_geom_bond_atom_site_label_2
_geom_bond_distance
_geom_bond_site_symmetry_2
Ba0 Pt1 3.297595 1_665
Ba0 Pt1 3.527201 1_655
Ba0 Pt1 3.527204 1_555
Ba0 In0 3.645378 1_655
Ba0 In2 3.645378 1_654
Ba0 In0 3.645381 1_555
Ba0 In2 3.645381 1_554
Ba0 In3 3.735196 1_555
Ba0 In1 3.735196 1_555
Ba0 In3 3.787572 1_665
Ba0 In1 3.787572 1_665
Ba0 In3 3.787575 1_565
Ba0 In1 3.787575 1_565
Ba1 Pt0 3.297595 1_445
Ba1 Pt0 3.527201 1_455
Ba1 Pt0 3.527204 1_555
Ba1 In3 3.645378 1_456
Ba1 In1 3.645378 1_455
Ba1 In3 3.645381 1_556
Ba1 In1 3.645381 1_555
Ba1 In2 3.735196 1_555
Ba1 In0 3.735196 1_555
Ba1 In2 3.787572 1_445
Ba1 In0 3.787572 1_445
Ba1 In0 3.787575 1_545
Ba1 In2 3.787575 1_545
In0 Pt1 2.793365 1_555
In0 Pt0 2.832730 1_555
In0 Pt0 2.832730 1_455
In1 Pt0 2.793365 1_555
In1 Pt1 2.832730 1_555
In1 Pt1 2.832730 1_655
In2 Pt1 2.793365 1_556
In2 Pt0 2.832730 1_555
In2 Pt0 2.832730 1_455
In3 Pt0 2.793365 1_554
In3 Pt1 2.832730 1_555
In3 Pt1 2.832730 1_655
